
     RDKit          3D

 41 41  0  0  0  0  0  0  0  0999 V2000
    7.5878    4.6047    1.1296 C   0  0  0  0  0  0  0  0  0  0  0  0
    6.3688    4.6852    2.0418 C   0  0  0  0  0  0  0  0  0  0  0  0
    5.9800    3.3689    2.5860 N   0  0  0  0  0  0  0  0  0  0  0  0
    4.7693    2.8634    2.4533 C   0  0  0  0  0  0  0  0  0  0  0  0
    3.8009    3.3227    1.8867 O   0  0  0  0  0  0  0  0  0  0  0  0
    4.4759    1.3739    3.2078 C   0  0  1  0  0  0  0  0  0  0  0  0
    3.5257    0.5877    2.3127 C   0  0  0  0  0  0  0  0  0  0  0  0
    5.6455    0.7101    3.5277 N   0  0  0  0  0  0  0  0  0  0  0  0
    6.4750    0.9361    4.7394 C   0  0  1  0  0  0  0  0  0  0  0  0
    6.6934   -0.4413    5.3997 C   0  0  0  0  0  0  0  0  0  0  0  0
    7.7490    1.7065    4.4647 C   0  0  0  0  0  0  0  0  0  0  0  0
    8.1881    2.7204    5.3793 C   0  0  0  0  0  0  0  0  0  0  0  0
    9.3678    3.4030    5.1847 C   0  0  0  0  0  0  0  0  0  0  0  0
   10.1967    3.0866    4.0540 C   0  0  0  0  0  0  0  0  0  0  0  0
   11.4299    4.1809    3.5424 S   0  0  1  0  0  0  0  0  0  0  0  0
   12.8628    3.2344    3.5521 N   0  0  0  0  0  0  0  0  0  0  0  0
   11.2983    4.5200    2.1087 O   0  0  0  0  0  0  0  0  0  0  0  0
   11.5475    5.2654    4.5353 O   0  0  0  0  0  0  0  0  0  0  0  0
    9.8397    1.9801    3.2107 C   0  0  0  0  0  0  0  0  0  0  0  0
    8.6651    1.3002    3.4342 C   0  0  0  0  0  0  0  0  0  0  0  0
    7.7945    5.6049    0.7187 H   0  0  0  0  0  0  0  0  0  0  0  0
    7.4074    3.9219    0.2844 H   0  0  0  0  0  0  0  0  0  0  0  0
    8.4954    4.2816    1.6600 H   0  0  0  0  0  0  0  0  0  0  0  0
    5.4984    5.0892    1.5081 H   0  0  0  0  0  0  0  0  0  0  0  0
    6.5717    5.3503    2.8963 H   0  0  0  0  0  0  0  0  0  0  0  0
    6.6840    2.8618    3.1470 H   0  0  0  0  0  0  0  0  0  0  0  0
    3.9796    1.7353    4.1235 H   0  0  0  0  0  0  0  0  0  0  0  0
    4.0182    0.2872    1.3746 H   0  0  0  0  0  0  0  0  0  0  0  0
    2.6575    1.2078    2.0547 H   0  0  0  0  0  0  0  0  0  0  0  0
    3.1882   -0.3160    2.8396 H   0  0  0  0  0  0  0  0  0  0  0  0
    6.0591    0.1318    2.7997 H   0  0  0  0  0  0  0  0  0  0  0  0
    5.8419    1.5361    5.4138 H   0  0  0  0  0  0  0  0  0  0  0  0
    7.3118   -1.0892    4.7582 H   0  0  0  0  0  0  0  0  0  0  0  0
    5.7460   -0.9593    5.6214 H   0  0  0  0  0  0  0  0  0  0  0  0
    7.2412   -0.2928    6.3401 H   0  0  0  0  0  0  0  0  0  0  0  0
    7.5584    2.9826    6.2363 H   0  0  0  0  0  0  0  0  0  0  0  0
    9.6731    4.2085    5.8533 H   0  0  0  0  0  0  0  0  0  0  0  0
   13.5291    3.6983    2.9303 H   0  0  0  0  0  0  0  0  0  0  0  0
   13.2406    3.2138    4.5012 H   0  0  0  0  0  0  0  0  0  0  0  0
   10.5076    1.6873    2.3989 H   0  0  0  0  0  0  0  0  0  0  0  0
    8.4354    0.4452    2.7885 H   0  0  0  0  0  0  0  0  0  0  0  0
  1  2  1  0
  1 21  1  0
  1 22  1  0
  1 23  1  0
  2  3  1  0
  2 24  1  0
  2 25  1  0
  3  4  1  0
  3 26  1  0
  4  5  2  0
  4  6  1  0
  6  7  1  0
  6  8  1  0
  6 27  1  1
  7 28  1  0
  7 29  1  0
  7 30  1  0
  8  9  1  0
  8 31  1  0
  9 10  1  0
  9 11  1  0
  9 32  1  1
 10 33  1  0
 10 34  1  0
 10 35  1  0
 11 12  2  0
 11 20  1  0
 12 13  1  0
 12 36  1  0
 13 14  2  0
 13 37  1  0
 14 15  1  0
 14 19  1  0
 15 16  1  1
 15 17  2  0
 15 18  2  0
 16 38  1  0
 16 39  1  0
 19 20  2  0
 19 40  1  0
 20 41  1  0
M  END

