
     RDKit          3D

 56 58  0  0  0  0  0  0  0  0999 V2000
    5.5358   -7.0902    1.3661 C   0  0  0  0  0  0  0  0  0  0  0  0
    6.1267   -6.1739    0.3293 C   0  0  0  0  0  0  0  0  0  0  0  0
    5.5741   -4.8883    0.0765 C   0  0  0  0  0  0  0  0  0  0  0  0
    6.1226   -3.9842   -0.8133 C   0  0  0  0  0  0  0  0  0  0  0  0
    5.4222   -2.6722   -1.0740 C   0  0  0  0  0  0  0  0  0  0  0  0
    7.3544   -4.3462   -1.5088 C   0  0  0  0  0  0  0  0  0  0  0  0
    8.3842   -3.0652   -2.0262 S   0  0  1  0  0  0  0  0  0  0  0  0
    9.7554   -3.5729   -2.3401 O   0  0  0  0  0  0  0  0  0  0  0  0
    7.7533   -2.1698   -3.0164 O   0  0  0  0  0  0  0  0  0  0  0  0
    8.6055   -1.8983   -0.6843 N   0  0  0  0  0  0  0  0  0  0  0  0
    9.8253   -2.0179    0.0854 C   0  0  0  0  0  0  0  0  0  0  0  0
    9.7494   -3.1667    1.1183 C   0  0  0  0  0  0  0  0  0  0  0  0
   11.1199   -3.4272    1.6967 C   0  0  0  0  0  0  0  0  0  0  0  0
   11.5846   -2.8286    2.6533 O   0  0  0  0  0  0  0  0  0  0  0  0
   11.9113   -4.3554    1.0322 N   0  0  0  0  0  0  0  0  0  0  0  0
   11.5441   -5.1368   -0.1657 C   0  0  0  0  0  0  0  0  0  0  0  0
   12.8353   -5.8852   -0.4682 C   0  0  1  0  0  0  0  0  0  0  0  0
   13.1100   -6.1678   -1.8011 O   0  0  0  0  0  0  0  0  0  0  0  0
   14.3334   -6.8178   -1.9493 C   0  0  0  0  0  0  0  0  0  0  0  0
   15.5037   -5.9264   -1.3854 C   0  0  0  0  0  0  0  0  0  0  0  0
   15.2020   -5.5362   -0.0251 N   0  0  0  0  0  0  0  0  0  0  0  0
   15.8252   -6.2031    1.0955 C   0  0  0  0  0  0  0  0  0  0  0  0
   13.9291   -4.8822    0.0861 C   0  0  2  0  0  0  0  0  0  0  0  0
   13.3116   -4.4737    1.4147 C   0  0  0  0  0  0  0  0  0  0  0  0
    7.8303   -5.7287   -1.4066 C   0  0  0  0  0  0  0  0  0  0  0  0
    8.7510   -6.3376   -2.4420 C   0  0  0  0  0  0  0  0  0  0  0  0
    7.2178   -6.5634   -0.4821 C   0  0  0  0  0  0  0  0  0  0  0  0
    4.4325   -7.0327    1.3846 H   0  0  0  0  0  0  0  0  0  0  0  0
    5.8724   -6.8576    2.3972 H   0  0  0  0  0  0  0  0  0  0  0  0
    5.8061   -8.1431    1.1769 H   0  0  0  0  0  0  0  0  0  0  0  0
    4.6435   -4.6086    0.5841 H   0  0  0  0  0  0  0  0  0  0  0  0
    4.4494   -2.6483   -0.5590 H   0  0  0  0  0  0  0  0  0  0  0  0
    5.2609   -2.5097   -2.1513 H   0  0  0  0  0  0  0  0  0  0  0  0
    6.0163   -1.8149   -0.7178 H   0  0  0  0  0  0  0  0  0  0  0  0
    8.5385   -0.9940   -1.1511 H   0  0  0  0  0  0  0  0  0  0  0  0
    9.9879   -1.0734    0.6302 H   0  0  0  0  0  0  0  0  0  0  0  0
   10.7111   -2.1694   -0.5638 H   0  0  0  0  0  0  0  0  0  0  0  0
    9.3266   -4.0616    0.6426 H   0  0  0  0  0  0  0  0  0  0  0  0
    9.0793   -2.8811    1.9400 H   0  0  0  0  0  0  0  0  0  0  0  0
   11.2263   -4.5071   -1.0145 H   0  0  0  0  0  0  0  0  0  0  0  0
   10.7277   -5.8426    0.0383 H   0  0  0  0  0  0  0  0  0  0  0  0
   12.9141   -6.8100    0.1378 H   0  0  0  0  0  0  0  0  0  0  0  0
   14.5118   -6.9864   -3.0182 H   0  0  0  0  0  0  0  0  0  0  0  0
   14.3452   -7.7883   -1.4191 H   0  0  0  0  0  0  0  0  0  0  0  0
   15.5694   -5.0211   -2.0041 H   0  0  0  0  0  0  0  0  0  0  0  0
   16.4543   -6.4719   -1.4273 H   0  0  0  0  0  0  0  0  0  0  0  0
   16.8459   -6.5011    0.8289 H   0  0  0  0  0  0  0  0  0  0  0  0
   15.2492   -7.1057    1.3705 H   0  0  0  0  0  0  0  0  0  0  0  0
   15.8448   -5.5328    1.9632 H   0  0  0  0  0  0  0  0  0  0  0  0
   13.9263   -4.0354   -0.6141 H   0  0  0  0  0  0  0  0  0  0  0  0
   13.6769   -3.5126    1.8033 H   0  0  0  0  0  0  0  0  0  0  0  0
   13.4732   -5.2319    2.2052 H   0  0  0  0  0  0  0  0  0  0  0  0
    9.7126   -5.8179   -2.5395 H   0  0  0  0  0  0  0  0  0  0  0  0
    8.2862   -6.2824   -3.4446 H   0  0  0  0  0  0  0  0  0  0  0  0
    8.9290   -7.4030   -2.2206 H   0  0  0  0  0  0  0  0  0  0  0  0
    7.5432   -7.6111   -0.4426 H   0  0  0  0  0  0  0  0  0  0  0  0
  1  2  1  0
  1 28  1  0
  1 29  1  0
  1 30  1  0
  2  3  2  0
  2 27  1  0
  3  4  1  0
  3 31  1  0
  4  5  1  0
  4  6  2  0
  5 32  1  0
  5 33  1  0
  5 34  1  0
  6  7  1  0
  6 25  1  0
  7  8  2  0
  7  9  2  0
  7 10  1  1
 10 11  1  0
 10 35  1  0
 11 12  1  0
 11 36  1  0
 11 37  1  0
 12 13  1  0
 12 38  1  0
 12 39  1  0
 13 14  2  0
 13 15  1  0
 15 16  1  0
 15 24  1  0
 16 17  1  0
 16 40  1  0
 16 41  1  0
 17 18  1  0
 17 23  1  0
 17 42  1  1
 18 19  1  0
 19 20  1  0
 19 43  1  0
 19 44  1  0
 20 21  1  0
 20 45  1  0
 20 46  1  0
 21 22  1  0
 21 23  1  0
 22 47  1  0
 22 48  1  0
 22 49  1  0
 23 24  1  0
 23 50  1  6
 24 51  1  0
 24 52  1  0
 25 26  1  0
 25 27  2  0
 26 53  1  0
 26 54  1  0
 26 55  1  0
 27 56  1  0
M  END

