
     RDKit          3D

 32 32  0  0  0  0  0  0  0  0999 V2000
    5.5869   -1.1737   -0.5793 C   0  0  0  0  0  0  0  0  0  0  0  0
    4.6207   -0.0948   -1.0350 C   0  0  0  0  0  0  0  0  0  0  0  0
    4.9791    1.1884   -0.4744 O   0  0  0  0  0  0  0  0  0  0  0  0
    4.4962    1.5050    0.7290 C   0  0  0  0  0  0  0  0  0  0  0  0
    3.7002    0.8620    1.3623 O   0  0  0  0  0  0  0  0  0  0  0  0
    5.0941    2.8166    1.2141 C   0  0  0  0  0  0  0  0  0  0  0  0
    6.9223    2.6658    1.3394 S   0  0  1  0  0  0  0  0  0  0  0  0
    7.2101    1.3388    1.9124 O   0  0  0  0  0  0  0  0  0  0  0  0
    7.5306    3.0864    0.0766 O   0  0  0  0  0  0  0  0  0  0  0  0
    7.3283    3.9156    2.6220 C   0  0  0  0  0  0  0  0  0  0  0  0
    8.8209    4.1035    2.7186 C   0  0  0  0  0  0  0  0  0  0  0  0
    9.6667    3.0439    3.0826 C   0  0  0  0  0  0  0  0  0  0  0  0
   11.0377    3.2816    3.1417 C   0  0  0  0  0  0  0  0  0  0  0  0
   11.5259    4.5616    2.8466 C   0  0  0  0  0  0  0  0  0  0  0  0
   12.9779    4.9454    2.9039 C   0  0  0  0  0  0  0  0  0  0  0  0
   13.3482    6.0809    3.0340 O   0  0  0  0  0  0  0  0  0  0  0  0
   13.8720    3.9365    2.8008 O   0  0  0  0  0  0  0  0  0  0  0  0
   10.5873    5.5548    2.5190 C   0  0  0  0  0  0  0  0  0  0  0  0
    9.2782    5.3313    2.4439 N   0  0  0  0  0  0  0  0  0  0  0  0
    5.3494   -2.1232   -1.0852 H   0  0  0  0  0  0  0  0  0  0  0  0
    5.5153   -1.3332    0.5067 H   0  0  0  0  0  0  0  0  0  0  0  0
    6.6238   -0.8962   -0.8215 H   0  0  0  0  0  0  0  0  0  0  0  0
    3.5860   -0.3296   -0.7457 H   0  0  0  0  0  0  0  0  0  0  0  0
    4.6673    0.0578   -2.1222 H   0  0  0  0  0  0  0  0  0  0  0  0
    4.6968    3.0393    2.2119 H   0  0  0  0  0  0  0  0  0  0  0  0
    4.9027    3.6383    0.5101 H   0  0  0  0  0  0  0  0  0  0  0  0
    6.8841    3.5367    3.5545 H   0  0  0  0  0  0  0  0  0  0  0  0
    6.8628    4.8635    2.3216 H   0  0  0  0  0  0  0  0  0  0  0  0
    9.2519    2.0576    3.2961 H   0  0  0  0  0  0  0  0  0  0  0  0
   11.7083    2.4710    3.4429 H   0  0  0  0  0  0  0  0  0  0  0  0
   13.4355    3.1104    2.5504 H   0  0  0  0  0  0  0  0  0  0  0  0
   10.9409    6.5687    2.3067 H   0  0  0  0  0  0  0  0  0  0  0  0
  1  2  1  0
  1 20  1  0
  1 21  1  0
  1 22  1  0
  2  3  1  0
  2 23  1  0
  2 24  1  0
  3  4  1  0
  4  5  2  0
  4  6  1  0
  7  6  1  6
  6 25  1  0
  6 26  1  0
  7  8  2  0
  7  9  2  0
  7 10  1  0
 10 11  1  0
 10 27  1  0
 10 28  1  0
 11 12  2  0
 11 19  1  0
 12 13  1  0
 12 29  1  0
 13 14  2  0
 13 30  1  0
 14 15  1  0
 14 18  1  0
 15 16  2  0
 15 17  1  0
 17 31  1  0
 18 19  2  0
 18 32  1  0
M  END

