
     RDKit          3D

 37 40  0  0  0  0  0  0  0  0999 V2000
    2.7178   -1.1772    0.0873 N   0  0  0  0  0  0  0  0  0  0  0  0
    2.6197    0.1975   -0.0786 C   0  0  0  0  0  0  0  0  0  0  0  0
    1.9656    0.6482   -1.0525 O   0  0  0  0  0  0  0  0  0  0  0  0
    3.3301    1.0157    0.8980 C   0  0  0  0  0  0  0  0  0  0  0  0
    4.1958    0.4712    1.8964 C   0  0  0  0  0  0  0  0  0  0  0  0
    4.7379    1.3873    2.8546 C   0  0  0  0  0  0  0  0  0  0  0  0
    5.5750    1.2838    4.0037 C   0  0  0  0  0  0  0  0  0  0  0  0
    6.2167    0.2161    4.6569 C   0  0  0  0  0  0  0  0  0  0  0  0
    6.9829    0.4788    5.7852 C   0  0  0  0  0  0  0  0  0  0  0  0
    7.1371    1.8048    6.3028 C   0  0  0  0  0  0  0  0  0  0  0  0
    6.5251    2.8865    5.6999 C   0  0  0  0  0  0  0  0  0  0  0  0
    5.7376    2.6410    4.5504 C   0  0  0  0  0  0  0  0  0  0  0  0
    5.0323    3.4908    3.7831 N   0  0  0  0  0  0  0  0  0  0  0  0
    4.8658    4.9360    3.9453 C   0  0  0  0  0  0  0  0  0  0  0  0
    5.6719    5.7476    2.9812 C   0  0  0  0  0  0  0  0  0  0  0  0
    6.6985    6.6594    3.1449 C   0  0  0  0  0  0  0  0  0  0  0  0
    7.0940    7.1575    1.9324 N   0  0  0  0  0  0  0  0  0  0  0  0
    6.3310    6.5579    1.0418 C   0  0  0  0  0  0  0  0  0  0  0  0
    5.4472    5.7010    1.6238 N   0  0  0  0  0  0  0  0  0  0  0  0
    4.7645    5.0632    1.2040 H   0  0  0  0  0  0  0  0  0  0  0  0
    4.4251    2.7389    2.7211 C   0  0  0  0  0  0  0  0  0  0  0  0
    3.6943    3.3187    1.7667 N   0  0  0  0  0  0  0  0  0  0  0  0
    3.1519    2.4555    0.8682 C   0  0  0  0  0  0  0  0  0  0  0  0
    2.4079    2.9925   -0.1090 N   0  0  0  0  0  0  0  0  0  0  0  0
    2.0720   -1.6926   -0.5024 H   0  0  0  0  0  0  0  0  0  0  0  0
    2.7869   -1.5242    1.0397 H   0  0  0  0  0  0  0  0  0  0  0  0
    4.4996   -0.5737    1.8731 H   0  0  0  0  0  0  0  0  0  0  0  0
    6.1126   -0.8026    4.2792 H   0  0  0  0  0  0  0  0  0  0  0  0
    7.4879   -0.3437    6.2973 H   0  0  0  0  0  0  0  0  0  0  0  0
    7.7562    1.9582    7.1891 H   0  0  0  0  0  0  0  0  0  0  0  0
    6.6549    3.8963    6.0913 H   0  0  0  0  0  0  0  0  0  0  0  0
    5.1430    5.2034    4.9726 H   0  0  0  0  0  0  0  0  0  0  0  0
    3.7902    5.1439    3.8238 H   0  0  0  0  0  0  0  0  0  0  0  0
    7.1583    6.9833    4.0792 H   0  0  0  0  0  0  0  0  0  0  0  0
    6.3778    6.7039   -0.0378 H   0  0  0  0  0  0  0  0  0  0  0  0
    2.2433    3.9915   -0.1107 H   0  0  0  0  0  0  0  0  0  0  0  0
    2.0144    2.2990   -0.7838 H   0  0  0  0  0  0  0  0  0  0  0  0
  1  2  1  0
  1 25  1  0
  1 26  1  0
  2  3  2  0
  2  4  1  0
  4  5  2  0
  4 23  1  0
  5  6  1  0
  5 27  1  0
  6  7  1  0
  6 21  2  0
  7  8  2  0
  7 12  1  0
  8  9  1  0
  8 28  1  0
  9 10  2  0
  9 29  1  0
 10 11  1  0
 10 30  1  0
 11 12  2  0
 11 31  1  0
 12 13  1  0
 13 14  1  0
 13 21  1  0
 14 15  1  0
 14 32  1  0
 14 33  1  0
 15 16  2  0
 15 19  1  0
 16 17  1  0
 16 34  1  0
 17 18  2  0
 18 19  1  0
 18 35  1  0
 19 20  1  0
 21 22  1  0
 22 23  2  0
 23 24  1  0
 24 36  1  0
 24 37  1  0
M  END

