
     RDKit          3D

 54 55  0  0  0  0  0  0  0  0999 V2000
    2.9512    2.7849    2.3131 C   0  0  0  0  0  0  0  0  0  0  0  0
    2.5898    1.9301    1.0982 C   0  0  0  0  0  0  0  0  0  0  0  0
    3.0600    0.4726    1.1978 C   0  0  2  0  0  0  0  0  0  0  0  0
    2.7477   -0.0756    0.2917 H   0  0  0  0  0  0  0  0  0  0  0  0
    2.5542   -0.1853    2.3584 O   0  0  0  0  0  0  0  0  0  0  0  0
    1.2978   -0.7285    2.3851 C   0  0  0  0  0  0  0  0  0  0  0  0
    0.4146   -0.7645    1.3020 C   0  0  0  0  0  0  0  0  0  0  0  0
   -0.8422   -1.3694    1.4454 C   0  0  0  0  0  0  0  0  0  0  0  0
   -1.2630   -1.9474    2.6495 C   0  0  0  0  0  0  0  0  0  0  0  0
   -2.6377   -2.6191    2.8306 C   0  0  1  0  0  0  0  0  0  0  0  0
   -3.4834   -2.5648    1.5455 C   0  0  0  0  0  0  0  0  0  0  0  0
   -2.4374   -4.1039    3.2145 C   0  0  0  0  0  0  0  0  0  0  0  0
   -3.4203   -1.9008    3.9543 C   0  0  0  0  0  0  0  0  0  0  0  0
   -0.3538   -1.8910    3.7257 C   0  0  0  0  0  0  0  0  0  0  0  0
    0.8974   -1.2962    3.6051 C   0  0  0  0  0  0  0  0  0  0  0  0
    4.6017    0.3901    1.1928 C   0  0  0  0  0  0  0  0  0  0  0  0
    5.2180    0.9397    0.2959 O   0  0  0  0  0  0  0  0  0  0  0  0
    5.1353   -0.3258    2.2241 N   0  0  0  0  0  0  0  0  0  0  0  0
    6.4854   -0.6178    2.5099 C   0  0  0  0  0  0  0  0  0  0  0  0
    7.5300   -0.1525    1.6940 C   0  0  0  0  0  0  0  0  0  0  0  0
    8.8451   -0.4732    2.0233 C   0  0  0  0  0  0  0  0  0  0  0  0
    9.1263   -1.2464    3.1486 C   0  0  0  0  0  0  0  0  0  0  0  0
    8.0950   -1.7182    3.9752 C   0  0  0  0  0  0  0  0  0  0  0  0
    8.4472   -2.5532    5.1869 C   0  0  0  0  0  0  0  0  0  0  0  0
    6.7556   -1.4043    3.6588 C   0  0  0  0  0  0  0  0  0  0  0  0
    5.6044   -1.8849    4.5147 C   0  0  0  0  0  0  0  0  0  0  0  0
    2.5623    3.8082    2.1959 H   0  0  0  0  0  0  0  0  0  0  0  0
    4.0429    2.8599    2.4427 H   0  0  0  0  0  0  0  0  0  0  0  0
    2.5262    2.3676    3.2390 H   0  0  0  0  0  0  0  0  0  0  0  0
    3.0479    2.3441    0.1866 H   0  0  0  0  0  0  0  0  0  0  0  0
    1.4987    1.9357    0.9426 H   0  0  0  0  0  0  0  0  0  0  0  0
    0.6796   -0.3264    0.3397 H   0  0  0  0  0  0  0  0  0  0  0  0
   -1.4978   -1.3745    0.5744 H   0  0  0  0  0  0  0  0  0  0  0  0
   -2.9944   -3.0887    0.7091 H   0  0  0  0  0  0  0  0  0  0  0  0
   -3.6858   -1.5293    1.2299 H   0  0  0  0  0  0  0  0  0  0  0  0
   -4.4554   -3.0532    1.7176 H   0  0  0  0  0  0  0  0  0  0  0  0
   -1.8866   -4.6440    2.4281 H   0  0  0  0  0  0  0  0  0  0  0  0
   -3.4111   -4.6022    3.3533 H   0  0  0  0  0  0  0  0  0  0  0  0
   -1.8719   -4.2121    4.1527 H   0  0  0  0  0  0  0  0  0  0  0  0
   -3.5889   -0.8414    3.7034 H   0  0  0  0  0  0  0  0  0  0  0  0
   -2.8844   -1.9350    4.9154 H   0  0  0  0  0  0  0  0  0  0  0  0
   -4.4036   -2.3762    4.1053 H   0  0  0  0  0  0  0  0  0  0  0  0
   -0.6266   -2.3222    4.6919 H   0  0  0  0  0  0  0  0  0  0  0  0
    1.5852   -1.2601    4.4528 H   0  0  0  0  0  0  0  0  0  0  0  0
    4.4365   -0.6907    2.8622 H   0  0  0  0  0  0  0  0  0  0  0  0
    7.2926    0.4497    0.8205 H   0  0  0  0  0  0  0  0  0  0  0  0
    9.6598   -0.1123    1.3901 H   0  0  0  0  0  0  0  0  0  0  0  0
   10.1623   -1.4920    3.3963 H   0  0  0  0  0  0  0  0  0  0  0  0
    9.5353   -2.6942    5.2579 H   0  0  0  0  0  0  0  0  0  0  0  0
    7.9869   -3.5547    5.1485 H   0  0  0  0  0  0  0  0  0  0  0  0
    8.1144   -2.0818    6.1269 H   0  0  0  0  0  0  0  0  0  0  0  0
    5.9419   -2.4940    5.3608 H   0  0  0  0  0  0  0  0  0  0  0  0
    4.8945   -2.5041    3.9373 H   0  0  0  0  0  0  0  0  0  0  0  0
    5.0280   -1.0416    4.9360 H   0  0  0  0  0  0  0  0  0  0  0  0
  1  2  1  0
  1 27  1  0
  1 28  1  0
  1 29  1  0
  2  3  1  0
  2 30  1  0
  2 31  1  0
  3  4  1  6
  3  5  1  0
  3 16  1  0
  5  6  1  0
  6  7  2  0
  6 15  1  0
  7  8  1  0
  7 32  1  0
  8  9  2  0
  8 33  1  0
  9 10  1  0
  9 14  1  0
 10 11  1  6
 10 12  1  0
 10 13  1  0
 11 34  1  0
 11 35  1  0
 11 36  1  0
 12 37  1  0
 12 38  1  0
 12 39  1  0
 13 40  1  0
 13 41  1  0
 13 42  1  0
 14 15  2  0
 14 43  1  0
 15 44  1  0
 16 17  2  0
 16 18  1  0
 18 19  1  0
 18 45  1  0
 19 20  2  0
 19 25  1  0
 20 21  1  0
 20 46  1  0
 21 22  2  0
 21 47  1  0
 22 23  1  0
 22 48  1  0
 23 24  1  0
 23 25  2  0
 24 49  1  0
 24 50  1  0
 24 51  1  0
 25 26  1  0
 26 52  1  0
 26 53  1  0
 26 54  1  0
M  END

