
     RDKit          3D

 44 45  0  0  0  0  0  0  0  0999 V2000
    1.2728    0.3023    1.1464 C   0  0  0  0  0  0  0  0  0  0  0  0
    2.7261    0.1708    0.7668 C   0  0  0  0  0  0  0  0  0  0  0  0
    3.4058   -1.0498    0.9176 C   0  0  0  0  0  0  0  0  0  0  0  0
    4.7592   -1.1686    0.6023 C   0  0  0  0  0  0  0  0  0  0  0  0
    5.4724   -0.0610    0.1144 C   0  0  0  0  0  0  0  0  0  0  0  0
    6.9353   -0.2131   -0.2121 C   0  0  0  0  0  0  0  0  0  0  0  0
    7.2234   -0.8876   -1.4736 N   0  0  0  0  0  0  0  0  0  0  0  0
    6.2600   -0.9725   -2.5424 C   0  0  0  0  0  0  0  0  0  0  0  0
    8.4750   -1.6326   -1.6030 C   0  0  1  0  0  0  0  0  0  0  0  0
    9.7050   -0.7876   -1.2459 C   0  0  0  0  0  0  0  0  0  0  0  0
    8.4130   -2.9130   -0.6776 C   0  0  0  0  0  0  0  0  0  0  0  0
    8.0615   -2.7781    0.4838 O   0  0  0  0  0  0  0  0  0  0  0  0
    8.8282   -4.0278   -1.2816 N   0  0  0  0  0  0  0  0  0  0  0  0
    8.9909   -5.3196   -0.6574 C   0  0  0  0  0  0  0  0  0  0  0  0
   10.1487   -5.6215    0.1099 C   0  0  0  0  0  0  0  0  0  0  0  0
   10.4024   -6.9104    0.5175 C   0  0  0  0  0  0  0  0  0  0  0  0
    9.5311   -8.0128    0.1632 C   0  0  0  0  0  0  0  0  0  0  0  0
    9.8115   -9.3228    0.5844 C   0  0  0  0  0  0  0  0  0  0  0  0
   10.0848  -10.4010    0.9616 N   0  0  0  0  0  0  0  0  0  0  0  0
    8.3857   -7.6708   -0.6480 C   0  0  0  0  0  0  0  0  0  0  0  0
    7.2703   -8.9460   -1.1176 Cl  0  0  0  0  0  0  0  0  0  0  0  0
    8.1259   -6.3816   -1.0490 C   0  0  0  0  0  0  0  0  0  0  0  0
    4.8049    1.1624   -0.0352 C   0  0  0  0  0  0  0  0  0  0  0  0
    3.4505    1.2737    0.2856 C   0  0  0  0  0  0  0  0  0  0  0  0
    0.7344   -0.6489    1.0219 H   0  0  0  0  0  0  0  0  0  0  0  0
    0.7640    1.0699    0.5444 H   0  0  0  0  0  0  0  0  0  0  0  0
    1.1728    0.5975    2.2053 H   0  0  0  0  0  0  0  0  0  0  0  0
    2.8683   -1.9222    1.2977 H   0  0  0  0  0  0  0  0  0  0  0  0
    5.2749   -2.1216    0.7498 H   0  0  0  0  0  0  0  0  0  0  0  0
    7.4513   -0.8216    0.5532 H   0  0  0  0  0  0  0  0  0  0  0  0
    7.4518    0.7656   -0.2487 H   0  0  0  0  0  0  0  0  0  0  0  0
    5.4429   -0.2616   -2.3824 H   0  0  0  0  0  0  0  0  0  0  0  0
    5.8365   -1.9918   -2.5759 H   0  0  0  0  0  0  0  0  0  0  0  0
    6.7616   -0.7839   -3.5029 H   0  0  0  0  0  0  0  0  0  0  0  0
    8.5385   -1.9437   -2.6536 H   0  0  0  0  0  0  0  0  0  0  0  0
    9.7297   -0.5417   -0.1757 H   0  0  0  0  0  0  0  0  0  0  0  0
    9.7403    0.1408   -1.8364 H   0  0  0  0  0  0  0  0  0  0  0  0
   10.6040   -1.3750   -1.4731 H   0  0  0  0  0  0  0  0  0  0  0  0
    9.0925   -3.9418   -2.2624 H   0  0  0  0  0  0  0  0  0  0  0  0
   10.8356   -4.8206    0.3946 H   0  0  0  0  0  0  0  0  0  0  0  0
   11.2766   -7.1255    1.1342 H   0  0  0  0  0  0  0  0  0  0  0  0
    7.2425   -6.1843   -1.6581 H   0  0  0  0  0  0  0  0  0  0  0  0
    5.3454    2.0409   -0.4005 H   0  0  0  0  0  0  0  0  0  0  0  0
    2.9478    2.2368    0.1639 H   0  0  0  0  0  0  0  0  0  0  0  0
  1  2  1  0
  1 25  1  0
  1 26  1  0
  1 27  1  0
  2  3  2  0
  2 24  1  0
  3  4  1  0
  3 28  1  0
  4  5  2  0
  4 29  1  0
  5  6  1  0
  5 23  1  0
  6  7  1  0
  6 30  1  0
  6 31  1  0
  7  8  1  0
  7  9  1  0
  8 32  1  0
  8 33  1  0
  8 34  1  0
  9 10  1  0
  9 11  1  0
  9 35  1  6
 10 36  1  0
 10 37  1  0
 10 38  1  0
 11 12  2  0
 11 13  1  0
 13 14  1  0
 13 39  1  0
 14 15  2  0
 14 22  1  0
 15 16  1  0
 15 40  1  0
 16 17  2  0
 16 41  1  0
 17 18  1  0
 17 20  1  0
 18 19  3  0
 20 21  1  0
 20 22  2  0
 22 42  1  0
 23 24  2  0
 23 43  1  0
 24 44  1  0
M  END

