
     RDKit          3D

 42 43  0  0  0  0  0  0  0  0999 V2000
    0.9458    0.5929    0.2738 C   0  0  0  0  0  0  0  0  0  0  0  0
    2.3315   -0.0606    0.2624 C   0  0  1  0  0  0  0  0  0  0  0  0
    2.7673    0.0639    1.2676 H   0  0  0  0  0  0  0  0  0  0  0  0
    2.2830   -1.5637   -0.0287 C   0  0  0  0  0  0  0  0  0  0  0  0
    2.0727   -1.7925   -1.4570 N   0  0  0  0  0  0  0  0  0  0  0  0
    1.5212   -3.0294   -1.7978 C   0  0  0  0  0  0  0  0  0  0  0  0
    1.2868   -3.8866   -0.9624 O   0  0  0  0  0  0  0  0  0  0  0  0
    1.2551   -3.2319   -3.1555 N   0  0  0  0  0  0  0  0  0  0  0  0
    0.5820   -2.2182   -3.9677 C   0  0  0  0  0  0  0  0  0  0  0  0
    0.8254   -2.5055   -5.4458 C   0  0  0  0  0  0  0  0  0  0  0  0
    0.4237   -3.8152   -5.7887 O   0  0  0  0  0  0  0  0  0  0  0  0
    1.0954   -4.8064   -5.0193 C   0  0  2  0  0  0  0  0  0  0  0  0
    0.5880   -6.1541   -5.5172 C   0  0  0  0  0  0  0  0  0  0  0  0
    1.4369   -7.3364   -5.0733 C   0  0  0  0  0  0  0  0  0  0  0  0
    2.4578   -7.2483   -4.4478 O   0  0  0  0  0  0  0  0  0  0  0  0
    0.9717   -8.5482   -5.4537 O   0  0  0  0  0  0  0  0  0  0  0  0
    0.8563   -4.5880   -3.5236 C   0  0  0  0  0  0  0  0  0  0  0  0
    3.1604   -1.1960   -2.2353 C   0  0  0  0  0  0  0  0  0  0  0  0
    3.2432    0.3171   -1.9848 C   0  0  1  0  0  0  0  0  0  0  0  0
    4.2354    0.6443   -2.3402 H   0  0  0  0  0  0  0  0  0  0  0  0
    2.1954    1.1356   -2.7467 C   0  0  0  0  0  0  0  0  0  0  0  0
    3.2672    0.6021   -0.5908 O   0  0  0  0  0  0  0  0  0  0  0  0
    0.3801    0.2529    1.1562 H   0  0  0  0  0  0  0  0  0  0  0  0
    0.3558    0.3369   -0.6179 H   0  0  0  0  0  0  0  0  0  0  0  0
    1.0440    1.6873    0.3293 H   0  0  0  0  0  0  0  0  0  0  0  0
    1.4770   -2.0486    0.5355 H   0  0  0  0  0  0  0  0  0  0  0  0
    3.2332   -2.0346    0.2915 H   0  0  0  0  0  0  0  0  0  0  0  0
    0.9369   -1.2138   -3.7124 H   0  0  0  0  0  0  0  0  0  0  0  0
   -0.5105   -2.2427   -3.7746 H   0  0  0  0  0  0  0  0  0  0  0  0
    1.9007   -2.3612   -5.6798 H   0  0  0  0  0  0  0  0  0  0  0  0
    0.2388   -1.8163   -6.0723 H   0  0  0  0  0  0  0  0  0  0  0  0
    2.1857   -4.7438   -5.2044 H   0  0  0  0  0  0  0  0  0  0  0  0
    0.5741   -6.1246   -6.6209 H   0  0  0  0  0  0  0  0  0  0  0  0
   -0.4593   -6.3082   -5.2011 H   0  0  0  0  0  0  0  0  0  0  0  0
    0.1449   -8.4577   -5.9487 H   0  0  0  0  0  0  0  0  0  0  0  0
    1.4407   -5.3059   -2.9365 H   0  0  0  0  0  0  0  0  0  0  0  0
   -0.2162   -4.7570   -3.2956 H   0  0  0  0  0  0  0  0  0  0  0  0
    3.0367   -1.4053   -3.3042 H   0  0  0  0  0  0  0  0  0  0  0  0
    4.1201   -1.6551   -1.9231 H   0  0  0  0  0  0  0  0  0  0  0  0
    1.1700    0.7872   -2.5604 H   0  0  0  0  0  0  0  0  0  0  0  0
    2.3856    1.0821   -3.8313 H   0  0  0  0  0  0  0  0  0  0  0  0
    2.2572    2.1909   -2.4416 H   0  0  0  0  0  0  0  0  0  0  0  0
  1  2  1  0
  1 23  1  0
  1 24  1  0
  1 25  1  0
  2  3  1  1
  2  4  1  0
  2 22  1  0
  4  5  1  0
  4 26  1  0
  4 27  1  0
  5  6  1  0
  5 18  1  0
  6  7  2  0
  6  8  1  0
  8  9  1  0
  8 17  1  0
  9 10  1  0
  9 28  1  0
  9 29  1  0
 10 11  1  0
 10 30  1  0
 10 31  1  0
 11 12  1  0
 12 13  1  0
 12 17  1  0
 12 32  1  1
 13 14  1  0
 13 33  1  0
 13 34  1  0
 14 15  2  0
 14 16  1  0
 16 35  1  0
 17 36  1  0
 17 37  1  0
 18 19  1  0
 18 38  1  0
 18 39  1  0
 19 20  1  6
 19 21  1  0
 19 22  1  0
 21 40  1  0
 21 41  1  0
 21 42  1  0
M  END

