
     RDKit          3D

 55 59  0  0  0  0  0  0  0  0999 V2000
    2.2288    3.4893   -6.3056 C   0  0  0  0  0  0  0  0  0  0  0  0
    3.6377    3.5921   -6.0480 O   0  0  0  0  0  0  0  0  0  0  0  0
    3.9979    3.9263   -4.8109 C   0  0  0  0  0  0  0  0  0  0  0  0
    3.2468    4.2789   -3.9351 O   0  0  0  0  0  0  0  0  0  0  0  0
    5.4980    3.7181   -4.5980 C   0  0  0  0  0  0  0  0  0  0  0  0
    5.6646    2.3578   -3.9621 C   0  0  0  0  0  0  0  0  0  0  0  0
    5.2842    2.1660   -2.6044 C   0  0  0  0  0  0  0  0  0  0  0  0
    5.2880    0.8789   -2.0123 C   0  0  0  0  0  0  0  0  0  0  0  0
    5.6288   -0.2326   -2.7432 C   0  0  0  0  0  0  0  0  0  0  0  0
    5.9899   -0.0602   -4.1259 C   0  0  0  0  0  0  0  0  0  0  0  0
    6.2660   -1.0301   -4.9321 O   0  0  0  0  0  0  0  0  0  0  0  0
    6.0997   -2.4353   -4.5899 C   0  0  0  0  0  0  0  0  0  0  0  0
    7.0990   -3.0311   -3.8405 C   0  0  0  0  0  0  0  0  0  0  0  0
    6.9271   -4.4365   -3.4985 C   0  0  0  0  0  0  0  0  0  0  0  0
    5.8048   -5.0839   -3.9970 C   0  0  0  0  0  0  0  0  0  0  0  0
    5.5781   -6.9532   -3.5793 Br  0  0  0  0  0  0  0  0  0  0  0  0
    4.8218   -4.4751   -4.7792 C   0  0  0  0  0  0  0  0  0  0  0  0
    4.9599   -3.0525   -5.1020 C   0  0  0  0  0  0  0  0  0  0  0  0
    3.9215   -2.3501   -5.9208 C   0  0  0  0  0  0  0  0  0  0  0  0
    2.7037   -1.9144   -5.2000 N   0  0  0  0  0  0  0  0  0  0  0  0
    2.4803   -0.6252   -4.8442 C   0  0  0  0  0  0  0  0  0  0  0  0
    3.1609    0.3537   -5.0918 O   0  0  0  0  0  0  0  0  0  0  0  0
    1.3310   -0.5368   -4.1172 O   0  0  0  0  0  0  0  0  0  0  0  0
    0.7975   -1.8431   -3.8497 C   0  0  1  0  0  0  0  0  0  0  0  0
    0.9165   -2.0339   -2.7723 H   0  0  0  0  0  0  0  0  0  0  0  0
   -0.6668   -1.9543   -4.3097 C   0  0  0  0  0  0  0  0  0  0  0  0
   -0.6104   -2.7836   -5.5731 C   0  0  0  0  0  0  0  0  0  0  0  0
   -1.6575   -3.0980   -6.4433 C   0  0  0  0  0  0  0  0  0  0  0  0
   -1.4093   -3.9362   -7.5351 C   0  0  0  0  0  0  0  0  0  0  0  0
   -0.1298   -4.4655   -7.7466 C   0  0  0  0  0  0  0  0  0  0  0  0
    0.9191   -4.1525   -6.8754 C   0  0  0  0  0  0  0  0  0  0  0  0
    0.6760   -3.2968   -5.7962 C   0  0  0  0  0  0  0  0  0  0  0  0
    1.6495   -2.8076   -4.7334 C   0  0  1  0  0  0  0  0  0  0  0  0
    2.0886   -3.6417   -4.1620 H   0  0  0  0  0  0  0  0  0  0  0  0
    6.0367    1.2596   -4.7004 C   0  0  0  0  0  0  0  0  0  0  0  0
    2.1301    3.3531   -7.3889 H   0  0  0  0  0  0  0  0  0  0  0  0
    1.7063    4.3991   -5.9785 H   0  0  0  0  0  0  0  0  0  0  0  0
    1.8310    2.6132   -5.7737 H   0  0  0  0  0  0  0  0  0  0  0  0
    5.8591    4.5117   -3.9286 H   0  0  0  0  0  0  0  0  0  0  0  0
    6.0311    3.7695   -5.5552 H   0  0  0  0  0  0  0  0  0  0  0  0
    4.9574    3.0283   -2.0207 H   0  0  0  0  0  0  0  0  0  0  0  0
    5.0036    0.7756   -0.9637 H   0  0  0  0  0  0  0  0  0  0  0  0
    5.6361   -1.2332   -2.3187 H   0  0  0  0  0  0  0  0  0  0  0  0
    7.9986   -2.4860   -3.5587 H   0  0  0  0  0  0  0  0  0  0  0  0
    7.6426   -4.9466   -2.8569 H   0  0  0  0  0  0  0  0  0  0  0  0
    4.0111   -5.0598   -5.2118 H   0  0  0  0  0  0  0  0  0  0  0  0
    3.5841   -3.0069   -6.7406 H   0  0  0  0  0  0  0  0  0  0  0  0
    4.3202   -1.4402   -6.3866 H   0  0  0  0  0  0  0  0  0  0  0  0
   -1.0906   -0.9494   -4.4646 H   0  0  0  0  0  0  0  0  0  0  0  0
   -1.2832   -2.4485   -3.5394 H   0  0  0  0  0  0  0  0  0  0  0  0
   -2.6614   -2.6993   -6.2721 H   0  0  0  0  0  0  0  0  0  0  0  0
   -2.2211   -4.1879   -8.2224 H   0  0  0  0  0  0  0  0  0  0  0  0
    0.0500   -5.1313   -8.5943 H   0  0  0  0  0  0  0  0  0  0  0  0
    1.9099   -4.5818   -7.0395 H   0  0  0  0  0  0  0  0  0  0  0  0
    6.2977    1.3314   -5.7560 H   0  0  0  0  0  0  0  0  0  0  0  0
  1  2  1  0
  1 36  1  0
  1 37  1  0
  1 38  1  0
  2  3  1  0
  3  4  2  0
  3  5  1  0
  5  6  1  0
  5 39  1  0
  5 40  1  0
  6  7  2  0
  6 35  1  0
  7  8  1  0
  7 41  1  0
  8  9  2  0
  8 42  1  0
  9 10  1  0
  9 43  1  0
 10 11  1  0
 10 35  2  0
 11 12  1  0
 12 13  2  0
 12 18  1  0
 13 14  1  0
 13 44  1  0
 14 15  2  0
 14 45  1  0
 15 16  1  0
 15 17  1  0
 17 18  2  0
 17 46  1  0
 18 19  1  0
 19 20  1  0
 19 47  1  0
 19 48  1  0
 20 21  1  0
 20 33  1  0
 21 22  2  0
 21 23  1  0
 23 24  1  0
 24 25  1  1
 24 26  1  0
 24 33  1  0
 26 27  1  0
 26 49  1  0
 26 50  1  0
 27 28  1  0
 27 32  2  0
 28 29  2  0
 28 51  1  0
 29 30  1  0
 29 52  1  0
 30 31  2  0
 30 53  1  0
 31 32  1  0
 31 54  1  0
 32 33  1  0
 33 34  1  1
 35 55  1  0
M  END

