
     RDKit          3D

 81 84  0  0  0  0  0  0  0  0999 V2000
    4.8778   -1.7126    4.3989 C   0  0  0  0  0  0  0  0  0  0  0  0
    4.3570   -0.4737    3.8575 N   0  0  0  0  0  0  0  0  0  0  0  0
    5.1549    0.0972    2.7857 C   0  0  0  0  0  0  0  0  0  0  0  0
    4.5352    1.4108    2.3017 C   0  0  0  0  0  0  0  0  0  0  0  0
    5.2001    2.1493    1.1061 C   0  0  1  0  0  0  0  0  0  0  0  0
    5.3424    1.1485   -0.0650 C   0  0  0  0  0  0  0  0  0  0  0  0
    4.2509    3.2626    0.6140 C   0  0  0  0  0  0  0  0  0  0  0  0
    6.6531    2.6233    1.5526 C   0  0  1  0  0  0  0  0  0  0  0  0
    7.6550    2.8484    0.4298 C   0  0  0  0  0  0  0  0  0  0  0  0
    8.2302    1.8013   -0.1378 N   0  0  0  0  0  0  0  0  0  0  0  0
    9.1214    2.2646   -1.0388 C   0  0  0  0  0  0  0  0  0  0  0  0
    9.9327    1.3942   -1.8460 C   0  0  0  0  0  0  0  0  0  0  0  0
    9.8034   -0.0101   -1.6933 C   0  0  0  0  0  0  0  0  0  0  0  0
   10.5781   -0.8586   -2.4587 C   0  0  0  0  0  0  0  0  0  0  0  0
   10.4557   -2.1780   -2.3121 F   0  0  0  0  0  0  0  0  0  0  0  0
   11.5029   -0.3722   -3.3969 C   0  0  0  0  0  0  0  0  0  0  0  0
   11.6476    1.0050   -3.5629 C   0  0  0  0  0  0  0  0  0  0  0  0
   10.8739    1.8671   -2.7970 C   0  0  0  0  0  0  0  0  0  0  0  0
   11.0289    3.1830   -2.9685 F   0  0  0  0  0  0  0  0  0  0  0  0
    9.0868    3.7028   -1.0020 C   0  0  0  0  0  0  0  0  0  0  0  0
    8.1818    4.0545   -0.0985 N   0  0  0  0  0  0  0  0  0  0  0  0
    7.8990    5.5280    0.1857 C   0  0  0  0  0  0  0  0  0  0  0  0
    6.5688    6.0131   -0.2582 C   0  0  0  0  0  0  0  0  0  0  0  0
    6.1017    5.7817   -1.6204 C   0  0  0  0  0  0  0  0  0  0  0  0
    5.0481    6.5115   -2.1409 C   0  0  0  0  0  0  0  0  0  0  0  0
    4.4127    7.5429   -1.4081 C   0  0  0  0  0  0  0  0  0  0  0  0
    4.9360    7.8571   -0.1102 C   0  0  0  0  0  0  0  0  0  0  0  0
    5.9827    7.1380    0.4267 C   0  0  0  0  0  0  0  0  0  0  0  0
    6.8110    3.6135    2.6483 N   0  0  0  0  0  0  0  0  0  0  0  0
    5.9308    4.7915    2.8227 C   0  0  0  0  0  0  0  0  0  0  0  0
    4.8400    4.7269    3.9029 C   0  0  1  0  0  0  0  0  0  0  0  0
    5.2258    4.9594    5.3756 C   0  0  0  0  0  0  0  0  0  0  0  0
    3.9391    5.2809    5.9722 N   0  0  0  0  0  0  0  0  0  0  0  0
    3.3344    6.2615    5.0757 C   0  0  0  0  0  0  0  0  0  0  0  0
    3.7115    5.7645    3.6725 C   0  0  2  0  0  0  0  0  0  0  0  0
    2.6269    5.1411    3.0594 F   0  0  0  0  0  0  0  0  0  0  0  0
    8.0348    3.5181    3.2684 C   0  0  0  0  0  0  0  0  0  0  0  0
    8.8719    2.6851    2.9221 O   0  0  0  0  0  0  0  0  0  0  0  0
    8.4805    4.5161    4.3518 C   0  0  1  0  0  0  0  0  0  0  0  0
    8.9091    3.7773    5.6179 C   0  0  0  0  0  0  0  0  0  0  0  0
    9.5473    5.2624    3.7841 O   0  0  0  0  0  0  0  0  0  0  0  0
    4.2434   -2.0568    5.2309 H   0  0  0  0  0  0  0  0  0  0  0  0
    5.9265   -1.6523    4.7713 H   0  0  0  0  0  0  0  0  0  0  0  0
    4.8575   -2.4997    3.6254 H   0  0  0  0  0  0  0  0  0  0  0  0
    4.2319    0.2109    4.6024 H   0  0  0  0  0  0  0  0  0  0  0  0
    5.1838   -0.6386    1.9637 H   0  0  0  0  0  0  0  0  0  0  0  0
    6.2178    0.2527    3.0890 H   0  0  0  0  0  0  0  0  0  0  0  0
    4.4774    2.0951    3.1610 H   0  0  0  0  0  0  0  0  0  0  0  0
    3.4906    1.2010    2.0202 H   0  0  0  0  0  0  0  0  0  0  0  0
    4.3678    0.6624   -0.2252 H   0  0  0  0  0  0  0  0  0  0  0  0
    6.0922    0.3676    0.1149 H   0  0  0  0  0  0  0  0  0  0  0  0
    5.6090    1.6600   -1.0013 H   0  0  0  0  0  0  0  0  0  0  0  0
    3.4132    2.7941    0.0734 H   0  0  0  0  0  0  0  0  0  0  0  0
    4.7448    3.9598   -0.0776 H   0  0  0  0  0  0  0  0  0  0  0  0
    3.7989    3.8409    1.4273 H   0  0  0  0  0  0  0  0  0  0  0  0
    7.0863    1.7056    1.9701 H   0  0  0  0  0  0  0  0  0  0  0  0
    9.0921   -0.4004   -0.9659 H   0  0  0  0  0  0  0  0  0  0  0  0
   12.0940   -1.0797   -3.9807 H   0  0  0  0  0  0  0  0  0  0  0  0
   12.3547    1.4231   -4.2806 H   0  0  0  0  0  0  0  0  0  0  0  0
    9.6482    4.4343   -1.5733 H   0  0  0  0  0  0  0  0  0  0  0  0
    8.7699    6.0056   -0.3241 H   0  0  0  0  0  0  0  0  0  0  0  0
    8.0748    5.6798    1.2602 H   0  0  0  0  0  0  0  0  0  0  0  0
    6.5566    5.0012   -2.2368 H   0  0  0  0  0  0  0  0  0  0  0  0
    4.6995    6.2854   -3.1546 H   0  0  0  0  0  0  0  0  0  0  0  0
    3.5890    8.1143   -1.8364 H   0  0  0  0  0  0  0  0  0  0  0  0
    4.5119    8.6906    0.4584 H   0  0  0  0  0  0  0  0  0  0  0  0
    6.3905    7.4449    1.3971 H   0  0  0  0  0  0  0  0  0  0  0  0
    5.4741    4.9865    1.8496 H   0  0  0  0  0  0  0  0  0  0  0  0
    6.5627    5.6711    3.0015 H   0  0  0  0  0  0  0  0  0  0  0  0
    4.3173    3.7630    3.8615 H   0  0  0  0  0  0  0  0  0  0  0  0
    5.9598    5.7952    5.4524 H   0  0  0  0  0  0  0  0  0  0  0  0
    5.6779    4.0737    5.8502 H   0  0  0  0  0  0  0  0  0  0  0  0
    4.0088    5.6035    6.9347 H   0  0  0  0  0  0  0  0  0  0  0  0
    3.7387    7.2880    5.2129 H   0  0  0  0  0  0  0  0  0  0  0  0
    2.2399    6.3103    5.1841 H   0  0  0  0  0  0  0  0  0  0  0  0
    4.0154    6.5859    3.0046 H   0  0  0  0  0  0  0  0  0  0  0  0
    7.7098    5.2507    4.5992 H   0  0  0  0  0  0  0  0  0  0  0  0
    9.6602    3.0125    5.3686 H   0  0  0  0  0  0  0  0  0  0  0  0
    8.0571    3.2731    6.1016 H   0  0  0  0  0  0  0  0  0  0  0  0
    9.3457    4.4941    6.3290 H   0  0  0  0  0  0  0  0  0  0  0  0
   10.1852    4.6085    3.4569 H   0  0  0  0  0  0  0  0  0  0  0  0
  1  2  1  0
  1 42  1  0
  1 43  1  0
  1 44  1  0
  2  3  1  0
  2 45  1  0
  3  4  1  0
  3 46  1  0
  3 47  1  0
  5  4  1  1
  4 48  1  0
  4 49  1  0
  5  6  1  0
  5  7  1  0
  5  8  1  0
  6 50  1  0
  6 51  1  0
  6 52  1  0
  7 53  1  0
  7 54  1  0
  7 55  1  0
  8  9  1  0
  8 29  1  0
  8 56  1  1
  9 10  2  0
  9 21  1  0
 10 11  1  0
 11 12  1  0
 11 20  2  0
 12 13  2  0
 12 18  1  0
 13 14  1  0
 13 57  1  0
 14 15  1  0
 14 16  2  0
 16 17  1  0
 16 58  1  0
 17 18  2  0
 17 59  1  0
 18 19  1  0
 20 21  1  0
 20 60  1  0
 21 22  1  0
 22 23  1  0
 22 61  1  0
 22 62  1  0
 23 24  2  0
 23 28  1  0
 24 25  1  0
 24 63  1  0
 25 26  2  0
 25 64  1  0
 26 27  1  0
 26 65  1  0
 27 28  2  0
 27 66  1  0
 28 67  1  0
 29 30  1  0
 29 37  1  0
 30 31  1  0
 30 68  1  0
 30 69  1  0
 31 32  1  0
 31 35  1  0
 31 70  1  6
 32 33  1  0
 32 71  1  0
 32 72  1  0
 33 34  1  0
 33 73  1  0
 34 35  1  0
 34 74  1  0
 34 75  1  0
 35 36  1  0
 35 76  1  6
 37 38  2  0
 37 39  1  0
 39 40  1  0
 39 41  1  0
 39 77  1  1
 40 78  1  0
 40 79  1  0
 40 80  1  0
 41 81  1  0
M  END

