
     RDKit          3D

 46 47  0  0  0  0  0  0  0  0999 V2000
    2.6510    1.1619    1.6771 C   0  0  0  0  0  0  0  0  0  0  0  0
    2.5258    1.5485    0.2035 C   0  0  1  0  0  0  0  0  0  0  0  0
    3.8379    2.1363   -0.3474 C   0  0  0  0  0  0  0  0  0  0  0  0
    2.0645    0.4166   -0.6224 N   0  0  0  0  0  0  0  0  0  0  0  0
    1.3083    0.6717   -1.7579 C   0  0  0  0  0  0  0  0  0  0  0  0
   -0.3031    0.3371   -1.5153 C   0  0  0  0  0  0  0  0  0  0  0  0
   -1.0873    0.4465   -2.6824 N   0  0  0  0  0  0  0  0  0  0  0  0
   -1.2275   -0.7036   -3.5674 C   0  0  0  0  0  0  0  0  0  0  0  0
   -0.7175   -0.5215   -5.0073 C   0  0  0  0  0  0  0  0  0  0  0  0
   -1.5231    0.4755   -5.8522 C   0  0  0  0  0  0  0  0  0  0  0  0
   -1.1662    1.9632   -5.6688 C   0  0  0  0  0  0  0  0  0  0  0  0
   -0.8238    2.4168   -4.2372 C   0  0  0  0  0  0  0  0  0  0  0  0
   -1.6149    1.7403   -3.0971 C   0  0  0  0  0  0  0  0  0  0  0  0
    2.6420   -0.9038   -0.4726 C   0  0  0  0  0  0  0  0  0  0  0  0
    1.9964   -1.9142    0.2189 C   0  0  0  0  0  0  0  0  0  0  0  0
    2.4701   -3.1557    0.3551 N   0  0  0  0  0  0  0  0  0  0  0  0
    3.7102   -3.3467   -0.2610 C   0  0  0  0  0  0  0  0  0  0  0  0
    4.3174   -4.6304   -0.1937 C   0  0  0  0  0  0  0  0  0  0  0  0
    4.8352   -5.6776   -0.1591 N   0  0  0  0  0  0  0  0  0  0  0  0
    4.3689   -2.2985   -0.9392 C   0  0  0  0  0  0  0  0  0  0  0  0
    3.8754   -1.0785   -1.0747 N   0  0  0  0  0  0  0  0  0  0  0  0
    2.9033    2.0525    2.2732 H   0  0  0  0  0  0  0  0  0  0  0  0
    3.4424    0.4136    1.8258 H   0  0  0  0  0  0  0  0  0  0  0  0
    1.7107    0.7417    2.0652 H   0  0  0  0  0  0  0  0  0  0  0  0
    1.7411    2.3245    0.1221 H   0  0  0  0  0  0  0  0  0  0  0  0
    4.6251    1.3703   -0.3436 H   0  0  0  0  0  0  0  0  0  0  0  0
    4.1568    2.9969    0.2625 H   0  0  0  0  0  0  0  0  0  0  0  0
    3.7147    2.4807   -1.3866 H   0  0  0  0  0  0  0  0  0  0  0  0
    1.6108    0.0358   -2.6025 H   0  0  0  0  0  0  0  0  0  0  0  0
    1.3378    1.7316   -2.0526 H   0  0  0  0  0  0  0  0  0  0  0  0
   -0.6418    1.0449   -0.7477 H   0  0  0  0  0  0  0  0  0  0  0  0
   -0.3270   -0.6866   -1.1319 H   0  0  0  0  0  0  0  0  0  0  0  0
   -2.3028   -0.9642   -3.6068 H   0  0  0  0  0  0  0  0  0  0  0  0
   -0.7124   -1.5486   -3.0920 H   0  0  0  0  0  0  0  0  0  0  0  0
   -0.7834   -1.5195   -5.4691 H   0  0  0  0  0  0  0  0  0  0  0  0
    0.3551   -0.2633   -5.0004 H   0  0  0  0  0  0  0  0  0  0  0  0
   -2.5960    0.3194   -5.6406 H   0  0  0  0  0  0  0  0  0  0  0  0
   -1.4005    0.2246   -6.9176 H   0  0  0  0  0  0  0  0  0  0  0  0
   -2.0076    2.5653   -6.0503 H   0  0  0  0  0  0  0  0  0  0  0  0
   -0.3073    2.2155   -6.3122 H   0  0  0  0  0  0  0  0  0  0  0  0
   -0.9948    3.5022   -4.1571 H   0  0  0  0  0  0  0  0  0  0  0  0
    0.2502    2.2752   -4.0379 H   0  0  0  0  0  0  0  0  0  0  0  0
   -2.6700    1.6030   -3.3926 H   0  0  0  0  0  0  0  0  0  0  0  0
   -1.6146    2.3888   -2.2100 H   0  0  0  0  0  0  0  0  0  0  0  0
    1.0350   -1.7061    0.7089 H   0  0  0  0  0  0  0  0  0  0  0  0
    5.3494   -2.4954   -1.3913 H   0  0  0  0  0  0  0  0  0  0  0  0
  1  2  1  0
  1 22  1  0
  1 23  1  0
  1 24  1  0
  2  3  1  0
  2  4  1  0
  2 25  1  6
  3 26  1  0
  3 27  1  0
  3 28  1  0
  4  5  1  0
  4 14  1  0
  5  6  1  0
  5 29  1  0
  5 30  1  0
  6  7  1  0
  6 31  1  0
  6 32  1  0
  7  8  1  0
  7 13  1  0
  8  9  1  0
  8 33  1  0
  8 34  1  0
  9 10  1  0
  9 35  1  0
  9 36  1  0
 10 11  1  0
 10 37  1  0
 10 38  1  0
 11 12  1  0
 11 39  1  0
 11 40  1  0
 12 13  1  0
 12 41  1  0
 12 42  1  0
 13 43  1  0
 13 44  1  0
 14 15  2  0
 14 21  1  0
 15 16  1  0
 15 45  1  0
 16 17  2  0
 17 18  1  0
 17 20  1  0
 18 19  3  0
 20 21  2  0
 20 46  1  0
M  END

