
     RDKit          3D

 53 55  0  0  0  0  0  0  0  0999 V2000
    0.0017   -1.4334   -5.7095 C   0  0  0  0  0  0  0  0  0  0  0  0
    1.5078   -1.1668   -5.7419 C   0  0  0  0  0  0  0  0  0  0  0  0
    2.3223   -2.2082   -4.9654 C   0  0  0  0  0  0  0  0  0  0  0  0
    3.8528   -2.0240   -5.0327 C   0  0  1  0  0  0  0  0  0  0  0  0
    4.3682   -0.7560   -4.3168 C   0  0  0  0  0  0  0  0  0  0  0  0
    4.3372   -0.8694   -2.7829 C   0  0  0  0  0  0  0  0  0  0  0  0
    5.0692   -2.1116   -2.2318 C   0  0  2  0  0  0  0  0  0  0  0  0
    6.5992   -2.0233   -2.2279 C   0  0  0  0  0  0  0  0  0  0  0  0
    7.3019   -0.8691   -2.6053 C   0  0  0  0  0  0  0  0  0  0  0  0
    8.6923   -0.8395   -2.5259 C   0  0  0  0  0  0  0  0  0  0  0  0
    9.3275    0.2890   -2.8953 F   0  0  0  0  0  0  0  0  0  0  0  0
    9.4693   -1.9148   -2.0894 C   0  0  0  0  0  0  0  0  0  0  0  0
   10.9723   -1.8499   -2.0012 C   0  0  0  0  0  0  0  0  0  0  0  0
   11.4786   -1.3081   -0.6415 C   0  0  0  0  0  0  0  0  0  0  0  0
   12.9869   -1.2417   -0.5588 C   0  0  0  0  0  0  0  0  0  0  0  0
   13.7316   -2.2985   -0.0135 C   0  0  0  0  0  0  0  0  0  0  0  0
   15.1287   -2.2526    0.0280 C   0  0  0  0  0  0  0  0  0  0  0  0
   15.7967   -1.1444   -0.4801 C   0  0  0  0  0  0  0  0  0  0  0  0
   17.1315   -1.0755   -0.4481 F   0  0  0  0  0  0  0  0  0  0  0  0
   15.0677   -0.0836   -1.0275 C   0  0  0  0  0  0  0  0  0  0  0  0
   15.7232    0.9782   -1.5072 F   0  0  0  0  0  0  0  0  0  0  0  0
   13.6790   -0.1300   -1.0682 C   0  0  0  0  0  0  0  0  0  0  0  0
    8.7363   -3.0430   -1.7021 C   0  0  0  0  0  0  0  0  0  0  0  0
    9.4181   -4.1095   -1.2440 F   0  0  0  0  0  0  0  0  0  0  0  0
    7.3506   -3.1195   -1.7665 C   0  0  0  0  0  0  0  0  0  0  0  0
    4.5361   -3.3714   -2.9597 C   0  0  0  0  0  0  0  0  0  0  0  0
    4.6157   -3.2495   -4.4867 C   0  0  0  0  0  0  0  0  0  0  0  0
   -0.5571   -0.6719   -6.2767 H   0  0  0  0  0  0  0  0  0  0  0  0
   -0.3847   -1.4278   -4.6763 H   0  0  0  0  0  0  0  0  0  0  0  0
   -0.2414   -2.4173   -6.1449 H   0  0  0  0  0  0  0  0  0  0  0  0
    1.7039   -0.1576   -5.3398 H   0  0  0  0  0  0  0  0  0  0  0  0
    1.8557   -1.1443   -6.7909 H   0  0  0  0  0  0  0  0  0  0  0  0
    2.0794   -3.2097   -5.3660 H   0  0  0  0  0  0  0  0  0  0  0  0
    1.9772   -2.2209   -3.9161 H   0  0  0  0  0  0  0  0  0  0  0  0
    4.1092   -1.9261   -6.1034 H   0  0  0  0  0  0  0  0  0  0  0  0
    3.7909    0.1292   -4.6303 H   0  0  0  0  0  0  0  0  0  0  0  0
    5.4019   -0.5732   -4.6538 H   0  0  0  0  0  0  0  0  0  0  0  0
    3.2883   -0.9301   -2.4468 H   0  0  0  0  0  0  0  0  0  0  0  0
    4.7350    0.0506   -2.3247 H   0  0  0  0  0  0  0  0  0  0  0  0
    4.7864   -2.2109   -1.1677 H   0  0  0  0  0  0  0  0  0  0  0  0
    6.7991    0.0297   -2.9588 H   0  0  0  0  0  0  0  0  0  0  0  0
   11.3540   -1.2057   -2.8077 H   0  0  0  0  0  0  0  0  0  0  0  0
   11.3893   -2.8551   -2.1629 H   0  0  0  0  0  0  0  0  0  0  0  0
   11.0911   -1.9535    0.1626 H   0  0  0  0  0  0  0  0  0  0  0  0
   11.0507   -0.3056   -0.4802 H   0  0  0  0  0  0  0  0  0  0  0  0
   13.2138   -3.1718    0.3914 H   0  0  0  0  0  0  0  0  0  0  0  0
   15.7169   -3.0676    0.4549 H   0  0  0  0  0  0  0  0  0  0  0  0
   13.1474    0.7216   -1.5002 H   0  0  0  0  0  0  0  0  0  0  0  0
    6.8735   -4.0432   -1.4355 H   0  0  0  0  0  0  0  0  0  0  0  0
    3.4873   -3.5232   -2.6528 H   0  0  0  0  0  0  0  0  0  0  0  0
    5.0763   -4.2711   -2.6265 H   0  0  0  0  0  0  0  0  0  0  0  0
    4.2312   -4.1719   -4.9545 H   0  0  0  0  0  0  0  0  0  0  0  0
    5.6764   -3.1715   -4.7844 H   0  0  0  0  0  0  0  0  0  0  0  0
  1  2  1  0
  1 28  1  0
  1 29  1  0
  1 30  1  0
  2  3  1  0
  2 31  1  0
  2 32  1  0
  3  4  1  0
  3 33  1  0
  3 34  1  0
  4  5  1  0
  4 27  1  0
  4 35  1  6
  5  6  1  0
  5 36  1  0
  5 37  1  0
  6  7  1  0
  6 38  1  0
  6 39  1  0
  7  8  1  0
  7 26  1  0
  7 40  1  1
  8  9  2  0
  8 25  1  0
  9 10  1  0
  9 41  1  0
 10 11  1  0
 10 12  2  0
 12 13  1  0
 12 23  1  0
 13 14  1  0
 13 42  1  0
 13 43  1  0
 14 15  1  0
 14 44  1  0
 14 45  1  0
 15 16  2  0
 15 22  1  0
 16 17  1  0
 16 46  1  0
 17 18  2  0
 17 47  1  0
 18 19  1  0
 18 20  1  0
 20 21  1  0
 20 22  2  0
 22 48  1  0
 23 24  1  0
 23 25  2  0
 25 49  1  0
 26 27  1  0
 26 50  1  0
 26 51  1  0
 27 52  1  0
 27 53  1  0
M  END

