
     RDKit          3D

 38 40  0  0  0  0  0  0  0  0999 V2000
    2.2897    0.0205    2.4650 C   0  0  0  0  0  0  0  0  0  0  0  0
    2.9491   -0.7229    1.3504 C   0  0  0  0  0  0  0  0  0  0  0  0
    3.6898   -0.0527    0.4056 N   0  0  0  0  0  0  0  0  0  0  0  0
    3.8342    0.9488    0.3994 H   0  0  0  0  0  0  0  0  0  0  0  0
    4.2086   -0.9352   -0.5205 C   0  0  0  0  0  0  0  0  0  0  0  0
    5.0277   -0.6963   -1.6293 C   0  0  0  0  0  0  0  0  0  0  0  0
    5.4314   -1.7951   -2.3849 C   0  0  0  0  0  0  0  0  0  0  0  0
    5.0359   -3.0995   -2.0278 C   0  0  0  0  0  0  0  0  0  0  0  0
    4.2208   -3.3310   -0.9217 C   0  0  0  0  0  0  0  0  0  0  0  0
    3.7717   -2.2395   -0.1498 C   0  0  0  0  0  0  0  0  0  0  0  0
    2.9560   -2.0798    1.0420 C   0  0  0  0  0  0  0  0  0  0  0  0
    2.2185   -3.1041    1.8236 C   0  0  0  0  0  0  0  0  0  0  0  0
    1.8936   -2.9475    2.9969 O   0  0  0  0  0  0  0  0  0  0  0  0
    1.9002   -4.2517    1.1354 N   0  0  0  0  0  0  0  0  0  0  0  0
    1.1504   -5.3460    1.7354 C   0  0  2  0  0  0  0  0  0  0  0  0
    1.2179   -5.1648    2.8185 H   0  0  0  0  0  0  0  0  0  0  0  0
    1.7235   -6.6918    1.3490 C   0  0  0  0  0  0  0  0  0  0  0  0
    0.8428   -7.4560    0.6928 C   0  0  0  0  0  0  0  0  0  0  0  0
   -0.4997   -6.7838    0.5057 C   0  0  2  0  0  0  0  0  0  0  0  0
   -1.2948   -7.4121    0.9457 H   0  0  0  0  0  0  0  0  0  0  0  0
   -0.8760   -6.5828   -0.9740 C   0  0  0  0  0  0  0  0  0  0  0  0
   -1.0054   -7.7902   -1.6909 O   0  0  0  0  0  0  0  0  0  0  0  0
   -0.3437   -5.4493    1.2863 C   0  0  0  0  0  0  0  0  0  0  0  0
    1.6262    0.8132    2.0780 H   0  0  0  0  0  0  0  0  0  0  0  0
    3.0432    0.5052    3.1101 H   0  0  0  0  0  0  0  0  0  0  0  0
    1.7145   -0.6761    3.0846 H   0  0  0  0  0  0  0  0  0  0  0  0
    5.3448    0.3165   -1.8908 H   0  0  0  0  0  0  0  0  0  0  0  0
    6.0710   -1.6439   -3.2578 H   0  0  0  0  0  0  0  0  0  0  0  0
    5.3833   -3.9464   -2.6249 H   0  0  0  0  0  0  0  0  0  0  0  0
    3.9596   -4.3557   -0.6499 H   0  0  0  0  0  0  0  0  0  0  0  0
    2.0485   -4.2712    0.1335 H   0  0  0  0  0  0  0  0  0  0  0  0
    2.7534   -6.9684    1.5901 H   0  0  0  0  0  0  0  0  0  0  0  0
    1.0488   -8.4684    0.3326 H   0  0  0  0  0  0  0  0  0  0  0  0
   -0.1375   -5.9013   -1.4468 H   0  0  0  0  0  0  0  0  0  0  0  0
   -1.8560   -6.0810   -1.0313 H   0  0  0  0  0  0  0  0  0  0  0  0
   -0.1260   -8.1737   -1.8003 H   0  0  0  0  0  0  0  0  0  0  0  0
   -1.0036   -5.4338    2.1658 H   0  0  0  0  0  0  0  0  0  0  0  0
   -0.6188   -4.5765    0.6729 H   0  0  0  0  0  0  0  0  0  0  0  0
  1  2  1  0
  1 24  1  0
  1 25  1  0
  1 26  1  0
  2  3  1  0
  2 11  2  0
  3  4  1  0
  3  5  1  0
  5  6  2  0
  5 10  1  0
  6  7  1  0
  6 27  1  0
  7  8  2  0
  7 28  1  0
  8  9  1  0
  8 29  1  0
  9 10  2  0
  9 30  1  0
 10 11  1  0
 11 12  1  0
 12 13  2  0
 12 14  1  0
 14 15  1  0
 14 31  1  0
 15 16  1  1
 15 17  1  0
 15 23  1  0
 17 18  2  0
 17 32  1  0
 18 19  1  0
 18 33  1  0
 19 20  1  1
 19 21  1  0
 19 23  1  0
 21 22  1  0
 21 34  1  0
 21 35  1  0
 22 36  1  0
 23 37  1  0
 23 38  1  0
M  END

