
     RDKit          3D

 50 54  0  0  0  0  0  0  0  0999 V2000
    1.3278   -1.2135    1.7646 C   0  0  0  0  0  0  0  0  0  0  0  0
    1.9263   -0.1270    0.8535 C   0  0  1  0  0  0  0  0  0  0  0  0
    3.0847    0.5749    1.5419 C   0  0  0  0  0  0  0  0  0  0  0  0
    3.2684    0.6582    2.8158 N   0  0  0  0  0  0  0  0  0  0  0  0
    4.3703    1.4376    3.1221 C   0  0  0  0  0  0  0  0  0  0  0  0
    4.8335    1.7229    4.4177 C   0  0  0  0  0  0  0  0  0  0  0  0
    5.9618    2.5231    4.5713 C   0  0  0  0  0  0  0  0  0  0  0  0
    6.6367    3.0423    3.4496 C   0  0  0  0  0  0  0  0  0  0  0  0
    6.1945    2.7705    2.1553 C   0  0  0  0  0  0  0  0  0  0  0  0
    5.0572    1.9686    1.9975 C   0  0  0  0  0  0  0  0  0  0  0  0
    4.2622    1.4392    0.5292 S   0  0  0  0  0  0  0  0  0  0  0  0
    2.3198   -0.5021   -0.4995 N   0  0  0  0  0  0  0  0  0  0  0  0
    3.2344   -1.6245   -0.6885 C   0  0  0  0  0  0  0  0  0  0  0  0
    2.5077   -2.9353   -1.0458 C   0  0  0  0  0  0  0  0  0  0  0  0
    1.5707   -2.7889   -2.1596 N   0  0  0  0  0  0  0  0  0  0  0  0
    2.1503   -2.8453   -3.4856 C   0  0  0  0  0  0  0  0  0  0  0  0
    1.1847   -3.2824   -4.4796 N   0  0  0  0  0  0  0  0  0  0  0  0
    0.7878   -2.4908   -5.5510 C   0  0  0  0  0  0  0  0  0  0  0  0
    1.1157   -1.3672   -5.8156 O   0  0  0  0  0  0  0  0  0  0  0  0
   -0.0944   -3.2398   -6.3072 O   0  0  0  0  0  0  0  0  0  0  0  0
   -0.2474   -4.4648   -5.7088 C   0  0  0  0  0  0  0  0  0  0  0  0
   -1.0349   -5.5244   -6.1249 C   0  0  0  0  0  0  0  0  0  0  0  0
   -1.0133   -6.6782   -5.3233 C   0  0  0  0  0  0  0  0  0  0  0  0
   -0.2330   -6.7393   -4.1615 C   0  0  0  0  0  0  0  0  0  0  0  0
    0.5585   -5.6552   -3.7491 C   0  0  0  0  0  0  0  0  0  0  0  0
    0.5408   -4.5175   -4.5508 C   0  0  0  0  0  0  0  0  0  0  0  0
    0.6361   -1.6828   -1.9309 C   0  0  0  0  0  0  0  0  0  0  0  0
    1.3580   -0.3670   -1.5878 C   0  0  0  0  0  0  0  0  0  0  0  0
    1.0724   -0.7802    2.7418 H   0  0  0  0  0  0  0  0  0  0  0  0
    2.0469   -2.0257    1.9494 H   0  0  0  0  0  0  0  0  0  0  0  0
    0.4184   -1.6393    1.3154 H   0  0  0  0  0  0  0  0  0  0  0  0
    1.1520    0.6519    0.7268 H   0  0  0  0  0  0  0  0  0  0  0  0
    4.2987    1.3125    5.2765 H   0  0  0  0  0  0  0  0  0  0  0  0
    6.3304    2.7528    5.5741 H   0  0  0  0  0  0  0  0  0  0  0  0
    7.5208    3.6685    3.5940 H   0  0  0  0  0  0  0  0  0  0  0  0
    6.7225    3.1760    1.2893 H   0  0  0  0  0  0  0  0  0  0  0  0
    3.8463   -1.7599    0.2170 H   0  0  0  0  0  0  0  0  0  0  0  0
    3.9413   -1.3709   -1.5030 H   0  0  0  0  0  0  0  0  0  0  0  0
    1.9384   -3.2905   -0.1697 H   0  0  0  0  0  0  0  0  0  0  0  0
    3.2423   -3.7205   -1.2925 H   0  0  0  0  0  0  0  0  0  0  0  0
    2.9853   -3.5656   -3.4591 H   0  0  0  0  0  0  0  0  0  0  0  0
    2.5429   -1.8878   -3.8762 H   0  0  0  0  0  0  0  0  0  0  0  0
   -1.6379   -5.4569   -7.0316 H   0  0  0  0  0  0  0  0  0  0  0  0
   -1.6192   -7.5399   -5.6121 H   0  0  0  0  0  0  0  0  0  0  0  0
   -0.2439   -7.6488   -3.5561 H   0  0  0  0  0  0  0  0  0  0  0  0
    1.1473   -5.6941   -2.8326 H   0  0  0  0  0  0  0  0  0  0  0  0
   -0.0373   -1.9705   -1.1043 H   0  0  0  0  0  0  0  0  0  0  0  0
    0.0063   -1.5507   -2.8245 H   0  0  0  0  0  0  0  0  0  0  0  0
    0.6252    0.4146   -1.3326 H   0  0  0  0  0  0  0  0  0  0  0  0
    1.8914   -0.0096   -2.4901 H   0  0  0  0  0  0  0  0  0  0  0  0
  1  2  1  0
  1 29  1  0
  1 30  1  0
  1 31  1  0
  2  3  1  0
  2 12  1  0
  2 32  1  6
  3  4  2  0
  3 11  1  0
  4  5  1  0
  5  6  2  0
  5 10  1  0
  6  7  1  0
  6 33  1  0
  7  8  2  0
  7 34  1  0
  8  9  1  0
  8 35  1  0
  9 10  2  0
  9 36  1  0
 10 11  1  0
 12 13  1  0
 12 28  1  0
 13 14  1  0
 13 37  1  0
 13 38  1  0
 14 15  1  0
 14 39  1  0
 14 40  1  0
 15 16  1  0
 15 27  1  0
 16 17  1  0
 16 41  1  0
 16 42  1  0
 17 18  1  0
 17 26  1  0
 18 19  2  0
 18 20  1  0
 20 21  1  0
 21 22  1  0
 21 26  2  0
 22 23  2  0
 22 43  1  0
 23 24  1  0
 23 44  1  0
 24 25  2  0
 24 45  1  0
 25 26  1  0
 25 46  1  0
 27 28  1  0
 27 47  1  0
 27 48  1  0
 28 49  1  0
 28 50  1  0
M  END

