
     RDKit          3D

 25 25  0  0  0  0  0  0  0  0999 V2000
    1.6471   -2.5712    3.5146 C   0  0  0  0  0  0  0  0  0  0  0  0
    2.5232   -1.6332    3.1478 C   0  0  0  0  0  0  0  0  0  0  0  0
    3.2974   -1.6479    1.8607 C   0  0  0  0  0  0  0  0  0  0  0  0
    4.7809   -1.3678    2.0484 C   0  0  0  0  0  0  0  0  0  0  0  0
    5.2579   -0.7721    2.9847 O   0  0  0  0  0  0  0  0  0  0  0  0
    5.4899   -1.8399    1.0088 O   0  0  0  0  0  0  0  0  0  0  0  0
    6.9281   -1.6007    0.9985 C   0  0  0  0  0  0  0  0  0  0  0  0
    7.6864   -2.7897    1.4921 C   0  0  0  0  0  0  0  0  0  0  0  0
    8.3588   -3.6448    0.5592 C   0  0  0  0  0  0  0  0  0  0  0  0
    9.0620   -4.7972    1.0188 C   0  0  0  0  0  0  0  0  0  0  0  0
    9.0583   -5.0577    2.4136 C   0  0  0  0  0  0  0  0  0  0  0  0
    9.7061   -6.1369    2.8506 F   0  0  0  0  0  0  0  0  0  0  0  0
    8.4049   -4.2372    3.3685 C   0  0  0  0  0  0  0  0  0  0  0  0
    7.7141   -3.0789    2.8973 C   0  0  0  0  0  0  0  0  0  0  0  0
    1.1010   -2.5010    4.4593 H   0  0  0  0  0  0  0  0  0  0  0  0
    1.4402   -3.4443    2.8864 H   0  0  0  0  0  0  0  0  0  0  0  0
    2.7196   -0.7792    3.8049 H   0  0  0  0  0  0  0  0  0  0  0  0
    2.9318   -0.8481    1.1866 H   0  0  0  0  0  0  0  0  0  0  0  0
    3.1733   -2.5914    1.3089 H   0  0  0  0  0  0  0  0  0  0  0  0
    7.1263   -0.7196    1.6294 H   0  0  0  0  0  0  0  0  0  0  0  0
    7.1713   -1.3774   -0.0485 H   0  0  0  0  0  0  0  0  0  0  0  0
    8.3172   -3.4182   -0.5073 H   0  0  0  0  0  0  0  0  0  0  0  0
    9.5840   -5.4752    0.3443 H   0  0  0  0  0  0  0  0  0  0  0  0
    8.4503   -4.5022    4.4246 H   0  0  0  0  0  0  0  0  0  0  0  0
    7.2148   -2.4050    3.5933 H   0  0  0  0  0  0  0  0  0  0  0  0
  1  2  2  0
  1 15  1  0
  1 16  1  0
  2  3  1  0
  2 17  1  0
  3  4  1  0
  3 18  1  0
  3 19  1  0
  4  5  2  0
  4  6  1  0
  6  7  1  0
  7  8  1  0
  7 20  1  0
  7 21  1  0
  8  9  2  0
  8 14  1  0
  9 10  1  0
  9 22  1  0
 10 11  2  0
 10 23  1  0
 11 12  1  0
 11 13  1  0
 13 14  2  0
 13 24  1  0
 14 25  1  0
M  END

