
     RDKit          3D

 25 25  0  0  0  0  0  0  0  0999 V2000
    1.8298    1.0274   -0.4252 C   0  0  0  0  0  0  0  0  0  0  0  0
    2.4398    0.0411    0.2337 C   0  0  0  0  0  0  0  0  0  0  0  0
    3.0827   -1.1617   -0.4187 C   0  0  1  0  0  0  0  0  0  0  0  0
    2.4122   -2.4563    0.0381 C   0  0  0  0  0  0  0  0  0  0  0  0
    2.8886   -1.0677   -1.8058 F   0  0  0  0  0  0  0  0  0  0  0  0
    4.6112   -1.1382   -0.1711 C   0  0  0  0  0  0  0  0  0  0  0  0
    5.3887   -2.3030   -0.7447 C   0  0  0  0  0  0  0  0  0  0  0  0
    5.5605   -2.4395   -2.1334 C   0  0  0  0  0  0  0  0  0  0  0  0
    6.2802   -3.5130   -2.6626 C   0  0  0  0  0  0  0  0  0  0  0  0
    6.8455   -4.4710   -1.8141 C   0  0  0  0  0  0  0  0  0  0  0  0
    6.6843   -4.3465   -0.4320 C   0  0  0  0  0  0  0  0  0  0  0  0
    5.9614   -3.2714    0.0948 C   0  0  0  0  0  0  0  0  0  0  0  0
    1.3823    1.8715    0.1059 H   0  0  0  0  0  0  0  0  0  0  0  0
    1.7606    1.0157   -1.5156 H   0  0  0  0  0  0  0  0  0  0  0  0
    2.5039    0.0611    1.3281 H   0  0  0  0  0  0  0  0  0  0  0  0
    1.3424   -2.4267   -0.2155 H   0  0  0  0  0  0  0  0  0  0  0  0
    2.5083   -2.5829    1.1277 H   0  0  0  0  0  0  0  0  0  0  0  0
    2.8724   -3.3238   -0.4562 H   0  0  0  0  0  0  0  0  0  0  0  0
    4.7781   -1.0798    0.9162 H   0  0  0  0  0  0  0  0  0  0  0  0
    4.9796   -0.1909   -0.5979 H   0  0  0  0  0  0  0  0  0  0  0  0
    5.1166   -1.6982   -2.8007 H   0  0  0  0  0  0  0  0  0  0  0  0
    6.4032   -3.6011   -3.7454 H   0  0  0  0  0  0  0  0  0  0  0  0
    7.4115   -5.3090   -2.2292 H   0  0  0  0  0  0  0  0  0  0  0  0
    7.1251   -5.0867    0.2411 H   0  0  0  0  0  0  0  0  0  0  0  0
    5.8462   -3.1793    1.1790 H   0  0  0  0  0  0  0  0  0  0  0  0
  1  2  2  0
  1 13  1  0
  1 14  1  0
  2  3  1  0
  2 15  1  0
  3  4  1  0
  3  5  1  6
  3  6  1  0
  4 16  1  0
  4 17  1  0
  4 18  1  0
  6  7  1  0
  6 19  1  0
  6 20  1  0
  7  8  2  0
  7 12  1  0
  8  9  1  0
  8 21  1  0
  9 10  2  0
  9 22  1  0
 10 11  1  0
 10 23  1  0
 11 12  2  0
 11 24  1  0
 12 25  1  0
M  END

