
     RDKit          3D

 86 88  0  0  0  0  0  0  0  0999 V2000
    1.5387    1.0617    1.6939 C   0  0  0  0  0  0  0  0  0  0  0  0
    2.8431    0.8382    0.9972 C   0  0  0  0  0  0  0  0  0  0  0  0
    3.6796    1.7607    0.3623 C   0  0  0  0  0  0  0  0  0  0  0  0
    3.4146    3.2141    0.2359 C   0  0  0  0  0  0  0  0  0  0  0  0
    2.3402    3.7393    0.5234 O   0  0  0  0  0  0  0  0  0  0  0  0
    4.4664    3.9657   -0.2339 N   0  0  0  0  0  0  0  0  0  0  0  0
    4.3805    5.4036   -0.3729 C   0  0  0  0  0  0  0  0  0  0  0  0
    4.1654    5.9122   -1.8325 C   0  0  1  0  0  0  0  0  0  0  0  0
    5.4012    5.6051   -2.6880 C   0  0  0  0  0  0  0  0  0  0  0  0
    2.9177    5.2570   -2.4594 C   0  0  0  0  0  0  0  0  0  0  0  0
    3.9938    7.4491   -1.7484 C   0  0  0  0  0  0  0  0  0  0  0  0
    2.8398    7.8834   -1.1603 N   0  0  0  0  0  0  0  0  0  0  0  0
    4.8390    8.2296   -2.1508 O   0  0  0  0  0  0  0  0  0  0  0  0
    4.8239    1.0355   -0.0947 C   0  0  0  0  0  0  0  0  0  0  0  0
    4.6752   -0.2868    0.2749 C   0  0  0  0  0  0  0  0  0  0  0  0
    5.6506   -1.3821    0.0942 C   0  0  0  0  0  0  0  0  0  0  0  0
    6.1013   -2.1535    1.1858 C   0  0  0  0  0  0  0  0  0  0  0  0
    7.0678   -3.1508    1.0241 C   0  0  0  0  0  0  0  0  0  0  0  0
    7.5853   -4.0057    2.2001 C   0  0  1  0  0  0  0  0  0  0  0  0
    7.2923   -5.4976    1.9179 C   0  0  0  0  0  0  0  0  0  0  0  0
    9.1105   -3.8016    2.3543 C   0  0  0  0  0  0  0  0  0  0  0  0
    6.9162   -3.6302    3.5347 C   0  0  0  0  0  0  0  0  0  0  0  0
    7.5915   -3.3569   -0.2686 C   0  0  0  0  0  0  0  0  0  0  0  0
    7.1874   -2.6016   -1.3760 C   0  0  0  0  0  0  0  0  0  0  0  0
    7.7668   -2.8165   -2.7897 C   0  0  1  0  0  0  0  0  0  0  0  0
    6.6270   -3.2046   -3.7600 C   0  0  0  0  0  0  0  0  0  0  0  0
    8.4296   -1.5063   -3.2751 C   0  0  0  0  0  0  0  0  0  0  0  0
    8.8274   -3.9319   -2.8253 C   0  0  0  0  0  0  0  0  0  0  0  0
    6.2053   -1.6162   -1.1705 C   0  0  0  0  0  0  0  0  0  0  0  0
    3.4519   -0.3982    0.9384 N   0  0  0  0  0  0  0  0  0  0  0  0
    2.8008   -1.6412    1.3514 C   0  0  0  0  0  0  0  0  0  0  0  0
    1.7424   -2.1765    0.3585 C   0  0  1  0  0  0  0  0  0  0  0  0
    2.3343   -2.6667   -0.9798 C   0  0  0  0  0  0  0  0  0  0  0  0
    3.0738   -4.0083   -0.8647 C   0  0  0  0  0  0  0  0  0  0  0  0
    2.1946   -5.0898   -0.2234 C   0  0  0  0  0  0  0  0  0  0  0  0
    1.6431   -4.6307    1.1326 C   0  0  0  0  0  0  0  0  0  0  0  0
    0.8958   -3.2945    1.0062 C   0  0  0  0  0  0  0  0  0  0  0  0
    1.3100    2.1330    1.6683 H   0  0  0  0  0  0  0  0  0  0  0  0
    1.5777    0.7250    2.7445 H   0  0  0  0  0  0  0  0  0  0  0  0
    0.7060    0.5242    1.2104 H   0  0  0  0  0  0  0  0  0  0  0  0
    5.3598    3.5148   -0.3752 H   0  0  0  0  0  0  0  0  0  0  0  0
    5.3005    5.8636    0.0256 H   0  0  0  0  0  0  0  0  0  0  0  0
    3.5433    5.7268    0.2599 H   0  0  0  0  0  0  0  0  0  0  0  0
    5.5841    4.5190   -2.7152 H   0  0  0  0  0  0  0  0  0  0  0  0
    6.2925    6.1127   -2.2928 H   0  0  0  0  0  0  0  0  0  0  0  0
    5.2624    5.9535   -3.7223 H   0  0  0  0  0  0  0  0  0  0  0  0
    3.0999    4.1842   -2.6236 H   0  0  0  0  0  0  0  0  0  0  0  0
    2.6846    5.7128   -3.4347 H   0  0  0  0  0  0  0  0  0  0  0  0
    2.0307    5.3268   -1.8124 H   0  0  0  0  0  0  0  0  0  0  0  0
    2.1070    7.2567   -0.8576 H   0  0  0  0  0  0  0  0  0  0  0  0
    2.6942    8.8829   -1.0828 H   0  0  0  0  0  0  0  0  0  0  0  0
    5.6985    1.4223   -0.6149 H   0  0  0  0  0  0  0  0  0  0  0  0
    5.7036   -1.9300    2.1750 H   0  0  0  0  0  0  0  0  0  0  0  0
    7.7788   -5.8453    0.9939 H   0  0  0  0  0  0  0  0  0  0  0  0
    6.2098   -5.6741    1.8133 H   0  0  0  0  0  0  0  0  0  0  0  0
    7.6610   -6.1263    2.7452 H   0  0  0  0  0  0  0  0  0  0  0  0
    9.6599   -4.1019    1.4492 H   0  0  0  0  0  0  0  0  0  0  0  0
    9.4965   -4.4042    3.1931 H   0  0  0  0  0  0  0  0  0  0  0  0
    9.3487   -2.7452    2.5563 H   0  0  0  0  0  0  0  0  0  0  0  0
    5.8251   -3.7777    3.5050 H   0  0  0  0  0  0  0  0  0  0  0  0
    7.1125   -2.5833    3.8140 H   0  0  0  0  0  0  0  0  0  0  0  0
    7.3120   -4.2666    4.3417 H   0  0  0  0  0  0  0  0  0  0  0  0
    8.3454   -4.1311   -0.4031 H   0  0  0  0  0  0  0  0  0  0  0  0
    5.8544   -2.4232   -3.8208 H   0  0  0  0  0  0  0  0  0  0  0  0
    6.1360   -4.1373   -3.4392 H   0  0  0  0  0  0  0  0  0  0  0  0
    7.0237   -3.3612   -4.7767 H   0  0  0  0  0  0  0  0  0  0  0  0
    7.7105   -0.6745   -3.3215 H   0  0  0  0  0  0  0  0  0  0  0  0
    8.8505   -1.6391   -4.2854 H   0  0  0  0  0  0  0  0  0  0  0  0
    9.2483   -1.2047   -2.6024 H   0  0  0  0  0  0  0  0  0  0  0  0
    8.4121   -4.9054   -2.5208 H   0  0  0  0  0  0  0  0  0  0  0  0
    9.6855   -3.7062   -2.1731 H   0  0  0  0  0  0  0  0  0  0  0  0
    9.2138   -4.0452   -3.8505 H   0  0  0  0  0  0  0  0  0  0  0  0
    5.8457   -1.0152   -2.0080 H   0  0  0  0  0  0  0  0  0  0  0  0
    2.3187   -1.4610    2.3245 H   0  0  0  0  0  0  0  0  0  0  0  0
    3.5824   -2.3903    1.5227 H   0  0  0  0  0  0  0  0  0  0  0  0
    1.0653   -1.3357    0.1364 H   0  0  0  0  0  0  0  0  0  0  0  0
    2.9977   -1.8979   -1.4077 H   0  0  0  0  0  0  0  0  0  0  0  0
    1.4998   -2.7814   -1.6949 H   0  0  0  0  0  0  0  0  0  0  0  0
    3.9937   -3.8800   -0.2681 H   0  0  0  0  0  0  0  0  0  0  0  0
    3.4095   -4.3307   -1.8645 H   0  0  0  0  0  0  0  0  0  0  0  0
    2.7615   -6.0293   -0.1097 H   0  0  0  0  0  0  0  0  0  0  0  0
    1.3475   -5.3186   -0.8969 H   0  0  0  0  0  0  0  0  0  0  0  0
    2.4760   -4.5338    1.8531 H   0  0  0  0  0  0  0  0  0  0  0  0
    0.9685   -5.3956    1.5530 H   0  0  0  0  0  0  0  0  0  0  0  0
    0.5232   -2.9662    1.9923 H   0  0  0  0  0  0  0  0  0  0  0  0
    0.0004   -3.4520    0.3788 H   0  0  0  0  0  0  0  0  0  0  0  0
  1  2  1  0
  1 38  1  0
  1 39  1  0
  1 40  1  0
  2  3  2  0
  2 30  1  0
  3  4  1  0
  3 14  1  0
  4  5  2  0
  4  6  1  0
  6  7  1  0
  6 41  1  0
  7  8  1  0
  7 42  1  0
  7 43  1  0
  8  9  1  0
  8 10  1  0
  8 11  1  1
  9 44  1  0
  9 45  1  0
  9 46  1  0
 10 47  1  0
 10 48  1  0
 10 49  1  0
 11 12  1  0
 11 13  2  0
 12 50  1  0
 12 51  1  0
 14 15  2  0
 14 52  1  0
 15 16  1  0
 15 30  1  0
 16 17  2  0
 16 29  1  0
 17 18  1  0
 17 53  1  0
 18 19  1  0
 18 23  2  0
 19 20  1  6
 19 21  1  0
 19 22  1  0
 20 54  1  0
 20 55  1  0
 20 56  1  0
 21 57  1  0
 21 58  1  0
 21 59  1  0
 22 60  1  0
 22 61  1  0
 22 62  1  0
 23 24  1  0
 23 63  1  0
 24 25  1  0
 24 29  2  0
 25 26  1  6
 25 27  1  0
 25 28  1  0
 26 64  1  0
 26 65  1  0
 26 66  1  0
 27 67  1  0
 27 68  1  0
 27 69  1  0
 28 70  1  0
 28 71  1  0
 28 72  1  0
 29 73  1  0
 30 31  1  0
 31 32  1  0
 31 74  1  0
 31 75  1  0
 32 33  1  0
 32 37  1  0
 32 76  1  6
 33 34  1  0
 33 77  1  0
 33 78  1  0
 34 35  1  0
 34 79  1  0
 34 80  1  0
 35 36  1  0
 35 81  1  0
 35 82  1  0
 36 37  1  0
 36 83  1  0
 36 84  1  0
 37 85  1  0
 37 86  1  0
M  END

