
     RDKit          3D

 52 54  0  0  0  0  0  0  0  0999 V2000
    0.5755    0.7174   -0.3852 C   0  0  0  0  0  0  0  0  0  0  0  0
    2.0681    0.5766   -0.3309 C   0  0  0  0  0  0  0  0  0  0  0  0
    2.9177    1.5514   -0.8255 C   0  0  0  0  0  0  0  0  0  0  0  0
    4.3150    1.4041   -0.7891 C   0  0  0  0  0  0  0  0  0  0  0  0
    4.9075    0.2346   -0.2579 C   0  0  0  0  0  0  0  0  0  0  0  0
    6.4007    0.0087   -0.3035 C   0  0  0  0  0  0  0  0  0  0  0  0
    6.8154   -1.1047   -0.6264 O   0  0  0  0  0  0  0  0  0  0  0  0
    7.2225    1.0651   -0.0428 N   0  0  0  0  0  0  0  0  0  0  0  0
    6.9138    2.0644    0.9925 C   0  0  0  0  0  0  0  0  0  0  0  0
    7.7671    1.8092    2.2434 C   0  0  0  0  0  0  0  0  0  0  0  0
    9.2628    1.7685    1.9144 C   0  0  0  0  0  0  0  0  0  0  0  0
    9.5795    0.7738    0.7738 C   0  0  1  0  0  0  0  0  0  0  0  0
   10.6104    0.9793    0.4394 H   0  0  0  0  0  0  0  0  0  0  0  0
    9.6889   -0.6642    1.3441 C   0  0  0  0  0  0  0  0  0  0  0  0
   10.4708   -0.8642    2.2406 O   0  0  0  0  0  0  0  0  0  0  0  0
    8.9651   -1.6586    0.8374 O   0  0  0  0  0  0  0  0  0  0  0  0
    8.6593    1.0723   -0.4305 C   0  0  1  0  0  0  0  0  0  0  0  0
    8.8391    2.1405   -0.6491 H   0  0  0  0  0  0  0  0  0  0  0  0
    9.0032    0.3352   -1.7277 C   0  0  0  0  0  0  0  0  0  0  0  0
    4.1013   -0.7813    0.2152 C   0  0  0  0  0  0  0  0  0  0  0  0
    2.6672   -0.6327    0.2168 C   0  0  0  0  0  0  0  0  0  0  0  0
    1.9045   -1.5846    0.7222 N   0  0  0  0  0  0  0  0  0  0  0  0
    2.3889   -2.8948    1.3450 C   0  0  0  0  0  0  0  0  0  0  0  0
    2.7947   -2.7561    2.5063 O   0  0  0  0  0  0  0  0  0  0  0  0
    2.2559   -4.0455    0.5352 C   0  0  0  0  0  0  0  0  0  0  0  0
    2.6863   -5.3109    1.0787 C   0  0  0  0  0  0  0  0  0  0  0  0
    2.5749   -6.4879    0.3612 C   0  0  0  0  0  0  0  0  0  0  0  0
    2.0300   -6.5064   -0.9377 C   0  0  0  0  0  0  0  0  0  0  0  0
    1.5878   -5.2893   -1.4982 C   0  0  0  0  0  0  0  0  0  0  0  0
    1.7004   -4.1199   -0.7838 C   0  0  0  0  0  0  0  0  0  0  0  0
    1.2366   -2.9677   -1.3657 F   0  0  0  0  0  0  0  0  0  0  0  0
    0.2851    1.6670   -0.8534 H   0  0  0  0  0  0  0  0  0  0  0  0
    0.1281    0.6932    0.6242 H   0  0  0  0  0  0  0  0  0  0  0  0
    0.1240   -0.1039   -0.9669 H   0  0  0  0  0  0  0  0  0  0  0  0
    2.4909    2.4566   -1.2631 H   0  0  0  0  0  0  0  0  0  0  0  0
    4.9495    2.1940   -1.1944 H   0  0  0  0  0  0  0  0  0  0  0  0
    5.8475    2.0181    1.2454 H   0  0  0  0  0  0  0  0  0  0  0  0
    7.1188    3.0717    0.5875 H   0  0  0  0  0  0  0  0  0  0  0  0
    7.4521    0.8539    2.6984 H   0  0  0  0  0  0  0  0  0  0  0  0
    7.5584    2.5962    2.9868 H   0  0  0  0  0  0  0  0  0  0  0  0
    9.8534    1.4934    2.7993 H   0  0  0  0  0  0  0  0  0  0  0  0
    9.5932    2.7753    1.6036 H   0  0  0  0  0  0  0  0  0  0  0  0
    8.2531   -1.4121    0.1959 H   0  0  0  0  0  0  0  0  0  0  0  0
    9.0326   -0.7549   -1.6281 H   0  0  0  0  0  0  0  0  0  0  0  0
    9.9985    0.6745   -2.0542 H   0  0  0  0  0  0  0  0  0  0  0  0
    8.2871    0.5868   -2.5245 H   0  0  0  0  0  0  0  0  0  0  0  0
    4.5379   -1.6924    0.6185 H   0  0  0  0  0  0  0  0  0  0  0  0
    0.9052   -1.4016    0.7727 H   0  0  0  0  0  0  0  0  0  0  0  0
    3.1061   -5.3018    2.0852 H   0  0  0  0  0  0  0  0  0  0  0  0
    2.9186   -7.4210    0.8159 H   0  0  0  0  0  0  0  0  0  0  0  0
    1.9456   -7.4355   -1.5025 H   0  0  0  0  0  0  0  0  0  0  0  0
    1.1470   -5.2450   -2.4965 H   0  0  0  0  0  0  0  0  0  0  0  0
  1  2  1  0
  1 32  1  0
  1 33  1  0
  1 34  1  0
  2  3  2  0
  2 21  1  0
  3  4  1  0
  3 35  1  0
  4  5  2  0
  4 36  1  0
  5  6  1  0
  5 20  1  0
  6  7  2  0
  6  8  1  0
  8  9  1  0
  8 17  1  0
  9 10  1  0
  9 37  1  0
  9 38  1  0
 10 11  1  0
 10 39  1  0
 10 40  1  0
 11 12  1  0
 11 41  1  0
 11 42  1  0
 12 13  1  6
 12 14  1  0
 12 17  1  0
 14 15  2  0
 14 16  1  0
 16 43  1  0
 17 18  1  6
 17 19  1  0
 19 44  1  0
 19 45  1  0
 19 46  1  0
 20 21  2  0
 20 47  1  0
 21 22  1  0
 22 23  1  0
 22 48  1  0
 23 24  2  0
 23 25  1  0
 25 26  2  0
 25 30  1  0
 26 27  1  0
 26 49  1  0
 27 28  2  0
 27 50  1  0
 28 29  1  0
 28 51  1  0
 29 30  2  0
 29 52  1  0
 30 31  1  0
M  END

