
     RDKit          3D

 33 34  0  0  0  0  0  0  0  0999 V2000
    3.9279   -0.4201    1.8100 C   0  0  0  0  0  0  0  0  0  0  0  0
    3.2225   -0.2156    0.4712 C   0  0  0  0  0  0  0  0  0  0  0  0
    3.3724   -1.3503   -0.4277 N   0  0  0  0  0  0  0  0  0  0  0  0
    4.1916   -1.4381   -1.5183 C   0  0  0  0  0  0  0  0  0  0  0  0
    4.0362   -2.7286   -2.0101 C   0  0  0  0  0  0  0  0  0  0  0  0
    4.6380   -3.3391   -3.1160 N   0  0  0  0  0  0  0  0  0  0  0  0
    5.5409   -2.7235   -3.9591 C   0  0  0  0  0  0  0  0  0  0  0  0
    5.9085   -1.5673   -3.8142 O   0  0  0  0  0  0  0  0  0  0  0  0
    5.9661   -3.5293   -5.0007 N   0  0  0  0  0  0  0  0  0  0  0  0
    7.0587   -3.0984   -5.8418 C   0  0  0  0  0  0  0  0  0  0  0  0
    8.1472   -4.1433   -5.8803 C   0  0  0  0  0  0  0  0  0  0  0  0
    7.9683   -5.3722   -5.4954 N   0  0  0  0  0  0  0  0  0  0  0  0
    9.0952   -6.1487   -5.6744 C   0  0  0  0  0  0  0  0  0  0  0  0
    9.0679   -7.5932   -5.2740 C   0  0  0  0  0  0  0  0  0  0  0  0
   10.1588   -5.4781   -6.2222 C   0  0  0  0  0  0  0  0  0  0  0  0
    9.7445   -3.8197   -6.5164 S   0  0  0  0  0  0  0  0  0  0  0  0
    3.1006   -3.3334   -1.1324 C   0  0  0  0  0  0  0  0  0  0  0  0
    2.7130   -2.4846   -0.1820 N   0  0  0  0  0  0  0  0  0  0  0  0
    3.7593    0.4475    2.4676 H   0  0  0  0  0  0  0  0  0  0  0  0
    5.0135   -0.5437    1.6716 H   0  0  0  0  0  0  0  0  0  0  0  0
    3.5383   -1.3187    2.3107 H   0  0  0  0  0  0  0  0  0  0  0  0
    3.6171    0.6677   -0.0532 H   0  0  0  0  0  0  0  0  0  0  0  0
    2.1438   -0.0559    0.6254 H   0  0  0  0  0  0  0  0  0  0  0  0
    4.8052   -0.6181   -1.8744 H   0  0  0  0  0  0  0  0  0  0  0  0
    4.3200   -4.2730   -3.3426 H   0  0  0  0  0  0  0  0  0  0  0  0
    5.9039   -4.5391   -4.8982 H   0  0  0  0  0  0  0  0  0  0  0  0
    7.4341   -2.1393   -5.4528 H   0  0  0  0  0  0  0  0  0  0  0  0
    6.7161   -2.9080   -6.8779 H   0  0  0  0  0  0  0  0  0  0  0  0
    8.2742   -8.1320   -5.8171 H   0  0  0  0  0  0  0  0  0  0  0  0
    8.8485   -7.6937   -4.1984 H   0  0  0  0  0  0  0  0  0  0  0  0
   10.0280   -8.0862   -5.4809 H   0  0  0  0  0  0  0  0  0  0  0  0
   11.1498   -5.8622   -6.4569 H   0  0  0  0  0  0  0  0  0  0  0  0
    2.6967   -4.3460   -1.1661 H   0  0  0  0  0  0  0  0  0  0  0  0
  1  2  1  0
  1 19  1  0
  1 20  1  0
  1 21  1  0
  2  3  1  0
  2 22  1  0
  2 23  1  0
  3  4  1  0
  3 18  1  0
  4  5  2  0
  4 24  1  0
  5  6  1  0
  5 17  1  0
  6  7  1  0
  6 25  1  0
  7  8  2  0
  7  9  1  0
  9 10  1  0
  9 26  1  0
 10 11  1  0
 10 27  1  0
 10 28  1  0
 11 12  2  0
 11 16  1  0
 12 13  1  0
 13 14  1  0
 13 15  2  0
 14 29  1  0
 14 30  1  0
 14 31  1  0
 15 16  1  0
 15 32  1  0
 17 18  2  0
 17 33  1  0
M  END

