
     RDKit          3D

 53 55  0  0  0  0  0  0  0  0999 V2000
    4.4243   -0.0135   -3.1811 C   0  0  0  0  0  0  0  0  0  0  0  0
    3.6364    0.2577   -2.0154 O   0  0  0  0  0  0  0  0  0  0  0  0
    4.1260    0.9042   -0.9770 C   0  0  0  0  0  0  0  0  0  0  0  0
    5.4622    1.3935   -0.8872 C   0  0  0  0  0  0  0  0  0  0  0  0
    5.8580    2.0583    0.2502 C   0  0  0  0  0  0  0  0  0  0  0  0
    4.9604    2.2696    1.3416 C   0  0  0  0  0  0  0  0  0  0  0  0
    5.3934    3.0347    2.5433 C   0  0  0  0  0  0  0  0  0  0  0  0
    6.8006    3.2394    2.6677 N   0  0  0  0  0  0  0  0  0  0  0  0
    7.1463    4.5810    3.1002 C   0  0  0  0  0  0  0  0  0  0  0  0
    6.3558    5.5188    2.8072 O   0  0  0  0  0  0  0  0  0  0  0  0
    8.3768    4.6024    3.8515 C   0  0  0  0  0  0  0  0  0  0  0  0
    8.9185    3.5109    4.2055 O   0  0  0  0  0  0  0  0  0  0  0  0
    8.9325    5.8357    4.2548 N   0  0  0  0  0  0  0  0  0  0  0  0
    8.7921    7.0663    3.4922 C   0  0  0  0  0  0  0  0  0  0  0  0
    8.2132    8.2217    4.2957 C   0  0  0  0  0  0  0  0  0  0  0  0
    6.8931    8.1523    4.7741 C   0  0  0  0  0  0  0  0  0  0  0  0
    6.3505    9.2048    5.5135 C   0  0  0  0  0  0  0  0  0  0  0  0
    7.1147   10.3464    5.7881 C   0  0  0  0  0  0  0  0  0  0  0  0
    8.4253   10.4277    5.3131 C   0  0  0  0  0  0  0  0  0  0  0  0
    8.9675    9.3698    4.5724 C   0  0  0  0  0  0  0  0  0  0  0  0
    9.9741    5.8027    5.2678 C   0  0  0  0  0  0  0  0  0  0  0  0
   11.4015    5.8206    4.7341 C   0  0  0  0  0  0  0  0  0  0  0  0
   12.2750    6.8762    5.0313 C   0  0  0  0  0  0  0  0  0  0  0  0
   13.5877    6.8863    4.5441 C   0  0  0  0  0  0  0  0  0  0  0  0
   14.0441    5.8338    3.7477 C   0  0  0  0  0  0  0  0  0  0  0  0
   13.1808    4.7730    3.4457 C   0  0  0  0  0  0  0  0  0  0  0  0
   11.8724    4.7642    3.9333 C   0  0  0  0  0  0  0  0  0  0  0  0
    3.6273    1.7690    1.2343 C   0  0  0  0  0  0  0  0  0  0  0  0
    3.2120    1.1038    0.1094 C   0  0  0  0  0  0  0  0  0  0  0  0
    3.7619   -0.5502   -3.8683 H   0  0  0  0  0  0  0  0  0  0  0  0
    5.2872   -0.6445   -2.9228 H   0  0  0  0  0  0  0  0  0  0  0  0
    4.7619    0.9258   -3.6428 H   0  0  0  0  0  0  0  0  0  0  0  0
    6.1640    1.2464   -1.7074 H   0  0  0  0  0  0  0  0  0  0  0  0
    6.8685    2.4464    0.3716 H   0  0  0  0  0  0  0  0  0  0  0  0
    4.8723    2.6302    3.4376 H   0  0  0  0  0  0  0  0  0  0  0  0
    4.9676    4.0666    2.4204 H   0  0  0  0  0  0  0  0  0  0  0  0
    7.3195    2.5787    3.2478 H   0  0  0  0  0  0  0  0  0  0  0  0
    8.1230    6.8634    2.6474 H   0  0  0  0  0  0  0  0  0  0  0  0
    9.7736    7.3735    3.0817 H   0  0  0  0  0  0  0  0  0  0  0  0
    6.3034    7.2641    4.5335 H   0  0  0  0  0  0  0  0  0  0  0  0
    5.3200    9.1399    5.8752 H   0  0  0  0  0  0  0  0  0  0  0  0
    6.6876   11.1690    6.3686 H   0  0  0  0  0  0  0  0  0  0  0  0
    9.0310   11.3143    5.5214 H   0  0  0  0  0  0  0  0  0  0  0  0
    9.9958    9.4352    4.2031 H   0  0  0  0  0  0  0  0  0  0  0  0
    9.8245    4.8790    5.8438 H   0  0  0  0  0  0  0  0  0  0  0  0
    9.8377    6.6598    5.9500 H   0  0  0  0  0  0  0  0  0  0  0  0
   11.9220    7.7030    5.6558 H   0  0  0  0  0  0  0  0  0  0  0  0
   14.2528    7.7201    4.7864 H   0  0  0  0  0  0  0  0  0  0  0  0
   15.0683    5.8376    3.3642 H   0  0  0  0  0  0  0  0  0  0  0  0
   13.5351    3.9422    2.8282 H   0  0  0  0  0  0  0  0  0  0  0  0
   11.1866    3.9403    3.7174 H   0  0  0  0  0  0  0  0  0  0  0  0
    2.9367    1.9236    2.0654 H   0  0  0  0  0  0  0  0  0  0  0  0
    2.1995    0.7128    0.0008 H   0  0  0  0  0  0  0  0  0  0  0  0
  1  2  1  0
  1 30  1  0
  1 31  1  0
  1 32  1  0
  2  3  1  0
  3  4  2  0
  3 29  1  0
  4  5  1  0
  4 33  1  0
  5  6  2  0
  5 34  1  0
  6  7  1  0
  6 28  1  0
  7  8  1  0
  7 35  1  0
  7 36  1  0
  8  9  1  0
  8 37  1  0
  9 10  2  0
  9 11  1  0
 11 12  2  0
 11 13  1  0
 13 14  1  0
 13 21  1  0
 14 15  1  0
 14 38  1  0
 14 39  1  0
 15 16  2  0
 15 20  1  0
 16 17  1  0
 16 40  1  0
 17 18  2  0
 17 41  1  0
 18 19  1  0
 18 42  1  0
 19 20  2  0
 19 43  1  0
 20 44  1  0
 21 22  1  0
 21 45  1  0
 21 46  1  0
 22 23  2  0
 22 27  1  0
 23 24  1  0
 23 47  1  0
 24 25  2  0
 24 48  1  0
 25 26  1  0
 25 49  1  0
 26 27  2  0
 26 50  1  0
 27 51  1  0
 28 29  2  0
 28 52  1  0
 29 53  1  0
M  END

