
     RDKit          3D

 40 40  0  0  0  0  0  0  0  0999 V2000
    2.5315    1.6973   -1.1986 C   0  0  0  0  0  0  0  0  0  0  0  0
    1.7062    0.4241   -0.9013 C   0  0  0  0  0  0  0  0  0  0  0  0
    2.2267   -0.7990   -1.5914 C   0  0  0  0  0  0  0  0  0  0  0  0
    3.1926   -1.6388   -0.9516 C   0  0  0  0  0  0  0  0  0  0  0  0
    3.7493   -2.7672   -1.6299 C   0  0  0  0  0  0  0  0  0  0  0  0
    3.3375   -3.0650   -2.9671 C   0  0  0  0  0  0  0  0  0  0  0  0
    3.9517   -4.2166   -3.7216 C   0  0  1  0  0  0  0  0  0  0  0  0
    5.3962   -3.8905   -4.1748 C   0  0  0  0  0  0  0  0  0  0  0  0
    6.0116   -4.9963   -5.0431 C   0  0  0  0  0  0  0  0  0  0  0  0
    5.8138   -5.0556   -6.2310 O   0  0  0  0  0  0  0  0  0  0  0  0
    6.7676   -5.8884   -4.4019 O   0  0  0  0  0  0  0  0  0  0  0  0
    3.8046   -5.4734   -2.9558 N   0  0  0  0  0  0  0  0  0  0  0  0
    4.6569   -6.0454   -2.0704 C   0  0  0  0  0  0  0  0  0  0  0  0
    5.8324   -5.6879   -1.9283 O   0  0  0  0  0  0  0  0  0  0  0  0
    4.1318   -7.2355   -1.2577 C   0  0  1  0  0  0  0  0  0  0  0  0
    2.6110   -7.4146   -1.2322 C   0  0  0  0  0  0  0  0  0  0  0  0
    4.8615   -8.5099   -1.7193 C   0  0  0  0  0  0  0  0  0  0  0  0
    2.3638   -2.2353   -3.6062 C   0  0  0  0  0  0  0  0  0  0  0  0
    1.8125   -1.1108   -2.9239 C   0  0  0  0  0  0  0  0  0  0  0  0
    2.1050    2.5666   -0.6722 H   0  0  0  0  0  0  0  0  0  0  0  0
    2.5404    1.9180   -2.2773 H   0  0  0  0  0  0  0  0  0  0  0  0
    3.5758    1.5749   -0.8720 H   0  0  0  0  0  0  0  0  0  0  0  0
    0.6609    0.6025   -1.2105 H   0  0  0  0  0  0  0  0  0  0  0  0
    1.6954    0.2551    0.1896 H   0  0  0  0  0  0  0  0  0  0  0  0
    3.5152   -1.4045    0.0651 H   0  0  0  0  0  0  0  0  0  0  0  0
    4.5139   -3.3756   -1.1451 H   0  0  0  0  0  0  0  0  0  0  0  0
    3.3731   -4.3736   -4.6463 H   0  0  0  0  0  0  0  0  0  0  0  0
    6.0270   -3.6565   -3.3089 H   0  0  0  0  0  0  0  0  0  0  0  0
    5.3217   -2.9992   -4.8123 H   0  0  0  0  0  0  0  0  0  0  0  0
    6.6729   -5.7613   -3.4258 H   0  0  0  0  0  0  0  0  0  0  0  0
    2.8519   -5.8188   -2.9394 H   0  0  0  0  0  0  0  0  0  0  0  0
    4.4747   -7.0113   -0.2329 H   0  0  0  0  0  0  0  0  0  0  0  0
    2.2114   -7.6975   -2.2219 H   0  0  0  0  0  0  0  0  0  0  0  0
    2.0912   -6.5054   -0.8894 H   0  0  0  0  0  0  0  0  0  0  0  0
    2.3384   -8.2272   -0.5416 H   0  0  0  0  0  0  0  0  0  0  0  0
    4.5797   -8.7759   -2.7515 H   0  0  0  0  0  0  0  0  0  0  0  0
    4.6051   -9.3584   -1.0661 H   0  0  0  0  0  0  0  0  0  0  0  0
    5.9505   -8.3646   -1.6886 H   0  0  0  0  0  0  0  0  0  0  0  0
    2.0457   -2.4673   -4.6251 H   0  0  0  0  0  0  0  0  0  0  0  0
    1.0718   -0.4810   -3.4209 H   0  0  0  0  0  0  0  0  0  0  0  0
  1  2  1  0
  1 20  1  0
  1 21  1  0
  1 22  1  0
  2  3  1  0
  2 23  1  0
  2 24  1  0
  3  4  2  0
  3 19  1  0
  4  5  1  0
  4 25  1  0
  5  6  2  0
  5 26  1  0
  6  7  1  0
  6 18  1  0
  7  8  1  0
  7 12  1  0
  7 27  1  6
  8  9  1  0
  8 28  1  0
  8 29  1  0
  9 10  2  0
  9 11  1  0
 11 30  1  0
 12 13  1  0
 12 31  1  0
 13 14  2  0
 13 15  1  0
 15 16  1  0
 15 17  1  0
 15 32  1  1
 16 33  1  0
 16 34  1  0
 16 35  1  0
 17 36  1  0
 17 37  1  0
 17 38  1  0
 18 19  2  0
 18 39  1  0
 19 40  1  0
M  END

