
     RDKit          3D

130136  0  0  0  0  0  0  0  0999 V2000
    2.5132   -5.3938   -3.6699 C   0  0  0  0  0  0  0  0  0  0  0  0
    3.6537   -5.2508   -2.6606 C   0  0  0  0  0  0  0  0  0  0  0  0
    3.1588   -4.9600   -1.2406 C   0  0  0  0  0  0  0  0  0  0  0  0
    4.2435   -4.7673   -0.1657 C   0  0  0  0  0  0  0  0  0  0  0  0
    5.0876   -3.5853   -0.3240 N   0  0  0  0  0  0  0  0  0  0  0  0
    4.4879   -2.3418    0.1541 C   0  0  0  0  0  0  0  0  0  0  0  0
    4.5646   -2.1074    1.6734 C   0  0  0  0  0  0  0  0  0  0  0  0
    5.9649   -1.8998    2.2578 C   0  0  0  0  0  0  0  0  0  0  0  0
    5.9547   -1.7141    3.7764 C   0  0  0  0  0  0  0  0  0  0  0  0
    6.3537   -3.6397   -0.8902 C   0  0  0  0  0  0  0  0  0  0  0  0
    6.8962   -4.8406   -1.4166 C   0  0  0  0  0  0  0  0  0  0  0  0
    8.1664   -4.8789   -1.9795 C   0  0  0  0  0  0  0  0  0  0  0  0
    8.9913   -3.7402   -2.0734 C   0  0  0  0  0  0  0  0  0  0  0  0
   10.3113   -3.8472   -2.6840 C   0  0  0  0  0  0  0  0  0  0  0  0
   11.2170   -2.8573   -2.8762 C   0  0  0  0  0  0  0  0  0  0  0  0
   12.5402   -2.9755   -3.4893 C   0  0  0  0  0  0  0  0  0  0  0  0
   13.3162   -1.7839   -3.6717 C   0  0  0  0  0  0  0  0  0  0  0  0
   14.5412   -1.8096   -4.2820 C   0  0  0  0  0  0  0  0  0  0  0  0
   15.1265   -3.0293   -4.7594 C   0  0  0  0  0  0  0  0  0  0  0  0
   16.3736   -3.0679   -5.4358 C   0  0  0  0  0  0  0  0  0  0  0  0
   17.1205   -1.8405   -5.7679 C   0  0  0  0  0  0  0  0  0  0  0  0
   16.6369   -0.7510   -6.4031 C   0  0  0  0  0  0  0  0  0  0  0  0
   17.3904    0.4643   -6.7387 C   0  0  0  0  0  0  0  0  0  0  0  0
   16.8192    1.4259   -7.5933 C   0  0  0  0  0  0  0  0  0  0  0  0
   17.5405    2.5755   -7.9232 C   0  0  0  0  0  0  0  0  0  0  0  0
   18.7683    2.8354   -7.4678 N   0  0  0  0  0  0  0  0  0  0  0  0
   19.3154    1.9301   -6.6487 C   0  0  0  0  0  0  0  0  0  0  0  0
   18.6830    0.7512   -6.2559 C   0  0  0  0  0  0  0  0  0  0  0  0
   16.9518   -4.3274   -5.7753 C   0  0  0  0  0  0  0  0  0  0  0  0
   18.1996   -4.4062   -6.4605 C   0  0  0  0  0  0  0  0  0  0  0  0
   18.8300   -5.6074   -6.7524 C   0  0  0  0  0  0  0  0  0  0  0  0
   20.1078   -5.7187   -7.4571 C   0  0  0  0  0  0  0  0  0  0  0  0
   20.8195   -4.7128   -8.0214 C   0  0  0  0  0  0  0  0  0  0  0  0
   22.0942   -4.8055   -8.7244 C   0  0  0  0  0  0  0  0  0  0  0  0
   22.6731   -3.6454   -9.2776 C   0  0  0  0  0  0  0  0  0  0  0  0
   23.8851   -3.6644   -9.9579 C   0  0  0  0  0  0  0  0  0  0  0  0
   24.6106   -4.8704  -10.1381 C   0  0  0  0  0  0  0  0  0  0  0  0
   25.8189   -4.9068  -10.8160 N   0  0  0  0  0  0  0  0  0  0  0  0
   26.4504   -3.6771  -11.2881 C   0  0  0  0  0  0  0  0  0  0  0  0
   27.1772   -2.8566  -10.2089 C   0  0  0  0  0  0  0  0  0  0  0  0
   28.3718   -3.5638   -9.5617 C   0  0  0  0  0  0  0  0  0  0  0  0
   29.0795   -2.7084   -8.5093 C   0  0  0  0  0  0  0  0  0  0  0  0
   26.4980   -6.1735  -11.0761 C   0  0  0  0  0  0  0  0  0  0  0  0
   25.9186   -7.0043  -12.2337 C   0  0  0  0  0  0  0  0  0  0  0  0
   26.0057   -6.3361  -13.6092 C   0  0  0  0  0  0  0  0  0  0  0  0
   25.4343   -7.1997  -14.7350 C   0  0  0  0  0  0  0  0  0  0  0  0
   24.0278   -6.0426   -9.5813 C   0  0  0  0  0  0  0  0  0  0  0  0
   22.8192   -6.0036   -8.9008 C   0  0  0  0  0  0  0  0  0  0  0  0
   18.1809   -6.8098   -6.3187 C   0  0  0  0  0  0  0  0  0  0  0  0
   16.9594   -6.7852   -5.7011 C   0  0  0  0  0  0  0  0  0  0  0  0
   16.2663   -5.5572   -5.4364 C   0  0  0  0  0  0  0  0  0  0  0  0
   14.9791   -5.5154   -4.8396 C   0  0  0  0  0  0  0  0  0  0  0  0
   14.2260   -6.7420   -4.5200 C   0  0  0  0  0  0  0  0  0  0  0  0
   13.9754   -7.7741   -5.3547 C   0  0  0  0  0  0  0  0  0  0  0  0
   13.2166   -8.9890   -5.0303 C   0  0  0  0  0  0  0  0  0  0  0  0
   12.8399   -9.8719   -6.0599 C   0  0  0  0  0  0  0  0  0  0  0  0
   12.1067  -11.0204   -5.7540 C   0  0  0  0  0  0  0  0  0  0  0  0
   11.7312  -11.3516   -4.5163 N   0  0  0  0  0  0  0  0  0  0  0  0
   12.0924  -10.5219   -3.5308 C   0  0  0  0  0  0  0  0  0  0  0  0
   12.8236   -9.3510   -3.7261 C   0  0  0  0  0  0  0  0  0  0  0  0
   14.4028   -4.2558   -4.4958 C   0  0  0  0  0  0  0  0  0  0  0  0
   13.1097   -4.1722   -3.9008 C   0  0  0  0  0  0  0  0  0  0  0  0
    8.4520   -2.5457   -1.5502 C   0  0  0  0  0  0  0  0  0  0  0  0
    7.1897   -2.4919   -0.9774 C   0  0  0  0  0  0  0  0  0  0  0  0
    2.8943   -5.6078   -4.6810 H   0  0  0  0  0  0  0  0  0  0  0  0
    1.9123   -4.4706   -3.7300 H   0  0  0  0  0  0  0  0  0  0  0  0
    1.8292   -6.2133   -3.3915 H   0  0  0  0  0  0  0  0  0  0  0  0
    4.3361   -4.4473   -2.9856 H   0  0  0  0  0  0  0  0  0  0  0  0
    4.2566   -6.1763   -2.6573 H   0  0  0  0  0  0  0  0  0  0  0  0
    2.5066   -5.7873   -0.9044 H   0  0  0  0  0  0  0  0  0  0  0  0
    2.5099   -4.0652   -1.2608 H   0  0  0  0  0  0  0  0  0  0  0  0
    4.8738   -5.6647   -0.0967 H   0  0  0  0  0  0  0  0  0  0  0  0
    3.7425   -4.6915    0.8144 H   0  0  0  0  0  0  0  0  0  0  0  0
    3.4235   -2.3502   -0.1361 H   0  0  0  0  0  0  0  0  0  0  0  0
    4.9250   -1.4895   -0.3845 H   0  0  0  0  0  0  0  0  0  0  0  0
    4.0790   -2.9543    2.1918 H   0  0  0  0  0  0  0  0  0  0  0  0
    3.9386   -1.2252    1.9024 H   0  0  0  0  0  0  0  0  0  0  0  0
    6.4334   -1.0180    1.7853 H   0  0  0  0  0  0  0  0  0  0  0  0
    6.6059   -2.7588    1.9965 H   0  0  0  0  0  0  0  0  0  0  0  0
    5.3480   -0.8416    4.0725 H   0  0  0  0  0  0  0  0  0  0  0  0
    6.9720   -1.5606    4.1701 H   0  0  0  0  0  0  0  0  0  0  0  0
    5.5316   -2.5964    4.2855 H   0  0  0  0  0  0  0  0  0  0  0  0
    6.3186   -5.7623   -1.4030 H   0  0  0  0  0  0  0  0  0  0  0  0
    8.5327   -5.8322   -2.3724 H   0  0  0  0  0  0  0  0  0  0  0  0
   10.5677   -4.8578   -3.0214 H   0  0  0  0  0  0  0  0  0  0  0  0
   10.9577   -1.8429   -2.5553 H   0  0  0  0  0  0  0  0  0  0  0  0
   12.9118   -0.8327   -3.3144 H   0  0  0  0  0  0  0  0  0  0  0  0
   15.0974   -0.8803   -4.3941 H   0  0  0  0  0  0  0  0  0  0  0  0
   18.1833   -1.8501   -5.5008 H   0  0  0  0  0  0  0  0  0  0  0  0
   15.5969   -0.7605   -6.7450 H   0  0  0  0  0  0  0  0  0  0  0  0
   15.8169    1.2733   -8.0024 H   0  0  0  0  0  0  0  0  0  0  0  0
   17.0971    3.3240   -8.5913 H   0  0  0  0  0  0  0  0  0  0  0  0
   20.3212    2.1567   -6.2745 H   0  0  0  0  0  0  0  0  0  0  0  0
   19.1928    0.0720   -5.5694 H   0  0  0  0  0  0  0  0  0  0  0  0
   18.6739   -3.4760   -6.7706 H   0  0  0  0  0  0  0  0  0  0  0  0
   20.4982   -6.7395   -7.5268 H   0  0  0  0  0  0  0  0  0  0  0  0
   20.4129   -3.6967   -7.9666 H   0  0  0  0  0  0  0  0  0  0  0  0
   22.1512   -2.6900   -9.1686 H   0  0  0  0  0  0  0  0  0  0  0  0
   24.2668   -2.7239  -10.3518 H   0  0  0  0  0  0  0  0  0  0  0  0
   25.7006   -3.0428  -11.7901 H   0  0  0  0  0  0  0  0  0  0  0  0
   27.1700   -3.9562  -12.0724 H   0  0  0  0  0  0  0  0  0  0  0  0
   26.4591   -2.5636   -9.4242 H   0  0  0  0  0  0  0  0  0  0  0  0
   27.5181   -1.9151  -10.6778 H   0  0  0  0  0  0  0  0  0  0  0  0
   29.0944   -3.8548  -10.3467 H   0  0  0  0  0  0  0  0  0  0  0  0
   28.0301   -4.5047   -9.0964 H   0  0  0  0  0  0  0  0  0  0  0  0
   29.4643   -1.7711   -8.9452 H   0  0  0  0  0  0  0  0  0  0  0  0
   29.9330   -3.2420   -8.0616 H   0  0  0  0  0  0  0  0  0  0  0  0
   28.3930   -2.4332   -7.6913 H   0  0  0  0  0  0  0  0  0  0  0  0
   26.5141   -6.7842  -10.1575 H   0  0  0  0  0  0  0  0  0  0  0  0
   27.5521   -5.9434  -11.2923 H   0  0  0  0  0  0  0  0  0  0  0  0
   24.8657   -7.2535  -12.0168 H   0  0  0  0  0  0  0  0  0  0  0  0
   26.4614   -7.9673  -12.2579 H   0  0  0  0  0  0  0  0  0  0  0  0
   27.0611   -6.0921  -13.8319 H   0  0  0  0  0  0  0  0  0  0  0  0
   25.4686   -5.3721  -13.5800 H   0  0  0  0  0  0  0  0  0  0  0  0
   25.9704   -8.1603  -14.8167 H   0  0  0  0  0  0  0  0  0  0  0  0
   25.5088   -6.6934  -15.7106 H   0  0  0  0  0  0  0  0  0  0  0  0
   24.3702   -7.4304  -14.5605 H   0  0  0  0  0  0  0  0  0  0  0  0
   24.5272   -7.0050   -9.6806 H   0  0  0  0  0  0  0  0  0  0  0  0
   22.4297   -6.9396   -8.4937 H   0  0  0  0  0  0  0  0  0  0  0  0
   18.6778   -7.7684   -6.4926 H   0  0  0  0  0  0  0  0  0  0  0  0
   16.5062   -7.7235   -5.3850 H   0  0  0  0  0  0  0  0  0  0  0  0
   13.7997   -6.7819   -3.5113 H   0  0  0  0  0  0  0  0  0  0  0  0
   14.3277   -7.7105   -6.3894 H   0  0  0  0  0  0  0  0  0  0  0  0
   13.1147   -9.6586   -7.0963 H   0  0  0  0  0  0  0  0  0  0  0  0
   11.8100  -11.7073   -6.5561 H   0  0  0  0  0  0  0  0  0  0  0  0
   11.7853  -10.8070   -2.5171 H   0  0  0  0  0  0  0  0  0  0  0  0
   13.0933   -8.7370   -2.8643 H   0  0  0  0  0  0  0  0  0  0  0  0
   12.5446   -5.0942   -3.7702 H   0  0  0  0  0  0  0  0  0  0  0  0
    9.0388   -1.6246   -1.5811 H   0  0  0  0  0  0  0  0  0  0  0  0
    6.8552   -1.5360   -0.5800 H   0  0  0  0  0  0  0  0  0  0  0  0
  1  2  1  0
  1 65  1  0
  1 66  1  0
  1 67  1  0
  2  3  1  0
  2 68  1  0
  2 69  1  0
  3  4  1  0
  3 70  1  0
  3 71  1  0
  4  5  1  0
  4 72  1  0
  4 73  1  0
  5  6  1  0
  5 10  1  0
  6  7  1  0
  6 74  1  0
  6 75  1  0
  7  8  1  0
  7 76  1  0
  7 77  1  0
  8  9  1  0
  8 78  1  0
  8 79  1  0
  9 80  1  0
  9 81  1  0
  9 82  1  0
 10 11  2  0
 10 64  1  0
 11 12  1  0
 11 83  1  0
 12 13  2  0
 12 84  1  0
 13 14  1  0
 13 63  1  0
 14 15  2  0
 14 85  1  0
 15 16  1  0
 15 86  1  0
 16 17  2  0
 16 62  1  0
 17 18  1  0
 17 87  1  0
 18 19  2  0
 18 88  1  0
 19 20  1  0
 19 61  1  0
 20 21  1  0
 20 29  2  0
 21 22  2  0
 21 89  1  0
 22 23  1  0
 22 90  1  0
 23 24  2  0
 23 28  1  0
 24 25  1  0
 24 91  1  0
 25 26  2  0
 25 92  1  0
 26 27  1  0
 27 28  2  0
 27 93  1  0
 28 94  1  0
 29 30  1  0
 29 51  1  0
 30 31  2  0
 30 95  1  0
 31 32  1  0
 31 49  1  0
 32 33  2  0
 32 96  1  0
 33 34  1  0
 33 97  1  0
 34 35  2  0
 34 48  1  0
 35 36  1  0
 35 98  1  0
 36 37  2  0
 36 99  1  0
 37 38  1  0
 37 47  1  0
 38 39  1  0
 38 43  1  0
 39 40  1  0
 39100  1  0
 39101  1  0
 40 41  1  0
 40102  1  0
 40103  1  0
 41 42  1  0
 41104  1  0
 41105  1  0
 42106  1  0
 42107  1  0
 42108  1  0
 43 44  1  0
 43109  1  0
 43110  1  0
 44 45  1  0
 44111  1  0
 44112  1  0
 45 46  1  0
 45113  1  0
 45114  1  0
 46115  1  0
 46116  1  0
 46117  1  0
 47 48  2  0
 47118  1  0
 48119  1  0
 49 50  2  0
 49120  1  0
 50 51  1  0
 50121  1  0
 51 52  2  0
 52 53  1  0
 52 61  1  0
 53 54  2  0
 53122  1  0
 54 55  1  0
 54123  1  0
 55 56  2  0
 55 60  1  0
 56 57  1  0
 56124  1  0
 57 58  2  0
 57125  1  0
 58 59  1  0
 59 60  2  0
 59126  1  0
 60127  1  0
 61 62  2  0
 62128  1  0
 63 64  2  0
 63129  1  0
 64130  1  0
M  END

