
     RDKit          3D

 47 49  0  0  0  0  0  0  0  0999 V2000
    2.9173    1.2007    0.7880 C   0  0  0  0  0  0  0  0  0  0  0  0
    3.1600    0.0027    0.0103 N   0  0  0  0  0  0  0  0  0  0  0  0
    3.0926   -1.2988    0.6435 C   0  0  0  0  0  0  0  0  0  0  0  0
    3.6541    0.1117   -1.2722 C   0  0  0  0  0  0  0  0  0  0  0  0
    3.8512    1.3551   -1.9222 C   0  0  0  0  0  0  0  0  0  0  0  0
    4.3094    1.4505   -3.1643 N   0  0  0  0  0  0  0  0  0  0  0  0
    4.5941    0.3172   -3.8018 C   0  0  0  0  0  0  0  0  0  0  0  0
    5.0735    0.4559   -5.1262 N   0  0  0  0  0  0  0  0  0  0  0  0
    5.2631    1.6510   -5.7867 C   0  0  0  0  0  0  0  0  0  0  0  0
    5.7354    1.3118   -7.0406 C   0  0  0  0  0  0  0  0  0  0  0  0
    6.1018    2.1286   -8.1140 N   0  0  0  0  0  0  0  0  0  0  0  0
    6.0449    3.5116   -8.1100 C   0  0  0  0  0  0  0  0  0  0  0  0
    5.6516    4.1598   -7.1537 O   0  0  0  0  0  0  0  0  0  0  0  0
    6.4527    4.0947   -9.2953 N   0  0  0  0  0  0  0  0  0  0  0  0
    6.5626    5.5387   -9.3946 C   0  0  0  0  0  0  0  0  0  0  0  0
    7.8631    6.1152   -8.7946 C   0  0  0  0  0  0  0  0  0  0  0  0
    7.9262    7.6225   -8.8880 C   0  0  0  0  0  0  0  0  0  0  0  0
    7.2616    8.4232   -7.9433 C   0  0  0  0  0  0  0  0  0  0  0  0
    7.2802    9.8165   -8.0434 C   0  0  0  0  0  0  0  0  0  0  0  0
    7.9648   10.4374   -9.0934 C   0  0  0  0  0  0  0  0  0  0  0  0
    8.6294    9.6537  -10.0406 C   0  0  0  0  0  0  0  0  0  0  0  0
    8.6075    8.2596   -9.9372 C   0  0  0  0  0  0  0  0  0  0  0  0
    5.7929   -0.1131   -7.0335 C   0  0  0  0  0  0  0  0  0  0  0  0
    5.3901   -0.6119   -5.8768 N   0  0  0  0  0  0  0  0  0  0  0  0
    4.4726   -0.9065   -3.3019 N   0  0  0  0  0  0  0  0  0  0  0  0
    4.0156   -1.0103   -2.0607 C   0  0  0  0  0  0  0  0  0  0  0  0
    2.4956    0.9219    1.7623 H   0  0  0  0  0  0  0  0  0  0  0  0
    2.1915    1.8693    0.2919 H   0  0  0  0  0  0  0  0  0  0  0  0
    3.8392    1.7869    0.9715 H   0  0  0  0  0  0  0  0  0  0  0  0
    2.6441   -1.1950    1.6400 H   0  0  0  0  0  0  0  0  0  0  0  0
    4.0886   -1.7678    0.7660 H   0  0  0  0  0  0  0  0  0  0  0  0
    2.4633   -2.0005    0.0679 H   0  0  0  0  0  0  0  0  0  0  0  0
    3.6300    2.2997   -1.4176 H   0  0  0  0  0  0  0  0  0  0  0  0
    5.0528    2.6080   -5.3285 H   0  0  0  0  0  0  0  0  0  0  0  0
    6.3325    1.6524   -8.9768 H   0  0  0  0  0  0  0  0  0  0  0  0
    7.0027    3.5421   -9.9430 H   0  0  0  0  0  0  0  0  0  0  0  0
    5.7001    5.9709   -8.8682 H   0  0  0  0  0  0  0  0  0  0  0  0
    6.4769    5.8237  -10.4558 H   0  0  0  0  0  0  0  0  0  0  0  0
    8.7289    5.6696   -9.3139 H   0  0  0  0  0  0  0  0  0  0  0  0
    7.9140    5.7985   -7.7408 H   0  0  0  0  0  0  0  0  0  0  0  0
    6.7279    7.9441   -7.1169 H   0  0  0  0  0  0  0  0  0  0  0  0
    6.7608   10.4214   -7.2953 H   0  0  0  0  0  0  0  0  0  0  0  0
    7.9828   11.5276   -9.1705 H   0  0  0  0  0  0  0  0  0  0  0  0
    9.1711   10.1292  -10.8628 H   0  0  0  0  0  0  0  0  0  0  0  0
    9.1357    7.6542  -10.6804 H   0  0  0  0  0  0  0  0  0  0  0  0
    6.1139   -0.7795   -7.8357 H   0  0  0  0  0  0  0  0  0  0  0  0
    3.9300   -2.0268   -1.6654 H   0  0  0  0  0  0  0  0  0  0  0  0
  1  2  1  0
  1 27  1  0
  1 28  1  0
  1 29  1  0
  2  3  1  0
  2  4  1  0
  3 30  1  0
  3 31  1  0
  3 32  1  0
  4  5  2  0
  4 26  1  0
  5  6  1  0
  5 33  1  0
  6  7  2  0
  7  8  1  0
  7 25  1  0
  8  9  1  0
  8 24  1  0
  9 10  2  0
  9 34  1  0
 10 11  1  0
 10 23  1  0
 11 12  1  0
 11 35  1  0
 12 13  2  0
 12 14  1  0
 14 15  1  0
 14 36  1  0
 15 16  1  0
 15 37  1  0
 15 38  1  0
 16 17  1  0
 16 39  1  0
 16 40  1  0
 17 18  2  0
 17 22  1  0
 18 19  1  0
 18 41  1  0
 19 20  2  0
 19 42  1  0
 20 21  1  0
 20 43  1  0
 21 22  2  0
 21 44  1  0
 22 45  1  0
 23 24  2  0
 23 46  1  0
 25 26  2  0
 26 47  1  0
M  END

