
     RDKit          3D

 58 60  0  0  0  0  0  0  0  0999 V2000
    1.0233   -0.5069    0.3510 C   0  0  0  0  0  0  0  0  0  0  0  0
    2.1398   -1.1321   -0.2344 O   0  0  0  0  0  0  0  0  0  0  0  0
    2.9967   -0.3649   -1.0778 C   0  0  1  0  0  0  0  0  0  0  0  0
    3.3009    1.0106   -0.4943 C   0  0  0  0  0  0  0  0  0  0  0  0
    4.2118   -1.2795   -1.3840 C   0  0  0  0  0  0  0  0  0  0  0  0
    3.4963   -1.7542   -2.6630 C   0  0  2  0  0  0  0  0  0  0  0  0
    4.2322   -2.1186   -3.8663 N   0  0  0  0  0  0  0  0  0  0  0  0
    5.4854   -1.4853   -4.2319 C   0  0  0  0  0  0  0  0  0  0  0  0
    3.6693   -3.1027   -4.6702 C   0  0  0  0  0  0  0  0  0  0  0  0
    2.6485   -3.7079   -4.3498 O   0  0  0  0  0  0  0  0  0  0  0  0
    4.3460   -3.3777   -5.8410 N   0  0  0  0  0  0  0  0  0  0  0  0
    3.7570   -4.2702   -6.8373 C   0  0  0  0  0  0  0  0  0  0  0  0
    2.8077   -3.5805   -7.8043 C   0  0  0  0  0  0  0  0  0  0  0  0
    3.2145   -3.2877   -9.1270 C   0  0  0  0  0  0  0  0  0  0  0  0
    2.3267   -2.6123   -9.9932 C   0  0  0  0  0  0  0  0  0  0  0  0
    1.0694   -2.2232   -9.5738 C   0  0  0  0  0  0  0  0  0  0  0  0
    0.6345   -2.5046   -8.2297 C   0  0  0  0  0  0  0  0  0  0  0  0
   -0.6369   -2.0958   -7.7753 C   0  0  0  0  0  0  0  0  0  0  0  0
   -1.4927   -1.4671   -8.5621 O   0  0  0  0  0  0  0  0  0  0  0  0
   -1.0978   -2.2868   -6.5052 N   0  0  0  0  0  0  0  0  0  0  0  0
   -2.4717   -2.0839   -6.1451 C   0  0  1  0  0  0  0  0  0  0  0  0
   -2.7626   -1.4133   -4.8322 C   0  0  0  0  0  0  0  0  0  0  0  0
   -3.0076   -0.6730   -6.1241 C   0  0  0  0  0  0  0  0  0  0  0  0
    1.5465   -3.2052   -7.3641 C   0  0  0  0  0  0  0  0  0  0  0  0
    2.5744   -0.4833   -2.6139 C   0  0  1  0  0  0  0  0  0  0  0  0
    1.1043   -0.7520   -2.9314 C   0  0  0  0  0  0  0  0  0  0  0  0
    3.0898    0.6716   -3.4775 C   0  0  0  0  0  0  0  0  0  0  0  0
    0.4206   -1.3038    0.8127 H   0  0  0  0  0  0  0  0  0  0  0  0
    0.3862    0.0235   -0.3798 H   0  0  0  0  0  0  0  0  0  0  0  0
    1.3045    0.2096    1.1454 H   0  0  0  0  0  0  0  0  0  0  0  0
    3.6672    0.9044    0.5400 H   0  0  0  0  0  0  0  0  0  0  0  0
    2.4161    1.6662   -0.4787 H   0  0  0  0  0  0  0  0  0  0  0  0
    4.0794    1.5249   -1.0736 H   0  0  0  0  0  0  0  0  0  0  0  0
    4.4250   -2.0399   -0.6192 H   0  0  0  0  0  0  0  0  0  0  0  0
    5.1198   -0.6854   -1.5628 H   0  0  0  0  0  0  0  0  0  0  0  0
    2.8755   -2.6240   -2.4228 H   0  0  0  0  0  0  0  0  0  0  0  0
    5.8729   -0.9064   -3.3861 H   0  0  0  0  0  0  0  0  0  0  0  0
    5.3898   -0.7881   -5.0865 H   0  0  0  0  0  0  0  0  0  0  0  0
    6.2492   -2.2397   -4.4853 H   0  0  0  0  0  0  0  0  0  0  0  0
    4.9739   -2.6724   -6.2054 H   0  0  0  0  0  0  0  0  0  0  0  0
    3.2306   -5.0562   -6.2799 H   0  0  0  0  0  0  0  0  0  0  0  0
    4.5786   -4.7455   -7.3961 H   0  0  0  0  0  0  0  0  0  0  0  0
    4.2041   -3.5907   -9.4777 H   0  0  0  0  0  0  0  0  0  0  0  0
    2.6387   -2.3915  -11.0181 H   0  0  0  0  0  0  0  0  0  0  0  0
    0.4054   -1.7016  -10.2651 H   0  0  0  0  0  0  0  0  0  0  0  0
   -0.5442   -2.9080   -5.9250 H   0  0  0  0  0  0  0  0  0  0  0  0
   -3.1670   -2.8695   -6.4713 H   0  0  0  0  0  0  0  0  0  0  0  0
   -1.9037   -1.1028   -4.2308 H   0  0  0  0  0  0  0  0  0  0  0  0
   -3.6214   -1.7717   -4.2589 H   0  0  0  0  0  0  0  0  0  0  0  0
   -2.3139    0.1275   -6.3904 H   0  0  0  0  0  0  0  0  0  0  0  0
   -4.0355   -0.5209   -6.4623 H   0  0  0  0  0  0  0  0  0  0  0  0
    1.2874   -3.4484   -6.3320 H   0  0  0  0  0  0  0  0  0  0  0  0
    0.6995   -1.5508   -2.2943 H   0  0  0  0  0  0  0  0  0  0  0  0
    1.0037   -1.0793   -3.9794 H   0  0  0  0  0  0  0  0  0  0  0  0
    0.4841    0.1521   -2.8040 H   0  0  0  0  0  0  0  0  0  0  0  0
    4.1502    0.9069   -3.3032 H   0  0  0  0  0  0  0  0  0  0  0  0
    2.5131    1.5924   -3.2926 H   0  0  0  0  0  0  0  0  0  0  0  0
    2.9787    0.4219   -4.5453 H   0  0  0  0  0  0  0  0  0  0  0  0
  1  2  1  0
  1 28  1  0
  1 29  1  0
  1 30  1  0
  3  2  1  1
  3  4  1  0
  3  5  1  0
  3 25  1  0
  4 31  1  0
  4 32  1  0
  4 33  1  0
  5  6  1  0
  5 34  1  0
  5 35  1  0
  6  7  1  0
  6 25  1  0
  6 36  1  1
  7  8  1  0
  7  9  1  0
  8 37  1  0
  8 38  1  0
  8 39  1  0
  9 10  2  0
  9 11  1  0
 11 12  1  0
 11 40  1  0
 12 13  1  0
 12 41  1  0
 12 42  1  0
 13 14  2  0
 13 24  1  0
 14 15  1  0
 14 43  1  0
 15 16  2  0
 15 44  1  0
 16 17  1  0
 16 45  1  0
 17 18  1  0
 17 24  2  0
 18 19  2  0
 18 20  1  0
 20 21  1  0
 20 46  1  0
 21 22  1  0
 21 23  1  0
 21 47  1  6
 22 23  1  0
 22 48  1  0
 22 49  1  0
 23 50  1  0
 23 51  1  0
 24 52  1  0
 25 26  1  1
 25 27  1  0
 26 53  1  0
 26 54  1  0
 26 55  1  0
 27 56  1  0
 27 57  1  0
 27 58  1  0
M  END

