
     RDKit          3D

 80 84  0  0  0  0  0  0  0  0999 V2000
   12.5939   14.2425    4.9869 O   0  0  0  0  0  0  0  0  0  0  0  0
   13.6041   13.7216    4.5408 C   0  0  0  0  0  0  0  0  0  0  0  0
   14.0287   13.8945    3.0829 C   0  0  0  0  0  0  0  0  0  0  0  0
   12.8312   13.9009    2.1306 C   0  0  0  0  0  0  0  0  0  0  0  0
   13.1955   14.2381    0.6825 C   0  0  0  0  0  0  0  0  0  0  0  0
   11.9828   14.2042   -0.2579 C   0  0  0  0  0  0  0  0  0  0  0  0
   12.3175   14.4935   -1.7255 C   0  0  1  0  0  0  0  0  0  0  0  0
   13.1450   13.8344   -2.0319 H   0  0  0  0  0  0  0  0  0  0  0  0
   10.9022   14.0582   -2.8612 S   0  0  0  0  0  0  0  0  0  0  0  0
   10.7045   15.7653   -3.4816 C   0  0  0  0  0  0  0  0  0  0  0  0
   12.0935   16.4267   -3.3780 C   0  0  1  0  0  0  0  0  0  0  0  0
   12.7142   16.1412   -4.2409 H   0  0  0  0  0  0  0  0  0  0  0  0
   12.0566   17.8632   -3.1817 N   0  0  0  0  0  0  0  0  0  0  0  0
   11.9919   18.1736   -1.8277 C   0  0  0  0  0  0  0  0  0  0  0  0
   11.7671   19.2573   -1.3372 O   0  0  0  0  0  0  0  0  0  0  0  0
   12.2442   16.9845   -1.1463 N   0  0  0  0  0  0  0  0  0  0  0  0
   12.7364   15.9512   -2.0454 C   0  0  1  0  0  0  0  0  0  0  0  0
   13.8397   15.9948   -2.1244 H   0  0  0  0  0  0  0  0  0  0  0  0
   14.4473   12.9752    5.3150 N   0  0  0  0  0  0  0  0  0  0  0  0
   14.1874   12.7262    6.7226 C   0  0  0  0  0  0  0  0  0  0  0  0
   13.3717   11.4538    6.9832 C   0  0  0  0  0  0  0  0  0  0  0  0
   13.1101   11.2144    8.4725 C   0  0  0  0  0  0  0  0  0  0  0  0
   12.2828    9.9471    8.7256 C   0  0  0  0  0  0  0  0  0  0  0  0
   12.0245    9.5944   10.1944 C   0  0  2  0  0  0  0  0  0  0  0  0
   11.3565    8.7137   10.2285 H   0  0  0  0  0  0  0  0  0  0  0  0
   11.3298   10.6905   10.8777 N   0  0  0  0  0  0  0  0  0  0  0  0
   10.6116   10.5177   12.0104 C   0  0  0  0  0  0  0  0  0  0  0  0
   10.6201    9.4863   12.6781 O   0  0  0  0  0  0  0  0  0  0  0  0
    9.8965   11.6086   12.3209 O   0  0  0  0  0  0  0  0  0  0  0  0
    9.1504   11.5866   13.5514 C   0  0  0  0  0  0  0  0  0  0  0  0
   10.0098   11.9763   14.7633 C   0  0  2  0  0  0  0  0  0  0  0  0
    9.2025   11.9254   16.0517 C   0  0  0  0  0  0  0  0  0  0  0  0
    8.5127   10.8549   16.6175 C   0  0  0  0  0  0  0  0  0  0  0  0
    7.8266   11.0505   17.8243 C   0  0  0  0  0  0  0  0  0  0  0  0
    7.8347   12.3027   18.4528 C   0  0  0  0  0  0  0  0  0  0  0  0
    8.5284   13.3793   17.8901 C   0  0  0  0  0  0  0  0  0  0  0  0
    9.2128   13.1875   16.6854 C   0  0  0  0  0  0  0  0  0  0  0  0
   10.0254   14.1097   15.8781 C   0  0  0  0  0  0  0  0  0  0  0  0
   10.3540   15.4545   16.0782 C   0  0  0  0  0  0  0  0  0  0  0  0
   11.1698   16.0977   15.1418 C   0  0  0  0  0  0  0  0  0  0  0  0
   11.6531   15.4067   14.0231 C   0  0  0  0  0  0  0  0  0  0  0  0
   11.3265   14.0587   13.8207 C   0  0  0  0  0  0  0  0  0  0  0  0
   10.5099   13.4130   14.7478 C   0  0  0  0  0  0  0  0  0  0  0  0
   13.3178    9.1507   10.9336 C   0  0  0  0  0  0  0  0  0  0  0  0
   14.3870    9.0736   10.3829 O   0  0  0  0  0  0  0  0  0  0  0  0
   13.1540    8.8110   12.2098 O   0  0  0  0  0  0  0  0  0  0  0  0
   14.7614   13.1220    2.7915 H   0  0  0  0  0  0  0  0  0  0  0  0
   14.5576   14.8635    3.0187 H   0  0  0  0  0  0  0  0  0  0  0  0
   12.0916   14.6200    2.5179 H   0  0  0  0  0  0  0  0  0  0  0  0
   12.3357   12.9141    2.1627 H   0  0  0  0  0  0  0  0  0  0  0  0
   13.9594   13.5278    0.3148 H   0  0  0  0  0  0  0  0  0  0  0  0
   13.6819   15.2316    0.6544 H   0  0  0  0  0  0  0  0  0  0  0  0
   11.2107   14.9137    0.0821 H   0  0  0  0  0  0  0  0  0  0  0  0
   11.5223   13.2039   -0.2014 H   0  0  0  0  0  0  0  0  0  0  0  0
    9.9740   16.3182   -2.8713 H   0  0  0  0  0  0  0  0  0  0  0  0
   10.3382   15.7260   -4.5183 H   0  0  0  0  0  0  0  0  0  0  0  0
   11.5976   18.4885   -3.8340 H   0  0  0  0  0  0  0  0  0  0  0  0
   12.5817   17.0700   -0.1949 H   0  0  0  0  0  0  0  0  0  0  0  0
   15.2363   12.5168    4.8764 H   0  0  0  0  0  0  0  0  0  0  0  0
   13.6393   13.5997    7.1071 H   0  0  0  0  0  0  0  0  0  0  0  0
   15.1516   12.6755    7.2560 H   0  0  0  0  0  0  0  0  0  0  0  0
   13.9044   10.5835    6.5592 H   0  0  0  0  0  0  0  0  0  0  0  0
   12.4158   11.5361    6.4377 H   0  0  0  0  0  0  0  0  0  0  0  0
   12.5956   12.1049    8.8815 H   0  0  0  0  0  0  0  0  0  0  0  0
   14.0671   11.1277    9.0104 H   0  0  0  0  0  0  0  0  0  0  0  0
   12.8047    9.0876    8.2788 H   0  0  0  0  0  0  0  0  0  0  0  0
   11.3075   10.0287    8.2146 H   0  0  0  0  0  0  0  0  0  0  0  0
   11.2540   11.5870   10.4105 H   0  0  0  0  0  0  0  0  0  0  0  0
    8.7283   10.5823   13.6916 H   0  0  0  0  0  0  0  0  0  0  0  0
    8.3381   12.3108   13.4047 H   0  0  0  0  0  0  0  0  0  0  0  0
   10.8536   11.2646   14.8152 H   0  0  0  0  0  0  0  0  0  0  0  0
    8.5098    9.8716   16.1389 H   0  0  0  0  0  0  0  0  0  0  0  0
    7.2840   10.2185   18.2800 H   0  0  0  0  0  0  0  0  0  0  0  0
    7.2956   12.4384   19.3939 H   0  0  0  0  0  0  0  0  0  0  0  0
    8.5342   14.3521   18.3882 H   0  0  0  0  0  0  0  0  0  0  0  0
    9.9842   15.9967   16.9522 H   0  0  0  0  0  0  0  0  0  0  0  0
   11.4360   17.1480   15.2856 H   0  0  0  0  0  0  0  0  0  0  0  0
   12.2933   15.9225   13.3030 H   0  0  0  0  0  0  0  0  0  0  0  0
   11.7101   13.5252   12.9489 H   0  0  0  0  0  0  0  0  0  0  0  0
   12.2068    8.8952   12.4882 H   0  0  0  0  0  0  0  0  0  0  0  0
  1  2  2  0
  2  3  1  0
  2 19  1  0
  3  4  1  0
  3 47  1  0
  3 48  1  0
  4  5  1  0
  4 49  1  0
  4 50  1  0
  5  6  1  0
  5 51  1  0
  5 52  1  0
  6  7  1  0
  6 53  1  0
  6 54  1  0
  7  8  1  6
  7  9  1  0
  7 17  1  0
  9 10  1  0
 10 11  1  0
 10 55  1  0
 10 56  1  0
 11 12  1  6
 11 13  1  0
 11 17  1  0
 13 14  1  0
 13 57  1  0
 14 15  2  0
 14 16  1  0
 16 17  1  0
 16 58  1  0
 17 18  1  6
 19 20  1  0
 19 59  1  0
 20 21  1  0
 20 60  1  0
 20 61  1  0
 21 22  1  0
 21 62  1  0
 21 63  1  0
 22 23  1  0
 22 64  1  0
 22 65  1  0
 23 24  1  0
 23 66  1  0
 23 67  1  0
 24 25  1  6
 24 26  1  0
 24 44  1  0
 26 27  1  0
 26 68  1  0
 27 28  2  0
 27 29  1  0
 29 30  1  0
 30 31  1  0
 30 69  1  0
 30 70  1  0
 31 32  1  0
 31 43  1  0
 31 71  1  1
 32 33  2  0
 32 37  1  0
 33 34  1  0
 33 72  1  0
 34 35  2  0
 34 73  1  0
 35 36  1  0
 35 74  1  0
 36 37  2  0
 36 75  1  0
 37 38  1  0
 38 39  2  0
 38 43  1  0
 39 40  1  0
 39 76  1  0
 40 41  2  0
 40 77  1  0
 41 42  1  0
 41 78  1  0
 42 43  2  0
 42 79  1  0
 44 45  2  0
 44 46  1  0
 46 80  1  0
M  END

