
     RDKit          3D

 37 38  0  0  0  0  0  0  0  0999 V2000
    0.8239    0.9358   -0.0490 C   0  0  0  0  0  0  0  0  0  0  0  0
    2.1150    0.2719   -0.0741 N   0  0  0  0  0  0  0  0  0  0  0  0
    2.5825   -0.3343   -1.4091 C   0  0  0  0  0  0  0  0  0  0  0  0
    2.9959   -1.7656   -1.4633 C   0  0  0  0  0  0  0  0  0  0  0  0
    2.0488   -2.8080   -1.3491 C   0  0  0  0  0  0  0  0  0  0  0  0
    2.4174   -4.1445   -1.3168 C   0  0  0  0  0  0  0  0  0  0  0  0
    3.8139   -4.5110   -1.3821 C   0  0  0  0  0  0  0  0  0  0  0  0
    4.7556   -3.4941   -1.5573 C   0  0  0  0  0  0  0  0  0  0  0  0
    6.1057   -3.7921   -1.6520 O   0  0  0  0  0  0  0  0  0  0  0  0
    4.4102   -2.1404   -1.6081 C   0  0  0  0  0  0  0  0  0  0  0  0
    2.9105    0.3094    1.0172 C   0  0  0  0  0  0  0  0  0  0  0  0
    2.5309    1.0069    2.2190 C   0  0  0  0  0  0  0  0  0  0  0  0
    3.3637    1.0309    3.3289 C   0  0  0  0  0  0  0  0  0  0  0  0
    4.5992    0.3736    3.3220 C   0  0  0  0  0  0  0  0  0  0  0  0
    4.9855   -0.3259    2.1504 C   0  0  0  0  0  0  0  0  0  0  0  0
    6.2548   -1.0774    2.1430 C   0  0  0  0  0  0  0  0  0  0  0  0
    6.5910   -1.8570    1.1172 N   0  0  0  0  0  0  0  0  0  0  0  0
    7.0274   -0.9254    3.2202 N   0  0  0  0  0  0  0  0  0  0  0  0
    8.1673   -1.6625    3.0959 O   0  0  0  0  0  0  0  0  0  0  0  0
    4.1737   -0.3394    1.0284 C   0  0  0  0  0  0  0  0  0  0  0  0
    0.2950    0.7189   -0.9848 H   0  0  0  0  0  0  0  0  0  0  0  0
    0.9116    2.0346    0.0432 H   0  0  0  0  0  0  0  0  0  0  0  0
    0.1959    0.5725    0.7816 H   0  0  0  0  0  0  0  0  0  0  0  0
    3.4031    0.3177   -1.7571 H   0  0  0  0  0  0  0  0  0  0  0  0
    1.7216   -0.1349   -2.0685 H   0  0  0  0  0  0  0  0  0  0  0  0
    0.9834   -2.5536   -1.2871 H   0  0  0  0  0  0  0  0  0  0  0  0
    1.6558   -4.9240   -1.2433 H   0  0  0  0  0  0  0  0  0  0  0  0
    4.1343   -5.5476   -1.2456 H   0  0  0  0  0  0  0  0  0  0  0  0
    6.1772   -4.7439   -1.8037 H   0  0  0  0  0  0  0  0  0  0  0  0
    5.1465   -1.4322   -2.0035 H   0  0  0  0  0  0  0  0  0  0  0  0
    1.5801    1.5352    2.2678 H   0  0  0  0  0  0  0  0  0  0  0  0
    3.0466    1.5748    4.2215 H   0  0  0  0  0  0  0  0  0  0  0  0
    5.2531    0.3834    4.1923 H   0  0  0  0  0  0  0  0  0  0  0  0
    5.9766   -2.0242    0.3154 H   0  0  0  0  0  0  0  0  0  0  0  0
    7.4608   -2.3753    1.1611 H   0  0  0  0  0  0  0  0  0  0  0  0
    8.6501   -1.4951    3.9179 H   0  0  0  0  0  0  0  0  0  0  0  0
    4.4657   -0.9042    0.1495 H   0  0  0  0  0  0  0  0  0  0  0  0
  1  2  1  0
  1 21  1  0
  1 22  1  0
  1 23  1  0
  2  3  1  0
  2 11  1  0
  3  4  1  0
  3 24  1  0
  3 25  1  0
  4  5  2  0
  4 10  1  0
  5  6  1  0
  5 26  1  0
  6  7  2  0
  6 27  1  0
  7  8  1  0
  7 28  1  0
  8  9  1  0
  8 10  2  0
  9 29  1  0
 10 30  1  0
 11 12  2  0
 11 20  1  0
 12 13  1  0
 12 31  1  0
 13 14  2  0
 13 32  1  0
 14 15  1  0
 14 33  1  0
 15 16  1  0
 15 20  2  0
 16 17  1  0
 16 18  2  0
 17 34  1  0
 17 35  1  0
 18 19  1  0
 19 36  1  0
 20 37  1  0
M  END

