
     RDKit          3D

 39 40  0  0  0  0  0  0  0  0999 V2000
    4.5747   -1.1547   -2.2454 C   0  0  0  0  0  0  0  0  0  0  0  0
    4.0722   -0.6017   -0.9453 C   0  0  0  0  0  0  0  0  0  0  0  0
    4.3123    0.6645   -0.6140 N   0  0  0  0  0  0  0  0  0  0  0  0
    3.7435    0.8393    0.5944 N   0  0  0  0  0  0  0  0  0  0  0  0
    3.8078    2.1329    1.2386 C   0  0  0  0  0  0  0  0  0  0  0  0
    3.1348   -0.2908    1.0561 C   0  0  0  0  0  0  0  0  0  0  0  0
    2.4386   -0.3620    2.3768 C   0  0  0  0  0  0  0  0  0  0  0  0
    3.3309   -1.2633    0.0769 C   0  0  0  0  0  0  0  0  0  0  0  0
    2.8533   -2.6873    0.0972 C   0  0  0  0  0  0  0  0  0  0  0  0
    1.3912   -2.7719    0.1657 N   0  0  0  0  0  0  0  0  0  0  0  0
    0.8197   -4.0973   -0.0727 C   0  0  1  0  0  0  0  0  0  0  0  0
    1.1618   -5.0673    1.0716 C   0  0  0  0  0  0  0  0  0  0  0  0
   -0.6882   -3.9893   -0.2515 C   0  0  0  0  0  0  0  0  0  0  0  0
   -1.3607   -4.7942   -1.1820 C   0  0  0  0  0  0  0  0  0  0  0  0
   -2.7511   -4.7311   -1.3181 C   0  0  0  0  0  0  0  0  0  0  0  0
   -3.4812   -3.8547   -0.5231 C   0  0  0  0  0  0  0  0  0  0  0  0
   -4.8104   -3.7718   -0.6395 F   0  0  0  0  0  0  0  0  0  0  0  0
   -2.8205   -3.0436    0.4053 C   0  0  0  0  0  0  0  0  0  0  0  0
   -3.5366   -2.2017    1.1584 F   0  0  0  0  0  0  0  0  0  0  0  0
   -1.4393   -3.1086    0.5440 C   0  0  0  0  0  0  0  0  0  0  0  0
    5.0711   -0.3565   -2.8147 H   0  0  0  0  0  0  0  0  0  0  0  0
    3.7568   -1.5610   -2.8637 H   0  0  0  0  0  0  0  0  0  0  0  0
    5.3023   -1.9695   -2.0923 H   0  0  0  0  0  0  0  0  0  0  0  0
    4.4202    2.7826    0.6022 H   0  0  0  0  0  0  0  0  0  0  0  0
    4.2721    2.0610    2.2353 H   0  0  0  0  0  0  0  0  0  0  0  0
    2.8056    2.5793    1.3496 H   0  0  0  0  0  0  0  0  0  0  0  0
    1.7165    0.4618    2.5055 H   0  0  0  0  0  0  0  0  0  0  0  0
    3.1468   -0.3097    3.2226 H   0  0  0  0  0  0  0  0  0  0  0  0
    1.8812   -1.3054    2.4448 H   0  0  0  0  0  0  0  0  0  0  0  0
    3.2754   -3.2156    0.9697 H   0  0  0  0  0  0  0  0  0  0  0  0
    3.2580   -3.2126   -0.7957 H   0  0  0  0  0  0  0  0  0  0  0  0
    0.9985   -2.1114   -0.5045 H   0  0  0  0  0  0  0  0  0  0  0  0
    1.2265   -4.5446   -1.0087 H   0  0  0  0  0  0  0  0  0  0  0  0
    0.7899   -4.6749    2.0312 H   0  0  0  0  0  0  0  0  0  0  0  0
    2.2480   -5.2242    1.1584 H   0  0  0  0  0  0  0  0  0  0  0  0
    0.6964   -6.0485    0.8938 H   0  0  0  0  0  0  0  0  0  0  0  0
   -0.7927   -5.4801   -1.8158 H   0  0  0  0  0  0  0  0  0  0  0  0
   -3.2853   -5.3502   -2.0418 H   0  0  0  0  0  0  0  0  0  0  0  0
   -0.9495   -2.4598    1.2717 H   0  0  0  0  0  0  0  0  0  0  0  0
  1  2  1  0
  1 21  1  0
  1 22  1  0
  1 23  1  0
  2  3  2  0
  2  8  1  0
  3  4  1  0
  4  5  1  0
  4  6  1  0
  5 24  1  0
  5 25  1  0
  5 26  1  0
  6  7  1  0
  6  8  2  0
  7 27  1  0
  7 28  1  0
  7 29  1  0
  8  9  1  0
  9 10  1  0
  9 30  1  0
  9 31  1  0
 10 11  1  0
 10 32  1  0
 11 12  1  0
 11 13  1  0
 11 33  1  6
 12 34  1  0
 12 35  1  0
 12 36  1  0
 13 14  2  0
 13 20  1  0
 14 15  1  0
 14 37  1  0
 15 16  2  0
 15 38  1  0
 16 17  1  0
 16 18  1  0
 18 19  1  0
 18 20  2  0
 20 39  1  0
M  END

