
     RDKit          3D

 59 62  0  0  0  0  0  0  0  0999 V2000
    1.9401    0.0194    2.4476 C   0  0  0  0  0  0  0  0  0  0  0  0
    2.1232    0.5149    1.0140 C   0  0  0  0  0  0  0  0  0  0  0  0
    3.1929    1.6049    0.8542 C   0  0  0  0  0  0  0  0  0  0  0  0
    4.5273    1.1544    1.2357 N   0  0  0  0  0  0  0  0  0  0  0  0
    5.1834    0.2156    0.3456 C   0  0  0  0  0  0  0  0  0  0  0  0
    4.6994    0.0826   -0.8185 O   0  0  0  0  0  0  0  0  0  0  0  0
    6.3954   -0.3459    0.8246 C   0  0  0  0  0  0  0  0  0  0  0  0
    7.0868   -1.3465    0.0638 C   0  0  0  0  0  0  0  0  0  0  0  0
    8.2369   -1.9422    0.5444 C   0  0  0  0  0  0  0  0  0  0  0  0
    8.7807   -1.5601    1.7901 C   0  0  0  0  0  0  0  0  0  0  0  0
    8.1629   -0.5381    2.5349 C   0  0  0  0  0  0  0  0  0  0  0  0
    7.0023    0.0706    2.0677 C   0  0  0  0  0  0  0  0  0  0  0  0
    6.3804    1.1641    2.7402 N   0  0  0  0  0  0  0  0  0  0  0  0
    6.6295    1.6220    4.0208 C   0  0  0  0  0  0  0  0  0  0  0  0
    7.4147    1.1515    4.8198 O   0  0  0  0  0  0  0  0  0  0  0  0
    5.7551    2.8485    4.2591 C   0  0  0  0  0  0  0  0  0  0  0  0
    4.7264    2.8016    3.1320 C   0  0  0  0  0  0  0  0  0  0  0  0
    5.4163    1.9886    2.0021 C   0  0  2  0  0  0  0  0  0  0  0  0
    6.2369    2.9996    1.1028 C   0  0  0  0  0  0  0  0  0  0  0  0
    6.9979    3.8078    1.5872 O   0  0  0  0  0  0  0  0  0  0  0  0
    6.0025    2.9217   -0.2817 N   0  0  0  0  0  0  0  0  0  0  0  0
    6.6889    3.5647   -1.2848 C   0  0  0  0  0  0  0  0  0  0  0  0
    7.7027    4.4995   -1.0206 C   0  0  0  0  0  0  0  0  0  0  0  0
    8.4160    5.0847   -2.0617 C   0  0  0  0  0  0  0  0  0  0  0  0
    9.4008    5.9564   -1.9095 O   0  0  0  0  0  0  0  0  0  0  0  0
    9.8092    6.3507   -0.5998 C   0  0  0  0  0  0  0  0  0  0  0  0
    8.1046    4.7405   -3.4362 C   0  0  0  0  0  0  0  0  0  0  0  0
    8.8441    5.3397   -4.3558 O   0  0  0  0  0  0  0  0  0  0  0  0
    8.6498    5.0619   -5.7396 C   0  0  0  0  0  0  0  0  0  0  0  0
    7.0678    3.8302   -3.6883 C   0  0  0  0  0  0  0  0  0  0  0  0
    6.3383    3.2399   -2.6633 C   0  0  0  0  0  0  0  0  0  0  0  0
    5.2052    2.3141   -2.9729 C   0  0  0  0  0  0  0  0  0  0  0  0
    1.1901   -0.7861    2.4981 H   0  0  0  0  0  0  0  0  0  0  0  0
    1.5996    0.8278    3.1187 H   0  0  0  0  0  0  0  0  0  0  0  0
    2.8853   -0.3768    2.8494 H   0  0  0  0  0  0  0  0  0  0  0  0
    1.1701    0.9211    0.6289 H   0  0  0  0  0  0  0  0  0  0  0  0
    2.3954   -0.3205    0.3504 H   0  0  0  0  0  0  0  0  0  0  0  0
    2.9240    2.4736    1.4728 H   0  0  0  0  0  0  0  0  0  0  0  0
    3.1722    1.9415   -0.1997 H   0  0  0  0  0  0  0  0  0  0  0  0
    6.6451   -1.6442   -0.8885 H   0  0  0  0  0  0  0  0  0  0  0  0
    8.7259   -2.7247   -0.0439 H   0  0  0  0  0  0  0  0  0  0  0  0
    9.6812   -2.0411    2.1764 H   0  0  0  0  0  0  0  0  0  0  0  0
    8.5840   -0.2106    3.4827 H   0  0  0  0  0  0  0  0  0  0  0  0
    6.3937    3.7434    4.2094 H   0  0  0  0  0  0  0  0  0  0  0  0
    5.3172    2.8006    5.2664 H   0  0  0  0  0  0  0  0  0  0  0  0
    4.3861    3.7909    2.7960 H   0  0  0  0  0  0  0  0  0  0  0  0
    3.8471    2.2242    3.4474 H   0  0  0  0  0  0  0  0  0  0  0  0
    5.3964    2.1498   -0.5720 H   0  0  0  0  0  0  0  0  0  0  0  0
    7.9274    4.7273    0.0156 H   0  0  0  0  0  0  0  0  0  0  0  0
   10.6302    7.0621   -0.7431 H   0  0  0  0  0  0  0  0  0  0  0  0
   10.1620    5.4820   -0.0232 H   0  0  0  0  0  0  0  0  0  0  0  0
    8.9806    6.8382   -0.0631 H   0  0  0  0  0  0  0  0  0  0  0  0
    9.3950    5.6611   -6.2748 H   0  0  0  0  0  0  0  0  0  0  0  0
    7.6382    5.3571   -6.0601 H   0  0  0  0  0  0  0  0  0  0  0  0
    8.8117    3.9932   -5.9505 H   0  0  0  0  0  0  0  0  0  0  0  0
    6.8106    3.5774   -4.7158 H   0  0  0  0  0  0  0  0  0  0  0  0
    5.1436    2.1188   -4.0515 H   0  0  0  0  0  0  0  0  0  0  0  0
    4.2484    2.7643   -2.6552 H   0  0  0  0  0  0  0  0  0  0  0  0
    5.2685    1.3514   -2.4314 H   0  0  0  0  0  0  0  0  0  0  0  0
  1  2  1  0
  1 33  1  0
  1 34  1  0
  1 35  1  0
  2  3  1  0
  2 36  1  0
  2 37  1  0
  3  4  1  0
  3 38  1  0
  3 39  1  0
  4  5  1  0
  4 18  1  0
  5  6  2  0
  5  7  1  0
  7  8  1  0
  7 12  2  0
  8  9  2  0
  8 40  1  0
  9 10  1  0
  9 41  1  0
 10 11  2  0
 10 42  1  0
 11 12  1  0
 11 43  1  0
 12 13  1  0
 13 14  1  0
 13 18  1  0
 14 15  2  0
 14 16  1  0
 16 17  1  0
 16 44  1  0
 16 45  1  0
 17 18  1  0
 17 46  1  0
 17 47  1  0
 18 19  1  6
 19 20  2  0
 19 21  1  0
 21 22  1  0
 21 48  1  0
 22 23  2  0
 22 31  1  0
 23 24  1  0
 23 49  1  0
 24 25  1  0
 24 27  2  0
 25 26  1  0
 26 50  1  0
 26 51  1  0
 26 52  1  0
 27 28  1  0
 27 30  1  0
 28 29  1  0
 29 53  1  0
 29 54  1  0
 29 55  1  0
 30 31  2  0
 30 56  1  0
 31 32  1  0
 32 57  1  0
 32 58  1  0
 32 59  1  0
M  END

