
     RDKit          3D

 39 40  0  0  0  0  0  0  0  0999 V2000
    4.8435    0.5187    1.1900 C   0  0  0  0  0  0  0  0  0  0  0  0
    4.2398   -0.4223    0.3733 C   0  0  0  0  0  0  0  0  0  0  0  0
    3.8942   -0.2524   -1.0074 C   0  0  0  0  0  0  0  0  0  0  0  0
    4.1630    0.9583   -1.7114 C   0  0  0  0  0  0  0  0  0  0  0  0
    3.7759    1.1430   -3.0623 C   0  0  0  0  0  0  0  0  0  0  0  0
    3.1204    0.1322   -3.7968 C   0  0  0  0  0  0  0  0  0  0  0  0
    2.8578   -1.0802   -3.1458 C   0  0  0  0  0  0  0  0  0  0  0  0
    3.2528   -1.3101   -1.7945 C   0  0  0  0  0  0  0  0  0  0  0  0
    2.9634   -2.6278   -1.1873 C   0  0  0  0  0  0  0  0  0  0  0  0
    1.5780   -2.6354   -0.3967 C   0  0  1  0  0  0  0  0  0  0  0  0
    0.5031   -2.5660   -1.3130 O   0  0  0  0  0  0  0  0  0  0  0  0
    1.4552   -3.8218    0.5417 C   0  0  0  0  0  0  0  0  0  0  0  0
    1.7273   -5.1141    0.0578 C   0  0  0  0  0  0  0  0  0  0  0  0
    1.5774   -6.2423    0.8645 C   0  0  0  0  0  0  0  0  0  0  0  0
    1.1574   -6.0859    2.1876 C   0  0  0  0  0  0  0  0  0  0  0  0
    0.8880   -4.8078    2.6801 C   0  0  0  0  0  0  0  0  0  0  0  0
    1.0258   -3.6593    1.8833 C   0  0  0  0  0  0  0  0  0  0  0  0
    0.6554   -2.3087    2.4657 C   0  0  0  0  0  0  0  0  0  0  0  0
   -0.7297   -1.8136    2.0152 C   0  0  0  0  0  0  0  0  0  0  0  0
    5.0659    0.2824    2.2324 H   0  0  0  0  0  0  0  0  0  0  0  0
    5.1204    1.5167    0.8453 H   0  0  0  0  0  0  0  0  0  0  0  0
    4.0129   -1.3885    0.8301 H   0  0  0  0  0  0  0  0  0  0  0  0
    4.6781    1.7716   -1.2010 H   0  0  0  0  0  0  0  0  0  0  0  0
    3.9854    2.1048   -3.5390 H   0  0  0  0  0  0  0  0  0  0  0  0
    2.8188    0.2952   -4.8322 H   0  0  0  0  0  0  0  0  0  0  0  0
    2.3308   -1.8826   -3.6666 H   0  0  0  0  0  0  0  0  0  0  0  0
    3.7465   -2.9155   -0.4692 H   0  0  0  0  0  0  0  0  0  0  0  0
    2.8950   -3.4059   -1.9627 H   0  0  0  0  0  0  0  0  0  0  0  0
    1.5510   -1.7004    0.1726 H   0  0  0  0  0  0  0  0  0  0  0  0
    0.2113   -3.4681   -1.5060 H   0  0  0  0  0  0  0  0  0  0  0  0
    2.0737   -5.2447   -0.9712 H   0  0  0  0  0  0  0  0  0  0  0  0
    1.7973   -7.2354    0.4650 H   0  0  0  0  0  0  0  0  0  0  0  0
    1.0432   -6.9572    2.8376 H   0  0  0  0  0  0  0  0  0  0  0  0
    0.5591   -4.6908    3.7167 H   0  0  0  0  0  0  0  0  0  0  0  0
    1.4174   -1.5552    2.2067 H   0  0  0  0  0  0  0  0  0  0  0  0
    0.6738   -2.3860    3.5647 H   0  0  0  0  0  0  0  0  0  0  0  0
   -0.7900   -1.7286    0.9192 H   0  0  0  0  0  0  0  0  0  0  0  0
   -0.9517   -0.8255    2.4488 H   0  0  0  0  0  0  0  0  0  0  0  0
   -1.5195   -2.5111    2.3378 H   0  0  0  0  0  0  0  0  0  0  0  0
  1  2  2  0
  1 20  1  0
  1 21  1  0
  2  3  1  0
  2 22  1  0
  3  4  2  0
  3  8  1  0
  4  5  1  0
  4 23  1  0
  5  6  2  0
  5 24  1  0
  6  7  1  0
  6 25  1  0
  7  8  2  0
  7 26  1  0
  8  9  1  0
  9 10  1  0
  9 27  1  0
  9 28  1  0
 10 11  1  0
 10 12  1  0
 10 29  1  1
 11 30  1  0
 12 13  2  0
 12 17  1  0
 13 14  1  0
 13 31  1  0
 14 15  2  0
 14 32  1  0
 15 16  1  0
 15 33  1  0
 16 17  2  0
 16 34  1  0
 17 18  1  0
 18 19  1  0
 18 35  1  0
 18 36  1  0
 19 37  1  0
 19 38  1  0
 19 39  1  0
M  END

