
     RDKit          3D

 53 53  0  0  0  0  0  0  0  0999 V2000
    2.8404    6.5327    6.1128 C   0  0  0  0  0  0  0  0  0  0  0  0
    3.5395    5.1858    5.9226 C   0  0  0  0  0  0  0  0  0  0  0  0
    4.0615    4.9735    4.4978 C   0  0  0  0  0  0  0  0  0  0  0  0
    4.7528    3.6270    4.3253 C   0  0  0  0  0  0  0  0  0  0  0  0
    5.1581    3.4068    2.9604 O   0  0  0  0  0  0  0  0  0  0  0  0
    6.3568    3.8688    2.5807 C   0  0  0  0  0  0  0  0  0  0  0  0
    7.1294    4.4410    3.3165 O   0  0  0  0  0  0  0  0  0  0  0  0
    6.6190    3.5862    1.1179 C   0  0  0  0  0  0  0  0  0  0  0  0
    8.0399    3.9677    0.7223 C   0  0  1  0  0  0  0  0  0  0  0  0
    8.2769    3.6600   -0.6604 O   0  0  0  0  0  0  0  0  0  0  0  0
    8.6958    2.3940   -0.9420 C   0  0  0  0  0  0  0  0  0  0  0  0
    8.8426    1.5283   -0.1098 O   0  0  0  0  0  0  0  0  0  0  0  0
    8.9006    2.2949   -2.2909 N   0  0  0  0  0  0  0  0  0  0  0  0
    9.3176    1.1745   -3.0347 C   0  0  0  0  0  0  0  0  0  0  0  0
    9.6230   -0.0678   -2.4519 C   0  0  0  0  0  0  0  0  0  0  0  0
   10.0297   -1.1273   -3.2669 C   0  0  0  0  0  0  0  0  0  0  0  0
   10.1402   -0.9771   -4.6518 C   0  0  0  0  0  0  0  0  0  0  0  0
    9.8365    0.2602   -5.2276 C   0  0  0  0  0  0  0  0  0  0  0  0
    9.4287    1.3276   -4.4286 C   0  0  0  0  0  0  0  0  0  0  0  0
    8.2663    5.4787    0.8370 C   0  0  0  0  0  0  0  0  0  0  0  0
    7.4226    6.3033    0.5851 O   0  0  0  0  0  0  0  0  0  0  0  0
    9.5175    5.7485    1.2153 O   0  0  0  0  0  0  0  0  0  0  0  0
    9.8788    7.1336    1.4012 C   0  0  0  0  0  0  0  0  0  0  0  0
    9.4411    7.6636    2.7621 C   0  0  0  0  0  0  0  0  0  0  0  0
    9.9700    6.8615    3.9551 C   0  0  0  0  0  0  0  0  0  0  0  0
    9.5366    7.4412    5.3017 C   0  0  0  0  0  0  0  0  0  0  0  0
    2.4798    6.6566    7.1462 H   0  0  0  0  0  0  0  0  0  0  0  0
    1.9710    6.6309    5.4417 H   0  0  0  0  0  0  0  0  0  0  0  0
    3.5221    7.3712    5.8941 H   0  0  0  0  0  0  0  0  0  0  0  0
    2.8418    4.3689    6.1833 H   0  0  0  0  0  0  0  0  0  0  0  0
    4.3800    5.1035    6.6352 H   0  0  0  0  0  0  0  0  0  0  0  0
    4.7743    5.7744    4.2387 H   0  0  0  0  0  0  0  0  0  0  0  0
    3.2283    5.0409    3.7763 H   0  0  0  0  0  0  0  0  0  0  0  0
    4.0669    2.7973    4.5520 H   0  0  0  0  0  0  0  0  0  0  0  0
    5.6354    3.5517    4.9779 H   0  0  0  0  0  0  0  0  0  0  0  0
    5.8981    4.1631    0.5168 H   0  0  0  0  0  0  0  0  0  0  0  0
    6.4442    2.5180    0.9221 H   0  0  0  0  0  0  0  0  0  0  0  0
    8.7729    3.4348    1.3401 H   0  0  0  0  0  0  0  0  0  0  0  0
    8.7193    3.1452   -2.8125 H   0  0  0  0  0  0  0  0  0  0  0  0
    9.5398   -0.1897   -1.3740 H   0  0  0  0  0  0  0  0  0  0  0  0
   10.2647   -2.0887   -2.8024 H   0  0  0  0  0  0  0  0  0  0  0  0
   10.4599   -1.8143   -5.2765 H   0  0  0  0  0  0  0  0  0  0  0  0
    9.9164    0.3998   -6.3088 H   0  0  0  0  0  0  0  0  0  0  0  0
    9.1924    2.2928   -4.8867 H   0  0  0  0  0  0  0  0  0  0  0  0
    9.4362    7.7285    0.5886 H   0  0  0  0  0  0  0  0  0  0  0  0
   10.9744    7.1430    1.3036 H   0  0  0  0  0  0  0  0  0  0  0  0
    8.3394    7.6991    2.7922 H   0  0  0  0  0  0  0  0  0  0  0  0
    9.7861    8.7123    2.8259 H   0  0  0  0  0  0  0  0  0  0  0  0
   11.0738    6.8163    3.9062 H   0  0  0  0  0  0  0  0  0  0  0  0
    9.6108    5.8232    3.8705 H   0  0  0  0  0  0  0  0  0  0  0  0
    9.8962    8.4760    5.4344 H   0  0  0  0  0  0  0  0  0  0  0  0
    9.9269    6.8433    6.1407 H   0  0  0  0  0  0  0  0  0  0  0  0
    8.4376    7.4582    5.3903 H   0  0  0  0  0  0  0  0  0  0  0  0
  1  2  1  0
  1 27  1  0
  1 28  1  0
  1 29  1  0
  2  3  1  0
  2 30  1  0
  2 31  1  0
  3  4  1  0
  3 32  1  0
  3 33  1  0
  4  5  1  0
  4 34  1  0
  4 35  1  0
  5  6  1  0
  6  7  2  0
  6  8  1  0
  8  9  1  0
  8 36  1  0
  8 37  1  0
  9 10  1  0
  9 20  1  0
  9 38  1  1
 10 11  1  0
 11 12  2  0
 11 13  1  0
 13 14  1  0
 13 39  1  0
 14 15  2  0
 14 19  1  0
 15 16  1  0
 15 40  1  0
 16 17  2  0
 16 41  1  0
 17 18  1  0
 17 42  1  0
 18 19  2  0
 18 43  1  0
 19 44  1  0
 20 21  2  0
 20 22  1  0
 22 23  1  0
 23 24  1  0
 23 45  1  0
 23 46  1  0
 24 25  1  0
 24 47  1  0
 24 48  1  0
 25 26  1  0
 25 49  1  0
 25 50  1  0
 26 51  1  0
 26 52  1  0
 26 53  1  0
M  END

