
     RDKit          3D

 28 29  0  0  0  0  0  0  0  0999 V2000
    1.2052    0.1097    0.1679 C   0  0  0  0  0  0  0  0  0  0  0  0
    2.7170    0.0571    0.0733 C   0  0  0  0  0  0  0  0  0  0  0  0
    3.1897   -0.9586    0.9512 O   0  0  0  0  0  0  0  0  0  0  0  0
    4.5451   -1.2324    0.9449 C   0  0  1  0  0  0  0  0  0  0  0  0
    5.4106   -0.0039    1.5302 C   0  0  0  0  0  0  0  0  0  0  0  0
    5.2773    0.1362    2.7812 O   0  0  0  0  0  0  0  0  0  0  0  0
    6.2379    0.7554    0.6806 C   0  0  0  0  0  0  0  0  0  0  0  0
    6.4565    0.6621   -0.7597 C   0  0  0  0  0  0  0  0  0  0  0  0
    7.3512    1.6321   -1.0769 C   0  0  0  0  0  0  0  0  0  0  0  0
    7.7298    2.3401    0.0165 O   0  0  0  0  0  0  0  0  0  0  0  0
    7.0628    1.8203    1.0898 C   0  0  0  0  0  0  0  0  0  0  0  0
    4.8039   -2.4948    1.7238 C   0  0  1  0  0  0  0  0  0  0  0  0
    4.7031   -3.8283    1.0235 C   0  0  0  0  0  0  0  0  0  0  0  0
    6.0459   -3.3004    1.4546 C   0  0  0  0  0  0  0  0  0  0  0  0
    0.8109    0.8919   -0.4990 H   0  0  0  0  0  0  0  0  0  0  0  0
    0.8900    0.3391    1.1971 H   0  0  0  0  0  0  0  0  0  0  0  0
    0.7594   -0.8540   -0.1227 H   0  0  0  0  0  0  0  0  0  0  0  0
    3.1683    1.0251    0.3567 H   0  0  0  0  0  0  0  0  0  0  0  0
    3.0459   -0.1670   -0.9603 H   0  0  0  0  0  0  0  0  0  0  0  0
    4.9264   -1.3166   -0.0902 H   0  0  0  0  0  0  0  0  0  0  0  0
    6.0075   -0.0322   -1.4658 H   0  0  0  0  0  0  0  0  0  0  0  0
    7.8019    1.9300   -2.0207 H   0  0  0  0  0  0  0  0  0  0  0  0
    7.2551    2.2734    2.0560 H   0  0  0  0  0  0  0  0  0  0  0  0
    4.4549   -2.4394    2.7586 H   0  0  0  0  0  0  0  0  0  0  0  0
    4.4688   -3.8306   -0.0455 H   0  0  0  0  0  0  0  0  0  0  0  0
    4.2592   -4.6600    1.5777 H   0  0  0  0  0  0  0  0  0  0  0  0
    6.7311   -2.9406    0.6807 H   0  0  0  0  0  0  0  0  0  0  0  0
    6.5458   -3.7632    2.3091 H   0  0  0  0  0  0  0  0  0  0  0  0
  1  2  1  0
  1 15  1  0
  1 16  1  0
  1 17  1  0
  2  3  1  0
  2 18  1  0
  2 19  1  0
  3  4  1  0
  4  5  1  0
  4 12  1  0
  4 20  1  6
  5  6  2  0
  5  7  1  0
  7  8  1  0
  7 11  2  0
  8  9  2  0
  8 21  1  0
  9 10  1  0
  9 22  1  0
 10 11  1  0
 11 23  1  0
 12 13  1  0
 12 14  1  0
 12 24  1  1
 13 14  1  0
 13 25  1  0
 13 26  1  0
 14 27  1  0
 14 28  1  0
M  END

