
     RDKit          3D

 78 81  0  0  0  0  0  0  0  0999 V2000
   10.3011   -5.2843   -4.6445 C   0  0  0  0  0  0  0  0  0  0  0  0
    9.8842   -4.2099   -3.6389 C   0  0  0  0  0  0  0  0  0  0  0  0
    8.8832   -3.1602   -4.1987 C   0  0  1  0  0  0  0  0  0  0  0  0
    7.5057   -3.7698   -4.5442 C   0  0  0  0  0  0  0  0  0  0  0  0
    6.5261   -2.7945   -5.1984 C   0  0  0  0  0  0  0  0  0  0  0  0
    8.7807   -2.0032   -3.2328 C   0  0  0  0  0  0  0  0  0  0  0  0
    9.3494   -0.7426   -3.5349 C   0  0  0  0  0  0  0  0  0  0  0  0
    9.2997    0.3139   -2.6521 C   0  0  0  0  0  0  0  0  0  0  0  0
    8.6493    0.1822   -1.3750 C   0  0  0  0  0  0  0  0  0  0  0  0
    8.5911    1.2160   -0.5034 N   0  0  0  0  0  0  0  0  0  0  0  0
    9.4326    2.4231   -0.6596 C   0  0  0  0  0  0  0  0  0  0  0  0
    8.6658    3.6829   -1.0208 C   0  0  0  0  0  0  0  0  0  0  0  0
    8.8884    4.8543   -0.2842 C   0  0  0  0  0  0  0  0  0  0  0  0
    8.2404    6.0342   -0.6604 C   0  0  0  0  0  0  0  0  0  0  0  0
    7.3687    6.0477   -1.7483 C   0  0  0  0  0  0  0  0  0  0  0  0
    7.1220    4.8845   -2.5073 C   0  0  0  0  0  0  0  0  0  0  0  0
    6.2052    4.8936   -3.6714 C   0  0  0  0  0  0  0  0  0  0  0  0
    6.0851    6.0212   -4.5017 C   0  0  0  0  0  0  0  0  0  0  0  0
    5.2433    6.0384   -5.6139 C   0  0  0  0  0  0  0  0  0  0  0  0
    4.4675    4.9026   -5.9417 C   0  0  0  0  0  0  0  0  0  0  0  0
    3.6437    4.8036   -6.9717 O   0  0  0  0  0  0  0  0  0  0  0  0
    3.4682    5.9347   -7.9300 C   0  0  0  0  0  0  0  0  0  0  0  0
    2.5560    5.5815   -9.0332 C   0  0  0  0  0  0  0  0  0  0  0  0
    3.0316    4.9204  -10.2114 C   0  0  0  0  0  0  0  0  0  0  0  0
    2.1827    4.5417  -11.2232 C   0  0  0  0  0  0  0  0  0  0  0  0
    0.7664    4.7925  -11.1584 C   0  0  0  0  0  0  0  0  0  0  0  0
   -0.0636    4.3862  -12.2671 C   0  0  0  0  0  0  0  0  0  0  0  0
    0.3031    3.7409  -13.2455 O   0  0  0  0  0  0  0  0  0  0  0  0
   -1.4015    4.7721  -12.2165 O   0  0  0  0  0  0  0  0  0  0  0  0
    0.2907    5.4330   -9.9554 C   0  0  0  0  0  0  0  0  0  0  0  0
    1.1546    5.8041   -8.9450 C   0  0  0  0  0  0  0  0  0  0  0  0
    4.5746    3.7677   -5.1002 C   0  0  0  0  0  0  0  0  0  0  0  0
    5.4214    3.7666   -4.0035 C   0  0  0  0  0  0  0  0  0  0  0  0
    7.7939    3.7084   -2.1170 C   0  0  0  0  0  0  0  0  0  0  0  0
    7.7152    1.2712    0.7110 C   0  0  1  0  0  0  0  0  0  0  0  0
    6.2313    1.0327    0.4123 C   0  0  0  0  0  0  0  0  0  0  0  0
    8.2802    0.4447    1.8750 C   0  0  0  0  0  0  0  0  0  0  0  0
    8.0678   -1.0990   -1.0769 C   0  0  0  0  0  0  0  0  0  0  0  0
    8.1436   -2.1409   -1.9736 C   0  0  0  0  0  0  0  0  0  0  0  0
   11.0583   -5.9485   -4.2007 H   0  0  0  0  0  0  0  0  0  0  0  0
   10.7417   -4.8371   -5.5503 H   0  0  0  0  0  0  0  0  0  0  0  0
    9.4569   -5.9161   -4.9587 H   0  0  0  0  0  0  0  0  0  0  0  0
   10.7866   -3.6804   -3.2884 H   0  0  0  0  0  0  0  0  0  0  0  0
    9.4441   -4.6845   -2.7439 H   0  0  0  0  0  0  0  0  0  0  0  0
    9.3157   -2.7625   -5.1329 H   0  0  0  0  0  0  0  0  0  0  0  0
    7.0577   -4.2078   -3.6343 H   0  0  0  0  0  0  0  0  0  0  0  0
    7.6781   -4.6181   -5.2237 H   0  0  0  0  0  0  0  0  0  0  0  0
    6.2633   -1.9555   -4.5337 H   0  0  0  0  0  0  0  0  0  0  0  0
    5.5886   -3.3037   -5.4664 H   0  0  0  0  0  0  0  0  0  0  0  0
    6.9436   -2.3661   -6.1239 H   0  0  0  0  0  0  0  0  0  0  0  0
    9.8280   -0.5961   -4.5048 H   0  0  0  0  0  0  0  0  0  0  0  0
    9.7164    1.2691   -2.9607 H   0  0  0  0  0  0  0  0  0  0  0  0
   10.2290    2.2115   -1.3814 H   0  0  0  0  0  0  0  0  0  0  0  0
    9.9370    2.5642    0.3089 H   0  0  0  0  0  0  0  0  0  0  0  0
    9.5692    4.8506    0.5717 H   0  0  0  0  0  0  0  0  0  0  0  0
    8.4072    6.9502   -0.0885 H   0  0  0  0  0  0  0  0  0  0  0  0
    6.8488    6.9722   -2.0059 H   0  0  0  0  0  0  0  0  0  0  0  0
    6.6895    6.9094   -4.2985 H   0  0  0  0  0  0  0  0  0  0  0  0
    5.1989    6.9338   -6.2316 H   0  0  0  0  0  0  0  0  0  0  0  0
    4.4812    6.1784   -8.2940 H   0  0  0  0  0  0  0  0  0  0  0  0
    3.0905    6.7816   -7.3317 H   0  0  0  0  0  0  0  0  0  0  0  0
    4.1039    4.7171  -10.3073 H   0  0  0  0  0  0  0  0  0  0  0  0
    2.5574    4.0453  -12.1199 H   0  0  0  0  0  0  0  0  0  0  0  0
   -1.4990    5.4143  -11.5027 H   0  0  0  0  0  0  0  0  0  0  0  0
   -0.7800    5.6077   -9.8049 H   0  0  0  0  0  0  0  0  0  0  0  0
    0.7469    6.2800   -8.0460 H   0  0  0  0  0  0  0  0  0  0  0  0
    3.9581    2.9004   -5.3449 H   0  0  0  0  0  0  0  0  0  0  0  0
    5.4516    2.8777   -3.3672 H   0  0  0  0  0  0  0  0  0  0  0  0
    7.6368    2.8055   -2.7111 H   0  0  0  0  0  0  0  0  0  0  0  0
    7.7895    2.3254    1.0080 H   0  0  0  0  0  0  0  0  0  0  0  0
    5.9770   -0.0152    0.2056 H   0  0  0  0  0  0  0  0  0  0  0  0
    5.9012    1.6481   -0.4367 H   0  0  0  0  0  0  0  0  0  0  0  0
    5.6509    1.3430    1.2935 H   0  0  0  0  0  0  0  0  0  0  0  0
    8.1904   -0.6402    1.7238 H   0  0  0  0  0  0  0  0  0  0  0  0
    7.7249    0.6992    2.7894 H   0  0  0  0  0  0  0  0  0  0  0  0
    9.3413    0.6770    2.0533 H   0  0  0  0  0  0  0  0  0  0  0  0
    7.5878   -1.2674   -0.1193 H   0  0  0  0  0  0  0  0  0  0  0  0
    7.7024   -3.0993   -1.6970 H   0  0  0  0  0  0  0  0  0  0  0  0
  1  2  1  0
  1 40  1  0
  1 41  1  0
  1 42  1  0
  2  3  1  0
  2 43  1  0
  2 44  1  0
  3  4  1  0
  3  6  1  0
  3 45  1  1
  4  5  1  0
  4 46  1  0
  4 47  1  0
  5 48  1  0
  5 49  1  0
  5 50  1  0
  6  7  2  0
  6 39  1  0
  7  8  1  0
  7 51  1  0
  8  9  2  0
  8 52  1  0
  9 10  1  0
  9 38  1  0
 10 11  1  0
 10 35  1  0
 11 12  1  0
 11 53  1  0
 11 54  1  0
 12 13  2  0
 12 34  1  0
 13 14  1  0
 13 55  1  0
 14 15  2  0
 14 56  1  0
 15 16  1  0
 15 57  1  0
 16 17  1  0
 16 34  2  0
 17 18  2  0
 17 33  1  0
 18 19  1  0
 18 58  1  0
 19 20  2  0
 19 59  1  0
 20 21  1  0
 20 32  1  0
 21 22  1  0
 22 23  1  0
 22 60  1  0
 22 61  1  0
 23 24  2  0
 23 31  1  0
 24 25  1  0
 24 62  1  0
 25 26  2  0
 25 63  1  0
 26 27  1  0
 26 30  1  0
 27 28  2  0
 27 29  1  0
 29 64  1  0
 30 31  2  0
 30 65  1  0
 31 66  1  0
 32 33  2  0
 32 67  1  0
 33 68  1  0
 34 69  1  0
 35 36  1  0
 35 37  1  0
 35 70  1  1
 36 71  1  0
 36 72  1  0
 36 73  1  0
 37 74  1  0
 37 75  1  0
 37 76  1  0
 38 39  2  0
 38 77  1  0
 39 78  1  0
M  END

