
     RDKit          3D

 55 58  0  0  0  0  0  0  0  0999 V2000
    1.9590    0.7419    2.2360 C   0  0  0  0  0  0  0  0  0  0  0  0
    2.0132    0.4103    0.7388 C   0  0  1  0  0  0  0  0  0  0  0  0
    0.6739    0.2478    0.1806 N   0  0  0  0  0  0  0  0  0  0  0  0
    0.0237   -0.9300    0.0223 C   0  0  0  0  0  0  0  0  0  0  0  0
   -1.2041   -0.8599   -0.5437 N   0  0  0  0  0  0  0  0  0  0  0  0
   -1.8087   -2.0332   -0.6736 C   0  0  0  0  0  0  0  0  0  0  0  0
   -1.3340   -3.2232   -0.3141 N   0  0  0  0  0  0  0  0  0  0  0  0
   -0.1035   -3.1767    0.2356 C   0  0  0  0  0  0  0  0  0  0  0  0
    0.4471   -4.3534    0.6128 N   0  0  0  0  0  0  0  0  0  0  0  0
    0.6157   -2.0610    0.4307 N   0  0  0  0  0  0  0  0  0  0  0  0
    2.7650    1.4284   -0.1182 C   0  0  0  0  0  0  0  0  0  0  0  0
    2.8671    2.7482    0.2608 C   0  0  0  0  0  0  0  0  0  0  0  0
    3.3557    3.7413   -0.6349 C   0  0  0  0  0  0  0  0  0  0  0  0
    3.4688    5.1123   -0.2907 C   0  0  0  0  0  0  0  0  0  0  0  0
    3.9006    6.0198   -1.2380 C   0  0  0  0  0  0  0  0  0  0  0  0
    4.0444    7.7138   -0.8253 Cl  0  0  0  0  0  0  0  0  0  0  0  0
    4.2311    5.6062   -2.5525 C   0  0  0  0  0  0  0  0  0  0  0  0
    4.1267    4.2749   -2.8997 C   0  0  0  0  0  0  0  0  0  0  0  0
    3.6954    3.3070   -1.9524 C   0  0  0  0  0  0  0  0  0  0  0  0
    3.6445    1.9971   -2.3082 N   0  0  0  0  0  0  0  0  0  0  0  0
    3.2392    1.0878   -1.4482 C   0  0  0  0  0  0  0  0  0  0  0  0
    3.2235   -0.2525   -1.8744 N   0  0  0  0  0  0  0  0  0  0  0  0
    4.1820   -1.1632   -1.2311 C   0  0  0  0  0  0  0  0  0  0  0  0
    3.8147   -2.6218   -1.5300 C   0  0  0  0  0  0  0  0  0  0  0  0
    3.7040   -2.9014   -2.9629 N   0  0  0  0  0  0  0  0  0  0  0  0
    4.9731   -3.1581   -3.6491 C   0  0  0  0  0  0  0  0  0  0  0  0
    5.3913   -4.6172   -3.4355 C   0  0  0  0  0  0  0  0  0  0  0  0
    4.3335   -5.4817   -3.7538 O   0  0  0  0  0  0  0  0  0  0  0  0
    2.8073   -1.9347   -3.5971 C   0  0  0  0  0  0  0  0  0  0  0  0
    3.1821   -0.4743   -3.3222 C   0  0  0  0  0  0  0  0  0  0  0  0
    1.4747   -0.0885    2.7703 H   0  0  0  0  0  0  0  0  0  0  0  0
    1.3724    1.6518    2.4377 H   0  0  0  0  0  0  0  0  0  0  0  0
    2.9697    0.8796    2.6517 H   0  0  0  0  0  0  0  0  0  0  0  0
    2.4790   -0.5759    0.6440 H   0  0  0  0  0  0  0  0  0  0  0  0
    0.1648    1.0648   -0.1378 H   0  0  0  0  0  0  0  0  0  0  0  0
   -2.8094   -2.0222   -1.1269 H   0  0  0  0  0  0  0  0  0  0  0  0
   -0.0886   -5.2025    0.4990 H   0  0  0  0  0  0  0  0  0  0  0  0
    1.3451   -4.3629    1.0747 H   0  0  0  0  0  0  0  0  0  0  0  0
    2.5281    3.0665    1.2491 H   0  0  0  0  0  0  0  0  0  0  0  0
    3.2106    5.4477    0.7158 H   0  0  0  0  0  0  0  0  0  0  0  0
    4.5671    6.3508   -3.2761 H   0  0  0  0  0  0  0  0  0  0  0  0
    4.3811    3.9296   -3.9036 H   0  0  0  0  0  0  0  0  0  0  0  0
    4.1981   -0.9979   -0.1452 H   0  0  0  0  0  0  0  0  0  0  0  0
    5.2084   -0.9444   -1.5960 H   0  0  0  0  0  0  0  0  0  0  0  0
    2.8462   -2.8405   -1.0502 H   0  0  0  0  0  0  0  0  0  0  0  0
    4.5659   -3.2910   -1.0822 H   0  0  0  0  0  0  0  0  0  0  0  0
    5.7959   -2.4764   -3.3492 H   0  0  0  0  0  0  0  0  0  0  0  0
    4.8053   -3.0033   -4.7268 H   0  0  0  0  0  0  0  0  0  0  0  0
    5.7395   -4.7611   -2.3884 H   0  0  0  0  0  0  0  0  0  0  0  0
    6.2523   -4.8529   -4.0844 H   0  0  0  0  0  0  0  0  0  0  0  0
    3.5420   -5.0040   -3.4456 H   0  0  0  0  0  0  0  0  0  0  0  0
    1.7866   -2.1105   -3.2147 H   0  0  0  0  0  0  0  0  0  0  0  0
    2.7884   -2.1187   -4.6825 H   0  0  0  0  0  0  0  0  0  0  0  0
    2.4347    0.2007   -3.7625 H   0  0  0  0  0  0  0  0  0  0  0  0
    4.1522   -0.2217   -3.7949 H   0  0  0  0  0  0  0  0  0  0  0  0
  1  2  1  0
  1 31  1  0
  1 32  1  0
  1 33  1  0
  2  3  1  0
  2 11  1  0
  2 34  1  6
  3  4  1  0
  3 35  1  0
  4  5  2  0
  4 10  1  0
  5  6  1  0
  6  7  2  0
  6 36  1  0
  7  8  1  0
  8  9  1  0
  8 10  2  0
  9 37  1  0
  9 38  1  0
 11 12  2  0
 11 21  1  0
 12 13  1  0
 12 39  1  0
 13 14  2  0
 13 19  1  0
 14 15  1  0
 14 40  1  0
 15 16  1  0
 15 17  2  0
 17 18  1  0
 17 41  1  0
 18 19  2  0
 18 42  1  0
 19 20  1  0
 20 21  2  0
 21 22  1  0
 22 23  1  0
 22 30  1  0
 23 24  1  0
 23 43  1  0
 23 44  1  0
 24 25  1  0
 24 45  1  0
 24 46  1  0
 25 26  1  0
 25 29  1  0
 26 27  1  0
 26 47  1  0
 26 48  1  0
 27 28  1  0
 27 49  1  0
 27 50  1  0
 28 51  1  0
 29 30  1  0
 29 52  1  0
 29 53  1  0
 30 54  1  0
 30 55  1  0
M  END

