
     RDKit          3D

 56 59  0  0  0  0  0  0  0  0999 V2000
    1.2137   -0.1653    0.4171 C   0  0  0  0  0  0  0  0  0  0  0  0
    2.6760   -0.1054    0.0515 C   0  0  0  0  0  0  0  0  0  0  0  0
    3.3492    1.1186   -0.0844 C   0  0  0  0  0  0  0  0  0  0  0  0
    4.6990    1.1717   -0.4298 C   0  0  0  0  0  0  0  0  0  0  0  0
    5.4311   -0.0128   -0.6536 C   0  0  0  0  0  0  0  0  0  0  0  0
    6.8129    0.0335   -1.0086 C   0  0  0  0  0  0  0  0  0  0  0  0
    7.9944    0.0780   -1.3138 C   0  0  0  0  0  0  0  0  0  0  0  0
    9.3743    0.1394   -1.6701 C   0  0  0  0  0  0  0  0  0  0  0  0
   10.0139    1.3900   -1.8042 C   0  0  0  0  0  0  0  0  0  0  0  0
   11.3566    1.4784   -2.1526 C   0  0  0  0  0  0  0  0  0  0  0  0
   12.1192    0.3168   -2.3778 C   0  0  0  0  0  0  0  0  0  0  0  0
   13.5545    0.3958   -2.7484 C   0  0  0  0  0  0  0  0  0  0  0  0
   14.4750   -0.5798   -2.3050 C   0  0  0  0  0  0  0  0  0  0  0  0
   15.8170   -0.4995   -2.6532 C   0  0  0  0  0  0  0  0  0  0  0  0
   16.3008    0.5522   -3.4597 C   0  0  0  0  0  0  0  0  0  0  0  0
   17.6680    0.6652   -3.8418 C   0  0  0  0  0  0  0  0  0  0  0  0
   18.8319    0.7978   -4.1930 C   0  0  0  0  0  0  0  0  0  0  0  0
   20.1992    0.9199   -4.5840 C   0  0  0  0  0  0  0  0  0  0  0  0
   21.1561   -0.0270   -4.1630 C   0  0  0  0  0  0  0  0  0  0  0  0
   22.4912    0.0947   -4.5454 C   0  0  0  0  0  0  0  0  0  0  0  0
   22.9273    1.1541   -5.3562 C   0  0  0  0  0  0  0  0  0  0  0  0
   24.3703    1.2849   -5.7758 C   0  0  0  0  0  0  0  0  0  0  0  0
   21.9705    2.0963   -5.7737 C   0  0  0  0  0  0  0  0  0  0  0  0
   20.6346    1.9880   -5.3999 C   0  0  0  0  0  0  0  0  0  0  0  0
   15.3775    1.5346   -3.9062 C   0  0  0  0  0  0  0  0  0  0  0  0
   15.7680    2.5632   -4.6873 O   0  0  0  0  0  0  0  0  0  0  0  0
   14.0296    1.4472   -3.5485 C   0  0  0  0  0  0  0  0  0  0  0  0
   11.4740   -0.9274   -2.2404 C   0  0  0  0  0  0  0  0  0  0  0  0
   10.1254   -1.0462   -1.8962 C   0  0  0  0  0  0  0  0  0  0  0  0
    9.4750   -2.3998   -1.7752 C   0  0  0  0  0  0  0  0  0  0  0  0
    4.7566   -1.2468   -0.5161 C   0  0  0  0  0  0  0  0  0  0  0  0
    3.4092   -1.2849   -0.1710 C   0  0  0  0  0  0  0  0  0  0  0  0
    0.8065    0.8350    0.6254 H   0  0  0  0  0  0  0  0  0  0  0  0
    1.0484   -0.7909    1.3100 H   0  0  0  0  0  0  0  0  0  0  0  0
    0.6160   -0.6076   -0.3982 H   0  0  0  0  0  0  0  0  0  0  0  0
    2.8044    2.0519    0.0841 H   0  0  0  0  0  0  0  0  0  0  0  0
    5.2017    2.1359   -0.5296 H   0  0  0  0  0  0  0  0  0  0  0  0
    9.4364    2.2986   -1.6212 H   0  0  0  0  0  0  0  0  0  0  0  0
   11.8270    2.4611   -2.2249 H   0  0  0  0  0  0  0  0  0  0  0  0
   14.1375   -1.3904   -1.6572 H   0  0  0  0  0  0  0  0  0  0  0  0
   16.5233   -1.2521   -2.2970 H   0  0  0  0  0  0  0  0  0  0  0  0
   20.8407   -0.8600   -3.5313 H   0  0  0  0  0  0  0  0  0  0  0  0
   23.2134   -0.6528   -4.2051 H   0  0  0  0  0  0  0  0  0  0  0  0
   24.9969    0.5028   -5.3226 H   0  0  0  0  0  0  0  0  0  0  0  0
   24.7858    2.2634   -5.4826 H   0  0  0  0  0  0  0  0  0  0  0  0
   24.4766    1.2076   -6.8712 H   0  0  0  0  0  0  0  0  0  0  0  0
   22.2812    2.9336   -6.4057 H   0  0  0  0  0  0  0  0  0  0  0  0
   19.9116    2.7339   -5.7372 H   0  0  0  0  0  0  0  0  0  0  0  0
   16.7212    2.4798   -4.8541 H   0  0  0  0  0  0  0  0  0  0  0  0
   13.3532    2.2093   -3.9378 H   0  0  0  0  0  0  0  0  0  0  0  0
   12.0396   -1.8415   -2.4367 H   0  0  0  0  0  0  0  0  0  0  0  0
   10.1911   -3.2078   -1.9832 H   0  0  0  0  0  0  0  0  0  0  0  0
    8.6290   -2.4995   -2.4751 H   0  0  0  0  0  0  0  0  0  0  0  0
    9.0630   -2.5546   -0.7644 H   0  0  0  0  0  0  0  0  0  0  0  0
    5.3063   -2.1754   -0.6841 H   0  0  0  0  0  0  0  0  0  0  0  0
    2.9110   -2.2538   -0.0706 H   0  0  0  0  0  0  0  0  0  0  0  0
  1  2  1  0
  1 33  1  0
  1 34  1  0
  1 35  1  0
  2  3  2  0
  2 32  1  0
  3  4  1  0
  3 36  1  0
  4  5  2  0
  4 37  1  0
  5  6  1  0
  5 31  1  0
  6  7  3  0
  7  8  1  0
  8  9  2  0
  8 29  1  0
  9 10  1  0
  9 38  1  0
 10 11  2  0
 10 39  1  0
 11 12  1  0
 11 28  1  0
 12 13  2  0
 12 27  1  0
 13 14  1  0
 13 40  1  0
 14 15  2  0
 14 41  1  0
 15 16  1  0
 15 25  1  0
 16 17  3  0
 17 18  1  0
 18 19  2  0
 18 24  1  0
 19 20  1  0
 19 42  1  0
 20 21  2  0
 20 43  1  0
 21 22  1  0
 21 23  1  0
 22 44  1  0
 22 45  1  0
 22 46  1  0
 23 24  2  0
 23 47  1  0
 24 48  1  0
 25 26  1  0
 25 27  2  0
 26 49  1  0
 27 50  1  0
 28 29  2  0
 28 51  1  0
 29 30  1  0
 30 52  1  0
 30 53  1  0
 30 54  1  0
 31 32  2  0
 31 55  1  0
 32 56  1  0
M  END

