
     RDKit          3D

 45 48  0  0  0  0  0  0  0  0999 V2000
    4.8195   -2.3716   -1.2283 C   0  0  0  0  0  0  0  0  0  0  0  0
    4.1687   -3.5716   -0.6853 C   0  0  0  0  0  0  0  0  0  0  0  0
    4.4909   -4.8357   -1.0448 N   0  0  0  0  0  0  0  0  0  0  0  0
    3.7314   -5.6347   -0.3184 C   0  0  0  0  0  0  0  0  0  0  0  0
    2.8771   -4.8499    0.5415 C   0  0  0  0  0  0  0  0  0  0  0  0
    3.1611   -3.5702    0.2893 N   0  0  0  0  0  0  0  0  0  0  0  0
    2.5073   -2.3942    0.9239 C   0  0  0  0  0  0  0  0  0  0  0  0
    1.1718   -2.0106    0.2490 C   0  0  1  0  0  0  0  0  0  0  0  0
    0.0569   -3.0718    0.4300 C   0  0  0  0  0  0  0  0  0  0  0  0
   -1.2184   -2.2354    0.5890 C   0  0  0  0  0  0  0  0  0  0  0  0
   -0.7107   -1.0457    1.3994 C   0  0  0  0  0  0  0  0  0  0  0  0
    0.6048   -0.7953    0.8184 N   0  0  0  0  0  0  0  0  0  0  0  0
    1.3617    0.3097    1.3777 C   0  0  0  0  0  0  0  0  0  0  0  0
    0.9883    0.7343    2.4864 O   0  0  0  0  0  0  0  0  0  0  0  0
    2.4469    0.8435    0.5927 C   0  0  0  0  0  0  0  0  0  0  0  0
    3.3247    1.7790    1.2376 C   0  0  0  0  0  0  0  0  0  0  0  0
    4.4338    2.3297    0.6274 C   0  0  0  0  0  0  0  0  0  0  0  0
    4.7058    1.9196   -0.7112 C   0  0  0  0  0  0  0  0  0  0  0  0
    3.8612    1.0235   -1.4038 C   0  0  0  0  0  0  0  0  0  0  0  0
    2.7013    0.5041   -0.7956 C   0  0  0  0  0  0  0  0  0  0  0  0
    4.3814    0.7781   -2.6696 N   0  0  0  0  0  0  0  0  0  0  0  0
    5.4735    1.5134   -2.7435 C   0  0  0  0  0  0  0  0  0  0  0  0
    5.7291    2.2245   -1.5966 N   0  0  0  0  0  0  0  0  0  0  0  0
    6.8196    3.1389   -1.3660 C   0  0  0  0  0  0  0  0  0  0  0  0
    5.7309   -2.6724   -1.7568 H   0  0  0  0  0  0  0  0  0  0  0  0
    5.0401   -1.6373   -0.4438 H   0  0  0  0  0  0  0  0  0  0  0  0
    4.1637   -1.8367   -1.9366 H   0  0  0  0  0  0  0  0  0  0  0  0
    3.7662   -6.7217   -0.3835 H   0  0  0  0  0  0  0  0  0  0  0  0
    2.1316   -5.1585    1.2684 H   0  0  0  0  0  0  0  0  0  0  0  0
    3.2062   -1.5550    0.8566 H   0  0  0  0  0  0  0  0  0  0  0  0
    2.3619   -2.6374    1.9853 H   0  0  0  0  0  0  0  0  0  0  0  0
    1.3997   -1.8913   -0.8288 H   0  0  0  0  0  0  0  0  0  0  0  0
    0.2202   -3.6403    1.3640 H   0  0  0  0  0  0  0  0  0  0  0  0
    0.0092   -3.7926   -0.4019 H   0  0  0  0  0  0  0  0  0  0  0  0
   -2.0331   -2.7886    1.0809 H   0  0  0  0  0  0  0  0  0  0  0  0
   -1.5794   -1.9020   -0.3976 H   0  0  0  0  0  0  0  0  0  0  0  0
   -0.6597   -1.2828    2.4809 H   0  0  0  0  0  0  0  0  0  0  0  0
   -1.3464   -0.1520    1.3092 H   0  0  0  0  0  0  0  0  0  0  0  0
    3.0719    2.0499    2.2652 H   0  0  0  0  0  0  0  0  0  0  0  0
    5.0693    3.0452    1.1542 H   0  0  0  0  0  0  0  0  0  0  0  0
    1.9703   -0.0318   -1.3976 H   0  0  0  0  0  0  0  0  0  0  0  0
    6.1396    1.5813   -3.6054 H   0  0  0  0  0  0  0  0  0  0  0  0
    7.4735    3.1587   -2.2496 H   0  0  0  0  0  0  0  0  0  0  0  0
    7.4214    2.8318   -0.4937 H   0  0  0  0  0  0  0  0  0  0  0  0
    6.4524    4.1629   -1.1818 H   0  0  0  0  0  0  0  0  0  0  0  0
  1  2  1  0
  1 25  1  0
  1 26  1  0
  1 27  1  0
  2  3  2  0
  2  6  1  0
  3  4  1  0
  4  5  2  0
  4 28  1  0
  5  6  1  0
  5 29  1  0
  6  7  1  0
  7  8  1  0
  7 30  1  0
  7 31  1  0
  8  9  1  0
  8 12  1  0
  8 32  1  6
  9 10  1  0
  9 33  1  0
  9 34  1  0
 10 11  1  0
 10 35  1  0
 10 36  1  0
 11 12  1  0
 11 37  1  0
 11 38  1  0
 12 13  1  0
 13 14  2  0
 13 15  1  0
 15 16  2  0
 15 20  1  0
 16 17  1  0
 16 39  1  0
 17 18  2  0
 17 40  1  0
 18 19  1  0
 18 23  1  0
 19 20  2  0
 19 21  1  0
 20 41  1  0
 21 22  2  0
 22 23  1  0
 22 42  1  0
 23 24  1  0
 24 43  1  0
 24 44  1  0
 24 45  1  0
M  END

