
     RDKit          3D

 53 56  0  0  0  0  0  0  0  0999 V2000
    2.7357    3.9122    2.1344 C   0  0  0  0  0  0  0  0  0  0  0  0
    3.8562    3.0487    2.3184 O   0  0  0  0  0  0  0  0  0  0  0  0
    3.6567    1.7278    2.4508 C   0  0  0  0  0  0  0  0  0  0  0  0
    2.4365    1.0739    2.1963 C   0  0  0  0  0  0  0  0  0  0  0  0
    2.3413   -0.3047    2.3926 C   0  0  0  0  0  0  0  0  0  0  0  0
    3.4319   -1.0506    2.8499 C   0  0  0  0  0  0  0  0  0  0  0  0
    4.6560   -0.4045    3.0975 C   0  0  0  0  0  0  0  0  0  0  0  0
    5.8220   -1.1366    3.7533 C   0  0  1  0  0  0  0  0  0  0  0  0
    5.8140   -1.0213    5.2984 C   0  0  1  0  0  0  0  0  0  0  0  0
    4.4923   -1.0405    5.8486 N   0  0  0  0  0  0  0  0  0  0  0  0
    4.1780   -0.8775    7.2531 C   0  0  0  0  0  0  0  0  0  0  0  0
    2.8171   -0.2546    7.4962 C   0  0  0  0  0  0  0  0  0  0  0  0
    2.0723   -0.6933    8.6099 C   0  0  0  0  0  0  0  0  0  0  0  0
    0.8665    0.0019    8.9203 C   0  0  0  0  0  0  0  0  0  0  0  0
    0.4076    1.0311    8.1287 C   0  0  0  0  0  0  0  0  0  0  0  0
    1.1048    1.4378    6.9394 C   0  0  0  0  0  0  0  0  0  0  0  0
    0.5472    2.4611    6.0935 C   0  0  0  0  0  0  0  0  0  0  0  0
   -0.4137    3.1804    6.3360 O   0  0  0  0  0  0  0  0  0  0  0  0
    1.1969    2.6261    4.8501 O   0  0  0  0  0  0  0  0  0  0  0  0
    2.3709    0.7861    6.6891 C   0  0  0  0  0  0  0  0  0  0  0  0
    6.6764   -2.2305    5.7443 C   0  0  0  0  0  0  0  0  0  0  0  0
    6.3587   -3.3071    4.7031 C   0  0  0  0  0  0  0  0  0  0  0  0
    5.8730   -2.5797    3.5149 N   0  0  0  0  0  0  0  0  0  0  0  0
    6.4430   -3.0043    2.2665 C   0  0  1  0  0  0  0  0  0  0  0  0
    5.9985   -4.3093    1.6582 C   0  0  0  0  0  0  0  0  0  0  0  0
    5.6428   -3.0067    0.9902 C   0  0  0  0  0  0  0  0  0  0  0  0
    4.7626    0.9717    2.8871 C   0  0  0  0  0  0  0  0  0  0  0  0
    3.1369    4.9334    2.1547 H   0  0  0  0  0  0  0  0  0  0  0  0
    2.0056    3.7821    2.9497 H   0  0  0  0  0  0  0  0  0  0  0  0
    2.2541    3.7391    1.1562 H   0  0  0  0  0  0  0  0  0  0  0  0
    1.5609    1.6343    1.8719 H   0  0  0  0  0  0  0  0  0  0  0  0
    1.3890   -0.8037    2.1972 H   0  0  0  0  0  0  0  0  0  0  0  0
    3.3417   -2.1266    3.0080 H   0  0  0  0  0  0  0  0  0  0  0  0
    6.7623   -0.6465    3.4221 H   0  0  0  0  0  0  0  0  0  0  0  0
    6.2786   -0.0737    5.6281 H   0  0  0  0  0  0  0  0  0  0  0  0
    3.7068   -0.9699    5.1926 H   0  0  0  0  0  0  0  0  0  0  0  0
    5.0093   -0.3128    7.7123 H   0  0  0  0  0  0  0  0  0  0  0  0
    4.2261   -1.8891    7.7043 H   0  0  0  0  0  0  0  0  0  0  0  0
    2.4146   -1.5220    9.2326 H   0  0  0  0  0  0  0  0  0  0  0  0
    0.2970   -0.2905    9.8073 H   0  0  0  0  0  0  0  0  0  0  0  0
   -0.5125    1.5648    8.3763 H   0  0  0  0  0  0  0  0  0  0  0  0
    1.6538    1.7983    4.6537 H   0  0  0  0  0  0  0  0  0  0  0  0
    3.0217    1.2000    5.9141 H   0  0  0  0  0  0  0  0  0  0  0  0
    6.4857   -2.5357    6.7820 H   0  0  0  0  0  0  0  0  0  0  0  0
    7.7289   -1.9229    5.6738 H   0  0  0  0  0  0  0  0  0  0  0  0
    5.6021   -4.0285    5.0576 H   0  0  0  0  0  0  0  0  0  0  0  0
    7.2633   -3.8901    4.4628 H   0  0  0  0  0  0  0  0  0  0  0  0
    7.5148   -2.7624    2.1550 H   0  0  0  0  0  0  0  0  0  0  0  0
    5.1934   -4.8463    2.1673 H   0  0  0  0  0  0  0  0  0  0  0  0
    6.7578   -4.9512    1.2038 H   0  0  0  0  0  0  0  0  0  0  0  0
    4.6044   -2.6767    1.0327 H   0  0  0  0  0  0  0  0  0  0  0  0
    6.1684   -2.7286    0.0729 H   0  0  0  0  0  0  0  0  0  0  0  0
    5.6967    1.5064    3.0781 H   0  0  0  0  0  0  0  0  0  0  0  0
  1  2  1  0
  1 28  1  0
  1 29  1  0
  1 30  1  0
  2  3  1  0
  3  4  2  0
  3 27  1  0
  4  5  1  0
  4 31  1  0
  5  6  2  0
  5 32  1  0
  6  7  1  0
  6 33  1  0
  7  8  1  0
  7 27  2  0
  8  9  1  0
  8 23  1  0
  8 34  1  6
  9 10  1  0
  9 21  1  0
  9 35  1  6
 10 11  1  0
 10 36  1  0
 11 12  1  0
 11 37  1  0
 11 38  1  0
 12 13  2  0
 12 20  1  0
 13 14  1  0
 13 39  1  0
 14 15  2  0
 14 40  1  0
 15 16  1  0
 15 41  1  0
 16 17  1  0
 16 20  2  0
 17 18  2  0
 17 19  1  0
 19 42  1  0
 20 43  1  0
 21 22  1  0
 21 44  1  0
 21 45  1  0
 22 23  1  0
 22 46  1  0
 22 47  1  0
 23 24  1  0
 24 25  1  0
 24 26  1  0
 24 48  1  6
 25 26  1  0
 25 49  1  0
 25 50  1  0
 26 51  1  0
 26 52  1  0
 27 53  1  0
M  END

