
     RDKit          3D

 39 41  0  0  0  0  0  0  0  0999 V2000
    1.0137   -0.0977   -0.1910 C   0  0  0  0  0  0  0  0  0  0  0  0
    2.4874   -0.2121    0.1184 C   0  0  0  0  0  0  0  0  0  0  0  0
    3.1209    0.8222    0.8337 C   0  0  0  0  0  0  0  0  0  0  0  0
    4.4892    0.7968    1.0389 C   0  0  0  0  0  0  0  0  0  0  0  0
    5.2499   -0.3049    0.6209 C   0  0  0  0  0  0  0  0  0  0  0  0
    6.7222   -0.2469    0.7658 C   0  0  0  0  0  0  0  0  0  0  0  0
    7.2926    0.6704    1.3437 O   0  0  0  0  0  0  0  0  0  0  0  0
    7.4562   -1.3426    0.0964 C   0  0  0  0  0  0  0  0  0  0  0  0
    8.8566   -1.2658   -0.0155 C   0  0  0  0  0  0  0  0  0  0  0  0
    9.5835   -2.2897   -0.6048 C   0  0  0  0  0  0  0  0  0  0  0  0
    8.9003   -3.4185   -1.0871 C   0  0  0  0  0  0  0  0  0  0  0  0
    7.5175   -3.5166   -0.9828 C   0  0  0  0  0  0  0  0  0  0  0  0
    6.7643   -2.4730   -0.3981 C   0  0  0  0  0  0  0  0  0  0  0  0
    5.3665   -2.5662   -0.2965 N   0  0  0  0  0  0  0  0  0  0  0  0
    4.8138   -3.8860    0.0574 C   0  0  0  0  0  0  0  0  0  0  0  0
    5.3002   -4.3930    1.4272 C   0  0  0  0  0  0  0  0  0  0  0  0
    4.6546   -5.7252    1.7763 C   0  0  0  0  0  0  0  0  0  0  0  0
    5.2726   -6.4189    3.5117 Br  0  0  0  0  0  0  0  0  0  0  0  0
    4.6132   -1.4103    0.0048 C   0  0  0  0  0  0  0  0  0  0  0  0
    3.2338   -1.3172   -0.3405 C   0  0  0  0  0  0  0  0  0  0  0  0
    2.5746   -2.2999   -1.2848 C   0  0  0  0  0  0  0  0  0  0  0  0
    0.5638    0.7493    0.3461 H   0  0  0  0  0  0  0  0  0  0  0  0
    0.4600   -1.0089    0.0880 H   0  0  0  0  0  0  0  0  0  0  0  0
    0.8349    0.0628   -1.2687 H   0  0  0  0  0  0  0  0  0  0  0  0
    2.5281    1.6710    1.1842 H   0  0  0  0  0  0  0  0  0  0  0  0
    5.0204    1.6192    1.5220 H   0  0  0  0  0  0  0  0  0  0  0  0
    9.3379   -0.3730    0.3891 H   0  0  0  0  0  0  0  0  0  0  0  0
   10.6703   -2.2239   -0.6908 H   0  0  0  0  0  0  0  0  0  0  0  0
    9.4563   -4.2328   -1.5592 H   0  0  0  0  0  0  0  0  0  0  0  0
    7.0159   -4.3994   -1.3798 H   0  0  0  0  0  0  0  0  0  0  0  0
    5.0508   -4.6181   -0.7308 H   0  0  0  0  0  0  0  0  0  0  0  0
    3.7239   -3.8088    0.0792 H   0  0  0  0  0  0  0  0  0  0  0  0
    5.0536   -3.6452    2.1982 H   0  0  0  0  0  0  0  0  0  0  0  0
    6.3951   -4.5033    1.4257 H   0  0  0  0  0  0  0  0  0  0  0  0
    4.8964   -6.5082    1.0444 H   0  0  0  0  0  0  0  0  0  0  0  0
    3.5620   -5.6501    1.8627 H   0  0  0  0  0  0  0  0  0  0  0  0
    3.3166   -2.8553   -1.8736 H   0  0  0  0  0  0  0  0  0  0  0  0
    1.9320   -1.7632   -1.9985 H   0  0  0  0  0  0  0  0  0  0  0  0
    1.9236   -3.0338   -0.7768 H   0  0  0  0  0  0  0  0  0  0  0  0
  1  2  1  0
  1 22  1  0
  1 23  1  0
  1 24  1  0
  2  3  2  0
  2 20  1  0
  3  4  1  0
  3 25  1  0
  4  5  2  0
  4 26  1  0
  5  6  1  0
  5 19  1  0
  6  7  2  0
  6  8  1  0
  8  9  1  0
  8 13  2  0
  9 10  2  0
  9 27  1  0
 10 11  1  0
 10 28  1  0
 11 12  2  0
 11 29  1  0
 12 13  1  0
 12 30  1  0
 13 14  1  0
 14 15  1  0
 14 19  1  0
 15 16  1  0
 15 31  1  0
 15 32  1  0
 16 17  1  0
 16 33  1  0
 16 34  1  0
 17 18  1  0
 17 35  1  0
 17 36  1  0
 19 20  2  0
 20 21  1  0
 21 37  1  0
 21 38  1  0
 21 39  1  0
M  END

