
     RDKit          3D

 67 71  0  0  0  0  0  0  0  0999 V2000
    2.1333   -1.1756    0.2760 C   0  0  0  0  0  0  0  0  0  0  0  0
    3.3430   -0.7172   -0.2814 O   0  0  0  0  0  0  0  0  0  0  0  0
    3.3157    0.2804   -1.2020 C   0  0  0  0  0  0  0  0  0  0  0  0
    2.1455    0.8878   -1.6842 C   0  0  0  0  0  0  0  0  0  0  0  0
    2.2350    1.9164   -2.6283 C   0  0  0  0  0  0  0  0  0  0  0  0
    3.4737    2.3451   -3.1223 C   0  0  0  0  0  0  0  0  0  0  0  0
    3.5284    3.4076   -4.0791 N   0  0  0  0  0  0  0  0  0  0  0  0
    4.3432    4.5370   -3.7427 C   0  0  0  0  0  0  0  0  0  0  0  0
    4.9511    4.6135   -2.6657 O   0  0  0  0  0  0  0  0  0  0  0  0
    4.3895    5.5819   -4.7341 C   0  0  0  0  0  0  0  0  0  0  0  0
    5.0990    6.8185   -4.7408 C   0  0  0  0  0  0  0  0  0  0  0  0
    4.8218    7.4755   -5.9714 C   0  0  0  0  0  0  0  0  0  0  0  0
    5.2145    8.6985   -6.5504 C   0  0  0  0  0  0  0  0  0  0  0  0
    4.7139    9.0520   -7.8359 C   0  0  0  0  0  0  0  0  0  0  0  0
    3.8458    8.2241   -8.5302 C   0  0  0  0  0  0  0  0  0  0  0  0
    3.4312    6.9720   -7.9603 C   0  0  0  0  0  0  0  0  0  0  0  0
    3.9340    6.6324   -6.7138 C   0  0  0  0  0  0  0  0  0  0  0  0
    3.7056    5.4997   -5.9320 N   0  0  0  0  0  0  0  0  0  0  0  0
    2.8233    4.3975   -6.2102 C   0  0  0  0  0  0  0  0  0  0  0  0
    3.3214    3.1056   -5.5153 C   0  0  1  0  0  0  0  0  0  0  0  0
    4.6246    2.6012   -6.1703 C   0  0  0  0  0  0  0  0  0  0  0  0
    2.1262    2.1069   -5.6809 C   0  0  0  0  0  0  0  0  0  0  0  0
    0.9743    2.5091   -5.5846 O   0  0  0  0  0  0  0  0  0  0  0  0
    2.4414    0.8210   -5.9646 N   0  0  0  0  0  0  0  0  0  0  0  0
    1.4411   -0.2335   -6.1534 C   0  0  1  0  0  0  0  0  0  0  0  0
    1.4552   -0.6778   -7.6271 C   0  0  0  0  0  0  0  0  0  0  0  0
    0.3522   -1.6474   -8.0904 C   0  0  0  0  0  0  0  0  0  0  0  0
   -1.0791   -1.3273   -7.6032 C   0  0  0  0  0  0  0  0  0  0  0  0
   -1.5803   -2.1368   -6.3944 C   0  0  0  0  0  0  0  0  0  0  0  0
   -0.8695   -1.9784   -5.0388 C   0  0  0  0  0  0  0  0  0  0  0  0
    0.6050   -2.4397   -4.9871 C   0  0  0  0  0  0  0  0  0  0  0  0
    1.6679   -1.3303   -5.0999 C   0  0  0  0  0  0  0  0  0  0  0  0
    4.6427    1.7369   -2.6205 C   0  0  0  0  0  0  0  0  0  0  0  0
    4.5648    0.7194   -1.6783 C   0  0  0  0  0  0  0  0  0  0  0  0
    2.3973   -1.9623    0.9958 H   0  0  0  0  0  0  0  0  0  0  0  0
    1.4614   -1.6043   -0.4902 H   0  0  0  0  0  0  0  0  0  0  0  0
    1.5935   -0.3713    0.8080 H   0  0  0  0  0  0  0  0  0  0  0  0
    1.1628    0.5871   -1.3201 H   0  0  0  0  0  0  0  0  0  0  0  0
    1.3276    2.4037   -2.9873 H   0  0  0  0  0  0  0  0  0  0  0  0
    5.7254    7.1613   -3.9205 H   0  0  0  0  0  0  0  0  0  0  0  0
    5.8934    9.3712   -6.0216 H   0  0  0  0  0  0  0  0  0  0  0  0
    5.0237   10.0021   -8.2783 H   0  0  0  0  0  0  0  0  0  0  0  0
    3.4685    8.5141   -9.5125 H   0  0  0  0  0  0  0  0  0  0  0  0
    2.7407    6.3214   -8.5004 H   0  0  0  0  0  0  0  0  0  0  0  0
    2.7526    4.2491   -7.2984 H   0  0  0  0  0  0  0  0  0  0  0  0
    1.8086    4.6077   -5.8291 H   0  0  0  0  0  0  0  0  0  0  0  0
    5.3973    3.3824   -6.1287 H   0  0  0  0  0  0  0  0  0  0  0  0
    4.4735    2.3237   -7.2252 H   0  0  0  0  0  0  0  0  0  0  0  0
    5.0276    1.7328   -5.6265 H   0  0  0  0  0  0  0  0  0  0  0  0
    3.4165    0.5498   -5.9796 H   0  0  0  0  0  0  0  0  0  0  0  0
    0.4826    0.2619   -5.9487 H   0  0  0  0  0  0  0  0  0  0  0  0
    2.4444   -1.1115   -7.8653 H   0  0  0  0  0  0  0  0  0  0  0  0
    1.3768    0.2453   -8.2271 H   0  0  0  0  0  0  0  0  0  0  0  0
    0.6083   -2.6842   -7.8186 H   0  0  0  0  0  0  0  0  0  0  0  0
    0.3664   -1.6329   -9.1928 H   0  0  0  0  0  0  0  0  0  0  0  0
   -1.7808   -1.5286   -8.4299 H   0  0  0  0  0  0  0  0  0  0  0  0
   -1.1764   -0.2453   -7.4017 H   0  0  0  0  0  0  0  0  0  0  0  0
   -1.5591   -3.2088   -6.6681 H   0  0  0  0  0  0  0  0  0  0  0  0
   -2.6469   -1.8930   -6.2459 H   0  0  0  0  0  0  0  0  0  0  0  0
   -1.4457   -2.5730   -4.3102 H   0  0  0  0  0  0  0  0  0  0  0  0
   -0.9524   -0.9343   -4.6868 H   0  0  0  0  0  0  0  0  0  0  0  0
    0.7698   -3.2160   -5.7519 H   0  0  0  0  0  0  0  0  0  0  0  0
    0.7873   -2.9480   -4.0257 H   0  0  0  0  0  0  0  0  0  0  0  0
    2.6576   -1.7955   -5.2675 H   0  0  0  0  0  0  0  0  0  0  0  0
    1.7383   -0.8143   -4.1282 H   0  0  0  0  0  0  0  0  0  0  0  0
    5.6178    2.0917   -2.9547 H   0  0  0  0  0  0  0  0  0  0  0  0
    5.4652    0.2483   -1.2785 H   0  0  0  0  0  0  0  0  0  0  0  0
  1  2  1  0
  1 35  1  0
  1 36  1  0
  1 37  1  0
  2  3  1  0
  3  4  2  0
  3 34  1  0
  4  5  1  0
  4 38  1  0
  5  6  2  0
  5 39  1  0
  6  7  1  0
  6 33  1  0
  7  8  1  0
  7 20  1  0
  8  9  2  0
  8 10  1  0
 10 11  2  0
 10 18  1  0
 11 12  1  0
 11 40  1  0
 12 13  2  0
 12 17  1  0
 13 14  1  0
 13 41  1  0
 14 15  2  0
 14 42  1  0
 15 16  1  0
 15 43  1  0
 16 17  2  0
 16 44  1  0
 17 18  1  0
 18 19  1  0
 19 20  1  0
 19 45  1  0
 19 46  1  0
 20 21  1  0
 20 22  1  1
 21 47  1  0
 21 48  1  0
 21 49  1  0
 22 23  2  0
 22 24  1  0
 24 25  1  0
 24 50  1  0
 25 26  1  0
 25 32  1  0
 25 51  1  1
 26 27  1  0
 26 52  1  0
 26 53  1  0
 27 28  1  0
 27 54  1  0
 27 55  1  0
 28 29  1  0
 28 56  1  0
 28 57  1  0
 29 30  1  0
 29 58  1  0
 29 59  1  0
 30 31  1  0
 30 60  1  0
 30 61  1  0
 31 32  1  0
 31 62  1  0
 31 63  1  0
 32 64  1  0
 32 65  1  0
 33 34  2  0
 33 66  1  0
 34 67  1  0
M  END

