
     RDKit          3D

 79 81  0  0  0  0  0  0  0  0999 V2000
   -0.9645    1.1761   -4.3025 C   0  0  0  0  0  0  0  0  0  0  0  0
    0.2863    1.5004   -5.1206 C   0  0  0  0  0  0  0  0  0  0  0  0
    1.4991    0.6391   -4.7542 C   0  0  0  0  0  0  0  0  0  0  0  0
    2.7552    0.9552   -5.5713 C   0  0  0  0  0  0  0  0  0  0  0  0
    3.9672    0.0949   -5.2027 C   0  0  0  0  0  0  0  0  0  0  0  0
    5.2210    0.4085   -6.0250 C   0  0  0  0  0  0  0  0  0  0  0  0
    6.4285   -0.4546   -5.6499 C   0  0  0  0  0  0  0  0  0  0  0  0
    7.6636   -0.1392   -6.4793 C   0  0  0  0  0  0  0  0  0  0  0  0
    8.7154   -0.9898   -6.0525 O   0  0  0  0  0  0  0  0  0  0  0  0
    9.9319   -0.9112   -6.6444 C   0  0  0  0  0  0  0  0  0  0  0  0
   10.2605   -0.0255   -7.6825 C   0  0  0  0  0  0  0  0  0  0  0  0
   11.5505   -0.0325   -8.2206 C   0  0  0  0  0  0  0  0  0  0  0  0
   12.5469   -0.9071   -7.7564 C   0  0  0  0  0  0  0  0  0  0  0  0
   13.9117   -0.9061   -8.3392 C   0  0  0  0  0  0  0  0  0  0  0  0
   14.5101    0.2816   -8.8038 C   0  0  0  0  0  0  0  0  0  0  0  0
   15.7874    0.2799   -9.3560 C   0  0  0  0  0  0  0  0  0  0  0  0
   16.5408   -0.9072   -9.4668 C   0  0  0  0  0  0  0  0  0  0  0  0
   17.9088   -0.8624  -10.0309 C   0  0  0  0  0  0  0  0  0  0  0  0
   18.7460    0.1994   -9.8361 C   0  0  0  0  0  0  0  0  0  0  0  0
   20.0894    0.3125  -10.3863 C   0  0  0  0  0  0  0  0  0  0  0  0
   20.6245   -0.5883  -11.2373 C   0  0  0  0  0  0  0  0  0  0  0  0
   22.0099   -0.5042  -11.8134 C   0  0  0  0  0  0  0  0  0  0  0  0
   22.0664   -0.2035  -13.3257 C   0  0  0  0  0  0  0  0  0  0  0  0
   23.5050   -0.0765  -13.8368 C   0  0  0  0  0  0  0  0  0  0  0  0
   23.6536    0.1359  -15.3563 C   0  0  1  0  0  0  0  0  0  0  0  0
   23.0208    1.4560  -15.8187 C   0  0  0  0  0  0  0  0  0  0  0  0
   25.1379    0.0312  -15.7605 C   0  0  0  0  0  0  0  0  0  0  0  0
   25.4121    0.0275  -17.2661 C   0  0  0  0  0  0  0  0  0  0  0  0
   19.7370   -1.7329  -11.6657 C   0  0  2  0  0  0  0  0  0  0  0  0
   20.4534   -2.8817  -11.7392 F   0  0  0  0  0  0  0  0  0  0  0  0
   19.2639   -1.4817  -12.9366 F   0  0  0  0  0  0  0  0  0  0  0  0
   18.4570   -2.0040  -10.8106 C   0  0  0  0  0  0  0  0  0  0  0  0
   17.9666   -3.1080  -10.8754 O   0  0  0  0  0  0  0  0  0  0  0  0
   15.9403   -2.0994   -9.0135 C   0  0  0  0  0  0  0  0  0  0  0  0
   14.6606   -2.0918   -8.4615 C   0  0  0  0  0  0  0  0  0  0  0  0
   12.1935   -1.7891   -6.7124 C   0  0  0  0  0  0  0  0  0  0  0  0
   10.9171   -1.7932   -6.1646 C   0  0  0  0  0  0  0  0  0  0  0  0
   -1.8151    1.8139   -4.5916 H   0  0  0  0  0  0  0  0  0  0  0  0
   -0.7882    1.3259   -3.2239 H   0  0  0  0  0  0  0  0  0  0  0  0
   -1.2737    0.1265   -4.4416 H   0  0  0  0  0  0  0  0  0  0  0  0
    0.5464    2.5668   -4.9900 H   0  0  0  0  0  0  0  0  0  0  0  0
    0.0658    1.3768   -6.1967 H   0  0  0  0  0  0  0  0  0  0  0  0
    1.2396   -0.4285   -4.8826 H   0  0  0  0  0  0  0  0  0  0  0  0
    1.7224    0.7639   -3.6780 H   0  0  0  0  0  0  0  0  0  0  0  0
    3.0136    2.0231   -5.4442 H   0  0  0  0  0  0  0  0  0  0  0  0
    2.5316    0.8284   -6.6471 H   0  0  0  0  0  0  0  0  0  0  0  0
    3.7094   -0.9731   -5.3268 H   0  0  0  0  0  0  0  0  0  0  0  0
    4.1950    0.2242   -4.1285 H   0  0  0  0  0  0  0  0  0  0  0  0
    5.4780    1.4771   -5.9017 H   0  0  0  0  0  0  0  0  0  0  0  0
    4.9925    0.2769   -7.0990 H   0  0  0  0  0  0  0  0  0  0  0  0
    6.1864   -1.5239   -5.7765 H   0  0  0  0  0  0  0  0  0  0  0  0
    6.6783   -0.3178   -4.5837 H   0  0  0  0  0  0  0  0  0  0  0  0
    7.9564    0.9211   -6.3535 H   0  0  0  0  0  0  0  0  0  0  0  0
    7.4592   -0.2982   -7.5557 H   0  0  0  0  0  0  0  0  0  0  0  0
    9.5206    0.6649   -8.0874 H   0  0  0  0  0  0  0  0  0  0  0  0
   11.7730    0.6482   -9.0457 H   0  0  0  0  0  0  0  0  0  0  0  0
   13.9700    1.2274   -8.7205 H   0  0  0  0  0  0  0  0  0  0  0  0
   16.2034    1.2197   -9.7268 H   0  0  0  0  0  0  0  0  0  0  0  0
   18.4116    1.0181   -9.1933 H   0  0  0  0  0  0  0  0  0  0  0  0
   20.6853    1.1754  -10.0751 H   0  0  0  0  0  0  0  0  0  0  0  0
   22.5265   -1.4616  -11.6232 H   0  0  0  0  0  0  0  0  0  0  0  0
   22.5676    0.2736  -11.2659 H   0  0  0  0  0  0  0  0  0  0  0  0
   21.5014    0.7233  -13.5187 H   0  0  0  0  0  0  0  0  0  0  0  0
   21.5451   -1.0002  -13.8807 H   0  0  0  0  0  0  0  0  0  0  0  0
   24.0570   -0.9918  -13.5562 H   0  0  0  0  0  0  0  0  0  0  0  0
   24.0123    0.7529  -13.3072 H   0  0  0  0  0  0  0  0  0  0  0  0
   23.1157   -0.6921  -15.8587 H   0  0  0  0  0  0  0  0  0  0  0  0
   23.5204    2.3181  -15.3423 H   0  0  0  0  0  0  0  0  0  0  0  0
   21.9507    1.5089  -15.5665 H   0  0  0  0  0  0  0  0  0  0  0  0
   23.0996    1.5868  -16.9087 H   0  0  0  0  0  0  0  0  0  0  0  0
   25.5509   -0.8953  -15.3235 H   0  0  0  0  0  0  0  0  0  0  0  0
   25.6957    0.8600  -15.2851 H   0  0  0  0  0  0  0  0  0  0  0  0
   24.8632   -0.7857  -17.7708 H   0  0  0  0  0  0  0  0  0  0  0  0
   26.4844   -0.1210  -17.4709 H   0  0  0  0  0  0  0  0  0  0  0  0
   25.1175    0.9736  -17.7469 H   0  0  0  0  0  0  0  0  0  0  0  0
   16.4797   -3.0403   -9.1030 H   0  0  0  0  0  0  0  0  0  0  0  0
   14.2237   -3.0397   -8.1393 H   0  0  0  0  0  0  0  0  0  0  0  0
   12.9440   -2.4699   -6.3045 H   0  0  0  0  0  0  0  0  0  0  0  0
   10.6531   -2.4705   -5.3498 H   0  0  0  0  0  0  0  0  0  0  0  0
  1  2  1  0
  1 38  1  0
  1 39  1  0
  1 40  1  0
  2  3  1  0
  2 41  1  0
  2 42  1  0
  3  4  1  0
  3 43  1  0
  3 44  1  0
  4  5  1  0
  4 45  1  0
  4 46  1  0
  5  6  1  0
  5 47  1  0
  5 48  1  0
  6  7  1  0
  6 49  1  0
  6 50  1  0
  7  8  1  0
  7 51  1  0
  7 52  1  0
  8  9  1  0
  8 53  1  0
  8 54  1  0
  9 10  1  0
 10 11  2  0
 10 37  1  0
 11 12  1  0
 11 55  1  0
 12 13  2  0
 12 56  1  0
 13 14  1  0
 13 36  1  0
 14 15  2  0
 14 35  1  0
 15 16  1  0
 15 57  1  0
 16 17  2  0
 16 58  1  0
 17 18  1  0
 17 34  1  0
 18 19  2  0
 18 32  1  0
 19 20  1  0
 19 59  1  0
 20 21  2  0
 20 60  1  0
 21 22  1  0
 21 29  1  0
 22 23  1  0
 22 61  1  0
 22 62  1  0
 23 24  1  0
 23 63  1  0
 23 64  1  0
 24 25  1  0
 24 65  1  0
 24 66  1  0
 25 26  1  0
 25 27  1  0
 25 67  1  6
 26 68  1  0
 26 69  1  0
 26 70  1  0
 27 28  1  0
 27 71  1  0
 27 72  1  0
 28 73  1  0
 28 74  1  0
 28 75  1  0
 29 30  1  6
 29 31  1  0
 29 32  1  0
 32 33  2  0
 34 35  2  0
 34 76  1  0
 35 77  1  0
 36 37  2  0
 36 78  1  0
 37 79  1  0
M  END

