
     RDKit          3D

 86 90  0  0  0  0  0  0  0  0999 V2000
    5.8201    0.5277   -2.2659 C   0  0  0  0  0  0  0  0  0  0  0  0
    4.5013   -0.2175   -2.0479 C   0  0  0  0  0  0  0  0  0  0  0  0
    4.6078   -1.4697   -1.1750 C   0  0  0  0  0  0  0  0  0  0  0  0
    5.0288   -1.0211    0.5583 S   0  0  0  0  0  0  0  0  0  0  0  0
    5.1280   -2.6235    1.2719 C   0  0  0  0  0  0  0  0  0  0  0  0
    5.4078   -2.7668    2.6044 N   0  0  0  0  0  0  0  0  0  0  0  0
    5.4034   -4.0776    2.7361 C   0  0  0  0  0  0  0  0  0  0  0  0
    5.1476   -4.6952    1.5704 N   0  0  0  0  0  0  0  0  0  0  0  0
    4.9542   -3.7553    0.6012 N   0  0  0  0  0  0  0  0  0  0  0  0
    4.9275   -6.1283    1.3865 C   0  0  2  0  0  0  0  0  0  0  0  0
    3.4411   -6.4210    1.1420 C   0  0  0  0  0  0  0  0  0  0  0  0
    2.9164   -6.3089   -0.1450 C   0  0  0  0  0  0  0  0  0  0  0  0
    1.5491   -6.5114   -0.3824 C   0  0  0  0  0  0  0  0  0  0  0  0
    0.6906   -6.8163    0.6749 C   0  0  0  0  0  0  0  0  0  0  0  0
   -0.6519   -7.0042    0.5647 O   0  0  0  0  0  0  0  0  0  0  0  0
   -1.2749   -6.8856   -0.7001 C   0  0  0  0  0  0  0  0  0  0  0  0
   -0.9803   -8.0323   -1.6867 C   0  0  0  0  0  0  0  0  0  0  0  0
   -0.5357   -7.7602   -2.7946 O   0  0  0  0  0  0  0  0  0  0  0  0
   -1.2376   -9.3108   -1.2770 N   0  0  0  0  0  0  0  0  0  0  0  0
   -0.9473  -10.4203   -2.1871 C   0  0  0  0  0  0  0  0  0  0  0  0
   -0.0894  -11.4857   -1.4984 C   0  0  0  0  0  0  0  0  0  0  0  0
   -0.7340  -11.9558   -0.1889 C   0  0  0  0  0  0  0  0  0  0  0  0
   -1.0551  -10.7615    0.7173 C   0  0  0  0  0  0  0  0  0  0  0  0
   -1.8807   -9.7000   -0.0204 C   0  0  0  0  0  0  0  0  0  0  0  0
    1.2152   -6.9487    1.9908 C   0  0  0  0  0  0  0  0  0  0  0  0
    0.3182   -7.2802    2.9495 O   0  0  0  0  0  0  0  0  0  0  0  0
    0.7475   -7.4101    4.2960 C   0  0  0  0  0  0  0  0  0  0  0  0
   -0.4595   -7.7667    5.1421 C   0  0  0  0  0  0  0  0  0  0  0  0
    2.5786   -6.7436    2.2068 C   0  0  0  0  0  0  0  0  0  0  0  0
    5.5488   -6.8605    2.5815 C   0  0  0  0  0  0  0  0  0  0  0  0
    5.8818   -8.3111    2.4590 C   0  0  0  0  0  0  0  0  0  0  0  0
    6.5917   -8.8869    3.2773 O   0  0  0  0  0  0  0  0  0  0  0  0
    5.3519   -8.9534    1.3527 N   0  0  0  0  0  0  0  0  0  0  0  0
    5.5491  -10.2856    0.9234 C   0  0  0  0  0  0  0  0  0  0  0  0
    6.3442  -11.1961    1.6426 C   0  0  0  0  0  0  0  0  0  0  0  0
    6.5042  -12.4945    1.1642 C   0  0  0  0  0  0  0  0  0  0  0  0
    5.8827  -12.9003   -0.0149 C   0  0  0  0  0  0  0  0  0  0  0  0
    5.0872  -12.0077   -0.7489 C   0  0  0  0  0  0  0  0  0  0  0  0
    4.4360  -12.4879   -2.0280 C   0  0  0  0  0  0  0  0  0  0  0  0
    4.9161  -10.6854   -0.2845 C   0  0  0  0  0  0  0  0  0  0  0  0
    4.0789   -9.6880   -1.0518 C   0  0  0  0  0  0  0  0  0  0  0  0
    5.8412   -6.2030    3.7535 C   0  0  0  0  0  0  0  0  0  0  0  0
    6.3936   -6.8205    5.0117 C   0  0  0  0  0  0  0  0  0  0  0  0
    5.6585   -4.8337    3.8515 N   0  0  0  0  0  0  0  0  0  0  0  0
    5.6763    1.4009   -2.9218 H   0  0  0  0  0  0  0  0  0  0  0  0
    6.5723   -0.1260   -2.7381 H   0  0  0  0  0  0  0  0  0  0  0  0
    6.2466    0.8875   -1.3163 H   0  0  0  0  0  0  0  0  0  0  0  0
    4.0944   -0.5370   -3.0234 H   0  0  0  0  0  0  0  0  0  0  0  0
    3.7479    0.4654   -1.6169 H   0  0  0  0  0  0  0  0  0  0  0  0
    5.3828   -2.1565   -1.5486 H   0  0  0  0  0  0  0  0  0  0  0  0
    3.6585   -2.0246   -1.1570 H   0  0  0  0  0  0  0  0  0  0  0  0
    5.4751   -6.3995    0.4674 H   0  0  0  0  0  0  0  0  0  0  0  0
    3.5702   -6.0479   -0.9801 H   0  0  0  0  0  0  0  0  0  0  0  0
    1.1661   -6.4459   -1.4013 H   0  0  0  0  0  0  0  0  0  0  0  0
   -0.9827   -5.9570   -1.2133 H   0  0  0  0  0  0  0  0  0  0  0  0
   -2.3549   -6.8368   -0.4909 H   0  0  0  0  0  0  0  0  0  0  0  0
   -0.4537   -9.9993   -3.0713 H   0  0  0  0  0  0  0  0  0  0  0  0
   -1.9044  -10.8690   -2.5187 H   0  0  0  0  0  0  0  0  0  0  0  0
    0.9082  -11.0606   -1.2900 H   0  0  0  0  0  0  0  0  0  0  0  0
    0.0599  -12.3334   -2.1876 H   0  0  0  0  0  0  0  0  0  0  0  0
   -0.0768  -12.6702    0.3333 H   0  0  0  0  0  0  0  0  0  0  0  0
   -1.6687  -12.5006   -0.4185 H   0  0  0  0  0  0  0  0  0  0  0  0
   -0.1210  -10.2932    1.0724 H   0  0  0  0  0  0  0  0  0  0  0  0
   -1.6096  -11.0877    1.6129 H   0  0  0  0  0  0  0  0  0  0  0  0
   -2.0114   -8.8252    0.6239 H   0  0  0  0  0  0  0  0  0  0  0  0
   -2.8841  -10.1099   -0.2517 H   0  0  0  0  0  0  0  0  0  0  0  0
    1.2007   -6.4610    4.6400 H   0  0  0  0  0  0  0  0  0  0  0  0
    1.5253   -8.1937    4.3711 H   0  0  0  0  0  0  0  0  0  0  0  0
   -1.2289   -6.9830    5.0707 H   0  0  0  0  0  0  0  0  0  0  0  0
   -0.1658   -7.8733    6.1978 H   0  0  0  0  0  0  0  0  0  0  0  0
   -0.9030   -8.7165    4.8065 H   0  0  0  0  0  0  0  0  0  0  0  0
    2.9929   -6.8422    3.2096 H   0  0  0  0  0  0  0  0  0  0  0  0
    4.6697   -8.4314    0.8165 H   0  0  0  0  0  0  0  0  0  0  0  0
    6.8197  -10.8702    2.5625 H   0  0  0  0  0  0  0  0  0  0  0  0
    7.1238  -13.1983    1.7262 H   0  0  0  0  0  0  0  0  0  0  0  0
    6.0142  -13.9228   -0.3786 H   0  0  0  0  0  0  0  0  0  0  0  0
    4.6755  -13.5454   -2.2108 H   0  0  0  0  0  0  0  0  0  0  0  0
    4.7773  -11.9168   -2.9078 H   0  0  0  0  0  0  0  0  0  0  0  0
    3.3372  -12.3993   -1.9951 H   0  0  0  0  0  0  0  0  0  0  0  0
    3.6871  -10.1045   -1.9865 H   0  0  0  0  0  0  0  0  0  0  0  0
    4.6605   -8.7899   -1.3243 H   0  0  0  0  0  0  0  0  0  0  0  0
    3.2088   -9.3362   -0.4702 H   0  0  0  0  0  0  0  0  0  0  0  0
    7.4618   -7.0539    4.8912 H   0  0  0  0  0  0  0  0  0  0  0  0
    5.9060   -7.7731    5.2471 H   0  0  0  0  0  0  0  0  0  0  0  0
    6.2724   -6.1245    5.8572 H   0  0  0  0  0  0  0  0  0  0  0  0
    5.9164   -4.3437    4.6988 H   0  0  0  0  0  0  0  0  0  0  0  0
  1  2  1  0
  1 45  1  0
  1 46  1  0
  1 47  1  0
  2  3  1  0
  2 48  1  0
  2 49  1  0
  3  4  1  0
  3 50  1  0
  3 51  1  0
  4  5  1  0
  5  6  1  0
  5  9  2  0
  6  7  2  0
  7  8  1  0
  7 44  1  0
  8  9  1  0
  8 10  1  0
 10 11  1  0
 10 30  1  0
 10 52  1  6
 11 12  2  0
 11 29  1  0
 12 13  1  0
 12 53  1  0
 13 14  2  0
 13 54  1  0
 14 15  1  0
 14 25  1  0
 15 16  1  0
 16 17  1  0
 16 55  1  0
 16 56  1  0
 17 18  2  0
 17 19  1  0
 19 20  1  0
 19 24  1  0
 20 21  1  0
 20 57  1  0
 20 58  1  0
 21 22  1  0
 21 59  1  0
 21 60  1  0
 22 23  1  0
 22 61  1  0
 22 62  1  0
 23 24  1  0
 23 63  1  0
 23 64  1  0
 24 65  1  0
 24 66  1  0
 25 26  1  0
 25 29  2  0
 26 27  1  0
 27 28  1  0
 27 67  1  0
 27 68  1  0
 28 69  1  0
 28 70  1  0
 28 71  1  0
 29 72  1  0
 30 31  1  0
 30 42  2  0
 31 32  2  0
 31 33  1  0
 33 34  1  0
 33 73  1  0
 34 35  2  0
 34 40  1  0
 35 36  1  0
 35 74  1  0
 36 37  2  0
 36 75  1  0
 37 38  1  0
 37 76  1  0
 38 39  1  0
 38 40  2  0
 39 77  1  0
 39 78  1  0
 39 79  1  0
 40 41  1  0
 41 80  1  0
 41 81  1  0
 41 82  1  0
 42 43  1  0
 42 44  1  0
 43 83  1  0
 43 84  1  0
 43 85  1  0
 44 86  1  0
M  END

