
     RDKit          3D

 74 77  0  0  0  0  0  0  0  0999 V2000
    6.2467   -6.6886    0.2702 C   0  0  0  0  0  0  0  0  0  0  0  0
    4.9893   -5.8344    0.2724 C   0  0  0  0  0  0  0  0  0  0  0  0
    5.2965   -4.4357    0.3967 O   0  0  0  0  0  0  0  0  0  0  0  0
    5.4701   -3.9430    1.6417 C   0  0  0  0  0  0  0  0  0  0  0  0
    5.3500   -4.6161    2.6378 O   0  0  0  0  0  0  0  0  0  0  0  0
    5.7694   -2.4473    1.6161 C   0  0  1  0  0  0  0  0  0  0  0  0
    6.1353   -1.9173    3.0114 C   0  0  0  0  0  0  0  0  0  0  0  0
    7.5393   -2.3709    3.4306 C   0  0  0  0  0  0  0  0  0  0  0  0
    8.5757   -2.0580    2.3481 C   0  0  0  0  0  0  0  0  0  0  0  0
    8.1551   -2.6069    1.0604 N   0  0  0  0  0  0  0  0  0  0  0  0
    9.1836   -2.7248    0.0588 C   0  0  0  0  0  0  0  0  0  0  0  0
    9.7218   -1.3970   -0.5047 C   0  0  0  0  0  0  0  0  0  0  0  0
    9.2838   -0.3025   -0.1798 O   0  0  0  0  0  0  0  0  0  0  0  0
   10.7452   -1.4945   -1.4167 N   0  0  0  0  0  0  0  0  0  0  0  0
   11.3705   -2.6790   -1.6894 N   0  0  0  0  0  0  0  0  0  0  0  0
   12.4466   -2.4568   -2.3712 C   0  0  0  0  0  0  0  0  0  0  0  0
   13.3860   -3.4959   -2.8028 C   0  0  0  0  0  0  0  0  0  0  0  0
   14.4573   -3.1430   -3.6574 C   0  0  0  0  0  0  0  0  0  0  0  0
   15.4212   -4.0512   -4.0679 C   0  0  0  0  0  0  0  0  0  0  0  0
   15.3612   -5.3824   -3.6206 C   0  0  0  0  0  0  0  0  0  0  0  0
   16.3399   -6.2102   -4.0520 O   0  0  0  0  0  0  0  0  0  0  0  0
   16.3443   -7.5580   -3.6321 C   0  0  0  0  0  0  0  0  0  0  0  0
   14.3162   -5.7664   -2.7696 C   0  0  0  0  0  0  0  0  0  0  0  0
   13.3395   -4.8458   -2.3674 C   0  0  0  0  0  0  0  0  0  0  0  0
   12.3906   -5.2931   -1.4960 O   0  0  0  0  0  0  0  0  0  0  0  0
   11.1789   -5.7662   -2.0631 C   0  0  0  0  0  0  0  0  0  0  0  0
   12.6648   -0.9735   -2.6445 C   0  0  0  0  0  0  0  0  0  0  0  0
   11.3983   -0.3134   -2.0430 C   0  0  1  0  0  0  0  0  0  0  0  0
   10.4920    0.3774   -3.0533 C   0  0  0  0  0  0  0  0  0  0  0  0
   10.0710   -0.3293   -4.1882 C   0  0  0  0  0  0  0  0  0  0  0  0
    9.2454    0.2547   -5.1496 C   0  0  0  0  0  0  0  0  0  0  0  0
    8.8137    1.5788   -5.0021 C   0  0  0  0  0  0  0  0  0  0  0  0
    7.9143    2.2363   -6.0208 C   0  0  0  0  0  0  0  0  0  0  0  0
    9.2336    2.2786   -3.8615 C   0  0  0  0  0  0  0  0  0  0  0  0
   10.0575    1.7113   -2.8788 C   0  0  0  0  0  0  0  0  0  0  0  0
   10.4281    2.5208   -1.6582 C   0  0  0  0  0  0  0  0  0  0  0  0
    6.8711   -2.0888    0.6038 C   0  0  0  0  0  0  0  0  0  0  0  0
    5.9831   -7.7460    0.1054 H   0  0  0  0  0  0  0  0  0  0  0  0
    6.7697   -6.6105    1.2344 H   0  0  0  0  0  0  0  0  0  0  0  0
    6.9343   -6.3750   -0.5308 H   0  0  0  0  0  0  0  0  0  0  0  0
    4.3193   -6.1281    1.0942 H   0  0  0  0  0  0  0  0  0  0  0  0
    4.4474   -5.9196   -0.6811 H   0  0  0  0  0  0  0  0  0  0  0  0
    4.8341   -1.9690    1.2712 H   0  0  0  0  0  0  0  0  0  0  0  0
    5.3891   -2.2460    3.7501 H   0  0  0  0  0  0  0  0  0  0  0  0
    6.0990   -0.8144    2.9749 H   0  0  0  0  0  0  0  0  0  0  0  0
    7.5263   -3.4552    3.6227 H   0  0  0  0  0  0  0  0  0  0  0  0
    7.8315   -1.8758    4.3719 H   0  0  0  0  0  0  0  0  0  0  0  0
    9.5442   -2.5122    2.6175 H   0  0  0  0  0  0  0  0  0  0  0  0
    8.7386   -0.9613    2.2873 H   0  0  0  0  0  0  0  0  0  0  0  0
    8.8091   -3.3202   -0.7922 H   0  0  0  0  0  0  0  0  0  0  0  0
   10.0355   -3.2990    0.4594 H   0  0  0  0  0  0  0  0  0  0  0  0
   14.5362   -2.1147   -4.0136 H   0  0  0  0  0  0  0  0  0  0  0  0
   16.2374   -3.7551   -4.7289 H   0  0  0  0  0  0  0  0  0  0  0  0
   17.2199   -8.0276   -4.0997 H   0  0  0  0  0  0  0  0  0  0  0  0
   15.4338   -8.0914   -3.9586 H   0  0  0  0  0  0  0  0  0  0  0  0
   16.4336   -7.6450   -2.5346 H   0  0  0  0  0  0  0  0  0  0  0  0
   14.2306   -6.7793   -2.3781 H   0  0  0  0  0  0  0  0  0  0  0  0
   10.5424   -6.0906   -1.2283 H   0  0  0  0  0  0  0  0  0  0  0  0
   11.3626   -6.6267   -2.7327 H   0  0  0  0  0  0  0  0  0  0  0  0
   10.6556   -4.9725   -2.6201 H   0  0  0  0  0  0  0  0  0  0  0  0
   12.7620   -0.7579   -3.7187 H   0  0  0  0  0  0  0  0  0  0  0  0
   13.5913   -0.6244   -2.1600 H   0  0  0  0  0  0  0  0  0  0  0  0
   11.6576    0.3885   -1.2424 H   0  0  0  0  0  0  0  0  0  0  0  0
   10.3873   -1.3676   -4.3255 H   0  0  0  0  0  0  0  0  0  0  0  0
    8.9344   -0.3261   -6.0226 H   0  0  0  0  0  0  0  0  0  0  0  0
    7.7587    1.5922   -6.8989 H   0  0  0  0  0  0  0  0  0  0  0  0
    8.3357    3.1925   -6.3728 H   0  0  0  0  0  0  0  0  0  0  0  0
    6.9230    2.4620   -5.5919 H   0  0  0  0  0  0  0  0  0  0  0  0
    8.8988    3.3119   -3.7244 H   0  0  0  0  0  0  0  0  0  0  0  0
    9.9673    3.5185   -1.6956 H   0  0  0  0  0  0  0  0  0  0  0  0
   11.5180    2.6661   -1.5677 H   0  0  0  0  0  0  0  0  0  0  0  0
   10.0803    2.0108   -0.7459 H   0  0  0  0  0  0  0  0  0  0  0  0
    6.6358   -2.5354   -0.3730 H   0  0  0  0  0  0  0  0  0  0  0  0
    6.8879   -0.9883    0.4709 H   0  0  0  0  0  0  0  0  0  0  0  0
  1  2  1  0
  1 38  1  0
  1 39  1  0
  1 40  1  0
  2  3  1  0
  2 41  1  0
  2 42  1  0
  3  4  1  0
  4  5  2  0
  4  6  1  0
  6  7  1  0
  6 37  1  0
  6 43  1  6
  7  8  1  0
  7 44  1  0
  7 45  1  0
  8  9  1  0
  8 46  1  0
  8 47  1  0
  9 10  1  0
  9 48  1  0
  9 49  1  0
 10 11  1  0
 10 37  1  0
 11 12  1  0
 11 50  1  0
 11 51  1  0
 12 13  2  0
 12 14  1  0
 14 15  1  0
 14 28  1  0
 15 16  2  0
 16 17  1  0
 16 27  1  0
 17 18  2  0
 17 24  1  0
 18 19  1  0
 18 52  1  0
 19 20  2  0
 19 53  1  0
 20 21  1  0
 20 23  1  0
 21 22  1  0
 22 54  1  0
 22 55  1  0
 22 56  1  0
 23 24  2  0
 23 57  1  0
 24 25  1  0
 25 26  1  0
 26 58  1  0
 26 59  1  0
 26 60  1  0
 27 28  1  0
 27 61  1  0
 27 62  1  0
 28 29  1  0
 28 63  1  1
 29 30  2  0
 29 35  1  0
 30 31  1  0
 30 64  1  0
 31 32  2  0
 31 65  1  0
 32 33  1  0
 32 34  1  0
 33 66  1  0
 33 67  1  0
 33 68  1  0
 34 35  2  0
 34 69  1  0
 35 36  1  0
 36 70  1  0
 36 71  1  0
 36 72  1  0
 37 73  1  0
 37 74  1  0
M  END

