
     RDKit          3D

 49 51  0  0  0  0  0  0  0  0999 V2000
    1.9721   -1.6611   -6.8520 C   0  0  0  0  0  0  0  0  0  0  0  0
    2.7570   -0.4772   -6.6123 N   0  0  0  0  0  0  0  0  0  0  0  0
    3.2886    0.3001   -7.7168 C   0  0  0  0  0  0  0  0  0  0  0  0
    2.8900    1.7860   -7.5489 C   0  0  0  0  0  0  0  0  0  0  0  0
    3.2692    2.2281   -6.2806 O   0  0  0  0  0  0  0  0  0  0  0  0
    2.5835    1.5696   -5.2415 C   0  0  2  0  0  0  0  0  0  0  0  0
    3.0724    2.1159   -3.8706 C   0  0  0  0  0  0  0  0  0  0  0  0
    3.8576    1.4057   -3.2378 O   0  0  0  0  0  0  0  0  0  0  0  0
    2.6000    3.3065   -3.4864 N   0  0  0  0  0  0  0  0  0  0  0  0
    2.9802    3.8293   -2.1650 C   0  0  0  0  0  0  0  0  0  0  0  0
    3.4312    5.2887   -2.2486 C   0  0  0  0  0  0  0  0  0  0  0  0
    2.3800    6.1650   -2.9345 C   0  0  0  0  0  0  0  0  0  0  0  0
    2.0074    5.6291   -4.3206 C   0  0  2  0  0  0  0  0  0  0  0  0
    0.7998    6.3811   -4.9190 C   0  0  0  0  0  0  0  0  0  0  0  0
   -0.3096    6.2818   -4.3039 O   0  0  0  0  0  0  0  0  0  0  0  0
    0.8569    6.3302   -6.3824 N   0  0  0  0  0  0  0  0  0  0  0  0
   -0.1749    6.4057   -7.2914 C   0  0  0  0  0  0  0  0  0  0  0  0
   -1.5245    6.0926   -6.9648 C   0  0  0  0  0  0  0  0  0  0  0  0
   -2.5129    6.1374   -7.9438 C   0  0  0  0  0  0  0  0  0  0  0  0
   -2.2287    6.4857   -9.2745 C   0  0  0  0  0  0  0  0  0  0  0  0
   -0.9052    6.8141   -9.6004 C   0  0  0  0  0  0  0  0  0  0  0  0
    0.0982    6.7852   -8.6358 C   0  0  0  0  0  0  0  0  0  0  0  0
    1.6262    4.1451   -4.2233 C   0  0  0  0  0  0  0  0  0  0  0  0
    2.9129    0.0581   -5.2761 C   0  0  0  0  0  0  0  0  0  0  0  0
    2.3266   -2.1787   -7.7520 H   0  0  0  0  0  0  0  0  0  0  0  0
    0.9189   -1.3636   -7.0114 H   0  0  0  0  0  0  0  0  0  0  0  0
    2.0165   -2.3270   -5.9819 H   0  0  0  0  0  0  0  0  0  0  0  0
    2.9345   -0.1190   -8.6672 H   0  0  0  0  0  0  0  0  0  0  0  0
    4.3874    0.2217   -7.6770 H   0  0  0  0  0  0  0  0  0  0  0  0
    1.8029    1.9008   -7.7142 H   0  0  0  0  0  0  0  0  0  0  0  0
    3.4195    2.3840   -8.3005 H   0  0  0  0  0  0  0  0  0  0  0  0
    1.4943    1.6970   -5.3667 H   0  0  0  0  0  0  0  0  0  0  0  0
    3.7601    3.1759   -1.7567 H   0  0  0  0  0  0  0  0  0  0  0  0
    2.0935    3.7546   -1.5079 H   0  0  0  0  0  0  0  0  0  0  0  0
    4.3864    5.3350   -2.8024 H   0  0  0  0  0  0  0  0  0  0  0  0
    3.6415    5.6430   -1.2251 H   0  0  0  0  0  0  0  0  0  0  0  0
    2.7346    7.2042   -3.0277 H   0  0  0  0  0  0  0  0  0  0  0  0
    1.4549    6.2063   -2.3342 H   0  0  0  0  0  0  0  0  0  0  0  0
    2.8899    5.7153   -4.9826 H   0  0  0  0  0  0  0  0  0  0  0  0
    1.7359    6.6788   -6.7487 H   0  0  0  0  0  0  0  0  0  0  0  0
   -1.7504    5.8572   -5.9258 H   0  0  0  0  0  0  0  0  0  0  0  0
   -3.5430    5.9000   -7.6573 H   0  0  0  0  0  0  0  0  0  0  0  0
   -3.0173    6.5166  -10.0299 H   0  0  0  0  0  0  0  0  0  0  0  0
   -0.6509    7.1098  -10.6235 H   0  0  0  0  0  0  0  0  0  0  0  0
    1.1224    7.0630   -8.9099 H   0  0  0  0  0  0  0  0  0  0  0  0
    1.4877    3.7646   -5.2396 H   0  0  0  0  0  0  0  0  0  0  0  0
    0.6540    4.0979   -3.7035 H   0  0  0  0  0  0  0  0  0  0  0  0
    2.2887   -0.5087   -4.5764 H   0  0  0  0  0  0  0  0  0  0  0  0
    3.9625   -0.0423   -4.9488 H   0  0  0  0  0  0  0  0  0  0  0  0
  1  2  1  0
  1 25  1  0
  1 26  1  0
  1 27  1  0
  2  3  1  0
  2 24  1  0
  3  4  1  0
  3 28  1  0
  3 29  1  0
  4  5  1  0
  4 30  1  0
  4 31  1  0
  5  6  1  0
  6  7  1  0
  6 24  1  0
  6 32  1  1
  7  8  2  0
  7  9  1  0
  9 10  1  0
  9 23  1  0
 10 11  1  0
 10 33  1  0
 10 34  1  0
 11 12  1  0
 11 35  1  0
 11 36  1  0
 12 13  1  0
 12 37  1  0
 12 38  1  0
 13 14  1  0
 13 23  1  0
 13 39  1  6
 14 15  2  0
 14 16  1  0
 16 17  1  0
 16 40  1  0
 17 18  2  0
 17 22  1  0
 18 19  1  0
 18 41  1  0
 19 20  2  0
 19 42  1  0
 20 21  1  0
 20 43  1  0
 21 22  2  0
 21 44  1  0
 22 45  1  0
 23 46  1  0
 23 47  1  0
 24 48  1  0
 24 49  1  0
M  END

