
     RDKit          3D

 50 51  0  0  0  0  0  0  0  0999 V2000
    1.1950   -0.3318    0.5992 C   0  0  0  0  0  0  0  0  0  0  0  0
    2.5173   -0.3590    0.0731 N   0  0  0  0  0  0  0  0  0  0  0  0
    3.1537    0.6717   -0.7490 C   0  0  1  0  0  0  0  0  0  0  0  0
    2.5230    2.0231   -0.6846 C   0  0  0  0  0  0  0  0  0  0  0  0
    2.5552    2.8710    0.5064 C   0  0  0  0  0  0  0  0  0  0  0  0
    2.1193    4.1911    0.4613 C   0  0  0  0  0  0  0  0  0  0  0  0
    2.1275    5.0418    1.7117 C   0  0  0  0  0  0  0  0  0  0  0  0
    1.6536    4.7425   -0.7502 C   0  0  0  0  0  0  0  0  0  0  0  0
    1.6180    3.9307   -1.9462 C   0  0  0  0  0  0  0  0  0  0  0  0
    2.0443    2.6168   -1.8924 C   0  0  0  0  0  0  0  0  0  0  0  0
    2.0476    1.7714   -2.9932 O   0  0  0  0  0  0  0  0  0  0  0  0
    1.6549    2.2781   -4.2419 C   0  0  0  0  0  0  0  0  0  0  0  0
    4.7175    0.4646   -0.5701 C   0  0  1  0  0  0  0  0  0  0  0  0
    4.9523   -0.9657   -0.6993 O   0  0  0  0  0  0  0  0  0  0  0  0
    5.0299   -1.5475   -1.9838 C   0  0  0  0  0  0  0  0  0  0  0  0
    5.4195    1.3028   -1.6470 C   0  0  0  0  0  0  0  0  0  0  0  0
    6.9556    1.3704   -1.6283 C   0  0  0  0  0  0  0  0  0  0  0  0
    7.5396    2.1994   -0.4727 C   0  0  0  0  0  0  0  0  0  0  0  0
    7.7056    1.4576    0.8667 C   0  0  0  0  0  0  0  0  0  0  0  0
    6.6261    0.4135    1.1993 C   0  0  0  0  0  0  0  0  0  0  0  0
    5.1746    0.8022    0.8664 C   0  0  0  0  0  0  0  0  0  0  0  0
    1.2403   -0.4564    1.6964 H   0  0  0  0  0  0  0  0  0  0  0  0
    0.6211   -1.1895    0.2054 H   0  0  0  0  0  0  0  0  0  0  0  0
    0.7227    0.6207    0.3390 H   0  0  0  0  0  0  0  0  0  0  0  0
    3.0990   -1.1934    0.1984 H   0  0  0  0  0  0  0  0  0  0  0  0
    2.9583    0.2995   -1.7779 H   0  0  0  0  0  0  0  0  0  0  0  0
    2.8645    2.4542    1.4677 H   0  0  0  0  0  0  0  0  0  0  0  0
    2.7199    5.9621    1.5642 H   0  0  0  0  0  0  0  0  0  0  0  0
    2.5519    4.5044    2.5743 H   0  0  0  0  0  0  0  0  0  0  0  0
    1.1078    5.3686    1.9838 H   0  0  0  0  0  0  0  0  0  0  0  0
    1.3306    5.7844   -0.7956 H   0  0  0  0  0  0  0  0  0  0  0  0
    1.2304    4.3578   -2.8702 H   0  0  0  0  0  0  0  0  0  0  0  0
    2.2812    3.1335   -4.5552 H   0  0  0  0  0  0  0  0  0  0  0  0
    0.5999    2.6092   -4.2392 H   0  0  0  0  0  0  0  0  0  0  0  0
    1.7692    1.4629   -4.9719 H   0  0  0  0  0  0  0  0  0  0  0  0
    5.0700   -2.6371   -1.8346 H   0  0  0  0  0  0  0  0  0  0  0  0
    5.9369   -1.2416   -2.5313 H   0  0  0  0  0  0  0  0  0  0  0  0
    4.1530   -1.3171   -2.6186 H   0  0  0  0  0  0  0  0  0  0  0  0
    5.0175    2.3226   -1.5490 H   0  0  0  0  0  0  0  0  0  0  0  0
    5.0775    0.9618   -2.6369 H   0  0  0  0  0  0  0  0  0  0  0  0
    7.2613    1.8362   -2.5800 H   0  0  0  0  0  0  0  0  0  0  0  0
    7.4005    0.3593   -1.6362 H   0  0  0  0  0  0  0  0  0  0  0  0
    6.8960    3.0846   -0.3309 H   0  0  0  0  0  0  0  0  0  0  0  0
    8.5238    2.5981   -0.7705 H   0  0  0  0  0  0  0  0  0  0  0  0
    7.7527    2.2096    1.6734 H   0  0  0  0  0  0  0  0  0  0  0  0
    8.6837    0.9454    0.8830 H   0  0  0  0  0  0  0  0  0  0  0  0
    6.6892    0.1921    2.2778 H   0  0  0  0  0  0  0  0  0  0  0  0
    6.8473   -0.5382    0.6927 H   0  0  0  0  0  0  0  0  0  0  0  0
    4.9957    1.8721    1.0426 H   0  0  0  0  0  0  0  0  0  0  0  0
    4.5123    0.2687    1.5686 H   0  0  0  0  0  0  0  0  0  0  0  0
  1  2  1  0
  1 22  1  0
  1 23  1  0
  1 24  1  0
  2  3  1  0
  2 25  1  0
  3  4  1  0
  3 13  1  0
  3 26  1  6
  4  5  2  0
  4 10  1  0
  5  6  1  0
  5 27  1  0
  6  7  1  0
  6  8  2  0
  7 28  1  0
  7 29  1  0
  7 30  1  0
  8  9  1  0
  8 31  1  0
  9 10  2  0
  9 32  1  0
 10 11  1  0
 11 12  1  0
 12 33  1  0
 12 34  1  0
 12 35  1  0
 13 14  1  1
 13 16  1  0
 13 21  1  0
 14 15  1  0
 15 36  1  0
 15 37  1  0
 15 38  1  0
 16 17  1  0
 16 39  1  0
 16 40  1  0
 17 18  1  0
 17 41  1  0
 17 42  1  0
 18 19  1  0
 18 43  1  0
 18 44  1  0
 19 20  1  0
 19 45  1  0
 19 46  1  0
 20 21  1  0
 20 47  1  0
 20 48  1  0
 21 49  1  0
 21 50  1  0
M  END

