
     RDKit          3D

 43 46  0  0  0  0  0  0  0  0999 V2000
    1.1072   -0.2793    0.3340 C   0  0  0  0  0  0  0  0  0  0  0  0
    2.5427   -0.6713   -0.6878 S   0  0  1  0  0  0  0  0  0  0  0  0
    2.1429   -1.7200   -1.6381 O   0  0  0  0  0  0  0  0  0  0  0  0
    3.1196    0.5926   -1.1654 O   0  0  0  0  0  0  0  0  0  0  0  0
    3.7435   -1.3928    0.4657 C   0  0  1  0  0  0  0  0  0  0  0  0
    3.4735   -2.8412    0.9529 C   0  0  0  0  0  0  0  0  0  0  0  0
    4.7478   -3.2246    0.3580 N   0  0  0  0  0  0  0  0  0  0  0  0
    5.1172   -4.4846   -0.0418 C   0  0  0  0  0  0  0  0  0  0  0  0
    6.2099   -4.6828   -0.9123 C   0  0  0  0  0  0  0  0  0  0  0  0
    6.5584   -5.9884   -1.2700 C   0  0  0  0  0  0  0  0  0  0  0  0
    7.6894   -6.2237   -2.1859 C   0  0  0  0  0  0  0  0  0  0  0  0
    8.0916   -5.2648   -3.0108 N   0  0  0  0  0  0  0  0  0  0  0  0
    9.1267   -5.7493   -3.7122 N   0  0  0  0  0  0  0  0  0  0  0  0
    9.5631   -5.1679   -4.4166 H   0  0  0  0  0  0  0  0  0  0  0  0
    9.4407   -7.0353   -3.3709 C   0  0  0  0  0  0  0  0  0  0  0  0
   10.4362   -7.9116   -3.8379 C   0  0  0  0  0  0  0  0  0  0  0  0
   10.5039   -9.1664   -3.2527 C   0  0  0  0  0  0  0  0  0  0  0  0
    9.6037   -9.5260   -2.2244 C   0  0  0  0  0  0  0  0  0  0  0  0
    9.6860  -10.8212   -1.6980 O   0  0  0  0  0  0  0  0  0  0  0  0
   10.4701  -11.0265   -0.6170 C   0  0  1  0  0  0  0  0  0  0  0  0
   10.0726  -10.3099    0.4458 F   0  0  0  0  0  0  0  0  0  0  0  0
   10.4064  -12.3140   -0.3068 F   0  0  0  0  0  0  0  0  0  0  0  0
   11.7531  -10.7047   -0.8491 F   0  0  0  0  0  0  0  0  0  0  0  0
    8.6152   -8.6732   -1.7619 C   0  0  0  0  0  0  0  0  0  0  0  0
    8.5166   -7.3976   -2.3538 C   0  0  0  0  0  0  0  0  0  0  0  0
    5.7899   -7.0463   -0.7427 C   0  0  0  0  0  0  0  0  0  0  0  0
    4.7309   -6.7349    0.1094 C   0  0  0  0  0  0  0  0  0  0  0  0
    4.3923   -5.4951    0.4627 N   0  0  0  0  0  0  0  0  0  0  0  0
    4.9905   -1.9368   -0.2824 C   0  0  0  0  0  0  0  0  0  0  0  0
    0.3711    0.1425   -0.3645 H   0  0  0  0  0  0  0  0  0  0  0  0
    1.3901    0.4670    1.0877 H   0  0  0  0  0  0  0  0  0  0  0  0
    0.7154   -1.1982    0.7897 H   0  0  0  0  0  0  0  0  0  0  0  0
    3.9497   -0.6399    1.2380 H   0  0  0  0  0  0  0  0  0  0  0  0
    2.6037   -3.3262    0.4769 H   0  0  0  0  0  0  0  0  0  0  0  0
    3.4108   -2.9755    2.0453 H   0  0  0  0  0  0  0  0  0  0  0  0
    6.7833   -3.8419   -1.3029 H   0  0  0  0  0  0  0  0  0  0  0  0
   11.1325   -7.6211   -4.6271 H   0  0  0  0  0  0  0  0  0  0  0  0
   11.2509   -9.8946   -3.5719 H   0  0  0  0  0  0  0  0  0  0  0  0
    7.9545   -8.9994   -0.9601 H   0  0  0  0  0  0  0  0  0  0  0  0
    5.9804   -8.0837   -1.0149 H   0  0  0  0  0  0  0  0  0  0  0  0
    4.1148   -7.5408    0.5266 H   0  0  0  0  0  0  0  0  0  0  0  0
    4.8832   -1.9496   -1.3824 H   0  0  0  0  0  0  0  0  0  0  0  0
    5.9442   -1.4499   -0.0194 H   0  0  0  0  0  0  0  0  0  0  0  0
  2  1  1  1
  1 30  1  0
  1 31  1  0
  1 32  1  0
  2  3  2  0
  2  4  2  0
  2  5  1  0
  5  6  1  0
  5 29  1  0
  5 33  1  1
  6  7  1  0
  6 34  1  0
  6 35  1  0
  7  8  1  0
  7 29  1  0
  8  9  2  0
  8 28  1  0
  9 10  1  0
  9 36  1  0
 10 11  1  0
 10 26  2  0
 11 12  2  0
 11 25  1  0
 12 13  1  0
 13 14  1  0
 13 15  1  0
 15 16  1  0
 15 25  2  0
 16 17  2  0
 16 37  1  0
 17 18  1  0
 17 38  1  0
 18 19  1  0
 18 24  2  0
 19 20  1  0
 20 21  1  1
 20 22  1  0
 20 23  1  0
 24 25  1  0
 24 39  1  0
 26 27  1  0
 26 40  1  0
 27 28  2  0
 27 41  1  0
 29 42  1  0
 29 43  1  0
M  END

