
     RDKit          3D

 45 47  0  0  0  0  0  0  0  0999 V2000
    3.7046    4.6459    0.2029 C   0  0  0  0  0  0  0  0  0  0  0  0
    3.8626    3.2959    0.5577 O   0  0  0  0  0  0  0  0  0  0  0  0
    4.6256    2.5569   -0.3537 C   0  0  0  0  0  0  0  0  0  0  0  0
    4.7529    1.1405    0.1842 C   0  0  2  0  0  0  0  0  0  0  0  0
    3.7468    0.7856    0.4737 H   0  0  0  0  0  0  0  0  0  0  0  0
    5.5922    1.1800    1.3071 O   0  0  0  0  0  0  0  0  0  0  0  0
    5.7264   -0.0629    1.9290 C   0  0  0  0  0  0  0  0  0  0  0  0
    6.3873   -1.0571    0.9556 C   0  0  0  0  0  0  0  0  0  0  0  0
    5.6854   -1.1179   -0.2908 N   0  0  0  0  0  0  0  0  0  0  0  0
    6.1695   -2.7226   -1.3674 S   0  0  1  0  0  0  0  0  0  0  0  0
    6.7096   -2.0281   -2.5009 O   0  0  0  0  0  0  0  0  0  0  0  0
    7.0422   -3.3447   -0.3787 O   0  0  0  0  0  0  0  0  0  0  0  0
    4.7184   -3.6294   -1.6739 C   0  0  0  0  0  0  0  0  0  0  0  0
    4.1188   -3.4699   -2.9291 C   0  0  0  0  0  0  0  0  0  0  0  0
    2.9047   -4.2405   -3.1560 C   0  0  0  0  0  0  0  0  0  0  0  0
    2.4348   -5.0732   -2.1403 C   0  0  0  0  0  0  0  0  0  0  0  0
    3.0636   -5.2177   -0.8947 C   0  0  0  0  0  0  0  0  0  0  0  0
    4.2768   -4.4608   -0.6368 C   0  0  0  0  0  0  0  0  0  0  0  0
    5.3130    0.1376   -0.9103 C   0  0  1  0  0  0  0  0  0  0  0  0
    6.2569    0.5984   -1.2684 H   0  0  0  0  0  0  0  0  0  0  0  0
    4.3433    0.0167   -2.0684 C   0  0  0  0  0  0  0  0  0  0  0  0
    3.0575   -0.5083   -1.8716 C   0  0  0  0  0  0  0  0  0  0  0  0
    2.1247   -0.5033   -2.9108 C   0  0  0  0  0  0  0  0  0  0  0  0
    2.4739    0.0137   -4.1605 C   0  0  0  0  0  0  0  0  0  0  0  0
    3.7604    0.5205   -4.3714 C   0  0  0  0  0  0  0  0  0  0  0  0
    4.6882    0.5274   -3.3276 C   0  0  0  0  0  0  0  0  0  0  0  0
    3.0839    5.1226    0.9747 H   0  0  0  0  0  0  0  0  0  0  0  0
    3.2007    4.7611   -0.7780 H   0  0  0  0  0  0  0  0  0  0  0  0
    4.6766    5.1765    0.1531 H   0  0  0  0  0  0  0  0  0  0  0  0
    5.6454    2.9823   -0.4683 H   0  0  0  0  0  0  0  0  0  0  0  0
    4.1523    2.5398   -1.3532 H   0  0  0  0  0  0  0  0  0  0  0  0
    4.7488   -0.4612    2.2593 H   0  0  0  0  0  0  0  0  0  0  0  0
    6.3710    0.0638    2.8096 H   0  0  0  0  0  0  0  0  0  0  0  0
    6.4641   -2.0689    1.3734 H   0  0  0  0  0  0  0  0  0  0  0  0
    7.4244   -0.7038    0.7738 H   0  0  0  0  0  0  0  0  0  0  0  0
    4.5374   -2.8126   -3.6848 H   0  0  0  0  0  0  0  0  0  0  0  0
    2.3858   -4.1710   -4.1117 H   0  0  0  0  0  0  0  0  0  0  0  0
    1.5229   -5.6519   -2.3274 H   0  0  0  0  0  0  0  0  0  0  0  0
    2.6680   -5.8941   -0.1379 H   0  0  0  0  0  0  0  0  0  0  0  0
    4.8296   -4.5631    0.2934 H   0  0  0  0  0  0  0  0  0  0  0  0
    2.7768   -0.9360   -0.9060 H   0  0  0  0  0  0  0  0  0  0  0  0
    1.1322   -0.9272   -2.7471 H   0  0  0  0  0  0  0  0  0  0  0  0
    1.7463    0.0125   -4.9758 H   0  0  0  0  0  0  0  0  0  0  0  0
    4.0428    0.9129   -5.3512 H   0  0  0  0  0  0  0  0  0  0  0  0
    5.6934    0.9216   -3.4977 H   0  0  0  0  0  0  0  0  0  0  0  0
  1  2  1  0
  1 27  1  0
  1 28  1  0
  1 29  1  0
  2  3  1  0
  3  4  1  0
  3 30  1  0
  3 31  1  0
  4  5  1  1
  4  6  1  0
  4 19  1  0
  6  7  1  0
  7  8  1  0
  7 32  1  0
  7 33  1  0
  8  9  1  0
  8 34  1  0
  8 35  1  0
  9 10  1  0
  9 19  1  0
 10 11  2  0
 10 12  2  0
 10 13  1  6
 13 14  2  0
 13 18  1  0
 14 15  1  0
 14 36  1  0
 15 16  2  0
 15 37  1  0
 16 17  1  0
 16 38  1  0
 17 18  2  0
 17 39  1  0
 18 40  1  0
 19 20  1  6
 19 21  1  0
 21 22  2  0
 21 26  1  0
 22 23  1  0
 22 41  1  0
 23 24  2  0
 23 42  1  0
 24 25  1  0
 24 43  1  0
 25 26  2  0
 25 44  1  0
 26 45  1  0
M  END

