
     RDKit          3D

 49 51  0  0  0  0  0  0  0  0999 V2000
    1.8601   -1.6973   -0.6276 C   0  0  0  0  0  0  0  0  0  0  0  0
    2.2724   -0.2896   -0.1881 C   0  0  0  0  0  0  0  0  0  0  0  0
    2.9589    0.6179   -1.2499 C   0  0  1  0  0  0  0  0  0  0  0  0
    4.2052   -0.0684   -1.8255 C   0  0  0  0  0  0  0  0  0  0  0  0
    2.0063    0.9822   -2.4046 C   0  0  0  0  0  0  0  0  0  0  0  0
    0.9270    1.8857   -2.0109 N   0  0  0  0  0  0  0  0  0  0  0  0
   -0.0713    1.9969   -3.0683 C   0  0  0  0  0  0  0  0  0  0  0  0
   -0.9219    0.7467   -3.2395 C   0  0  0  0  0  0  0  0  0  0  0  0
   -1.4524    0.0786   -2.1221 C   0  0  0  0  0  0  0  0  0  0  0  0
   -2.2804   -1.0300   -2.3002 C   0  0  0  0  0  0  0  0  0  0  0  0
   -2.5935   -1.4919   -3.5830 C   0  0  0  0  0  0  0  0  0  0  0  0
   -2.0647   -0.8328   -4.6998 C   0  0  0  0  0  0  0  0  0  0  0  0
   -2.3203   -1.2289   -5.9755 O   0  0  0  0  0  0  0  0  0  0  0  0
   -1.2291    0.2803   -4.5210 C   0  0  0  0  0  0  0  0  0  0  0  0
    1.3843    3.1633   -1.3935 C   0  0  2  0  0  0  0  0  0  0  0  0
    0.1863    3.8983   -0.7699 C   0  0  0  0  0  0  0  0  0  0  0  0
    2.1755    4.0432   -2.3804 C   0  0  1  0  0  0  0  0  0  0  0  0
    1.5470    4.9269   -3.4283 C   0  0  0  0  0  0  0  0  0  0  0  0
    2.2809    5.5453   -2.2653 C   0  0  0  0  0  0  0  0  0  0  0  0
    2.3223    2.7717   -0.2262 C   0  0  0  0  0  0  0  0  0  0  0  0
    3.3948    1.8991   -0.6698 N   0  0  0  0  0  0  0  0  0  0  0  0
    1.3837   -2.2349    0.2084 H   0  0  0  0  0  0  0  0  0  0  0  0
    2.7191   -2.3044   -0.9542 H   0  0  0  0  0  0  0  0  0  0  0  0
    1.1286   -1.6741   -1.4507 H   0  0  0  0  0  0  0  0  0  0  0  0
    2.9697   -0.3697    0.6668 H   0  0  0  0  0  0  0  0  0  0  0  0
    1.3798    0.2328    0.1883 H   0  0  0  0  0  0  0  0  0  0  0  0
    3.9503   -0.9736   -2.3968 H   0  0  0  0  0  0  0  0  0  0  0  0
    4.8944   -0.3667   -1.0171 H   0  0  0  0  0  0  0  0  0  0  0  0
    4.7425    0.6243   -2.4899 H   0  0  0  0  0  0  0  0  0  0  0  0
    1.5468    0.0642   -2.7999 H   0  0  0  0  0  0  0  0  0  0  0  0
    2.6119    1.4071   -3.2341 H   0  0  0  0  0  0  0  0  0  0  0  0
    0.3804    2.2538   -4.0499 H   0  0  0  0  0  0  0  0  0  0  0  0
   -0.7512    2.8261   -2.8233 H   0  0  0  0  0  0  0  0  0  0  0  0
   -1.2018    0.4335   -1.1210 H   0  0  0  0  0  0  0  0  0  0  0  0
   -2.6935   -1.5481   -1.4304 H   0  0  0  0  0  0  0  0  0  0  0  0
   -3.2426   -2.3634   -3.7173 H   0  0  0  0  0  0  0  0  0  0  0  0
   -2.8995   -2.0020   -5.9605 H   0  0  0  0  0  0  0  0  0  0  0  0
   -0.8247    0.7724   -5.4091 H   0  0  0  0  0  0  0  0  0  0  0  0
   -0.4462    4.4128   -1.5073 H   0  0  0  0  0  0  0  0  0  0  0  0
    0.5323    4.6579   -0.0533 H   0  0  0  0  0  0  0  0  0  0  0  0
   -0.4438    3.1807   -0.2245 H   0  0  0  0  0  0  0  0  0  0  0  0
    3.1086    3.5602   -2.6819 H   0  0  0  0  0  0  0  0  0  0  0  0
    0.4588    5.0332   -3.4487 H   0  0  0  0  0  0  0  0  0  0  0  0
    2.0077    4.9573   -4.4203 H   0  0  0  0  0  0  0  0  0  0  0  0
    1.6833    6.0631   -1.5101 H   0  0  0  0  0  0  0  0  0  0  0  0
    3.2567    6.0056   -2.4458 H   0  0  0  0  0  0  0  0  0  0  0  0
    1.6946    2.3347    0.5785 H   0  0  0  0  0  0  0  0  0  0  0  0
    2.7707    3.6930    0.1786 H   0  0  0  0  0  0  0  0  0  0  0  0
    4.0690    1.7436    0.0779 H   0  0  0  0  0  0  0  0  0  0  0  0
  1  2  1  0
  1 22  1  0
  1 23  1  0
  1 24  1  0
  3  2  1  1
  2 25  1  0
  2 26  1  0
  3  4  1  0
  3  5  1  0
  3 21  1  0
  4 27  1  0
  4 28  1  0
  4 29  1  0
  5  6  1  0
  5 30  1  0
  5 31  1  0
  6  7  1  0
  6 15  1  0
  7  8  1  0
  7 32  1  0
  7 33  1  0
  8  9  2  0
  8 14  1  0
  9 10  1  0
  9 34  1  0
 10 11  2  0
 10 35  1  0
 11 12  1  0
 11 36  1  0
 12 13  1  0
 12 14  2  0
 13 37  1  0
 14 38  1  0
 15 16  1  1
 15 17  1  0
 15 20  1  0
 16 39  1  0
 16 40  1  0
 16 41  1  0
 17 18  1  0
 17 19  1  0
 17 42  1  6
 18 19  1  0
 18 43  1  0
 18 44  1  0
 19 45  1  0
 19 46  1  0
 20 21  1  0
 20 47  1  0
 20 48  1  0
 21 49  1  0
M  END

