
     RDKit          3D

 46 48  0  0  0  0  0  0  0  0999 V2000
   11.4617   -7.1011   -6.4558 C   0  0  0  0  0  0  0  0  0  0  0  0
   10.4337   -6.3121   -5.9048 O   0  0  0  0  0  0  0  0  0  0  0  0
    9.7013   -6.8032   -4.8711 C   0  0  0  0  0  0  0  0  0  0  0  0
    8.7010   -5.9541   -4.3615 C   0  0  0  0  0  0  0  0  0  0  0  0
    7.9023   -6.3642   -3.3007 C   0  0  0  0  0  0  0  0  0  0  0  0
    8.0702   -7.6353   -2.7146 C   0  0  0  0  0  0  0  0  0  0  0  0
    7.1855   -8.0772   -1.5639 C   0  0  0  0  0  0  0  0  0  0  0  0
    5.8131   -8.3994   -1.9466 N   0  0  0  0  0  0  0  0  0  0  0  0
    4.8339   -7.4572   -1.9115 C   0  0  0  0  0  0  0  0  0  0  0  0
    5.0325   -6.3076   -1.5343 O   0  0  0  0  0  0  0  0  0  0  0  0
    3.4047   -7.8911   -2.2983 C   0  0  1  0  0  0  0  0  0  0  0  0
    2.7236   -6.8034   -3.1507 C   0  0  0  0  0  0  0  0  0  0  0  0
    3.2285   -6.8338   -4.5976 C   0  0  0  0  0  0  0  0  0  0  0  0
    3.1158   -8.2334   -5.2202 C   0  0  0  0  0  0  0  0  0  0  0  0
    3.7573   -9.2275   -4.3669 N   0  0  0  0  0  0  0  0  0  0  0  0
    4.6929  -10.1297   -4.8072 C   0  0  0  0  0  0  0  0  0  0  0  0
    4.9223  -10.4134   -6.1892 C   0  0  0  0  0  0  0  0  0  0  0  0
    5.8302  -11.2883   -6.5830 N   0  0  0  0  0  0  0  0  0  0  0  0
    6.5437  -11.9282   -5.6453 C   0  0  0  0  0  0  0  0  0  0  0  0
    6.3256  -11.6686   -4.2954 C   0  0  0  0  0  0  0  0  0  0  0  0
    5.4208  -10.7794   -3.8799 N   0  0  0  0  0  0  0  0  0  0  0  0
    3.2590   -9.2507   -2.9921 C   0  0  0  0  0  0  0  0  0  0  0  0
    9.0668   -8.4678   -3.2302 C   0  0  0  0  0  0  0  0  0  0  0  0
    9.8830   -8.0690   -4.2977 C   0  0  0  0  0  0  0  0  0  0  0  0
   11.9157   -6.5081   -7.2614 H   0  0  0  0  0  0  0  0  0  0  0  0
   11.0753   -8.0448   -6.8825 H   0  0  0  0  0  0  0  0  0  0  0  0
   12.2404   -7.3440   -5.7096 H   0  0  0  0  0  0  0  0  0  0  0  0
    8.5792   -4.9687   -4.8164 H   0  0  0  0  0  0  0  0  0  0  0  0
    7.1308   -5.6986   -2.9057 H   0  0  0  0  0  0  0  0  0  0  0  0
    7.1236   -7.2779   -0.8117 H   0  0  0  0  0  0  0  0  0  0  0  0
    7.6226   -8.9655   -1.0808 H   0  0  0  0  0  0  0  0  0  0  0  0
    5.6602   -9.2923   -2.4194 H   0  0  0  0  0  0  0  0  0  0  0  0
    2.8732   -7.9524   -1.3316 H   0  0  0  0  0  0  0  0  0  0  0  0
    2.9119   -5.8217   -2.6940 H   0  0  0  0  0  0  0  0  0  0  0  0
    1.6324   -6.9740   -3.1357 H   0  0  0  0  0  0  0  0  0  0  0  0
    4.2851   -6.5171   -4.6277 H   0  0  0  0  0  0  0  0  0  0  0  0
    2.6630   -6.1186   -5.2176 H   0  0  0  0  0  0  0  0  0  0  0  0
    3.5841   -8.2343   -6.2115 H   0  0  0  0  0  0  0  0  0  0  0  0
    2.0482   -8.4976   -5.3630 H   0  0  0  0  0  0  0  0  0  0  0  0
    4.3364   -9.9241   -6.9721 H   0  0  0  0  0  0  0  0  0  0  0  0
    7.2894  -12.6579   -5.9755 H   0  0  0  0  0  0  0  0  0  0  0  0
    6.9031  -12.1871   -3.5214 H   0  0  0  0  0  0  0  0  0  0  0  0
    3.7642  -10.0544   -2.4461 H   0  0  0  0  0  0  0  0  0  0  0  0
    2.1810   -9.5056   -3.0191 H   0  0  0  0  0  0  0  0  0  0  0  0
    9.2230   -9.4582   -2.7914 H   0  0  0  0  0  0  0  0  0  0  0  0
   10.6499   -8.7503   -4.6668 H   0  0  0  0  0  0  0  0  0  0  0  0
  1  2  1  0
  1 25  1  0
  1 26  1  0
  1 27  1  0
  2  3  1  0
  3  4  2  0
  3 24  1  0
  4  5  1  0
  4 28  1  0
  5  6  2  0
  5 29  1  0
  6  7  1  0
  6 23  1  0
  7  8  1  0
  7 30  1  0
  7 31  1  0
  8  9  1  0
  8 32  1  0
  9 10  2  0
  9 11  1  0
 11 12  1  0
 11 22  1  0
 11 33  1  1
 12 13  1  0
 12 34  1  0
 12 35  1  0
 13 14  1  0
 13 36  1  0
 13 37  1  0
 14 15  1  0
 14 38  1  0
 14 39  1  0
 15 16  1  0
 15 22  1  0
 16 17  2  0
 16 21  1  0
 17 18  1  0
 17 40  1  0
 18 19  2  0
 19 20  1  0
 19 41  1  0
 20 21  2  0
 20 42  1  0
 22 43  1  0
 22 44  1  0
 23 24  2  0
 23 45  1  0
 24 46  1  0
M  END

