
     RDKit          3D

 57 60  0  0  0  0  0  0  0  0999 V2000
    0.7297    0.1869    1.6876 O   0  0  0  0  0  0  0  0  0  0  0  0
    1.7358    0.7283    1.2728 C   0  0  0  0  0  0  0  0  0  0  0  0
    1.7435    1.1765   -0.0556 N   0  0  0  0  0  0  0  0  0  0  0  0
    2.7557    1.4924   -0.9596 C   0  0  0  0  0  0  0  0  0  0  0  0
    4.0184    0.8763   -0.9962 C   0  0  0  0  0  0  0  0  0  0  0  0
    4.3389   -0.1080   -0.1462 F   0  0  0  0  0  0  0  0  0  0  0  0
    4.9267    1.3181   -1.9541 C   0  0  0  0  0  0  0  0  0  0  0  0
    6.1414    0.7704   -1.9704 F   0  0  0  0  0  0  0  0  0  0  0  0
    4.6572    2.2150   -2.8657 N   0  0  0  0  0  0  0  0  0  0  0  0
    3.4520    2.8075   -2.9222 C   0  0  0  0  0  0  0  0  0  0  0  0
    3.2362    3.7609   -3.8961 N   0  0  0  0  0  0  0  0  0  0  0  0
    1.9426    3.8989   -4.5747 C   0  0  0  0  0  0  0  0  0  0  0  0
    1.6874    5.3508   -4.9836 C   0  0  0  0  0  0  0  0  0  0  0  0
    2.8409    5.8960   -5.8317 C   0  0  0  0  0  0  0  0  0  0  0  0
    4.1783    5.6836   -5.1143 C   0  0  0  0  0  0  0  0  0  0  0  0
    4.3718    4.2228   -4.6976 C   0  0  0  0  0  0  0  0  0  0  0  0
    2.4987    2.4696   -1.9331 C   0  0  0  0  0  0  0  0  0  0  0  0
    1.2987    3.0877   -1.8665 F   0  0  0  0  0  0  0  0  0  0  0  0
    2.9092    1.0187    2.1576 C   0  0  0  0  0  0  0  0  0  0  0  0
    3.6860    2.1737    1.9609 C   0  0  0  0  0  0  0  0  0  0  0  0
    4.7302    2.4947    2.8267 C   0  0  0  0  0  0  0  0  0  0  0  0
    5.0046    1.6615    3.9140 C   0  0  0  0  0  0  0  0  0  0  0  0
    4.2134    0.5353    4.1432 C   0  0  0  0  0  0  0  0  0  0  0  0
    3.1641    0.1943    3.2781 C   0  0  0  0  0  0  0  0  0  0  0  0
    2.2749   -0.9539    3.7343 C   0  0  0  0  0  0  0  0  0  0  0  0
    1.6641   -0.8098    4.7825 O   0  0  0  0  0  0  0  0  0  0  0  0
    2.2603   -2.1159    3.0127 N   0  0  0  0  0  0  0  0  0  0  0  0
    3.0194   -2.3667    1.7956 C   0  0  0  0  0  0  0  0  0  0  0  0
    3.7657   -3.7050    1.8770 C   0  0  0  0  0  0  0  0  0  0  0  0
    2.8174   -4.8538    2.2388 C   0  0  0  0  0  0  0  0  0  0  0  0
    2.0344   -4.5245    3.5156 C   0  0  0  0  0  0  0  0  0  0  0  0
    1.3257   -3.1723    3.3960 C   0  0  0  0  0  0  0  0  0  0  0  0
    0.8002    1.2112   -0.4349 H   0  0  0  0  0  0  0  0  0  0  0  0
    1.1389    3.5386   -3.9265 H   0  0  0  0  0  0  0  0  0  0  0  0
    1.9442    3.2578   -5.4821 H   0  0  0  0  0  0  0  0  0  0  0  0
    1.5723    5.9596   -4.0699 H   0  0  0  0  0  0  0  0  0  0  0  0
    0.7334    5.4081   -5.5334 H   0  0  0  0  0  0  0  0  0  0  0  0
    2.6864    6.9635   -6.0591 H   0  0  0  0  0  0  0  0  0  0  0  0
    2.8595    5.3680   -6.8031 H   0  0  0  0  0  0  0  0  0  0  0  0
    4.2197    6.3185   -4.2119 H   0  0  0  0  0  0  0  0  0  0  0  0
    5.0204    5.9858   -5.7586 H   0  0  0  0  0  0  0  0  0  0  0  0
    5.2885    4.0956   -4.1104 H   0  0  0  0  0  0  0  0  0  0  0  0
    4.4843    3.5837   -5.5981 H   0  0  0  0  0  0  0  0  0  0  0  0
    3.4508    2.8500    1.1380 H   0  0  0  0  0  0  0  0  0  0  0  0
    5.3193    3.3994    2.6596 H   0  0  0  0  0  0  0  0  0  0  0  0
    5.8203    1.9023    4.6003 H   0  0  0  0  0  0  0  0  0  0  0  0
    4.3919   -0.0891    5.0213 H   0  0  0  0  0  0  0  0  0  0  0  0
    3.7283   -1.5483    1.6304 H   0  0  0  0  0  0  0  0  0  0  0  0
    2.3295   -2.3816    0.9283 H   0  0  0  0  0  0  0  0  0  0  0  0
    4.5568   -3.6229    2.6434 H   0  0  0  0  0  0  0  0  0  0  0  0
    4.2687   -3.8966    0.9146 H   0  0  0  0  0  0  0  0  0  0  0  0
    3.3784   -5.7957    2.3568 H   0  0  0  0  0  0  0  0  0  0  0  0
    2.1069   -5.0155    1.4066 H   0  0  0  0  0  0  0  0  0  0  0  0
    2.7250   -4.4922    4.3768 H   0  0  0  0  0  0  0  0  0  0  0  0
    1.2896   -5.3087    3.7311 H   0  0  0  0  0  0  0  0  0  0  0  0
    0.8588   -2.8700    4.3410 H   0  0  0  0  0  0  0  0  0  0  0  0
    0.5285   -3.2319    2.6287 H   0  0  0  0  0  0  0  0  0  0  0  0
  1  2  2  0
  2  3  1  0
  2 19  1  0
  3  4  1  0
  3 33  1  0
  4  5  2  0
  4 17  1  0
  5  6  1  0
  5  7  1  0
  7  8  1  0
  7  9  2  0
  9 10  1  0
 10 11  1  0
 10 17  2  0
 11 12  1  0
 11 16  1  0
 12 13  1  0
 12 34  1  0
 12 35  1  0
 13 14  1  0
 13 36  1  0
 13 37  1  0
 14 15  1  0
 14 38  1  0
 14 39  1  0
 15 16  1  0
 15 40  1  0
 15 41  1  0
 16 42  1  0
 16 43  1  0
 17 18  1  0
 19 20  2  0
 19 24  1  0
 20 21  1  0
 20 44  1  0
 21 22  2  0
 21 45  1  0
 22 23  1  0
 22 46  1  0
 23 24  2  0
 23 47  1  0
 24 25  1  0
 25 26  2  0
 25 27  1  0
 27 28  1  0
 27 32  1  0
 28 29  1  0
 28 48  1  0
 28 49  1  0
 29 30  1  0
 29 50  1  0
 29 51  1  0
 30 31  1  0
 30 52  1  0
 30 53  1  0
 31 32  1  0
 31 54  1  0
 31 55  1  0
 32 56  1  0
 32 57  1  0
M  END

