
     RDKit          3D

 48 51  0  0  0  0  0  0  0  0999 V2000
    1.2584    0.9991   -0.7347 C   0  0  0  0  0  0  0  0  0  0  0  0
    2.5268    0.3772   -0.1270 C   0  0  1  0  0  0  0  0  0  0  0  0
    2.2859   -0.1785    1.2025 N   0  0  0  0  0  0  0  0  0  0  0  0
    2.2625    0.5588    2.3504 C   0  0  0  0  0  0  0  0  0  0  0  0
    2.0797   -0.1470    3.4960 N   0  0  0  0  0  0  0  0  0  0  0  0
    2.0689    0.5092    4.6487 C   0  0  0  0  0  0  0  0  0  0  0  0
    1.8843   -0.2112    5.9677 C   0  0  0  0  0  0  0  0  0  0  0  0
    2.0389    0.4330    7.0049 O   0  0  0  0  0  0  0  0  0  0  0  0
    1.5687   -1.5325    6.0032 N   0  0  0  0  0  0  0  0  0  0  0  0
    1.4759   -2.1758    7.3230 C   0  0  0  0  0  0  0  0  0  0  0  0
    1.3365   -3.6640    6.9950 C   0  0  0  0  0  0  0  0  0  0  0  0
    0.6034   -3.6611    5.6456 C   0  0  2  0  0  0  0  0  0  0  0  0
    0.6823   -4.9640    4.8557 C   0  0  0  0  0  0  0  0  0  0  0  0
    0.0879   -4.8679    3.5764 O   0  0  0  0  0  0  0  0  0  0  0  0
    1.2277   -2.4606    4.9147 C   0  0  0  0  0  0  0  0  0  0  0  0
    2.2554    1.9031    4.6759 C   0  0  0  0  0  0  0  0  0  0  0  0
    2.3186    3.0261    6.0102 S   0  0  0  0  0  0  0  0  0  0  0  0
    2.5408    4.3468    4.8896 C   0  0  0  0  0  0  0  0  0  0  0  0
    2.5779    3.9766    3.5762 C   0  0  0  0  0  0  0  0  0  0  0  0
    2.4189    2.5552    3.4221 C   0  0  0  0  0  0  0  0  0  0  0  0
    2.4170    1.8822    2.2617 N   0  0  0  0  0  0  0  0  0  0  0  0
    3.1461   -0.6889   -1.0151 C   0  0  0  0  0  0  0  0  0  0  0  0
    2.4406   -1.8325   -1.4171 C   0  0  0  0  0  0  0  0  0  0  0  0
    3.0730   -2.7774   -2.2258 C   0  0  0  0  0  0  0  0  0  0  0  0
    4.3958   -2.5434   -2.6156 C   0  0  0  0  0  0  0  0  0  0  0  0
    5.0820   -1.4598   -2.2478 N   0  0  0  0  0  0  0  0  0  0  0  0
    4.4692   -0.5669   -1.4690 C   0  0  0  0  0  0  0  0  0  0  0  0
    0.8882    1.7967   -0.0745 H   0  0  0  0  0  0  0  0  0  0  0  0
    0.4606    0.2492   -0.8570 H   0  0  0  0  0  0  0  0  0  0  0  0
    1.4764    1.4364   -1.7218 H   0  0  0  0  0  0  0  0  0  0  0  0
    3.2617    1.1884   -0.0017 H   0  0  0  0  0  0  0  0  0  0  0  0
    2.2061   -1.1805    1.3203 H   0  0  0  0  0  0  0  0  0  0  0  0
    0.5994   -1.7881    7.8728 H   0  0  0  0  0  0  0  0  0  0  0  0
    2.3591   -1.9299    7.9309 H   0  0  0  0  0  0  0  0  0  0  0  0
    0.8046   -4.2201    7.7812 H   0  0  0  0  0  0  0  0  0  0  0  0
    2.3334   -4.1236    6.8765 H   0  0  0  0  0  0  0  0  0  0  0  0
   -0.4644   -3.4343    5.8354 H   0  0  0  0  0  0  0  0  0  0  0  0
    0.2446   -5.7906    5.4519 H   0  0  0  0  0  0  0  0  0  0  0  0
    1.7402   -5.2241    4.6803 H   0  0  0  0  0  0  0  0  0  0  0  0
   -0.8595   -4.7187    3.6948 H   0  0  0  0  0  0  0  0  0  0  0  0
    0.5501   -2.0003    4.1876 H   0  0  0  0  0  0  0  0  0  0  0  0
    2.1291   -2.7647    4.3551 H   0  0  0  0  0  0  0  0  0  0  0  0
    2.6422    5.3594    5.2822 H   0  0  0  0  0  0  0  0  0  0  0  0
    2.7150    4.6553    2.7348 H   0  0  0  0  0  0  0  0  0  0  0  0
    1.4031   -1.9863   -1.1058 H   0  0  0  0  0  0  0  0  0  0  0  0
    2.5507   -3.6793   -2.5537 H   0  0  0  0  0  0  0  0  0  0  0  0
    4.9203   -3.2649   -3.2536 H   0  0  0  0  0  0  0  0  0  0  0  0
    5.0578    0.3130   -1.1786 H   0  0  0  0  0  0  0  0  0  0  0  0
  1  2  1  0
  1 28  1  0
  1 29  1  0
  1 30  1  0
  2  3  1  0
  2 22  1  0
  2 31  1  1
  3  4  1  0
  3 32  1  0
  4  5  2  0
  4 21  1  0
  5  6  1  0
  6  7  1  0
  6 16  2  0
  7  8  2  0
  7  9  1  0
  9 10  1  0
  9 15  1  0
 10 11  1  0
 10 33  1  0
 10 34  1  0
 11 12  1  0
 11 35  1  0
 11 36  1  0
 12 13  1  0
 12 15  1  0
 12 37  1  1
 13 14  1  0
 13 38  1  0
 13 39  1  0
 14 40  1  0
 15 41  1  0
 15 42  1  0
 16 17  1  0
 16 20  1  0
 17 18  1  0
 18 19  2  0
 18 43  1  0
 19 20  1  0
 19 44  1  0
 20 21  2  0
 22 23  2  0
 22 27  1  0
 23 24  1  0
 23 45  1  0
 24 25  2  0
 24 46  1  0
 25 26  1  0
 25 47  1  0
 26 27  2  0
 27 48  1  0
M  END

