
     RDKit          3D

 50 52  0  0  0  0  0  0  0  0999 V2000
    1.5381   -0.3556   -0.9282 C   0  0  0  0  0  0  0  0  0  0  0  0
    2.7003   -0.0272   -0.1725 O   0  0  0  0  0  0  0  0  0  0  0  0
    3.0074   -0.7584    0.9709 C   0  0  2  0  0  0  0  0  0  0  0  0
    4.4393   -0.7748    1.0276 N   0  0  0  0  0  0  0  0  0  0  0  0
    5.1489   -1.5067    1.9372 C   0  0  0  0  0  0  0  0  0  0  0  0
    4.6033   -2.1314    2.8328 O   0  0  0  0  0  0  0  0  0  0  0  0
    6.6705   -1.4785    1.7538 C   0  0  0  0  0  0  0  0  0  0  0  0
    7.1516   -2.1870    0.5037 C   0  0  0  0  0  0  0  0  0  0  0  0
    7.5923   -3.5161    0.5436 C   0  0  0  0  0  0  0  0  0  0  0  0
    8.0427   -4.1742   -0.6046 C   0  0  0  0  0  0  0  0  0  0  0  0
    8.0574   -3.4973   -1.8256 C   0  0  0  0  0  0  0  0  0  0  0  0
    7.6167   -2.1731   -1.8947 C   0  0  0  0  0  0  0  0  0  0  0  0
    7.1628   -1.5275   -0.7408 C   0  0  0  0  0  0  0  0  0  0  0  0
    6.7017   -0.2347   -0.7679 O   0  0  0  0  0  0  0  0  0  0  0  0
    2.2551   -2.1203    1.1537 C   0  0  0  0  0  0  0  0  0  0  0  0
    2.2086   -3.1720    0.5461 O   0  0  0  0  0  0  0  0  0  0  0  0
    1.5750   -1.6564    2.2471 N   0  0  0  0  0  0  0  0  0  0  0  0
    0.4958   -2.0589    3.0578 C   0  0  0  0  0  0  0  0  0  0  0  0
    0.2021   -3.5540    3.2024 C   0  0  0  0  0  0  0  0  0  0  0  0
   -0.4253   -3.9756    4.1436 O   0  0  0  0  0  0  0  0  0  0  0  0
    0.6486   -4.3765    2.2654 O   0  0  0  0  0  0  0  0  0  0  0  0
   -0.2016   -1.0987    3.7292 C   0  0  0  0  0  0  0  0  0  0  0  0
   -1.3432   -1.4227    4.6786 C   0  0  0  0  0  0  0  0  0  0  0  0
   -2.5369   -1.8560    3.9960 O   0  0  0  0  0  0  0  0  0  0  0  0
   -3.3462   -0.9185    3.4727 C   0  0  0  0  0  0  0  0  0  0  0  0
   -4.5694   -1.5479    2.8543 C   0  0  0  0  0  0  0  0  0  0  0  0
   -3.1148    0.2682    3.5061 O   0  0  0  0  0  0  0  0  0  0  0  0
    0.0751    0.3903    3.6367 C   0  0  0  0  0  0  0  0  0  0  0  0
    1.0434    1.0063    2.2083 S   0  0  0  0  0  0  0  0  0  0  0  0
    2.2424   -0.3554    2.2948 C   0  0  2  0  0  0  0  0  0  0  0  0
    2.8895   -0.2681    3.1786 H   0  0  0  0  0  0  0  0  0  0  0  0
    1.5172    0.3528   -1.7673 H   0  0  0  0  0  0  0  0  0  0  0  0
    0.6192   -0.2264   -0.3350 H   0  0  0  0  0  0  0  0  0  0  0  0
    1.5923   -1.3839   -1.3205 H   0  0  0  0  0  0  0  0  0  0  0  0
    4.9202   -0.3209    0.2523 H   0  0  0  0  0  0  0  0  0  0  0  0
    7.0872   -1.9612    2.6465 H   0  0  0  0  0  0  0  0  0  0  0  0
    7.0019   -0.4275    1.7375 H   0  0  0  0  0  0  0  0  0  0  0  0
    7.5841   -4.0412    1.5025 H   0  0  0  0  0  0  0  0  0  0  0  0
    8.3822   -5.2104   -0.5433 H   0  0  0  0  0  0  0  0  0  0  0  0
    8.4089   -3.9965   -2.7317 H   0  0  0  0  0  0  0  0  0  0  0  0
    7.6188   -1.6378   -2.8496 H   0  0  0  0  0  0  0  0  0  0  0  0
    6.7963    0.1304   -1.6580 H   0  0  0  0  0  0  0  0  0  0  0  0
    1.2000   -3.9807    1.5392 H   0  0  0  0  0  0  0  0  0  0  0  0
   -1.5844   -0.5295    5.2730 H   0  0  0  0  0  0  0  0  0  0  0  0
   -1.0808   -2.2608    5.3278 H   0  0  0  0  0  0  0  0  0  0  0  0
   -5.1289   -2.1068    3.6201 H   0  0  0  0  0  0  0  0  0  0  0  0
   -4.2668   -2.2735    2.0840 H   0  0  0  0  0  0  0  0  0  0  0  0
   -5.2038   -0.7688    2.4156 H   0  0  0  0  0  0  0  0  0  0  0  0
    0.5562    0.7239    4.5744 H   0  0  0  0  0  0  0  0  0  0  0  0
   -0.8945    0.9067    3.5754 H   0  0  0  0  0  0  0  0  0  0  0  0
  1  2  1  0
  1 32  1  0
  1 33  1  0
  1 34  1  0
  3  2  1  6
  3  4  1  0
  3 15  1  0
  3 30  1  0
  4  5  1  0
  4 35  1  0
  5  6  2  0
  5  7  1  0
  7  8  1  0
  7 36  1  0
  7 37  1  0
  8  9  2  0
  8 13  1  0
  9 10  1  0
  9 38  1  0
 10 11  2  0
 10 39  1  0
 11 12  1  0
 11 40  1  0
 12 13  2  0
 12 41  1  0
 13 14  1  0
 14 42  1  0
 15 16  2  0
 15 17  1  0
 17 18  1  0
 17 30  1  0
 18 19  1  0
 18 22  2  0
 19 20  2  0
 19 21  1  0
 21 43  1  0
 22 23  1  0
 22 28  1  0
 23 24  1  0
 23 44  1  0
 23 45  1  0
 24 25  1  0
 25 26  1  0
 25 27  2  0
 26 46  1  0
 26 47  1  0
 26 48  1  0
 28 29  1  0
 28 49  1  0
 28 50  1  0
 29 30  1  0
 30 31  1  1
M  END

