
     RDKit          3D

 89 92  0  0  0  0  0  0  0  0999 V2000
   -5.9602    5.2236   -6.2431 C   0  0  0  0  0  0  0  0  0  0  0  0
   -5.8874    4.2403   -5.0951 C   0  0  0  0  0  0  0  0  0  0  0  0
   -7.0216    3.4762   -4.7722 C   0  0  0  0  0  0  0  0  0  0  0  0
   -7.0149    2.5616   -3.7183 C   0  0  0  0  0  0  0  0  0  0  0  0
   -5.8565    2.3980   -2.9555 C   0  0  0  0  0  0  0  0  0  0  0  0
   -4.7202    3.1478   -3.2609 C   0  0  0  0  0  0  0  0  0  0  0  0
   -4.7153    4.0656   -4.3244 C   0  0  0  0  0  0  0  0  0  0  0  0
   -3.4498    4.8643   -4.6014 C   0  0  0  0  0  0  0  0  0  0  0  0
   -2.2564    4.0350   -4.6862 N   0  0  0  0  0  0  0  0  0  0  0  0
   -1.2349    4.1135   -3.7940 C   0  0  0  0  0  0  0  0  0  0  0  0
   -1.1722    4.9296   -2.8867 O   0  0  0  0  0  0  0  0  0  0  0  0
   -0.1351    3.0445   -3.9631 C   0  0  2  0  0  0  0  0  0  0  0  0
    0.6674    3.3070   -3.2645 H   0  0  0  0  0  0  0  0  0  0  0  0
    0.3964    2.8820   -5.4095 C   0  0  1  0  0  0  0  0  0  0  0  0
    0.2683    3.8084   -5.9885 H   0  0  0  0  0  0  0  0  0  0  0  0
    1.8444    2.4108   -5.4764 C   0  0  0  0  0  0  0  0  0  0  0  0
   -0.5241    1.9290   -5.9646 O   0  0  0  0  0  0  0  0  0  0  0  0
   -0.7427    0.9472   -4.9836 C   0  0  0  0  0  0  0  0  0  0  0  0
   -0.6480    1.6917   -3.7163 N   0  0  0  0  0  0  0  0  0  0  0  0
   -1.0228    1.1165   -2.5579 C   0  0  0  0  0  0  0  0  0  0  0  0
   -1.4571   -0.0396   -2.5229 O   0  0  0  0  0  0  0  0  0  0  0  0
   -0.9142    1.8682   -1.2218 C   0  0  1  0  0  0  0  0  0  0  0  0
   -0.8527    2.9580   -1.3560 H   0  0  0  0  0  0  0  0  0  0  0  0
   -2.0924    1.5928   -0.4997 O   0  0  0  0  0  0  0  0  0  0  0  0
    0.3504    1.3662   -0.4605 C   0  0  2  0  0  0  0  0  0  0  0  0
    0.3098    0.2677   -0.4713 H   0  0  0  0  0  0  0  0  0  0  0  0
    0.3671    1.8081    1.0236 C   0  0  0  0  0  0  0  0  0  0  0  0
    0.5136    3.2986    1.2444 C   0  0  0  0  0  0  0  0  0  0  0  0
   -0.6114    4.1423    1.2358 C   0  0  0  0  0  0  0  0  0  0  0  0
   -0.4715    5.5212    1.4110 C   0  0  0  0  0  0  0  0  0  0  0  0
    0.7950    6.0828    1.6007 C   0  0  0  0  0  0  0  0  0  0  0  0
    1.9212    5.2559    1.6168 C   0  0  0  0  0  0  0  0  0  0  0  0
    1.7802    3.8756    1.4403 C   0  0  0  0  0  0  0  0  0  0  0  0
    1.5531    1.7891   -1.1642 N   0  0  0  0  0  0  0  0  0  0  0  0
    2.5329    1.0738   -1.7852 C   0  0  0  0  0  0  0  0  0  0  0  0
    3.4619    1.6674   -2.3332 O   0  0  0  0  0  0  0  0  0  0  0  0
    2.4302   -0.4654   -1.8198 C   0  0  1  0  0  0  0  0  0  0  0  0
    2.0652   -0.8170   -0.8361 H   0  0  0  0  0  0  0  0  0  0  0  0
    1.5485   -0.8533   -2.9306 N   0  0  0  0  0  0  0  0  0  0  0  0
    3.8238   -1.0808   -2.0307 C   0  0  0  0  0  0  0  0  0  0  0  0
    4.8482   -0.7334   -0.9761 C   0  0  0  0  0  0  0  0  0  0  0  0
    5.4616   -1.7266   -0.3629 O   0  0  0  0  0  0  0  0  0  0  0  0
    5.6489    0.4014   -1.1934 N   0  0  0  0  0  0  0  0  0  0  0  0
    6.8175    0.5021   -0.5368 C   0  0  0  0  0  0  0  0  0  0  0  0
    7.2567   -0.4016    0.1885 O   0  0  0  0  0  0  0  0  0  0  0  0
    7.4451    1.6709   -0.7334 O   0  0  0  0  0  0  0  0  0  0  0  0
    8.6666    1.9102    0.0071 C   0  0  0  0  0  0  0  0  0  0  0  0
    8.4044    2.5797    1.3341 C   0  0  0  0  0  0  0  0  0  0  0  0
    8.0764    1.8199    2.4695 C   0  0  0  0  0  0  0  0  0  0  0  0
    7.8127    2.4492    3.6884 C   0  0  0  0  0  0  0  0  0  0  0  0
    7.8757    3.8430    3.7894 C   0  0  0  0  0  0  0  0  0  0  0  0
    8.2028    4.6071    2.6652 C   0  0  0  0  0  0  0  0  0  0  0  0
    8.4642    3.9772    1.4455 C   0  0  0  0  0  0  0  0  0  0  0  0
   -6.9474    5.1846   -6.7257 H   0  0  0  0  0  0  0  0  0  0  0  0
   -5.2068    5.0136   -7.0210 H   0  0  0  0  0  0  0  0  0  0  0  0
   -5.7983    6.2627   -5.9110 H   0  0  0  0  0  0  0  0  0  0  0  0
   -7.9305    3.6049   -5.3670 H   0  0  0  0  0  0  0  0  0  0  0  0
   -7.9131    1.9808   -3.4932 H   0  0  0  0  0  0  0  0  0  0  0  0
   -5.8352    1.6926   -2.1211 H   0  0  0  0  0  0  0  0  0  0  0  0
   -3.8223    3.0184   -2.6505 H   0  0  0  0  0  0  0  0  0  0  0  0
   -3.2597    5.5792   -3.7858 H   0  0  0  0  0  0  0  0  0  0  0  0
   -3.5517    5.4501   -5.5260 H   0  0  0  0  0  0  0  0  0  0  0  0
   -2.2080    3.3141   -5.4022 H   0  0  0  0  0  0  0  0  0  0  0  0
    2.5181    3.1979   -5.1051 H   0  0  0  0  0  0  0  0  0  0  0  0
    2.1114    2.1839   -6.5196 H   0  0  0  0  0  0  0  0  0  0  0  0
    2.0159    1.5149   -4.8610 H   0  0  0  0  0  0  0  0  0  0  0  0
    0.0220    0.1503   -4.9954 H   0  0  0  0  0  0  0  0  0  0  0  0
   -1.7406    0.5039   -5.1156 H   0  0  0  0  0  0  0  0  0  0  0  0
   -2.3350    0.6802   -0.7406 H   0  0  0  0  0  0  0  0  0  0  0  0
    1.1996    1.2762    1.5110 H   0  0  0  0  0  0  0  0  0  0  0  0
   -0.5679    1.4501    1.4770 H   0  0  0  0  0  0  0  0  0  0  0  0
   -1.6034    3.7082    1.0874 H   0  0  0  0  0  0  0  0  0  0  0  0
   -1.3578    6.1607    1.3977 H   0  0  0  0  0  0  0  0  0  0  0  0
    0.9029    7.1617    1.7380 H   0  0  0  0  0  0  0  0  0  0  0  0
    2.9150    5.6837    1.7725 H   0  0  0  0  0  0  0  0  0  0  0  0
    2.6664    3.2348    1.4687 H   0  0  0  0  0  0  0  0  0  0  0  0
    1.7523    2.7886   -1.1420 H   0  0  0  0  0  0  0  0  0  0  0  0
    0.5689   -0.9024   -2.6465 H   0  0  0  0  0  0  0  0  0  0  0  0
    1.8010   -1.7843   -3.2608 H   0  0  0  0  0  0  0  0  0  0  0  0
    4.1834   -0.7898   -3.0360 H   0  0  0  0  0  0  0  0  0  0  0  0
    3.7113   -2.1772   -2.0230 H   0  0  0  0  0  0  0  0  0  0  0  0
    5.2343    1.1832   -1.7075 H   0  0  0  0  0  0  0  0  0  0  0  0
    9.2571    2.5636   -0.6488 H   0  0  0  0  0  0  0  0  0  0  0  0
    9.1915    0.9540    0.1377 H   0  0  0  0  0  0  0  0  0  0  0  0
    8.0184    0.7320    2.3862 H   0  0  0  0  0  0  0  0  0  0  0  0
    7.5598    1.8478    4.5654 H   0  0  0  0  0  0  0  0  0  0  0  0
    7.6726    4.3333    4.7450 H   0  0  0  0  0  0  0  0  0  0  0  0
    8.2563    5.6964    2.7386 H   0  0  0  0  0  0  0  0  0  0  0  0
    8.7206    4.5779    0.5678 H   0  0  0  0  0  0  0  0  0  0  0  0
  1  2  1  0
  1 54  1  0
  1 55  1  0
  1 56  1  0
  2  3  2  0
  2  7  1  0
  3  4  1  0
  3 57  1  0
  4  5  2  0
  4 58  1  0
  5  6  1  0
  5 59  1  0
  6  7  2  0
  6 60  1  0
  7  8  1  0
  8  9  1  0
  8 61  1  0
  8 62  1  0
  9 10  1  0
  9 63  1  0
 10 11  2  0
 10 12  1  0
 12 13  1  1
 12 14  1  0
 12 19  1  0
 14 15  1  6
 14 16  1  0
 14 17  1  0
 16 64  1  0
 16 65  1  0
 16 66  1  0
 17 18  1  0
 18 19  1  0
 18 67  1  0
 18 68  1  0
 19 20  1  0
 20 21  2  0
 20 22  1  0
 22 23  1  6
 22 24  1  0
 22 25  1  0
 24 69  1  0
 25 26  1  1
 25 27  1  0
 25 34  1  0
 27 28  1  0
 27 70  1  0
 27 71  1  0
 28 29  2  0
 28 33  1  0
 29 30  1  0
 29 72  1  0
 30 31  2  0
 30 73  1  0
 31 32  1  0
 31 74  1  0
 32 33  2  0
 32 75  1  0
 33 76  1  0
 34 35  1  0
 34 77  1  0
 35 36  2  0
 35 37  1  0
 37 38  1  1
 37 39  1  0
 37 40  1  0
 39 78  1  0
 39 79  1  0
 40 41  1  0
 40 80  1  0
 40 81  1  0
 41 42  2  0
 41 43  1  0
 43 44  1  0
 43 82  1  0
 44 45  2  0
 44 46  1  0
 46 47  1  0
 47 48  1  0
 47 83  1  0
 47 84  1  0
 48 49  2  0
 48 53  1  0
 49 50  1  0
 49 85  1  0
 50 51  2  0
 50 86  1  0
 51 52  1  0
 51 87  1  0
 52 53  2  0
 52 88  1  0
 53 89  1  0
M  END

