
     RDKit          3D

 66 71  0  0  0  0  0  0  0  0999 V2000
    1.3248   -0.1519    0.4902 C   0  0  0  0  0  0  0  0  0  0  0  0
    2.8036   -0.1518    0.1811 C   0  0  0  0  0  0  0  0  0  0  0  0
    3.4193    1.0776    0.0402 C   0  0  0  0  0  0  0  0  0  0  0  0
    4.7879    1.2135   -0.2987 C   0  0  0  0  0  0  0  0  0  0  0  0
    5.3113    2.4614   -0.4095 N   0  0  0  0  0  0  0  0  0  0  0  0
    6.5860    2.6059   -0.7374 C   0  0  0  0  0  0  0  0  0  0  0  0
    7.1034    3.9754   -0.8462 C   0  0  0  0  0  0  0  0  0  0  0  0
    8.4098    4.4463   -1.1702 C   0  0  0  0  0  0  0  0  0  0  0  0
    8.4748    5.7719   -1.1671 N   0  0  0  0  0  0  0  0  0  0  0  0
    7.2319    6.1685   -0.8467 N   0  0  0  0  0  0  0  0  0  0  0  0
    7.0307    7.1593   -0.7833 H   0  0  0  0  0  0  0  0  0  0  0  0
    6.3730    5.1430   -0.6444 C   0  0  0  0  0  0  0  0  0  0  0  0
    7.4338    1.4811   -0.9785 C   0  0  0  0  0  0  0  0  0  0  0  0
    6.9204    0.2114   -0.8672 C   0  0  0  0  0  0  0  0  0  0  0  0
    5.5545    0.0271   -0.5148 C   0  0  0  0  0  0  0  0  0  0  0  0
    4.9304   -1.2512   -0.3688 C   0  0  0  0  0  0  0  0  0  0  0  0
    5.7694   -2.4691   -0.6240 C   0  0  0  0  0  0  0  0  0  0  0  0
    6.4317   -3.1305    0.4004 C   0  0  0  0  0  0  0  0  0  0  0  0
    7.2323   -4.2737    0.1801 C   0  0  0  0  0  0  0  0  0  0  0  0
    7.3858   -4.7710   -1.1007 C   0  0  0  0  0  0  0  0  0  0  0  0
    6.7549   -4.1093   -2.1961 C   0  0  0  0  0  0  0  0  0  0  0  0
    6.9580   -4.5522   -3.5335 C   0  0  0  0  0  0  0  0  0  0  0  0
    6.3159   -3.8697   -4.5465 C   0  0  0  0  0  0  0  0  0  0  0  0
    5.4993   -2.7579   -4.2123 C   0  0  0  0  0  0  0  0  0  0  0  0
    5.3180   -2.3131   -2.9886 N   0  0  0  0  0  0  0  0  0  0  0  0
    5.9353   -2.9577   -1.9617 C   0  0  0  0  0  0  0  0  0  0  0  0
    7.8967   -5.7156   -3.7336 C   0  0  0  0  0  0  0  0  0  0  0  0
    7.8893   -6.6108   -2.4982 C   0  0  0  0  0  0  0  0  0  0  0  0
    8.1521   -5.8743   -1.3045 O   0  0  0  0  0  0  0  0  0  0  0  0
    3.5814   -1.3499   -0.0060 C   0  0  0  0  0  0  0  0  0  0  0  0
    3.0301   -2.7631    0.1535 C   0  0  1  0  0  0  0  0  0  0  0  0
    3.2614   -3.4715    1.3899 O   0  0  0  0  0  0  0  0  0  0  0  0
    3.0433   -3.0416    2.7687 C   0  0  1  0  0  0  0  0  0  0  0  0
    1.5491   -3.0353    3.1252 C   0  0  0  0  0  0  0  0  0  0  0  0
    3.7527   -4.1496    3.5591 C   0  0  0  0  0  0  0  0  0  0  0  0
    3.6853   -1.6886    3.0985 C   0  0  0  0  0  0  0  0  0  0  0  0
    1.6198   -3.0580   -0.3964 C   0  0  0  0  0  0  0  0  0  0  0  0
    1.1217   -2.4881   -1.3291 O   0  0  0  0  0  0  0  0  0  0  0  0
    1.0558   -4.1286    0.1827 O   0  0  0  0  0  0  0  0  0  0  0  0
    1.0275    0.8099    0.9324 H   0  0  0  0  0  0  0  0  0  0  0  0
    1.0258   -0.9461    1.1862 H   0  0  0  0  0  0  0  0  0  0  0  0
    0.7409   -0.3123   -0.4282 H   0  0  0  0  0  0  0  0  0  0  0  0
    2.8537    2.0008    0.1831 H   0  0  0  0  0  0  0  0  0  0  0  0
    9.3026    3.8673   -1.4047 H   0  0  0  0  0  0  0  0  0  0  0  0
    5.3279    5.2792   -0.3792 H   0  0  0  0  0  0  0  0  0  0  0  0
    8.4802    1.6322   -1.2486 H   0  0  0  0  0  0  0  0  0  0  0  0
    7.5573   -0.6568   -1.0449 H   0  0  0  0  0  0  0  0  0  0  0  0
    6.3262   -2.7612    1.4220 H   0  0  0  0  0  0  0  0  0  0  0  0
    7.7251   -4.7828    1.0102 H   0  0  0  0  0  0  0  0  0  0  0  0
    6.4302   -4.1684   -5.5917 H   0  0  0  0  0  0  0  0  0  0  0  0
    4.9794   -2.2161   -5.0128 H   0  0  0  0  0  0  0  0  0  0  0  0
    8.9202   -5.3328   -3.9002 H   0  0  0  0  0  0  0  0  0  0  0  0
    7.6256   -6.3005   -4.6270 H   0  0  0  0  0  0  0  0  0  0  0  0
    8.6703   -7.3814   -2.5519 H   0  0  0  0  0  0  0  0  0  0  0  0
    6.9098   -7.1162   -2.4011 H   0  0  0  0  0  0  0  0  0  0  0  0
    3.6353   -3.3697   -0.5402 H   0  0  0  0  0  0  0  0  0  0  0  0
    1.0962   -4.0294    2.9889 H   0  0  0  0  0  0  0  0  0  0  0  0
    0.9795   -2.3167    2.5210 H   0  0  0  0  0  0  0  0  0  0  0  0
    1.4189   -2.7532    4.1816 H   0  0  0  0  0  0  0  0  0  0  0  0
    3.3381   -5.1350    3.2980 H   0  0  0  0  0  0  0  0  0  0  0  0
    3.6286   -3.9948    4.6418 H   0  0  0  0  0  0  0  0  0  0  0  0
    4.8274   -4.1605    3.3254 H   0  0  0  0  0  0  0  0  0  0  0  0
    3.1545   -0.8417    2.6475 H   0  0  0  0  0  0  0  0  0  0  0  0
    4.7308   -1.6527    2.7624 H   0  0  0  0  0  0  0  0  0  0  0  0
    3.6736   -1.5457    4.1905 H   0  0  0  0  0  0  0  0  0  0  0  0
    1.6906   -4.4239    0.8664 H   0  0  0  0  0  0  0  0  0  0  0  0
  1  2  1  0
  1 40  1  0
  1 41  1  0
  1 42  1  0
  2  3  2  0
  2 30  1  0
  3  4  1  0
  3 43  1  0
  4  5  2  0
  4 15  1  0
  5  6  1  0
  6  7  1  0
  6 13  2  0
  7  8  1  0
  7 12  2  0
  8  9  2  0
  8 44  1  0
  9 10  1  0
 10 11  1  0
 10 12  1  0
 12 45  1  0
 13 14  1  0
 13 46  1  0
 14 15  2  0
 14 47  1  0
 15 16  1  0
 16 17  1  0
 16 30  2  0
 17 18  2  0
 17 26  1  0
 18 19  1  0
 18 48  1  0
 19 20  2  0
 19 49  1  0
 20 21  1  0
 20 29  1  0
 21 22  1  0
 21 26  2  0
 22 23  2  0
 22 27  1  0
 23 24  1  0
 23 50  1  0
 24 25  2  0
 24 51  1  0
 25 26  1  0
 27 28  1  0
 27 52  1  0
 27 53  1  0
 28 29  1  0
 28 54  1  0
 28 55  1  0
 30 31  1  0
 31 32  1  0
 31 37  1  0
 31 56  1  6
 33 32  1  6
 33 34  1  0
 33 35  1  0
 33 36  1  0
 34 57  1  0
 34 58  1  0
 34 59  1  0
 35 60  1  0
 35 61  1  0
 35 62  1  0
 36 63  1  0
 36 64  1  0
 36 65  1  0
 37 38  2  0
 37 39  1  0
 39 66  1  0
M  END

