
     RDKit          3D

 80 86  0  0  0  0  0  0  0  0999 V2000
    3.5064    1.5715   -2.4947 C   0  0  0  0  0  0  0  0  0  0  0  0
    4.4543    0.6879   -1.7045 C   0  0  0  0  0  0  0  0  0  0  0  0
    5.3441    0.0740   -2.2603 O   0  0  0  0  0  0  0  0  0  0  0  0
    4.2750    0.5885   -0.2142 C   0  0  0  0  0  0  0  0  0  0  0  0
    3.2730    1.2769    0.4881 C   0  0  0  0  0  0  0  0  0  0  0  0
    3.1507    1.1486    1.8712 C   0  0  0  0  0  0  0  0  0  0  0  0
    4.0419    0.3273    2.5763 C   0  0  0  0  0  0  0  0  0  0  0  0
    3.9218    0.2013    3.9941 N   0  0  0  0  0  0  0  0  0  0  0  0
    3.6519    1.2853    4.8577 C   0  0  0  0  0  0  0  0  0  0  0  0
    3.4692    2.4235    4.5068 O   0  0  0  0  0  0  0  0  0  0  0  0
    3.6671    0.7708    6.2898 C   0  0  2  0  0  0  0  0  0  0  0  0
    4.7984    1.4224    7.1179 C   0  0  0  0  0  0  0  0  0  0  0  0
    4.9921    0.6728    8.4081 C   0  0  0  0  0  0  0  0  0  0  0  0
    4.9879   -0.6694    8.4267 C   0  0  0  0  0  0  0  0  0  0  0  0
    4.8582   -1.4151    7.1006 C   0  0  1  0  0  0  0  0  0  0  0  0
    4.6049   -2.9158    7.2889 C   0  0  0  0  0  0  0  0  0  0  0  0
    5.6648   -3.5446    8.2026 C   0  0  2  0  0  0  0  0  0  0  0  0
    5.2116   -4.8704    8.7975 C   0  0  0  0  0  0  0  0  0  0  0  0
    4.6424   -5.7617    8.2195 O   0  0  0  0  0  0  0  0  0  0  0  0
    5.5948   -4.8972   10.1520 N   0  0  0  0  0  0  0  0  0  0  0  0
    5.4267   -6.0379   10.9993 C   0  0  0  0  0  0  0  0  0  0  0  0
    5.7728   -7.3119   10.5292 C   0  0  0  0  0  0  0  0  0  0  0  0
    5.6057   -8.4236   11.3571 C   0  0  0  0  0  0  0  0  0  0  0  0
    5.1043   -8.2712   12.6529 C   0  0  0  0  0  0  0  0  0  0  0  0
    4.7630   -6.9976   13.1171 C   0  0  0  0  0  0  0  0  0  0  0  0
    4.9169   -5.8800   12.2945 C   0  0  0  0  0  0  0  0  0  0  0  0
    6.1733   -3.6913   10.5690 C   0  0  0  0  0  0  0  0  0  0  0  0
    6.6389   -3.4885   11.6653 O   0  0  0  0  0  0  0  0  0  0  0  0
    6.1459   -2.6907    9.4040 C   0  0  1  0  0  0  0  0  0  0  0  0
    7.5803   -2.1604    9.2159 C   0  0  0  0  0  0  0  0  0  0  0  0
    5.1957   -1.4648    9.7115 C   0  0  2  0  0  0  0  0  0  0  0  0
    3.8982   -1.7679   10.4775 C   0  0  0  0  0  0  0  0  0  0  0  0
    3.9493   -1.9165   11.8732 C   0  0  0  0  0  0  0  0  0  0  0  0
    2.8039   -2.1489   12.6414 C   0  0  0  0  0  0  0  0  0  0  0  0
    1.5504   -2.2283   12.0182 C   0  0  0  0  0  0  0  0  0  0  0  0
    0.3783   -2.4448   12.6699 O   0  0  0  0  0  0  0  0  0  0  0  0
    0.3674   -2.6270   14.0798 C   0  0  0  0  0  0  0  0  0  0  0  0
   -1.0729   -2.9121   14.4688 C   0  0  0  0  0  0  0  0  0  0  0  0
   -1.5574   -4.0865   13.8689 O   0  0  0  0  0  0  0  0  0  0  0  0
    1.4732   -2.0535   10.6279 C   0  0  0  0  0  0  0  0  0  0  0  0
    2.6252   -1.8217    9.8815 C   0  0  0  0  0  0  0  0  0  0  0  0
    3.7984   -0.7575    6.1724 C   0  0  2  0  0  0  0  0  0  0  0  0
    4.0763   -1.0131    4.6919 C   0  0  0  0  0  0  0  0  0  0  0  0
    4.3746   -2.0670    4.1858 O   0  0  0  0  0  0  0  0  0  0  0  0
    5.0508   -0.3653    1.8872 C   0  0  0  0  0  0  0  0  0  0  0  0
    5.1576   -0.2332    0.5066 C   0  0  0  0  0  0  0  0  0  0  0  0
    3.7816    1.5226   -3.5558 H   0  0  0  0  0  0  0  0  0  0  0  0
    3.5601    2.6172   -2.1507 H   0  0  0  0  0  0  0  0  0  0  0  0
    2.4626    1.2401   -2.3715 H   0  0  0  0  0  0  0  0  0  0  0  0
    2.5694    1.9237   -0.0389 H   0  0  0  0  0  0  0  0  0  0  0  0
    2.3743    1.6956    2.4036 H   0  0  0  0  0  0  0  0  0  0  0  0
    2.7093    1.0556    6.7513 H   0  0  0  0  0  0  0  0  0  0  0  0
    4.5662    2.4834    7.2862 H   0  0  0  0  0  0  0  0  0  0  0  0
    5.7355    1.4033    6.5277 H   0  0  0  0  0  0  0  0  0  0  0  0
    5.1361    1.2409    9.3327 H   0  0  0  0  0  0  0  0  0  0  0  0
    5.8348   -1.3097    6.5877 H   0  0  0  0  0  0  0  0  0  0  0  0
    4.6065   -3.4185    6.3132 H   0  0  0  0  0  0  0  0  0  0  0  0
    3.6029   -3.0739    7.7136 H   0  0  0  0  0  0  0  0  0  0  0  0
    6.5437   -3.7943    7.5817 H   0  0  0  0  0  0  0  0  0  0  0  0
    6.1574   -7.4334    9.5167 H   0  0  0  0  0  0  0  0  0  0  0  0
    5.8722   -9.4156   10.9842 H   0  0  0  0  0  0  0  0  0  0  0  0
    4.9780   -9.1434   13.2990 H   0  0  0  0  0  0  0  0  0  0  0  0
    4.3685   -6.8702   14.1282 H   0  0  0  0  0  0  0  0  0  0  0  0
    4.6468   -4.8878   12.6538 H   0  0  0  0  0  0  0  0  0  0  0  0
    8.2705   -2.9739    8.9424 H   0  0  0  0  0  0  0  0  0  0  0  0
    7.9427   -1.7123   10.1524 H   0  0  0  0  0  0  0  0  0  0  0  0
    7.6192   -1.3971    8.4244 H   0  0  0  0  0  0  0  0  0  0  0  0
    5.7767   -0.8230   10.3901 H   0  0  0  0  0  0  0  0  0  0  0  0
    4.9121   -1.8510   12.3839 H   0  0  0  0  0  0  0  0  0  0  0  0
    2.9038   -2.2518   13.7220 H   0  0  0  0  0  0  0  0  0  0  0  0
    0.7431   -1.7222   14.5937 H   0  0  0  0  0  0  0  0  0  0  0  0
    1.0091   -3.4833   14.3564 H   0  0  0  0  0  0  0  0  0  0  0  0
   -1.6922   -2.0269   14.2151 H   0  0  0  0  0  0  0  0  0  0  0  0
   -1.1268   -3.0489   15.5611 H   0  0  0  0  0  0  0  0  0  0  0  0
   -1.4156   -3.9913   12.9162 H   0  0  0  0  0  0  0  0  0  0  0  0
    0.4920   -2.0914   10.1503 H   0  0  0  0  0  0  0  0  0  0  0  0
    2.5139   -1.6543    8.8102 H   0  0  0  0  0  0  0  0  0  0  0  0
    2.8240   -1.2319    6.3809 H   0  0  0  0  0  0  0  0  0  0  0  0
    5.7381   -1.0117    2.4304 H   0  0  0  0  0  0  0  0  0  0  0  0
    5.9341   -0.7638   -0.0474 H   0  0  0  0  0  0  0  0  0  0  0  0
  1  2  1  0
  1 47  1  0
  1 48  1  0
  1 49  1  0
  2  3  2  0
  2  4  1  0
  4  5  2  0
  4 46  1  0
  5  6  1  0
  5 50  1  0
  6  7  2  0
  6 51  1  0
  7  8  1  0
  7 45  1  0
  8  9  1  0
  8 43  1  0
  9 10  2  0
  9 11  1  0
 11 12  1  0
 11 42  1  0
 11 52  1  1
 12 13  1  0
 12 53  1  0
 12 54  1  0
 13 14  2  0
 13 55  1  0
 14 15  1  0
 14 31  1  0
 15 16  1  0
 15 42  1  0
 15 56  1  6
 16 17  1  0
 16 57  1  0
 16 58  1  0
 17 18  1  0
 17 29  1  0
 17 59  1  6
 18 19  2  0
 18 20  1  0
 20 21  1  0
 20 27  1  0
 21 22  2  0
 21 26  1  0
 22 23  1  0
 22 60  1  0
 23 24  2  0
 23 61  1  0
 24 25  1  0
 24 62  1  0
 25 26  2  0
 25 63  1  0
 26 64  1  0
 27 28  2  0
 27 29  1  0
 29 30  1  6
 29 31  1  0
 30 65  1  0
 30 66  1  0
 30 67  1  0
 31 32  1  0
 31 68  1  1
 32 33  2  0
 32 41  1  0
 33 34  1  0
 33 69  1  0
 34 35  2  0
 34 70  1  0
 35 36  1  0
 35 40  1  0
 36 37  1  0
 37 38  1  0
 37 71  1  0
 37 72  1  0
 38 39  1  0
 38 73  1  0
 38 74  1  0
 39 75  1  0
 40 41  2  0
 40 76  1  0
 41 77  1  0
 42 43  1  0
 42 78  1  1
 43 44  2  0
 45 46  2  0
 45 79  1  0
 46 80  1  0
M  END

