
     RDKit          3D

 40 40  0  0  0  0  0  0  0  0999 V2000
    3.8275    0.7215   -2.0674 C   0  0  0  0  0  0  0  0  0  0  0  0
    4.4376    0.2479   -0.7495 C   0  0  0  0  0  0  0  0  0  0  0  0
    3.7298   -1.0290   -0.2497 C   0  0  0  0  0  0  0  0  0  0  0  0
    4.2731   -1.5512    0.9836 N   0  0  0  0  0  0  0  0  0  0  0  0
    4.2476   -0.7357    2.1767 C   0  0  0  0  0  0  0  0  0  0  0  0
    5.6474   -0.2516    2.6146 C   0  0  0  0  0  0  0  0  0  0  0  0
    5.5696    0.5663    3.9026 C   0  0  0  0  0  0  0  0  0  0  0  0
    4.8205   -2.9133    1.0690 C   0  0  1  0  0  0  0  0  0  0  0  0
    3.7071   -3.9368    0.7741 C   0  0  0  0  0  0  0  0  0  0  0  0
    6.0454   -3.0982    0.1128 C   0  0  0  0  0  0  0  0  0  0  0  0
    6.0182   -2.4611   -0.9760 O   0  0  0  0  0  0  0  0  0  0  0  0
    7.0515   -4.0217    0.5126 C   0  0  0  0  0  0  0  0  0  0  0  0
    8.1580   -4.2406   -0.3843 C   0  0  0  0  0  0  0  0  0  0  0  0
    9.1917   -5.0990   -0.0654 C   0  0  0  0  0  0  0  0  0  0  0  0
    9.1927   -5.7994    1.1532 C   0  0  0  0  0  0  0  0  0  0  0  0
   10.1973   -6.6424    1.4687 F   0  0  0  0  0  0  0  0  0  0  0  0
    8.1238   -5.6167    2.0396 C   0  0  0  0  0  0  0  0  0  0  0  0
    8.1228   -6.2974    3.2027 F   0  0  0  0  0  0  0  0  0  0  0  0
    7.0751   -4.7646    1.7493 C   0  0  0  0  0  0  0  0  0  0  0  0
    4.3463    1.6231   -2.4262 H   0  0  0  0  0  0  0  0  0  0  0  0
    2.7582    0.9705   -1.9623 H   0  0  0  0  0  0  0  0  0  0  0  0
    3.9231   -0.0495   -2.8474 H   0  0  0  0  0  0  0  0  0  0  0  0
    4.3697    1.0493    0.0051 H   0  0  0  0  0  0  0  0  0  0  0  0
    5.4957   -0.0108   -0.8903 H   0  0  0  0  0  0  0  0  0  0  0  0
    3.8163   -1.8040   -1.0129 H   0  0  0  0  0  0  0  0  0  0  0  0
    2.6594   -0.8050   -0.0608 H   0  0  0  0  0  0  0  0  0  0  0  0
    3.8078   -1.3469    2.9846 H   0  0  0  0  0  0  0  0  0  0  0  0
    3.5835    0.1240    2.0059 H   0  0  0  0  0  0  0  0  0  0  0  0
    6.0842    0.3493    1.8020 H   0  0  0  0  0  0  0  0  0  0  0  0
    6.3094   -1.1197    2.7500 H   0  0  0  0  0  0  0  0  0  0  0  0
    4.9282    1.4550    3.7841 H   0  0  0  0  0  0  0  0  0  0  0  0
    6.5710    0.9157    4.1942 H   0  0  0  0  0  0  0  0  0  0  0  0
    5.1685   -0.0294    4.7387 H   0  0  0  0  0  0  0  0  0  0  0  0
    5.1296   -3.0340    2.1143 H   0  0  0  0  0  0  0  0  0  0  0  0
    3.4121   -3.9141   -0.2846 H   0  0  0  0  0  0  0  0  0  0  0  0
    2.8140   -3.7812    1.4022 H   0  0  0  0  0  0  0  0  0  0  0  0
    4.1066   -4.9362    0.9859 H   0  0  0  0  0  0  0  0  0  0  0  0
    8.1547   -3.6972   -1.3290 H   0  0  0  0  0  0  0  0  0  0  0  0
   10.0286   -5.2556   -0.7504 H   0  0  0  0  0  0  0  0  0  0  0  0
    6.2868   -4.7029    2.4996 H   0  0  0  0  0  0  0  0  0  0  0  0
  1  2  1  0
  1 20  1  0
  1 21  1  0
  1 22  1  0
  2  3  1  0
  2 23  1  0
  2 24  1  0
  3  4  1  0
  3 25  1  0
  3 26  1  0
  4  5  1  0
  4  8  1  0
  5  6  1  0
  5 27  1  0
  5 28  1  0
  6  7  1  0
  6 29  1  0
  6 30  1  0
  7 31  1  0
  7 32  1  0
  7 33  1  0
  8  9  1  0
  8 10  1  0
  8 34  1  1
  9 35  1  0
  9 36  1  0
  9 37  1  0
 10 11  2  0
 10 12  1  0
 12 13  2  0
 12 19  1  0
 13 14  1  0
 13 38  1  0
 14 15  2  0
 14 39  1  0
 15 16  1  0
 15 17  1  0
 17 18  1  0
 17 19  2  0
 19 40  1  0
M  END

