
     RDKit          3D

 72 82  0  0  0  0  0  0  0  0999 V2000
   -1.3089    0.7238   -2.1089 C   0  0  0  0  0  0  0  0  0  0  0  0
   -0.3411    1.5993   -2.6240 C   0  0  0  0  0  0  0  0  0  0  0  0
    0.9941    1.4847   -2.2542 C   0  0  0  0  0  0  0  0  0  0  0  0
    1.4370    0.4689   -1.3589 C   0  0  0  0  0  0  0  0  0  0  0  0
    2.8422    0.4047   -0.9872 C   0  0  0  0  0  0  0  0  0  0  0  0
    3.5601    1.5876   -1.1252 N   0  0  0  0  0  0  0  0  0  0  0  0
    4.7644    1.6050   -0.6364 C   0  0  0  0  0  0  0  0  0  0  0  0
    5.4644    2.9030   -0.7460 N   0  0  0  0  0  0  0  0  0  0  0  0
    6.7793    3.0586   -1.1517 C   0  0  0  0  0  0  0  0  0  0  0  0
    7.6878    2.1041   -1.5665 C   0  0  0  0  0  0  0  0  0  0  0  0
    8.9969    2.5228   -1.9557 C   0  0  0  0  0  0  0  0  0  0  0  0
    9.9666    1.5889   -2.3867 C   0  0  0  0  0  0  0  0  0  0  0  0
   11.2399    2.0026   -2.7654 C   0  0  0  0  0  0  0  0  0  0  0  0
   11.5883    3.3667   -2.7253 C   0  0  0  0  0  0  0  0  0  0  0  0
   10.6586    4.3079   -2.3053 C   0  0  0  0  0  0  0  0  0  0  0  0
    9.3524    3.9180   -1.9128 C   0  0  0  0  0  0  0  0  0  0  0  0
    8.3917    4.8709   -1.4809 C   0  0  0  0  0  0  0  0  0  0  0  0
    7.1129    4.4594   -1.1029 C   0  0  0  0  0  0  0  0  0  0  0  0
    5.9425    5.1452   -0.6448 C   0  0  0  0  0  0  0  0  0  0  0  0
    5.6273    6.5163   -0.3687 C   0  0  0  0  0  0  0  0  0  0  0  0
    6.4535    7.6685   -0.4845 C   0  0  0  0  0  0  0  0  0  0  0  0
    5.9517    8.9247   -0.1587 C   0  0  0  0  0  0  0  0  0  0  0  0
    4.6232    9.1177    0.2928 C   0  0  0  0  0  0  0  0  0  0  0  0
    3.7948    8.0088    0.4138 C   0  0  0  0  0  0  0  0  0  0  0  0
    4.3136    6.7380    0.0835 C   0  0  0  0  0  0  0  0  0  0  0  0
    3.3143    5.7126    0.2678 C   0  0  0  0  0  0  0  0  0  0  0  0
    3.6082    4.3980    0.0031 C   0  0  0  0  0  0  0  0  0  0  0  0
    4.9351    4.1236   -0.4472 C   0  0  0  0  0  0  0  0  0  0  0  0
    2.1025    6.4046    0.7371 C   0  0  0  0  0  0  0  0  0  0  0  0
    0.8374    5.9173    1.0659 C   0  0  0  0  0  0  0  0  0  0  0  0
   -0.1427    6.8232    1.4938 C   0  0  0  0  0  0  0  0  0  0  0  0
    0.1409    8.1912    1.5897 C   0  0  0  0  0  0  0  0  0  0  0  0
    1.4103    8.6905    1.2582 C   0  0  0  0  0  0  0  0  0  0  0  0
    2.3908    7.7989    0.8314 C   0  0  0  0  0  0  0  0  0  0  0  0
    5.4776    0.6750   -0.0370 N   0  0  0  0  0  0  0  0  0  0  0  0
    4.8667   -0.5619    0.0143 C   0  0  0  0  0  0  0  0  0  0  0  0
    3.5506   -0.7574   -0.4998 C   0  0  0  0  0  0  0  0  0  0  0  0
    3.0516   -2.1010   -0.5502 C   0  0  0  0  0  0  0  0  0  0  0  0
    3.7602   -3.1623   -0.0384 C   0  0  0  0  0  0  0  0  0  0  0  0
    5.0345   -2.9777    0.5676 C   0  0  0  0  0  0  0  0  0  0  0  0
    5.7720   -4.0511    1.1340 C   0  0  0  0  0  0  0  0  0  0  0  0
    7.0134   -3.8418    1.7022 C   0  0  0  0  0  0  0  0  0  0  0  0
    7.5690   -2.5367    1.7243 C   0  0  0  0  0  0  0  0  0  0  0  0
    6.8803   -1.4736    1.1761 C   0  0  0  0  0  0  0  0  0  0  0  0
    5.5987   -1.6586    0.5844 C   0  0  0  0  0  0  0  0  0  0  0  0
    0.4333   -0.3898   -0.8296 C   0  0  0  0  0  0  0  0  0  0  0  0
   -0.9036   -0.2620   -1.2000 C   0  0  0  0  0  0  0  0  0  0  0  0
   -2.3575    0.8155   -2.4015 H   0  0  0  0  0  0  0  0  0  0  0  0
   -0.6363    2.3811   -3.3303 H   0  0  0  0  0  0  0  0  0  0  0  0
    1.7390    2.1697   -2.6599 H   0  0  0  0  0  0  0  0  0  0  0  0
    7.4167    1.0504   -1.5762 H   0  0  0  0  0  0  0  0  0  0  0  0
    9.7018    0.5295   -2.4169 H   0  0  0  0  0  0  0  0  0  0  0  0
   11.9740    1.2641   -3.0950 H   0  0  0  0  0  0  0  0  0  0  0  0
   12.5899    3.6827   -3.0243 H   0  0  0  0  0  0  0  0  0  0  0  0
   10.9256    5.3675   -2.2729 H   0  0  0  0  0  0  0  0  0  0  0  0
    8.6753    5.9238   -1.4544 H   0  0  0  0  0  0  0  0  0  0  0  0
    7.4852    7.5832   -0.8265 H   0  0  0  0  0  0  0  0  0  0  0  0
    6.6060    9.7946   -0.2549 H   0  0  0  0  0  0  0  0  0  0  0  0
    4.2735   10.1238    0.5361 H   0  0  0  0  0  0  0  0  0  0  0  0
    2.8925    3.5834    0.0871 H   0  0  0  0  0  0  0  0  0  0  0  0
    0.6104    4.8516    0.9894 H   0  0  0  0  0  0  0  0  0  0  0  0
   -1.1386    6.4576    1.7541 H   0  0  0  0  0  0  0  0  0  0  0  0
   -0.6375    8.8807    1.9257 H   0  0  0  0  0  0  0  0  0  0  0  0
    1.6176    9.7607    1.3353 H   0  0  0  0  0  0  0  0  0  0  0  0
    2.0955   -2.2892   -1.0360 H   0  0  0  0  0  0  0  0  0  0  0  0
    3.3476   -4.1733   -0.1014 H   0  0  0  0  0  0  0  0  0  0  0  0
    5.3354   -5.0540    1.1131 H   0  0  0  0  0  0  0  0  0  0  0  0
    7.5674   -4.6778    2.1369 H   0  0  0  0  0  0  0  0  0  0  0  0
    8.5480   -2.3744    2.1837 H   0  0  0  0  0  0  0  0  0  0  0  0
    7.2919   -0.4640    1.1963 H   0  0  0  0  0  0  0  0  0  0  0  0
    0.6973   -1.1326   -0.0771 H   0  0  0  0  0  0  0  0  0  0  0  0
   -1.6450   -0.9347   -0.7588 H   0  0  0  0  0  0  0  0  0  0  0  0
  1  2  2  0
  1 47  1  0
  1 48  1  0
  2  3  1  0
  2 49  1  0
  3  4  2  0
  3 50  1  0
  4  5  1  0
  4 46  1  0
  5  6  2  0
  5 37  1  0
  6  7  1  0
  7  8  1  0
  7 35  2  0
  8  9  1  0
  8 28  1  0
  9 10  2  0
  9 18  1  0
 10 11  1  0
 10 51  1  0
 11 12  2  0
 11 16  1  0
 12 13  1  0
 12 52  1  0
 13 14  2  0
 13 53  1  0
 14 15  1  0
 14 54  1  0
 15 16  2  0
 15 55  1  0
 16 17  1  0
 17 18  2  0
 17 56  1  0
 18 19  1  0
 19 20  1  0
 19 28  2  0
 20 21  2  0
 20 25  1  0
 21 22  1  0
 21 57  1  0
 22 23  2  0
 22 58  1  0
 23 24  1  0
 23 59  1  0
 24 25  2  0
 24 34  1  0
 25 26  1  0
 26 27  2  0
 26 29  1  0
 27 28  1  0
 27 60  1  0
 29 30  2  0
 29 34  1  0
 30 31  1  0
 30 61  1  0
 31 32  2  0
 31 62  1  0
 32 33  1  0
 32 63  1  0
 33 34  2  0
 33 64  1  0
 35 36  1  0
 36 37  2  0
 36 45  1  0
 37 38  1  0
 38 39  2  0
 38 65  1  0
 39 40  1  0
 39 66  1  0
 40 41  1  0
 40 45  2  0
 41 42  2  0
 41 67  1  0
 42 43  1  0
 42 68  1  0
 43 44  2  0
 43 69  1  0
 44 45  1  0
 44 70  1  0
 46 47  2  0
 46 71  1  0
 47 72  1  0
M  END

