
     RDKit          3D

 82 84  0  0  0  0  0  0  0  0999 V2000
    3.8100    2.9725    0.4610 C   0  0  0  0  0  0  0  0  0  0  0  0
    5.2794    2.5321    0.4202 C   0  0  1  0  0  0  0  0  0  0  0  0
    6.2146    3.7427    0.5368 C   0  0  0  0  0  0  0  0  0  0  0  0
    5.6250    1.4916    1.5027 C   0  0  0  0  0  0  0  0  0  0  0  0
    4.8725    0.1525    1.3798 C   0  0  1  0  0  0  0  0  0  0  0  0
    5.1164   -0.5466    0.1189 N   0  0  0  0  0  0  0  0  0  0  0  0
    6.3505   -1.0434   -0.2890 C   0  0  0  0  0  0  0  0  0  0  0  0
    7.3559   -0.9156    0.4265 O   0  0  0  0  0  0  0  0  0  0  0  0
    6.3362   -1.6647   -1.4923 N   0  0  0  0  0  0  0  0  0  0  0  0
    7.3403   -2.4897   -2.1119 C   0  0  0  0  0  0  0  0  0  0  0  0
    8.6930   -2.2911   -1.9295 C   0  0  0  0  0  0  0  0  0  0  0  0
    9.6431   -3.1543   -2.5982 C   0  0  0  0  0  0  0  0  0  0  0  0
    9.1452   -4.0737   -3.5719 C   0  0  0  0  0  0  0  0  0  0  0  0
    7.7877   -4.2610   -3.7571 C   0  0  0  0  0  0  0  0  0  0  0  0
    6.8286   -3.5292   -2.9617 C   0  0  0  0  0  0  0  0  0  0  0  0
    5.0529   -0.7532    2.6228 C   0  0  0  0  0  0  0  0  0  0  0  0
    4.0868   -1.1509    3.2676 O   0  0  0  0  0  0  0  0  0  0  0  0
    6.3304   -1.0697    2.9633 N   0  0  0  0  0  0  0  0  0  0  0  0
    6.6116   -1.9086    4.1003 C   0  0  1  0  0  0  0  0  0  0  0  0
    6.1459   -3.3819    3.9508 C   0  0  0  0  0  0  0  0  0  0  0  0
    6.8267   -4.2787    2.9642 C   0  0  0  0  0  0  0  0  0  0  0  0
    7.4729   -3.8012    1.7825 C   0  0  0  0  0  0  0  0  0  0  0  0
    7.9897   -4.6590    0.8407 C   0  0  0  0  0  0  0  0  0  0  0  0
    7.8939   -6.0691    1.0529 C   0  0  0  0  0  0  0  0  0  0  0  0
    8.3229   -6.9717    0.2190 O   0  0  0  0  0  0  0  0  0  0  0  0
    8.9487   -6.6233   -1.0745 C   0  0  0  0  0  0  0  0  0  0  0  0
    9.2327   -7.9015   -1.8092 C   0  0  0  0  0  0  0  0  0  0  0  0
   10.0918   -8.8696   -1.2640 C   0  0  0  0  0  0  0  0  0  0  0  0
   10.3548  -10.0515   -1.9584 C   0  0  0  0  0  0  0  0  0  0  0  0
    9.7697  -10.2728   -3.2102 C   0  0  0  0  0  0  0  0  0  0  0  0
    8.9209   -9.3094   -3.7620 C   0  0  0  0  0  0  0  0  0  0  0  0
    8.6501   -8.1291   -3.0633 C   0  0  0  0  0  0  0  0  0  0  0  0
    7.2847   -6.5691    2.2575 C   0  0  0  0  0  0  0  0  0  0  0  0
    6.7701   -5.6911    3.1765 C   0  0  0  0  0  0  0  0  0  0  0  0
    8.0954   -1.7969    4.4663 C   0  0  0  0  0  0  0  0  0  0  0  0
    8.9009   -1.1839    3.8106 O   0  0  0  0  0  0  0  0  0  0  0  0
    8.3442   -2.4763    5.5899 O   0  0  0  0  0  0  0  0  0  0  0  0
    9.6868   -2.5286    6.2086 C   0  0  1  0  0  0  0  0  0  0  0  0
   10.1287   -1.1152    6.5975 C   0  0  0  0  0  0  0  0  0  0  0  0
    9.4539   -3.3891    7.4502 C   0  0  0  0  0  0  0  0  0  0  0  0
   10.6724   -3.2018    5.2498 C   0  0  0  0  0  0  0  0  0  0  0  0
    3.6021    3.7232   -0.3185 H   0  0  0  0  0  0  0  0  0  0  0  0
    3.5577    3.4270    1.4351 H   0  0  0  0  0  0  0  0  0  0  0  0
    3.1145    2.1341    0.2953 H   0  0  0  0  0  0  0  0  0  0  0  0
    5.4646    2.0588   -0.5604 H   0  0  0  0  0  0  0  0  0  0  0  0
    6.0802    4.2569    1.5046 H   0  0  0  0  0  0  0  0  0  0  0  0
    6.0167    4.4782   -0.2597 H   0  0  0  0  0  0  0  0  0  0  0  0
    7.2719    3.4424    0.4619 H   0  0  0  0  0  0  0  0  0  0  0  0
    5.4005    1.9153    2.4986 H   0  0  0  0  0  0  0  0  0  0  0  0
    6.7072    1.2981    1.4742 H   0  0  0  0  0  0  0  0  0  0  0  0
    3.7935    0.3545    1.3950 H   0  0  0  0  0  0  0  0  0  0  0  0
    4.2938   -0.8671   -0.3760 H   0  0  0  0  0  0  0  0  0  0  0  0
    5.4657   -1.6405   -2.0126 H   0  0  0  0  0  0  0  0  0  0  0  0
    9.0371   -1.4733   -1.2981 H   0  0  0  0  0  0  0  0  0  0  0  0
   10.7124   -2.9622   -2.5048 H   0  0  0  0  0  0  0  0  0  0  0  0
    9.8531   -4.6299   -4.1966 H   0  0  0  0  0  0  0  0  0  0  0  0
    7.4306   -4.9510   -4.5285 H   0  0  0  0  0  0  0  0  0  0  0  0
    5.7537   -3.6598   -3.0993 H   0  0  0  0  0  0  0  0  0  0  0  0
    7.0752   -0.8292    2.2983 H   0  0  0  0  0  0  0  0  0  0  0  0
    6.0353   -1.5312    4.9621 H   0  0  0  0  0  0  0  0  0  0  0  0
    5.0758   -3.3118    3.6675 H   0  0  0  0  0  0  0  0  0  0  0  0
    6.1589   -3.8624    4.9407 H   0  0  0  0  0  0  0  0  0  0  0  0
    7.5503   -2.7358    1.5714 H   0  0  0  0  0  0  0  0  0  0  0  0
    8.4346   -4.2473   -0.0652 H   0  0  0  0  0  0  0  0  0  0  0  0
    9.8631   -6.0591   -0.8421 H   0  0  0  0  0  0  0  0  0  0  0  0
    8.2679   -5.9655   -1.6283 H   0  0  0  0  0  0  0  0  0  0  0  0
   10.5565   -8.6984   -0.2888 H   0  0  0  0  0  0  0  0  0  0  0  0
   11.0238  -10.8000   -1.5262 H   0  0  0  0  0  0  0  0  0  0  0  0
    9.9808  -11.1953   -3.7570 H   0  0  0  0  0  0  0  0  0  0  0  0
    8.4664   -9.4751   -4.7418 H   0  0  0  0  0  0  0  0  0  0  0  0
    8.0011   -7.3653   -3.4972 H   0  0  0  0  0  0  0  0  0  0  0  0
    7.2404   -7.6502    2.3943 H   0  0  0  0  0  0  0  0  0  0  0  0
    6.2942   -6.0715    4.0828 H   0  0  0  0  0  0  0  0  0  0  0  0
    9.3733   -0.6388    7.2416 H   0  0  0  0  0  0  0  0  0  0  0  0
   10.2888   -0.4866    5.7123 H   0  0  0  0  0  0  0  0  0  0  0  0
   11.0717   -1.1695    7.1630 H   0  0  0  0  0  0  0  0  0  0  0  0
    8.7059   -2.9248    8.1104 H   0  0  0  0  0  0  0  0  0  0  0  0
   10.3921   -3.5035    8.0135 H   0  0  0  0  0  0  0  0  0  0  0  0
    9.0940   -4.3907    7.1695 H   0  0  0  0  0  0  0  0  0  0  0  0
   10.8230   -2.6017    4.3435 H   0  0  0  0  0  0  0  0  0  0  0  0
   10.3103   -4.2012    4.9616 H   0  0  0  0  0  0  0  0  0  0  0  0
   11.6441   -3.3269    5.7521 H   0  0  0  0  0  0  0  0  0  0  0  0
  1  2  1  0
  1 42  1  0
  1 43  1  0
  1 44  1  0
  2  3  1  0
  2  4  1  0
  2 45  1  6
  3 46  1  0
  3 47  1  0
  3 48  1  0
  4  5  1  0
  4 49  1  0
  4 50  1  0
  5  6  1  0
  5 16  1  0
  5 51  1  6
  6  7  1  0
  6 52  1  0
  7  8  2  0
  7  9  1  0
  9 10  1  0
  9 53  1  0
 10 11  2  0
 10 15  1  0
 11 12  1  0
 11 54  1  0
 12 13  2  0
 12 55  1  0
 13 14  1  0
 13 56  1  0
 14 15  2  0
 14 57  1  0
 15 58  1  0
 16 17  2  0
 16 18  1  0
 18 19  1  0
 18 59  1  0
 19 20  1  0
 19 35  1  0
 19 60  1  1
 20 21  1  0
 20 61  1  0
 20 62  1  0
 21 22  2  0
 21 34  1  0
 22 23  1  0
 22 63  1  0
 23 24  2  0
 23 64  1  0
 24 25  1  0
 24 33  1  0
 25 26  1  0
 26 27  1  0
 26 65  1  0
 26 66  1  0
 27 28  2  0
 27 32  1  0
 28 29  1  0
 28 67  1  0
 29 30  2  0
 29 68  1  0
 30 31  1  0
 30 69  1  0
 31 32  2  0
 31 70  1  0
 32 71  1  0
 33 34  2  0
 33 72  1  0
 34 73  1  0
 35 36  2  0
 35 37  1  0
 38 37  1  6
 38 39  1  0
 38 40  1  0
 38 41  1  0
 39 74  1  0
 39 75  1  0
 39 76  1  0
 40 77  1  0
 40 78  1  0
 40 79  1  0
 41 80  1  0
 41 81  1  0
 41 82  1  0
M  END

