
     RDKit          3D

 56 58  0  0  0  0  0  0  0  0999 V2000
   12.5941   -0.3852    5.5226 C   0  0  0  0  0  0  0  0  0  0  0  0
   11.8334    0.1665    4.3530 C   0  0  0  0  0  0  0  0  0  0  0  0
   11.0811   -0.5438    3.3840 C   0  0  0  0  0  0  0  0  0  0  0  0
   10.5938    0.4402    2.5110 C   0  0  0  0  0  0  0  0  0  0  0  0
    9.7568    0.3002    1.4305 N   0  0  0  0  0  0  0  0  0  0  0  0
    8.9857   -0.9324    1.2901 C   0  0  0  0  0  0  0  0  0  0  0  0
    8.2335   -0.8011   -0.0600 C   0  0  0  0  0  0  0  0  0  0  0  0
    8.5139    0.6430   -0.5093 C   0  0  2  0  0  0  0  0  0  0  0  0
    8.5257    0.9082   -1.9623 N   0  0  0  0  0  0  0  0  0  0  0  0
    9.5609    0.5519   -2.7711 C   0  0  0  0  0  0  0  0  0  0  0  0
   10.2912   -0.4227   -2.5720 O   0  0  0  0  0  0  0  0  0  0  0  0
    9.7561    1.3508   -3.9100 N   0  0  0  0  0  0  0  0  0  0  0  0
    8.9855    2.5515   -4.1699 C   0  0  0  0  0  0  0  0  0  0  0  0
   10.9804    1.1391   -4.6517 C   0  0  0  0  0  0  0  0  0  0  0  0
   12.1583    2.0813   -4.2726 C   0  0  1  0  0  0  0  0  0  0  0  0
   12.3620    2.3077   -2.7663 C   0  0  0  0  0  0  0  0  0  0  0  0
   12.8885    1.0763   -2.0343 C   0  0  0  0  0  0  0  0  0  0  0  0
   14.0210    0.4518   -2.6964 N   0  0  0  0  0  0  0  0  0  0  0  0
   15.0121   -0.2611   -1.9305 C   0  0  0  0  0  0  0  0  0  0  0  0
   14.0402    0.3426   -4.1503 C   0  0  0  0  0  0  0  0  0  0  0  0
   13.4851    1.5804   -4.8699 C   0  0  0  0  0  0  0  0  0  0  0  0
    9.8305    0.9564    0.1398 C   0  0  0  0  0  0  0  0  0  0  0  0
   10.6031    1.9335   -0.1580 O   0  0  0  0  0  0  0  0  0  0  0  0
   11.0728    1.6387    2.9879 N   0  0  0  0  0  0  0  0  0  0  0  0
   10.6404    2.9763    2.6442 C   0  0  0  0  0  0  0  0  0  0  0  0
   11.8252    1.4713    4.1136 N   0  0  0  0  0  0  0  0  0  0  0  0
   11.9357   -0.9464    6.2077 H   0  0  0  0  0  0  0  0  0  0  0  0
   13.0554    0.4397    6.0850 H   0  0  0  0  0  0  0  0  0  0  0  0
   13.3938   -1.0775    5.2064 H   0  0  0  0  0  0  0  0  0  0  0  0
   10.9237   -1.6168    3.3128 H   0  0  0  0  0  0  0  0  0  0  0  0
    8.2998   -1.0468    2.1471 H   0  0  0  0  0  0  0  0  0  0  0  0
    9.6412   -1.8238    1.2813 H   0  0  0  0  0  0  0  0  0  0  0  0
    7.1569   -1.0129    0.0460 H   0  0  0  0  0  0  0  0  0  0  0  0
    8.6505   -1.4921   -0.8032 H   0  0  0  0  0  0  0  0  0  0  0  0
    7.6719    1.2979   -0.1460 H   0  0  0  0  0  0  0  0  0  0  0  0
    8.0814    1.7882   -2.1822 H   0  0  0  0  0  0  0  0  0  0  0  0
    9.2059    3.3805   -3.4695 H   0  0  0  0  0  0  0  0  0  0  0  0
    7.9035    2.3447   -4.1295 H   0  0  0  0  0  0  0  0  0  0  0  0
    9.1997    2.9051   -5.1894 H   0  0  0  0  0  0  0  0  0  0  0  0
   10.7829    1.2590   -5.7320 H   0  0  0  0  0  0  0  0  0  0  0  0
   11.2516    0.0885   -4.4869 H   0  0  0  0  0  0  0  0  0  0  0  0
   11.9551    3.0685   -4.7209 H   0  0  0  0  0  0  0  0  0  0  0  0
   11.4442    2.5783   -2.2311 H   0  0  0  0  0  0  0  0  0  0  0  0
   13.0712    3.1426   -2.6289 H   0  0  0  0  0  0  0  0  0  0  0  0
   12.0913    0.3020   -2.0147 H   0  0  0  0  0  0  0  0  0  0  0  0
   13.1418    1.2876   -0.9907 H   0  0  0  0  0  0  0  0  0  0  0  0
   14.6446   -0.4485   -0.9162 H   0  0  0  0  0  0  0  0  0  0  0  0
   15.9235    0.3605   -1.8713 H   0  0  0  0  0  0  0  0  0  0  0  0
   15.2748   -1.2046   -2.4283 H   0  0  0  0  0  0  0  0  0  0  0  0
   13.4383   -0.5539   -4.3827 H   0  0  0  0  0  0  0  0  0  0  0  0
   15.0712    0.1202   -4.4624 H   0  0  0  0  0  0  0  0  0  0  0  0
   13.3821    1.3216   -5.9356 H   0  0  0  0  0  0  0  0  0  0  0  0
   14.2385    2.3836   -4.8169 H   0  0  0  0  0  0  0  0  0  0  0  0
    9.7039    3.2399    3.1728 H   0  0  0  0  0  0  0  0  0  0  0  0
   10.5017    3.0445    1.5572 H   0  0  0  0  0  0  0  0  0  0  0  0
   11.4260    3.6713    2.9707 H   0  0  0  0  0  0  0  0  0  0  0  0
  1  2  1  0
  1 27  1  0
  1 28  1  0
  1 29  1  0
  2  3  1  0
  2 26  2  0
  3  4  2  0
  3 30  1  0
  4  5  1  0
  4 24  1  0
  5  6  1  0
  5 22  1  0
  6  7  1  0
  6 31  1  0
  6 32  1  0
  7  8  1  0
  7 33  1  0
  7 34  1  0
  8  9  1  0
  8 22  1  0
  8 35  1  1
  9 10  1  0
  9 36  1  0
 10 11  2  0
 10 12  1  0
 12 13  1  0
 12 14  1  0
 13 37  1  0
 13 38  1  0
 13 39  1  0
 14 15  1  0
 14 40  1  0
 14 41  1  0
 15 16  1  0
 15 21  1  0
 15 42  1  6
 16 17  1  0
 16 43  1  0
 16 44  1  0
 17 18  1  0
 17 45  1  0
 17 46  1  0
 18 19  1  0
 18 20  1  0
 19 47  1  0
 19 48  1  0
 19 49  1  0
 20 21  1  0
 20 50  1  0
 20 51  1  0
 21 52  1  0
 21 53  1  0
 22 23  2  0
 24 25  1  0
 24 26  1  0
 25 54  1  0
 25 55  1  0
 25 56  1  0
M  END

