
     RDKit          3D

 56 57  0  0  0  0  0  0  0  0999 V2000
    3.6757    2.4627    2.4199 C   0  0  0  0  0  0  0  0  0  0  0  0
    3.4198    1.4141    1.3319 C   0  0  0  0  0  0  0  0  0  0  0  0
    3.3755   -0.0491    1.8263 C   0  0  1  0  0  0  0  0  0  0  0  0
    4.7582   -0.5287    2.2821 C   0  0  0  0  0  0  0  0  0  0  0  0
    2.3520   -0.2738    2.9563 C   0  0  0  0  0  0  0  0  0  0  0  0
    0.9294    0.2687    2.7636 C   0  0  1  0  0  0  0  0  0  0  0  0
    0.0202   -0.5090    1.7873 C   0  0  0  0  0  0  0  0  0  0  0  0
   -1.4361   -0.3318    2.2705 C   0  0  2  0  0  0  0  0  0  0  0  0
   -2.2449    0.7073    1.5977 N   0  0  0  0  0  0  0  0  0  0  0  0
   -3.3461    0.2644    0.8316 C   0  0  0  0  0  0  0  0  0  0  0  0
   -4.2041    1.1884    0.1965 C   0  0  0  0  0  0  0  0  0  0  0  0
   -3.9488    2.5263    0.3471 C   0  0  0  0  0  0  0  0  0  0  0  0
   -4.6170    3.5490   -0.1524 O   0  0  0  0  0  0  0  0  0  0  0  0
   -2.8607    2.9155    1.1133 N   0  0  0  0  0  0  0  0  0  0  0  0
   -2.6276    3.8968    1.2176 H   0  0  0  0  0  0  0  0  0  0  0  0
   -1.9784    2.0319    1.7507 C   0  0  0  0  0  0  0  0  0  0  0  0
   -1.0375    2.5175    2.3729 O   0  0  0  0  0  0  0  0  0  0  0  0
   -1.3005   -0.1821    3.8180 C   0  0  2  0  0  0  0  0  0  0  0  0
   -2.2904    0.5934    4.4221 O   0  0  0  0  0  0  0  0  0  0  0  0
    0.1453    0.3553    4.1032 C   0  0  2  0  0  0  0  0  0  0  0  0
    0.1080    1.6570    4.6529 O   0  0  0  0  0  0  0  0  0  0  0  0
    3.0076   -0.9675    0.7335 O   0  0  0  0  0  0  0  0  0  0  0  0
    2.7196   -0.6876   -0.8378 P   0  0  1  0  0  0  0  0  0  0  0  0
    1.6215    0.2574   -1.1741 O   0  0  0  0  0  0  0  0  0  0  0  0
    4.1438   -0.1685   -1.4609 O   0  0  0  0  0  0  0  0  0  0  0  0
    2.5049   -2.3908   -1.4841 C   0  0  1  0  0  0  0  0  0  0  0  0
    3.6733   -3.3287   -1.1536 C   0  0  0  0  0  0  0  0  0  0  0  0
    1.1484   -2.9726   -1.0633 C   0  0  0  0  0  0  0  0  0  0  0  0
    3.7266    3.4643    1.9657 H   0  0  0  0  0  0  0  0  0  0  0  0
    4.6286    2.2968    2.9473 H   0  0  0  0  0  0  0  0  0  0  0  0
    2.8739    2.4867    3.1735 H   0  0  0  0  0  0  0  0  0  0  0  0
    4.2028    1.4892    0.5607 H   0  0  0  0  0  0  0  0  0  0  0  0
    2.4767    1.6410    0.8135 H   0  0  0  0  0  0  0  0  0  0  0  0
    5.1230    0.0576    3.1379 H   0  0  0  0  0  0  0  0  0  0  0  0
    5.4898   -0.4283    1.4647 H   0  0  0  0  0  0  0  0  0  0  0  0
    4.7179   -1.5864    2.5831 H   0  0  0  0  0  0  0  0  0  0  0  0
    2.7713    0.1964    3.8612 H   0  0  0  0  0  0  0  0  0  0  0  0
    2.3168   -1.3579    3.1643 H   0  0  0  0  0  0  0  0  0  0  0  0
    0.9946    1.3015    2.4001 H   0  0  0  0  0  0  0  0  0  0  0  0
    0.2558   -1.5854    1.8403 H   0  0  0  0  0  0  0  0  0  0  0  0
    0.1579   -0.2041    0.7407 H   0  0  0  0  0  0  0  0  0  0  0  0
   -1.9989   -1.2479    2.0601 H   0  0  0  0  0  0  0  0  0  0  0  0
   -3.4822   -0.8091    0.7648 H   0  0  0  0  0  0  0  0  0  0  0  0
   -5.0512    0.8512   -0.3961 H   0  0  0  0  0  0  0  0  0  0  0  0
   -1.3531   -1.2168    4.2099 H   0  0  0  0  0  0  0  0  0  0  0  0
   -1.8035    1.3047    4.8795 H   0  0  0  0  0  0  0  0  0  0  0  0
    0.6138   -0.2739    4.8770 H   0  0  0  0  0  0  0  0  0  0  0  0
   -0.1906    2.2353    3.9225 H   0  0  0  0  0  0  0  0  0  0  0  0
    4.9033   -0.6817   -1.1504 H   0  0  0  0  0  0  0  0  0  0  0  0
    2.4839   -2.2156   -2.5752 H   0  0  0  0  0  0  0  0  0  0  0  0
    3.7638   -3.4799   -0.0669 H   0  0  0  0  0  0  0  0  0  0  0  0
    4.6349   -2.9435   -1.5303 H   0  0  0  0  0  0  0  0  0  0  0  0
    3.5157   -4.3129   -1.6231 H   0  0  0  0  0  0  0  0  0  0  0  0
    1.1211   -3.1677    0.0203 H   0  0  0  0  0  0  0  0  0  0  0  0
    0.9667   -3.9272   -1.5831 H   0  0  0  0  0  0  0  0  0  0  0  0
    0.3283   -2.2832   -1.3108 H   0  0  0  0  0  0  0  0  0  0  0  0
  1  2  1  0
  1 29  1  0
  1 30  1  0
  1 31  1  0
  2  3  1  0
  2 32  1  0
  2 33  1  0
  3  4  1  0
  3  5  1  0
  3 22  1  6
  4 34  1  0
  4 35  1  0
  4 36  1  0
  5  6  1  0
  5 37  1  0
  5 38  1  0
  6  7  1  0
  6 20  1  0
  6 39  1  6
  7  8  1  0
  7 40  1  0
  7 41  1  0
  8  9  1  0
  8 18  1  0
  8 42  1  1
  9 10  1  0
  9 16  1  0
 10 11  2  0
 10 43  1  0
 11 12  1  0
 11 44  1  0
 12 13  2  0
 12 14  1  0
 14 15  1  0
 14 16  1  0
 16 17  2  0
 18 19  1  0
 18 20  1  0
 18 45  1  1
 19 46  1  0
 20 21  1  0
 20 47  1  1
 21 48  1  0
 23 22  1  1
 23 24  2  0
 23 25  1  0
 23 26  1  0
 25 49  1  0
 26 27  1  0
 26 28  1  0
 26 50  1  6
 27 51  1  0
 27 52  1  0
 27 53  1  0
 28 54  1  0
 28 55  1  0
 28 56  1  0
M  END

