
     RDKit          3D

 34 35  0  0  0  0  0  0  0  0999 V2000
    0.5781    0.3770    0.0676 C   0  0  0  0  0  0  0  0  0  0  0  0
    1.9988    0.0863    0.0497 N   0  0  0  0  0  0  0  0  0  0  0  0
    2.3416   -1.3224   -0.1249 C   0  0  0  0  0  0  0  0  0  0  0  0
    2.2222   -1.8186   -1.5766 C   0  0  0  0  0  0  0  0  0  0  0  0
    3.0625   -0.9421   -2.5398 C   0  0  2  0  0  0  0  0  0  0  0  0
    4.4966   -1.1445   -2.3996 N   0  0  0  0  0  0  0  0  0  0  0  0
    5.1957   -2.2591   -2.8232 C   0  0  0  0  0  0  0  0  0  0  0  0
    4.6322   -3.2575   -3.6571 C   0  0  0  0  0  0  0  0  0  0  0  0
    5.3762   -4.3393   -4.0955 C   0  0  0  0  0  0  0  0  0  0  0  0
    6.7554   -4.4989   -3.7207 C   0  0  0  0  0  0  0  0  0  0  0  0
    7.5247   -5.5799   -4.1477 C   0  0  0  0  0  0  0  0  0  0  0  0
    7.1747   -6.5727   -4.9082 O   0  0  0  0  0  0  0  0  0  0  0  0
    7.3152   -3.4825   -2.8704 C   0  0  0  0  0  0  0  0  0  0  0  0
    6.5612   -2.4143   -2.4447 C   0  0  0  0  0  0  0  0  0  0  0  0
    2.7175    0.5437   -2.3163 C   0  0  0  0  0  0  0  0  0  0  0  0
    2.7921    0.9377   -0.8274 C   0  0  0  0  0  0  0  0  0  0  0  0
    0.0862   -0.2322    0.8433 H   0  0  0  0  0  0  0  0  0  0  0  0
    0.0366    0.1912   -0.8874 H   0  0  0  0  0  0  0  0  0  0  0  0
    0.4195    1.4357    0.3307 H   0  0  0  0  0  0  0  0  0  0  0  0
    1.7100   -1.9294    0.5438 H   0  0  0  0  0  0  0  0  0  0  0  0
    3.3836   -1.4669    0.2159 H   0  0  0  0  0  0  0  0  0  0  0  0
    1.1670   -1.7893   -1.9007 H   0  0  0  0  0  0  0  0  0  0  0  0
    2.5452   -2.8699   -1.6466 H   0  0  0  0  0  0  0  0  0  0  0  0
    2.7952   -1.2019   -3.5782 H   0  0  0  0  0  0  0  0  0  0  0  0
    4.9776   -0.5560   -1.7315 H   0  0  0  0  0  0  0  0  0  0  0  0
    3.5892   -3.1830   -3.9689 H   0  0  0  0  0  0  0  0  0  0  0  0
    4.9047   -5.0870   -4.7357 H   0  0  0  0  0  0  0  0  0  0  0  0
    8.5860   -5.6699   -3.8353 H   0  0  0  0  0  0  0  0  0  0  0  0
    8.3595   -3.5613   -2.5559 H   0  0  0  0  0  0  0  0  0  0  0  0
    7.0198   -1.6573   -1.8005 H   0  0  0  0  0  0  0  0  0  0  0  0
    1.6948    0.7196   -2.6879 H   0  0  0  0  0  0  0  0  0  0  0  0
    3.3895    1.1770   -2.9194 H   0  0  0  0  0  0  0  0  0  0  0  0
    2.4736    1.9849   -0.6975 H   0  0  0  0  0  0  0  0  0  0  0  0
    3.8440    0.8995   -0.4827 H   0  0  0  0  0  0  0  0  0  0  0  0
  1  2  1  0
  1 17  1  0
  1 18  1  0
  1 19  1  0
  2  3  1  0
  2 16  1  0
  3  4  1  0
  3 20  1  0
  3 21  1  0
  4  5  1  0
  4 22  1  0
  4 23  1  0
  5  6  1  0
  5 15  1  0
  5 24  1  6
  6  7  1  0
  6 25  1  0
  7  8  2  0
  7 14  1  0
  8  9  1  0
  8 26  1  0
  9 10  2  0
  9 27  1  0
 10 11  1  0
 10 13  1  0
 11 12  2  0
 11 28  1  0
 13 14  2  0
 13 29  1  0
 14 30  1  0
 15 16  1  0
 15 31  1  0
 15 32  1  0
 16 33  1  0
 16 34  1  0
M  END

