
     RDKit          3D

 44 46  0  0  0  0  0  0  0  0999 V2000
    0.6865   -0.2515   -0.3298 C   0  0  0  0  0  0  0  0  0  0  0  0
    2.0633   -0.1630   -0.6200 O   0  0  0  0  0  0  0  0  0  0  0  0
    2.7579   -1.2927   -0.9010 C   0  0  0  0  0  0  0  0  0  0  0  0
    4.1262   -1.1245   -1.1884 C   0  0  0  0  0  0  0  0  0  0  0  0
    4.9214   -2.2195   -1.4898 C   0  0  0  0  0  0  0  0  0  0  0  0
    4.3851   -3.5267   -1.5160 C   0  0  0  0  0  0  0  0  0  0  0  0
    5.2271   -4.6691   -1.8347 C   0  0  0  0  0  0  0  0  0  0  0  0
    6.5620   -4.8410   -2.1228 C   0  0  0  0  0  0  0  0  0  0  0  0
    6.8214   -6.1677   -2.3533 N   0  0  0  0  0  0  0  0  0  0  0  0
    5.6704   -6.7738   -2.2063 C   0  0  0  0  0  0  0  0  0  0  0  0
    5.4014   -8.1821   -2.3499 C   0  0  0  0  0  0  0  0  0  0  0  0
    4.1871   -8.7613   -2.1936 C   0  0  0  0  0  0  0  0  0  0  0  0
    3.8580  -10.1782   -2.3368 C   0  0  0  0  0  0  0  0  0  0  0  0
    4.7969  -11.1618   -2.6814 C   0  0  0  0  0  0  0  0  0  0  0  0
    4.4200  -12.5016   -2.8077 C   0  0  0  0  0  0  0  0  0  0  0  0
    3.0962  -12.9010   -2.5943 C   0  0  0  0  0  0  0  0  0  0  0  0
    2.6409  -14.1702   -2.6945 O   0  0  0  0  0  0  0  0  0  0  0  0
    3.5406  -15.1970   -3.0419 C   0  0  0  0  0  0  0  0  0  0  0  0
    2.1280  -11.9187   -2.2432 C   0  0  0  0  0  0  0  0  0  0  0  0
    0.8681  -12.3796   -2.0528 O   0  0  0  0  0  0  0  0  0  0  0  0
   -0.1479  -11.4697   -1.7047 C   0  0  0  0  0  0  0  0  0  0  0  0
    2.5190  -10.5875   -2.1213 C   0  0  0  0  0  0  0  0  0  0  0  0
    4.6590   -5.9138   -1.8885 O   0  0  0  0  0  0  0  0  0  0  0  0
    3.0190   -3.6811   -1.2269 C   0  0  0  0  0  0  0  0  0  0  0  0
    2.2093   -2.5838   -0.9226 C   0  0  0  0  0  0  0  0  0  0  0  0
    0.3399    0.7732   -0.1400 H   0  0  0  0  0  0  0  0  0  0  0  0
    0.4936   -0.8660    0.5682 H   0  0  0  0  0  0  0  0  0  0  0  0
    0.1139   -0.6714   -1.1767 H   0  0  0  0  0  0  0  0  0  0  0  0
    4.5388   -0.1139   -1.1687 H   0  0  0  0  0  0  0  0  0  0  0  0
    5.9790   -2.0607   -1.7123 H   0  0  0  0  0  0  0  0  0  0  0  0
    7.3428   -4.0844   -2.1741 H   0  0  0  0  0  0  0  0  0  0  0  0
    6.2895   -8.7631   -2.6076 H   0  0  0  0  0  0  0  0  0  0  0  0
    3.3480   -8.1078   -1.9336 H   0  0  0  0  0  0  0  0  0  0  0  0
    5.8395  -10.8918   -2.8582 H   0  0  0  0  0  0  0  0  0  0  0  0
    5.1748  -13.2403   -3.0779 H   0  0  0  0  0  0  0  0  0  0  0  0
    2.9581  -16.1278   -3.0649 H   0  0  0  0  0  0  0  0  0  0  0  0
    4.3531  -15.3017   -2.2999 H   0  0  0  0  0  0  0  0  0  0  0  0
    3.9900  -15.0315   -4.0380 H   0  0  0  0  0  0  0  0  0  0  0  0
   -1.0716  -12.0555   -1.6051 H   0  0  0  0  0  0  0  0  0  0  0  0
   -0.2962  -10.6984   -2.4828 H   0  0  0  0  0  0  0  0  0  0  0  0
    0.0605  -10.9654   -0.7432 H   0  0  0  0  0  0  0  0  0  0  0  0
    1.7826   -9.8295   -1.8531 H   0  0  0  0  0  0  0  0  0  0  0  0
    2.5806   -4.6803   -1.2399 H   0  0  0  0  0  0  0  0  0  0  0  0
    1.1541   -2.7494   -0.7045 H   0  0  0  0  0  0  0  0  0  0  0  0
  1  2  1  0
  1 26  1  0
  1 27  1  0
  1 28  1  0
  2  3  1  0
  3  4  2  0
  3 25  1  0
  4  5  1  0
  4 29  1  0
  5  6  2  0
  5 30  1  0
  6  7  1  0
  6 24  1  0
  7  8  2  0
  7 23  1  0
  8  9  1  0
  8 31  1  0
  9 10  2  0
 10 11  1  0
 10 23  1  0
 11 12  2  0
 11 32  1  0
 12 13  1  0
 12 33  1  0
 13 14  2  0
 13 22  1  0
 14 15  1  0
 14 34  1  0
 15 16  2  0
 15 35  1  0
 16 17  1  0
 16 19  1  0
 17 18  1  0
 18 36  1  0
 18 37  1  0
 18 38  1  0
 19 20  1  0
 19 22  2  0
 20 21  1  0
 21 39  1  0
 21 40  1  0
 21 41  1  0
 22 42  1  0
 24 25  2  0
 24 43  1  0
 25 44  1  0
M  END

