
     RDKit          3D

 53 55  0  0  0  0  0  0  0  0999 V2000
    2.0213    3.2085    1.9851 C   0  0  0  0  0  0  0  0  0  0  0  0
    2.3052    2.6678    3.4059 C   0  0  1  0  0  0  0  0  0  0  0  0
    1.0170    2.3407    4.1693 C   0  0  0  0  0  0  0  0  0  0  0  0
    3.1340    1.4884    3.2887 N   0  0  0  0  0  0  0  0  0  0  0  0
    4.5635    1.4531    3.4640 C   0  0  1  0  0  0  0  0  0  0  0  0
    4.9716    2.2705    2.8341 H   0  0  0  0  0  0  0  0  0  0  0  0
    4.9411    1.8129    4.8961 C   0  0  0  0  0  0  0  0  0  0  0  0
    5.9842    2.7274    5.1166 C   0  0  0  0  0  0  0  0  0  0  0  0
    6.3745    3.0710    6.4116 C   0  0  0  0  0  0  0  0  0  0  0  0
    5.7015    2.5129    7.5033 C   0  0  0  0  0  0  0  0  0  0  0  0
    6.1770    2.9453    9.1236 Cl  0  0  0  0  0  0  0  0  0  0  0  0
    4.6510    1.6110    7.3063 C   0  0  0  0  0  0  0  0  0  0  0  0
    4.2793    1.2615    6.0072 C   0  0  0  0  0  0  0  0  0  0  0  0
    5.1339    0.1320    2.7945 C   0  0  2  0  0  0  0  0  0  0  0  0
    5.0044    0.3384    1.7179 H   0  0  0  0  0  0  0  0  0  0  0  0
    4.3813   -1.1399    3.0752 C   0  0  0  0  0  0  0  0  0  0  0  0
    3.6176   -1.7131    2.0486 C   0  0  0  0  0  0  0  0  0  0  0  0
    2.8101   -2.8390    2.2382 C   0  0  0  0  0  0  0  0  0  0  0  0
    2.7165   -3.4227    3.5558 C   0  0  0  0  0  0  0  0  0  0  0  0
    3.4893   -2.8932    4.5626 C   0  0  0  0  0  0  0  0  0  0  0  0
    3.3819   -3.5828    6.1864 Cl  0  0  0  0  0  0  0  0  0  0  0  0
    4.4120   -1.8239    4.3780 C   0  0  0  0  0  0  0  0  0  0  0  0
    6.5914    0.1138    3.0081 N   0  0  0  0  0  0  0  0  0  0  0  0
    7.3652    1.0788    2.4239 C   0  0  0  0  0  0  0  0  0  0  0  0
    6.9134    2.0721    1.8612 O   0  0  0  0  0  0  0  0  0  0  0  0
    8.8251    0.7028    2.6028 C   0  0  0  0  0  0  0  0  0  0  0  0
    8.7840   -0.3452    3.7200 C   0  0  0  0  0  0  0  0  0  0  0  0
    7.3800   -0.9815    3.5966 C   0  0  2  0  0  0  0  0  0  0  0  0
    7.4154   -2.2359    2.6832 C   0  0  0  0  0  0  0  0  0  0  0  0
    8.1728   -2.2984    1.7436 O   0  0  0  0  0  0  0  0  0  0  0  0
    6.6128   -3.2338    3.0212 O   0  0  0  0  0  0  0  0  0  0  0  0
    1.4364    4.1346    2.0785 H   0  0  0  0  0  0  0  0  0  0  0  0
    1.4378    2.4872    1.3932 H   0  0  0  0  0  0  0  0  0  0  0  0
    2.9544    3.4365    1.4503 H   0  0  0  0  0  0  0  0  0  0  0  0
    2.8927    3.4148    3.9592 H   0  0  0  0  0  0  0  0  0  0  0  0
    0.4253    1.5732    3.6459 H   0  0  0  0  0  0  0  0  0  0  0  0
    0.4035    3.2495    4.2474 H   0  0  0  0  0  0  0  0  0  0  0  0
    1.2375    1.9843    5.1851 H   0  0  0  0  0  0  0  0  0  0  0  0
    2.7042    0.6132    2.9665 H   0  0  0  0  0  0  0  0  0  0  0  0
    6.5001    3.1716    4.2622 H   0  0  0  0  0  0  0  0  0  0  0  0
    7.1926    3.7733    6.5785 H   0  0  0  0  0  0  0  0  0  0  0  0
    4.1377    1.1770    8.1656 H   0  0  0  0  0  0  0  0  0  0  0  0
    3.4853    0.5251    5.8710 H   0  0  0  0  0  0  0  0  0  0  0  0
    3.6635   -1.2659    1.0486 H   0  0  0  0  0  0  0  0  0  0  0  0
    2.2493   -3.2674    1.4076 H   0  0  0  0  0  0  0  0  0  0  0  0
    2.0631   -4.2726    3.7527 H   0  0  0  0  0  0  0  0  0  0  0  0
    4.8543   -1.3659    5.2594 H   0  0  0  0  0  0  0  0  0  0  0  0
    9.4334    1.5925    2.8182 H   0  0  0  0  0  0  0  0  0  0  0  0
    9.1744    0.2641    1.6549 H   0  0  0  0  0  0  0  0  0  0  0  0
    8.8673    0.1429    4.7037 H   0  0  0  0  0  0  0  0  0  0  0  0
    9.5779   -1.0978    3.6389 H   0  0  0  0  0  0  0  0  0  0  0  0
    6.9748   -1.2540    4.5788 H   0  0  0  0  0  0  0  0  0  0  0  0
    5.9098   -2.9255    3.6599 H   0  0  0  0  0  0  0  0  0  0  0  0
  1  2  1  0
  1 32  1  0
  1 33  1  0
  1 34  1  0
  2  3  1  0
  2  4  1  0
  2 35  1  1
  3 36  1  0
  3 37  1  0
  3 38  1  0
  4  5  1  0
  4 39  1  0
  5  6  1  6
  5  7  1  0
  5 14  1  0
  7  8  2  0
  7 13  1  0
  8  9  1  0
  8 40  1  0
  9 10  2  0
  9 41  1  0
 10 11  1  0
 10 12  1  0
 12 13  2  0
 12 42  1  0
 13 43  1  0
 14 15  1  6
 14 16  1  0
 14 23  1  0
 16 17  2  0
 16 22  1  0
 17 18  1  0
 17 44  1  0
 18 19  2  0
 18 45  1  0
 19 20  1  0
 19 46  1  0
 20 21  1  0
 20 22  2  0
 22 47  1  0
 23 24  1  0
 23 28  1  0
 24 25  2  0
 24 26  1  0
 26 27  1  0
 26 48  1  0
 26 49  1  0
 27 28  1  0
 27 50  1  0
 27 51  1  0
 28 29  1  0
 28 52  1  1
 29 30  2  0
 29 31  1  0
 31 53  1  0
M  END

