
     RDKit          3D

 56 61  0  0  0  0  0  0  0  0999 V2000
    3.9564    3.6320   -0.8411 O   0  0  0  0  0  0  0  0  0  0  0  0
    3.4740    2.7679   -1.5467 C   0  0  0  0  0  0  0  0  0  0  0  0
    2.6514    1.7177   -1.1462 N   0  0  0  0  0  0  0  0  0  0  0  0
    2.1848    1.5649    0.2110 C   0  0  0  0  0  0  0  0  0  0  0  0
    0.7045    1.8675    0.3849 C   0  0  0  0  0  0  0  0  0  0  0  0
    0.2502    2.9821   -0.2291 N   0  0  0  0  0  0  0  0  0  0  0  0
   -1.0210    3.3205   -0.0872 C   0  0  0  0  0  0  0  0  0  0  0  0
   -1.4419    4.5048   -0.6663 N   0  0  0  0  0  0  0  0  0  0  0  0
   -0.5611    5.1414   -1.6495 C   0  0  0  0  0  0  0  0  0  0  0  0
   -1.3816    6.0041   -2.6146 C   0  0  0  0  0  0  0  0  0  0  0  0
   -2.2474    7.0410   -1.8849 C   0  0  2  0  0  0  0  0  0  0  0  0
   -1.4714    8.1004   -1.3445 O   0  0  0  0  0  0  0  0  0  0  0  0
   -3.0904    6.3451   -0.8023 C   0  0  0  0  0  0  0  0  0  0  0  0
   -2.2150    5.4858    0.1089 C   0  0  0  0  0  0  0  0  0  0  0  0
   -1.9319    2.4409    0.6195 C   0  0  0  0  0  0  0  0  0  0  0  0
   -3.3459    2.5571    0.6373 C   0  0  0  0  0  0  0  0  0  0  0  0
   -4.1174    1.6588    1.3514 C   0  0  0  0  0  0  0  0  0  0  0  0
   -3.5042    0.6052    2.0695 C   0  0  0  0  0  0  0  0  0  0  0  0
   -2.1354    0.4343    2.0232 C   0  0  0  0  0  0  0  0  0  0  0  0
   -1.3220    1.3258    1.2737 C   0  0  0  0  0  0  0  0  0  0  0  0
    0.0124    1.0611    1.1555 N   0  0  0  0  0  0  0  0  0  0  0  0
    2.3036    0.9387   -2.2406 C   0  0  0  0  0  0  0  0  0  0  0  0
    1.5051   -0.1972   -2.3352 C   0  0  0  0  0  0  0  0  0  0  0  0
    1.3479   -0.7827   -3.6008 C   0  0  0  0  0  0  0  0  0  0  0  0
    1.9738   -0.2369   -4.7262 C   0  0  0  0  0  0  0  0  0  0  0  0
    2.7771    0.9110   -4.6310 C   0  0  0  0  0  0  0  0  0  0  0  0
    2.9393    1.5000   -3.3762 C   0  0  0  0  0  0  0  0  0  0  0  0
    3.6477    2.6165   -2.9303 N   0  0  0  0  0  0  0  0  0  0  0  0
    4.4780    3.5493   -3.6419 C   0  0  1  0  0  0  0  0  0  0  0  0
    5.3817    3.1537   -4.7773 C   0  0  0  0  0  0  0  0  0  0  0  0
    4.1730    4.0332   -5.0334 C   0  0  0  0  0  0  0  0  0  0  0  0
    2.7697    2.2780    0.8135 H   0  0  0  0  0  0  0  0  0  0  0  0
    2.3805    0.5490    0.5845 H   0  0  0  0  0  0  0  0  0  0  0  0
   -0.0126    4.3606   -2.1885 H   0  0  0  0  0  0  0  0  0  0  0  0
    0.2163    5.7463   -1.1365 H   0  0  0  0  0  0  0  0  0  0  0  0
   -2.0342    5.3453   -3.2119 H   0  0  0  0  0  0  0  0  0  0  0  0
   -0.7046    6.5226   -3.3123 H   0  0  0  0  0  0  0  0  0  0  0  0
   -2.9212    7.5275   -2.6084 H   0  0  0  0  0  0  0  0  0  0  0  0
   -0.7542    7.7284   -0.8145 H   0  0  0  0  0  0  0  0  0  0  0  0
   -3.8542    5.7100   -1.2832 H   0  0  0  0  0  0  0  0  0  0  0  0
   -3.6128    7.1093   -0.2053 H   0  0  0  0  0  0  0  0  0  0  0  0
   -2.8129    4.9804    0.8741 H   0  0  0  0  0  0  0  0  0  0  0  0
   -1.5062    6.1425    0.6576 H   0  0  0  0  0  0  0  0  0  0  0  0
   -3.8330    3.3392    0.0542 H   0  0  0  0  0  0  0  0  0  0  0  0
   -5.2059    1.7543    1.3503 H   0  0  0  0  0  0  0  0  0  0  0  0
   -4.1233   -0.0918    2.6403 H   0  0  0  0  0  0  0  0  0  0  0  0
   -1.6376   -0.3940    2.5308 H   0  0  0  0  0  0  0  0  0  0  0  0
    1.0145   -0.6138   -1.4536 H   0  0  0  0  0  0  0  0  0  0  0  0
    0.7269   -1.6754   -3.7047 H   0  0  0  0  0  0  0  0  0  0  0  0
    1.8386   -0.7082   -5.7026 H   0  0  0  0  0  0  0  0  0  0  0  0
    3.2536    1.3168   -5.5229 H   0  0  0  0  0  0  0  0  0  0  0  0
    4.8601    4.2817   -2.9268 H   0  0  0  0  0  0  0  0  0  0  0  0
    5.3481    2.1212   -5.1335 H   0  0  0  0  0  0  0  0  0  0  0  0
    6.3787    3.6021   -4.8097 H   0  0  0  0  0  0  0  0  0  0  0  0
    3.3237    3.5933   -5.5622 H   0  0  0  0  0  0  0  0  0  0  0  0
    4.3267    5.0951   -5.2457 H   0  0  0  0  0  0  0  0  0  0  0  0
  1  2  2  0
  2  3  1  0
  2 28  1  0
  3  4  1  0
  3 22  1  0
  4  5  1  0
  4 32  1  0
  4 33  1  0
  5  6  2  0
  5 21  1  0
  6  7  1  0
  7  8  1  0
  7 15  2  0
  8  9  1  0
  8 14  1  0
  9 10  1  0
  9 34  1  0
  9 35  1  0
 10 11  1  0
 10 36  1  0
 10 37  1  0
 11 12  1  0
 11 13  1  0
 11 38  1  6
 12 39  1  0
 13 14  1  0
 13 40  1  0
 13 41  1  0
 14 42  1  0
 14 43  1  0
 15 16  1  0
 15 20  1  0
 16 17  2  0
 16 44  1  0
 17 18  1  0
 17 45  1  0
 18 19  2  0
 18 46  1  0
 19 20  1  0
 19 47  1  0
 20 21  2  0
 22 23  2  0
 22 27  1  0
 23 24  1  0
 23 48  1  0
 24 25  2  0
 24 49  1  0
 25 26  1  0
 25 50  1  0
 26 27  2  0
 26 51  1  0
 27 28  1  0
 28 29  1  0
 29 30  1  0
 29 31  1  0
 29 52  1  1
 30 31  1  0
 30 53  1  0
 30 54  1  0
 31 55  1  0
 31 56  1  0
M  END

