
     RDKit          3D

 95 97  0  0  0  0  0  0  0  0999 V2000
   -9.4131    1.5543    5.0880 C   0  0  0  0  0  0  0  0  0  0  0  0
   -8.8694    0.9678    3.9079 O   0  0  0  0  0  0  0  0  0  0  0  0
   -7.7687    0.2051    4.0807 C   0  0  0  0  0  0  0  0  0  0  0  0
   -7.2525    0.0136    5.1593 O   0  0  0  0  0  0  0  0  0  0  0  0
   -7.2878   -0.3525    2.8079 C   0  0  0  0  0  0  0  0  0  0  0  0
   -7.7892   -0.1978    1.5320 C   0  0  0  0  0  0  0  0  0  0  0  0
   -7.0304   -0.8982    0.5572 C   0  0  0  0  0  0  0  0  0  0  0  0
   -5.9551   -1.5833    1.0883 C   0  0  0  0  0  0  0  0  0  0  0  0
   -4.9647   -2.4529    0.3665 C   0  0  0  0  0  0  0  0  0  0  0  0
   -5.2100   -3.9652    0.5322 C   0  0  0  0  0  0  0  0  0  0  0  0
   -4.1630   -4.8091   -0.2013 C   0  0  0  0  0  0  0  0  0  0  0  0
   -4.3726   -6.3322   -0.0799 C   0  0  2  0  0  0  0  0  0  0  0  0
   -4.4343   -6.5988    0.9886 H   0  0  0  0  0  0  0  0  0  0  0  0
   -3.2720   -7.1610   -0.7418 C   0  0  0  0  0  0  0  0  0  0  0  0
   -2.0431   -7.4243   -0.2756 C   0  0  0  0  0  0  0  0  0  0  0  0
   -1.4329   -6.9133    0.9982 C   0  0  0  0  0  0  0  0  0  0  0  0
    0.0987   -6.8457    0.9635 C   0  0  0  0  0  0  0  0  0  0  0  0
    0.7365   -7.4826    0.1509 O   0  0  0  0  0  0  0  0  0  0  0  0
    0.7431   -5.9604    2.0123 C   0  0  0  0  0  0  0  0  0  0  0  0
    2.2552   -6.1386    2.1988 C   0  0  0  0  0  0  0  0  0  0  0  0
    3.1616   -5.6813    1.0436 C   0  0  0  0  0  0  0  0  0  0  0  0
    3.1592   -4.1874    0.6719 C   0  0  2  0  0  0  0  0  0  0  0  0
    3.9603   -4.0595   -0.0820 H   0  0  0  0  0  0  0  0  0  0  0  0
    3.4742   -3.2568    1.8419 C   0  0  0  0  0  0  0  0  0  0  0  0
    1.9083   -3.7974    0.1077 O   0  0  0  0  0  0  0  0  0  0  0  0
    1.4730   -3.5893   -1.5142 Si  0  0  1  0  0  4  0  0  0  0  0  0
    2.2193   -4.9677   -2.5683 C   0  0  0  0  0  0  0  0  0  0  0  0
   -0.4011   -3.7308   -1.5042 C   0  0  0  0  0  0  0  0  0  0  0  0
    2.0360   -1.8535   -2.1336 C   0  0  1  0  0  0  0  0  0  0  0  0
    3.5744   -1.7436   -2.1233 C   0  0  0  0  0  0  0  0  0  0  0  0
    1.5272   -1.6322   -3.5738 C   0  0  0  0  0  0  0  0  0  0  0  0
    1.4471   -0.7660   -1.2124 C   0  0  0  0  0  0  0  0  0  0  0  0
   -3.8480   -7.7931   -1.9965 C   0  0  2  0  0  0  0  0  0  0  0  0
   -3.2910   -8.6963   -2.3053 H   0  0  0  0  0  0  0  0  0  0  0  0
   -3.9393   -6.8673   -3.0849 O   0  0  0  0  0  0  0  0  0  0  0  0
   -2.7233   -6.4086   -3.6569 C   0  0  1  0  0  0  0  0  0  0  0  0
   -2.4138   -7.1785   -4.9468 C   0  0  0  0  0  0  0  0  0  0  0  0
   -3.4150   -6.8339   -6.0549 C   0  0  0  0  0  0  0  0  0  0  0  0
   -3.4950   -5.3119   -6.2241 C   0  0  0  0  0  0  0  0  0  0  0  0
   -3.7774   -4.6474   -4.8786 C   0  0  0  0  0  0  0  0  0  0  0  0
   -2.8219   -5.0275   -3.8879 O   0  0  0  0  0  0  0  0  0  0  0  0
   -5.2836   -8.0903   -1.5641 C   0  0  0  0  0  0  0  0  0  0  0  0
   -5.6700   -6.8258   -0.7860 C   0  0  1  0  0  0  0  0  0  0  0  0
   -6.0405   -6.0592   -1.4775 H   0  0  0  0  0  0  0  0  0  0  0  0
   -7.0421   -7.1216    0.3665 Cl  0  0  0  0  0  0  0  0  0  0  0  0
   -5.8725   -1.3659    2.8108 S   0  0  0  0  0  0  0  0  0  0  0  0
  -10.2911    2.1289    4.7674 H   0  0  0  0  0  0  0  0  0  0  0  0
   -8.6797    2.2176    5.5720 H   0  0  0  0  0  0  0  0  0  0  0  0
   -9.7083    0.7798    5.8126 H   0  0  0  0  0  0  0  0  0  0  0  0
   -8.6724    0.4051    1.3205 H   0  0  0  0  0  0  0  0  0  0  0  0
   -7.2611   -0.9001   -0.5100 H   0  0  0  0  0  0  0  0  0  0  0  0
   -3.9412   -2.2134    0.7049 H   0  0  0  0  0  0  0  0  0  0  0  0
   -5.0005   -2.1930   -0.7047 H   0  0  0  0  0  0  0  0  0  0  0  0
   -6.2250   -4.2060    0.1758 H   0  0  0  0  0  0  0  0  0  0  0  0
   -5.2065   -4.2197    1.6067 H   0  0  0  0  0  0  0  0  0  0  0  0
   -3.1626   -4.5562    0.1887 H   0  0  0  0  0  0  0  0  0  0  0  0
   -4.1321   -4.5451   -1.2723 H   0  0  0  0  0  0  0  0  0  0  0  0
   -1.3913   -8.0933   -0.8479 H   0  0  0  0  0  0  0  0  0  0  0  0
   -1.6682   -7.6066    1.8333 H   0  0  0  0  0  0  0  0  0  0  0  0
   -1.8419   -5.9408    1.3128 H   0  0  0  0  0  0  0  0  0  0  0  0
    0.2134   -6.1323    2.9671 H   0  0  0  0  0  0  0  0  0  0  0  0
    0.5071   -4.9210    1.7234 H   0  0  0  0  0  0  0  0  0  0  0  0
    2.4598   -7.2073    2.3816 H   0  0  0  0  0  0  0  0  0  0  0  0
    2.5458   -5.6161    3.1257 H   0  0  0  0  0  0  0  0  0  0  0  0
    2.9143   -6.2605    0.1425 H   0  0  0  0  0  0  0  0  0  0  0  0
    4.2012   -5.9471    1.3068 H   0  0  0  0  0  0  0  0  0  0  0  0
    3.5660   -2.2171    1.4927 H   0  0  0  0  0  0  0  0  0  0  0  0
    4.4203   -3.5412    2.3302 H   0  0  0  0  0  0  0  0  0  0  0  0
    2.6724   -3.2837    2.5957 H   0  0  0  0  0  0  0  0  0  0  0  0
    1.8409   -5.9451   -2.2268 H   0  0  0  0  0  0  0  0  0  0  0  0
    3.3195   -4.9957   -2.5159 H   0  0  0  0  0  0  0  0  0  0  0  0
    1.9408   -4.8494   -3.6284 H   0  0  0  0  0  0  0  0  0  0  0  0
   -0.6905   -4.6994   -1.0664 H   0  0  0  0  0  0  0  0  0  0  0  0
   -0.8416   -3.6951   -2.5132 H   0  0  0  0  0  0  0  0  0  0  0  0
   -0.8663   -2.9374   -0.8979 H   0  0  0  0  0  0  0  0  0  0  0  0
    4.0509   -2.5020   -2.7662 H   0  0  0  0  0  0  0  0  0  0  0  0
    3.9901   -1.8540   -1.1087 H   0  0  0  0  0  0  0  0  0  0  0  0
    3.8936   -0.7533   -2.4974 H   0  0  0  0  0  0  0  0  0  0  0  0
    1.9469   -2.3672   -4.2806 H   0  0  0  0  0  0  0  0  0  0  0  0
    1.8203   -0.6298   -3.9369 H   0  0  0  0  0  0  0  0  0  0  0  0
    0.4287   -1.6943   -3.6417 H   0  0  0  0  0  0  0  0  0  0  0  0
    1.7531   -0.9105   -0.1639 H   0  0  0  0  0  0  0  0  0  0  0  0
    0.3452   -0.7562   -1.2378 H   0  0  0  0  0  0  0  0  0  0  0  0
    1.7891    0.2370   -1.5271 H   0  0  0  0  0  0  0  0  0  0  0  0
   -1.9046   -6.5185   -2.9283 H   0  0  0  0  0  0  0  0  0  0  0  0
   -2.4083   -8.2596   -4.7307 H   0  0  0  0  0  0  0  0  0  0  0  0
   -1.3917   -6.9083   -5.2636 H   0  0  0  0  0  0  0  0  0  0  0  0
   -4.4089   -7.2273   -5.7807 H   0  0  0  0  0  0  0  0  0  0  0  0
   -3.1272   -7.3210   -7.0007 H   0  0  0  0  0  0  0  0  0  0  0  0
   -4.2805   -5.0303   -6.9457 H   0  0  0  0  0  0  0  0  0  0  0  0
   -2.5379   -4.9296   -6.6211 H   0  0  0  0  0  0  0  0  0  0  0  0
   -4.7944   -4.9065   -4.5313 H   0  0  0  0  0  0  0  0  0  0  0  0
   -3.7117   -3.5514   -4.9484 H   0  0  0  0  0  0  0  0  0  0  0  0
   -5.2888   -8.9595   -0.8884 H   0  0  0  0  0  0  0  0  0  0  0  0
   -5.9523   -8.2961   -2.4121 H   0  0  0  0  0  0  0  0  0  0  0  0
  1  2  1  0
  1 47  1  0
  1 48  1  0
  1 49  1  0
  2  3  1  0
  3  4  2  0
  3  5  1  0
  5  6  2  0
  5 46  1  0
  6  7  1  0
  6 50  1  0
  7  8  2  0
  7 51  1  0
  8  9  1  0
  8 46  1  0
  9 10  1  0
  9 52  1  0
  9 53  1  0
 10 11  1  0
 10 54  1  0
 10 55  1  0
 11 12  1  0
 11 56  1  0
 11 57  1  0
 12 13  1  1
 12 14  1  0
 12 43  1  0
 14 15  2  0
 14 33  1  0
 15 16  1  0
 15 58  1  0
 16 17  1  0
 16 59  1  0
 16 60  1  0
 17 18  2  0
 17 19  1  0
 19 20  1  0
 19 61  1  0
 19 62  1  0
 20 21  1  0
 20 63  1  0
 20 64  1  0
 21 22  1  0
 21 65  1  0
 21 66  1  0
 22 23  1  6
 22 24  1  0
 22 25  1  0
 24 67  1  0
 24 68  1  0
 24 69  1  0
 26 25  1  1
 26 27  1  0
 26 28  1  0
 26 29  1  0
 27 70  1  0
 27 71  1  0
 27 72  1  0
 28 73  1  0
 28 74  1  0
 28 75  1  0
 29 30  1  6
 29 31  1  0
 29 32  1  0
 30 76  1  0
 30 77  1  0
 30 78  1  0
 31 79  1  0
 31 80  1  0
 31 81  1  0
 32 82  1  0
 32 83  1  0
 32 84  1  0
 33 34  1  6
 33 35  1  0
 33 42  1  0
 35 36  1  0
 36 37  1  0
 36 41  1  0
 36 85  1  1
 37 38  1  0
 37 86  1  0
 37 87  1  0
 38 39  1  0
 38 88  1  0
 38 89  1  0
 39 40  1  0
 39 90  1  0
 39 91  1  0
 40 41  1  0
 40 92  1  0
 40 93  1  0
 42 43  1  0
 42 94  1  0
 42 95  1  0
 43 44  1  6
 43 45  1  0
M  END

