
     RDKit          3D

 47 49  0  0  0  0  0  0  0  0999 V2000
    0.7949   -0.1424    1.4077 O   0  0  0  0  0  0  0  0  0  0  0  0
    1.7881    0.0787    2.0862 C   0  0  0  0  0  0  0  0  0  0  0  0
    2.8830    1.0222    1.5928 C   0  0  0  0  0  0  0  0  0  0  0  0
    2.5509    1.6142    0.2194 C   0  0  0  0  0  0  0  0  0  0  0  0
    3.5407    2.6062   -0.1939 N   0  0  0  0  0  0  0  0  0  0  0  0
    4.7661    2.0741   -0.7759 C   0  0  0  0  0  0  0  0  0  0  0  0
    4.6375    1.6760   -2.2562 C   0  0  0  0  0  0  0  0  0  0  0  0
    4.1130    2.7838   -3.0436 N   0  0  0  0  0  0  0  0  0  0  0  0
    4.2861    2.7677   -4.4385 C   0  0  0  0  0  0  0  0  0  0  0  0
    4.8269    1.6524   -5.1156 C   0  0  0  0  0  0  0  0  0  0  0  0
    5.0308    1.6781   -6.4985 C   0  0  0  0  0  0  0  0  0  0  0  0
    4.6919    2.8004   -7.2548 C   0  0  0  0  0  0  0  0  0  0  0  0
    4.1465    3.9093   -6.5976 C   0  0  0  0  0  0  0  0  0  0  0  0
    3.9491    3.8987   -5.2188 C   0  0  0  0  0  0  0  0  0  0  0  0
    2.8716    3.3340   -2.4944 C   0  0  0  0  0  0  0  0  0  0  0  0
    3.0467    3.7022   -1.0164 C   0  0  0  0  0  0  0  0  0  0  0  0
    1.9628   -0.5095    3.3193 N   0  0  0  0  0  0  0  0  0  0  0  0
    0.9106   -1.3650    3.8621 C   0  0  0  0  0  0  0  0  0  0  0  0
    1.5209   -2.6405    4.4356 C   0  0  0  0  0  0  0  0  0  0  0  0
    2.5339   -2.3473    5.3812 O   0  0  0  0  0  0  0  0  0  0  0  0
    3.5737   -1.5823    4.8150 C   0  0  0  0  0  0  0  0  0  0  0  0
    3.0554   -0.2564    4.2495 C   0  0  0  0  0  0  0  0  0  0  0  0
    3.8448    0.4818    1.5583 H   0  0  0  0  0  0  0  0  0  0  0  0
    3.0276    1.8478    2.3101 H   0  0  0  0  0  0  0  0  0  0  0  0
    1.5692    2.1052    0.2870 H   0  0  0  0  0  0  0  0  0  0  0  0
    2.4113    0.7879   -0.5051 H   0  0  0  0  0  0  0  0  0  0  0  0
    5.1093    1.2029   -0.1956 H   0  0  0  0  0  0  0  0  0  0  0  0
    5.5529    2.8458   -0.6957 H   0  0  0  0  0  0  0  0  0  0  0  0
    4.0026    0.7675   -2.3550 H   0  0  0  0  0  0  0  0  0  0  0  0
    5.6372    1.4101   -2.6300 H   0  0  0  0  0  0  0  0  0  0  0  0
    5.0815    0.7451   -4.5684 H   0  0  0  0  0  0  0  0  0  0  0  0
    5.4512    0.7950   -6.9878 H   0  0  0  0  0  0  0  0  0  0  0  0
    4.8490    2.8141   -8.3357 H   0  0  0  0  0  0  0  0  0  0  0  0
    3.8801    4.8053   -7.1653 H   0  0  0  0  0  0  0  0  0  0  0  0
    3.5519    4.7931   -4.7361 H   0  0  0  0  0  0  0  0  0  0  0  0
    2.0411    2.6024   -2.6054 H   0  0  0  0  0  0  0  0  0  0  0  0
    2.5794    4.2314   -3.0542 H   0  0  0  0  0  0  0  0  0  0  0  0
    2.0896    4.0644   -0.6089 H   0  0  0  0  0  0  0  0  0  0  0  0
    3.7703    4.5356   -0.9518 H   0  0  0  0  0  0  0  0  0  0  0  0
    0.2001   -1.5825    3.0545 H   0  0  0  0  0  0  0  0  0  0  0  0
    0.3705   -0.8263    4.6646 H   0  0  0  0  0  0  0  0  0  0  0  0
    1.9348   -3.2572    3.6111 H   0  0  0  0  0  0  0  0  0  0  0  0
    0.7556   -3.2328    4.9596 H   0  0  0  0  0  0  0  0  0  0  0  0
    4.0757   -2.1513    4.0040 H   0  0  0  0  0  0  0  0  0  0  0  0
    4.3095   -1.3948    5.6122 H   0  0  0  0  0  0  0  0  0  0  0  0
    3.8740    0.2785    3.7530 H   0  0  0  0  0  0  0  0  0  0  0  0
    2.6988    0.3757    5.0866 H   0  0  0  0  0  0  0  0  0  0  0  0
  1  2  2  0
  2  3  1  0
  2 17  1  0
  3  4  1  0
  3 23  1  0
  3 24  1  0
  4  5  1  0
  4 25  1  0
  4 26  1  0
  5  6  1  0
  5 16  1  0
  6  7  1  0
  6 27  1  0
  6 28  1  0
  7  8  1  0
  7 29  1  0
  7 30  1  0
  8  9  1  0
  8 15  1  0
  9 10  2  0
  9 14  1  0
 10 11  1  0
 10 31  1  0
 11 12  2  0
 11 32  1  0
 12 13  1  0
 12 33  1  0
 13 14  2  0
 13 34  1  0
 14 35  1  0
 15 16  1  0
 15 36  1  0
 15 37  1  0
 16 38  1  0
 16 39  1  0
 17 18  1  0
 17 22  1  0
 18 19  1  0
 18 40  1  0
 18 41  1  0
 19 20  1  0
 19 42  1  0
 19 43  1  0
 20 21  1  0
 21 22  1  0
 21 44  1  0
 21 45  1  0
 22 46  1  0
 22 47  1  0
M  END

