
     RDKit          3D

 86 88  0  0  0  0  0  0  0  0999 V2000
   18.9757   12.9707    2.9094 C   0  0  0  0  0  0  0  0  0  0  0  0
   17.4927   13.8581    3.4966 S   0  0  0  0  0  0  0  0  0  0  0  0
   16.7314   12.6107    4.6250 C   0  0  0  0  0  0  0  0  0  0  0  0
   15.3004   12.2324    4.2371 C   0  0  0  0  0  0  0  0  0  0  0  0
   15.2040   11.4198    2.9418 C   0  0  1  0  0  0  0  0  0  0  0  0
   15.7563   10.0768    3.0877 N   0  0  0  0  0  0  0  0  0  0  0  0
   16.7693    9.5996    2.3132 C   0  0  0  0  0  0  0  0  0  0  0  0
   17.3184   10.2747    1.4465 O   0  0  0  0  0  0  0  0  0  0  0  0
   17.3161    8.1809    2.6429 C   0  0  1  0  0  0  0  0  0  0  0  0
   17.6413    7.4533    1.3271 C   0  0  0  0  0  0  0  0  0  0  0  0
   18.6147    8.3953    3.4529 C   0  0  0  0  0  0  0  0  0  0  0  0
   16.3643    7.3284    3.4892 C   0  0  0  0  0  0  0  0  0  0  0  0
   15.1323    7.1759    2.7905 O   0  0  0  0  0  0  0  0  0  0  0  0
   14.1007    6.8101    3.6907 N   0  0  0  0  0  0  0  0  0  0  0  0
   13.6610    8.1248    4.1559 O   0  0  0  0  0  0  0  0  0  0  0  0
   13.1123    6.2961    2.9335 O   0  0  0  0  0  0  0  0  0  0  0  0
   13.7561   11.3294    2.4489 C   0  0  0  0  0  0  0  0  0  0  0  0
   12.7785   11.6192    3.0919 O   0  0  0  0  0  0  0  0  0  0  0  0
   13.7175   10.8806    1.1822 O   0  0  0  0  0  0  0  0  0  0  0  0
   12.4363   10.6121    0.5795 C   0  0  1  0  0  0  0  0  0  0  0  0
   11.8298   11.8566   -0.0225 C   0  0  0  0  0  0  0  0  0  0  0  0
   12.7307    9.7009   -0.4537 O   0  0  0  0  0  0  0  0  0  0  0  0
   12.9034    8.3949   -0.1065 C   0  0  0  0  0  0  0  0  0  0  0  0
   12.4034    7.9170    0.9020 O   0  0  0  0  0  0  0  0  0  0  0  0
   13.6554    7.7341   -1.0166 N   0  0  0  0  0  0  0  0  0  0  0  0
   13.9044    6.3086   -0.8458 C   0  0  0  0  0  0  0  0  0  0  0  0
   14.3557    8.4415   -2.0961 C   0  0  0  0  0  0  0  0  0  0  0  0
   15.6618    9.0689   -1.5896 C   0  0  0  0  0  0  0  0  0  0  0  0
   16.3807    9.9802   -2.5953 C   0  0  2  0  0  0  0  0  0  0  0  0
   17.2725   10.3947   -2.0959 H   0  0  0  0  0  0  0  0  0  0  0  0
   15.5260   11.0596   -2.9899 O   0  0  0  0  0  0  0  0  0  0  0  0
   15.4140   12.2125   -2.3113 C   0  0  0  0  0  0  0  0  0  0  0  0
   16.1030   12.4594   -1.0752 C   0  0  0  0  0  0  0  0  0  0  0  0
   15.9465   13.6895   -0.4659 C   0  0  0  0  0  0  0  0  0  0  0  0
   15.1172   14.6739   -1.0664 C   0  0  0  0  0  0  0  0  0  0  0  0
   14.4049   14.4498   -2.2767 C   0  0  0  0  0  0  0  0  0  0  0  0
   13.5700   15.4439   -2.8600 C   0  0  0  0  0  0  0  0  0  0  0  0
   12.8719   15.1662   -4.0718 C   0  0  0  0  0  0  0  0  0  0  0  0
   12.9970   13.9337   -4.6851 C   0  0  0  0  0  0  0  0  0  0  0  0
   13.8298   12.9147   -4.1224 C   0  0  0  0  0  0  0  0  0  0  0  0
   14.5397   13.1770   -2.9214 C   0  0  0  0  0  0  0  0  0  0  0  0
   16.8127    9.2951   -3.8711 C   0  0  0  0  0  0  0  0  0  0  0  0
   16.6574    9.7250   -5.1657 C   0  0  0  0  0  0  0  0  0  0  0  0
   17.2390    8.8356   -6.1232 C   0  0  0  0  0  0  0  0  0  0  0  0
   17.8312    7.7449   -5.5445 C   0  0  0  0  0  0  0  0  0  0  0  0
   17.6865    7.7842   -3.8178 S   0  0  0  0  0  0  0  0  0  0  0  0
   19.4906   13.6583    2.2225 H   0  0  0  0  0  0  0  0  0  0  0  0
   18.7026   12.0566    2.3627 H   0  0  0  0  0  0  0  0  0  0  0  0
   19.6559   12.7379    3.7428 H   0  0  0  0  0  0  0  0  0  0  0  0
   16.7402   13.0343    5.6408 H   0  0  0  0  0  0  0  0  0  0  0  0
   17.3825   11.7234    4.6368 H   0  0  0  0  0  0  0  0  0  0  0  0
   14.6900   13.1422    4.1267 H   0  0  0  0  0  0  0  0  0  0  0  0
   14.8365   11.6608    5.0599 H   0  0  0  0  0  0  0  0  0  0  0  0
   15.7877   11.9139    2.1512 H   0  0  0  0  0  0  0  0  0  0  0  0
   15.1948    9.4244    3.6335 H   0  0  0  0  0  0  0  0  0  0  0  0
   18.2775    8.0841    0.6924 H   0  0  0  0  0  0  0  0  0  0  0  0
   16.7204    7.2125    0.7776 H   0  0  0  0  0  0  0  0  0  0  0  0
   18.1704    6.5103    1.5369 H   0  0  0  0  0  0  0  0  0  0  0  0
   19.3334    8.9838    2.8650 H   0  0  0  0  0  0  0  0  0  0  0  0
   19.0809    7.4278    3.6995 H   0  0  0  0  0  0  0  0  0  0  0  0
   18.4197    8.9315    4.3956 H   0  0  0  0  0  0  0  0  0  0  0  0
   16.1790    7.8035    4.4668 H   0  0  0  0  0  0  0  0  0  0  0  0
   16.8169    6.3391    3.6825 H   0  0  0  0  0  0  0  0  0  0  0  0
   13.2487    7.9193    5.0101 H   0  0  0  0  0  0  0  0  0  0  0  0
   12.8752    6.9521    2.2200 H   0  0  0  0  0  0  0  0  0  0  0  0
   11.7936   10.1432    1.3363 H   0  0  0  0  0  0  0  0  0  0  0  0
   12.5171   12.3071   -0.7532 H   0  0  0  0  0  0  0  0  0  0  0  0
   11.6152   12.5801    0.7758 H   0  0  0  0  0  0  0  0  0  0  0  0
   10.8882   11.5994   -0.5293 H   0  0  0  0  0  0  0  0  0  0  0  0
   13.6308    6.0021    0.1697 H   0  0  0  0  0  0  0  0  0  0  0  0
   14.9739    6.0942   -0.9959 H   0  0  0  0  0  0  0  0  0  0  0  0
   13.3260    5.7126   -1.5727 H   0  0  0  0  0  0  0  0  0  0  0  0
   13.7019    9.2176   -2.5111 H   0  0  0  0  0  0  0  0  0  0  0  0
   14.5513    7.7137   -2.8968 H   0  0  0  0  0  0  0  0  0  0  0  0
   16.3700    8.2830   -1.2819 H   0  0  0  0  0  0  0  0  0  0  0  0
   15.4479    9.6629   -0.6894 H   0  0  0  0  0  0  0  0  0  0  0  0
   16.7077   11.6901   -0.5955 H   0  0  0  0  0  0  0  0  0  0  0  0
   16.4438   13.9011    0.4833 H   0  0  0  0  0  0  0  0  0  0  0  0
   15.0107   15.6446   -0.5741 H   0  0  0  0  0  0  0  0  0  0  0  0
   13.4760   16.4167   -2.3735 H   0  0  0  0  0  0  0  0  0  0  0  0
   12.2354   15.9373   -4.5136 H   0  0  0  0  0  0  0  0  0  0  0  0
   12.4572   13.7251   -5.6127 H   0  0  0  0  0  0  0  0  0  0  0  0
   13.9125   11.9410   -4.6021 H   0  0  0  0  0  0  0  0  0  0  0  0
   16.1446   10.6534   -5.4167 H   0  0  0  0  0  0  0  0  0  0  0  0
   17.2160    9.0047   -7.2009 H   0  0  0  0  0  0  0  0  0  0  0  0
   18.3468    6.9155   -6.0267 H   0  0  0  0  0  0  0  0  0  0  0  0
  1  2  1  0
  1 47  1  0
  1 48  1  0
  1 49  1  0
  2  3  1  0
  3  4  1  0
  3 50  1  0
  3 51  1  0
  4  5  1  0
  4 52  1  0
  4 53  1  0
  5  6  1  0
  5 17  1  0
  5 54  1  6
  6  7  1  0
  6 55  1  0
  7  8  2  0
  9  7  1  6
  9 10  1  0
  9 11  1  0
  9 12  1  0
 10 56  1  0
 10 57  1  0
 10 58  1  0
 11 59  1  0
 11 60  1  0
 11 61  1  0
 12 13  1  0
 12 62  1  0
 12 63  1  0
 13 14  1  0
 14 15  1  0
 14 16  1  0
 15 64  1  0
 16 65  1  0
 17 18  2  0
 17 19  1  0
 19 20  1  0
 20 21  1  0
 20 22  1  0
 20 66  1  1
 21 67  1  0
 21 68  1  0
 21 69  1  0
 22 23  1  0
 23 24  2  0
 23 25  1  0
 25 26  1  0
 25 27  1  0
 26 70  1  0
 26 71  1  0
 26 72  1  0
 27 28  1  0
 27 73  1  0
 27 74  1  0
 28 29  1  0
 28 75  1  0
 28 76  1  0
 29 30  1  1
 29 31  1  0
 29 42  1  0
 31 32  1  0
 32 33  2  0
 32 41  1  0
 33 34  1  0
 33 77  1  0
 34 35  2  0
 34 78  1  0
 35 36  1  0
 35 79  1  0
 36 37  1  0
 36 41  2  0
 37 38  2  0
 37 80  1  0
 38 39  1  0
 38 81  1  0
 39 40  2  0
 39 82  1  0
 40 41  1  0
 40 83  1  0
 42 43  2  0
 42 46  1  0
 43 44  1  0
 43 84  1  0
 44 45  2  0
 44 85  1  0
 45 46  1  0
 45 86  1  0
M  END

