
     RDKit          3D

 50 53  0  0  0  0  0  0  0  0999 V2000
    1.5687    5.1760   -5.6785 C   0  0  0  0  0  0  0  0  0  0  0  0
    2.9565    5.1695   -5.3371 O   0  0  0  0  0  0  0  0  0  0  0  0
    3.3714    5.0656   -4.0960 C   0  0  0  0  0  0  0  0  0  0  0  0
    2.5093    4.9419   -2.9796 C   0  0  0  0  0  0  0  0  0  0  0  0
    3.0360    4.8236   -1.6917 C   0  0  0  0  0  0  0  0  0  0  0  0
    2.1731    4.6786   -0.5562 C   0  0  0  0  0  0  0  0  0  0  0  0
    2.6193    4.5368    0.6687 N   0  0  0  0  0  0  0  0  0  0  0  0
    3.9572    4.5196    0.8354 C   0  0  0  0  0  0  0  0  0  0  0  0
    4.9358    4.6573   -0.1772 C   0  0  0  0  0  0  0  0  0  0  0  0
    6.4001    4.5689    0.2073 C   0  0  0  0  0  0  0  0  0  0  0  0
    7.1690    5.8845    0.3432 C   0  0  0  0  0  0  0  0  0  0  0  0
    7.2093    6.5670    1.5484 C   0  0  0  0  0  0  0  0  0  0  0  0
    7.9272    7.7851    1.6449 C   0  0  0  0  0  0  0  0  0  0  0  0
    8.6161    8.2711    0.5028 C   0  0  0  0  0  0  0  0  0  0  0  0
    9.3873    9.4632    0.4650 C   0  0  0  0  0  0  0  0  0  0  0  0
   10.0490    9.8636   -0.7013 C   0  0  0  0  0  0  0  0  0  0  0  0
    9.9745    9.1003   -1.8704 C   0  0  0  0  0  0  0  0  0  0  0  0
    9.2304    7.9078   -1.8519 C   0  0  0  0  0  0  0  0  0  0  0  0
    9.0833    7.0456   -2.9843 N   0  0  0  0  0  0  0  0  0  0  0  0
   10.4381    6.4414   -3.7823 S   0  0  1  0  0  0  0  0  0  0  0  0
   11.5863    5.9604   -2.6482 N   0  0  0  0  0  0  0  0  0  0  0  0
    9.9591    5.2184   -4.4339 O   0  0  0  0  0  0  0  0  0  0  0  0
   11.0613    7.5222   -4.5328 O   0  0  0  0  0  0  0  0  0  0  0  0
    8.5342    7.4727   -0.6947 C   0  0  0  0  0  0  0  0  0  0  0  0
    7.8114    6.3082   -0.7738 N   0  0  0  0  0  0  0  0  0  0  0  0
    4.4626    4.8368   -1.4952 C   0  0  0  0  0  0  0  0  0  0  0  0
    5.3231    5.0040   -2.6347 C   0  0  0  0  0  0  0  0  0  0  0  0
    4.8154    5.0983   -3.9120 C   0  0  0  0  0  0  0  0  0  0  0  0
    5.4952    5.2256   -5.0419 O   0  0  0  0  0  0  0  0  0  0  0  0
    6.9274    5.3098   -5.0058 C   0  0  0  0  0  0  0  0  0  0  0  0
    1.5323    5.2735   -6.7688 H   0  0  0  0  0  0  0  0  0  0  0  0
    1.0592    6.0325   -5.2116 H   0  0  0  0  0  0  0  0  0  0  0  0
    1.0895    4.2334   -5.3731 H   0  0  0  0  0  0  0  0  0  0  0  0
    1.4284    4.9326   -3.1203 H   0  0  0  0  0  0  0  0  0  0  0  0
    1.0860    4.6809   -0.7082 H   0  0  0  0  0  0  0  0  0  0  0  0
    4.2981    4.3843    1.8664 H   0  0  0  0  0  0  0  0  0  0  0  0
    6.9251    3.9459   -0.5324 H   0  0  0  0  0  0  0  0  0  0  0  0
    6.4523    4.0250    1.1626 H   0  0  0  0  0  0  0  0  0  0  0  0
    6.6934    6.1675    2.4252 H   0  0  0  0  0  0  0  0  0  0  0  0
    7.9687    8.3395    2.5840 H   0  0  0  0  0  0  0  0  0  0  0  0
    9.4575   10.0699    1.3718 H   0  0  0  0  0  0  0  0  0  0  0  0
   10.6282   10.7909   -0.7028 H   0  0  0  0  0  0  0  0  0  0  0  0
   10.4729    9.4103   -2.7894 H   0  0  0  0  0  0  0  0  0  0  0  0
    8.5363    6.2430   -2.6410 H   0  0  0  0  0  0  0  0  0  0  0  0
   11.1942    5.2857   -1.9901 H   0  0  0  0  0  0  0  0  0  0  0  0
   11.9560    6.7738   -2.1530 H   0  0  0  0  0  0  0  0  0  0  0  0
    6.3906    5.1066   -2.4498 H   0  0  0  0  0  0  0  0  0  0  0  0
    7.2553    5.3413   -6.0500 H   0  0  0  0  0  0  0  0  0  0  0  0
    7.3670    4.4295   -4.5144 H   0  0  0  0  0  0  0  0  0  0  0  0
    7.2510    6.2236   -4.4900 H   0  0  0  0  0  0  0  0  0  0  0  0
  1  2  1  0
  1 31  1  0
  1 32  1  0
  1 33  1  0
  2  3  1  0
  3  4  2  0
  3 28  1  0
  4  5  1  0
  4 34  1  0
  5  6  2  0
  5 26  1  0
  6  7  1  0
  6 35  1  0
  7  8  2  0
  8  9  1  0
  8 36  1  0
  9 10  1  0
  9 26  2  0
 10 11  1  0
 10 37  1  0
 10 38  1  0
 11 12  2  0
 11 25  1  0
 12 13  1  0
 12 39  1  0
 13 14  2  0
 13 40  1  0
 14 15  1  0
 14 24  1  0
 15 16  2  0
 15 41  1  0
 16 17  1  0
 16 42  1  0
 17 18  2  0
 17 43  1  0
 18 19  1  0
 18 24  1  0
 20 19  1  1
 19 44  1  0
 20 21  1  0
 20 22  2  0
 20 23  2  0
 21 45  1  0
 21 46  1  0
 24 25  2  0
 26 27  1  0
 27 28  2  0
 27 47  1  0
 28 29  1  0
 29 30  1  0
 30 48  1  0
 30 49  1  0
 30 50  1  0
M  END

