
     RDKit          3D

 67 71  0  0  0  0  0  0  0  0999 V2000
    6.0930    6.4330   -1.0036 C   0  0  0  0  0  0  0  0  0  0  0  0
    5.8319    5.7765    0.3613 C   0  0  1  0  0  0  0  0  0  0  0  0
    7.1347    5.7465    1.1788 C   0  0  0  0  0  0  0  0  0  0  0  0
    7.1400    4.9722    2.5119 C   0  0  0  0  0  0  0  0  0  0  0  0
    6.3643    3.6351    2.5351 C   0  0  0  0  0  0  0  0  0  0  0  0
    4.9994    3.6741    3.2443 C   0  0  0  0  0  0  0  0  0  0  0  0
    3.8213    4.4868    2.6610 C   0  0  2  0  0  0  0  0  0  0  0  0
    3.1380    3.8398    1.4381 C   0  0  0  0  0  0  0  0  0  0  0  0
    2.4349    2.5093    1.7858 C   0  0  0  0  0  0  0  0  0  0  0  0
    3.1715    1.4909    1.5608 O   0  0  0  0  0  0  0  0  0  0  0  0
    1.1390    2.4990    2.3296 C   0  0  0  0  0  0  0  0  0  0  0  0
    0.3486    1.3670    2.7206 C   0  0  0  0  0  0  0  0  0  0  0  0
   -0.8411    1.8798    3.1758 C   0  0  0  0  0  0  0  0  0  0  0  0
   -2.0509    1.1265    3.5637 C   0  0  0  0  0  0  0  0  0  0  0  0
   -1.9580    0.0823    4.5008 C   0  0  0  0  0  0  0  0  0  0  0  0
   -3.0739   -0.6843    4.8355 C   0  0  0  0  0  0  0  0  0  0  0  0
   -4.3284   -0.4393    4.2499 C   0  0  0  0  0  0  0  0  0  0  0  0
   -5.5462   -1.2321    4.5864 C   0  0  1  0  0  0  0  0  0  0  0  0
   -5.4768   -2.7194    4.8808 C   0  0  0  0  0  0  0  0  0  0  0  0
   -5.7959   -1.7607    5.9869 C   0  0  0  0  0  0  0  0  0  0  0  0
   -4.4130    0.6018    3.3085 C   0  0  0  0  0  0  0  0  0  0  0  0
   -3.3009    1.3691    2.9671 C   0  0  0  0  0  0  0  0  0  0  0  0
   -0.7318    3.2739    3.0819 N   0  0  0  0  0  0  0  0  0  0  0  0
   -1.6396    4.2710    3.4823 C   0  0  0  0  0  0  0  0  0  0  0  0
   -2.5316    4.0786    4.5576 C   0  0  0  0  0  0  0  0  0  0  0  0
   -3.3995    5.0949    4.9352 C   0  0  0  0  0  0  0  0  0  0  0  0
   -3.3949    6.3357    4.2632 C   0  0  0  0  0  0  0  0  0  0  0  0
   -4.2912    7.3808    4.6561 C   0  0  0  0  0  0  0  0  0  0  0  0
   -5.0209    8.2288    4.9736 N   0  0  0  0  0  0  0  0  0  0  0  0
   -2.4822    6.5310    3.2044 C   0  0  0  0  0  0  0  0  0  0  0  0
   -1.6146    5.5182    2.8221 C   0  0  0  0  0  0  0  0  0  0  0  0
    0.4589    3.6552    2.5605 N   0  0  0  0  0  0  0  0  0  0  0  0
    4.1092    5.9970    2.4054 C   0  0  0  0  0  0  0  0  0  0  0  0
    4.6291    6.4670    1.0324 C   0  0  0  0  0  0  0  0  0  0  0  0
    6.8970    5.9158   -1.5513 H   0  0  0  0  0  0  0  0  0  0  0  0
    6.3978    7.4869   -0.8835 H   0  0  0  0  0  0  0  0  0  0  0  0
    5.1921    6.4196   -1.6383 H   0  0  0  0  0  0  0  0  0  0  0  0
    5.5518    4.7289    0.1554 H   0  0  0  0  0  0  0  0  0  0  0  0
    7.4688    6.7841    1.3641 H   0  0  0  0  0  0  0  0  0  0  0  0
    7.9071    5.3028    0.5254 H   0  0  0  0  0  0  0  0  0  0  0  0
    6.7720    5.6129    3.3296 H   0  0  0  0  0  0  0  0  0  0  0  0
    8.1956    4.7771    2.7639 H   0  0  0  0  0  0  0  0  0  0  0  0
    6.9678    2.8888    3.0777 H   0  0  0  0  0  0  0  0  0  0  0  0
    6.2651    3.2255    1.5148 H   0  0  0  0  0  0  0  0  0  0  0  0
    5.1710    4.0542    4.2675 H   0  0  0  0  0  0  0  0  0  0  0  0
    4.6526    2.6346    3.3733 H   0  0  0  0  0  0  0  0  0  0  0  0
    3.0564    4.4809    3.4533 H   0  0  0  0  0  0  0  0  0  0  0  0
    3.8426    3.6546    0.6161 H   0  0  0  0  0  0  0  0  0  0  0  0
    2.3219    4.4804    1.0698 H   0  0  0  0  0  0  0  0  0  0  0  0
    0.5966    0.3140    2.6148 H   0  0  0  0  0  0  0  0  0  0  0  0
   -0.9977   -0.1216    4.9805 H   0  0  0  0  0  0  0  0  0  0  0  0
   -2.9578   -1.4839    5.5717 H   0  0  0  0  0  0  0  0  0  0  0  0
   -6.4378   -0.9028    4.0444 H   0  0  0  0  0  0  0  0  0  0  0  0
   -4.4886   -3.1888    4.8667 H   0  0  0  0  0  0  0  0  0  0  0  0
   -6.2771   -3.3523    4.4867 H   0  0  0  0  0  0  0  0  0  0  0  0
   -5.0301   -1.5631    6.7429 H   0  0  0  0  0  0  0  0  0  0  0  0
   -6.8201   -1.7207    6.3686 H   0  0  0  0  0  0  0  0  0  0  0  0
   -5.3727    0.8110    2.8282 H   0  0  0  0  0  0  0  0  0  0  0  0
   -3.4023    2.1616    2.2226 H   0  0  0  0  0  0  0  0  0  0  0  0
   -2.5307    3.1428    5.1134 H   0  0  0  0  0  0  0  0  0  0  0  0
   -4.0819    4.9390    5.7729 H   0  0  0  0  0  0  0  0  0  0  0  0
   -2.4642    7.4885    2.6802 H   0  0  0  0  0  0  0  0  0  0  0  0
   -0.9053    5.6665    2.0092 H   0  0  0  0  0  0  0  0  0  0  0  0
    4.7787    6.3432    3.2083 H   0  0  0  0  0  0  0  0  0  0  0  0
    3.1609    6.5357    2.5703 H   0  0  0  0  0  0  0  0  0  0  0  0
    4.8613    7.5441    1.1276 H   0  0  0  0  0  0  0  0  0  0  0  0
    3.7917    6.4212    0.3138 H   0  0  0  0  0  0  0  0  0  0  0  0
  1  2  1  0
  1 35  1  0
  1 36  1  0
  1 37  1  0
  2  3  1  0
  2 34  1  0
  2 38  1  6
  3  4  1  0
  3 39  1  0
  3 40  1  0
  4  5  1  0
  4 41  1  0
  4 42  1  0
  5  6  1  0
  5 43  1  0
  5 44  1  0
  6  7  1  0
  6 45  1  0
  6 46  1  0
  7  8  1  0
  7 33  1  0
  7 47  1  1
  8  9  1  0
  8 48  1  0
  8 49  1  0
  9 10  2  0
  9 11  1  0
 11 12  1  0
 11 32  2  0
 12 13  2  0
 12 50  1  0
 13 14  1  0
 13 23  1  0
 14 15  2  0
 14 22  1  0
 15 16  1  0
 15 51  1  0
 16 17  2  0
 16 52  1  0
 17 18  1  0
 17 21  1  0
 18 19  1  0
 18 20  1  0
 18 53  1  6
 19 20  1  0
 19 54  1  0
 19 55  1  0
 20 56  1  0
 20 57  1  0
 21 22  2  0
 21 58  1  0
 22 59  1  0
 23 24  1  0
 23 32  1  0
 24 25  2  0
 24 31  1  0
 25 26  1  0
 25 60  1  0
 26 27  2  0
 26 61  1  0
 27 28  1  0
 27 30  1  0
 28 29  3  0
 30 31  2  0
 30 62  1  0
 31 63  1  0
 33 34  1  0
 33 64  1  0
 33 65  1  0
 34 66  1  0
 34 67  1  0
M  END

