
     RDKit          3D

 39 41  0  0  0  0  0  0  0  0999 V2000
    4.4305    1.3592   -3.1026 C   0  0  0  0  0  0  0  0  0  0  0  0
    4.3555    0.1125   -2.2881 C   0  0  0  0  0  0  0  0  0  0  0  0
    3.2940   -0.6460   -2.1569 N   0  0  0  0  0  0  0  0  0  0  0  0
    3.6245   -1.6895   -1.3340 N   0  0  0  0  0  0  0  0  0  0  0  0
    4.8775   -1.5461   -0.9817 C   0  0  0  0  0  0  0  0  0  0  0  0
    5.6305   -2.4785   -0.0853 C   0  0  0  0  0  0  0  0  0  0  0  0
    4.7550   -3.5494    0.3174 N   0  0  0  0  0  0  0  0  0  0  0  0
    5.2027   -4.5605    1.1172 C   0  0  0  0  0  0  0  0  0  0  0  0
    6.3449   -4.5445    1.5879 O   0  0  0  0  0  0  0  0  0  0  0  0
    4.2492   -5.7545    1.2555 C   0  0  2  0  0  0  0  0  0  0  0  0
    4.3680   -6.4313    2.6331 C   0  0  0  0  0  0  0  0  0  0  0  0
    5.7008   -7.1579    2.8395 C   0  0  0  0  0  0  0  0  0  0  0  0
    5.9705   -8.4563    1.5770 S   0  0  0  0  0  0  0  0  0  0  0  0
    5.7042   -7.5596    0.0837 C   0  0  0  0  0  0  0  0  0  0  0  0
    6.2830   -8.0512   -1.0834 C   0  0  0  0  0  0  0  0  0  0  0  0
    5.7511   -7.6915   -2.3350 C   0  0  0  0  0  0  0  0  0  0  0  0
    4.5168   -6.9777   -2.3467 C   0  0  0  0  0  0  0  0  0  0  0  0
    3.9237   -6.5119   -1.1817 C   0  0  0  0  0  0  0  0  0  0  0  0
    4.5424   -6.6838    0.0942 C   0  0  0  0  0  0  0  0  0  0  0  0
    5.4028   -0.4182   -1.5599 N   0  0  0  0  0  0  0  0  0  0  0  0
    6.7459    0.1038   -1.3982 C   0  0  0  0  0  0  0  0  0  0  0  0
    3.4472    1.5213   -3.5625 H   0  0  0  0  0  0  0  0  0  0  0  0
    5.1808    1.2850   -3.9077 H   0  0  0  0  0  0  0  0  0  0  0  0
    4.6783    2.2422   -2.4902 H   0  0  0  0  0  0  0  0  0  0  0  0
    6.0216   -1.9392    0.7994 H   0  0  0  0  0  0  0  0  0  0  0  0
    6.5277   -2.8745   -0.6020 H   0  0  0  0  0  0  0  0  0  0  0  0
    3.8339   -3.5617   -0.1116 H   0  0  0  0  0  0  0  0  0  0  0  0
    3.2147   -5.3864    1.1448 H   0  0  0  0  0  0  0  0  0  0  0  0
    3.5385   -7.1502    2.7460 H   0  0  0  0  0  0  0  0  0  0  0  0
    4.2699   -5.6817    3.4354 H   0  0  0  0  0  0  0  0  0  0  0  0
    5.7441   -7.6860    3.8029 H   0  0  0  0  0  0  0  0  0  0  0  0
    6.5353   -6.4467    2.7357 H   0  0  0  0  0  0  0  0  0  0  0  0
    7.1119   -8.7644   -1.0137 H   0  0  0  0  0  0  0  0  0  0  0  0
    6.2202   -8.0234   -3.2615 H   0  0  0  0  0  0  0  0  0  0  0  0
    4.0070   -6.8124   -3.3015 H   0  0  0  0  0  0  0  0  0  0  0  0
    2.9591   -5.9939   -1.2425 H   0  0  0  0  0  0  0  0  0  0  0  0
    7.4827   -0.7097   -1.4720 H   0  0  0  0  0  0  0  0  0  0  0  0
    6.8710    0.6032   -0.4233 H   0  0  0  0  0  0  0  0  0  0  0  0
    6.9572    0.8311   -2.1926 H   0  0  0  0  0  0  0  0  0  0  0  0
  1  2  1  0
  1 22  1  0
  1 23  1  0
  1 24  1  0
  2  3  2  0
  2 20  1  0
  3  4  1  0
  4  5  2  0
  5  6  1  0
  5 20  1  0
  6  7  1  0
  6 25  1  0
  6 26  1  0
  7  8  1  0
  7 27  1  0
  8  9  2  0
  8 10  1  0
 10 11  1  0
 10 19  1  0
 10 28  1  6
 11 12  1  0
 11 29  1  0
 11 30  1  0
 12 13  1  0
 12 31  1  0
 12 32  1  0
 13 14  1  0
 14 15  2  0
 14 19  1  0
 15 16  1  0
 15 33  1  0
 16 17  2  0
 16 34  1  0
 17 18  1  0
 17 35  1  0
 18 19  2  0
 18 36  1  0
 20 21  1  0
 21 37  1  0
 21 38  1  0
 21 39  1  0
M  END

