
     RDKit          3D

 33 34  0  0  0  0  0  0  0  0999 V2000
    0.9097    0.2082   -0.0903 C   0  0  0  0  0  0  0  0  0  0  0  0
    2.3966   -0.0527   -0.1572 C   0  0  0  0  0  0  0  0  0  0  0  0
    3.1787    0.9764   -0.2438 N   0  0  0  0  0  0  0  0  0  0  0  0
    4.5073    1.1102   -0.1824 C   0  0  0  0  0  0  0  0  0  0  0  0
    5.2207   -0.1182    0.0112 C   0  0  0  0  0  0  0  0  0  0  0  0
    6.6010   -0.0956    0.0648 N   0  0  0  0  0  0  0  0  0  0  0  0
    4.4935   -1.2983    0.1222 C   0  0  0  0  0  0  0  0  0  0  0  0
    3.0616   -1.3500   -0.0251 C   0  0  0  0  0  0  0  0  0  0  0  0
    2.4204   -2.6520    0.1541 C   0  0  0  0  0  0  0  0  0  0  0  0
    3.0866   -3.6401    0.4928 O   0  0  0  0  0  0  0  0  0  0  0  0
    1.0461   -2.7924   -0.0945 N   0  0  0  0  0  0  0  0  0  0  0  0
    0.4822   -4.1098   -0.1228 C   0  0  1  0  0  0  0  0  0  0  0  0
    0.1407   -4.7942    1.1751 C   0  0  0  0  0  0  0  0  0  0  0  0
   -0.9716   -4.3180    0.2679 C   0  0  1  0  0  0  0  0  0  0  0  0
   -1.8037   -3.1279    0.7110 C   0  0  0  0  0  0  0  0  0  0  0  0
   -1.7520   -5.3604   -0.5142 C   0  0  0  0  0  0  0  0  0  0  0  0
    0.7279    1.2856    0.0206 H   0  0  0  0  0  0  0  0  0  0  0  0
    0.4519   -0.3267    0.7524 H   0  0  0  0  0  0  0  0  0  0  0  0
    0.4017   -0.1194   -1.0148 H   0  0  0  0  0  0  0  0  0  0  0  0
    4.9692    2.0696   -0.4146 H   0  0  0  0  0  0  0  0  0  0  0  0
    7.0703    0.7943   -0.0455 H   0  0  0  0  0  0  0  0  0  0  0  0
    7.0992   -0.8881   -0.3232 H   0  0  0  0  0  0  0  0  0  0  0  0
    5.0033   -2.2341    0.3499 H   0  0  0  0  0  0  0  0  0  0  0  0
    0.6571   -2.1517   -0.7756 H   0  0  0  0  0  0  0  0  0  0  0  0
    0.8658   -4.7677   -0.9160 H   0  0  0  0  0  0  0  0  0  0  0  0
    0.3312   -4.2290    2.0910 H   0  0  0  0  0  0  0  0  0  0  0  0
    0.3423   -5.8662    1.2527 H   0  0  0  0  0  0  0  0  0  0  0  0
   -1.2062   -2.4024    1.2802 H   0  0  0  0  0  0  0  0  0  0  0  0
   -2.6370   -3.4590    1.3538 H   0  0  0  0  0  0  0  0  0  0  0  0
   -2.2462   -2.6033   -0.1548 H   0  0  0  0  0  0  0  0  0  0  0  0
   -1.1100   -6.1969   -0.8316 H   0  0  0  0  0  0  0  0  0  0  0  0
   -2.2056   -4.9228   -1.4206 H   0  0  0  0  0  0  0  0  0  0  0  0
   -2.5687   -5.7806    0.0975 H   0  0  0  0  0  0  0  0  0  0  0  0
  1  2  1  0
  1 17  1  0
  1 18  1  0
  1 19  1  0
  2  3  2  0
  2  8  1  0
  3  4  1  0
  4  5  2  0
  4 20  1  0
  5  6  1  0
  5  7  1  0
  6 21  1  0
  6 22  1  0
  7  8  2  0
  7 23  1  0
  8  9  1  0
  9 10  2  0
  9 11  1  0
 11 12  1  0
 11 24  1  0
 12 13  1  0
 12 14  1  0
 12 25  1  6
 13 14  1  0
 13 26  1  0
 13 27  1  0
 14 15  1  1
 14 16  1  0
 15 28  1  0
 15 29  1  0
 15 30  1  0
 16 31  1  0
 16 32  1  0
 16 33  1  0
M  END

