
     RDKit          3D

 36 37  0  0  0  0  0  0  0  0999 V2000
    4.5338    3.7591   -0.1973 C   0  0  0  0  0  0  0  0  0  0  0  0
    5.0866    2.8216   -1.0920 O   0  0  0  0  0  0  0  0  0  0  0  0
    4.3163    1.7976   -1.5417 C   0  0  0  0  0  0  0  0  0  0  0  0
    2.9812    1.5848   -1.1722 C   0  0  0  0  0  0  0  0  0  0  0  0
    2.2931    0.4852   -1.7035 C   0  0  0  0  0  0  0  0  0  0  0  0
    2.9107   -0.3941   -2.5890 C   0  0  0  0  0  0  0  0  0  0  0  0
    4.2512   -0.1833   -2.9641 C   0  0  0  0  0  0  0  0  0  0  0  0
    4.9356   -1.1112   -3.9496 C   0  0  0  0  0  0  0  0  0  0  0  0
    4.7826   -2.5131   -3.6070 N   0  0  0  0  0  0  0  0  0  0  0  0
    4.4394   -3.4669   -4.5288 C   0  0  0  0  0  0  0  0  0  0  0  0
    4.2436   -3.2015   -5.7061 O   0  0  0  0  0  0  0  0  0  0  0  0
    4.3241   -4.8766   -4.0095 C   0  0  0  0  0  0  0  0  0  0  0  0
    4.1257   -5.2023   -2.6602 C   0  0  0  0  0  0  0  0  0  0  0  0
    4.0160   -6.5363   -2.2586 C   0  0  0  0  0  0  0  0  0  0  0  0
    4.0992   -7.5828   -3.1884 C   0  0  0  0  0  0  0  0  0  0  0  0
    3.9853   -9.0257   -2.7630 C   0  0  0  0  0  0  0  0  0  0  0  0
    4.2847   -7.2472   -4.5418 C   0  0  0  0  0  0  0  0  0  0  0  0
    4.3874   -5.9196   -4.9477 C   0  0  0  0  0  0  0  0  0  0  0  0
    4.9412    0.9067   -2.4337 C   0  0  0  0  0  0  0  0  0  0  0  0
    5.3262    4.4870    0.0237 H   0  0  0  0  0  0  0  0  0  0  0  0
    4.2100    3.2864    0.7479 H   0  0  0  0  0  0  0  0  0  0  0  0
    3.6724    4.2924   -0.6389 H   0  0  0  0  0  0  0  0  0  0  0  0
    2.4722    2.2562   -0.4806 H   0  0  0  0  0  0  0  0  0  0  0  0
    1.2508    0.3229   -1.4155 H   0  0  0  0  0  0  0  0  0  0  0  0
    2.3608   -1.2459   -2.9954 H   0  0  0  0  0  0  0  0  0  0  0  0
    6.0039   -0.8402   -4.0272 H   0  0  0  0  0  0  0  0  0  0  0  0
    4.5080   -1.0002   -4.9584 H   0  0  0  0  0  0  0  0  0  0  0  0
    5.0574   -2.8046   -2.6776 H   0  0  0  0  0  0  0  0  0  0  0  0
    4.0240   -4.4173   -1.9060 H   0  0  0  0  0  0  0  0  0  0  0  0
    3.8540   -6.7668   -1.2019 H   0  0  0  0  0  0  0  0  0  0  0  0
    3.8502   -9.1201   -1.6756 H   0  0  0  0  0  0  0  0  0  0  0  0
    4.8870   -9.5961   -3.0425 H   0  0  0  0  0  0  0  0  0  0  0  0
    3.1300   -9.5197   -3.2539 H   0  0  0  0  0  0  0  0  0  0  0  0
    4.3458   -8.0443   -5.2888 H   0  0  0  0  0  0  0  0  0  0  0  0
    4.5172   -5.6581   -5.9996 H   0  0  0  0  0  0  0  0  0  0  0  0
    5.9842    1.0968   -2.6986 H   0  0  0  0  0  0  0  0  0  0  0  0
  1  2  1  0
  1 20  1  0
  1 21  1  0
  1 22  1  0
  2  3  1  0
  3  4  2  0
  3 19  1  0
  4  5  1  0
  4 23  1  0
  5  6  2  0
  5 24  1  0
  6  7  1  0
  6 25  1  0
  7  8  1  0
  7 19  2  0
  8  9  1  0
  8 26  1  0
  8 27  1  0
  9 10  1  0
  9 28  1  0
 10 11  2  0
 10 12  1  0
 12 13  2  0
 12 18  1  0
 13 14  1  0
 13 29  1  0
 14 15  2  0
 14 30  1  0
 15 16  1  0
 15 17  1  0
 16 31  1  0
 16 32  1  0
 16 33  1  0
 17 18  2  0
 17 34  1  0
 18 35  1  0
 19 36  1  0
M  END

