
     RDKit          3D

 64 67  0  0  0  0  0  0  0  0999 V2000
    2.9235    1.2548   -1.3615 C   0  0  0  0  0  0  0  0  0  0  0  0
    4.0139    0.2834   -0.9775 C   0  0  0  0  0  0  0  0  0  0  0  0
    5.0774    0.7238   -0.1755 C   0  0  0  0  0  0  0  0  0  0  0  0
    6.0892   -0.1500    0.2271 C   0  0  0  0  0  0  0  0  0  0  0  0
    6.0629   -1.4714   -0.1936 C   0  0  0  0  0  0  0  0  0  0  0  0
    5.0190   -1.9384   -1.0267 C   0  0  0  0  0  0  0  0  0  0  0  0
    5.1080   -3.2670   -1.4742 N   0  0  0  0  0  0  0  0  0  0  0  0
    5.5371   -4.3301   -0.5890 C   0  0  0  0  0  0  0  0  0  0  0  0
    4.5075   -5.5235   -0.7027 C   0  0  0  0  0  0  0  0  0  0  0  0
    4.3944   -5.9520   -2.0587 N   0  0  0  0  0  0  0  0  0  0  0  0
    5.3932   -6.8922   -2.5427 C   0  0  0  0  0  0  0  0  0  0  0  0
    6.5902   -6.3309   -2.8702 N   0  0  0  0  0  0  0  0  0  0  0  0
    7.5428   -7.2703   -3.1951 C   0  0  0  0  0  0  0  0  0  0  0  0
    7.2843   -8.6246   -3.2006 C   0  0  0  0  0  0  0  0  0  0  0  0
    6.0748   -9.1760   -2.9020 N   0  0  0  0  0  0  0  0  0  0  0  0
    5.1215   -8.2400   -2.5888 C   0  0  0  0  0  0  0  0  0  0  0  0
    3.4921   -8.8649   -2.1621 S   0  0  0  0  0  0  0  0  0  0  0  0
    4.0196  -10.1455   -0.9824 C   0  0  0  0  0  0  0  0  0  0  0  0
    4.3897   -9.6342    0.4159 C   0  0  0  0  0  0  0  0  0  0  0  0
    4.3509   -8.4488    0.7176 O   0  0  0  0  0  0  0  0  0  0  0  0
    4.7781  -10.5901    1.3290 N   0  0  0  0  0  0  0  0  0  0  0  0
    4.9642  -12.0116    1.0566 C   0  0  0  0  0  0  0  0  0  0  0  0
    6.4171  -12.4318    1.3169 C   0  0  0  0  0  0  0  0  0  0  0  0
    6.8678  -12.0290    2.7253 C   0  0  0  0  0  0  0  0  0  0  0  0
    6.6215  -10.5354    2.9957 C   0  0  2  0  0  0  0  0  0  0  0  0
    6.9893  -10.1353    4.4253 C   0  0  0  0  0  0  0  0  0  0  0  0
    5.1583  -10.1838    2.6781 C   0  0  0  0  0  0  0  0  0  0  0  0
    3.9632   -4.9246   -2.9479 C   0  0  0  0  0  0  0  0  0  0  0  0
    4.9271   -3.6751   -2.8527 C   0  0  0  0  0  0  0  0  0  0  0  0
    3.9573   -1.0651   -1.3966 C   0  0  0  0  0  0  0  0  0  0  0  0
    2.7426   -1.5478   -2.1514 C   0  0  0  0  0  0  0  0  0  0  0  0
    3.1722    2.2742   -1.0349 H   0  0  0  0  0  0  0  0  0  0  0  0
    1.9571    0.9860   -0.9021 H   0  0  0  0  0  0  0  0  0  0  0  0
    2.7609    1.2792   -2.4510 H   0  0  0  0  0  0  0  0  0  0  0  0
    5.1054    1.7686    0.1434 H   0  0  0  0  0  0  0  0  0  0  0  0
    6.9124    0.2076    0.8492 H   0  0  0  0  0  0  0  0  0  0  0  0
    6.8804   -2.1446    0.0652 H   0  0  0  0  0  0  0  0  0  0  0  0
    5.5792   -3.9615    0.4431 H   0  0  0  0  0  0  0  0  0  0  0  0
    6.5061   -4.7351   -0.9153 H   0  0  0  0  0  0  0  0  0  0  0  0
    3.5330   -5.1608   -0.3326 H   0  0  0  0  0  0  0  0  0  0  0  0
    4.8242   -6.3582   -0.0656 H   0  0  0  0  0  0  0  0  0  0  0  0
    8.5400   -6.8969   -3.4496 H   0  0  0  0  0  0  0  0  0  0  0  0
    8.0894   -9.3239   -3.4587 H   0  0  0  0  0  0  0  0  0  0  0  0
    4.8936  -10.6272   -1.4522 H   0  0  0  0  0  0  0  0  0  0  0  0
    3.2066  -10.8852   -0.9215 H   0  0  0  0  0  0  0  0  0  0  0  0
    4.6791  -12.2398    0.0244 H   0  0  0  0  0  0  0  0  0  0  0  0
    4.2896  -12.5940    1.7158 H   0  0  0  0  0  0  0  0  0  0  0  0
    7.0636  -11.9484    0.5643 H   0  0  0  0  0  0  0  0  0  0  0  0
    6.5141  -13.5213    1.1738 H   0  0  0  0  0  0  0  0  0  0  0  0
    7.9337  -12.2731    2.8725 H   0  0  0  0  0  0  0  0  0  0  0  0
    6.3071  -12.6230    3.4728 H   0  0  0  0  0  0  0  0  0  0  0  0
    7.2504   -9.9548    2.2954 H   0  0  0  0  0  0  0  0  0  0  0  0
    6.3729  -10.6786    5.1623 H   0  0  0  0  0  0  0  0  0  0  0  0
    6.8367   -9.0567    4.5935 H   0  0  0  0  0  0  0  0  0  0  0  0
    8.0450  -10.3634    4.6441 H   0  0  0  0  0  0  0  0  0  0  0  0
    4.9822   -9.1042    2.7577 H   0  0  0  0  0  0  0  0  0  0  0  0
    4.4971  -10.6946    3.4070 H   0  0  0  0  0  0  0  0  0  0  0  0
    2.9377   -4.6004   -2.6961 H   0  0  0  0  0  0  0  0  0  0  0  0
    3.9723   -5.2829   -3.9848 H   0  0  0  0  0  0  0  0  0  0  0  0
    4.5738   -2.8333   -3.4579 H   0  0  0  0  0  0  0  0  0  0  0  0
    5.8915   -4.0449   -3.2292 H   0  0  0  0  0  0  0  0  0  0  0  0
    2.6208   -2.6345   -2.0925 H   0  0  0  0  0  0  0  0  0  0  0  0
    2.7747   -1.2663   -3.2185 H   0  0  0  0  0  0  0  0  0  0  0  0
    1.8279   -1.0992   -1.7382 H   0  0  0  0  0  0  0  0  0  0  0  0
  1  2  1  0
  1 32  1  0
  1 33  1  0
  1 34  1  0
  2  3  2  0
  2 30  1  0
  3  4  1  0
  3 35  1  0
  4  5  2  0
  4 36  1  0
  5  6  1  0
  5 37  1  0
  6  7  1  0
  6 30  2  0
  7  8  1  0
  7 29  1  0
  8  9  1  0
  8 38  1  0
  8 39  1  0
  9 10  1  0
  9 40  1  0
  9 41  1  0
 10 11  1  0
 10 28  1  0
 11 12  2  0
 11 16  1  0
 12 13  1  0
 13 14  2  0
 13 42  1  0
 14 15  1  0
 14 43  1  0
 15 16  2  0
 16 17  1  0
 17 18  1  0
 18 19  1  0
 18 44  1  0
 18 45  1  0
 19 20  2  0
 19 21  1  0
 21 22  1  0
 21 27  1  0
 22 23  1  0
 22 46  1  0
 22 47  1  0
 23 24  1  0
 23 48  1  0
 23 49  1  0
 24 25  1  0
 24 50  1  0
 24 51  1  0
 25 26  1  0
 25 27  1  0
 25 52  1  6
 26 53  1  0
 26 54  1  0
 26 55  1  0
 27 56  1  0
 27 57  1  0
 28 29  1  0
 28 58  1  0
 28 59  1  0
 29 60  1  0
 29 61  1  0
 30 31  1  0
 31 62  1  0
 31 63  1  0
 31 64  1  0
M  END

