
     RDKit          3D

 90 97  0  0  0  0  0  0  0  0999 V2000
   12.0837    7.1185   -5.5482 C   0  0  0  0  0  0  0  0  0  0  0  0
   10.8135    6.3376   -5.9717 C   0  0  1  0  0  0  0  0  0  0  0  0
   10.7450    4.9836   -5.2195 C   0  0  0  0  0  0  0  0  0  0  0  0
    9.6227    7.1831   -5.4649 C   0  0  0  0  0  0  0  0  0  0  0  0
   10.8168    6.1144   -7.4998 C   0  0  0  0  0  0  0  0  0  0  0  0
   11.9875    5.6536   -8.2992 C   0  0  0  0  0  0  0  0  0  0  0  0
   13.1913    5.0605   -7.6224 C   0  0  0  0  0  0  0  0  0  0  0  0
   14.5332    5.1945   -7.7522 C   0  0  0  0  0  0  0  0  0  0  0  0
   15.1564    6.0602   -8.7707 C   0  0  0  0  0  0  0  0  0  0  0  0
   14.8157    7.3885   -8.8119 N   0  0  0  0  0  0  0  0  0  0  0  0
   14.4256    7.9008   -8.0301 H   0  0  0  0  0  0  0  0  0  0  0  0
   14.7876    7.8356  -10.1191 C   0  0  0  0  0  0  0  0  0  0  0  0
   15.1763    6.7561  -10.9211 C   0  0  0  0  0  0  0  0  0  0  0  0
   14.3970    6.4990  -12.1556 C   0  0  0  0  0  0  0  0  0  0  0  0
   13.0673    6.7572  -12.0556 C   0  0  0  0  0  0  0  0  0  0  0  0
   12.5965    7.6648  -11.0164 C   0  0  0  0  0  0  0  0  0  0  0  0
   11.3826    8.1995  -10.6380 C   0  0  0  0  0  0  0  0  0  0  0  0
    9.7178    4.6872  -10.4746 C   0  0  2  0  0  0  0  0  0  0  0  0
    8.2306    4.8205  -10.8596 C   0  0  0  0  0  0  0  0  0  0  0  0
   10.5090    4.2918  -11.7396 C   0  0  0  0  0  0  0  0  0  0  0  0
    9.8178    3.5179   -9.4709 C   0  0  0  0  0  0  0  0  0  0  0  0
   11.7517    9.6290  -10.6556 C   0  0  0  0  0  0  0  0  0  0  0  0
   11.1012   10.5061  -11.4862 C   0  0  0  0  0  0  0  0  0  0  0  0
    9.8719   10.1125  -12.1194 C   0  0  0  0  0  0  0  0  0  0  0  0
    9.3397    8.8454  -12.2664 C   0  0  0  0  0  0  0  0  0  0  0  0
   10.0198    7.5509  -12.2627 N   0  0  0  0  0  0  0  0  0  0  0  0
    9.3405    6.8947  -12.6590 H   0  0  0  0  0  0  0  0  0  0  0  0
   10.0846    7.3972  -10.7502 C   0  0  2  0  0  0  0  0  0  0  0  0
    8.6092    7.9229  -10.4027 C   0  0  0  0  0  0  0  0  0  0  0  0
    7.9174    7.5976   -9.1966 C   0  0  0  0  0  0  0  0  0  0  0  0
    8.4999    6.8573   -8.2219 C   0  0  0  0  0  0  0  0  0  0  0  0
    9.8315    6.3517   -8.4231 C   0  0  0  0  0  0  0  0  0  0  0  0
   10.3583    6.0312   -9.8468 C   0  0  1  0  0  0  0  0  0  0  0  0
   11.7759    5.6727   -9.5835 N   0  0  0  0  0  0  0  0  0  0  0  0
    8.1076    8.6510  -11.4561 C   0  0  0  0  0  0  0  0  0  0  0  0
    6.7305    9.2781  -11.6839 C   0  0  1  0  0  0  0  0  0  0  0  0
    6.4478   10.4032  -10.6591 C   0  0  0  0  0  0  0  0  0  0  0  0
    6.6468    9.8693  -13.1085 C   0  0  0  0  0  0  0  0  0  0  0  0
    5.6316    8.1914  -11.5821 C   0  0  0  0  0  0  0  0  0  0  0  0
   13.1177    9.7935  -10.2508 N   0  0  0  0  0  0  0  0  0  0  0  0
   13.5994    8.6155  -10.4891 C   0  0  0  0  0  0  0  0  0  0  0  0
   15.5439    5.6641  -10.0585 C   0  0  0  0  0  0  0  0  0  0  0  0
   16.0451    4.2847  -10.4929 C   0  0  1  0  0  0  0  0  0  0  0  0
   17.0458    4.4507  -11.6590 C   0  0  0  0  0  0  0  0  0  0  0  0
   16.8024    3.5809   -9.3457 C   0  0  0  0  0  0  0  0  0  0  0  0
   14.8710    3.3807  -10.9375 C   0  0  0  0  0  0  0  0  0  0  0  0
   12.0659    7.2970   -4.4611 H   0  0  0  0  0  0  0  0  0  0  0  0
   12.1166    8.1008   -6.0475 H   0  0  0  0  0  0  0  0  0  0  0  0
   13.0131    6.5852   -5.7792 H   0  0  0  0  0  0  0  0  0  0  0  0
   10.6988    5.1580   -4.1317 H   0  0  0  0  0  0  0  0  0  0  0  0
   11.6148    4.3390   -5.4066 H   0  0  0  0  0  0  0  0  0  0  0  0
    9.8432    4.4218   -5.5097 H   0  0  0  0  0  0  0  0  0  0  0  0
    9.7999    7.4450   -4.4099 H   0  0  0  0  0  0  0  0  0  0  0  0
    8.6712    6.6354   -5.4962 H   0  0  0  0  0  0  0  0  0  0  0  0
    9.5078    8.1200   -6.0287 H   0  0  0  0  0  0  0  0  0  0  0  0
   12.8887    4.3754   -6.8244 H   0  0  0  0  0  0  0  0  0  0  0  0
   15.1543    4.5687   -7.1035 H   0  0  0  0  0  0  0  0  0  0  0  0
   14.8041    5.9806  -13.0255 H   0  0  0  0  0  0  0  0  0  0  0  0
   12.3531    6.4657  -12.8263 H   0  0  0  0  0  0  0  0  0  0  0  0
    8.0451    5.6129  -11.5967 H   0  0  0  0  0  0  0  0  0  0  0  0
    7.5856    5.0121   -9.9923 H   0  0  0  0  0  0  0  0  0  0  0  0
    7.9030    3.8710  -11.3130 H   0  0  0  0  0  0  0  0  0  0  0  0
   10.4360    5.0498  -12.5317 H   0  0  0  0  0  0  0  0  0  0  0  0
   10.1025    3.3507  -12.1448 H   0  0  0  0  0  0  0  0  0  0  0  0
   11.5721    4.1475  -11.5115 H   0  0  0  0  0  0  0  0  0  0  0  0
    9.2615    3.7198   -8.5438 H   0  0  0  0  0  0  0  0  0  0  0  0
   10.8594    3.2867   -9.2102 H   0  0  0  0  0  0  0  0  0  0  0  0
    9.3835    2.6139   -9.9272 H   0  0  0  0  0  0  0  0  0  0  0  0
   11.4926   11.5208  -11.6022 H   0  0  0  0  0  0  0  0  0  0  0  0
    9.1259   10.9143  -12.1934 H   0  0  0  0  0  0  0  0  0  0  0  0
    6.9065    7.9767   -9.0481 H   0  0  0  0  0  0  0  0  0  0  0  0
    7.9655    6.6762   -7.2938 H   0  0  0  0  0  0  0  0  0  0  0  0
    7.1977   11.2058  -10.7308 H   0  0  0  0  0  0  0  0  0  0  0  0
    6.4581   10.0323   -9.6242 H   0  0  0  0  0  0  0  0  0  0  0  0
    5.4572   10.8481  -10.8488 H   0  0  0  0  0  0  0  0  0  0  0  0
    7.3525   10.6973  -13.2633 H   0  0  0  0  0  0  0  0  0  0  0  0
    5.6334   10.2598  -13.2926 H   0  0  0  0  0  0  0  0  0  0  0  0
    6.8593    9.1039  -13.8708 H   0  0  0  0  0  0  0  0  0  0  0  0
    5.5742    7.7351  -10.5850 H   0  0  0  0  0  0  0  0  0  0  0  0
    5.8078    7.3831  -12.3091 H   0  0  0  0  0  0  0  0  0  0  0  0
    4.6473    8.6351  -11.8038 H   0  0  0  0  0  0  0  0  0  0  0  0
   17.9002    5.0773  -11.3587 H   0  0  0  0  0  0  0  0  0  0  0  0
   16.5863    4.9162  -12.5416 H   0  0  0  0  0  0  0  0  0  0  0  0
   17.4352    3.4668  -11.9676 H   0  0  0  0  0  0  0  0  0  0  0  0
   17.5977    4.2239   -8.9369 H   0  0  0  0  0  0  0  0  0  0  0  0
   17.2709    2.6557   -9.7186 H   0  0  0  0  0  0  0  0  0  0  0  0
   16.1349    3.2921   -8.5219 H   0  0  0  0  0  0  0  0  0  0  0  0
   14.3406    3.8043  -11.8018 H   0  0  0  0  0  0  0  0  0  0  0  0
   14.1366    3.2628  -10.1265 H   0  0  0  0  0  0  0  0  0  0  0  0
   15.2419    2.3804  -11.2176 H   0  0  0  0  0  0  0  0  0  0  0  0
  2  1  1  1
  1 47  1  0
  1 48  1  0
  1 49  1  0
  2  3  1  0
  2  4  1  0
  2  5  1  0
  3 50  1  0
  3 51  1  0
  3 52  1  0
  4 53  1  0
  4 54  1  0
  4 55  1  0
  5  6  1  0
  5 32  2  0
  6  7  1  0
  6 34  2  0
  7  8  2  0
  7 56  1  0
  8  9  1  0
  8 57  1  0
  9 10  1  0
  9 42  2  0
 10 11  1  0
 10 12  1  0
 12 13  2  0
 12 41  1  0
 13 14  1  0
 13 42  1  0
 14 15  2  0
 14 58  1  0
 15 16  1  0
 15 59  1  0
 16 17  2  0
 16 41  1  0
 17 22  1  0
 17 28  1  0
 18 19  1  6
 18 20  1  0
 18 21  1  0
 18 33  1  0
 19 60  1  0
 19 61  1  0
 19 62  1  0
 20 63  1  0
 20 64  1  0
 20 65  1  0
 21 66  1  0
 21 67  1  0
 21 68  1  0
 22 23  2  0
 22 40  1  0
 23 24  1  0
 23 69  1  0
 24 25  2  0
 24 70  1  0
 25 26  1  0
 25 35  1  0
 26 27  1  0
 26 28  1  0
 28 29  1  1
 28 33  1  0
 29 30  1  0
 29 35  2  0
 30 31  2  0
 30 71  1  0
 31 32  1  0
 31 72  1  0
 32 33  1  0
 33 34  1  1
 35 36  1  0
 36 37  1  1
 36 38  1  0
 36 39  1  0
 37 73  1  0
 37 74  1  0
 37 75  1  0
 38 76  1  0
 38 77  1  0
 38 78  1  0
 39 79  1  0
 39 80  1  0
 39 81  1  0
 40 41  2  0
 42 43  1  0
 43 44  1  6
 43 45  1  0
 43 46  1  0
 44 82  1  0
 44 83  1  0
 44 84  1  0
 45 85  1  0
 45 86  1  0
 45 87  1  0
 46 88  1  0
 46 89  1  0
 46 90  1  0
M  END

