
     RDKit          3D

 37 39  0  0  0  0  0  0  0  0999 V2000
    1.7046   -0.2504    1.4993 C   0  0  0  0  0  0  0  0  0  0  0  0
    2.7458   -0.1738    0.4080 C   0  0  0  0  0  0  0  0  0  0  0  0
    3.4921    1.0001    0.2210 C   0  0  0  0  0  0  0  0  0  0  0  0
    4.4765    1.0939   -0.7669 C   0  0  0  0  0  0  0  0  0  0  0  0
    4.7347   -0.0030   -1.5903 C   0  0  0  0  0  0  0  0  0  0  0  0
    4.0006   -1.1800   -1.4176 C   0  0  0  0  0  0  0  0  0  0  0  0
    3.0051   -1.2818   -0.4332 C   0  0  0  0  0  0  0  0  0  0  0  0
    2.2489   -2.5632   -0.2936 C   0  0  0  0  0  0  0  0  0  0  0  0
    2.8209   -3.6544    0.3647 C   0  0  0  0  0  0  0  0  0  0  0  0
    2.1059   -4.8535    0.5116 N   0  0  0  0  0  0  0  0  0  0  0  0
    0.9075   -4.8287   -0.0085 C   0  0  0  0  0  0  0  0  0  0  0  0
    0.1482   -6.0992    0.1644 N   0  0  0  0  0  0  0  0  0  0  0  0
   -0.9590   -6.3238   -0.6930 C   0  0  0  0  0  0  0  0  0  0  0  0
   -0.4352   -6.9917   -2.0454 C   0  0  0  0  0  0  0  0  0  0  0  0
    0.3584   -8.1395   -1.7258 N   0  0  0  0  0  0  0  0  0  0  0  0
    1.4391   -7.9447   -0.8075 C   0  0  0  0  0  0  0  0  0  0  0  0
    0.8803   -7.2600    0.5218 C   0  0  0  0  0  0  0  0  0  0  0  0
    0.2607   -3.9110   -0.6758 N   0  0  0  0  0  0  0  0  0  0  0  0
    0.9675   -2.7070   -0.8318 C   0  0  0  0  0  0  0  0  0  0  0  0
    1.6837    0.6740    2.0957 H   0  0  0  0  0  0  0  0  0  0  0  0
    1.9053   -1.0962    2.1767 H   0  0  0  0  0  0  0  0  0  0  0  0
    0.6981   -0.4199    1.0856 H   0  0  0  0  0  0  0  0  0  0  0  0
    3.2978    1.8588    0.8707 H   0  0  0  0  0  0  0  0  0  0  0  0
    5.0411    2.0223   -0.8887 H   0  0  0  0  0  0  0  0  0  0  0  0
    5.5034    0.0549   -2.3657 H   0  0  0  0  0  0  0  0  0  0  0  0
    4.1933   -2.0449   -2.0574 H   0  0  0  0  0  0  0  0  0  0  0  0
    3.8189   -3.6123    0.8019 H   0  0  0  0  0  0  0  0  0  0  0  0
   -1.4214   -5.3636   -0.9483 H   0  0  0  0  0  0  0  0  0  0  0  0
   -1.6834   -7.0174   -0.2331 H   0  0  0  0  0  0  0  0  0  0  0  0
    0.1743   -6.2313   -2.5515 H   0  0  0  0  0  0  0  0  0  0  0  0
   -1.2828   -7.2758   -2.6847 H   0  0  0  0  0  0  0  0  0  0  0  0
   -0.1701   -8.9984   -1.5866 H   0  0  0  0  0  0  0  0  0  0  0  0
    2.1796   -7.2495   -1.2252 H   0  0  0  0  0  0  0  0  0  0  0  0
    1.9201   -8.9041   -0.5708 H   0  0  0  0  0  0  0  0  0  0  0  0
    1.7399   -6.9742    1.1382 H   0  0  0  0  0  0  0  0  0  0  0  0
    0.2352   -7.9942    1.0336 H   0  0  0  0  0  0  0  0  0  0  0  0
    0.4756   -1.9094   -1.3891 H   0  0  0  0  0  0  0  0  0  0  0  0
  1  2  1  0
  1 20  1  0
  1 21  1  0
  1 22  1  0
  2  3  2  0
  2  7  1  0
  3  4  1  0
  3 23  1  0
  4  5  2  0
  4 24  1  0
  5  6  1  0
  5 25  1  0
  6  7  2  0
  6 26  1  0
  7  8  1  0
  8  9  2  0
  8 19  1  0
  9 10  1  0
  9 27  1  0
 10 11  2  0
 11 12  1  0
 11 18  1  0
 12 13  1  0
 12 17  1  0
 13 14  1  0
 13 28  1  0
 13 29  1  0
 14 15  1  0
 14 30  1  0
 14 31  1  0
 15 16  1  0
 15 32  1  0
 16 17  1  0
 16 33  1  0
 16 34  1  0
 17 35  1  0
 17 36  1  0
 18 19  2  0
 19 37  1  0
M  END

