
     RDKit          3D

 58 61  0  0  0  0  0  0  0  0999 V2000
    3.3804   21.8084    1.5323 C   0  0  0  0  0  0  0  0  0  0  0  0
    3.0006   20.4148    1.4680 N   0  0  0  0  0  0  0  0  0  0  0  0
    2.8062   19.7808    0.1819 C   0  0  0  0  0  0  0  0  0  0  0  0
    2.9470   19.6648    2.6352 C   0  0  0  0  0  0  0  0  0  0  0  0
    2.6236   18.2748    2.5763 C   0  0  0  0  0  0  0  0  0  0  0  0
    2.5501   17.4637    3.7120 C   0  0  0  0  0  0  0  0  0  0  0  0
    2.1673   16.0097    3.6482 C   0  0  0  0  0  0  0  0  0  0  0  0
    2.4940   15.4816    2.3559 O   0  0  0  0  0  0  0  0  0  0  0  0
    2.0013   14.2593    2.0501 C   0  0  0  0  0  0  0  0  0  0  0  0
    0.7859   14.1167    1.3568 C   0  0  0  0  0  0  0  0  0  0  0  0
   -0.1253   15.5477    0.9504 Cl  0  0  0  0  0  0  0  0  0  0  0  0
    0.2986   12.8606    0.9832 C   0  0  0  0  0  0  0  0  0  0  0  0
    1.0118   11.6968    1.3010 C   0  0  0  0  0  0  0  0  0  0  0  0
    0.5073   10.3353    0.8765 C   0  0  0  0  0  0  0  0  0  0  0  0
    1.2809    9.7246   -0.3127 C   0  0  2  0  0  0  0  0  0  0  0  0
    2.3342    9.5975   -0.0053 H   0  0  0  0  0  0  0  0  0  0  0  0
    1.1356   10.5263   -1.5314 N   0  0  0  0  0  0  0  0  0  0  0  0
    0.7299    8.3016   -0.5652 C   0  0  0  0  0  0  0  0  0  0  0  0
    0.9047    7.3936    0.2046 O   0  0  0  0  0  0  0  0  0  0  0  0
    0.0157    8.2067   -1.6863 O   0  0  0  0  0  0  0  0  0  0  0  0
    2.2222   11.8211    2.0006 C   0  0  0  0  0  0  0  0  0  0  0  0
    2.7014   13.0777    2.3692 C   0  0  0  0  0  0  0  0  0  0  0  0
    4.2107   13.2050    3.2325 Cl  0  0  0  0  0  0  0  0  0  0  0  0
    2.8122   18.0907    4.9264 C   0  0  0  0  0  0  0  0  0  0  0  0
    2.8181   17.5649    6.1913 O   0  0  0  0  0  0  0  0  0  0  0  0
    3.1447   18.6262    7.0011 C   0  0  0  0  0  0  0  0  0  0  0  0
    3.2359   18.3664    8.4390 C   0  0  0  0  0  0  0  0  0  0  0  0
    3.5149   19.3897    9.2861 C   0  0  0  0  0  0  0  0  0  0  0  0
    3.6954   19.1421   10.7616 C   0  0  0  0  0  0  0  0  0  0  0  0
    2.9383   17.9587   11.1582 N   0  0  0  0  0  0  0  0  0  0  0  0
    2.8086   16.8957   10.3006 C   0  0  0  0  0  0  0  0  0  0  0  0
    2.9790   17.0247    8.9604 C   0  0  0  0  0  0  0  0  0  0  0  0
    3.3402   19.7464    6.3704 N   0  0  0  0  0  0  0  0  0  0  0  0
    3.1334   19.4513    5.0308 C   0  0  0  0  0  0  0  0  0  0  0  0
    3.2088   20.2587    3.8918 C   0  0  0  0  0  0  0  0  0  0  0  0
    3.3514   22.2432    0.5247 H   0  0  0  0  0  0  0  0  0  0  0  0
    4.4024   21.9536    1.9341 H   0  0  0  0  0  0  0  0  0  0  0  0
    2.6926   22.3953    2.1687 H   0  0  0  0  0  0  0  0  0  0  0  0
    2.8806   20.5372   -0.6102 H   0  0  0  0  0  0  0  0  0  0  0  0
    1.8109   19.3074    0.0962 H   0  0  0  0  0  0  0  0  0  0  0  0
    3.5613   18.9984   -0.0271 H   0  0  0  0  0  0  0  0  0  0  0  0
    2.4290   17.7979    1.6192 H   0  0  0  0  0  0  0  0  0  0  0  0
    1.0815   15.8926    3.8236 H   0  0  0  0  0  0  0  0  0  0  0  0
    2.6965   15.4404    4.4311 H   0  0  0  0  0  0  0  0  0  0  0  0
   -0.6564   12.8023    0.4570 H   0  0  0  0  0  0  0  0  0  0  0  0
   -0.5595   10.3994    0.6056 H   0  0  0  0  0  0  0  0  0  0  0  0
    0.5855    9.6187    1.7076 H   0  0  0  0  0  0  0  0  0  0  0  0
    1.9758   10.4830   -2.1076 H   0  0  0  0  0  0  0  0  0  0  0  0
    0.9731   11.5113   -1.3225 H   0  0  0  0  0  0  0  0  0  0  0  0
    0.0681    9.1108   -2.0873 H   0  0  0  0  0  0  0  0  0  0  0  0
    2.8008   10.9363    2.2737 H   0  0  0  0  0  0  0  0  0  0  0  0
    3.6691   20.3963    8.8926 H   0  0  0  0  0  0  0  0  0  0  0  0
    3.3419   20.0091   11.3459 H   0  0  0  0  0  0  0  0  0  0  0  0
    4.7829   19.0350   11.0030 H   0  0  0  0  0  0  0  0  0  0  0  0
    2.8718   17.7707   12.1498 H   0  0  0  0  0  0  0  0  0  0  0  0
    2.5024   15.9503   10.7568 H   0  0  0  0  0  0  0  0  0  0  0  0
    2.8297   16.1811    8.2908 H   0  0  0  0  0  0  0  0  0  0  0  0
    3.4670   21.3095    4.0013 H   0  0  0  0  0  0  0  0  0  0  0  0
  1  2  1  0
  1 36  1  0
  1 37  1  0
  1 38  1  0
  2  3  1  0
  2  4  1  0
  3 39  1  0
  3 40  1  0
  3 41  1  0
  4  5  2  0
  4 35  1  0
  5  6  1  0
  5 42  1  0
  6  7  1  0
  6 24  2  0
  7  8  1  0
  7 43  1  0
  7 44  1  0
  8  9  1  0
  9 10  2  0
  9 22  1  0
 10 11  1  0
 10 12  1  0
 12 13  2  0
 12 45  1  0
 13 14  1  0
 13 21  1  0
 14 15  1  0
 14 46  1  0
 14 47  1  0
 15 16  1  1
 15 17  1  0
 15 18  1  0
 17 48  1  0
 17 49  1  0
 18 19  2  0
 18 20  1  0
 20 50  1  0
 21 22  2  0
 21 51  1  0
 22 23  1  0
 24 25  1  0
 24 34  1  0
 25 26  1  0
 26 27  1  0
 26 33  2  0
 27 28  2  0
 27 32  1  0
 28 29  1  0
 28 52  1  0
 29 30  1  0
 29 53  1  0
 29 54  1  0
 30 31  1  0
 30 55  1  0
 31 32  2  0
 31 56  1  0
 32 57  1  0
 33 34  1  0
 34 35  2  0
 35 58  1  0
M  END

