
     RDKit          3D

 44 46  0  0  0  0  0  0  0  0999 V2000
    1.4226    0.7358    2.1577 O   0  0  0  0  0  0  0  0  0  0  0  0
    2.5880    0.7583    1.7774 C   0  0  0  0  0  0  0  0  0  0  0  0
    3.5449    0.0998    2.5552 O   0  0  0  0  0  0  0  0  0  0  0  0
    3.0792    1.4154    0.5897 C   0  0  0  0  0  0  0  0  0  0  0  0
    2.1377    1.9794   -0.3392 C   0  0  0  0  0  0  0  0  0  0  0  0
    2.5360    2.6013   -1.4989 C   0  0  0  0  0  0  0  0  0  0  0  0
    3.9204    2.7380   -1.8254 C   0  0  0  0  0  0  0  0  0  0  0  0
    4.8609    2.2337   -0.9093 C   0  0  0  0  0  0  0  0  0  0  0  0
    6.3305    2.4273   -1.2225 C   0  0  0  0  0  0  0  0  0  0  0  0
    7.0948    1.1944   -1.2543 N   0  0  0  0  0  0  0  0  0  0  0  0
    8.3959    1.0147   -1.8038 C   0  0  1  0  0  0  0  0  0  0  0  0
    9.3897    2.1753   -1.7638 C   0  0  0  0  0  0  0  0  0  0  0  0
   10.7504    1.4472   -1.7360 C   0  0  0  0  0  0  0  0  0  0  0  0
   10.4465    0.1462   -1.1171 N   0  0  0  0  0  0  0  0  0  0  0  0
   11.4498   -0.7463   -0.6194 C   0  0  0  0  0  0  0  0  0  0  0  0
   11.8396   -0.6494    0.7186 C   0  0  0  0  0  0  0  0  0  0  0  0
   12.8072   -1.5131    1.2379 C   0  0  0  0  0  0  0  0  0  0  0  0
   13.3870   -2.4802    0.4162 C   0  0  0  0  0  0  0  0  0  0  0  0
   12.9998   -2.5843   -0.9221 C   0  0  0  0  0  0  0  0  0  0  0  0
   12.0318   -1.7245   -1.4505 C   0  0  0  0  0  0  0  0  0  0  0  0
   11.6387   -1.8484   -2.9073 C   0  0  1  0  0  0  0  0  0  0  0  0
   11.9782   -0.7369   -3.6034 F   0  0  0  0  0  0  0  0  0  0  0  0
   12.2391   -2.8823   -3.5029 F   0  0  0  0  0  0  0  0  0  0  0  0
   10.3111   -2.0063   -3.0659 F   0  0  0  0  0  0  0  0  0  0  0  0
    9.1158   -0.1431   -1.0667 C   0  0  0  0  0  0  0  0  0  0  0  0
    8.5446   -1.0821   -0.5684 O   0  0  0  0  0  0  0  0  0  0  0  0
    4.4775    1.5987    0.2691 C   0  0  0  0  0  0  0  0  0  0  0  0
    4.3046   -0.0917    1.9920 H   0  0  0  0  0  0  0  0  0  0  0  0
    1.0802    1.8901   -0.0819 H   0  0  0  0  0  0  0  0  0  0  0  0
    1.7843    3.0061   -2.1825 H   0  0  0  0  0  0  0  0  0  0  0  0
    4.2317    3.2326   -2.7473 H   0  0  0  0  0  0  0  0  0  0  0  0
    6.8514    3.0567   -0.4707 H   0  0  0  0  0  0  0  0  0  0  0  0
    6.4952    2.9308   -2.1875 H   0  0  0  0  0  0  0  0  0  0  0  0
    6.6770    0.3495   -0.8443 H   0  0  0  0  0  0  0  0  0  0  0  0
    8.2512    0.6462   -2.8439 H   0  0  0  0  0  0  0  0  0  0  0  0
    9.2500    2.7522   -0.8375 H   0  0  0  0  0  0  0  0  0  0  0  0
    9.3048    2.8659   -2.6130 H   0  0  0  0  0  0  0  0  0  0  0  0
   11.4957    1.9895   -1.1362 H   0  0  0  0  0  0  0  0  0  0  0  0
   11.1643    1.3074   -2.7466 H   0  0  0  0  0  0  0  0  0  0  0  0
   11.3681    0.1031    1.3540 H   0  0  0  0  0  0  0  0  0  0  0  0
   13.0999   -1.4319    2.2869 H   0  0  0  0  0  0  0  0  0  0  0  0
   14.1412   -3.1616    0.8155 H   0  0  0  0  0  0  0  0  0  0  0  0
   13.4471   -3.3427   -1.5653 H   0  0  0  0  0  0  0  0  0  0  0  0
    5.2337    1.3322    1.0160 H   0  0  0  0  0  0  0  0  0  0  0  0
  1  2  2  0
  2  3  1  0
  2  4  1  0
  3 28  1  0
  4  5  2  0
  4 27  1  0
  5  6  1  0
  5 29  1  0
  6  7  2  0
  6 30  1  0
  7  8  1  0
  7 31  1  0
  8  9  1  0
  8 27  2  0
  9 10  1  0
  9 32  1  0
  9 33  1  0
 10 11  1  0
 10 34  1  0
 11 12  1  0
 11 25  1  0
 11 35  1  6
 12 13  1  0
 12 36  1  0
 12 37  1  0
 13 14  1  0
 13 38  1  0
 13 39  1  0
 14 15  1  0
 14 25  1  0
 15 16  2  0
 15 20  1  0
 16 17  1  0
 16 40  1  0
 17 18  2  0
 17 41  1  0
 18 19  1  0
 18 42  1  0
 19 20  2  0
 19 43  1  0
 20 21  1  0
 21 22  1  1
 21 23  1  0
 21 24  1  0
 25 26  2  0
 27 44  1  0
M  END

