
     RDKit          3D

 33 34  0  0  0  0  0  0  0  0999 V2000
    1.0757   -0.4170    0.5951 C   0  0  0  0  0  0  0  0  0  0  0  0
    2.5319   -0.2284    0.3250 C   0  0  0  0  0  0  0  0  0  0  0  0
    2.9881    0.1973   -0.9607 C   0  0  0  0  0  0  0  0  0  0  0  0
    4.3822    0.3024   -1.2467 C   0  0  0  0  0  0  0  0  0  0  0  0
    5.3544   -0.0047   -0.2461 C   0  0  0  0  0  0  0  0  0  0  0  0
    6.8169    0.0163   -0.5923 C   0  0  1  0  0  0  0  0  0  0  0  0
    6.9811    0.6886   -1.4510 H   0  0  0  0  0  0  0  0  0  0  0  0
    7.6211    0.5268    0.5252 C   0  0  0  0  0  0  0  0  0  0  0  0
    8.2357    0.9175    1.4274 N   0  0  0  0  0  0  0  0  0  0  0  0
    7.3869   -1.4271   -1.0439 C   0  0  1  0  0  0  0  0  0  0  0  0
    7.2098   -2.0983   -0.1887 H   0  0  0  0  0  0  0  0  0  0  0  0
    6.5919   -1.9270   -2.1700 C   0  0  0  0  0  0  0  0  0  0  0  0
    5.9847   -2.3084   -3.0811 N   0  0  0  0  0  0  0  0  0  0  0  0
    8.8710   -1.4027   -1.3675 C   0  0  0  0  0  0  0  0  0  0  0  0
    9.8067   -1.7520   -0.3806 C   0  0  0  0  0  0  0  0  0  0  0  0
   11.1757   -1.6844   -0.6465 C   0  0  0  0  0  0  0  0  0  0  0  0
   11.6281   -1.2629   -1.9007 C   0  0  0  0  0  0  0  0  0  0  0  0
   10.7024   -0.9116   -2.8891 C   0  0  0  0  0  0  0  0  0  0  0  0
    9.3335   -0.9801   -2.6256 C   0  0  0  0  0  0  0  0  0  0  0  0
    4.9057   -0.4096    1.0497 C   0  0  0  0  0  0  0  0  0  0  0  0
    3.5092   -0.5236    1.3246 C   0  0  0  0  0  0  0  0  0  0  0  0
    0.4617    0.3030    0.0291 H   0  0  0  0  0  0  0  0  0  0  0  0
    0.8424   -0.3141    1.6669 H   0  0  0  0  0  0  0  0  0  0  0  0
    0.7348   -1.4281    0.2891 H   0  0  0  0  0  0  0  0  0  0  0  0
    2.2621    0.4327   -1.7413 H   0  0  0  0  0  0  0  0  0  0  0  0
    4.7075    0.6048   -2.2434 H   0  0  0  0  0  0  0  0  0  0  0  0
    9.4620   -2.0762    0.6046 H   0  0  0  0  0  0  0  0  0  0  0  0
   11.8918   -1.9623    0.1307 H   0  0  0  0  0  0  0  0  0  0  0  0
   12.6996   -1.2105   -2.1087 H   0  0  0  0  0  0  0  0  0  0  0  0
   11.0480   -0.5876   -3.8739 H   0  0  0  0  0  0  0  0  0  0  0  0
    8.6178   -0.7216   -3.4107 H   0  0  0  0  0  0  0  0  0  0  0  0
    5.6310   -0.6099    1.8401 H   0  0  0  0  0  0  0  0  0  0  0  0
    3.1842   -0.8406    2.3177 H   0  0  0  0  0  0  0  0  0  0  0  0
  1  2  1  0
  1 22  1  0
  1 23  1  0
  1 24  1  0
  2  3  2  0
  2 21  1  0
  3  4  1  0
  3 25  1  0
  4  5  2  0
  4 26  1  0
  5  6  1  0
  5 20  1  0
  6  7  1  6
  6  8  1  0
  6 10  1  0
  8  9  3  0
 10 11  1  1
 10 12  1  0
 10 14  1  0
 12 13  3  0
 14 15  2  0
 14 19  1  0
 15 16  1  0
 15 27  1  0
 16 17  2  0
 16 28  1  0
 17 18  1  0
 17 29  1  0
 18 19  2  0
 18 30  1  0
 19 31  1  0
 20 21  2  0
 20 32  1  0
 21 33  1  0
M  END

