
     RDKit          3D

 32 33  0  0  0  0  0  0  0  0999 V2000
    0.9894    1.2324    0.2265 C   0  0  0  0  0  0  0  0  0  0  0  0
    2.4133    1.2840    0.2197 O   0  0  0  0  0  0  0  0  0  0  0  0
    3.0169    0.8834   -0.9274 C   0  0  0  0  0  0  0  0  0  0  0  0
    2.3698    0.4737   -1.8671 O   0  0  0  0  0  0  0  0  0  0  0  0
    4.5012    0.9575   -0.8621 C   0  0  0  0  0  0  0  0  0  0  0  0
    5.2561   -0.0094   -1.5781 C   0  0  0  0  0  0  0  0  0  0  0  0
    4.6333   -1.0843   -2.4365 C   0  0  0  0  0  0  0  0  0  0  0  0
    6.5870   -0.0346   -1.5326 N   0  0  0  0  0  0  0  0  0  0  0  0
    7.2473    0.8715   -0.8022 C   0  0  0  0  0  0  0  0  0  0  0  0
    6.5998    1.8936   -0.0585 C   0  0  0  0  0  0  0  0  0  0  0  0
    5.2022    1.9453   -0.1104 C   0  0  0  0  0  0  0  0  0  0  0  0
    4.4907    3.0795    0.5946 C   0  0  0  0  0  0  0  0  0  0  0  0
    7.4492    2.8770    0.7298 C   0  0  0  0  0  0  0  0  0  0  0  0
    8.8473    2.3213    1.0311 C   0  0  0  0  0  0  0  0  0  0  0  0
    9.4913    1.7485   -0.2298 C   0  0  0  0  0  0  0  0  0  0  0  0
    8.6112    0.7580   -0.8100 N   0  0  0  0  0  0  0  0  0  0  0  0
    0.6740    1.6070    1.2088 H   0  0  0  0  0  0  0  0  0  0  0  0
    0.6325    0.2014    0.0805 H   0  0  0  0  0  0  0  0  0  0  0  0
    0.5651    1.8571   -0.5747 H   0  0  0  0  0  0  0  0  0  0  0  0
    3.8378   -1.6315   -1.9095 H   0  0  0  0  0  0  0  0  0  0  0  0
    5.4246   -1.7801   -2.7436 H   0  0  0  0  0  0  0  0  0  0  0  0
    4.1580   -0.6488   -3.3278 H   0  0  0  0  0  0  0  0  0  0  0  0
    5.1379    3.9625    0.6797 H   0  0  0  0  0  0  0  0  0  0  0  0
    4.1828    2.7851    1.6113 H   0  0  0  0  0  0  0  0  0  0  0  0
    3.5768    3.3779    0.0685 H   0  0  0  0  0  0  0  0  0  0  0  0
    6.9550    3.1391    1.6777 H   0  0  0  0  0  0  0  0  0  0  0  0
    7.5479    3.8262    0.1689 H   0  0  0  0  0  0  0  0  0  0  0  0
    8.7730    1.5193    1.7852 H   0  0  0  0  0  0  0  0  0  0  0  0
    9.4896    3.1090    1.4553 H   0  0  0  0  0  0  0  0  0  0  0  0
   10.4557    1.2722    0.0095 H   0  0  0  0  0  0  0  0  0  0  0  0
    9.7094    2.5704   -0.9440 H   0  0  0  0  0  0  0  0  0  0  0  0
    8.9732    0.0626   -1.4522 H   0  0  0  0  0  0  0  0  0  0  0  0
  1  2  1  0
  1 17  1  0
  1 18  1  0
  1 19  1  0
  2  3  1  0
  3  4  2  0
  3  5  1  0
  5  6  2  0
  5 11  1  0
  6  7  1  0
  6  8  1  0
  7 20  1  0
  7 21  1  0
  7 22  1  0
  8  9  2  0
  9 10  1  0
  9 16  1  0
 10 11  2  0
 10 13  1  0
 11 12  1  0
 12 23  1  0
 12 24  1  0
 12 25  1  0
 13 14  1  0
 13 26  1  0
 13 27  1  0
 14 15  1  0
 14 28  1  0
 14 29  1  0
 15 16  1  0
 15 30  1  0
 15 31  1  0
 16 32  1  0
M  END

