
     RDKit          3D

 69 71  0  0  0  0  0  0  0  0999 V2000
    9.0581   -0.0805    3.0283 C   0  0  0  0  0  0  0  0  0  0  0  0
    7.7320    0.2069    2.3235 C   0  0  1  0  0  0  0  0  0  0  0  0
    7.0608    1.3161    2.8919 O   0  0  0  0  0  0  0  0  0  0  0  0
    7.9487    0.4019    0.8101 C   0  0  0  0  0  0  0  0  0  0  0  0
    6.7507    0.8205    0.0866 N   0  0  0  0  0  0  0  0  0  0  0  0
    5.8241   -0.1995   -0.4116 C   0  0  0  0  0  0  0  0  0  0  0  0
    4.8022   -0.6731    0.5815 C   0  0  0  0  0  0  0  0  0  0  0  0
    4.7335   -1.8875    1.0947 N   0  0  0  0  0  0  0  0  0  0  0  0
    3.6589   -1.8712    1.9399 C   0  0  0  0  0  0  0  0  0  0  0  0
    3.0564   -0.6188    1.9574 C   0  0  0  0  0  0  0  0  0  0  0  0
    1.9129   -0.0920    2.7005 C   0  0  0  0  0  0  0  0  0  0  0  0
    0.9849   -0.9700    3.2991 C   0  0  0  0  0  0  0  0  0  0  0  0
   -0.1004   -0.4785    4.0181 C   0  0  0  0  0  0  0  0  0  0  0  0
   -0.3174    0.9059    4.1701 C   0  0  0  0  0  0  0  0  0  0  0  0
   -1.5329    1.4492    4.9738 B   0  0  0  0  0  0  0  0  0  0  0  0
   -2.4445    0.6454    5.6096 O   0  0  0  0  0  0  0  0  0  0  0  0
   -3.5388    1.4773    6.0664 C   0  0  2  0  0  0  0  0  0  0  0  0
   -4.0214    0.9531    7.4165 C   0  0  0  0  0  0  0  0  0  0  0  0
   -4.6580    1.3541    5.0251 C   0  0  0  0  0  0  0  0  0  0  0  0
   -2.8723    2.9155    6.1027 C   0  0  2  0  0  0  0  0  0  0  0  0
   -2.2047    3.2413    7.4444 C   0  0  0  0  0  0  0  0  0  0  0  0
   -3.7858    4.0635    5.6813 C   0  0  0  0  0  0  0  0  0  0  0  0
   -1.8103    2.7841    5.1254 O   0  0  0  0  0  0  0  0  0  0  0  0
    0.6099    1.7779    3.5695 C   0  0  0  0  0  0  0  0  0  0  0  0
    1.7026    1.2940    2.8528 C   0  0  0  0  0  0  0  0  0  0  0  0
    3.8125    0.1268    1.0722 N   0  0  0  0  0  0  0  0  0  0  0  0
    3.6897    1.1005    0.8192 H   0  0  0  0  0  0  0  0  0  0  0  0
    6.4437    2.1523    0.1010 C   0  0  0  0  0  0  0  0  0  0  0  0
    7.1821    3.0177    0.5455 O   0  0  0  0  0  0  0  0  0  0  0  0
    5.2228    2.3915   -0.4404 O   0  0  0  0  0  0  0  0  0  0  0  0
    4.7636    3.7592   -0.7403 C   0  0  1  0  0  0  0  0  0  0  0  0
    5.7380    4.4335   -1.7104 C   0  0  0  0  0  0  0  0  0  0  0  0
    3.4095    3.5250   -1.4133 C   0  0  0  0  0  0  0  0  0  0  0  0
    4.5950    4.5560    0.5570 C   0  0  0  0  0  0  0  0  0  0  0  0
    8.8872   -0.2051    4.1077 H   0  0  0  0  0  0  0  0  0  0  0  0
    9.7648    0.7557    2.8896 H   0  0  0  0  0  0  0  0  0  0  0  0
    9.5330   -0.9983    2.6437 H   0  0  0  0  0  0  0  0  0  0  0  0
    7.0571   -0.6536    2.4722 H   0  0  0  0  0  0  0  0  0  0  0  0
    7.4318    2.1262    2.5075 H   0  0  0  0  0  0  0  0  0  0  0  0
    8.3132   -0.5351    0.3614 H   0  0  0  0  0  0  0  0  0  0  0  0
    8.7205    1.1708    0.6504 H   0  0  0  0  0  0  0  0  0  0  0  0
    6.4088   -1.0810   -0.7065 H   0  0  0  0  0  0  0  0  0  0  0  0
    5.3299    0.1966   -1.3097 H   0  0  0  0  0  0  0  0  0  0  0  0
    3.3752   -2.7487    2.5191 H   0  0  0  0  0  0  0  0  0  0  0  0
    1.1135   -2.0484    3.1825 H   0  0  0  0  0  0  0  0  0  0  0  0
   -0.8064   -1.1802    4.4702 H   0  0  0  0  0  0  0  0  0  0  0  0
   -4.4485   -0.0532    7.2897 H   0  0  0  0  0  0  0  0  0  0  0  0
   -4.8045    1.6048    7.8350 H   0  0  0  0  0  0  0  0  0  0  0  0
   -3.2005    0.8796    8.1415 H   0  0  0  0  0  0  0  0  0  0  0  0
   -4.9204    0.2919    4.9101 H   0  0  0  0  0  0  0  0  0  0  0  0
   -4.3365    1.7300    4.0426 H   0  0  0  0  0  0  0  0  0  0  0  0
   -5.5620    1.9026    5.3298 H   0  0  0  0  0  0  0  0  0  0  0  0
   -2.9459    3.4312    8.2352 H   0  0  0  0  0  0  0  0  0  0  0  0
   -1.5887    4.1448    7.3238 H   0  0  0  0  0  0  0  0  0  0  0  0
   -1.5446    2.4253    7.7737 H   0  0  0  0  0  0  0  0  0  0  0  0
   -4.6512    4.1467    6.3576 H   0  0  0  0  0  0  0  0  0  0  0  0
   -4.1531    3.9363    4.6546 H   0  0  0  0  0  0  0  0  0  0  0  0
   -3.2294    5.0121    5.7238 H   0  0  0  0  0  0  0  0  0  0  0  0
    0.4735    2.8573    3.6770 H   0  0  0  0  0  0  0  0  0  0  0  0
    2.4165    2.0058    2.4300 H   0  0  0  0  0  0  0  0  0  0  0  0
    5.8613    3.8228   -2.6186 H   0  0  0  0  0  0  0  0  0  0  0  0
    6.7203    4.5822   -1.2448 H   0  0  0  0  0  0  0  0  0  0  0  0
    5.3390    5.4144   -2.0117 H   0  0  0  0  0  0  0  0  0  0  0  0
    3.5237    2.9087   -2.3179 H   0  0  0  0  0  0  0  0  0  0  0  0
    2.9601    4.4867   -1.7027 H   0  0  0  0  0  0  0  0  0  0  0  0
    2.7096    3.0152   -0.7327 H   0  0  0  0  0  0  0  0  0  0  0  0
    5.5605    4.7181    1.0509 H   0  0  0  0  0  0  0  0  0  0  0  0
    3.9273    4.0255    1.2546 H   0  0  0  0  0  0  0  0  0  0  0  0
    4.1396    5.5331    0.3327 H   0  0  0  0  0  0  0  0  0  0  0  0
  1  2  1  0
  1 35  1  0
  1 36  1  0
  1 37  1  0
  2  3  1  0
  2  4  1  0
  2 38  1  6
  3 39  1  0
  4  5  1  0
  4 40  1  0
  4 41  1  0
  5  6  1  0
  5 28  1  0
  6  7  1  0
  6 42  1  0
  6 43  1  0
  7  8  2  0
  7 26  1  0
  8  9  1  0
  9 10  2  0
  9 44  1  0
 10 11  1  0
 10 26  1  0
 11 12  2  0
 11 25  1  0
 12 13  1  0
 12 45  1  0
 13 14  2  0
 13 46  1  0
 14 15  1  0
 14 24  1  0
 15 16  1  0
 15 23  1  0
 16 17  1  0
 17 18  1  1
 17 19  1  0
 17 20  1  0
 18 47  1  0
 18 48  1  0
 18 49  1  0
 19 50  1  0
 19 51  1  0
 19 52  1  0
 20 21  1  1
 20 22  1  0
 20 23  1  0
 21 53  1  0
 21 54  1  0
 21 55  1  0
 22 56  1  0
 22 57  1  0
 22 58  1  0
 24 25  2  0
 24 59  1  0
 25 60  1  0
 26 27  1  0
 28 29  2  0
 28 30  1  0
 31 30  1  1
 31 32  1  0
 31 33  1  0
 31 34  1  0
 32 61  1  0
 32 62  1  0
 32 63  1  0
 33 64  1  0
 33 65  1  0
 33 66  1  0
 34 67  1  0
 34 68  1  0
 34 69  1  0
M  END

