
     RDKit          3D

 33 33  0  0  0  0  0  0  0  0999 V2000
    0.5233   -0.5669    0.4006 O   0  0  0  0  0  0  0  0  0  0  0  0
    1.9277   -0.2331    0.1466 S   0  0  1  0  0  0  0  0  0  0  0  0
    2.3412    1.1348   -0.1924 O   0  0  0  0  0  0  0  0  0  0  0  0
    2.8643   -0.7669    1.5998 C   0  0  0  0  0  0  0  0  0  0  0  0
    4.3641   -0.4755    1.5041 C   0  0  0  0  0  0  0  0  0  0  0  0
    5.1125   -0.9288    2.7378 C   0  0  0  0  0  0  0  0  0  0  0  0
    5.2431   -2.3435    2.9857 C   0  0  0  0  0  0  0  0  0  0  0  0
    5.9454   -2.7164    4.1848 C   0  0  0  0  0  0  0  0  0  0  0  0
    6.3856   -1.7613    4.9279 N   0  0  0  0  0  0  0  0  0  0  0  0
    6.3479   -0.4244    4.8139 C   0  0  0  0  0  0  0  0  0  0  0  0
    5.6354   -0.0059    3.6141 C   0  0  0  0  0  0  0  0  0  0  0  0
    2.5259   -1.2426   -1.0747 N   0  0  0  0  0  0  0  0  0  0  0  0
    2.8547   -0.6364   -2.3666 C   0  0  0  0  0  0  0  0  0  0  0  0
    3.4038   -1.7204   -3.2828 C   0  0  1  0  0  0  0  0  0  0  0  0
    2.4287   -2.7381   -3.3815 O   0  0  0  0  0  0  0  0  0  0  0  0
    3.7413   -1.2035   -4.6822 C   0  0  0  0  0  0  0  0  0  0  0  0
    4.0508   -2.2918   -5.5394 O   0  0  0  0  0  0  0  0  0  0  0  0
    2.6394   -1.8355    1.7285 H   0  0  0  0  0  0  0  0  0  0  0  0
    2.3901   -0.2172    2.4277 H   0  0  0  0  0  0  0  0  0  0  0  0
    4.5039    0.6021    1.3390 H   0  0  0  0  0  0  0  0  0  0  0  0
    4.7636   -1.0023    0.6201 H   0  0  0  0  0  0  0  0  0  0  0  0
    4.9121   -3.1156    2.2948 H   0  0  0  0  0  0  0  0  0  0  0  0
    6.1286   -3.7522    4.4887 H   0  0  0  0  0  0  0  0  0  0  0  0
    6.7444    0.2206    5.5921 H   0  0  0  0  0  0  0  0  0  0  0  0
    5.5298    1.0684    3.4460 H   0  0  0  0  0  0  0  0  0  0  0  0
    1.8978   -2.0404   -1.1911 H   0  0  0  0  0  0  0  0  0  0  0  0
    3.6030    0.1536   -2.2107 H   0  0  0  0  0  0  0  0  0  0  0  0
    1.9730   -0.1742   -2.8482 H   0  0  0  0  0  0  0  0  0  0  0  0
    4.3341   -2.1235   -2.8226 H   0  0  0  0  0  0  0  0  0  0  0  0
    2.6533   -3.2493   -4.1755 H   0  0  0  0  0  0  0  0  0  0  0  0
    4.5576   -0.4579   -4.6418 H   0  0  0  0  0  0  0  0  0  0  0  0
    2.8552   -0.7140   -5.1168 H   0  0  0  0  0  0  0  0  0  0  0  0
    4.9368   -2.6115   -5.3201 H   0  0  0  0  0  0  0  0  0  0  0  0
  1  2  2  0
  2  3  2  0
  2  4  1  0
  2 12  1  6
  4  5  1  0
  4 18  1  0
  4 19  1  0
  5  6  1  0
  5 20  1  0
  5 21  1  0
  6  7  2  0
  6 11  1  0
  7  8  1  0
  7 22  1  0
  8  9  2  0
  8 23  1  0
  9 10  1  0
 10 11  2  0
 10 24  1  0
 11 25  1  0
 12 13  1  0
 12 26  1  0
 13 14  1  0
 13 27  1  0
 13 28  1  0
 14 15  1  0
 14 16  1  0
 14 29  1  1
 15 30  1  0
 16 17  1  0
 16 31  1  0
 16 32  1  0
 17 33  1  0
M  END

