
     RDKit          3D

 42 44  0  0  0  0  0  0  0  0999 V2000
    1.0228   -0.0412    0.5702 C   0  0  0  0  0  0  0  0  0  0  0  0
    2.5070   -0.0279    0.3124 C   0  0  0  0  0  0  0  0  0  0  0  0
    3.1924    1.1345    0.0956 C   0  0  0  0  0  0  0  0  0  0  0  0
    4.5974    1.1076   -0.2152 C   0  0  0  0  0  0  0  0  0  0  0  0
    5.3294   -0.0132    0.0198 C   0  0  0  0  0  0  0  0  0  0  0  0
    6.7439   -0.0868   -0.3077 C   0  0  0  0  0  0  0  0  0  0  0  0
    7.4583    0.8722   -0.8890 N   0  0  0  0  0  0  0  0  0  0  0  0
    8.7278    0.3995   -0.9946 C   0  0  0  0  0  0  0  0  0  0  0  0
    8.8118   -0.8763   -0.4722 C   0  0  0  0  0  0  0  0  0  0  0  0
    9.9488   -1.8212   -0.3373 C   0  0  1  0  0  0  0  0  0  0  0  0
   11.0628   -1.3072   -0.8693 F   0  0  0  0  0  0  0  0  0  0  0  0
   10.2066   -2.1214    0.9556 F   0  0  0  0  0  0  0  0  0  0  0  0
    9.7002   -3.0017   -0.9467 F   0  0  0  0  0  0  0  0  0  0  0  0
    7.5390   -1.1745   -0.0336 N   0  0  0  0  0  0  0  0  0  0  0  0
    7.2590   -2.0444    0.4023 H   0  0  0  0  0  0  0  0  0  0  0  0
    4.6402   -1.1668    0.7239 C   0  0  0  0  0  0  0  0  0  0  0  0
    3.2230   -1.2321    0.3455 N   0  0  0  0  0  0  0  0  0  0  0  0
    2.6318   -2.4878    0.1210 C   0  0  0  0  0  0  0  0  0  0  0  0
    2.9791   -3.5973    0.9209 C   0  0  0  0  0  0  0  0  0  0  0  0
    2.4144   -4.8498    0.6861 C   0  0  0  0  0  0  0  0  0  0  0  0
    1.4831   -5.0032   -0.3436 C   0  0  0  0  0  0  0  0  0  0  0  0
    0.7731   -6.6256   -0.6612 S   0  0  1  0  0  0  0  0  0  0  0  0
   -0.7497   -6.6555    0.3136 C   0  0  0  0  0  0  0  0  0  0  0  0
    0.3786   -6.6750   -2.0760 O   0  0  0  0  0  0  0  0  0  0  0  0
    1.6747   -7.6304   -0.0802 O   0  0  0  0  0  0  0  0  0  0  0  0
    1.1432   -3.9245   -1.1673 C   0  0  0  0  0  0  0  0  0  0  0  0
    1.7190   -2.6784   -0.9387 C   0  0  0  0  0  0  0  0  0  0  0  0
    0.6907    0.9755    0.8211 H   0  0  0  0  0  0  0  0  0  0  0  0
    0.7703   -0.7096    1.4091 H   0  0  0  0  0  0  0  0  0  0  0  0
    0.4306   -0.3752   -0.2954 H   0  0  0  0  0  0  0  0  0  0  0  0
    2.6516    2.0814    0.1066 H   0  0  0  0  0  0  0  0  0  0  0  0
    5.0857    1.9793   -0.6561 H   0  0  0  0  0  0  0  0  0  0  0  0
    9.5331    0.9821   -1.4396 H   0  0  0  0  0  0  0  0  0  0  0  0
    4.7527   -1.0698    1.8278 H   0  0  0  0  0  0  0  0  0  0  0  0
    5.0922   -2.1280    0.4388 H   0  0  0  0  0  0  0  0  0  0  0  0
    3.6832   -3.4766    1.7459 H   0  0  0  0  0  0  0  0  0  0  0  0
    2.6944   -5.7132    1.2931 H   0  0  0  0  0  0  0  0  0  0  0  0
   -1.4228   -5.8629   -0.0377 H   0  0  0  0  0  0  0  0  0  0  0  0
   -0.5035   -6.5389    1.3768 H   0  0  0  0  0  0  0  0  0  0  0  0
   -1.1874   -7.6460    0.1245 H   0  0  0  0  0  0  0  0  0  0  0  0
    0.4664   -4.0810   -2.0099 H   0  0  0  0  0  0  0  0  0  0  0  0
    1.5026   -1.8508   -1.6153 H   0  0  0  0  0  0  0  0  0  0  0  0
  1  2  1  0
  1 28  1  0
  1 29  1  0
  1 30  1  0
  2  3  2  0
  2 17  1  0
  3  4  1  0
  3 31  1  0
  4  5  2  0
  4 32  1  0
  5  6  1  0
  5 16  1  0
  6  7  2  0
  6 14  1  0
  7  8  1  0
  8  9  2  0
  8 33  1  0
  9 10  1  0
  9 14  1  0
 10 11  1  6
 10 12  1  0
 10 13  1  0
 14 15  1  0
 16 17  1  0
 16 34  1  0
 16 35  1  0
 17 18  1  0
 18 19  2  0
 18 27  1  0
 19 20  1  0
 19 36  1  0
 20 21  2  0
 20 37  1  0
 21 22  1  0
 21 26  1  0
 22 23  1  1
 22 24  2  0
 22 25  2  0
 23 38  1  0
 23 39  1  0
 23 40  1  0
 26 27  2  0
 26 41  1  0
 27 42  1  0
M  END

