
     RDKit          3D

 47 47  0  0  0  0  0  0  0  0999 V2000
    1.4586    0.8466   -1.7171 C   0  0  0  0  0  0  0  0  0  0  0  0
    2.6584    0.3967   -0.8883 C   0  0  1  0  0  0  0  0  0  0  0  0
    3.5680   -0.3773   -1.6705 O   0  0  0  0  0  0  0  0  0  0  0  0
    3.3882    1.5695   -0.2204 C   0  0  0  0  0  0  0  0  0  0  0  0
    4.5140    1.1478    0.5666 N   0  0  0  0  0  0  0  0  0  0  0  0
    4.5199    1.2572    1.9663 C   0  0  0  0  0  0  0  0  0  0  0  0
    3.6218    1.9507    2.5109 O   0  0  0  0  0  0  0  0  0  0  0  0
    5.6079    0.5616    2.6066 C   0  0  0  0  0  0  0  0  0  0  0  0
    6.0120    0.4185    3.9402 C   0  0  0  0  0  0  0  0  0  0  0  0
    5.4644    0.9549    5.1910 C   0  0  0  0  0  0  0  0  0  0  0  0
    6.0543    0.6512    6.4444 C   0  0  0  0  0  0  0  0  0  0  0  0
    5.5822    1.1366    7.6836 C   0  0  0  0  0  0  0  0  0  0  0  0
    4.4742    1.9660    7.7368 C   0  0  0  0  0  0  0  0  0  0  0  0
    3.8964    2.5133    8.8423 O   0  0  0  0  0  0  0  0  0  0  0  0
    4.4693    2.2600   10.1166 C   0  0  0  0  0  0  0  0  0  0  0  0
    3.6198    2.9818   11.1586 C   0  0  0  0  0  0  0  0  0  0  0  0
    4.1274    2.7838   12.5049 N   0  0  0  0  0  0  0  0  0  0  0  0
    5.2721    3.6191   12.8227 C   0  0  0  0  0  0  0  0  0  0  0  0
    3.0980    2.8649   13.5248 C   0  0  0  0  0  0  0  0  0  0  0  0
    3.8529    2.2921    6.4898 C   0  0  0  0  0  0  0  0  0  0  0  0
    2.7656    3.1016    6.4932 N   0  0  0  0  0  0  0  0  0  0  0  0
    4.3428    1.7937    5.2509 C   0  0  0  0  0  0  0  0  0  0  0  0
    0.9853   -0.0169   -2.2088 H   0  0  0  0  0  0  0  0  0  0  0  0
    1.7687    1.5597   -2.5021 H   0  0  0  0  0  0  0  0  0  0  0  0
    0.7051    1.3503   -1.0905 H   0  0  0  0  0  0  0  0  0  0  0  0
    2.3198   -0.2915   -0.0956 H   0  0  0  0  0  0  0  0  0  0  0  0
    3.8566    0.1764   -2.4106 H   0  0  0  0  0  0  0  0  0  0  0  0
    2.7122    2.1173    0.4528 H   0  0  0  0  0  0  0  0  0  0  0  0
    3.7005    2.2774   -1.0203 H   0  0  0  0  0  0  0  0  0  0  0  0
    5.0867    0.4248    0.1470 H   0  0  0  0  0  0  0  0  0  0  0  0
    6.2574    0.0310    1.9009 H   0  0  0  0  0  0  0  0  0  0  0  0
    6.8991   -0.2040    4.0864 H   0  0  0  0  0  0  0  0  0  0  0  0
    6.9319   -0.0017    6.4614 H   0  0  0  0  0  0  0  0  0  0  0  0
    6.1042    0.8443    8.5952 H   0  0  0  0  0  0  0  0  0  0  0  0
    5.5157    2.6149   10.1288 H   0  0  0  0  0  0  0  0  0  0  0  0
    4.4791    1.1761   10.3291 H   0  0  0  0  0  0  0  0  0  0  0  0
    2.6005    2.5688   11.0985 H   0  0  0  0  0  0  0  0  0  0  0  0
    3.5413    4.0579   10.8795 H   0  0  0  0  0  0  0  0  0  0  0  0
    6.0751    3.4872   12.0820 H   0  0  0  0  0  0  0  0  0  0  0  0
    5.6833    3.3361   13.8043 H   0  0  0  0  0  0  0  0  0  0  0  0
    5.0221    4.7050   12.8590 H   0  0  0  0  0  0  0  0  0  0  0  0
    2.2890    2.1492   13.3104 H   0  0  0  0  0  0  0  0  0  0  0  0
    2.6427    3.8785   13.6159 H   0  0  0  0  0  0  0  0  0  0  0  0
    3.5233    2.6048   14.5071 H   0  0  0  0  0  0  0  0  0  0  0  0
    2.4133    3.4617    7.3740 H   0  0  0  0  0  0  0  0  0  0  0  0
    2.3082    3.3473    5.6220 H   0  0  0  0  0  0  0  0  0  0  0  0
    3.8404    2.0567    4.3054 H   0  0  0  0  0  0  0  0  0  0  0  0
  1  2  1  0
  1 23  1  0
  1 24  1  0
  1 25  1  0
  2  3  1  0
  2  4  1  0
  2 26  1  1
  3 27  1  0
  4  5  1  0
  4 28  1  0
  4 29  1  0
  5  6  1  0
  5 30  1  0
  6  7  2  0
  6  8  1  0
  8  9  2  0
  8 31  1  0
  9 10  1  0
  9 32  1  0
 10 11  2  0
 10 22  1  0
 11 12  1  0
 11 33  1  0
 12 13  2  0
 12 34  1  0
 13 14  1  0
 13 20  1  0
 14 15  1  0
 15 16  1  0
 15 35  1  0
 15 36  1  0
 16 17  1  0
 16 37  1  0
 16 38  1  0
 17 18  1  0
 17 19  1  0
 18 39  1  0
 18 40  1  0
 18 41  1  0
 19 42  1  0
 19 43  1  0
 19 44  1  0
 20 21  1  0
 20 22  2  0
 21 45  1  0
 21 46  1  0
 22 47  1  0
M  END

