
     RDKit          3D

 58 61  0  0  0  0  0  0  0  0999 V2000
    2.5425   -1.0342   -0.1197 C   0  0  0  0  0  0  0  0  0  0  0  0
    2.3146    0.4157    0.0207 N   0  0  0  0  0  0  0  0  0  0  0  0
    3.3406    1.2052   -0.3228 C   0  0  0  0  0  0  0  0  0  0  0  0
    4.4598    0.8659   -0.6652 O   0  0  0  0  0  0  0  0  0  0  0  0
    3.1214    2.6538   -0.3642 N   0  0  0  0  0  0  0  0  0  0  0  0
    2.9409    3.3556    0.8755 C   0  0  0  0  0  0  0  0  0  0  0  0
    3.1465    3.3471   -1.6908 C   0  0  2  0  0  0  0  0  0  0  0  0
    2.5968    2.3523   -2.7557 C   0  0  0  0  0  0  0  0  0  0  0  0
    2.3096    3.0425   -4.0865 C   0  0  0  0  0  0  0  0  0  0  0  0
    3.1693    3.4194   -4.8429 O   0  0  0  0  0  0  0  0  0  0  0  0
    4.6249    3.7465   -2.0420 C   0  0  0  0  0  0  0  0  0  0  0  0
    5.1138    5.0616   -1.4244 C   0  0  0  0  0  0  0  0  0  0  0  0
    4.2401    6.2590   -1.8393 C   0  0  0  0  0  0  0  0  0  0  0  0
    2.8016    5.8772   -1.6971 C   0  0  0  0  0  0  0  0  0  0  0  0
    1.7232    6.6961   -1.6569 N   0  0  0  0  0  0  0  0  0  0  0  0
    1.7166    7.7090   -1.7018 H   0  0  0  0  0  0  0  0  0  0  0  0
    0.5534    6.0385   -1.5530 N   0  0  0  0  0  0  0  0  0  0  0  0
    0.8798    4.7553   -1.5274 C   0  0  0  0  0  0  0  0  0  0  0  0
    2.2922    4.5862   -1.6171 C   0  0  0  0  0  0  0  0  0  0  0  0
    1.1299    0.8164    0.7377 C   0  0  0  0  0  0  0  0  0  0  0  0
   -0.1444    0.8449    0.1094 C   0  0  0  0  0  0  0  0  0  0  0  0
   -0.1514    0.9064   -1.2534 F   0  0  0  0  0  0  0  0  0  0  0  0
   -1.3289    0.8627    0.7936 C   0  0  0  0  0  0  0  0  0  0  0  0
   -1.3363    0.8026    2.2385 C   0  0  0  0  0  0  0  0  0  0  0  0
   -2.5238    0.8149    2.9620 C   0  0  0  0  0  0  0  0  0  0  0  0
   -3.5781    0.8341    3.6097 C   0  0  0  0  0  0  0  0  0  0  0  0
   -4.7768    0.8477    4.3468 C   0  0  0  0  0  0  0  0  0  0  0  0
   -6.0445    0.9171    3.6993 C   0  0  0  0  0  0  0  0  0  0  0  0
   -7.2240    0.9282    4.4354 C   0  0  0  0  0  0  0  0  0  0  0  0
   -7.1992    0.8714    5.8370 C   0  0  0  0  0  0  0  0  0  0  0  0
   -5.9603    0.8029    6.4919 C   0  0  0  0  0  0  0  0  0  0  0  0
   -4.7715    0.7909    5.7709 C   0  0  0  0  0  0  0  0  0  0  0  0
   -0.0471    0.7429    2.8990 C   0  0  0  0  0  0  0  0  0  0  0  0
    1.0999    0.7281    2.1569 C   0  0  0  0  0  0  0  0  0  0  0  0
    2.3130    0.6708    2.7702 F   0  0  0  0  0  0  0  0  0  0  0  0
    3.3214   -1.2366   -0.8643 H   0  0  0  0  0  0  0  0  0  0  0  0
    1.5960   -1.4952   -0.4288 H   0  0  0  0  0  0  0  0  0  0  0  0
    2.8514   -1.4609    0.8472 H   0  0  0  0  0  0  0  0  0  0  0  0
    3.3845    2.7835    1.6991 H   0  0  0  0  0  0  0  0  0  0  0  0
    1.8543    3.4211    1.0650 H   0  0  0  0  0  0  0  0  0  0  0  0
    3.3414    4.3743    0.8125 H   0  0  0  0  0  0  0  0  0  0  0  0
    1.6730    1.8873   -2.3860 H   0  0  0  0  0  0  0  0  0  0  0  0
    3.3430    1.5636   -2.9359 H   0  0  0  0  0  0  0  0  0  0  0  0
    1.2293    3.1743   -4.3398 H   0  0  0  0  0  0  0  0  0  0  0  0
    4.6509    3.8279   -3.1391 H   0  0  0  0  0  0  0  0  0  0  0  0
    5.2763    2.9080   -1.7632 H   0  0  0  0  0  0  0  0  0  0  0  0
    6.1525    5.2306   -1.7474 H   0  0  0  0  0  0  0  0  0  0  0  0
    5.1513    4.9910   -0.3243 H   0  0  0  0  0  0  0  0  0  0  0  0
    4.4482    6.5280   -2.8909 H   0  0  0  0  0  0  0  0  0  0  0  0
    4.4792    7.1499   -1.2356 H   0  0  0  0  0  0  0  0  0  0  0  0
    0.1030    3.9943   -1.4452 H   0  0  0  0  0  0  0  0  0  0  0  0
   -2.2655    0.9440    0.2417 H   0  0  0  0  0  0  0  0  0  0  0  0
   -6.0758    0.9607    2.6083 H   0  0  0  0  0  0  0  0  0  0  0  0
   -8.1823    0.9815    3.9103 H   0  0  0  0  0  0  0  0  0  0  0  0
   -8.1297    0.8802    6.4094 H   0  0  0  0  0  0  0  0  0  0  0  0
   -5.9245    0.7576    7.5843 H   0  0  0  0  0  0  0  0  0  0  0  0
   -3.8127    0.7361    6.2913 H   0  0  0  0  0  0  0  0  0  0  0  0
    0.0152    0.7231    3.9871 H   0  0  0  0  0  0  0  0  0  0  0  0
  1  2  1  0
  1 36  1  0
  1 37  1  0
  1 38  1  0
  2  3  1  0
  2 20  1  0
  3  4  2  0
  3  5  1  0
  5  6  1  0
  7  5  1  1
  6 39  1  0
  6 40  1  0
  6 41  1  0
  7  8  1  0
  7 11  1  0
  7 19  1  0
  8  9  1  0
  8 42  1  0
  8 43  1  0
  9 10  2  0
  9 44  1  0
 11 12  1  0
 11 45  1  0
 11 46  1  0
 12 13  1  0
 12 47  1  0
 12 48  1  0
 13 14  1  0
 13 49  1  0
 13 50  1  0
 14 15  1  0
 14 19  2  0
 15 16  1  0
 15 17  1  0
 17 18  2  0
 18 19  1  0
 18 51  1  0
 20 21  2  0
 20 34  1  0
 21 22  1  0
 21 23  1  0
 23 24  2  0
 23 52  1  0
 24 25  1  0
 24 33  1  0
 25 26  3  0
 26 27  1  0
 27 28  2  0
 27 32  1  0
 28 29  1  0
 28 53  1  0
 29 30  2  0
 29 54  1  0
 30 31  1  0
 30 55  1  0
 31 32  2  0
 31 56  1  0
 32 57  1  0
 33 34  2  0
 33 58  1  0
 34 35  1  0
M  END

