
     RDKit          3D

 43 43  0  0  0  0  0  0  0  0999 V2000
    4.1470    0.1667    1.4415 C   0  0  0  0  0  0  0  0  0  0  0  0
    3.2607    0.1028    0.3066 N   0  0  0  0  0  0  0  0  0  0  0  0
    3.6995    0.0601   -1.0022 C   0  0  0  0  0  0  0  0  0  0  0  0
    5.0582   -0.1264   -1.3359 C   0  0  0  0  0  0  0  0  0  0  0  0
    5.4589   -0.1902   -2.6718 C   0  0  0  0  0  0  0  0  0  0  0  0
    4.5469   -0.0643   -3.7293 C   0  0  0  0  0  0  0  0  0  0  0  0
    4.9914   -0.1760   -5.1706 C   0  0  0  0  0  0  0  0  0  0  0  0
    5.0427   -1.6451   -5.6501 C   0  0  0  0  0  0  0  0  0  0  0  0
    5.5090   -1.8816   -7.0290 N   0  0  0  0  0  0  0  0  0  0  0  0
    4.6357   -1.2715   -8.0255 C   0  0  0  0  0  0  0  0  0  0  0  0
    6.9703   -1.7070   -7.1704 C   0  0  1  0  0  0  0  0  0  0  0  0
    7.6616   -2.9428   -6.5474 C   0  0  0  0  0  0  0  0  0  0  0  0
    8.8043   -2.9486   -6.1673 O   0  0  0  0  0  0  0  0  0  0  0  0
    6.8785   -4.0265   -6.5281 O   0  0  0  0  0  0  0  0  0  0  0  0
    7.4770   -1.5237   -8.6320 C   0  0  1  0  0  0  0  0  0  0  0  0
    8.9201   -0.9996   -8.6485 C   0  0  0  0  0  0  0  0  0  0  0  0
    7.3432   -2.7897   -9.4924 C   0  0  0  0  0  0  0  0  0  0  0  0
    3.1963    0.1275   -3.3897 C   0  0  0  0  0  0  0  0  0  0  0  0
    2.7765    0.1901   -2.0647 C   0  0  0  0  0  0  0  0  0  0  0  0
    3.5496    0.2190    2.3629 H   0  0  0  0  0  0  0  0  0  0  0  0
    4.8244    1.0446    1.4227 H   0  0  0  0  0  0  0  0  0  0  0  0
    4.7788   -0.7361    1.5118 H   0  0  0  0  0  0  0  0  0  0  0  0
    2.3191    0.4444    0.4452 H   0  0  0  0  0  0  0  0  0  0  0  0
    5.8100   -0.2203   -0.5512 H   0  0  0  0  0  0  0  0  0  0  0  0
    6.5215   -0.3334   -2.8927 H   0  0  0  0  0  0  0  0  0  0  0  0
    5.9863    0.2863   -5.2855 H   0  0  0  0  0  0  0  0  0  0  0  0
    4.3031    0.3978   -5.8124 H   0  0  0  0  0  0  0  0  0  0  0  0
    4.0339   -2.0823   -5.5552 H   0  0  0  0  0  0  0  0  0  0  0  0
    5.6857   -2.2185   -4.9635 H   0  0  0  0  0  0  0  0  0  0  0  0
    3.5922   -1.5025   -7.7606 H   0  0  0  0  0  0  0  0  0  0  0  0
    4.8168   -1.6892   -9.0245 H   0  0  0  0  0  0  0  0  0  0  0  0
    4.7250   -0.1691   -8.0958 H   0  0  0  0  0  0  0  0  0  0  0  0
    7.3279   -0.8313   -6.5991 H   0  0  0  0  0  0  0  0  0  0  0  0
    6.0032   -3.6916   -6.8465 H   0  0  0  0  0  0  0  0  0  0  0  0
    6.8484   -0.7362   -9.0793 H   0  0  0  0  0  0  0  0  0  0  0  0
    9.6073   -1.7052   -8.1599 H   0  0  0  0  0  0  0  0  0  0  0  0
    9.0024   -0.0361   -8.1204 H   0  0  0  0  0  0  0  0  0  0  0  0
    9.2563   -0.8451   -9.6862 H   0  0  0  0  0  0  0  0  0  0  0  0
    8.0363   -3.5772   -9.1556 H   0  0  0  0  0  0  0  0  0  0  0  0
    7.5865   -2.5641  -10.5428 H   0  0  0  0  0  0  0  0  0  0  0  0
    6.3271   -3.2130   -9.4697 H   0  0  0  0  0  0  0  0  0  0  0  0
    2.4518    0.2389   -4.1846 H   0  0  0  0  0  0  0  0  0  0  0  0
    1.7170    0.3429   -1.8374 H   0  0  0  0  0  0  0  0  0  0  0  0
  1  2  1  0
  1 20  1  0
  1 21  1  0
  1 22  1  0
  2  3  1  0
  2 23  1  0
  3  4  2  0
  3 19  1  0
  4  5  1  0
  4 24  1  0
  5  6  2  0
  5 25  1  0
  6  7  1  0
  6 18  1  0
  7  8  1  0
  7 26  1  0
  7 27  1  0
  8  9  1  0
  8 28  1  0
  8 29  1  0
  9 10  1  0
  9 11  1  0
 10 30  1  0
 10 31  1  0
 10 32  1  0
 11 12  1  0
 11 15  1  0
 11 33  1  1
 12 13  2  0
 12 14  1  0
 14 34  1  0
 15 16  1  0
 15 17  1  0
 15 35  1  6
 16 36  1  0
 16 37  1  0
 16 38  1  0
 17 39  1  0
 17 40  1  0
 17 41  1  0
 18 19  2  0
 18 42  1  0
 19 43  1  0
M  END

