
     RDKit          3D

 39 39  0  0  0  0  0  0  0  0999 V2000
    1.1008   -0.1607   -0.0124 C   0  0  0  0  0  0  0  0  0  0  0  0
    2.4057    0.5857   -0.2484 C   0  0  0  0  0  0  0  0  0  0  0  0
    3.1925    0.7349    0.9375 N   0  0  0  0  0  0  0  0  0  0  0  0
    4.6244    1.0442    0.9739 C   0  0  1  0  0  0  0  0  0  0  0  0
    5.2087    1.4845   -0.3265 C   0  0  0  0  0  0  0  0  0  0  0  0
    5.1364    2.7100   -1.0015 C   0  0  0  0  0  0  0  0  0  0  0  0
    5.6590    2.6737   -2.2295 N   0  0  0  0  0  0  0  0  0  0  0  0
    6.1673    1.3814   -2.3595 N   0  0  0  0  0  0  0  0  0  0  0  0
    6.3312    0.8977   -3.7002 C   0  0  0  0  0  0  0  0  0  0  0  0
    5.7478    0.5358   -1.2900 C   0  0  0  0  0  0  0  0  0  0  0  0
    4.8856    1.8523    2.3009 C   0  0  1  0  0  0  0  0  0  0  0  0
    6.3935    1.9553    2.5277 C   0  0  0  0  0  0  0  0  0  0  0  0
    4.2185    3.2424    2.2680 C   0  0  0  0  0  0  0  0  0  0  0  0
    4.3271    4.0404    3.5690 C   0  0  0  0  0  0  0  0  0  0  0  0
    4.1914    1.1348    3.3511 O   0  0  0  0  0  0  0  0  0  0  0  0
    4.8407    0.0678    4.0092 C   0  0  0  0  0  0  0  0  0  0  0  0
    0.5270   -0.2007   -0.9489 H   0  0  0  0  0  0  0  0  0  0  0  0
    0.4709    0.3360    0.7436 H   0  0  0  0  0  0  0  0  0  0  0  0
    1.2834   -1.1974    0.3106 H   0  0  0  0  0  0  0  0  0  0  0  0
    2.2285    1.6125   -0.6282 H   0  0  0  0  0  0  0  0  0  0  0  0
    3.0614    0.1352   -1.0115 H   0  0  0  0  0  0  0  0  0  0  0  0
    2.7667    0.6095    1.8616 H   0  0  0  0  0  0  0  0  0  0  0  0
    5.0502    0.0442    1.2028 H   0  0  0  0  0  0  0  0  0  0  0  0
    4.6934    3.6495   -0.6626 H   0  0  0  0  0  0  0  0  0  0  0  0
    6.7649    1.6960   -4.3201 H   0  0  0  0  0  0  0  0  0  0  0  0
    5.3709    0.5751   -4.1653 H   0  0  0  0  0  0  0  0  0  0  0  0
    7.0125    0.0306   -3.7081 H   0  0  0  0  0  0  0  0  0  0  0  0
    6.4570   -0.2637   -1.0013 H   0  0  0  0  0  0  0  0  0  0  0  0
    6.8335    2.5702    1.7325 H   0  0  0  0  0  0  0  0  0  0  0  0
    6.8883    0.9743    2.4874 H   0  0  0  0  0  0  0  0  0  0  0  0
    6.6138    2.4163    3.5010 H   0  0  0  0  0  0  0  0  0  0  0  0
    3.1495    3.1145    2.0249 H   0  0  0  0  0  0  0  0  0  0  0  0
    4.6603    3.8089    1.4377 H   0  0  0  0  0  0  0  0  0  0  0  0
    3.9244    3.4675    4.4174 H   0  0  0  0  0  0  0  0  0  0  0  0
    3.7577    4.9794    3.4888 H   0  0  0  0  0  0  0  0  0  0  0  0
    5.3680    4.3121    3.8030 H   0  0  0  0  0  0  0  0  0  0  0  0
    4.0970   -0.3916    4.6771 H   0  0  0  0  0  0  0  0  0  0  0  0
    5.6919    0.4087    4.6222 H   0  0  0  0  0  0  0  0  0  0  0  0
    5.2073   -0.7116    3.3133 H   0  0  0  0  0  0  0  0  0  0  0  0
  1  2  1  0
  1 17  1  0
  1 18  1  0
  1 19  1  0
  2  3  1  0
  2 20  1  0
  2 21  1  0
  3  4  1  0
  3 22  1  0
  4  5  1  0
  4 11  1  0
  4 23  1  1
  5  6  1  0
  5 10  2  0
  6  7  2  0
  6 24  1  0
  7  8  1  0
  8  9  1  0
  8 10  1  0
  9 25  1  0
  9 26  1  0
  9 27  1  0
 10 28  1  0
 11 12  1  0
 11 13  1  0
 11 15  1  1
 12 29  1  0
 12 30  1  0
 12 31  1  0
 13 14  1  0
 13 32  1  0
 13 33  1  0
 14 34  1  0
 14 35  1  0
 14 36  1  0
 15 16  1  0
 16 37  1  0
 16 38  1  0
 16 39  1  0
M  END

