
     RDKit          3D

 49 52  0  0  0  0  0  0  0  0999 V2000
    6.6830   -1.9412    4.5321 C   0  0  0  0  0  0  0  0  0  0  0  0
    6.8626   -2.4338    3.1216 C   0  0  0  0  0  0  0  0  0  0  0  0
    5.8354   -2.3265    2.3328 N   0  0  0  0  0  0  0  0  0  0  0  0
    5.9130   -2.7475    1.0516 N   0  0  0  0  0  0  0  0  0  0  0  0
    4.6919   -2.5505    0.2614 C   0  0  0  0  0  0  0  0  0  0  0  0
    3.7914   -3.8018    0.1690 C   0  0  0  0  0  0  0  0  0  0  0  0
    2.7033   -3.8355    0.7169 O   0  0  0  0  0  0  0  0  0  0  0  0
    4.3145   -4.8060   -0.5853 N   0  0  0  0  0  0  0  0  0  0  0  0
    3.6505   -6.0896   -0.7691 C   0  0  1  0  0  0  0  0  0  0  0  0
    3.5142   -6.4063   -2.2677 C   0  0  0  0  0  0  0  0  0  0  0  0
    4.3394   -7.2262   -0.0163 C   0  0  0  0  0  0  0  0  0  0  0  0
    5.7387   -7.3205    0.0689 C   0  0  0  0  0  0  0  0  0  0  0  0
    6.3410   -8.3937    0.7263 C   0  0  0  0  0  0  0  0  0  0  0  0
    5.5630   -9.4003    1.3044 C   0  0  0  0  0  0  0  0  0  0  0  0
    4.1595   -9.3257    1.2087 C   0  0  0  0  0  0  0  0  0  0  0  0
    3.5652   -8.2400    0.5594 C   0  0  0  0  0  0  0  0  0  0  0  0
    3.3536  -10.2911    1.7482 O   0  0  0  0  0  0  0  0  0  0  0  0
    4.0234  -11.4958    2.0820 C   0  0  0  0  0  0  0  0  0  0  0  0
    5.3318  -11.1930    2.7937 C   0  0  0  0  0  0  0  0  0  0  0  0
    6.1848  -10.4334    1.9530 O   0  0  0  0  0  0  0  0  0  0  0  0
    7.0192   -3.3350    0.4553 C   0  0  0  0  0  0  0  0  0  0  0  0
    6.9786   -3.7368   -0.7101 O   0  0  0  0  0  0  0  0  0  0  0  0
    8.2006   -3.4332    1.3222 C   0  0  0  0  0  0  0  0  0  0  0  0
    9.3943   -3.9738    0.8115 C   0  0  0  0  0  0  0  0  0  0  0  0
   10.5111   -4.0766    1.6297 C   0  0  0  0  0  0  0  0  0  0  0  0
   10.4461   -3.6431    2.9675 C   0  0  0  0  0  0  0  0  0  0  0  0
    9.2719   -3.1077    3.4811 C   0  0  0  0  0  0  0  0  0  0  0  0
    8.1258   -2.9912    2.6633 C   0  0  0  0  0  0  0  0  0  0  0  0
    5.6605   -1.5623    4.6549 H   0  0  0  0  0  0  0  0  0  0  0  0
    7.3923   -1.1311    4.7697 H   0  0  0  0  0  0  0  0  0  0  0  0
    6.8497   -2.7494    5.2633 H   0  0  0  0  0  0  0  0  0  0  0  0
    4.9901   -2.2288   -0.7473 H   0  0  0  0  0  0  0  0  0  0  0  0
    4.1123   -1.7694    0.7619 H   0  0  0  0  0  0  0  0  0  0  0  0
    5.2418   -4.6494   -0.9820 H   0  0  0  0  0  0  0  0  0  0  0  0
    2.6466   -5.9585   -0.3402 H   0  0  0  0  0  0  0  0  0  0  0  0
    4.5056   -6.5017   -2.7407 H   0  0  0  0  0  0  0  0  0  0  0  0
    2.9582   -5.6072   -2.7827 H   0  0  0  0  0  0  0  0  0  0  0  0
    2.9815   -7.3578   -2.4168 H   0  0  0  0  0  0  0  0  0  0  0  0
    6.3723   -6.5431   -0.3644 H   0  0  0  0  0  0  0  0  0  0  0  0
    7.4271   -8.4700    0.8132 H   0  0  0  0  0  0  0  0  0  0  0  0
    2.4735   -8.2103    0.5170 H   0  0  0  0  0  0  0  0  0  0  0  0
    4.2243  -12.0845    1.1665 H   0  0  0  0  0  0  0  0  0  0  0  0
    3.3448  -12.0728    2.7276 H   0  0  0  0  0  0  0  0  0  0  0  0
    5.8694  -12.1190    3.0460 H   0  0  0  0  0  0  0  0  0  0  0  0
    5.1272  -10.6379    3.7291 H   0  0  0  0  0  0  0  0  0  0  0  0
    9.4096   -4.3022   -0.2292 H   0  0  0  0  0  0  0  0  0  0  0  0
   11.4414   -4.4950    1.2380 H   0  0  0  0  0  0  0  0  0  0  0  0
   11.3272   -3.7287    3.6083 H   0  0  0  0  0  0  0  0  0  0  0  0
    9.2359   -2.7757    4.5199 H   0  0  0  0  0  0  0  0  0  0  0  0
  1  2  1  0
  1 29  1  0
  1 30  1  0
  1 31  1  0
  2  3  2  0
  2 28  1  0
  3  4  1  0
  4  5  1  0
  4 21  1  0
  5  6  1  0
  5 32  1  0
  5 33  1  0
  6  7  2  0
  6  8  1  0
  8  9  1  0
  8 34  1  0
  9 10  1  0
  9 11  1  0
  9 35  1  1
 10 36  1  0
 10 37  1  0
 10 38  1  0
 11 12  2  0
 11 16  1  0
 12 13  1  0
 12 39  1  0
 13 14  2  0
 13 40  1  0
 14 15  1  0
 14 20  1  0
 15 16  2  0
 15 17  1  0
 16 41  1  0
 17 18  1  0
 18 19  1  0
 18 42  1  0
 18 43  1  0
 19 20  1  0
 19 44  1  0
 19 45  1  0
 21 22  2  0
 21 23  1  0
 23 24  1  0
 23 28  2  0
 24 25  2  0
 24 46  1  0
 25 26  1  0
 25 47  1  0
 26 27  2  0
 26 48  1  0
 27 28  1  0
 27 49  1  0
M  END

