
     RDKit          3D

 42 42  0  0  0  0  0  0  0  0999 V2000
    2.3306    0.0297    0.7261 C   0  0  0  0  0  0  0  0  0  0  0  0
    3.0657    0.5068   -0.5152 C   0  0  0  0  0  0  0  0  0  0  0  0
    3.5507   -0.5964   -1.3077 O   0  0  0  0  0  0  0  0  0  0  0  0
    4.7386   -1.1318   -0.9785 C   0  0  0  0  0  0  0  0  0  0  0  0
    5.4131   -0.7426   -0.0550 O   0  0  0  0  0  0  0  0  0  0  0  0
    5.1534   -2.2510   -1.9368 C   0  0  1  0  0  0  0  0  0  0  0  0
    6.1795   -3.1855   -1.2758 C   0  0  0  0  0  0  0  0  0  0  0  0
    5.5041   -4.0860   -0.2340 C   0  0  0  0  0  0  0  0  0  0  0  0
    4.2926   -4.8160   -0.8216 C   0  0  0  0  0  0  0  0  0  0  0  0
    3.3612   -3.8837   -1.4670 N   0  0  0  0  0  0  0  0  0  0  0  0
    2.0798   -3.8224   -1.0134 C   0  0  0  0  0  0  0  0  0  0  0  0
    1.6836   -4.4478   -0.0337 O   0  0  0  0  0  0  0  0  0  0  0  0
    1.0319   -2.9729   -1.7910 C   0  0  0  0  0  0  0  0  0  0  0  0
    1.1423   -2.6073   -2.9520 O   0  0  0  0  0  0  0  0  0  0  0  0
   -0.0459   -2.7330   -1.0069 N   0  0  0  0  0  0  0  0  0  0  0  0
   -1.2566   -2.1085   -1.4951 C   0  0  0  0  0  0  0  0  0  0  0  0
   -2.4408   -3.0628   -1.4518 C   0  0  0  0  0  0  0  0  0  0  0  0
   -2.6257   -3.4637   -0.1154 O   0  0  0  0  0  0  0  0  0  0  0  0
   -3.6374   -4.4193    0.0666 C   0  0  0  0  0  0  0  0  0  0  0  0
    3.9645   -3.0472   -2.5058 C   0  0  0  0  0  0  0  0  0  0  0  0
    1.9000    0.8931    1.2584 H   0  0  0  0  0  0  0  0  0  0  0  0
    3.0168   -0.4863    1.4137 H   0  0  0  0  0  0  0  0  0  0  0  0
    1.5115   -0.6563    0.4607 H   0  0  0  0  0  0  0  0  0  0  0  0
    3.9165    1.1507   -0.2476 H   0  0  0  0  0  0  0  0  0  0  0  0
    2.3949    1.0556   -1.1916 H   0  0  0  0  0  0  0  0  0  0  0  0
    5.6301   -1.7301   -2.7880 H   0  0  0  0  0  0  0  0  0  0  0  0
    6.9807   -2.5927   -0.8121 H   0  0  0  0  0  0  0  0  0  0  0  0
    6.6408   -3.8074   -2.0628 H   0  0  0  0  0  0  0  0  0  0  0  0
    5.1809   -3.4764    0.6261 H   0  0  0  0  0  0  0  0  0  0  0  0
    6.2197   -4.8293    0.1546 H   0  0  0  0  0  0  0  0  0  0  0  0
    3.7372   -5.3619   -0.0503 H   0  0  0  0  0  0  0  0  0  0  0  0
    4.6283   -5.5426   -1.5864 H   0  0  0  0  0  0  0  0  0  0  0  0
   -0.0749   -3.2408   -0.1248 H   0  0  0  0  0  0  0  0  0  0  0  0
   -1.0698   -1.7762   -2.5262 H   0  0  0  0  0  0  0  0  0  0  0  0
   -1.4947   -1.2219   -0.8820 H   0  0  0  0  0  0  0  0  0  0  0  0
   -2.2461   -3.9408   -2.1023 H   0  0  0  0  0  0  0  0  0  0  0  0
   -3.3460   -2.5531   -1.8446 H   0  0  0  0  0  0  0  0  0  0  0  0
   -3.6845   -4.6596    1.1387 H   0  0  0  0  0  0  0  0  0  0  0  0
   -3.4322   -5.3524   -0.4959 H   0  0  0  0  0  0  0  0  0  0  0  0
   -4.6286   -4.0388   -0.2537 H   0  0  0  0  0  0  0  0  0  0  0  0
    3.2063   -2.3942   -2.9393 H   0  0  0  0  0  0  0  0  0  0  0  0
    4.3390   -3.7057   -3.3110 H   0  0  0  0  0  0  0  0  0  0  0  0
  1  2  1  0
  1 21  1  0
  1 22  1  0
  1 23  1  0
  2  3  1  0
  2 24  1  0
  2 25  1  0
  3  4  1  0
  4  5  2  0
  4  6  1  0
  6  7  1  0
  6 20  1  0
  6 26  1  6
  7  8  1  0
  7 27  1  0
  7 28  1  0
  8  9  1  0
  8 29  1  0
  8 30  1  0
  9 10  1  0
  9 31  1  0
  9 32  1  0
 10 11  1  0
 10 20  1  0
 11 12  2  0
 11 13  1  0
 13 14  2  0
 13 15  1  0
 15 16  1  0
 15 33  1  0
 16 17  1  0
 16 34  1  0
 16 35  1  0
 17 18  1  0
 17 36  1  0
 17 37  1  0
 18 19  1  0
 19 38  1  0
 19 39  1  0
 19 40  1  0
 20 41  1  0
 20 42  1  0
M  END

