
     RDKit          3D

104111  0  0  0  0  0  0  0  0999 V2000
   10.0183    0.9807   -4.0504 C   0  0  0  0  0  0  0  0  0  0  0  0
    9.1449    0.6758   -5.2903 C   0  0  1  0  0  0  0  0  0  0  0  0
    9.9240    1.0552   -6.5720 C   0  0  0  0  0  0  0  0  0  0  0  0
    8.8750   -0.8396   -5.3234 C   0  0  0  0  0  0  0  0  0  0  0  0
    7.8446    1.4992   -5.2173 C   0  0  0  0  0  0  0  0  0  0  0  0
    7.9162    2.9117   -5.1607 C   0  0  0  0  0  0  0  0  0  0  0  0
    6.7866    3.7243   -5.0861 C   0  0  0  0  0  0  0  0  0  0  0  0
    5.5313    3.1015   -5.0643 C   0  0  0  0  0  0  0  0  0  0  0  0
    5.4186    1.6879   -5.1514 C   0  0  0  0  0  0  0  0  0  0  0  0
    6.5697    0.9005   -5.2176 C   0  0  0  0  0  0  0  0  0  0  0  0
    3.9921    1.3960   -5.1730 C   0  0  0  0  0  0  0  0  0  0  0  0
    3.2453    0.2211   -5.2752 C   0  0  0  0  0  0  0  0  0  0  0  0
    1.8381    0.2708   -5.3161 C   0  0  0  0  0  0  0  0  0  0  0  0
    0.9695   -0.9962   -5.4353 C   0  0  1  0  0  0  0  0  0  0  0  0
    1.8156   -2.2810   -5.4931 C   0  0  0  0  0  0  0  0  0  0  0  0
    0.0303   -1.0927   -4.2096 C   0  0  0  0  0  0  0  0  0  0  0  0
    0.1212   -0.9200   -6.7269 C   0  0  0  0  0  0  0  0  0  0  0  0
    1.2153    1.5406   -5.2592 C   0  0  0  0  0  0  0  0  0  0  0  0
    1.9324    2.7309   -5.1528 C   0  0  0  0  0  0  0  0  0  0  0  0
    3.3305    2.6513   -5.0948 C   0  0  0  0  0  0  0  0  0  0  0  0
    4.2681    3.6642   -4.9848 N   0  0  0  0  0  0  0  0  0  0  0  0
    3.9777    5.0825   -4.9224 C   0  0  0  0  0  0  0  0  0  0  0  0
    3.8503    5.7313   -6.0859 N   0  0  0  0  0  0  0  0  0  0  0  0
    3.5832    7.0734   -5.9721 C   0  0  0  0  0  0  0  0  0  0  0  0
    3.4288    7.8621   -7.1316 C   0  0  0  0  0  0  0  0  0  0  0  0
    3.1587    9.2315   -7.0447 C   0  0  0  0  0  0  0  0  0  0  0  0
    3.0363    9.8463   -5.7929 C   0  0  0  0  0  0  0  0  0  0  0  0
    3.1823    9.0936   -4.6232 C   0  0  0  0  0  0  0  0  0  0  0  0
    3.4541    7.7103   -4.6751 C   0  0  0  0  0  0  0  0  0  0  0  0
    3.5913    6.9935   -3.5120 N   0  0  0  0  0  0  0  0  0  0  0  0
    3.8494    5.6925   -3.6865 C   0  0  0  0  0  0  0  0  0  0  0  0
    3.9988    4.8932   -2.4809 N   0  0  0  0  0  0  0  0  0  0  0  0
    5.1674    4.7344   -1.7627 C   0  0  0  0  0  0  0  0  0  0  0  0
    6.4470    5.2502   -2.0186 C   0  0  0  0  0  0  0  0  0  0  0  0
    7.4656    4.9337   -1.1245 C   0  0  0  0  0  0  0  0  0  0  0  0
    7.2599    4.1237    0.0189 C   0  0  0  0  0  0  0  0  0  0  0  0
    8.4427    3.8256    0.9582 C   0  0  1  0  0  0  0  0  0  0  0  0
    8.9889    5.1557    1.5305 C   0  0  0  0  0  0  0  0  0  0  0  0
    8.0396    2.9236    2.1387 C   0  0  0  0  0  0  0  0  0  0  0  0
    9.5613    3.1097    0.1641 C   0  0  0  0  0  0  0  0  0  0  0  0
    5.9596    3.6316    0.2614 C   0  0  0  0  0  0  0  0  0  0  0  0
    4.9181    3.9364   -0.6119 C   0  0  0  0  0  0  0  0  0  0  0  0
    3.4908    3.6362   -0.6317 C   0  0  0  0  0  0  0  0  0  0  0  0
    2.6364    2.9338    0.2084 C   0  0  0  0  0  0  0  0  0  0  0  0
    1.2488    2.8602   -0.0715 C   0  0  0  0  0  0  0  0  0  0  0  0
    0.3303    2.0696    0.8781 C   0  0  1  0  0  0  0  0  0  0  0  0
    0.4297    2.6614    2.3042 C   0  0  0  0  0  0  0  0  0  0  0  0
   -1.1449    2.1172    0.4410 C   0  0  0  0  0  0  0  0  0  0  0  0
    0.7793    0.5887    0.9032 C   0  0  0  0  0  0  0  0  0  0  0  0
    0.7656    3.5262   -1.2153 C   0  0  0  0  0  0  0  0  0  0  0  0
    1.6024    4.2355   -2.0831 C   0  0  0  0  0  0  0  0  0  0  0  0
    2.9703    4.2746   -1.7929 C   0  0  0  0  0  0  0  0  0  0  0  0
   10.9556    0.4014   -4.0888 H   0  0  0  0  0  0  0  0  0  0  0  0
    9.4909    0.7144   -3.1204 H   0  0  0  0  0  0  0  0  0  0  0  0
   10.2886    2.0457   -3.9885 H   0  0  0  0  0  0  0  0  0  0  0  0
   10.8578    0.4731   -6.6397 H   0  0  0  0  0  0  0  0  0  0  0  0
   10.1944    2.1218   -6.5892 H   0  0  0  0  0  0  0  0  0  0  0  0
    9.3262    0.8472   -7.4734 H   0  0  0  0  0  0  0  0  0  0  0  0
    9.8301   -1.3863   -5.3658 H   0  0  0  0  0  0  0  0  0  0  0  0
    8.2879   -1.1352   -6.2068 H   0  0  0  0  0  0  0  0  0  0  0  0
    8.3389   -1.1818   -4.4242 H   0  0  0  0  0  0  0  0  0  0  0  0
    8.8930    3.3988   -5.1855 H   0  0  0  0  0  0  0  0  0  0  0  0
    6.8727    4.8106   -5.0805 H   0  0  0  0  0  0  0  0  0  0  0  0
    6.4664   -0.1830   -5.2761 H   0  0  0  0  0  0  0  0  0  0  0  0
    3.7677   -0.7338   -5.3330 H   0  0  0  0  0  0  0  0  0  0  0  0
    2.4259   -2.4137   -4.5860 H   0  0  0  0  0  0  0  0  0  0  0  0
    2.4887   -2.2916   -6.3645 H   0  0  0  0  0  0  0  0  0  0  0  0
    1.1551   -3.1581   -5.5769 H   0  0  0  0  0  0  0  0  0  0  0  0
    0.6083   -1.1547   -3.2737 H   0  0  0  0  0  0  0  0  0  0  0  0
   -0.6027   -1.9927   -4.2798 H   0  0  0  0  0  0  0  0  0  0  0  0
   -0.6376   -0.2213   -4.1342 H   0  0  0  0  0  0  0  0  0  0  0  0
    0.7646   -0.8491   -7.6181 H   0  0  0  0  0  0  0  0  0  0  0  0
   -0.5495   -0.0477   -6.7289 H   0  0  0  0  0  0  0  0  0  0  0  0
   -0.5050   -1.8217   -6.8287 H   0  0  0  0  0  0  0  0  0  0  0  0
    0.1266    1.6050   -5.3123 H   0  0  0  0  0  0  0  0  0  0  0  0
    1.4266    3.6961   -5.1537 H   0  0  0  0  0  0  0  0  0  0  0  0
    3.5291    7.3616   -8.0969 H   0  0  0  0  0  0  0  0  0  0  0  0
    3.0437    9.8210   -7.9580 H   0  0  0  0  0  0  0  0  0  0  0  0
    2.8257   10.9169   -5.7266 H   0  0  0  0  0  0  0  0  0  0  0  0
    3.0903    9.5520   -3.6364 H   0  0  0  0  0  0  0  0  0  0  0  0
    6.6249    5.9027   -2.8722 H   0  0  0  0  0  0  0  0  0  0  0  0
    8.4598    5.3400   -1.3190 H   0  0  0  0  0  0  0  0  0  0  0  0
    8.2144    5.6853    2.1074 H   0  0  0  0  0  0  0  0  0  0  0  0
    9.3380    5.8340    0.7374 H   0  0  0  0  0  0  0  0  0  0  0  0
    9.8414    4.9614    2.2016 H   0  0  0  0  0  0  0  0  0  0  0  0
    7.2688    3.3916    2.7707 H   0  0  0  0  0  0  0  0  0  0  0  0
    8.9165    2.7342    2.7770 H   0  0  0  0  0  0  0  0  0  0  0  0
    7.6615    1.9462    1.8003 H   0  0  0  0  0  0  0  0  0  0  0  0
    9.9305    3.7224   -0.6718 H   0  0  0  0  0  0  0  0  0  0  0  0
    9.2019    2.1556   -0.2529 H   0  0  0  0  0  0  0  0  0  0  0  0
   10.4185    2.8935    0.8224 H   0  0  0  0  0  0  0  0  0  0  0  0
    5.7560    3.0168    1.1378 H   0  0  0  0  0  0  0  0  0  0  0  0
    3.0410    2.4418    1.0954 H   0  0  0  0  0  0  0  0  0  0  0  0
    0.1160    3.7171    2.3169 H   0  0  0  0  0  0  0  0  0  0  0  0
    1.4539    2.6114    2.7039 H   0  0  0  0  0  0  0  0  0  0  0  0
   -0.2230    2.1033    2.9951 H   0  0  0  0  0  0  0  0  0  0  0  0
   -1.5368    3.1461    0.4265 H   0  0  0  0  0  0  0  0  0  0  0  0
   -1.7602    1.5398    1.1485 H   0  0  0  0  0  0  0  0  0  0  0  0
   -1.2931    1.6787   -0.5581 H   0  0  0  0  0  0  0  0  0  0  0  0
    1.8182    0.4775    1.2494 H   0  0  0  0  0  0  0  0  0  0  0  0
    0.7105    0.1378   -0.0996 H   0  0  0  0  0  0  0  0  0  0  0  0
    0.1372    0.0063    1.5841 H   0  0  0  0  0  0  0  0  0  0  0  0
   -0.2989    3.5042   -1.4447 H   0  0  0  0  0  0  0  0  0  0  0  0
    1.1983    4.7694   -2.9420 H   0  0  0  0  0  0  0  0  0  0  0  0
  2  1  1  1
  1 53  1  0
  1 54  1  0
  1 55  1  0
  2  3  1  0
  2  4  1  0
  2  5  1  0
  3 56  1  0
  3 57  1  0
  3 58  1  0
  4 59  1  0
  4 60  1  0
  4 61  1  0
  5  6  2  0
  5 10  1  0
  6  7  1  0
  6 62  1  0
  7  8  2  0
  7 63  1  0
  8  9  1  0
  8 21  1  0
  9 10  2  0
  9 11  1  0
 10 64  1  0
 11 12  2  0
 11 20  1  0
 12 13  1  0
 12 65  1  0
 13 14  1  0
 13 18  2  0
 14 15  1  6
 14 16  1  0
 14 17  1  0
 15 66  1  0
 15 67  1  0
 15 68  1  0
 16 69  1  0
 16 70  1  0
 16 71  1  0
 17 72  1  0
 17 73  1  0
 17 74  1  0
 18 19  1  0
 18 75  1  0
 19 20  2  0
 19 76  1  0
 20 21  1  0
 21 22  1  0
 22 23  2  0
 22 31  1  0
 23 24  1  0
 24 25  2  0
 24 29  1  0
 25 26  1  0
 25 77  1  0
 26 27  2  0
 26 78  1  0
 27 28  1  0
 27 79  1  0
 28 29  2  0
 28 80  1  0
 29 30  1  0
 30 31  2  0
 31 32  1  0
 32 33  1  0
 32 52  1  0
 33 34  2  0
 33 42  1  0
 34 35  1  0
 34 81  1  0
 35 36  2  0
 35 82  1  0
 36 37  1  0
 36 41  1  0
 37 38  1  1
 37 39  1  0
 37 40  1  0
 38 83  1  0
 38 84  1  0
 38 85  1  0
 39 86  1  0
 39 87  1  0
 39 88  1  0
 40 89  1  0
 40 90  1  0
 40 91  1  0
 41 42  2  0
 41 92  1  0
 42 43  1  0
 43 44  1  0
 43 52  2  0
 44 45  2  0
 44 93  1  0
 45 46  1  0
 45 50  1  0
 46 47  1  1
 46 48  1  0
 46 49  1  0
 47 94  1  0
 47 95  1  0
 47 96  1  0
 48 97  1  0
 48 98  1  0
 48 99  1  0
 49100  1  0
 49101  1  0
 49102  1  0
 50 51  2  0
 50103  1  0
 51 52  1  0
 51104  1  0
M  END

