
     RDKit          3D

 53 54  0  0  0  0  0  0  0  0999 V2000
    0.4894    0.1459   -0.2621 C   0  0  0  0  0  0  0  0  0  0  0  0
    2.0114   -0.1144   -0.1384 C   0  0  1  0  0  0  0  0  0  0  0  0
    2.5259    0.4767    1.1979 C   0  0  0  0  0  0  0  0  0  0  0  0
    2.1986   -1.6442   -0.0550 C   0  0  0  0  0  0  0  0  0  0  0  0
    2.7355    0.6104   -1.3103 C   0  0  0  0  0  0  0  0  0  0  0  0
    2.5696    1.9850   -1.4033 C   0  0  0  0  0  0  0  0  0  0  0  0
    3.1632    2.7959   -2.4128 C   0  0  0  0  0  0  0  0  0  0  0  0
    2.9378    4.1997   -2.4333 C   0  0  0  0  0  0  0  0  0  0  0  0
    3.4706    5.0980   -3.3861 C   0  0  0  0  0  0  0  0  0  0  0  0
    3.2507    6.5010   -3.4179 C   0  0  0  0  0  0  0  0  0  0  0  0
    3.8476    7.3055   -4.4388 C   0  0  0  0  0  0  0  0  0  0  0  0
    3.6353    8.6757   -4.4749 C   0  0  0  0  0  0  0  0  0  0  0  0
    4.1797    9.4816   -5.4233 O   0  0  0  0  0  0  0  0  0  0  0  0
    2.8243    9.3156   -3.5056 C   0  0  0  0  0  0  0  0  0  0  0  0
    2.2302    8.5414   -2.4954 C   0  0  0  0  0  0  0  0  0  0  0  0
    1.4423    9.1037   -1.5393 O   0  0  0  0  0  0  0  0  0  0  0  0
    2.4292    7.1640   -2.4388 C   0  0  0  0  0  0  0  0  0  0  0  0
    3.9807    2.1204   -3.3807 C   0  0  0  0  0  0  0  0  0  0  0  0
    4.1920    0.7477   -3.3495 C   0  0  0  0  0  0  0  0  0  0  0  0
    5.0852    0.0640   -4.4199 C   0  0  1  0  0  0  0  0  0  0  0  0
    5.6480    1.0840   -5.4306 C   0  0  0  0  0  0  0  0  0  0  0  0
    6.3160   -0.6134   -3.7591 C   0  0  0  0  0  0  0  0  0  0  0  0
    4.2636   -0.9587   -5.2504 C   0  0  0  0  0  0  0  0  0  0  0  0
    3.5636   -0.0077   -2.3073 C   0  0  0  0  0  0  0  0  0  0  0  0
    3.7315   -1.3523   -2.2262 O   0  0  0  0  0  0  0  0  0  0  0  0
   -0.0468   -0.3401    0.5696 H   0  0  0  0  0  0  0  0  0  0  0  0
    0.0959   -0.2660   -1.2050 H   0  0  0  0  0  0  0  0  0  0  0  0
    0.2419    1.2173   -0.2361 H   0  0  0  0  0  0  0  0  0  0  0  0
    2.0119   -0.0021    2.0477 H   0  0  0  0  0  0  0  0  0  0  0  0
    2.3535    1.5605    1.2722 H   0  0  0  0  0  0  0  0  0  0  0  0
    3.6072    0.3008    1.3137 H   0  0  0  0  0  0  0  0  0  0  0  0
    1.6310   -2.0133    0.8150 H   0  0  0  0  0  0  0  0  0  0  0  0
    3.2495   -1.9311    0.0800 H   0  0  0  0  0  0  0  0  0  0  0  0
    1.8228   -2.1601   -0.9482 H   0  0  0  0  0  0  0  0  0  0  0  0
    1.9480    2.4961   -0.6654 H   0  0  0  0  0  0  0  0  0  0  0  0
    2.2983    4.5973   -1.6416 H   0  0  0  0  0  0  0  0  0  0  0  0
    4.1099    4.6963   -4.1771 H   0  0  0  0  0  0  0  0  0  0  0  0
    4.4777    6.8300   -5.1973 H   0  0  0  0  0  0  0  0  0  0  0  0
    4.7093    8.9448   -6.0281 H   0  0  0  0  0  0  0  0  0  0  0  0
    2.6791   10.3970   -3.5655 H   0  0  0  0  0  0  0  0  0  0  0  0
    1.3863   10.0559   -1.6913 H   0  0  0  0  0  0  0  0  0  0  0  0
    1.9465    6.6085   -1.6352 H   0  0  0  0  0  0  0  0  0  0  0  0
    4.4452    2.7175   -4.1600 H   0  0  0  0  0  0  0  0  0  0  0  0
    6.2776    1.8421   -4.9416 H   0  0  0  0  0  0  0  0  0  0  0  0
    4.8480    1.6016   -5.9806 H   0  0  0  0  0  0  0  0  0  0  0  0
    6.2734    0.5592   -6.1692 H   0  0  0  0  0  0  0  0  0  0  0  0
    6.9221    0.1360   -3.2270 H   0  0  0  0  0  0  0  0  0  0  0  0
    6.9515   -1.0816   -4.5281 H   0  0  0  0  0  0  0  0  0  0  0  0
    6.0715   -1.3952   -3.0228 H   0  0  0  0  0  0  0  0  0  0  0  0
    3.4306   -0.4521   -5.7617 H   0  0  0  0  0  0  0  0  0  0  0  0
    3.8169   -1.7764   -4.6628 H   0  0  0  0  0  0  0  0  0  0  0  0
    4.9015   -1.4247   -6.0188 H   0  0  0  0  0  0  0  0  0  0  0  0
    4.3006   -1.6569   -2.9414 H   0  0  0  0  0  0  0  0  0  0  0  0
  2  1  1  6
  1 26  1  0
  1 27  1  0
  1 28  1  0
  2  3  1  0
  2  4  1  0
  2  5  1  0
  3 29  1  0
  3 30  1  0
  3 31  1  0
  4 32  1  0
  4 33  1  0
  4 34  1  0
  5  6  2  0
  5 24  1  0
  6  7  1  0
  6 35  1  0
  7  8  1  0
  7 18  2  0
  8  9  2  0
  8 36  1  0
  9 10  1  0
  9 37  1  0
 10 11  2  0
 10 17  1  0
 11 12  1  0
 11 38  1  0
 12 13  1  0
 12 14  2  0
 13 39  1  0
 14 15  1  0
 14 40  1  0
 15 16  1  0
 15 17  2  0
 16 41  1  0
 17 42  1  0
 18 19  1  0
 18 43  1  0
 19 20  1  0
 19 24  2  0
 20 21  1  6
 20 22  1  0
 20 23  1  0
 21 44  1  0
 21 45  1  0
 21 46  1  0
 22 47  1  0
 22 48  1  0
 22 49  1  0
 23 50  1  0
 23 51  1  0
 23 52  1  0
 24 25  1  0
 25 53  1  0
M  END

