
     RDKit          3D

 68 71  0  0  0  0  0  0  0  0999 V2000
    7.9036    4.7933    5.3441 C   0  0  0  0  0  0  0  0  0  0  0  0
    6.6454    5.0649    4.5106 C   0  0  1  0  0  0  0  0  0  0  0  0
    6.9450    6.0308    3.3490 C   0  0  0  0  0  0  0  0  0  0  0  0
    5.9921    3.8017    4.0080 C   0  0  0  0  0  0  0  0  0  0  0  0
    6.5028    2.5265    4.0205 C   0  0  0  0  0  0  0  0  0  0  0  0
    5.6431    1.6344    3.4316 O   0  0  0  0  0  0  0  0  0  0  0  0
    4.5603    2.3350    3.0253 C   0  0  0  0  0  0  0  0  0  0  0  0
    3.4317    1.8160    2.3477 C   0  0  0  0  0  0  0  0  0  0  0  0
    2.4816    2.7950    2.0171 C   0  0  0  0  0  0  0  0  0  0  0  0
    2.6671    4.1302    2.3754 C   0  0  0  0  0  0  0  0  0  0  0  0
    1.6822    5.1414    1.9704 C   0  0  0  0  0  0  0  0  0  0  0  0
    0.6507    4.9927    1.3533 O   0  0  0  0  0  0  0  0  0  0  0  0
    2.0921    6.4484    2.4492 N   0  0  0  0  0  0  0  0  0  0  0  0
    1.6469    7.6675    2.0793 C   0  0  0  0  0  0  0  0  0  0  0  0
    0.8242    7.8857    0.9209 C   0  0  0  0  0  0  0  0  0  0  0  0
    0.5855    9.0799    0.4252 N   0  0  0  0  0  0  0  0  0  0  0  0
    1.1068   10.1645    1.0417 C   0  0  0  0  0  0  0  0  0  0  0  0
    1.8679   10.0992    2.1947 C   0  0  0  0  0  0  0  0  0  0  0  0
    2.0936    8.8442    2.8059 C   0  0  0  0  0  0  0  0  0  0  0  0
    2.7112    8.7271    4.0275 N   0  0  0  0  0  0  0  0  0  0  0  0
    2.1842    7.8448    5.0874 C   0  0  0  0  0  0  0  0  0  0  0  0
    3.3076    7.1898    5.8872 C   0  0  0  0  0  0  0  0  0  0  0  0
    4.2939    8.2321    6.4215 C   0  0  0  0  0  0  0  0  0  0  0  0
    4.7826    9.1503    5.2988 C   0  0  2  0  0  0  0  0  0  0  0  0
    5.3516    8.5549    4.5647 H   0  0  0  0  0  0  0  0  0  0  0  0
    5.6477   10.1886    5.8234 N   0  0  0  0  0  0  0  0  0  0  0  0
    6.4614   10.9296    5.0078 C   0  0  0  0  0  0  0  0  0  0  0  0
    6.4478   10.8457    3.7940 O   0  0  0  0  0  0  0  0  0  0  0  0
    7.2391   11.7398    5.7470 O   0  0  0  0  0  0  0  0  0  0  0  0
    8.1967   12.6724    5.1355 C   0  0  1  0  0  0  0  0  0  0  0  0
    7.4505   13.6853    4.2611 C   0  0  0  0  0  0  0  0  0  0  0  0
    8.8229   13.3594    6.3498 C   0  0  0  0  0  0  0  0  0  0  0  0
    9.2523   11.8928    4.3457 C   0  0  0  0  0  0  0  0  0  0  0  0
    3.5911    9.7753    4.5332 C   0  0  0  0  0  0  0  0  0  0  0  0
    3.7559    4.6365    3.0840 N   0  0  0  0  0  0  0  0  0  0  0  0
    4.7045    3.6931    3.3594 C   0  0  0  0  0  0  0  0  0  0  0  0
    8.3267    5.7324    5.7362 H   0  0  0  0  0  0  0  0  0  0  0  0
    8.6859    4.3115    4.7341 H   0  0  0  0  0  0  0  0  0  0  0  0
    7.6900    4.1326    6.1992 H   0  0  0  0  0  0  0  0  0  0  0  0
    5.9123    5.5671    5.1699 H   0  0  0  0  0  0  0  0  0  0  0  0
    7.6951    5.5958    2.6682 H   0  0  0  0  0  0  0  0  0  0  0  0
    7.3417    6.9920    3.7180 H   0  0  0  0  0  0  0  0  0  0  0  0
    6.0363    6.2276    2.7607 H   0  0  0  0  0  0  0  0  0  0  0  0
    7.4281    2.1028    4.3979 H   0  0  0  0  0  0  0  0  0  0  0  0
    3.3281    0.7642    2.0889 H   0  0  0  0  0  0  0  0  0  0  0  0
    1.5780    2.5340    1.4626 H   0  0  0  0  0  0  0  0  0  0  0  0
    2.9721    6.3163    2.9840 H   0  0  0  0  0  0  0  0  0  0  0  0
    0.4207    7.0136    0.4047 H   0  0  0  0  0  0  0  0  0  0  0  0
    0.8702   11.1365    0.5974 H   0  0  0  0  0  0  0  0  0  0  0  0
    2.2119   11.0180    2.6684 H   0  0  0  0  0  0  0  0  0  0  0  0
    1.5223    7.0926    4.6481 H   0  0  0  0  0  0  0  0  0  0  0  0
    1.5679    8.4844    5.7500 H   0  0  0  0  0  0  0  0  0  0  0  0
    3.8203    6.4540    5.2482 H   0  0  0  0  0  0  0  0  0  0  0  0
    2.8605    6.6242    6.7195 H   0  0  0  0  0  0  0  0  0  0  0  0
    5.1558    7.7389    6.8987 H   0  0  0  0  0  0  0  0  0  0  0  0
    3.8014    8.8484    7.1976 H   0  0  0  0  0  0  0  0  0  0  0  0
    5.7412   10.3122    6.8246 H   0  0  0  0  0  0  0  0  0  0  0  0
    6.6723   14.1991    4.8474 H   0  0  0  0  0  0  0  0  0  0  0  0
    6.9811   13.1947    3.3989 H   0  0  0  0  0  0  0  0  0  0  0  0
    8.1553   14.4464    3.8918 H   0  0  0  0  0  0  0  0  0  0  0  0
    8.0544   13.8792    6.9419 H   0  0  0  0  0  0  0  0  0  0  0  0
    9.5714   14.0977    6.0250 H   0  0  0  0  0  0  0  0  0  0  0  0
    9.3196   12.6224    6.9988 H   0  0  0  0  0  0  0  0  0  0  0  0
    8.8050   11.3786    3.4856 H   0  0  0  0  0  0  0  0  0  0  0  0
    9.7405   11.1465    4.9917 H   0  0  0  0  0  0  0  0  0  0  0  0
   10.0266   12.5848    3.9795 H   0  0  0  0  0  0  0  0  0  0  0  0
    3.9918   10.3600    3.6980 H   0  0  0  0  0  0  0  0  0  0  0  0
    3.0385   10.4525    5.2139 H   0  0  0  0  0  0  0  0  0  0  0  0
  1  2  1  0
  1 37  1  0
  1 38  1  0
  1 39  1  0
  2  3  1  0
  2  4  1  0
  2 40  1  1
  3 41  1  0
  3 42  1  0
  3 43  1  0
  4  5  2  0
  4 36  1  0
  5  6  1  0
  5 44  1  0
  6  7  1  0
  7  8  1  0
  7 36  2  0
  8  9  2  0
  8 45  1  0
  9 10  1  0
  9 46  1  0
 10 11  1  0
 10 35  2  0
 11 12  2  0
 11 13  1  0
 13 14  1  0
 13 47  1  0
 14 15  2  0
 14 19  1  0
 15 16  1  0
 15 48  1  0
 16 17  2  0
 17 18  1  0
 17 49  1  0
 18 19  2  0
 18 50  1  0
 19 20  1  0
 20 21  1  0
 20 34  1  0
 21 22  1  0
 21 51  1  0
 21 52  1  0
 22 23  1  0
 22 53  1  0
 22 54  1  0
 23 24  1  0
 23 55  1  0
 23 56  1  0
 24 25  1  6
 24 26  1  0
 24 34  1  0
 26 27  1  0
 26 57  1  0
 27 28  2  0
 27 29  1  0
 30 29  1  6
 30 31  1  0
 30 32  1  0
 30 33  1  0
 31 58  1  0
 31 59  1  0
 31 60  1  0
 32 61  1  0
 32 62  1  0
 32 63  1  0
 33 64  1  0
 33 65  1  0
 33 66  1  0
 34 67  1  0
 34 68  1  0
 35 36  1  0
M  END

