
     RDKit          3D

 52 52  0  0  0  0  0  0  0  0999 V2000
    1.0738    0.2595   -0.3561 C   0  0  0  0  0  0  0  0  0  0  0  0
    2.5249    0.0583    0.0853 C   0  0  0  0  0  0  0  0  0  0  0  0
    2.9568    0.8568    1.3341 C   0  0  1  0  0  0  0  0  0  0  0  0
    2.0774    0.5746    2.5727 C   0  0  0  0  0  0  0  0  0  0  0  0
    2.0876   -0.8595    3.1074 C   0  0  0  0  0  0  0  0  0  0  0  0
    1.1458   -0.9909    4.2182 N   0  0  0  0  0  0  0  0  0  0  0  0
    4.4672    0.6606    1.5762 C   0  0  0  0  0  0  0  0  0  0  0  0
    5.0711    1.5613    2.6540 C   0  0  0  0  0  0  0  0  0  0  0  0
    6.5856    1.3747    2.7849 C   0  0  0  0  0  0  0  0  0  0  0  0
    7.1768    0.5422    2.1124 O   0  0  0  0  0  0  0  0  0  0  0  0
    7.2512    2.1771    3.6866 N   0  0  0  0  0  0  0  0  0  0  0  0
    8.6968    2.0343    3.8400 C   0  0  0  0  0  0  0  0  0  0  0  0
    9.4103    3.3720    3.6128 C   0  0  0  0  0  0  0  0  0  0  0  0
    8.8494    4.5075    4.4910 C   0  0  2  0  0  0  0  0  0  0  0  0
    9.2873    4.4165    5.9698 C   0  0  0  0  0  0  0  0  0  0  0  0
   10.7254    4.4863    6.1673 N   0  0  0  0  0  0  0  0  0  0  0  0
   11.3869    5.6842    6.2172 C   0  0  0  0  0  0  0  0  0  0  0  0
   12.8909    5.5994    6.4272 C   0  0  0  0  0  0  0  0  0  0  0  0
   10.8085    6.7515    6.1009 O   0  0  0  0  0  0  0  0  0  0  0  0
    7.3146    4.5542    4.3566 C   0  0  0  0  0  0  0  0  0  0  0  0
    6.6515    3.1824    4.5549 C   0  0  0  0  0  0  0  0  0  0  0  0
    0.8763   -0.2608   -1.3071 H   0  0  0  0  0  0  0  0  0  0  0  0
    0.8463    1.3280   -0.5111 H   0  0  0  0  0  0  0  0  0  0  0  0
    0.3535   -0.1272    0.3820 H   0  0  0  0  0  0  0  0  0  0  0  0
    3.1937    0.3459   -0.7447 H   0  0  0  0  0  0  0  0  0  0  0  0
    2.7157   -1.0173    0.2517 H   0  0  0  0  0  0  0  0  0  0  0  0
    2.8034    1.9270    1.0920 H   0  0  0  0  0  0  0  0  0  0  0  0
    1.0305    0.8393    2.3538 H   0  0  0  0  0  0  0  0  0  0  0  0
    2.3784    1.2539    3.3916 H   0  0  0  0  0  0  0  0  0  0  0  0
    3.1278   -1.1556    3.3637 H   0  0  0  0  0  0  0  0  0  0  0  0
    1.7641   -1.5530    2.3122 H   0  0  0  0  0  0  0  0  0  0  0  0
    1.4536   -0.4201    5.0075 H   0  0  0  0  0  0  0  0  0  0  0  0
    1.1293   -1.9522    4.5592 H   0  0  0  0  0  0  0  0  0  0  0  0
    5.0053    0.8473    0.6331 H   0  0  0  0  0  0  0  0  0  0  0  0
    4.6881   -0.3907    1.8207 H   0  0  0  0  0  0  0  0  0  0  0  0
    4.6092    1.3650    3.6370 H   0  0  0  0  0  0  0  0  0  0  0  0
    4.8494    2.6193    2.4265 H   0  0  0  0  0  0  0  0  0  0  0  0
    9.0280    1.2758    3.1206 H   0  0  0  0  0  0  0  0  0  0  0  0
    8.9148    1.6451    4.8545 H   0  0  0  0  0  0  0  0  0  0  0  0
    9.2970    3.6502    2.5514 H   0  0  0  0  0  0  0  0  0  0  0  0
   10.4922    3.2517    3.7895 H   0  0  0  0  0  0  0  0  0  0  0  0
    9.2512    5.4660    4.1248 H   0  0  0  0  0  0  0  0  0  0  0  0
    8.9258    3.4897    6.4429 H   0  0  0  0  0  0  0  0  0  0  0  0
    8.8394    5.2622    6.5141 H   0  0  0  0  0  0  0  0  0  0  0  0
   11.2533    3.6289    6.2632 H   0  0  0  0  0  0  0  0  0  0  0  0
   13.2704    4.5751    6.5574 H   0  0  0  0  0  0  0  0  0  0  0  0
   13.1558    6.1985    7.3113 H   0  0  0  0  0  0  0  0  0  0  0  0
   13.3933    6.0613    5.5635 H   0  0  0  0  0  0  0  0  0  0  0  0
    7.0572    4.9184    3.3474 H   0  0  0  0  0  0  0  0  0  0  0  0
    6.8865    5.2755    5.0735 H   0  0  0  0  0  0  0  0  0  0  0  0
    5.5759    3.2580    4.3610 H   0  0  0  0  0  0  0  0  0  0  0  0
    6.7551    2.8583    5.6097 H   0  0  0  0  0  0  0  0  0  0  0  0
  1  2  1  0
  1 22  1  0
  1 23  1  0
  1 24  1  0
  2  3  1  0
  2 25  1  0
  2 26  1  0
  3  4  1  0
  3  7  1  0
  3 27  1  6
  4  5  1  0
  4 28  1  0
  4 29  1  0
  5  6  1  0
  5 30  1  0
  5 31  1  0
  6 32  1  0
  6 33  1  0
  7  8  1  0
  7 34  1  0
  7 35  1  0
  8  9  1  0
  8 36  1  0
  8 37  1  0
  9 10  2  0
  9 11  1  0
 11 12  1  0
 11 21  1  0
 12 13  1  0
 12 38  1  0
 12 39  1  0
 13 14  1  0
 13 40  1  0
 13 41  1  0
 14 15  1  0
 14 20  1  0
 14 42  1  6
 15 16  1  0
 15 43  1  0
 15 44  1  0
 16 17  1  0
 16 45  1  0
 17 18  1  0
 17 19  2  0
 18 46  1  0
 18 47  1  0
 18 48  1  0
 20 21  1  0
 20 49  1  0
 20 50  1  0
 21 51  1  0
 21 52  1  0
M  END

