
     RDKit          3D

 62 65  0  0  0  0  0  0  0  0999 V2000
    1.7297   -0.4993   -2.2264 C   0  0  0  0  0  0  0  0  0  0  0  0
    2.9451   -0.3056   -1.4470 C   0  0  0  0  0  0  0  0  0  0  0  0
    3.9589   -0.1568   -0.7932 C   0  0  0  0  0  0  0  0  0  0  0  0
    5.1561    0.0168   -0.0243 C   0  0  0  0  0  0  0  0  0  0  0  0
    5.7099   -0.9499    0.6406 N   0  0  0  0  0  0  0  0  0  0  0  0
    5.0493   -2.1345    0.5354 O   0  0  0  0  0  0  0  0  0  0  0  0
    5.7064   -3.1532    1.2824 C   0  0  0  0  0  0  0  0  0  0  0  0
    4.8907   -4.4283    1.1309 C   0  0  0  0  0  0  0  0  0  0  0  0
    5.5077   -5.5083    1.8762 N   0  0  0  0  0  0  0  0  0  0  0  0
    4.8960   -6.8074    1.6681 C   0  0  0  0  0  0  0  0  0  0  0  0
    5.8151    1.3513    0.0343 C   0  0  0  0  0  0  0  0  0  0  0  0
    5.2522    2.4678   -0.6395 C   0  0  0  0  0  0  0  0  0  0  0  0
    5.8530    3.7080   -0.5859 C   0  0  0  0  0  0  0  0  0  0  0  0
    7.0532    3.9052    0.1430 C   0  0  0  0  0  0  0  0  0  0  0  0
    7.6211    5.1465    0.1783 N   0  0  0  0  0  0  0  0  0  0  0  0
    8.7270    5.2551    0.8710 C   0  0  0  0  0  0  0  0  0  0  0  0
    9.3762    4.2838    1.5530 N   0  0  0  0  0  0  0  0  0  0  0  0
    8.8599    3.0667    1.5417 C   0  0  0  0  0  0  0  0  0  0  0  0
    9.4787    2.0448    2.2104 N   0  0  0  0  0  0  0  0  0  0  0  0
   10.6496    2.0089    2.9859 C   0  0  0  0  0  0  0  0  0  0  0  0
   11.4622    3.1239    3.2618 C   0  0  0  0  0  0  0  0  0  0  0  0
   12.6018    2.9659    4.0505 C   0  0  0  0  0  0  0  0  0  0  0  0
   12.9712    1.7282    4.5871 C   0  0  0  0  0  0  0  0  0  0  0  0
   14.0632    1.6252    5.4004 O   0  0  0  0  0  0  0  0  0  0  0  0
   15.2757    1.1889    4.7889 C   0  0  0  0  0  0  0  0  0  0  0  0
   16.3098    0.9129    5.8526 C   0  0  0  0  0  0  0  0  0  0  0  0
   17.6701    1.1372    5.5960 C   0  0  0  0  0  0  0  0  0  0  0  0
   18.6319    0.8284    6.5625 C   0  0  0  0  0  0  0  0  0  0  0  0
   18.2508    0.3039    7.7998 C   0  0  0  0  0  0  0  0  0  0  0  0
   16.8938    0.0951    8.0404 C   0  0  0  0  0  0  0  0  0  0  0  0
   16.5147   -0.4049    9.2269 F   0  0  0  0  0  0  0  0  0  0  0  0
   15.9191    0.3859    7.0908 C   0  0  0  0  0  0  0  0  0  0  0  0
   12.1507    0.6207    4.3064 C   0  0  0  0  0  0  0  0  0  0  0  0
   12.5521   -0.9464    4.9699 Cl  0  0  0  0  0  0  0  0  0  0  0  0
   11.0089    0.7566    3.5213 C   0  0  0  0  0  0  0  0  0  0  0  0
    7.6291    2.7867    0.8206 C   0  0  0  0  0  0  0  0  0  0  0  0
    6.9946    1.5291    0.7528 C   0  0  0  0  0  0  0  0  0  0  0  0
    0.9067    0.1250   -1.8405 H   0  0  0  0  0  0  0  0  0  0  0  0
    1.4011   -1.5507   -2.1925 H   0  0  0  0  0  0  0  0  0  0  0  0
    1.8871   -0.2273   -3.2833 H   0  0  0  0  0  0  0  0  0  0  0  0
    5.7727   -2.8483    2.3435 H   0  0  0  0  0  0  0  0  0  0  0  0
    6.7321   -3.3056    0.9067 H   0  0  0  0  0  0  0  0  0  0  0  0
    4.8658   -4.7042    0.0624 H   0  0  0  0  0  0  0  0  0  0  0  0
    3.8354   -4.2194    1.4198 H   0  0  0  0  0  0  0  0  0  0  0  0
    5.5132   -5.2849    2.8710 H   0  0  0  0  0  0  0  0  0  0  0  0
    5.0311   -7.1227    0.6196 H   0  0  0  0  0  0  0  0  0  0  0  0
    3.8041   -6.8446    1.8827 H   0  0  0  0  0  0  0  0  0  0  0  0
    5.3904   -7.5599    2.3021 H   0  0  0  0  0  0  0  0  0  0  0  0
    4.3283    2.3323   -1.2047 H   0  0  0  0  0  0  0  0  0  0  0  0
    5.4278    4.5729   -1.0983 H   0  0  0  0  0  0  0  0  0  0  0  0
    9.1962    6.2463    0.9124 H   0  0  0  0  0  0  0  0  0  0  0  0
    9.0149    1.1493    2.1339 H   0  0  0  0  0  0  0  0  0  0  0  0
   11.1871    4.0927    2.8547 H   0  0  0  0  0  0  0  0  0  0  0  0
   13.2326    3.8281    4.2796 H   0  0  0  0  0  0  0  0  0  0  0  0
   15.6440    1.9577    4.0847 H   0  0  0  0  0  0  0  0  0  0  0  0
   15.0859    0.2690    4.2039 H   0  0  0  0  0  0  0  0  0  0  0  0
   17.9801    1.5597    4.6365 H   0  0  0  0  0  0  0  0  0  0  0  0
   19.6899    1.0069    6.3550 H   0  0  0  0  0  0  0  0  0  0  0  0
   18.9789    0.0613    8.5762 H   0  0  0  0  0  0  0  0  0  0  0  0
   14.8667    0.2112    7.3157 H   0  0  0  0  0  0  0  0  0  0  0  0
   10.3946   -0.1269    3.3325 H   0  0  0  0  0  0  0  0  0  0  0  0
    7.3994    0.6509    1.2594 H   0  0  0  0  0  0  0  0  0  0  0  0
  1  2  1  0
  1 38  1  0
  1 39  1  0
  1 40  1  0
  2  3  3  0
  3  4  1  0
  4  5  2  0
  4 11  1  0
  5  6  1  0
  6  7  1  0
  7  8  1  0
  7 41  1  0
  7 42  1  0
  8  9  1  0
  8 43  1  0
  8 44  1  0
  9 10  1  0
  9 45  1  0
 10 46  1  0
 10 47  1  0
 10 48  1  0
 11 12  2  0
 11 37  1  0
 12 13  1  0
 12 49  1  0
 13 14  2  0
 13 50  1  0
 14 15  1  0
 14 36  1  0
 15 16  2  0
 16 17  1  0
 16 51  1  0
 17 18  2  0
 18 19  1  0
 18 36  1  0
 19 20  1  0
 19 52  1  0
 20 21  2  0
 20 35  1  0
 21 22  1  0
 21 53  1  0
 22 23  2  0
 22 54  1  0
 23 24  1  0
 23 33  1  0
 24 25  1  0
 25 26  1  0
 25 55  1  0
 25 56  1  0
 26 27  2  0
 26 32  1  0
 27 28  1  0
 27 57  1  0
 28 29  2  0
 28 58  1  0
 29 30  1  0
 29 59  1  0
 30 31  1  0
 30 32  2  0
 32 60  1  0
 33 34  1  0
 33 35  2  0
 35 61  1  0
 36 37  2  0
 37 62  1  0
M  END

