
     RDKit          3D

 50 53  0  0  0  0  0  0  0  0999 V2000
    4.1756    1.3589   -0.0299 C   0  0  0  0  0  0  0  0  0  0  0  0
    3.8742   -0.0178   -0.6210 C   0  0  0  0  0  0  0  0  0  0  0  0
    2.8583   -0.7504    0.1332 N   0  0  0  0  0  0  0  0  0  0  0  0
    2.1209   -1.7628   -0.6081 C   0  0  0  0  0  0  0  0  0  0  0  0
    2.8735   -3.0937   -0.7561 C   0  0  0  0  0  0  0  0  0  0  0  0
    3.3195   -3.5954    0.5499 N   0  0  0  0  0  0  0  0  0  0  0  0
    3.3302   -4.9274    0.8347 C   0  0  0  0  0  0  0  0  0  0  0  0
    2.5282   -5.9554    0.3783 C   0  0  0  0  0  0  0  0  0  0  0  0
    1.2476   -5.9436   -0.3498 C   0  0  0  0  0  0  0  0  0  0  0  0
    0.9420   -6.9404   -1.2990 C   0  0  0  0  0  0  0  0  0  0  0  0
   -0.2877   -6.9591   -1.9575 C   0  0  0  0  0  0  0  0  0  0  0  0
   -1.2415   -5.9791   -1.6701 C   0  0  0  0  0  0  0  0  0  0  0  0
   -2.7824   -5.9945   -2.4969 Cl  0  0  0  0  0  0  0  0  0  0  0  0
   -0.9750   -4.9878   -0.7206 C   0  0  0  0  0  0  0  0  0  0  0  0
    0.2577   -4.9793   -0.0694 C   0  0  0  0  0  0  0  0  0  0  0  0
    3.0785   -7.2320    0.8933 C   0  0  0  0  0  0  0  0  0  0  0  0
    2.6904   -8.3622    0.7154 O   0  0  0  0  0  0  0  0  0  0  0  0
    4.1988   -6.9074    1.7083 N   0  0  0  0  0  0  0  0  0  0  0  0
    5.0415   -7.8642    2.3344 C   0  0  0  0  0  0  0  0  0  0  0  0
    4.8243   -8.2320    3.6669 C   0  0  0  0  0  0  0  0  0  0  0  0
    5.6451   -9.1725    4.2904 C   0  0  0  0  0  0  0  0  0  0  0  0
    6.6945   -9.7581    3.5769 C   0  0  0  0  0  0  0  0  0  0  0  0
    6.9258   -9.4039    2.2462 C   0  0  0  0  0  0  0  0  0  0  0  0
    6.1027   -8.4588    1.6290 C   0  0  0  0  0  0  0  0  0  0  0  0
    6.4048   -8.0129   -0.0303 Cl  0  0  0  0  0  0  0  0  0  0  0  0
    4.4300   -5.5403    1.7029 C   0  0  0  0  0  0  0  0  0  0  0  0
    5.3439   -4.9799    2.2630 O   0  0  0  0  0  0  0  0  0  0  0  0
    4.0809   -2.6015    1.3193 C   0  0  0  0  0  0  0  0  0  0  0  0
    3.2826   -1.2899    1.4183 C   0  0  0  0  0  0  0  0  0  0  0  0
    4.8879    1.9034   -0.6701 H   0  0  0  0  0  0  0  0  0  0  0  0
    4.6264    1.2921    0.9731 H   0  0  0  0  0  0  0  0  0  0  0  0
    3.2519    1.9521    0.0540 H   0  0  0  0  0  0  0  0  0  0  0  0
    4.8264   -0.5821   -0.7358 H   0  0  0  0  0  0  0  0  0  0  0  0
    3.4829    0.1171   -1.6428 H   0  0  0  0  0  0  0  0  0  0  0  0
    1.8642   -1.3763   -1.6070 H   0  0  0  0  0  0  0  0  0  0  0  0
    1.1688   -1.9562   -0.0820 H   0  0  0  0  0  0  0  0  0  0  0  0
    3.7689   -2.9496   -1.3932 H   0  0  0  0  0  0  0  0  0  0  0  0
    2.2411   -3.8388   -1.2493 H   0  0  0  0  0  0  0  0  0  0  0  0
    1.6761   -7.7162   -1.5171 H   0  0  0  0  0  0  0  0  0  0  0  0
   -0.5106   -7.7329   -2.6941 H   0  0  0  0  0  0  0  0  0  0  0  0
   -1.7335   -4.2379   -0.4895 H   0  0  0  0  0  0  0  0  0  0  0  0
    0.4511   -4.2164    0.6879 H   0  0  0  0  0  0  0  0  0  0  0  0
    3.9963   -7.7677    4.2061 H   0  0  0  0  0  0  0  0  0  0  0  0
    5.4632   -9.4497    5.3310 H   0  0  0  0  0  0  0  0  0  0  0  0
    7.3409  -10.4975    4.0558 H   0  0  0  0  0  0  0  0  0  0  0  0
    7.7419   -9.8523    1.6776 H   0  0  0  0  0  0  0  0  0  0  0  0
    5.0610   -2.4248    0.8365 H   0  0  0  0  0  0  0  0  0  0  0  0
    4.2923   -2.9912    2.3192 H   0  0  0  0  0  0  0  0  0  0  0  0
    3.8881   -0.5456    1.9570 H   0  0  0  0  0  0  0  0  0  0  0  0
    2.3832   -1.4757    2.0334 H   0  0  0  0  0  0  0  0  0  0  0  0
  1  2  1  0
  1 30  1  0
  1 31  1  0
  1 32  1  0
  2  3  1  0
  2 33  1  0
  2 34  1  0
  3  4  1  0
  3 29  1  0
  4  5  1  0
  4 35  1  0
  4 36  1  0
  5  6  1  0
  5 37  1  0
  5 38  1  0
  6  7  1  0
  6 28  1  0
  7  8  2  0
  7 26  1  0
  8  9  1  0
  8 16  1  0
  9 10  2  0
  9 15  1  0
 10 11  1  0
 10 39  1  0
 11 12  2  0
 11 40  1  0
 12 13  1  0
 12 14  1  0
 14 15  2  0
 14 41  1  0
 15 42  1  0
 16 17  2  0
 16 18  1  0
 18 19  1  0
 18 26  1  0
 19 20  2  0
 19 24  1  0
 20 21  1  0
 20 43  1  0
 21 22  2  0
 21 44  1  0
 22 23  1  0
 22 45  1  0
 23 24  2  0
 23 46  1  0
 24 25  1  0
 26 27  2  0
 28 29  1  0
 28 47  1  0
 28 48  1  0
 29 49  1  0
 29 50  1  0
M  END

