
     RDKit          3D

 37 38  0  0  0  0  0  0  0  0999 V2000
    1.1873    0.2230   -0.6109 C   0  0  0  0  0  0  0  0  0  0  0  0
    2.4722    0.0514   -0.0213 O   0  0  0  0  0  0  0  0  0  0  0  0
    2.8779    0.7990    1.0048 C   0  0  0  0  0  0  0  0  0  0  0  0
    2.0569    1.8207    1.5622 C   0  0  0  0  0  0  0  0  0  0  0  0
    2.4382    2.5632    2.6965 C   0  0  0  0  0  0  0  0  0  0  0  0
    1.4738    3.5501    3.2244 C   0  0  0  0  0  0  0  0  0  0  0  0
    0.3625    3.7388    2.6707 O   0  0  0  0  0  0  0  0  0  0  0  0
    1.8468    4.2197    4.4318 N   0  0  0  0  0  0  0  0  0  0  0  0
    2.7298    5.6894    4.3549 S   0  0  1  0  0  0  0  0  0  0  0  0
    2.7822    6.2193    5.7161 O   0  0  0  0  0  0  0  0  0  0  0  0
    3.9553    5.3968    3.5986 O   0  0  0  0  0  0  0  0  0  0  0  0
    1.7777    6.8313    3.3341 C   0  0  0  0  0  0  0  0  0  0  0  0
    2.3419    7.3733    2.1761 C   0  0  0  0  0  0  0  0  0  0  0  0
    1.6145    8.2625    1.3837 C   0  0  0  0  0  0  0  0  0  0  0  0
    0.3158    8.5919    1.7691 C   0  0  0  0  0  0  0  0  0  0  0  0
   -0.3922    9.4413    1.0181 F   0  0  0  0  0  0  0  0  0  0  0  0
   -0.2787    8.0604    2.9137 C   0  0  0  0  0  0  0  0  0  0  0  0
    0.4688    7.1782    3.6845 C   0  0  0  0  0  0  0  0  0  0  0  0
   -0.0879    6.6426    4.7745 F   0  0  0  0  0  0  0  0  0  0  0  0
    3.7145    2.3077    3.1943 C   0  0  0  0  0  0  0  0  0  0  0  0
    4.5800    1.3068    2.6284 C   0  0  0  0  0  0  0  0  0  0  0  0
    5.7530    1.2737    3.2582 O   0  0  0  0  0  0  0  0  0  0  0  0
    6.9751    0.7336    2.7608 C   0  0  0  0  0  0  0  0  0  0  0  0
    4.1607    0.5206    1.5316 C   0  0  0  0  0  0  0  0  0  0  0  0
    5.0759   -1.0063    0.8581 Br  0  0  0  0  0  0  0  0  0  0  0  0
    1.1252   -0.5264   -1.4089 H   0  0  0  0  0  0  0  0  0  0  0  0
    1.0790    1.2303   -1.0428 H   0  0  0  0  0  0  0  0  0  0  0  0
    0.3861    0.0475    0.1238 H   0  0  0  0  0  0  0  0  0  0  0  0
    1.0875    2.0651    1.1268 H   0  0  0  0  0  0  0  0  0  0  0  0
    1.0331    4.4037    5.0252 H   0  0  0  0  0  0  0  0  0  0  0  0
    3.3608    7.0842    1.9130 H   0  0  0  0  0  0  0  0  0  0  0  0
    2.0350    8.7016    0.4778 H   0  0  0  0  0  0  0  0  0  0  0  0
   -1.2998    8.3206    3.1937 H   0  0  0  0  0  0  0  0  0  0  0  0
    4.1363    2.9176    3.9921 H   0  0  0  0  0  0  0  0  0  0  0  0
    7.7626    1.2112    3.3580 H   0  0  0  0  0  0  0  0  0  0  0  0
    7.1085    0.9708    1.6960 H   0  0  0  0  0  0  0  0  0  0  0  0
    7.0098   -0.3560    2.9010 H   0  0  0  0  0  0  0  0  0  0  0  0
  1  2  1  0
  1 26  1  0
  1 27  1  0
  1 28  1  0
  2  3  1  0
  3  4  2  0
  3 24  1  0
  4  5  1  0
  4 29  1  0
  5  6  1  0
  5 20  2  0
  6  7  2  0
  6  8  1  0
  9  8  1  6
  8 30  1  0
  9 10  2  0
  9 11  2  0
  9 12  1  0
 12 13  2  0
 12 18  1  0
 13 14  1  0
 13 31  1  0
 14 15  2  0
 14 32  1  0
 15 16  1  0
 15 17  1  0
 17 18  2  0
 17 33  1  0
 18 19  1  0
 20 21  1  0
 20 34  1  0
 21 22  1  0
 21 24  2  0
 22 23  1  0
 23 35  1  0
 23 36  1  0
 23 37  1  0
 24 25  1  0
M  END

