
     RDKit          3D

 48 49  0  0  0  0  0  0  0  0999 V2000
    1.0691    0.4404   -0.8690 C   0  0  0  0  0  0  0  0  0  0  0  0
    2.4716   -0.0181   -0.4696 C   0  0  0  0  0  0  0  0  0  0  0  0
    2.9100    0.4992    0.9004 C   0  0  0  0  0  0  0  0  0  0  0  0
    4.2440    0.0383    1.2515 N   0  0  0  0  0  0  0  0  0  0  0  0
    4.7689    0.5220    2.5340 C   0  0  1  0  0  0  0  0  0  0  0  0
    4.2310   -0.3198    3.7259 C   0  0  0  0  0  0  0  0  0  0  0  0
    4.8100   -1.7088    3.8886 C   0  0  0  0  0  0  0  0  0  0  0  0
    4.6076   -2.6870    2.8948 C   0  0  0  0  0  0  0  0  0  0  0  0
    5.1164   -3.9804    3.0138 C   0  0  0  0  0  0  0  0  0  0  0  0
    5.8474   -4.3418    4.1490 C   0  0  0  0  0  0  0  0  0  0  0  0
    6.0650   -3.4010    5.1550 C   0  0  0  0  0  0  0  0  0  0  0  0
    5.5521   -2.1063    5.0167 C   0  0  0  0  0  0  0  0  0  0  0  0
    5.8706   -0.9829    6.3402 Cl  0  0  0  0  0  0  0  0  0  0  0  0
    6.2868    0.5397    2.4768 C   0  0  1  0  0  0  0  0  0  0  0  0
    7.0965    1.6323    1.7841 C   0  0  1  0  0  0  0  0  0  0  0  0
    8.2666    1.2081    0.9054 C   0  0  0  0  0  0  0  0  0  0  0  0
    6.4068    2.8662    1.2149 C   0  0  0  0  0  0  0  0  0  0  0  0
    7.1829    1.4487    3.3036 C   0  0  1  0  0  0  0  0  0  0  0  0
    6.5862    2.5029    4.2283 C   0  0  0  0  0  0  0  0  0  0  0  0
    8.4373    0.8396    3.9186 C   0  0  0  0  0  0  0  0  0  0  0  0
    0.7880    0.0540   -1.8612 H   0  0  0  0  0  0  0  0  0  0  0  0
    0.9996    1.5404   -0.9091 H   0  0  0  0  0  0  0  0  0  0  0  0
    0.3113    0.0883   -0.1492 H   0  0  0  0  0  0  0  0  0  0  0  0
    3.2006    0.3200   -1.2297 H   0  0  0  0  0  0  0  0  0  0  0  0
    2.5272   -1.1202   -0.4659 H   0  0  0  0  0  0  0  0  0  0  0  0
    2.1962    0.1406    1.6640 H   0  0  0  0  0  0  0  0  0  0  0  0
    2.8283    1.6118    0.9159 H   0  0  0  0  0  0  0  0  0  0  0  0
    4.8967    0.2821    0.5089 H   0  0  0  0  0  0  0  0  0  0  0  0
    4.4020    1.5519    2.7202 H   0  0  0  0  0  0  0  0  0  0  0  0
    3.1373   -0.4068    3.6099 H   0  0  0  0  0  0  0  0  0  0  0  0
    4.3951    0.2524    4.6477 H   0  0  0  0  0  0  0  0  0  0  0  0
    4.0552   -2.3927    2.0011 H   0  0  0  0  0  0  0  0  0  0  0  0
    4.9392   -4.7088    2.2185 H   0  0  0  0  0  0  0  0  0  0  0  0
    6.2470   -5.3533    4.2569 H   0  0  0  0  0  0  0  0  0  0  0  0
    6.6301   -3.6578    6.0524 H   0  0  0  0  0  0  0  0  0  0  0  0
    6.6913   -0.4692    2.3313 H   0  0  0  0  0  0  0  0  0  0  0  0
    7.9309    1.0568   -0.1352 H   0  0  0  0  0  0  0  0  0  0  0  0
    8.7320    0.2699    1.2356 H   0  0  0  0  0  0  0  0  0  0  0  0
    9.0516    1.9840    0.8856 H   0  0  0  0  0  0  0  0  0  0  0  0
    6.1063    2.6940    0.1669 H   0  0  0  0  0  0  0  0  0  0  0  0
    7.0959    3.7281    1.2146 H   0  0  0  0  0  0  0  0  0  0  0  0
    5.5072    3.1670    1.7664 H   0  0  0  0  0  0  0  0  0  0  0  0
    5.6561    2.9506    3.8557 H   0  0  0  0  0  0  0  0  0  0  0  0
    7.3057    3.3245    4.3874 H   0  0  0  0  0  0  0  0  0  0  0  0
    6.3692    2.0612    5.2145 H   0  0  0  0  0  0  0  0  0  0  0  0
    8.8515    0.0172    3.3202 H   0  0  0  0  0  0  0  0  0  0  0  0
    8.2081    0.4320    4.9165 H   0  0  0  0  0  0  0  0  0  0  0  0
    9.2280    1.6003    4.0400 H   0  0  0  0  0  0  0  0  0  0  0  0
  1  2  1  0
  1 21  1  0
  1 22  1  0
  1 23  1  0
  2  3  1  0
  2 24  1  0
  2 25  1  0
  3  4  1  0
  3 26  1  0
  3 27  1  0
  4  5  1  0
  4 28  1  0
  5  6  1  0
  5 14  1  0
  5 29  1  1
  6  7  1  0
  6 30  1  0
  6 31  1  0
  7  8  2  0
  7 12  1  0
  8  9  1  0
  8 32  1  0
  9 10  2  0
  9 33  1  0
 10 11  1  0
 10 34  1  0
 11 12  2  0
 11 35  1  0
 12 13  1  0
 14 15  1  0
 14 18  1  0
 14 36  1  6
 15 16  1  6
 15 17  1  0
 15 18  1  0
 16 37  1  0
 16 38  1  0
 16 39  1  0
 17 40  1  0
 17 41  1  0
 17 42  1  0
 18 19  1  1
 18 20  1  0
 19 43  1  0
 19 44  1  0
 19 45  1  0
 20 46  1  0
 20 47  1  0
 20 48  1  0
M  END

