
     RDKit          3D

 45 49  0  0  0  0  0  0  0  0999 V2000
    2.4731    0.8815    0.6567 C   0  0  0  0  0  0  0  0  0  0  0  0
    3.3919    0.0316   -0.2118 C   0  0  1  0  0  0  0  0  0  0  0  0
    3.8492    0.6952   -1.5801 C   0  0  0  0  0  0  0  0  0  0  0  0
    5.3026    0.8071   -1.0643 C   0  0  1  0  0  0  0  0  0  0  0  0
    6.0659    0.3382   -1.7016 H   0  0  0  0  0  0  0  0  0  0  0  0
    5.7421    2.2265   -0.6673 C   0  0  0  0  0  0  0  0  0  0  0  0
    6.6131    2.2199    0.4862 N   0  0  0  0  0  0  0  0  0  0  0  0
    7.2052    3.5814    0.7086 C   0  0  0  0  0  0  0  0  0  0  0  0
    6.3849    4.5112    0.8898 O   0  0  0  0  0  0  0  0  0  0  0  0
    8.6241    3.6641    0.6967 C   0  0  0  0  0  0  0  0  0  0  0  0
    9.5109    2.5525    0.4749 C   0  0  0  0  0  0  0  0  0  0  0  0
   10.8858    2.7169    0.4786 C   0  0  0  0  0  0  0  0  0  0  0  0
   11.4772    3.9795    0.7005 C   0  0  0  0  0  0  0  0  0  0  0  0
   10.6235    5.0842    0.9199 C   0  0  0  0  0  0  0  0  0  0  0  0
    9.2483    4.9447    0.9199 C   0  0  0  0  0  0  0  0  0  0  0  0
    5.8655    1.7891    1.6522 C   0  0  0  0  0  0  0  0  0  0  0  0
    5.5007    0.3064    1.5384 C   0  0  0  0  0  0  0  0  0  0  0  0
    4.9250   -0.0826    0.1720 C   0  0  1  0  0  0  0  0  0  0  0  0
    5.1892   -1.5096   -0.0867 N   0  0  0  0  0  0  0  0  0  0  0  0
    4.1123   -2.2364   -0.3716 C   0  0  0  0  0  0  0  0  0  0  0  0
    4.1341   -3.5661   -0.5810 N   0  0  0  0  0  0  0  0  0  0  0  0
    2.9565   -4.1084   -0.8249 C   0  0  0  0  0  0  0  0  0  0  0  0
    1.7336   -3.3744   -0.8729 C   0  0  0  0  0  0  0  0  0  0  0  0
    1.7314   -1.9873   -0.6700 C   0  0  0  0  0  0  0  0  0  0  0  0
    2.9523   -1.3835   -0.4148 C   0  0  0  0  0  0  0  0  0  0  0  0
    2.8901    1.8860    0.7986 H   0  0  0  0  0  0  0  0  0  0  0  0
    2.3212    0.4303    1.6491 H   0  0  0  0  0  0  0  0  0  0  0  0
    1.4886    0.9929    0.1743 H   0  0  0  0  0  0  0  0  0  0  0  0
    3.3502    1.6545   -1.7735 H   0  0  0  0  0  0  0  0  0  0  0  0
    3.7077    0.0427   -2.4532 H   0  0  0  0  0  0  0  0  0  0  0  0
    4.8492    2.8678   -0.4922 H   0  0  0  0  0  0  0  0  0  0  0  0
    6.2718    2.6746   -1.5210 H   0  0  0  0  0  0  0  0  0  0  0  0
    9.0766    1.5678    0.2995 H   0  0  0  0  0  0  0  0  0  0  0  0
   11.5272    1.8461    0.3049 H   0  0  0  0  0  0  0  0  0  0  0  0
   12.5623    4.0989    0.7023 H   0  0  0  0  0  0  0  0  0  0  0  0
   11.0593    6.0738    1.0940 H   0  0  0  0  0  0  0  0  0  0  0  0
    8.5938    5.8012    1.0899 H   0  0  0  0  0  0  0  0  0  0  0  0
    4.9616    2.4160    1.8164 H   0  0  0  0  0  0  0  0  0  0  0  0
    6.4910    1.9181    2.5471 H   0  0  0  0  0  0  0  0  0  0  0  0
    4.8087   -0.0097    2.3383 H   0  0  0  0  0  0  0  0  0  0  0  0
    6.4303   -0.2710    1.6752 H   0  0  0  0  0  0  0  0  0  0  0  0
    6.1186   -1.9233   -0.0268 H   0  0  0  0  0  0  0  0  0  0  0  0
    2.9370   -5.1892   -0.9965 H   0  0  0  0  0  0  0  0  0  0  0  0
    0.8046   -3.9101   -1.0721 H   0  0  0  0  0  0  0  0  0  0  0  0
    0.8041   -1.4142   -0.7125 H   0  0  0  0  0  0  0  0  0  0  0  0
  2  1  1  1
  1 26  1  0
  1 27  1  0
  1 28  1  0
  2  3  1  0
  2 18  1  0
  2 25  1  0
  3  4  1  0
  3 29  1  0
  3 30  1  0
  4  5  1  6
  4  6  1  0
  4 18  1  0
  6  7  1  0
  6 31  1  0
  6 32  1  0
  7  8  1  0
  7 16  1  0
  8  9  2  0
  8 10  1  0
 10 11  2  0
 10 15  1  0
 11 12  1  0
 11 33  1  0
 12 13  2  0
 12 34  1  0
 13 14  1  0
 13 35  1  0
 14 15  2  0
 14 36  1  0
 15 37  1  0
 16 17  1  0
 16 38  1  0
 16 39  1  0
 17 18  1  0
 17 40  1  0
 17 41  1  0
 18 19  1  6
 19 20  1  0
 19 42  1  0
 20 21  1  0
 20 25  2  0
 21 22  2  0
 22 23  1  0
 22 43  1  0
 23 24  2  0
 23 44  1  0
 24 25  1  0
 24 45  1  0
M  END

