
     RDKit          3D

 49 51  0  0  0  0  0  0  0  0999 V2000
    1.1290    1.4312   -2.2266 C   0  0  0  0  0  0  0  0  0  0  0  0
    2.5006    1.9928   -1.9134 C   0  0  0  0  0  0  0  0  0  0  0  0
    3.2703    0.9697   -1.2734 O   0  0  0  0  0  0  0  0  0  0  0  0
    4.5494    1.2317   -0.9205 C   0  0  0  0  0  0  0  0  0  0  0  0
    5.1837    2.4534   -1.1249 C   0  0  0  0  0  0  0  0  0  0  0  0
    6.5358    2.6824   -0.7634 C   0  0  0  0  0  0  0  0  0  0  0  0
    7.1864    3.9581   -0.9828 C   0  0  0  0  0  0  0  0  0  0  0  0
    6.7937    5.1211   -1.5779 C   0  0  0  0  0  0  0  0  0  0  0  0
    5.5480    5.5900   -2.2299 C   0  0  0  0  0  0  0  0  0  0  0  0
    4.4339    5.0968   -2.3139 O   0  0  0  0  0  0  0  0  0  0  0  0
    5.8501    6.8410   -2.7556 N   0  0  0  0  0  0  0  0  0  0  0  0
    7.1145    7.2833   -2.3226 N   0  0  0  0  0  0  0  0  0  0  0  0
    7.6824    8.4367   -2.9067 C   0  0  0  0  0  0  0  0  0  0  0  0
    8.8422    9.0118   -2.3528 C   0  0  0  0  0  0  0  0  0  0  0  0
    9.3800   10.1621   -2.9294 C   0  0  0  0  0  0  0  0  0  0  0  0
    8.7811   10.7598   -4.0436 C   0  0  0  0  0  0  0  0  0  0  0  0
    7.6312   10.1852   -4.5887 C   0  0  0  0  0  0  0  0  0  0  0  0
    7.0808    9.0283   -4.0317 C   0  0  0  0  0  0  0  0  0  0  0  0
    7.7638    6.2552   -1.6367 C   0  0  0  0  0  0  0  0  0  0  0  0
    8.9002    6.2920   -1.2081 O   0  0  0  0  0  0  0  0  0  0  0  0
    7.2385    1.6043   -0.1663 C   0  0  0  0  0  0  0  0  0  0  0  0
    9.0640    1.7361    0.3726 Br  0  0  0  0  0  0  0  0  0  0  0  0
    6.6089    0.3805    0.0558 C   0  0  0  0  0  0  0  0  0  0  0  0
    5.2763    0.1766   -0.3075 C   0  0  0  0  0  0  0  0  0  0  0  0
    4.7463   -1.0657   -0.1236 O   0  0  0  0  0  0  0  0  0  0  0  0
    3.4999   -1.2384    0.5923 C   0  0  1  0  0  0  0  0  0  0  0  0
    2.5376   -2.0643   -0.2489 C   0  0  0  0  0  0  0  0  0  0  0  0
    3.7920   -1.9396    1.9316 C   0  0  0  0  0  0  0  0  0  0  0  0
    2.9563   -2.0391    2.7875 O   0  0  0  0  0  0  0  0  0  0  0  0
    5.0203   -2.4607    2.0411 O   0  0  0  0  0  0  0  0  0  0  0  0
    0.5143    2.2032   -2.7144 H   0  0  0  0  0  0  0  0  0  0  0  0
    0.6130    1.1098   -1.3089 H   0  0  0  0  0  0  0  0  0  0  0  0
    1.2012    0.5684   -2.9065 H   0  0  0  0  0  0  0  0  0  0  0  0
    2.4304    2.8717   -1.2489 H   0  0  0  0  0  0  0  0  0  0  0  0
    3.0168    2.3203   -2.8324 H   0  0  0  0  0  0  0  0  0  0  0  0
    4.6426    3.2800   -1.5845 H   0  0  0  0  0  0  0  0  0  0  0  0
    8.2137    4.0213   -0.6063 H   0  0  0  0  0  0  0  0  0  0  0  0
    5.1108    7.5420   -2.7481 H   0  0  0  0  0  0  0  0  0  0  0  0
    9.3138    8.5446   -1.4910 H   0  0  0  0  0  0  0  0  0  0  0  0
   10.2819   10.5994   -2.4935 H   0  0  0  0  0  0  0  0  0  0  0  0
    9.2084   11.6642   -4.4827 H   0  0  0  0  0  0  0  0  0  0  0  0
    7.1547   10.6328   -5.4645 H   0  0  0  0  0  0  0  0  0  0  0  0
    6.2003    8.5749   -4.4880 H   0  0  0  0  0  0  0  0  0  0  0  0
    7.1532   -0.4403    0.5233 H   0  0  0  0  0  0  0  0  0  0  0  0
    3.0610   -0.2592    0.8251 H   0  0  0  0  0  0  0  0  0  0  0  0
    2.9888   -3.0347   -0.5074 H   0  0  0  0  0  0  0  0  0  0  0  0
    2.2970   -1.5229   -1.1731 H   0  0  0  0  0  0  0  0  0  0  0  0
    1.6166   -2.2463    0.3230 H   0  0  0  0  0  0  0  0  0  0  0  0
    5.4947   -2.2489    1.2156 H   0  0  0  0  0  0  0  0  0  0  0  0
  1  2  1  0
  1 31  1  0
  1 32  1  0
  1 33  1  0
  2  3  1  0
  2 34  1  0
  2 35  1  0
  3  4  1  0
  4  5  2  0
  4 24  1  0
  5  6  1  0
  5 36  1  0
  6  7  1  0
  6 21  2  0
  7  8  2  0
  7 37  1  0
  8  9  1  0
  8 19  1  0
  9 10  2  0
  9 11  1  0
 11 12  1  0
 11 38  1  0
 12 13  1  0
 12 19  1  0
 13 14  2  0
 13 18  1  0
 14 15  1  0
 14 39  1  0
 15 16  2  0
 15 40  1  0
 16 17  1  0
 16 41  1  0
 17 18  2  0
 17 42  1  0
 18 43  1  0
 19 20  2  0
 21 22  1  0
 21 23  1  0
 23 24  2  0
 23 44  1  0
 24 25  1  0
 25 26  1  0
 26 27  1  0
 26 28  1  0
 26 45  1  1
 27 46  1  0
 27 47  1  0
 27 48  1  0
 28 29  2  0
 28 30  1  0
 30 49  1  0
M  END

