
     RDKit          3D

 37 39  0  0  0  0  0  0  0  0999 V2000
    5.9285   -3.8247    2.1083 C   0  0  0  0  0  0  0  0  0  0  0  0
    4.7039   -3.2627    1.6966 O   0  0  0  0  0  0  0  0  0  0  0  0
    4.3314   -2.0364    2.1641 C   0  0  0  0  0  0  0  0  0  0  0  0
    5.1266   -1.2672    3.0238 C   0  0  0  0  0  0  0  0  0  0  0  0
    4.6750   -0.0172    3.4627 C   0  0  0  0  0  0  0  0  0  0  0  0
    3.4343    0.4610    3.0506 C   0  0  0  0  0  0  0  0  0  0  0  0
    2.6437   -0.3172    2.1948 C   0  0  0  0  0  0  0  0  0  0  0  0
    3.0634   -1.5691    1.7319 C   0  0  0  0  0  0  0  0  0  0  0  0
    2.2384   -2.4450    0.7961 C   0  0  2  0  0  0  0  0  0  0  0  0
    2.7547   -2.3797   -0.6659 C   0  0  0  0  0  0  0  0  0  0  0  0
    2.5415   -1.0058   -1.3149 C   0  0  0  0  0  0  0  0  0  0  0  0
    1.1434   -0.5088   -1.0746 C   0  0  0  0  0  0  0  0  0  0  0  0
    0.5976    0.5251   -1.7982 N   0  0  0  0  0  0  0  0  0  0  0  0
   -0.6093    0.8079   -1.4064 C   0  0  0  0  0  0  0  0  0  0  0  0
   -1.4791    1.8414   -2.0684 C   0  0  0  0  0  0  0  0  0  0  0  0
   -2.1181    1.2837   -3.2604 N   0  0  0  0  0  0  0  0  0  0  0  0
   -1.1875   -0.2029   -0.0908 S   0  0  0  0  0  0  0  0  0  0  0  0
    0.3388   -1.0394   -0.0935 C   0  0  0  0  0  0  0  0  0  0  0  0
    0.7163   -2.1655    0.8281 C   0  0  0  0  0  0  0  0  0  0  0  0
    6.0005   -4.8078    1.6235 H   0  0  0  0  0  0  0  0  0  0  0  0
    5.9708   -3.9620    3.2039 H   0  0  0  0  0  0  0  0  0  0  0  0
    6.7911   -3.2090    1.7953 H   0  0  0  0  0  0  0  0  0  0  0  0
    6.0981   -1.6325    3.3567 H   0  0  0  0  0  0  0  0  0  0  0  0
    5.3042    0.5761    4.1313 H   0  0  0  0  0  0  0  0  0  0  0  0
    3.0744    1.4353    3.3892 H   0  0  0  0  0  0  0  0  0  0  0  0
    1.6737    0.0700    1.8779 H   0  0  0  0  0  0  0  0  0  0  0  0
    2.3876   -3.4812    1.1355 H   0  0  0  0  0  0  0  0  0  0  0  0
    2.2143   -3.1442   -1.2520 H   0  0  0  0  0  0  0  0  0  0  0  0
    3.8185   -2.6568   -0.6896 H   0  0  0  0  0  0  0  0  0  0  0  0
    2.7320   -1.0519   -2.3996 H   0  0  0  0  0  0  0  0  0  0  0  0
    3.2629   -0.2716   -0.9111 H   0  0  0  0  0  0  0  0  0  0  0  0
   -0.8308    2.7216   -2.2600 H   0  0  0  0  0  0  0  0  0  0  0  0
   -2.2650    2.1661   -1.3672 H   0  0  0  0  0  0  0  0  0  0  0  0
   -1.3940    1.0118   -3.9273 H   0  0  0  0  0  0  0  0  0  0  0  0
   -2.6780    2.0021   -3.7211 H   0  0  0  0  0  0  0  0  0  0  0  0
    0.1857   -3.0840    0.5183 H   0  0  0  0  0  0  0  0  0  0  0  0
    0.3860   -1.9634    1.8604 H   0  0  0  0  0  0  0  0  0  0  0  0
  1  2  1  0
  1 20  1  0
  1 21  1  0
  1 22  1  0
  2  3  1  0
  3  4  2  0
  3  8  1  0
  4  5  1  0
  4 23  1  0
  5  6  2  0
  5 24  1  0
  6  7  1  0
  6 25  1  0
  7  8  2  0
  7 26  1  0
  8  9  1  0
  9 10  1  0
  9 19  1  0
  9 27  1  1
 10 11  1  0
 10 28  1  0
 10 29  1  0
 11 12  1  0
 11 30  1  0
 11 31  1  0
 12 13  1  0
 12 18  2  0
 13 14  2  0
 14 15  1  0
 14 17  1  0
 15 16  1  0
 15 32  1  0
 15 33  1  0
 16 34  1  0
 16 35  1  0
 17 18  1  0
 18 19  1  0
 19 36  1  0
 19 37  1  0
M  END

