
     RDKit          3D

 48 51  0  0  0  0  0  0  0  0999 V2000
    0.9512    0.5331    0.1532 C   0  0  0  0  0  0  0  0  0  0  0  0
    2.3825    0.2478   -0.2965 C   0  0  1  0  0  0  0  0  0  0  0  0
    2.4707    0.3026   -1.8271 C   0  0  0  0  0  0  0  0  0  0  0  0
    3.2452    1.2892    0.2146 O   0  0  0  0  0  0  0  0  0  0  0  0
    4.4503    0.7214    0.5598 B   0  0  0  0  0  0  0  0  0  0  0  0
    5.7034    1.5386    0.9562 C   0  0  0  0  0  0  0  0  0  0  0  0
    6.8974    0.8972    1.3444 C   0  0  0  0  0  0  0  0  0  0  0  0
    8.0454    1.6099    1.7029 C   0  0  0  0  0  0  0  0  0  0  0  0
    7.9913    3.0091    1.6724 C   0  0  0  0  0  0  0  0  0  0  0  0
    6.8114    3.6809    1.2849 C   0  0  0  0  0  0  0  0  0  0  0  0
    5.6834    2.9554    0.9373 C   0  0  0  0  0  0  0  0  0  0  0  0
    7.0382    5.1825    1.4116 C   0  0  2  0  0  0  0  0  0  0  0  0
    6.4175    5.7498    2.7291 C   0  0  0  0  0  0  0  0  0  0  0  0
    6.1097    7.2173    2.4159 C   0  0  0  0  0  0  0  0  0  0  0  0
    5.5465    7.1396    0.9898 C   0  0  0  0  0  0  0  0  0  0  0  0
    6.4348    6.0888    0.2890 C   0  0  0  0  0  0  0  0  0  0  0  0
    8.5951    5.2313    1.4595 C   0  0  0  0  0  0  0  0  0  0  0  0
    8.9758    3.9277    2.0044 N   0  0  0  0  0  0  0  0  0  0  0  0
    4.4089   -0.6527    0.5117 O   0  0  0  0  0  0  0  0  0  0  0  0
    3.0347   -1.0589    0.3205 C   0  0  1  0  0  0  0  0  0  0  0  0
    2.4759   -1.4179    1.7035 C   0  0  0  0  0  0  0  0  0  0  0  0
    3.0078   -2.2869   -0.5867 C   0  0  0  0  0  0  0  0  0  0  0  0
    0.5964    1.4634   -0.3159 H   0  0  0  0  0  0  0  0  0  0  0  0
    0.8846    0.6615    1.2415 H   0  0  0  0  0  0  0  0  0  0  0  0
    0.2719   -0.2800   -0.1481 H   0  0  0  0  0  0  0  0  0  0  0  0
    2.2016    1.3155   -2.1620 H   0  0  0  0  0  0  0  0  0  0  0  0
    1.7839   -0.4133   -2.3035 H   0  0  0  0  0  0  0  0  0  0  0  0
    3.4920    0.0929   -2.1779 H   0  0  0  0  0  0  0  0  0  0  0  0
    6.9250   -0.1959    1.3598 H   0  0  0  0  0  0  0  0  0  0  0  0
    8.9607    1.0889    1.9961 H   0  0  0  0  0  0  0  0  0  0  0  0
    4.7641    3.4679    0.6372 H   0  0  0  0  0  0  0  0  0  0  0  0
    7.0790    5.5966    3.5961 H   0  0  0  0  0  0  0  0  0  0  0  0
    5.4768    5.2151    2.9417 H   0  0  0  0  0  0  0  0  0  0  0  0
    7.0388    7.8153    2.4256 H   0  0  0  0  0  0  0  0  0  0  0  0
    5.4182    7.6812    3.1373 H   0  0  0  0  0  0  0  0  0  0  0  0
    5.5377    8.1090    0.4670 H   0  0  0  0  0  0  0  0  0  0  0  0
    4.5016    6.7874    1.0311 H   0  0  0  0  0  0  0  0  0  0  0  0
    7.2498    6.5829   -0.2657 H   0  0  0  0  0  0  0  0  0  0  0  0
    5.8764    5.4946   -0.4494 H   0  0  0  0  0  0  0  0  0  0  0  0
    8.9717    6.0583    2.0836 H   0  0  0  0  0  0  0  0  0  0  0  0
    8.9961    5.3709    0.4348 H   0  0  0  0  0  0  0  0  0  0  0  0
    9.9471    3.6432    1.9435 H   0  0  0  0  0  0  0  0  0  0  0  0
    2.4789   -0.5474    2.3760 H   0  0  0  0  0  0  0  0  0  0  0  0
    3.1139   -2.1930    2.1537 H   0  0  0  0  0  0  0  0  0  0  0  0
    1.4485   -1.8075    1.6422 H   0  0  0  0  0  0  0  0  0  0  0  0
    3.5431   -2.1086   -1.5284 H   0  0  0  0  0  0  0  0  0  0  0  0
    1.9728   -2.5840   -0.8195 H   0  0  0  0  0  0  0  0  0  0  0  0
    3.4973   -3.1312   -0.0780 H   0  0  0  0  0  0  0  0  0  0  0  0
  2  1  1  6
  1 23  1  0
  1 24  1  0
  1 25  1  0
  2  3  1  0
  2  4  1  0
  2 20  1  0
  3 26  1  0
  3 27  1  0
  3 28  1  0
  4  5  1  0
  5  6  1  0
  5 19  1  0
  6  7  2  0
  6 11  1  0
  7  8  1  0
  7 29  1  0
  8  9  2  0
  8 30  1  0
  9 10  1  0
  9 18  1  0
 10 11  2  0
 10 12  1  0
 11 31  1  0
 12 13  1  1
 12 16  1  0
 12 17  1  0
 13 14  1  0
 13 32  1  0
 13 33  1  0
 14 15  1  0
 14 34  1  0
 14 35  1  0
 15 16  1  0
 15 36  1  0
 15 37  1  0
 16 38  1  0
 16 39  1  0
 17 18  1  0
 17 40  1  0
 17 41  1  0
 18 42  1  0
 19 20  1  0
 20 21  1  1
 20 22  1  0
 21 43  1  0
 21 44  1  0
 21 45  1  0
 22 46  1  0
 22 47  1  0
 22 48  1  0
M  END

