
     RDKit          3D

 51 56  0  0  0  0  0  0  0  0999 V2000
    5.6607    1.9271    0.6531 O   0  0  0  0  0  0  0  0  0  0  0  0
    6.2626    2.4503   -0.3414 C   0  0  0  0  0  0  0  0  0  0  0  0
    6.9489    3.6961   -0.3394 C   0  0  0  0  0  0  0  0  0  0  0  0
    6.9026    4.4933    0.8561 C   0  0  0  0  0  0  0  0  0  0  0  0
    7.5111    5.7320    0.9277 C   0  0  0  0  0  0  0  0  0  0  0  0
    8.2093    6.2420   -0.1836 C   0  0  0  0  0  0  0  0  0  0  0  0
    8.9869    7.8154   -0.0893 Cl  0  0  0  0  0  0  0  0  0  0  0  0
    8.2979    5.4838   -1.3631 C   0  0  0  0  0  0  0  0  0  0  0  0
    7.6887    4.2414   -1.4423 C   0  0  0  0  0  0  0  0  0  0  0  0
    6.2475    1.5987   -1.6326 C   0  0  1  0  0  0  0  0  0  0  0  0
    6.2938    2.1833   -2.5573 H   0  0  0  0  0  0  0  0  0  0  0  0
    7.1601    0.3615   -1.6404 C   0  0  1  0  0  0  0  0  0  0  0  0
    7.0606   -0.1348   -2.6276 H   0  0  0  0  0  0  0  0  0  0  0  0
    8.6400    0.2118   -1.3441 C   0  0  0  0  0  0  0  0  0  0  0  0
    9.5728    0.9148   -1.6021 O   0  0  0  0  0  0  0  0  0  0  0  0
    8.7340   -1.0968   -0.7719 N   0  0  0  0  0  0  0  0  0  0  0  0
    9.9756   -1.7826   -0.6286 C   0  0  0  0  0  0  0  0  0  0  0  0
   10.7326   -1.6364    0.5378 C   0  0  0  0  0  0  0  0  0  0  0  0
   11.9537   -2.2976    0.6757 C   0  0  0  0  0  0  0  0  0  0  0  0
   12.4230   -3.1121   -0.3584 C   0  0  0  0  0  0  0  0  0  0  0  0
   11.6797   -3.2649   -1.5310 C   0  0  0  0  0  0  0  0  0  0  0  0
   10.4603   -2.5980   -1.6649 C   0  0  0  0  0  0  0  0  0  0  0  0
    9.5404   -2.7738   -3.1401 Cl  0  0  0  0  0  0  0  0  0  0  0  0
    7.4885   -1.6853   -0.4683 C   0  0  0  0  0  0  0  0  0  0  0  0
    7.3274   -2.8293   -0.1194 O   0  0  0  0  0  0  0  0  0  0  0  0
    6.5129   -0.5336   -0.5834 C   0  0  2  0  0  0  0  0  0  0  0  0
    6.6040    0.0134    0.3711 H   0  0  0  0  0  0  0  0  0  0  0  0
    5.0076   -0.4635   -0.8965 C   0  0  2  0  0  0  0  0  0  0  0  0
    4.4773   -0.2170    0.0422 H   0  0  0  0  0  0  0  0  0  0  0  0
    4.2337   -1.5503   -1.6008 C   0  0  0  0  0  0  0  0  0  0  0  0
    4.4217   -2.9103   -1.3699 C   0  0  0  0  0  0  0  0  0  0  0  0
    3.5495   -3.8388   -1.9573 C   0  0  0  0  0  0  0  0  0  0  0  0
    2.4776   -3.4245   -2.7646 C   0  0  0  0  0  0  0  0  0  0  0  0
    2.2782   -2.0723   -3.0020 C   0  0  0  0  0  0  0  0  0  0  0  0
    3.1543   -1.1202   -2.4267 C   0  0  0  0  0  0  0  0  0  0  0  0
    3.0235    0.2739   -2.7005 C   0  0  0  0  0  0  0  0  0  0  0  0
    3.9955    1.1589   -2.4385 N   0  0  0  0  0  0  0  0  0  0  0  0
    4.9573    0.8128   -1.6827 N   0  0  0  0  0  0  0  0  0  0  0  0
    6.3582    4.0896    1.7105 H   0  0  0  0  0  0  0  0  0  0  0  0
    7.4561    6.3244    1.8436 H   0  0  0  0  0  0  0  0  0  0  0  0
    8.8609    5.8762   -2.2122 H   0  0  0  0  0  0  0  0  0  0  0  0
    7.8170    3.6719   -2.3648 H   0  0  0  0  0  0  0  0  0  0  0  0
   10.3515   -0.9918    1.3322 H   0  0  0  0  0  0  0  0  0  0  0  0
   12.5386   -2.1739    1.5895 H   0  0  0  0  0  0  0  0  0  0  0  0
   13.3782   -3.6329   -0.2578 H   0  0  0  0  0  0  0  0  0  0  0  0
   12.0380   -3.8940   -2.3472 H   0  0  0  0  0  0  0  0  0  0  0  0
    5.2463   -3.2471   -0.7385 H   0  0  0  0  0  0  0  0  0  0  0  0
    3.7097   -4.9043   -1.7777 H   0  0  0  0  0  0  0  0  0  0  0  0
    1.8057   -4.1644   -3.2037 H   0  0  0  0  0  0  0  0  0  0  0  0
    1.4566   -1.7299   -3.6354 H   0  0  0  0  0  0  0  0  0  0  0  0
    2.1715    0.6708   -3.2556 H   0  0  0  0  0  0  0  0  0  0  0  0
  1  2  2  0
  2  3  1  0
  2 10  1  0
  3  4  2  0
  3  9  1  0
  4  5  1  0
  4 39  1  0
  5  6  2  0
  5 40  1  0
  6  7  1  0
  6  8  1  0
  8  9  2  0
  8 41  1  0
  9 42  1  0
 10 11  1  6
 10 12  1  0
 10 38  1  0
 12 13  1  6
 12 14  1  0
 12 26  1  0
 14 15  2  0
 14 16  1  0
 16 17  1  0
 16 24  1  0
 17 18  2  0
 17 22  1  0
 18 19  1  0
 18 43  1  0
 19 20  2  0
 19 44  1  0
 20 21  1  0
 20 45  1  0
 21 22  2  0
 21 46  1  0
 22 23  1  0
 24 25  2  0
 24 26  1  0
 26 27  1  1
 26 28  1  0
 28 29  1  1
 28 30  1  0
 28 38  1  0
 30 31  2  0
 30 35  1  0
 31 32  1  0
 31 47  1  0
 32 33  2  0
 32 48  1  0
 33 34  1  0
 33 49  1  0
 34 35  2  0
 34 50  1  0
 35 36  1  0
 36 37  2  0
 36 51  1  0
 37 38  1  0
M  END

