
     RDKit          3D

 75 81  0  0  0  0  0  0  0  0999 V2000
    6.4792    2.5070    3.4897 C   0  0  0  0  0  0  0  0  0  0  0  0
    5.0604    2.3321    4.0695 C   0  0  0  0  0  0  0  0  0  0  0  0
    4.2472    1.3485    3.2830 C   0  0  0  0  0  0  0  0  0  0  0  0
    3.6409    1.4967    2.0323 C   0  0  0  0  0  0  0  0  0  0  0  0
    3.0449    2.7248    1.5585 C   0  0  0  0  0  0  0  0  0  0  0  0
    2.4932    3.8077    2.2962 C   0  0  0  0  0  0  0  0  0  0  0  0
    2.0719    3.8137    3.6999 C   0  0  0  0  0  0  0  0  0  0  0  0
    1.4966    2.7064    4.2951 C   0  0  0  0  0  0  0  0  0  0  0  0
    0.6696    1.6192    3.6803 C   0  0  0  0  0  0  0  0  0  0  0  0
   -0.7262    2.1240    3.2641 C   0  0  0  0  0  0  0  0  0  0  0  0
    1.3166    2.9405    6.0623 S   0  0  1  0  0  0  0  0  0  0  0  0
   -0.0882    2.7877    6.4705 O   0  0  0  0  0  0  0  0  0  0  0  0
    2.3551    2.2275    6.8216 O   0  0  0  0  0  0  0  0  0  0  0  0
    1.8213    4.6553    5.9614 C   0  0  0  0  0  0  0  0  0  0  0  0
    1.9100    5.5273    7.0241 C   0  0  0  0  0  0  0  0  0  0  0  0
    2.4770    6.8079    6.8148 C   0  0  0  0  0  0  0  0  0  0  0  0
    2.5658    7.7896    7.9079 C   0  0  0  0  0  0  0  0  0  0  0  0
    3.6134    8.7415    7.9576 C   0  0  0  0  0  0  0  0  0  0  0  0
    3.6951    9.6629    8.9971 C   0  0  0  0  0  0  0  0  0  0  0  0
    2.7309    9.6662   10.0141 C   0  0  0  0  0  0  0  0  0  0  0  0
    1.6846    8.7342    9.9820 C   0  0  0  0  0  0  0  0  0  0  0  0
    1.6042    7.8071    8.9474 C   0  0  0  0  0  0  0  0  0  0  0  0
    2.9718    7.0976    5.5184 C   0  0  0  0  0  0  0  0  0  0  0  0
    2.8913    6.1906    4.4645 C   0  0  0  0  0  0  0  0  0  0  0  0
    2.2795    4.9379    4.6559 C   0  0  0  0  0  0  0  0  0  0  0  0
    2.0469    4.8816    1.3445 C   0  0  2  0  0  0  0  0  0  0  0  0
    2.3078    6.1715    1.7086 F   0  0  0  0  0  0  0  0  0  0  0  0
    0.6906    4.8445    1.1374 F   0  0  0  0  0  0  0  0  0  0  0  0
    2.7672    4.5620    0.0208 C   0  0  1  0  0  0  0  0  0  0  0  0
    2.0744    4.9502   -1.0609 F   0  0  0  0  0  0  0  0  0  0  0  0
    3.9709    5.1755   -0.0031 F   0  0  0  0  0  0  0  0  0  0  0  0
    2.9670    3.0346    0.0930 C   0  0  2  0  0  0  0  0  0  0  0  0
    1.8867    2.4481   -0.5303 F   0  0  0  0  0  0  0  0  0  0  0  0
    4.0610    2.6495   -0.6134 F   0  0  0  0  0  0  0  0  0  0  0  0
    3.6109    0.2154    1.2742 C   0  0  0  0  0  0  0  0  0  0  0  0
    3.1682   -0.0578   -0.0334 C   0  0  0  0  0  0  0  0  0  0  0  0
    3.2584   -1.3480   -0.5459 C   0  0  0  0  0  0  0  0  0  0  0  0
    3.7831   -2.4358    0.2033 C   0  0  0  0  0  0  0  0  0  0  0  0
    3.8707   -3.7852   -0.3683 C   0  0  0  0  0  0  0  0  0  0  0  0
    4.8936   -4.6813    0.0351 C   0  0  0  0  0  0  0  0  0  0  0  0
    4.9782   -5.9586   -0.5060 C   0  0  0  0  0  0  0  0  0  0  0  0
    4.0396   -6.3857   -1.4575 C   0  0  0  0  0  0  0  0  0  0  0  0
    3.0164   -5.5171   -1.8656 C   0  0  0  0  0  0  0  0  0  0  0  0
    2.9345   -4.2354   -1.3342 C   0  0  0  0  0  0  0  0  0  0  0  0
    4.2109   -2.1675    1.5276 C   0  0  0  0  0  0  0  0  0  0  0  0
    4.1225   -0.8809    2.0064 C   0  0  0  0  0  0  0  0  0  0  0  0
    4.4926   -0.3717    3.6796 S   0  0  1  0  0  0  0  0  0  0  0  0
    5.8889   -0.6606    4.0435 O   0  0  0  0  0  0  0  0  0  0  0  0
    3.4227   -0.8910    4.5453 O   0  0  0  0  0  0  0  0  0  0  0  0
    7.0344    3.2554    4.0780 H   0  0  0  0  0  0  0  0  0  0  0  0
    6.4334    2.8561    2.4461 H   0  0  0  0  0  0  0  0  0  0  0  0
    7.0304    1.5574    3.5212 H   0  0  0  0  0  0  0  0  0  0  0  0
    4.5584    3.3075    4.0703 H   0  0  0  0  0  0  0  0  0  0  0  0
    5.1122    2.0101    5.1223 H   0  0  0  0  0  0  0  0  0  0  0  0
    0.5847    0.7796    4.3882 H   0  0  0  0  0  0  0  0  0  0  0  0
    1.1895    1.2230    2.7957 H   0  0  0  0  0  0  0  0  0  0  0  0
   -1.2692    2.5147    4.1359 H   0  0  0  0  0  0  0  0  0  0  0  0
   -1.3093    1.2959    2.8300 H   0  0  0  0  0  0  0  0  0  0  0  0
   -0.6411    2.9205    2.5097 H   0  0  0  0  0  0  0  0  0  0  0  0
    1.5785    5.2117    8.0151 H   0  0  0  0  0  0  0  0  0  0  0  0
    4.3861    8.7341    7.1869 H   0  0  0  0  0  0  0  0  0  0  0  0
    4.5187   10.3803    9.0224 H   0  0  0  0  0  0  0  0  0  0  0  0
    2.7949   10.3915   10.8288 H   0  0  0  0  0  0  0  0  0  0  0  0
    0.9250    8.7374   10.7672 H   0  0  0  0  0  0  0  0  0  0  0  0
    0.7708    7.1027    8.9216 H   0  0  0  0  0  0  0  0  0  0  0  0
    3.4158    8.0757    5.3247 H   0  0  0  0  0  0  0  0  0  0  0  0
    3.2993    6.4631    3.4957 H   0  0  0  0  0  0  0  0  0  0  0  0
    2.7555    0.7243   -0.6670 H   0  0  0  0  0  0  0  0  0  0  0  0
    2.9332   -1.5166   -1.5743 H   0  0  0  0  0  0  0  0  0  0  0  0
    5.6419   -4.3537    0.7589 H   0  0  0  0  0  0  0  0  0  0  0  0
    5.7820   -6.6286   -0.1924 H   0  0  0  0  0  0  0  0  0  0  0  0
    4.1050   -7.3917   -1.8786 H   0  0  0  0  0  0  0  0  0  0  0  0
    2.2766   -5.8498   -2.5973 H   0  0  0  0  0  0  0  0  0  0  0  0
    2.1197   -3.5780   -1.6422 H   0  0  0  0  0  0  0  0  0  0  0  0
    4.5796   -2.9629    2.1779 H   0  0  0  0  0  0  0  0  0  0  0  0
  1  2  1  0
  1 50  1  0
  1 51  1  0
  1 52  1  0
  2  3  1  0
  2 53  1  0
  2 54  1  0
  3  4  2  0
 47  3  1  1
  4  5  1  0
  4 35  1  0
  5  6  2  0
  5 32  1  0
  6  7  1  0
  6 26  1  0
  7  8  2  0
  7 25  1  0
  8  9  1  0
 11  8  1  6
  9 10  1  0
  9 55  1  0
  9 56  1  0
 10 57  1  0
 10 58  1  0
 10 59  1  0
 11 12  2  0
 11 13  2  0
 11 14  1  0
 14 15  1  0
 14 25  2  0
 15 16  2  0
 15 60  1  0
 16 17  1  0
 16 23  1  0
 17 18  2  0
 17 22  1  0
 18 19  1  0
 18 61  1  0
 19 20  2  0
 19 62  1  0
 20 21  1  0
 20 63  1  0
 21 22  2  0
 21 64  1  0
 22 65  1  0
 23 24  2  0
 23 66  1  0
 24 25  1  0
 24 67  1  0
 26 27  1  1
 26 28  1  0
 26 29  1  0
 29 30  1  6
 29 31  1  0
 29 32  1  0
 32 33  1  6
 32 34  1  0
 35 36  2  0
 35 46  1  0
 36 37  1  0
 36 68  1  0
 37 38  2  0
 37 69  1  0
 38 39  1  0
 38 45  1  0
 39 40  2  0
 39 44  1  0
 40 41  1  0
 40 70  1  0
 41 42  2  0
 41 71  1  0
 42 43  1  0
 42 72  1  0
 43 44  2  0
 43 73  1  0
 44 74  1  0
 45 46  2  0
 45 75  1  0
 46 47  1  0
 47 48  2  0
 47 49  2  0
M  END

