
     RDKit          3D

 55 60  0  0  0  0  0  0  0  0999 V2000
    0.5346    0.7549    0.7162 O   0  0  0  0  0  0  0  0  0  0  0  0
    1.3397   -0.3189    1.1428 C   0  0  0  0  0  0  0  0  0  0  0  0
    2.5060    0.2015    1.9471 C   0  0  0  0  0  0  0  0  0  0  0  0
    2.6766    1.5576    2.1831 C   0  0  0  0  0  0  0  0  0  0  0  0
    3.7808    2.0256    2.9451 C   0  0  0  0  0  0  0  0  0  0  0  0
    3.9788    3.3519    3.1981 N   0  0  0  0  0  0  0  0  0  0  0  0
    3.3360    4.3533    2.8723 N   0  0  0  0  0  0  0  0  0  0  0  0
    3.4834    5.6687    3.0956 C   0  0  0  0  0  0  0  0  0  0  0  0
    2.5327    6.5916    2.5619 C   0  0  0  0  0  0  0  0  0  0  0  0
    2.6589    7.9466    2.7756 C   0  0  0  0  0  0  0  0  0  0  0  0
    3.7396    8.4824    3.5352 C   0  0  0  0  0  0  0  0  0  0  0  0
    3.8709    9.8691    3.7552 C   0  0  0  0  0  0  0  0  0  0  0  0
    3.9931   11.0743    3.9511 C   0  0  0  0  0  0  0  0  0  0  0  0
    4.1669   12.4582    4.1958 C   0  0  0  0  0  0  0  0  0  0  0  0
    5.2797   12.8942    4.9561 C   0  0  0  0  0  0  0  0  0  0  0  0
    5.4939   14.2372    5.2206 C   0  0  0  0  0  0  0  0  0  0  0  0
    4.6085   15.2252    4.7413 C   0  0  0  0  0  0  0  0  0  0  0  0
    4.8073   16.6221    5.0001 C   0  0  0  0  0  0  0  0  0  0  0  0
    3.9380   17.5642    4.5273 C   0  0  0  0  0  0  0  0  0  0  0  0
    2.7873   17.1918    3.7503 C   0  0  0  0  0  0  0  0  0  0  0  0
    1.8769   18.1432    3.2525 C   0  0  0  0  0  0  0  0  0  0  0  0
    0.7687   17.7482    2.5011 C   0  0  0  0  0  0  0  0  0  0  0  0
    0.5420   16.3987    2.2285 C   0  0  0  0  0  0  0  0  0  0  0  0
    1.4246   15.4100    2.7045 C   0  0  0  0  0  0  0  0  0  0  0  0
    1.2267   14.0111    2.4451 C   0  0  0  0  0  0  0  0  0  0  0  0
    2.0965   13.0691    2.9170 C   0  0  0  0  0  0  0  0  0  0  0  0
    3.2471   13.4320    3.6938 C   0  0  0  0  0  0  0  0  0  0  0  0
    3.4738   14.8166    3.9705 C   0  0  0  0  0  0  0  0  0  0  0  0
    2.5632   15.8041    3.4757 C   0  0  0  0  0  0  0  0  0  0  0  0
    4.6919    7.5674    4.0703 C   0  0  0  0  0  0  0  0  0  0  0  0
    4.5659    6.2170    3.8573 C   0  0  0  0  0  0  0  0  0  0  0  0
    5.4715    5.3718    4.3687 F   0  0  0  0  0  0  0  0  0  0  0  0
    4.7104    1.0960    3.4640 C   0  0  0  0  0  0  0  0  0  0  0  0
    4.5341   -0.2615    3.2233 C   0  0  0  0  0  0  0  0  0  0  0  0
    3.4430   -0.7178    2.4711 C   0  0  0  0  0  0  0  0  0  0  0  0
    3.2248   -2.0353    2.2063 O   0  0  0  0  0  0  0  0  0  0  0  0
   -0.2027    0.3994    0.2069 H   0  0  0  0  0  0  0  0  0  0  0  0
    1.7361   -0.9071    0.2895 H   0  0  0  0  0  0  0  0  0  0  0  0
    0.7748   -1.0393    1.7699 H   0  0  0  0  0  0  0  0  0  0  0  0
    1.9522    2.2619    1.7768 H   0  0  0  0  0  0  0  0  0  0  0  0
    1.7008    6.1932    1.9789 H   0  0  0  0  0  0  0  0  0  0  0  0
    1.9187    8.6308    2.3570 H   0  0  0  0  0  0  0  0  0  0  0  0
    5.9765   12.1443    5.3356 H   0  0  0  0  0  0  0  0  0  0  0  0
    6.3623   14.5432    5.8101 H   0  0  0  0  0  0  0  0  0  0  0  0
    5.6782   16.9213    5.5898 H   0  0  0  0  0  0  0  0  0  0  0  0
    4.1053   18.6246    4.7345 H   0  0  0  0  0  0  0  0  0  0  0  0
    2.0483   19.2025    3.4624 H   0  0  0  0  0  0  0  0  0  0  0  0
    0.0732   18.5023    2.1236 H   0  0  0  0  0  0  0  0  0  0  0  0
   -0.3277   16.0952    1.6395 H   0  0  0  0  0  0  0  0  0  0  0  0
    0.3567   13.7090    1.8557 H   0  0  0  0  0  0  0  0  0  0  0  0
    1.9287   12.0109    2.7084 H   0  0  0  0  0  0  0  0  0  0  0  0
    5.5379    7.9255    4.6586 H   0  0  0  0  0  0  0  0  0  0  0  0
    5.5581    1.4554    4.0490 H   0  0  0  0  0  0  0  0  0  0  0  0
    5.2532   -0.9828    3.6241 H   0  0  0  0  0  0  0  0  0  0  0  0
    3.9221   -2.5708    2.6070 H   0  0  0  0  0  0  0  0  0  0  0  0
  1  2  1  0
  1 37  1  0
  2  3  1  0
  2 38  1  0
  2 39  1  0
  3  4  2  0
  3 35  1  0
  4  5  1  0
  4 40  1  0
  5  6  1  0
  5 33  2  0
  6  7  2  0
  7  8  1  0
  8  9  2  0
  8 31  1  0
  9 10  1  0
  9 41  1  0
 10 11  2  0
 10 42  1  0
 11 12  1  0
 11 30  1  0
 12 13  3  0
 13 14  1  0
 14 15  2  0
 14 27  1  0
 15 16  1  0
 15 43  1  0
 16 17  2  0
 16 44  1  0
 17 18  1  0
 17 28  1  0
 18 19  2  0
 18 45  1  0
 19 20  1  0
 19 46  1  0
 20 21  2  0
 20 29  1  0
 21 22  1  0
 21 47  1  0
 22 23  2  0
 22 48  1  0
 23 24  1  0
 23 49  1  0
 24 25  2  0
 24 29  1  0
 25 26  1  0
 25 50  1  0
 26 27  2  0
 26 51  1  0
 27 28  1  0
 28 29  2  0
 30 31  2  0
 30 52  1  0
 31 32  1  0
 33 34  1  0
 33 53  1  0
 34 35  2  0
 34 54  1  0
 35 36  1  0
 36 55  1  0
M  END

