
     RDKit          3D

 40 43  0  0  0  0  0  0  0  0999 V2000
   -1.7316   -7.5749    0.9577 C   0  0  0  0  0  0  0  0  0  0  0  0
   -1.1899   -8.3779    1.9298 C   0  0  0  0  0  0  0  0  0  0  0  0
   -0.0098   -7.5324    2.8704 S   0  0  0  0  0  0  0  0  0  0  0  0
   -0.2631   -6.0539    1.9618 C   0  0  0  0  0  0  0  0  0  0  0  0
    0.4765   -4.8430    2.2775 C   0  0  0  0  0  0  0  0  0  0  0  0
    0.9559   -4.5742    3.5297 N   0  0  0  0  0  0  0  0  0  0  0  0
    0.8115   -5.1333    4.3631 H   0  0  0  0  0  0  0  0  0  0  0  0
    1.6321   -3.4235    3.6160 N   0  0  0  0  0  0  0  0  0  0  0  0
    1.5946   -2.9265    2.3838 C   0  0  0  0  0  0  0  0  0  0  0  0
    0.8843   -3.7613    1.4834 C   0  0  0  0  0  0  0  0  0  0  0  0
    0.6876   -3.5500    0.0099 C   0  0  0  0  0  0  0  0  0  0  0  0
   -0.6917   -3.2347   -0.3826 N   0  0  0  0  0  0  0  0  0  0  0  0
   -1.2789   -2.0441    0.2327 C   0  0  0  0  0  0  0  0  0  0  0  0
   -0.8027   -0.7268   -0.4006 C   0  0  0  0  0  0  0  0  0  0  0  0
   -1.0320   -0.7328   -1.9171 C   0  0  0  0  0  0  0  0  0  0  0  0
   -0.4171   -1.9906   -2.5694 C   0  0  2  0  0  0  0  0  0  0  0  0
   -0.7476   -2.0809   -4.0324 C   0  0  0  0  0  0  0  0  0  0  0  0
   -1.9580   -2.1040   -4.5146 N   0  0  0  0  0  0  0  0  0  0  0  0
   -1.9599   -2.2178   -5.8798 C   0  0  0  0  0  0  0  0  0  0  0  0
   -0.7276   -2.2874   -6.4752 C   0  0  0  0  0  0  0  0  0  0  0  0
    0.5034   -2.2047   -5.2624 S   0  0  0  0  0  0  0  0  0  0  0  0
   -0.9218   -3.2595   -1.8201 C   0  0  0  0  0  0  0  0  0  0  0  0
   -1.2074   -6.2493    0.9733 C   0  0  0  0  0  0  0  0  0  0  0  0
   -2.4919   -7.9189    0.2547 H   0  0  0  0  0  0  0  0  0  0  0  0
   -1.4096   -9.4226    2.1454 H   0  0  0  0  0  0  0  0  0  0  0  0
    2.0887   -1.9795    2.1627 H   0  0  0  0  0  0  0  0  0  0  0  0
    0.9602   -4.4752   -0.5272 H   0  0  0  0  0  0  0  0  0  0  0  0
    1.4193   -2.7798   -0.3159 H   0  0  0  0  0  0  0  0  0  0  0  0
   -1.0680   -2.0610    1.3123 H   0  0  0  0  0  0  0  0  0  0  0  0
   -2.3763   -2.1179    0.1203 H   0  0  0  0  0  0  0  0  0  0  0  0
    0.2692   -0.5705   -0.1836 H   0  0  0  0  0  0  0  0  0  0  0  0
   -1.3371    0.1202    0.0618 H   0  0  0  0  0  0  0  0  0  0  0  0
   -0.6154    0.1750   -2.3839 H   0  0  0  0  0  0  0  0  0  0  0  0
   -2.1138   -0.7312   -2.1354 H   0  0  0  0  0  0  0  0  0  0  0  0
    0.6807   -1.9403   -2.4695 H   0  0  0  0  0  0  0  0  0  0  0  0
   -2.9095   -2.2470   -6.4181 H   0  0  0  0  0  0  0  0  0  0  0  0
   -0.4876   -2.3776   -7.5330 H   0  0  0  0  0  0  0  0  0  0  0  0
   -0.4490   -4.1587   -2.2472 H   0  0  0  0  0  0  0  0  0  0  0  0
   -2.0063   -3.3427   -2.0078 H   0  0  0  0  0  0  0  0  0  0  0  0
   -1.5143   -5.4360    0.3132 H   0  0  0  0  0  0  0  0  0  0  0  0
  1  2  2  0
  1 23  1  0
  1 24  1  0
  2  3  1  0
  2 25  1  0
  3  4  1  0
  4  5  1  0
  4 23  2  0
  5  6  1  0
  5 10  2  0
  6  7  1  0
  6  8  1  0
  8  9  2  0
  9 10  1  0
  9 26  1  0
 10 11  1  0
 11 12  1  0
 11 27  1  0
 11 28  1  0
 12 13  1  0
 12 22  1  0
 13 14  1  0
 13 29  1  0
 13 30  1  0
 14 15  1  0
 14 31  1  0
 14 32  1  0
 15 16  1  0
 15 33  1  0
 15 34  1  0
 16 17  1  0
 16 22  1  0
 16 35  1  6
 17 18  2  0
 17 21  1  0
 18 19  1  0
 19 20  2  0
 19 36  1  0
 20 21  1  0
 20 37  1  0
 22 38  1  0
 22 39  1  0
 23 40  1  0
M  END

