
     RDKit          3D

 34 35  0  0  0  0  0  0  0  0999 V2000
    1.8497   -2.0756    1.7700 C   0  0  0  0  0  0  0  0  0  0  0  0
    2.4112   -1.5557    0.4456 C   0  0  0  0  0  0  0  0  0  0  0  0
    3.1421   -0.3006    0.5633 N   0  0  0  0  0  0  0  0  0  0  0  0
    4.4453   -0.2127    0.9362 C   0  0  0  0  0  0  0  0  0  0  0  0
    5.0911    1.0417    1.0884 C   0  0  0  0  0  0  0  0  0  0  0  0
    6.4323    1.0482    1.4595 C   0  0  0  0  0  0  0  0  0  0  0  0
    7.2202    2.2966    1.6561 C   0  0  0  0  0  0  0  0  0  0  0  0
    6.6448    3.5766    1.5474 C   0  0  0  0  0  0  0  0  0  0  0  0
    7.4257    4.7140    1.7402 C   0  0  0  0  0  0  0  0  0  0  0  0
    8.7865    4.5955    2.0425 C   0  0  0  0  0  0  0  0  0  0  0  0
    9.3858    3.3331    2.1587 C   0  0  0  0  0  0  0  0  0  0  0  0
   10.8511    3.1838    2.4913 C   0  0  0  0  0  0  0  0  0  0  0  0
    8.5871    2.1973    1.9630 C   0  0  0  0  0  0  0  0  0  0  0  0
    7.0894   -0.1216    1.6589 N   0  0  0  0  0  0  0  0  0  0  0  0
    6.3965   -1.2284    1.4869 C   0  0  0  0  0  0  0  0  0  0  0  0
    7.1190   -2.5528    1.7404 C   0  0  1  0  0  0  0  0  0  0  0  0
    8.4266   -2.3849    1.9425 F   0  0  0  0  0  0  0  0  0  0  0  0
    6.6093   -3.1601    2.8271 F   0  0  0  0  0  0  0  0  0  0  0  0
    6.9661   -3.3892    0.7022 F   0  0  0  0  0  0  0  0  0  0  0  0
    5.1193   -1.3552    1.1453 N   0  0  0  0  0  0  0  0  0  0  0  0
    1.2872   -3.0090    1.6068 H   0  0  0  0  0  0  0  0  0  0  0  0
    1.1676   -1.3440    2.2336 H   0  0  0  0  0  0  0  0  0  0  0  0
    2.6659   -2.2886    2.4765 H   0  0  0  0  0  0  0  0  0  0  0  0
    1.5988   -1.3948   -0.2817 H   0  0  0  0  0  0  0  0  0  0  0  0
    3.0955   -2.3005    0.0146 H   0  0  0  0  0  0  0  0  0  0  0  0
    2.6228    0.5648    0.4915 H   0  0  0  0  0  0  0  0  0  0  0  0
    4.5382    1.9641    0.9098 H   0  0  0  0  0  0  0  0  0  0  0  0
    5.5849    3.6962    1.3170 H   0  0  0  0  0  0  0  0  0  0  0  0
    6.9719    5.7047    1.6553 H   0  0  0  0  0  0  0  0  0  0  0  0
    9.3892    5.4960    2.1905 H   0  0  0  0  0  0  0  0  0  0  0  0
   11.3558    4.1594    2.5509 H   0  0  0  0  0  0  0  0  0  0  0  0
   11.3727    2.5771    1.7332 H   0  0  0  0  0  0  0  0  0  0  0  0
   10.9892    2.6731    3.4591 H   0  0  0  0  0  0  0  0  0  0  0  0
    9.0173    1.1977    2.0465 H   0  0  0  0  0  0  0  0  0  0  0  0
  1  2  1  0
  1 21  1  0
  1 22  1  0
  1 23  1  0
  2  3  1  0
  2 24  1  0
  2 25  1  0
  3  4  1  0
  3 26  1  0
  4  5  2  0
  4 20  1  0
  5  6  1  0
  5 27  1  0
  6  7  1  0
  6 14  2  0
  7  8  2  0
  7 13  1  0
  8  9  1  0
  8 28  1  0
  9 10  2  0
  9 29  1  0
 10 11  1  0
 10 30  1  0
 11 12  1  0
 11 13  2  0
 12 31  1  0
 12 32  1  0
 12 33  1  0
 13 34  1  0
 14 15  1  0
 15 16  1  0
 15 20  2  0
 16 17  1  1
 16 18  1  0
 16 19  1  0
M  END

