
     RDKit          3D

 30 31  0  0  0  0  0  0  0  0999 V2000
    1.3753    1.0668   -0.6082 N   0  0  0  0  0  0  0  0  0  0  0  0
    2.4632    0.6767   -0.7222 C   0  0  0  0  0  0  0  0  0  0  0  0
    3.8247    0.1506   -0.9105 C   0  0  1  0  0  0  0  0  0  0  0  0
    3.7543   -1.2886   -1.3757 C   0  0  0  0  0  0  0  0  0  0  0  0
    3.8807   -2.2933   -0.6800 O   0  0  0  0  0  0  0  0  0  0  0  0
    3.5202   -1.3962   -2.7767 N   0  0  0  0  0  0  0  0  0  0  0  0
    3.7328   -0.4321   -3.6732 C   0  0  0  0  0  0  0  0  0  0  0  0
    3.4448   -0.7040   -5.4030 S   0  0  0  0  0  0  0  0  0  0  0  0
    4.1783    0.7715   -3.2693 N   0  0  0  0  0  0  0  0  0  0  0  0
    4.6057    1.0986   -1.9051 C   0  0  2  0  0  0  0  0  0  0  0  0
    6.1035    1.1703   -1.7052 C   0  0  0  0  0  0  0  0  0  0  0  0
    6.6602    2.3599   -1.2072 C   0  0  0  0  0  0  0  0  0  0  0  0
    8.0300    2.4655   -0.9645 C   0  0  0  0  0  0  0  0  0  0  0  0
    8.6872    3.9954   -0.3319 S   0  0  1  0  0  0  0  0  0  0  0  0
    7.5879    4.8124    0.1821 O   0  0  0  0  0  0  0  0  0  0  0  0
    9.8780    3.7008    0.4454 O   0  0  0  0  0  0  0  0  0  0  0  0
    9.2158    4.7412   -1.7012 O   0  0  0  0  0  0  0  0  0  0  0  0
    8.8945    1.3933   -1.2039 C   0  0  0  0  0  0  0  0  0  0  0  0
    8.3589    0.2098   -1.7170 C   0  0  0  0  0  0  0  0  0  0  0  0
    6.9871    0.0925   -1.9701 C   0  0  0  0  0  0  0  0  0  0  0  0
    6.4511   -1.0397   -2.4808 O   0  0  0  0  0  0  0  0  0  0  0  0
    4.3352    0.1508    0.0640 H   0  0  0  0  0  0  0  0  0  0  0  0
    3.3302   -2.3423   -3.0959 H   0  0  0  0  0  0  0  0  0  0  0  0
    4.2586    1.5042   -3.9631 H   0  0  0  0  0  0  0  0  0  0  0  0
    4.2321    2.1161   -1.7145 H   0  0  0  0  0  0  0  0  0  0  0  0
    6.0157    3.2122   -0.9792 H   0  0  0  0  0  0  0  0  0  0  0  0
    8.5873    5.4569   -1.8966 H   0  0  0  0  0  0  0  0  0  0  0  0
    9.9597    1.4828   -0.9879 H   0  0  0  0  0  0  0  0  0  0  0  0
    9.0134   -0.6429   -1.9207 H   0  0  0  0  0  0  0  0  0  0  0  0
    7.1082   -1.7485   -2.5040 H   0  0  0  0  0  0  0  0  0  0  0  0
  1  2  3  0
  2  3  1  0
  3  4  1  0
  3 10  1  0
  3 22  1  1
  4  5  2  0
  4  6  1  0
  6  7  1  0
  6 23  1  0
  7  8  2  0
  7  9  1  0
  9 10  1  0
  9 24  1  0
 10 11  1  0
 10 25  1  1
 11 12  2  0
 11 20  1  0
 12 13  1  0
 12 26  1  0
 13 14  1  0
 13 18  2  0
 14 15  2  0
 14 16  2  0
 14 17  1  6
 17 27  1  0
 18 19  1  0
 18 28  1  0
 19 20  2  0
 19 29  1  0
 20 21  1  0
 21 30  1  0
M  END

