
     RDKit          3D

 47 49  0  0  0  0  0  0  0  0999 V2000
    2.7458    0.6247    0.9752 C   0  0  0  0  0  0  0  0  0  0  0  0
    4.0935    0.2184    0.4467 C   0  0  0  0  0  0  0  0  0  0  0  0
    4.9433    1.1042   -0.1834 C   0  0  0  0  0  0  0  0  0  0  0  0
    6.2264    0.6981   -0.6796 C   0  0  0  0  0  0  0  0  0  0  0  0
    6.5580   -0.6775   -0.4828 C   0  0  0  0  0  0  0  0  0  0  0  0
    5.6261   -1.4529    0.1551 C   0  0  0  0  0  0  0  0  0  0  0  0
    5.8957   -2.8792    0.4001 N   0  0  0  0  0  0  0  0  0  0  0  0
    6.5284   -3.2423    1.6428 C   0  0  0  0  0  0  0  0  0  0  0  0
    6.3006   -4.6878    2.1041 C   0  0  0  0  0  0  0  0  0  0  0  0
    6.3193   -5.6981    0.9546 C   0  0  2  0  0  0  0  0  0  0  0  0
    7.6689   -5.8268    0.4042 N   0  0  0  0  0  0  0  0  0  0  0  0
    8.0132   -6.8131   -0.4587 C   0  0  0  0  0  0  0  0  0  0  0  0
    7.2251   -7.6577   -0.8642 O   0  0  0  0  0  0  0  0  0  0  0  0
    9.4957   -6.8862   -0.9172 C   0  0  1  0  0  0  0  0  0  0  0  0
    9.5538   -7.7389   -2.0187 O   0  0  0  0  0  0  0  0  0  0  0  0
   10.0742   -5.5162   -1.2251 C   0  0  0  0  0  0  0  0  0  0  0  0
   10.7735   -4.7926   -0.2473 C   0  0  0  0  0  0  0  0  0  0  0  0
   11.2409   -3.5005   -0.5158 C   0  0  0  0  0  0  0  0  0  0  0  0
   11.0251   -2.9263   -1.7714 C   0  0  0  0  0  0  0  0  0  0  0  0
   10.3496   -3.6535   -2.7591 C   0  0  0  0  0  0  0  0  0  0  0  0
    9.8781   -4.9401   -2.4892 C   0  0  0  0  0  0  0  0  0  0  0  0
    5.2895   -5.2588   -0.0988 C   0  0  0  0  0  0  0  0  0  0  0  0
    5.5458   -3.8418   -0.6114 C   0  0  0  0  0  0  0  0  0  0  0  0
    4.4123   -1.1201    0.6481 N   0  0  0  0  0  0  0  0  0  0  0  0
    2.5361    1.6904    0.8003 H   0  0  0  0  0  0  0  0  0  0  0  0
    2.6773    0.4252    2.0601 H   0  0  0  0  0  0  0  0  0  0  0  0
    1.9457    0.0256    0.5038 H   0  0  0  0  0  0  0  0  0  0  0  0
    4.6215    2.1429   -0.3034 H   0  0  0  0  0  0  0  0  0  0  0  0
    6.9014    1.3855   -1.1846 H   0  0  0  0  0  0  0  0  0  0  0  0
    7.5076   -1.0957   -0.8274 H   0  0  0  0  0  0  0  0  0  0  0  0
    6.1759   -2.5151    2.3889 H   0  0  0  0  0  0  0  0  0  0  0  0
    7.6065   -3.0122    1.5034 H   0  0  0  0  0  0  0  0  0  0  0  0
    5.3163   -4.7510    2.5923 H   0  0  0  0  0  0  0  0  0  0  0  0
    7.0499   -4.9407    2.8704 H   0  0  0  0  0  0  0  0  0  0  0  0
    6.0192   -6.6886    1.3312 H   0  0  0  0  0  0  0  0  0  0  0  0
    8.3778   -5.1386    0.6348 H   0  0  0  0  0  0  0  0  0  0  0  0
   10.0510   -7.3097   -0.0509 H   0  0  0  0  0  0  0  0  0  0  0  0
    8.7082   -8.2277   -2.0060 H   0  0  0  0  0  0  0  0  0  0  0  0
   10.9784   -5.2512    0.7259 H   0  0  0  0  0  0  0  0  0  0  0  0
   11.7903   -2.9496    0.2519 H   0  0  0  0  0  0  0  0  0  0  0  0
   11.3939   -1.9204   -1.9857 H   0  0  0  0  0  0  0  0  0  0  0  0
   10.1938   -3.2148   -3.7480 H   0  0  0  0  0  0  0  0  0  0  0  0
    9.3698   -5.5240   -3.2592 H   0  0  0  0  0  0  0  0  0  0  0  0
    4.2877   -5.3037    0.3579 H   0  0  0  0  0  0  0  0  0  0  0  0
    5.2921   -5.9597   -0.9444 H   0  0  0  0  0  0  0  0  0  0  0  0
    4.6845   -3.4276   -1.1542 H   0  0  0  0  0  0  0  0  0  0  0  0
    6.3896   -3.8297   -1.3358 H   0  0  0  0  0  0  0  0  0  0  0  0
  1  2  1  0
  1 25  1  0
  1 26  1  0
  1 27  1  0
  2  3  2  0
  2 24  1  0
  3  4  1  0
  3 28  1  0
  4  5  2  0
  4 29  1  0
  5  6  1  0
  5 30  1  0
  6  7  1  0
  6 24  2  0
  7  8  1  0
  7 23  1  0
  8  9  1  0
  8 31  1  0
  8 32  1  0
  9 10  1  0
  9 33  1  0
  9 34  1  0
 10 11  1  0
 10 22  1  0
 10 35  1  1
 11 12  1  0
 11 36  1  0
 12 13  2  0
 12 14  1  0
 14 15  1  0
 14 16  1  0
 14 37  1  1
 15 38  1  0
 16 17  2  0
 16 21  1  0
 17 18  1  0
 17 39  1  0
 18 19  2  0
 18 40  1  0
 19 20  1  0
 19 41  1  0
 20 21  2  0
 20 42  1  0
 21 43  1  0
 22 23  1  0
 22 44  1  0
 22 45  1  0
 23 46  1  0
 23 47  1  0
M  END

