
     RDKit          3D

 52 56  0  0  0  0  0  0  0  0999 V2000
    2.1332    0.1719    2.2762 C   0  0  0  0  0  0  0  0  0  0  0  0
    3.2264    0.1015    1.2607 C   0  0  0  0  0  0  0  0  0  0  0  0
    3.6303    1.2371    0.5266 C   0  0  0  0  0  0  0  0  0  0  0  0
    4.6494    1.1995   -0.4036 C   0  0  0  0  0  0  0  0  0  0  0  0
    5.3351   -0.0365   -0.6785 C   0  0  0  0  0  0  0  0  0  0  0  0
    6.3311   -0.1097   -1.6088 N   0  0  0  0  0  0  0  0  0  0  0  0
    6.8298    1.0189   -2.3844 C   0  0  0  0  0  0  0  0  0  0  0  0
    6.1807    1.9946   -2.6478 O   0  0  0  0  0  0  0  0  0  0  0  0
    8.2519    0.6836   -2.7774 C   0  0  0  0  0  0  0  0  0  0  0  0
    8.9469    1.4413   -3.5040 O   0  0  0  0  0  0  0  0  0  0  0  0
    8.5504   -0.5899   -2.2703 C   0  0  0  0  0  0  0  0  0  0  0  0
    9.7861   -1.2218   -2.6279 C   0  0  0  0  0  0  0  0  0  0  0  0
   10.5095   -0.5849   -3.5592 O   0  0  0  0  0  0  0  0  0  0  0  0
   10.2744   -2.5140   -2.2211 C   0  0  0  0  0  0  0  0  0  0  0  0
   11.0360   -3.2574   -3.1523 C   0  0  0  0  0  0  0  0  0  0  0  0
   11.4011   -4.5849   -2.9059 C   0  0  0  0  0  0  0  0  0  0  0  0
   11.0484   -5.2125   -1.7177 C   0  0  0  0  0  0  0  0  0  0  0  0
   10.3864   -4.4814   -0.6936 C   0  0  0  0  0  0  0  0  0  0  0  0
   10.1164   -5.0683    0.5755 C   0  0  0  0  0  0  0  0  0  0  0  0
    9.5894   -4.3275    1.6151 C   0  0  0  0  0  0  0  0  0  0  0  0
    9.3397   -2.9500    1.4333 C   0  0  0  0  0  0  0  0  0  0  0  0
    9.5673   -2.3576    0.1998 C   0  0  0  0  0  0  0  0  0  0  0  0
   10.0344   -3.1031   -0.9129 C   0  0  0  0  0  0  0  0  0  0  0  0
    7.2965   -1.2447   -1.7188 C   0  0  2  0  0  0  0  0  0  0  0  0
    6.7186   -2.3451   -2.6256 C   0  0  0  0  0  0  0  0  0  0  0  0
    6.9565   -2.3689   -4.0076 C   0  0  0  0  0  0  0  0  0  0  0  0
    6.3949   -3.3987   -4.7644 C   0  0  0  0  0  0  0  0  0  0  0  0
    5.6292   -4.3729   -4.1219 C   0  0  0  0  0  0  0  0  0  0  0  0
    5.4515   -4.2655   -2.7400 C   0  0  0  0  0  0  0  0  0  0  0  0
    5.9785   -3.2765   -2.0153 N   0  0  0  0  0  0  0  0  0  0  0  0
    4.9502   -1.1936    0.0641 C   0  0  0  0  0  0  0  0  0  0  0  0
    3.9264   -1.1125    0.9861 C   0  0  0  0  0  0  0  0  0  0  0  0
    3.4621   -2.5554    1.8429 Cl  0  0  0  0  0  0  0  0  0  0  0  0
    1.7177    1.1857    2.3477 H   0  0  0  0  0  0  0  0  0  0  0  0
    2.4980   -0.1357    3.2710 H   0  0  0  0  0  0  0  0  0  0  0  0
    1.3196   -0.5301    2.0250 H   0  0  0  0  0  0  0  0  0  0  0  0
    3.1281    2.1878    0.7194 H   0  0  0  0  0  0  0  0  0  0  0  0
    4.9428    2.1002   -0.9355 H   0  0  0  0  0  0  0  0  0  0  0  0
   10.0733    0.3116   -3.7285 H   0  0  0  0  0  0  0  0  0  0  0  0
   11.2830   -2.7902   -4.1061 H   0  0  0  0  0  0  0  0  0  0  0  0
   11.9504   -5.1386   -3.6722 H   0  0  0  0  0  0  0  0  0  0  0  0
   11.3107   -6.2580   -1.5382 H   0  0  0  0  0  0  0  0  0  0  0  0
   10.3617   -6.1243    0.7208 H   0  0  0  0  0  0  0  0  0  0  0  0
    9.3996   -4.7957    2.5844 H   0  0  0  0  0  0  0  0  0  0  0  0
    8.9902   -2.3430    2.2725 H   0  0  0  0  0  0  0  0  0  0  0  0
    9.4261   -1.2811    0.0869 H   0  0  0  0  0  0  0  0  0  0  0  0
    7.4236   -1.6885   -0.7241 H   0  0  0  0  0  0  0  0  0  0  0  0
    7.5832   -1.6081   -4.4736 H   0  0  0  0  0  0  0  0  0  0  0  0
    6.5641   -3.4433   -5.8432 H   0  0  0  0  0  0  0  0  0  0  0  0
    5.1801   -5.2010   -4.6745 H   0  0  0  0  0  0  0  0  0  0  0  0
    4.8590   -5.0092   -2.1951 H   0  0  0  0  0  0  0  0  0  0  0  0
    5.4035   -2.1603   -0.1581 H   0  0  0  0  0  0  0  0  0  0  0  0
  1  2  1  0
  1 34  1  0
  1 35  1  0
  1 36  1  0
  2  3  2  0
  2 32  1  0
  3  4  1  0
  3 37  1  0
  4  5  2  0
  4 38  1  0
  5  6  1  0
  5 31  1  0
  6  7  1  0
  6 24  1  0
  7  8  2  0
  7  9  1  0
  9 10  2  0
  9 11  1  0
 11 12  2  0
 11 24  1  0
 12 13  1  0
 12 14  1  0
 13 39  1  0
 14 15  2  0
 14 23  1  0
 15 16  1  0
 15 40  1  0
 16 17  2  0
 16 41  1  0
 17 18  1  0
 17 42  1  0
 18 19  1  0
 18 23  2  0
 19 20  2  0
 19 43  1  0
 20 21  1  0
 20 44  1  0
 21 22  2  0
 21 45  1  0
 22 23  1  0
 22 46  1  0
 24 25  1  0
 24 47  1  1
 25 26  2  0
 25 30  1  0
 26 27  1  0
 26 48  1  0
 27 28  2  0
 27 49  1  0
 28 29  1  0
 28 50  1  0
 29 30  2  0
 29 51  1  0
 31 32  2  0
 31 52  1  0
 32 33  1  0
M  END

