
     RDKit          3D

 45 46  0  0  0  0  0  0  0  0999 V2000
    1.9842    0.2572    1.0320 C   0  0  0  0  0  0  0  0  0  0  0  0
    3.0404   -0.4377    0.1496 C   0  0  1  0  0  0  0  0  0  0  0  0
    4.1315   -1.0219    1.0623 C   0  0  0  0  0  0  0  0  0  0  0  0
    2.3959   -1.5852   -0.6693 C   0  0  0  0  0  0  0  0  0  0  0  0
    1.4600   -1.1013   -1.7858 C   0  0  0  0  0  0  0  0  0  0  0  0
    2.1208   -0.0981   -2.7473 C   0  0  2  0  0  0  0  0  0  0  0  0
    1.1351    0.5040   -3.5978 O   0  0  0  0  0  0  0  0  0  0  0  0
    3.1510   -0.8075   -3.6549 C   0  0  0  0  0  0  0  0  0  0  0  0
    3.7376    0.0946   -4.6214 N   0  0  0  0  0  0  0  0  0  0  0  0
    5.0811    0.2914   -4.7367 C   0  0  0  0  0  0  0  0  0  0  0  0
    5.9049   -0.3237   -4.0748 O   0  0  0  0  0  0  0  0  0  0  0  0
    5.5041    1.3460   -5.7641 C   0  0  0  0  0  0  0  0  0  0  0  0
    6.2653    0.7669   -6.9424 C   0  0  0  0  0  0  0  0  0  0  0  0
    5.8364    1.0021   -8.2562 C   0  0  0  0  0  0  0  0  0  0  0  0
    6.5353    0.4887   -9.3526 C   0  0  0  0  0  0  0  0  0  0  0  0
    7.6812   -0.2771   -9.1313 C   0  0  0  0  0  0  0  0  0  0  0  0
    8.5683   -0.9253  -10.4949 Cl  0  0  0  0  0  0  0  0  0  0  0  0
    8.1272   -0.5307   -7.8304 C   0  0  0  0  0  0  0  0  0  0  0  0
    7.4214   -0.0078   -6.7464 C   0  0  0  0  0  0  0  0  0  0  0  0
    2.7378    1.0535   -1.9405 C   0  0  0  0  0  0  0  0  0  0  0  0
    3.6838    0.5729   -0.8338 C   0  0  0  0  0  0  0  0  0  0  0  0
    1.5336   -0.4584    1.7396 H   0  0  0  0  0  0  0  0  0  0  0  0
    1.1652    0.7028    0.4477 H   0  0  0  0  0  0  0  0  0  0  0  0
    2.4433    1.0661    1.6237 H   0  0  0  0  0  0  0  0  0  0  0  0
    3.7103   -1.7581    1.7670 H   0  0  0  0  0  0  0  0  0  0  0  0
    4.6163   -0.2298    1.6566 H   0  0  0  0  0  0  0  0  0  0  0  0
    4.9159   -1.5269    0.4753 H   0  0  0  0  0  0  0  0  0  0  0  0
    1.8425   -2.2576    0.0088 H   0  0  0  0  0  0  0  0  0  0  0  0
    3.2016   -2.1990   -1.1080 H   0  0  0  0  0  0  0  0  0  0  0  0
    0.5750   -0.6026   -1.3577 H   0  0  0  0  0  0  0  0  0  0  0  0
    1.0817   -1.9684   -2.3588 H   0  0  0  0  0  0  0  0  0  0  0  0
    0.5817   -0.2025   -3.9597 H   0  0  0  0  0  0  0  0  0  0  0  0
    2.6335   -1.6364   -4.1759 H   0  0  0  0  0  0  0  0  0  0  0  0
    3.9779   -1.2508   -3.0853 H   0  0  0  0  0  0  0  0  0  0  0  0
    3.0927    0.6860   -5.1331 H   0  0  0  0  0  0  0  0  0  0  0  0
    6.1532    2.0503   -5.2163 H   0  0  0  0  0  0  0  0  0  0  0  0
    4.6365    1.9183   -6.1257 H   0  0  0  0  0  0  0  0  0  0  0  0
    4.9398    1.6028   -8.4349 H   0  0  0  0  0  0  0  0  0  0  0  0
    6.1953    0.6794  -10.3718 H   0  0  0  0  0  0  0  0  0  0  0  0
    9.0229   -1.1339   -7.6726 H   0  0  0  0  0  0  0  0  0  0  0  0
    7.7538   -0.2152   -5.7276 H   0  0  0  0  0  0  0  0  0  0  0  0
    1.8999    1.6322   -1.5203 H   0  0  0  0  0  0  0  0  0  0  0  0
    3.2661    1.7348   -2.6259 H   0  0  0  0  0  0  0  0  0  0  0  0
    4.0576    1.4443   -0.2693 H   0  0  0  0  0  0  0  0  0  0  0  0
    4.5746    0.1093   -1.2923 H   0  0  0  0  0  0  0  0  0  0  0  0
  2  1  1  1
  1 22  1  0
  1 23  1  0
  1 24  1  0
  2  3  1  0
  2  4  1  0
  2 21  1  0
  3 25  1  0
  3 26  1  0
  3 27  1  0
  4  5  1  0
  4 28  1  0
  4 29  1  0
  5  6  1  0
  5 30  1  0
  5 31  1  0
  6  7  1  6
  6  8  1  0
  6 20  1  0
  7 32  1  0
  8  9  1  0
  8 33  1  0
  8 34  1  0
  9 10  1  0
  9 35  1  0
 10 11  2  0
 10 12  1  0
 12 13  1  0
 12 36  1  0
 12 37  1  0
 13 14  2  0
 13 19  1  0
 14 15  1  0
 14 38  1  0
 15 16  2  0
 15 39  1  0
 16 17  1  0
 16 18  1  0
 18 19  2  0
 18 40  1  0
 19 41  1  0
 20 21  1  0
 20 42  1  0
 20 43  1  0
 21 44  1  0
 21 45  1  0
M  END

