
     RDKit          3D

 60 62  0  0  0  0  0  0  0  0999 V2000
    6.0012   -3.1087    1.1947 C   0  0  0  0  0  0  0  0  0  0  0  0
    6.2138   -1.9821    0.2236 C   0  0  0  0  0  0  0  0  0  0  0  0
    5.0746   -1.4403   -0.5015 C   0  0  0  0  0  0  0  0  0  0  0  0
    5.2725   -0.4237   -1.4409 C   0  0  0  0  0  0  0  0  0  0  0  0
    6.5278    0.1357   -1.6934 C   0  0  0  0  0  0  0  0  0  0  0  0
    6.8201    1.1360   -2.7765 C   0  0  1  0  0  0  0  0  0  0  0  0
    5.6722    1.5247   -3.7488 C   0  0  0  0  0  0  0  0  0  0  0  0
    4.6241    2.4715   -3.1487 C   0  0  0  0  0  0  0  0  0  0  0  0
    5.2785    3.7107   -2.5375 C   0  0  0  0  0  0  0  0  0  0  0  0
    6.3966    3.2997   -1.5555 C   0  0  0  0  0  0  0  0  0  0  0  0
    7.3492    2.4513   -2.2393 N   0  0  0  0  0  0  0  0  0  0  0  0
    8.6908    2.8455   -2.4107 C   0  0  0  0  0  0  0  0  0  0  0  0
    9.6358    2.5321   -1.1547 C   0  0  0  0  0  0  0  0  0  0  0  0
   10.7808    2.2075   -1.3842 O   0  0  0  0  0  0  0  0  0  0  0  0
    9.0812    2.7182    0.0452 N   0  0  0  0  0  0  0  0  0  0  0  0
    9.6973    2.2893    1.2947 C   0  0  1  0  0  0  0  0  0  0  0  0
   10.7150    3.3137    1.8184 C   0  0  0  0  0  0  0  0  0  0  0  0
    8.5041    2.1188    2.2680 C   0  0  0  0  0  0  0  0  0  0  0  0
    7.4635    2.7252    2.0141 O   0  0  0  0  0  0  0  0  0  0  0  0
    8.6637    1.3564    3.3769 N   0  0  0  0  0  0  0  0  0  0  0  0
    7.5227    1.1704    4.2836 C   0  0  0  0  0  0  0  0  0  0  0  0
    7.0679   -0.2926    4.2902 C   0  0  0  0  0  0  0  0  0  0  0  0
    8.2336   -1.2310    4.6275 C   0  0  0  0  0  0  0  0  0  0  0  0
    9.4239   -0.9748    3.6947 C   0  0  0  0  0  0  0  0  0  0  0  0
    9.8158    0.5088    3.6879 C   0  0  0  0  0  0  0  0  0  0  0  0
    7.6803   -0.4036   -0.9712 C   0  0  0  0  0  0  0  0  0  0  0  0
    7.4688   -1.4631   -0.0597 C   0  0  0  0  0  0  0  0  0  0  0  0
    5.5353   -3.9902    0.7093 H   0  0  0  0  0  0  0  0  0  0  0  0
    5.3146   -2.8278    2.0193 H   0  0  0  0  0  0  0  0  0  0  0  0
    6.9479   -3.4448    1.6490 H   0  0  0  0  0  0  0  0  0  0  0  0
    4.0734   -1.8412   -0.3306 H   0  0  0  0  0  0  0  0  0  0  0  0
    4.3947   -0.0767   -1.9944 H   0  0  0  0  0  0  0  0  0  0  0  0
    7.6630    0.7641   -3.3915 H   0  0  0  0  0  0  0  0  0  0  0  0
    5.2098    0.5931   -4.1010 H   0  0  0  0  0  0  0  0  0  0  0  0
    6.1205    2.0112   -4.6331 H   0  0  0  0  0  0  0  0  0  0  0  0
    4.0384    1.9549   -2.3758 H   0  0  0  0  0  0  0  0  0  0  0  0
    3.9137    2.7783   -3.9347 H   0  0  0  0  0  0  0  0  0  0  0  0
    4.5499    4.3267   -1.9882 H   0  0  0  0  0  0  0  0  0  0  0  0
    5.7153    4.3498   -3.3251 H   0  0  0  0  0  0  0  0  0  0  0  0
    5.9646    2.7132   -0.7271 H   0  0  0  0  0  0  0  0  0  0  0  0
    6.9089    4.1824   -1.1474 H   0  0  0  0  0  0  0  0  0  0  0  0
    8.7777    3.9341   -2.5695 H   0  0  0  0  0  0  0  0  0  0  0  0
    9.1552    2.3043   -3.2422 H   0  0  0  0  0  0  0  0  0  0  0  0
    8.0891    2.9243    0.1706 H   0  0  0  0  0  0  0  0  0  0  0  0
   10.1978    1.3281    1.1075 H   0  0  0  0  0  0  0  0  0  0  0  0
   10.2195    4.2772    2.0126 H   0  0  0  0  0  0  0  0  0  0  0  0
   11.5071    3.4641    1.0704 H   0  0  0  0  0  0  0  0  0  0  0  0
   11.1834    2.9713    2.7530 H   0  0  0  0  0  0  0  0  0  0  0  0
    6.7237    1.8433    3.9529 H   0  0  0  0  0  0  0  0  0  0  0  0
    7.8384    1.4771    5.2985 H   0  0  0  0  0  0  0  0  0  0  0  0
    6.6628   -0.5434    3.2953 H   0  0  0  0  0  0  0  0  0  0  0  0
    6.2468   -0.4133    5.0161 H   0  0  0  0  0  0  0  0  0  0  0  0
    7.9141   -2.2828    4.5547 H   0  0  0  0  0  0  0  0  0  0  0  0
    8.5474   -1.0687    5.6761 H   0  0  0  0  0  0  0  0  0  0  0  0
    9.1570   -1.2725    2.6672 H   0  0  0  0  0  0  0  0  0  0  0  0
   10.2978   -1.5767    3.9952 H   0  0  0  0  0  0  0  0  0  0  0  0
   10.6280    0.6907    2.9754 H   0  0  0  0  0  0  0  0  0  0  0  0
   10.1957    0.8009    4.6853 H   0  0  0  0  0  0  0  0  0  0  0  0
    8.6984   -0.1491   -1.2746 H   0  0  0  0  0  0  0  0  0  0  0  0
    8.3427   -1.9147    0.4281 H   0  0  0  0  0  0  0  0  0  0  0  0
  1  2  1  0
  1 28  1  0
  1 29  1  0
  1 30  1  0
  2  3  2  0
  2 27  1  0
  3  4  1  0
  3 31  1  0
  4  5  2  0
  4 32  1  0
  5  6  1  0
  5 26  1  0
  6  7  1  0
  6 11  1  0
  6 33  1  6
  7  8  1  0
  7 34  1  0
  7 35  1  0
  8  9  1  0
  8 36  1  0
  8 37  1  0
  9 10  1  0
  9 38  1  0
  9 39  1  0
 10 11  1  0
 10 40  1  0
 10 41  1  0
 11 12  1  0
 12 13  1  0
 12 42  1  0
 12 43  1  0
 13 14  2  0
 13 15  1  0
 15 16  1  0
 15 44  1  0
 16 17  1  0
 16 18  1  0
 16 45  1  6
 17 46  1  0
 17 47  1  0
 17 48  1  0
 18 19  2  0
 18 20  1  0
 20 21  1  0
 20 25  1  0
 21 22  1  0
 21 49  1  0
 21 50  1  0
 22 23  1  0
 22 51  1  0
 22 52  1  0
 23 24  1  0
 23 53  1  0
 23 54  1  0
 24 25  1  0
 24 55  1  0
 24 56  1  0
 25 57  1  0
 25 58  1  0
 26 27  2  0
 26 59  1  0
 27 60  1  0
M  END

