
     RDKit          3D

 34 34  0  0  0  0  0  0  0  0999 V2000
    5.3266   -3.9484   -1.3969 N   0  0  0  0  0  0  0  0  0  0  0  0
    4.8585   -2.6960   -1.7450 C   0  0  0  0  0  0  0  0  0  0  0  0
    3.9608   -2.1358   -1.1362 O   0  0  0  0  0  0  0  0  0  0  0  0
    5.4786   -2.1297   -2.8424 N   0  0  0  0  0  0  0  0  0  0  0  0
    4.9187   -0.9349   -3.4609 C   0  0  0  0  0  0  0  0  0  0  0  0
    5.1567    0.3434   -2.6459 C   0  0  0  0  0  0  0  0  0  0  0  0
    6.5584    0.6108   -2.3583 N   0  0  0  0  0  0  0  0  0  0  0  0
    7.4012    1.0878   -3.3176 C   0  0  0  0  0  0  0  0  0  0  0  0
    6.9756    1.4068   -4.4398 O   0  0  0  0  0  0  0  0  0  0  0  0
    8.7241    1.2221   -2.9740 N   0  0  0  0  0  0  0  0  0  0  0  0
    9.2799    0.9726   -1.6421 C   0  0  0  0  0  0  0  0  0  0  0  0
   10.5478    1.8411   -1.6182 C   0  0  2  0  0  0  0  0  0  0  0  0
   10.2831    3.1616   -1.1952 O   0  0  0  0  0  0  0  0  0  0  0  0
   11.0187    1.7555   -3.0738 C   0  0  0  0  0  0  0  0  0  0  0  0
    9.7205    1.7890   -3.9023 C   0  0  1  0  0  0  0  0  0  0  0  0
    9.4328    2.8373   -4.1502 H   0  0  0  0  0  0  0  0  0  0  0  0
    9.8425    1.0416   -5.2377 C   0  0  0  0  0  0  0  0  0  0  0  0
   11.0813    1.0809   -5.7298 O   0  0  0  0  0  0  0  0  0  0  0  0
    8.8979    1.2579   -6.1690 O   0  0  0  0  0  0  0  0  0  0  0  0
    5.0035   -4.2886   -0.4992 H   0  0  0  0  0  0  0  0  0  0  0  0
    6.2472   -4.2557   -1.6864 H   0  0  0  0  0  0  0  0  0  0  0  0
    6.0236   -2.7367   -3.4428 H   0  0  0  0  0  0  0  0  0  0  0  0
    3.8298   -1.0450   -3.6083 H   0  0  0  0  0  0  0  0  0  0  0  0
    5.3866   -0.8196   -4.4488 H   0  0  0  0  0  0  0  0  0  0  0  0
    4.6246    0.2645   -1.6887 H   0  0  0  0  0  0  0  0  0  0  0  0
    4.7450    1.1962   -3.2050 H   0  0  0  0  0  0  0  0  0  0  0  0
    6.9467    0.2000   -1.5205 H   0  0  0  0  0  0  0  0  0  0  0  0
    9.5177   -0.0981   -1.4919 H   0  0  0  0  0  0  0  0  0  0  0  0
    8.5905    1.2986   -0.8483 H   0  0  0  0  0  0  0  0  0  0  0  0
   11.2914    1.4433   -0.9121 H   0  0  0  0  0  0  0  0  0  0  0  0
    9.7211    3.5936   -1.8544 H   0  0  0  0  0  0  0  0  0  0  0  0
   11.5373    0.7984   -3.2397 H   0  0  0  0  0  0  0  0  0  0  0  0
   11.7080    2.5688   -3.3368 H   0  0  0  0  0  0  0  0  0  0  0  0
    8.0426    1.3544   -5.6621 H   0  0  0  0  0  0  0  0  0  0  0  0
  1  2  1  0
  1 20  1  0
  1 21  1  0
  2  3  2  0
  2  4  1  0
  4  5  1  0
  4 22  1  0
  5  6  1  0
  5 23  1  0
  5 24  1  0
  6  7  1  0
  6 25  1  0
  6 26  1  0
  7  8  1  0
  7 27  1  0
  8  9  2  0
  8 10  1  0
 10 11  1  0
 10 15  1  0
 11 12  1  0
 11 28  1  0
 11 29  1  0
 12 13  1  0
 12 14  1  0
 12 30  1  1
 13 31  1  0
 14 15  1  0
 14 32  1  0
 14 33  1  0
 15 16  1  6
 15 17  1  0
 17 18  2  0
 17 19  1  0
 19 34  1  0
M  END

