
     RDKit          3D

 50 50  0  0  0  0  0  0  0  0999 V2000
    9.1254   -1.2315    3.3047 C   0  0  0  0  0  0  0  0  0  0  0  0
    8.0142   -0.9420    2.2946 C   0  0  0  0  0  0  0  0  0  0  0  0
    8.2996   -1.4929    0.8939 C   0  0  0  0  0  0  0  0  0  0  0  0
    7.1918   -1.2065   -0.1239 C   0  0  0  0  0  0  0  0  0  0  0  0
    7.4859   -1.7496   -1.5249 C   0  0  0  0  0  0  0  0  0  0  0  0
    6.3678   -1.4610   -2.5432 C   0  0  0  0  0  0  0  0  0  0  0  0
    6.6684   -1.9854   -3.9294 C   0  0  0  0  0  0  0  0  0  0  0  0
    7.3535   -1.2062   -4.8738 C   0  0  0  0  0  0  0  0  0  0  0  0
    7.6702   -1.7033   -6.1410 C   0  0  0  0  0  0  0  0  0  0  0  0
    7.3193   -3.0032   -6.5322 C   0  0  0  0  0  0  0  0  0  0  0  0
    7.6667   -3.5407   -7.9142 C   0  0  0  0  0  0  0  0  0  0  0  0
    8.4420   -2.6043   -8.8452 C   0  0  0  0  0  0  0  0  0  0  0  0
    8.7553   -3.2435  -10.2020 C   0  0  0  0  0  0  0  0  0  0  0  0
    9.5349   -2.3273  -11.1495 C   0  0  0  0  0  0  0  0  0  0  0  0
    9.8497   -2.9626  -12.5075 C   0  0  0  0  0  0  0  0  0  0  0  0
   10.6313   -2.0430  -13.4467 C   0  0  0  0  0  0  0  0  0  0  0  0
    6.6228   -3.7950   -5.5823 C   0  0  0  0  0  0  0  0  0  0  0  0
    6.1837   -5.1865   -5.8716 C   0  0  0  0  0  0  0  0  0  0  0  0
    5.5842   -5.8894   -5.0861 O   0  0  0  0  0  0  0  0  0  0  0  0
    6.3130   -3.2812   -4.3123 C   0  0  0  0  0  0  0  0  0  0  0  0
    8.8865   -0.8209    4.2988 H   0  0  0  0  0  0  0  0  0  0  0  0
   10.0841   -0.7899    2.9843 H   0  0  0  0  0  0  0  0  0  0  0  0
    9.2872   -2.3161    3.4233 H   0  0  0  0  0  0  0  0  0  0  0  0
    7.8508    0.1493    2.2283 H   0  0  0  0  0  0  0  0  0  0  0  0
    7.0615   -1.3643    2.6633 H   0  0  0  0  0  0  0  0  0  0  0  0
    8.4628   -2.5850    0.9583 H   0  0  0  0  0  0  0  0  0  0  0  0
    9.2529   -1.0707    0.5241 H   0  0  0  0  0  0  0  0  0  0  0  0
    7.0239   -0.1149   -0.1838 H   0  0  0  0  0  0  0  0  0  0  0  0
    6.2400   -1.6350    0.2417 H   0  0  0  0  0  0  0  0  0  0  0  0
    7.6528   -2.8404   -1.4734 H   0  0  0  0  0  0  0  0  0  0  0  0
    8.4330   -1.3192   -1.8979 H   0  0  0  0  0  0  0  0  0  0  0  0
    6.1983   -0.3713   -2.5914 H   0  0  0  0  0  0  0  0  0  0  0  0
    5.4261   -1.9060   -2.1792 H   0  0  0  0  0  0  0  0  0  0  0  0
    7.6451   -0.1830   -4.6171 H   0  0  0  0  0  0  0  0  0  0  0  0
    8.2015   -1.0513   -6.8352 H   0  0  0  0  0  0  0  0  0  0  0  0
    6.7353   -3.8447   -8.4248 H   0  0  0  0  0  0  0  0  0  0  0  0
    8.2477   -4.4730   -7.7991 H   0  0  0  0  0  0  0  0  0  0  0  0
    9.3873   -2.2970   -8.3634 H   0  0  0  0  0  0  0  0  0  0  0  0
    7.8660   -1.6762   -9.0083 H   0  0  0  0  0  0  0  0  0  0  0  0
    7.8108   -3.5523  -10.6875 H   0  0  0  0  0  0  0  0  0  0  0  0
    9.3278   -4.1762  -10.0431 H   0  0  0  0  0  0  0  0  0  0  0  0
   10.4799   -2.0194  -10.6639 H   0  0  0  0  0  0  0  0  0  0  0  0
    8.9630   -1.3938  -11.3079 H   0  0  0  0  0  0  0  0  0  0  0  0
    8.9046   -3.2684  -12.9923 H   0  0  0  0  0  0  0  0  0  0  0  0
   10.4188   -3.8965  -12.3472 H   0  0  0  0  0  0  0  0  0  0  0  0
   10.0727   -1.1154  -13.6570 H   0  0  0  0  0  0  0  0  0  0  0  0
   10.8391   -2.5315  -14.4121 H   0  0  0  0  0  0  0  0  0  0  0  0
   11.5998   -1.7503  -13.0072 H   0  0  0  0  0  0  0  0  0  0  0  0
    6.4360   -5.5815   -6.8849 H   0  0  0  0  0  0  0  0  0  0  0  0
    5.7723   -3.9393   -3.6268 H   0  0  0  0  0  0  0  0  0  0  0  0
  1  2  1  0
  1 21  1  0
  1 22  1  0
  1 23  1  0
  2  3  1  0
  2 24  1  0
  2 25  1  0
  3  4  1  0
  3 26  1  0
  3 27  1  0
  4  5  1  0
  4 28  1  0
  4 29  1  0
  5  6  1  0
  5 30  1  0
  5 31  1  0
  6  7  1  0
  6 32  1  0
  6 33  1  0
  7  8  2  0
  7 20  1  0
  8  9  1  0
  8 34  1  0
  9 10  2  0
  9 35  1  0
 10 11  1  0
 10 17  1  0
 11 12  1  0
 11 36  1  0
 11 37  1  0
 12 13  1  0
 12 38  1  0
 12 39  1  0
 13 14  1  0
 13 40  1  0
 13 41  1  0
 14 15  1  0
 14 42  1  0
 14 43  1  0
 15 16  1  0
 15 44  1  0
 15 45  1  0
 16 46  1  0
 16 47  1  0
 16 48  1  0
 17 18  1  0
 17 20  2  0
 18 19  2  0
 18 49  1  0
 20 50  1  0
M  END

