
     RDKit          3D

 55 57  0  0  0  0  0  0  0  0999 V2000
    3.6056   -6.2222    0.0316 C   0  0  0  0  0  0  0  0  0  0  0  0
    4.4958   -5.0192    0.0921 C   0  0  0  0  0  0  0  0  0  0  0  0
    5.6916   -5.0036    0.5998 N   0  0  0  0  0  0  0  0  0  0  0  0
    6.2663   -3.7596    0.5218 C   0  0  0  0  0  0  0  0  0  0  0  0
    5.5112   -2.7734   -0.0586 C   0  0  0  0  0  0  0  0  0  0  0  0
    5.8443   -1.3139   -0.2487 C   0  0  0  0  0  0  0  0  0  0  0  0
    7.2797   -1.0991   -0.3649 N   0  0  0  0  0  0  0  0  0  0  0  0
    7.8705   -1.4815   -1.6492 C   0  0  0  0  0  0  0  0  0  0  0  0
    7.6654   -0.4261   -2.7404 C   0  0  0  0  0  0  0  0  0  0  0  0
    8.1137    0.8879   -2.2847 N   0  0  0  0  0  0  0  0  0  0  0  0
    8.7881    1.6984   -3.1914 C   0  0  0  0  0  0  0  0  0  0  0  0
    9.2460    1.2555   -4.2383 O   0  0  0  0  0  0  0  0  0  0  0  0
    8.9374    3.0224   -2.8428 N   0  0  0  0  0  0  0  0  0  0  0  0
    9.6774    3.9381   -3.6940 C   0  0  0  0  0  0  0  0  0  0  0  0
    8.9343    4.3679   -4.9800 C   0  0  1  0  0  0  0  0  0  0  0  0
    7.5756    5.0341   -4.6969 C   0  0  0  0  0  0  0  0  0  0  0  0
    7.7466    6.3553   -4.1027 N   0  0  0  0  0  0  0  0  0  0  0  0
    6.4931    6.9531   -3.6954 C   0  0  0  0  0  0  0  0  0  0  0  0
    8.5232    7.2222   -4.9813 C   0  0  0  0  0  0  0  0  0  0  0  0
    9.8892    6.5883   -5.2744 C   0  0  0  0  0  0  0  0  0  0  0  0
    9.8098    5.2244   -5.7868 N   0  0  0  0  0  0  0  0  0  0  0  0
    9.6195    5.1182   -7.2218 C   0  0  0  0  0  0  0  0  0  0  0  0
    7.5844    1.3181   -0.9996 C   0  0  0  0  0  0  0  0  0  0  0  0
    7.7703    0.2048    0.0509 C   0  0  0  0  0  0  0  0  0  0  0  0
    3.9812   -3.4553   -0.5437 S   0  0  0  0  0  0  0  0  0  0  0  0
    4.1422   -7.0707    0.4773 H   0  0  0  0  0  0  0  0  0  0  0  0
    3.3363   -6.4789   -1.0059 H   0  0  0  0  0  0  0  0  0  0  0  0
    2.6679   -6.0642    0.5892 H   0  0  0  0  0  0  0  0  0  0  0  0
    7.2755   -3.5978    0.9023 H   0  0  0  0  0  0  0  0  0  0  0  0
    5.4932   -0.7502    0.6341 H   0  0  0  0  0  0  0  0  0  0  0  0
    5.2558   -0.9166   -1.1042 H   0  0  0  0  0  0  0  0  0  0  0  0
    7.4486   -2.4461   -1.9697 H   0  0  0  0  0  0  0  0  0  0  0  0
    8.9539   -1.6313   -1.4976 H   0  0  0  0  0  0  0  0  0  0  0  0
    6.5945   -0.3792   -3.0280 H   0  0  0  0  0  0  0  0  0  0  0  0
    8.2366   -0.6750   -3.6432 H   0  0  0  0  0  0  0  0  0  0  0  0
    8.3750    3.4190   -2.1037 H   0  0  0  0  0  0  0  0  0  0  0  0
   10.6164    3.4595   -4.0047 H   0  0  0  0  0  0  0  0  0  0  0  0
    9.9240    4.8196   -3.0857 H   0  0  0  0  0  0  0  0  0  0  0  0
    8.7522    3.4438   -5.5481 H   0  0  0  0  0  0  0  0  0  0  0  0
    6.9888    4.4038   -4.0086 H   0  0  0  0  0  0  0  0  0  0  0  0
    6.9895    5.0906   -5.6450 H   0  0  0  0  0  0  0  0  0  0  0  0
    5.9693    6.2932   -2.9846 H   0  0  0  0  0  0  0  0  0  0  0  0
    5.7996    7.1451   -4.5477 H   0  0  0  0  0  0  0  0  0  0  0  0
    6.6763    7.9163   -3.1920 H   0  0  0  0  0  0  0  0  0  0  0  0
    8.6685    8.1988   -4.4887 H   0  0  0  0  0  0  0  0  0  0  0  0
    7.9768    7.4225   -5.9347 H   0  0  0  0  0  0  0  0  0  0  0  0
   10.4744    6.5927   -4.3381 H   0  0  0  0  0  0  0  0  0  0  0  0
   10.4450    7.2082   -5.9958 H   0  0  0  0  0  0  0  0  0  0  0  0
   10.4136    5.6777   -7.7434 H   0  0  0  0  0  0  0  0  0  0  0  0
    8.6448    5.4979   -7.6013 H   0  0  0  0  0  0  0  0  0  0  0  0
    9.7031    4.0637   -7.5284 H   0  0  0  0  0  0  0  0  0  0  0  0
    6.5109    1.5942   -1.0785 H   0  0  0  0  0  0  0  0  0  0  0  0
    8.1299    2.2040   -0.6450 H   0  0  0  0  0  0  0  0  0  0  0  0
    7.2827    0.5001    0.9939 H   0  0  0  0  0  0  0  0  0  0  0  0
    8.8525    0.1121    0.2532 H   0  0  0  0  0  0  0  0  0  0  0  0
  1  2  1  0
  1 26  1  0
  1 27  1  0
  1 28  1  0
  2  3  2  0
  2 25  1  0
  3  4  1  0
  4  5  2  0
  4 29  1  0
  5  6  1  0
  5 25  1  0
  6  7  1  0
  6 30  1  0
  6 31  1  0
  7  8  1  0
  7 24  1  0
  8  9  1  0
  8 32  1  0
  8 33  1  0
  9 10  1  0
  9 34  1  0
  9 35  1  0
 10 11  1  0
 10 23  1  0
 11 12  2  0
 11 13  1  0
 13 14  1  0
 13 36  1  0
 14 15  1  0
 14 37  1  0
 14 38  1  0
 15 16  1  0
 15 21  1  0
 15 39  1  6
 16 17  1  0
 16 40  1  0
 16 41  1  0
 17 18  1  0
 17 19  1  0
 18 42  1  0
 18 43  1  0
 18 44  1  0
 19 20  1  0
 19 45  1  0
 19 46  1  0
 20 21  1  0
 20 47  1  0
 20 48  1  0
 21 22  1  0
 22 49  1  0
 22 50  1  0
 22 51  1  0
 23 24  1  0
 23 52  1  0
 23 53  1  0
 24 54  1  0
 24 55  1  0
M  END

