
     RDKit          3D

 48 50  0  0  0  0  0  0  0  0999 V2000
    4.8159   -0.3464    1.9198 C   0  0  0  0  0  0  0  0  0  0  0  0
    3.5800   -1.1056    1.4382 C   0  0  0  0  0  0  0  0  0  0  0  0
    3.4262   -2.4910    2.0815 C   0  0  1  0  0  0  0  0  0  0  0  0
    2.2028   -3.2662    1.5756 C   0  0  0  0  0  0  0  0  0  0  0  0
    2.4315   -3.7802    0.2293 N   0  0  0  0  0  0  0  0  0  0  0  0
    1.4765   -3.5853   -0.7359 C   0  0  0  0  0  0  0  0  0  0  0  0
    0.5303   -2.8292   -0.5821 O   0  0  0  0  0  0  0  0  0  0  0  0
    1.6511   -4.2621   -2.0839 C   0  0  0  0  0  0  0  0  0  0  0  0
    1.7467   -3.4096   -3.1919 C   0  0  0  0  0  0  0  0  0  0  0  0
    1.8044   -3.9171   -4.4913 C   0  0  0  0  0  0  0  0  0  0  0  0
    1.7400   -5.2964   -4.7020 C   0  0  0  0  0  0  0  0  0  0  0  0
    1.6381   -6.1573   -3.6084 C   0  0  0  0  0  0  0  0  0  0  0  0
    1.5999   -5.6613   -2.2926 C   0  0  0  0  0  0  0  0  0  0  0  0
    1.3741   -6.5922   -1.1303 C   0  0  0  0  0  0  0  0  0  0  0  0
    0.6904   -6.2287   -0.1875 O   0  0  0  0  0  0  0  0  0  0  0  0
    1.9803   -7.9663   -1.1295 C   0  0  0  0  0  0  0  0  0  0  0  0
    1.3882   -8.9420   -0.3076 C   0  0  0  0  0  0  0  0  0  0  0  0
    1.9294  -10.2212   -0.2181 C   0  0  0  0  0  0  0  0  0  0  0  0
    3.0957  -10.5681   -0.9235 C   0  0  0  0  0  0  0  0  0  0  0  0
    3.7035  -11.9421   -0.7936 C   0  0  0  0  0  0  0  0  0  0  0  0
    3.6950   -9.5856   -1.7277 C   0  0  0  0  0  0  0  0  0  0  0  0
    3.1472   -8.3064   -1.8358 C   0  0  0  0  0  0  0  0  0  0  0  0
    3.6382   -4.5824    0.1120 C   0  0  0  0  0  0  0  0  0  0  0  0
    4.8325   -3.7867    0.6448 C   0  0  0  0  0  0  0  0  0  0  0  0
    4.6022   -3.2978    1.9491 O   0  0  0  0  0  0  0  0  0  0  0  0
    4.8892    0.6422    1.4397 H   0  0  0  0  0  0  0  0  0  0  0  0
    5.7381   -0.9048    1.6982 H   0  0  0  0  0  0  0  0  0  0  0  0
    4.7868   -0.1873    3.0108 H   0  0  0  0  0  0  0  0  0  0  0  0
    3.5940   -1.2007    0.3392 H   0  0  0  0  0  0  0  0  0  0  0  0
    2.6665   -0.5320    1.6710 H   0  0  0  0  0  0  0  0  0  0  0  0
    3.3157   -2.3557    3.1706 H   0  0  0  0  0  0  0  0  0  0  0  0
    1.3068   -2.6342    1.5486 H   0  0  0  0  0  0  0  0  0  0  0  0
    2.0107   -4.1200    2.2515 H   0  0  0  0  0  0  0  0  0  0  0  0
    1.7579   -2.3305   -3.0234 H   0  0  0  0  0  0  0  0  0  0  0  0
    1.8819   -3.2329   -5.3400 H   0  0  0  0  0  0  0  0  0  0  0  0
    1.7571   -5.7025   -5.7164 H   0  0  0  0  0  0  0  0  0  0  0  0
    1.5545   -7.2324   -3.7772 H   0  0  0  0  0  0  0  0  0  0  0  0
    0.4940   -8.6707    0.2571 H   0  0  0  0  0  0  0  0  0  0  0  0
    1.4420  -10.9690    0.4140 H   0  0  0  0  0  0  0  0  0  0  0  0
    2.9445  -12.6990   -0.5450 H   0  0  0  0  0  0  0  0  0  0  0  0
    4.4596  -11.9615    0.0112 H   0  0  0  0  0  0  0  0  0  0  0  0
    4.2092  -12.2516   -1.7210 H   0  0  0  0  0  0  0  0  0  0  0  0
    4.6082   -9.8259   -2.2797 H   0  0  0  0  0  0  0  0  0  0  0  0
    3.6459   -7.5639   -2.4617 H   0  0  0  0  0  0  0  0  0  0  0  0
    3.8158   -4.8543   -0.9367 H   0  0  0  0  0  0  0  0  0  0  0  0
    3.5279   -5.5160    0.6960 H   0  0  0  0  0  0  0  0  0  0  0  0
    5.0648   -2.9631   -0.0593 H   0  0  0  0  0  0  0  0  0  0  0  0
    5.7201   -4.4359    0.7059 H   0  0  0  0  0  0  0  0  0  0  0  0
  1  2  1  0
  1 26  1  0
  1 27  1  0
  1 28  1  0
  2  3  1  0
  2 29  1  0
  2 30  1  0
  3  4  1  0
  3 25  1  0
  3 31  1  1
  4  5  1  0
  4 32  1  0
  4 33  1  0
  5  6  1  0
  5 23  1  0
  6  7  2  0
  6  8  1  0
  8  9  2  0
  8 13  1  0
  9 10  1  0
  9 34  1  0
 10 11  2  0
 10 35  1  0
 11 12  1  0
 11 36  1  0
 12 13  2  0
 12 37  1  0
 13 14  1  0
 14 15  2  0
 14 16  1  0
 16 17  2  0
 16 22  1  0
 17 18  1  0
 17 38  1  0
 18 19  2  0
 18 39  1  0
 19 20  1  0
 19 21  1  0
 20 40  1  0
 20 41  1  0
 20 42  1  0
 21 22  2  0
 21 43  1  0
 22 44  1  0
 23 24  1  0
 23 45  1  0
 23 46  1  0
 24 25  1  0
 24 47  1  0
 24 48  1  0
M  END

