
     RDKit          3D

 43 44  0  0  0  0  0  0  0  0999 V2000
    1.9414   -1.3154   -1.1824 C   0  0  0  0  0  0  0  0  0  0  0  0
    2.2473   -0.3378   -0.0389 C   0  0  1  0  0  0  0  0  0  0  0  0
    2.9791   -1.0603    1.0986 C   0  0  0  0  0  0  0  0  0  0  0  0
    3.0514    0.9011   -0.5603 C   0  0  1  0  0  0  0  0  0  0  0  0
    2.5309    1.4466   -1.7989 N   0  0  0  0  0  0  0  0  0  0  0  0
    1.7008    2.5102   -1.9364 C   0  0  0  0  0  0  0  0  0  0  0  0
    1.1684    2.7864   -2.9980 O   0  0  0  0  0  0  0  0  0  0  0  0
    1.4333    3.3681   -0.6769 C   0  0  2  0  0  0  0  0  0  0  0  0
    0.0086    3.0149   -0.1893 C   0  0  0  0  0  0  0  0  0  0  0  0
    1.4808    4.8360   -1.1370 C   0  0  0  0  0  0  0  0  0  0  0  0
    2.4334    3.1189    0.3934 N   0  0  0  0  0  0  0  0  0  0  0  0
    2.4994    4.0559    1.5351 C   0  0  0  0  0  0  0  0  0  0  0  0
    3.5203    5.1753    1.4284 C   0  0  0  0  0  0  0  0  0  0  0  0
    3.1282    6.5159    1.5284 C   0  0  0  0  0  0  0  0  0  0  0  0
    4.0602    7.5563    1.4715 C   0  0  0  0  0  0  0  0  0  0  0  0
    5.4208    7.2675    1.3084 C   0  0  0  0  0  0  0  0  0  0  0  0
    6.3753    8.2316    1.2389 O   0  0  0  0  0  0  0  0  0  0  0  0
    5.8316    5.9286    1.2165 C   0  0  0  0  0  0  0  0  0  0  0  0
    4.8935    4.9016    1.2828 C   0  0  0  0  0  0  0  0  0  0  0  0
    3.1888    1.9853    0.5075 C   0  0  0  0  0  0  0  0  0  0  0  0
    3.9600    1.8016    1.4428 O   0  0  0  0  0  0  0  0  0  0  0  0
    1.4101   -2.1982   -0.7941 H   0  0  0  0  0  0  0  0  0  0  0  0
    2.8717   -1.6766   -1.6556 H   0  0  0  0  0  0  0  0  0  0  0  0
    1.3074   -0.8699   -1.9636 H   0  0  0  0  0  0  0  0  0  0  0  0
    1.2827    0.0399    0.3482 H   0  0  0  0  0  0  0  0  0  0  0  0
    3.9328   -1.4833    0.7391 H   0  0  0  0  0  0  0  0  0  0  0  0
    2.3652   -1.8950    1.4728 H   0  0  0  0  0  0  0  0  0  0  0  0
    3.2132   -0.3884    1.9336 H   0  0  0  0  0  0  0  0  0  0  0  0
    4.0846    0.5625   -0.7466 H   0  0  0  0  0  0  0  0  0  0  0  0
    2.6467    0.9039   -2.6498 H   0  0  0  0  0  0  0  0  0  0  0  0
   -0.7116    3.1841   -1.0024 H   0  0  0  0  0  0  0  0  0  0  0  0
   -0.2821    3.6440    0.6659 H   0  0  0  0  0  0  0  0  0  0  0  0
   -0.0592    1.9613    0.1217 H   0  0  0  0  0  0  0  0  0  0  0  0
    0.8385    4.9395   -2.0205 H   0  0  0  0  0  0  0  0  0  0  0  0
    2.5038    5.1304   -1.4113 H   0  0  0  0  0  0  0  0  0  0  0  0
    1.1205    5.5172   -0.3550 H   0  0  0  0  0  0  0  0  0  0  0  0
    2.7314    3.4417    2.4167 H   0  0  0  0  0  0  0  0  0  0  0  0
    1.4999    4.4866    1.6847 H   0  0  0  0  0  0  0  0  0  0  0  0
    2.0705    6.7649    1.6572 H   0  0  0  0  0  0  0  0  0  0  0  0
    3.7276    8.5964    1.5510 H   0  0  0  0  0  0  0  0  0  0  0  0
    5.9618    9.1009    1.3217 H   0  0  0  0  0  0  0  0  0  0  0  0
    6.8965    5.7145    1.1039 H   0  0  0  0  0  0  0  0  0  0  0  0
    5.2264    3.8627    1.2406 H   0  0  0  0  0  0  0  0  0  0  0  0
  1  2  1  0
  1 22  1  0
  1 23  1  0
  1 24  1  0
  2  3  1  0
  2  4  1  0
  2 25  1  1
  3 26  1  0
  3 27  1  0
  3 28  1  0
  4  5  1  0
  4 20  1  0
  4 29  1  6
  5  6  1  0
  5 30  1  0
  6  7  2  0
  6  8  1  0
  8  9  1  1
  8 10  1  0
  8 11  1  0
  9 31  1  0
  9 32  1  0
  9 33  1  0
 10 34  1  0
 10 35  1  0
 10 36  1  0
 11 12  1  0
 11 20  1  0
 12 13  1  0
 12 37  1  0
 12 38  1  0
 13 14  2  0
 13 19  1  0
 14 15  1  0
 14 39  1  0
 15 16  2  0
 15 40  1  0
 16 17  1  0
 16 18  1  0
 17 41  1  0
 18 19  2  0
 18 42  1  0
 19 43  1  0
 20 21  2  0
M  END

