
     RDKit          3D

 20 21  0  0  0  0  0  0  0  0999 V2000
    1.7670    1.2357    1.0571 C   0  0  0  0  0  0  0  0  0  0  0  0
    2.2622   -0.0030   -0.1500 S   0  0  0  0  0  0  0  0  0  0  0  0
    2.8357    1.0001   -1.5140 C   0  0  0  0  0  0  0  0  0  0  0  0
    2.5498    2.2727   -1.4999 N   0  0  0  0  0  0  0  0  0  0  0  0
    3.1462    2.9662   -2.9127 S   0  0  0  0  0  0  0  0  0  0  0  0
    3.8480    1.4401   -3.5696 C   0  0  0  0  0  0  0  0  0  0  0  0
    4.5284    1.3960   -4.7856 C   0  0  0  0  0  0  0  0  0  0  0  0
    5.1299    0.2934   -5.4475 C   0  0  0  0  0  0  0  0  0  0  0  0
    5.7320    0.6494   -6.6663 C   0  0  0  0  0  0  0  0  0  0  0  0
    5.6203    1.9921   -6.9837 C   0  0  0  0  0  0  0  0  0  0  0  0
    4.7519    2.8707   -5.7573 S   0  0  0  0  0  0  0  0  0  0  0  0
    3.5442    0.4130   -2.6018 C   0  0  0  0  0  0  0  0  0  0  0  0
    3.8795   -0.9540   -2.6686 C   0  0  0  0  0  0  0  0  0  0  0  0
    4.1379   -2.0938   -2.6866 N   0  0  0  0  0  0  0  0  0  0  0  0
    0.8913    0.8434    1.5913 H   0  0  0  0  0  0  0  0  0  0  0  0
    1.5619    2.1752    0.5247 H   0  0  0  0  0  0  0  0  0  0  0  0
    2.6007    1.3765    1.7644 H   0  0  0  0  0  0  0  0  0  0  0  0
    5.1181   -0.7172   -5.0423 H   0  0  0  0  0  0  0  0  0  0  0  0
    6.2441   -0.0654   -7.3133 H   0  0  0  0  0  0  0  0  0  0  0  0
    5.9940    2.5144   -7.8619 H   0  0  0  0  0  0  0  0  0  0  0  0
  1  2  1  0
  1 15  1  0
  1 16  1  0
  1 17  1  0
  2  3  1  0
  3  4  2  0
  3 12  1  0
  4  5  1  0
  5  6  1  0
  6  7  1  0
  6 12  2  0
  7  8  2  0
  7 11  1  0
  8  9  1  0
  8 18  1  0
  9 10  2  0
  9 19  1  0
 10 11  1  0
 10 20  1  0
 12 13  1  0
 13 14  3  0
M  END

