
     RDKit          3D

 74 77  0  0  0  0  0  0  0  0999 V2000
    2.4385    4.1775   -1.9350 C   0  0  0  0  0  0  0  0  0  0  0  0
    2.1593    2.7070   -2.2898 C   0  0  2  0  0  0  0  0  0  0  0  0
    1.9308    2.6267   -3.3630 H   0  0  0  0  0  0  0  0  0  0  0  0
    1.0475    2.2192   -1.5904 O   0  0  0  0  0  0  0  0  0  0  0  0
    3.3867    1.8594   -1.8803 C   0  0  0  0  0  0  0  0  0  0  0  0
    3.3664    1.4116   -0.7348 O   0  0  0  0  0  0  0  0  0  0  0  0
    4.4795    1.7099   -2.6894 N   0  0  0  0  0  0  0  0  0  0  0  0
    5.6566    1.0614   -2.0812 C   0  0  0  0  0  0  0  0  0  0  0  0
    6.3328    1.8751   -0.9654 C   0  0  2  0  0  0  0  0  0  0  0  0
    5.6393    1.9215   -0.1152 H   0  0  0  0  0  0  0  0  0  0  0  0
    6.7873    3.3157   -1.3361 C   0  0  0  0  0  0  0  0  0  0  0  0
    8.2443    3.2583   -1.2825 N   0  0  0  0  0  0  0  0  0  0  0  0
    8.5889    2.3339   -0.2165 C   0  0  0  0  0  0  0  0  0  0  0  0
    7.6306    1.1796   -0.4798 C   0  0  2  0  0  0  0  0  0  0  0  0
    7.4689    0.5359    0.3991 H   0  0  0  0  0  0  0  0  0  0  0  0
    8.1652    0.3580   -1.4757 F   0  0  0  0  0  0  0  0  0  0  0  0
    4.4148    1.8493   -4.1666 C   0  0  1  0  0  0  0  0  0  0  0  0
    3.5300    2.4599   -4.3714 H   0  0  0  0  0  0  0  0  0  0  0  0
    5.5976    2.6320   -4.6993 C   0  0  0  0  0  0  0  0  0  0  0  0
    6.8490    2.2230   -4.6855 N   0  0  0  0  0  0  0  0  0  0  0  0
    7.6178    3.2326   -5.2099 C   0  0  0  0  0  0  0  0  0  0  0  0
    9.0810    3.1222   -5.2782 C   0  0  0  0  0  0  0  0  0  0  0  0
    9.7584    2.1921   -4.4681 C   0  0  0  0  0  0  0  0  0  0  0  0
   11.1419    2.0848   -4.5481 C   0  0  0  0  0  0  0  0  0  0  0  0
   11.7730    1.1987   -3.7608 F   0  0  0  0  0  0  0  0  0  0  0  0
   11.9002    2.8736   -5.4127 C   0  0  0  0  0  0  0  0  0  0  0  0
   11.2403    3.8072   -6.2150 C   0  0  0  0  0  0  0  0  0  0  0  0
    9.8570    3.9205   -6.1344 C   0  0  0  0  0  0  0  0  0  0  0  0
    9.2435    4.8368   -6.9150 F   0  0  0  0  0  0  0  0  0  0  0  0
    6.7930    4.2843   -5.5649 C   0  0  0  0  0  0  0  0  0  0  0  0
    5.5109    3.9062   -5.2308 N   0  0  0  0  0  0  0  0  0  0  0  0
    4.3361    4.7448   -5.4592 C   0  0  0  0  0  0  0  0  0  0  0  0
    3.5942    4.4947   -6.7619 C   0  0  0  0  0  0  0  0  0  0  0  0
    2.1920    4.5069   -6.7718 C   0  0  0  0  0  0  0  0  0  0  0  0
    1.4839    4.3244   -7.9638 C   0  0  0  0  0  0  0  0  0  0  0  0
    2.1733    4.1226   -9.1619 C   0  0  0  0  0  0  0  0  0  0  0  0
    3.5720    4.1081   -9.1611 C   0  0  0  0  0  0  0  0  0  0  0  0
    4.2783    4.2955   -7.9707 C   0  0  0  0  0  0  0  0  0  0  0  0
    4.1316    0.4899   -4.9256 C   0  0  1  0  0  0  0  0  0  0  0  0
    5.2539   -0.5571   -4.7978 C   0  0  0  0  0  0  0  0  0  0  0  0
    2.8164   -0.1197   -4.4076 C   0  0  0  0  0  0  0  0  0  0  0  0
    3.9496    0.8434   -6.4292 C   0  0  0  0  0  0  0  0  0  0  0  0
    3.5629   -0.2543   -7.2281 O   0  0  0  0  0  0  0  0  0  0  0  0
    2.6461    4.2582   -0.8568 H   0  0  0  0  0  0  0  0  0  0  0  0
    1.5506    4.7865   -2.1620 H   0  0  0  0  0  0  0  0  0  0  0  0
    3.3051    4.5854   -2.4794 H   0  0  0  0  0  0  0  0  0  0  0  0
    1.4279    1.8125   -0.7885 H   0  0  0  0  0  0  0  0  0  0  0  0
    6.3842    0.8875   -2.8747 H   0  0  0  0  0  0  0  0  0  0  0  0
    5.3525    0.0889   -1.6622 H   0  0  0  0  0  0  0  0  0  0  0  0
    6.3528    4.0323   -0.6055 H   0  0  0  0  0  0  0  0  0  0  0  0
    6.4448    3.6247   -2.3351 H   0  0  0  0  0  0  0  0  0  0  0  0
    8.6916    4.1680   -1.2046 H   0  0  0  0  0  0  0  0  0  0  0  0
    8.4027    2.7246    0.8116 H   0  0  0  0  0  0  0  0  0  0  0  0
    9.6383    2.0045   -0.2727 H   0  0  0  0  0  0  0  0  0  0  0  0
    9.2025    1.5845   -3.7536 H   0  0  0  0  0  0  0  0  0  0  0  0
   12.9846    2.7560   -5.4444 H   0  0  0  0  0  0  0  0  0  0  0  0
   11.7851    4.4518   -6.9072 H   0  0  0  0  0  0  0  0  0  0  0  0
    7.0106    5.2545   -5.9997 H   0  0  0  0  0  0  0  0  0  0  0  0
    4.6895    5.7881   -5.4255 H   0  0  0  0  0  0  0  0  0  0  0  0
    3.6461    4.6330   -4.6125 H   0  0  0  0  0  0  0  0  0  0  0  0
    1.6439    4.6591   -5.8370 H   0  0  0  0  0  0  0  0  0  0  0  0
    0.3912    4.3321   -7.9525 H   0  0  0  0  0  0  0  0  0  0  0  0
    1.6230    3.9722  -10.0938 H   0  0  0  0  0  0  0  0  0  0  0  0
    4.1179    3.9476  -10.0941 H   0  0  0  0  0  0  0  0  0  0  0  0
    5.3710    4.2758   -7.9833 H   0  0  0  0  0  0  0  0  0  0  0  0
    5.3230   -0.9684   -3.7821 H   0  0  0  0  0  0  0  0  0  0  0  0
    6.2350   -0.1452   -5.0719 H   0  0  0  0  0  0  0  0  0  0  0  0
    5.0273   -1.4102   -5.4581 H   0  0  0  0  0  0  0  0  0  0  0  0
    2.8996   -0.4528   -3.3624 H   0  0  0  0  0  0  0  0  0  0  0  0
    2.5538   -0.9899   -5.0256 H   0  0  0  0  0  0  0  0  0  0  0  0
    1.9757    0.5894   -4.4731 H   0  0  0  0  0  0  0  0  0  0  0  0
    4.8757    1.3072   -6.8170 H   0  0  0  0  0  0  0  0  0  0  0  0
    3.1459    1.5897   -6.5355 H   0  0  0  0  0  0  0  0  0  0  0  0
    4.3286   -0.8291   -7.3500 H   0  0  0  0  0  0  0  0  0  0  0  0
  1  2  1  0
  1 44  1  0
  1 45  1  0
  1 46  1  0
  2  3  1  6
  2  4  1  0
  2  5  1  0
  4 47  1  0
  5  6  2  0
  5  7  1  0
  7  8  1  0
  7 17  1  0
  8  9  1  0
  8 48  1  0
  8 49  1  0
  9 10  1  1
  9 11  1  0
  9 14  1  0
 11 12  1  0
 11 50  1  0
 11 51  1  0
 12 13  1  0
 12 52  1  0
 13 14  1  0
 13 53  1  0
 13 54  1  0
 14 15  1  1
 14 16  1  0
 17 18  1  1
 17 19  1  0
 17 39  1  0
 19 20  2  0
 19 31  1  0
 20 21  1  0
 21 22  1  0
 21 30  2  0
 22 23  2  0
 22 28  1  0
 23 24  1  0
 23 55  1  0
 24 25  1  0
 24 26  2  0
 26 27  1  0
 26 56  1  0
 27 28  2  0
 27 57  1  0
 28 29  1  0
 30 31  1  0
 30 58  1  0
 31 32  1  0
 32 33  1  0
 32 59  1  0
 32 60  1  0
 33 34  2  0
 33 38  1  0
 34 35  1  0
 34 61  1  0
 35 36  2  0
 35 62  1  0
 36 37  1  0
 36 63  1  0
 37 38  2  0
 37 64  1  0
 38 65  1  0
 39 40  1  6
 39 41  1  0
 39 42  1  0
 40 66  1  0
 40 67  1  0
 40 68  1  0
 41 69  1  0
 41 70  1  0
 41 71  1  0
 42 43  1  0
 42 72  1  0
 42 73  1  0
 43 74  1  0
M  END

