
     RDKit          3D

 41 42  0  0  0  0  0  0  0  0999 V2000
    2.8249   -0.5133   -0.7904 C   0  0  0  0  0  0  0  0  0  0  0  0
    3.2260   -0.4886    0.5519 O   0  0  0  0  0  0  0  0  0  0  0  0
    3.5956    0.7093    1.1138 C   0  0  0  0  0  0  0  0  0  0  0  0
    3.6320    1.9155    0.4051 C   0  0  0  0  0  0  0  0  0  0  0  0
    4.0491    3.1089    1.0899 C   0  0  0  0  0  0  0  0  0  0  0  0
    4.3738    3.0805    2.4500 C   0  0  0  0  0  0  0  0  0  0  0  0
    4.8317    4.3618    3.1356 C   0  0  1  0  0  0  0  0  0  0  0  0
    3.7712    4.9988    4.0586 C   0  0  0  0  0  0  0  0  0  0  0  0
    3.4638    4.1656    5.2172 N   0  0  0  0  0  0  0  0  0  0  0  0
    6.1673    4.1565    3.9103 C   0  0  0  0  0  0  0  0  0  0  0  0
    7.1612    3.3490    3.1304 C   0  0  0  0  0  0  0  0  0  0  0  0
    7.5770    3.7605    1.8592 C   0  0  0  0  0  0  0  0  0  0  0  0
    8.4807    2.9724    1.1182 C   0  0  0  0  0  0  0  0  0  0  0  0
    8.9787    3.5039   -0.4362 Cl  0  0  0  0  0  0  0  0  0  0  0  0
    8.9988    1.7458    1.6090 C   0  0  0  0  0  0  0  0  0  0  0  0
    8.6070    1.3085    2.8658 C   0  0  0  0  0  0  0  0  0  0  0  0
    7.7070    2.1041    3.6320 C   0  0  0  0  0  0  0  0  0  0  0  0
    7.3245    1.7665    4.8483 O   0  0  0  0  0  0  0  0  0  0  0  0
    7.6633    0.5111    5.4340 C   0  0  0  0  0  0  0  0  0  0  0  0
    4.3262    1.8591    3.1481 C   0  0  0  0  0  0  0  0  0  0  0  0
    3.9432    0.6544    2.4733 C   0  0  0  0  0  0  0  0  0  0  0  0
    2.5597   -1.5547   -1.0265 H   0  0  0  0  0  0  0  0  0  0  0  0
    3.6314   -0.1893   -1.4761 H   0  0  0  0  0  0  0  0  0  0  0  0
    1.9428    0.1285   -0.9759 H   0  0  0  0  0  0  0  0  0  0  0  0
    3.3582    1.9680   -0.6476 H   0  0  0  0  0  0  0  0  0  0  0  0
    4.0963    4.0516    0.5375 H   0  0  0  0  0  0  0  0  0  0  0  0
    5.0093    5.1054    2.3400 H   0  0  0  0  0  0  0  0  0  0  0  0
    2.8902    5.2315    3.4251 H   0  0  0  0  0  0  0  0  0  0  0  0
    4.1591    5.9668    4.4272 H   0  0  0  0  0  0  0  0  0  0  0  0
    3.0207    3.3018    4.8973 H   0  0  0  0  0  0  0  0  0  0  0  0
    2.7884    4.6364    5.8193 H   0  0  0  0  0  0  0  0  0  0  0  0
    5.9535    3.6864    4.8762 H   0  0  0  0  0  0  0  0  0  0  0  0
    6.6052    5.1509    4.1274 H   0  0  0  0  0  0  0  0  0  0  0  0
    7.1916    4.6812    1.4253 H   0  0  0  0  0  0  0  0  0  0  0  0
    9.6936    1.1693    0.9984 H   0  0  0  0  0  0  0  0  0  0  0  0
    8.9896    0.3681    3.2573 H   0  0  0  0  0  0  0  0  0  0  0  0
    7.1708    0.4963    6.4126 H   0  0  0  0  0  0  0  0  0  0  0  0
    8.7530    0.4228    5.5645 H   0  0  0  0  0  0  0  0  0  0  0  0
    7.2841   -0.3128    4.8119 H   0  0  0  0  0  0  0  0  0  0  0  0
    4.5624    1.8219    4.2123 H   0  0  0  0  0  0  0  0  0  0  0  0
    3.8782   -0.3027    2.9928 H   0  0  0  0  0  0  0  0  0  0  0  0
  1  2  1  0
  1 22  1  0
  1 23  1  0
  1 24  1  0
  2  3  1  0
  3  4  2  0
  3 21  1  0
  4  5  1  0
  4 25  1  0
  5  6  2  0
  5 26  1  0
  6  7  1  0
  6 20  1  0
  7  8  1  0
  7 10  1  0
  7 27  1  6
  8  9  1  0
  8 28  1  0
  8 29  1  0
  9 30  1  0
  9 31  1  0
 10 11  1  0
 10 32  1  0
 10 33  1  0
 11 12  2  0
 11 17  1  0
 12 13  1  0
 12 34  1  0
 13 14  1  0
 13 15  2  0
 15 16  1  0
 15 35  1  0
 16 17  2  0
 16 36  1  0
 17 18  1  0
 18 19  1  0
 19 37  1  0
 19 38  1  0
 19 39  1  0
 20 21  2  0
 20 40  1  0
 21 41  1  0
M  END

