
     RDKit          3D

 22 22  0  0  0  0  0  0  0  0999 V2000
    2.8229    1.2287    0.4165 C   0  0  0  0  0  0  0  0  0  0  0  0
    4.3080    1.2336    0.1003 C   0  0  1  0  0  0  0  0  0  0  0  0
    4.4983    0.7699   -0.8784 H   0  0  0  0  0  0  0  0  0  0  0  0
    4.9255    2.9401   -0.0417 Cl  0  0  0  0  0  0  0  0  0  0  0  0
    5.1731    0.5492    1.1539 C   0  0  0  0  0  0  0  0  0  0  0  0
    4.7828   -0.8170    1.2065 O   0  0  0  0  0  0  0  0  0  0  0  0
    5.3722   -1.6960    2.0451 C   0  0  0  0  0  0  0  0  0  0  0  0
    6.4179   -1.3214    2.9408 C   0  0  0  0  0  0  0  0  0  0  0  0
    6.9677   -2.3396    3.7837 C   0  0  0  0  0  0  0  0  0  0  0  0
    6.4613   -3.6647    3.7042 C   0  0  0  0  0  0  0  0  0  0  0  0
    5.4209   -4.0265    2.8114 C   0  0  0  0  0  0  0  0  0  0  0  0
    4.8593   -3.0247    1.9582 C   0  0  0  0  0  0  0  0  0  0  0  0
    2.2532    1.7312   -0.3782 H   0  0  0  0  0  0  0  0  0  0  0  0
    2.6230    1.7447    1.3685 H   0  0  0  0  0  0  0  0  0  0  0  0
    2.4707    0.1886    0.4999 H   0  0  0  0  0  0  0  0  0  0  0  0
    5.0262    1.0250    2.1390 H   0  0  0  0  0  0  0  0  0  0  0  0
    6.2391    0.6268    0.8855 H   0  0  0  0  0  0  0  0  0  0  0  0
    6.7892   -0.2999    2.9899 H   0  0  0  0  0  0  0  0  0  0  0  0
    7.7691   -2.0984    4.4826 H   0  0  0  0  0  0  0  0  0  0  0  0
    6.8909   -4.4312    4.3553 H   0  0  0  0  0  0  0  0  0  0  0  0
    5.0568   -5.0535    2.7754 H   0  0  0  0  0  0  0  0  0  0  0  0
    4.0621   -3.2353    1.2462 H   0  0  0  0  0  0  0  0  0  0  0  0
  1  2  1  0
  1 13  1  0
  1 14  1  0
  1 15  1  0
  2  3  1  6
  2  4  1  0
  2  5  1  0
  5  6  1  0
  5 16  1  0
  5 17  1  0
  6  7  1  0
  7  8  2  0
  7 12  1  0
  8  9  1  0
  8 18  1  0
  9 10  2  0
  9 19  1  0
 10 11  1  0
 10 20  1  0
 11 12  2  0
 11 21  1  0
 12 22  1  0
M  END

