
     RDKit          3D

 44 45  0  0  0  0  0  0  0  0999 V2000
    1.0069    0.6689    0.8367 C   0  0  0  0  0  0  0  0  0  0  0  0
    2.5118    0.4943    0.6277 C   0  0  0  0  0  0  0  0  0  0  0  0
    2.9548   -0.9732    0.7075 C   0  0  0  0  0  0  0  0  0  0  0  0
    4.4815   -1.2421    0.7729 C   0  0  1  0  0  0  0  0  0  0  0  0
    5.1284   -0.7377    2.0917 C   0  0  0  0  0  0  0  0  0  0  0  0
    5.2133    0.5387    2.2257 O   0  0  0  0  0  0  0  0  0  0  0  0
    4.6294   -1.5346    3.2346 N   0  0  0  0  0  0  0  0  0  0  0  0
    5.0300   -1.0243    4.5474 C   0  0  0  0  0  0  0  0  0  0  0  0
    3.8567   -0.4865    5.3799 C   0  0  1  0  0  0  0  0  0  0  0  0
    2.8169   -1.5646    5.6695 C   0  0  0  0  0  0  0  0  0  0  0  0
    4.2767    0.3383    6.6236 C   0  0  0  0  0  0  0  0  0  0  0  0
    3.6302    1.5179    6.1350 O   0  0  0  0  0  0  0  0  0  0  0  0
    3.2786    0.8686    4.8945 C   0  0  0  0  0  0  0  0  0  0  0  0
    4.7749   -2.7325    0.4755 C   0  0  0  0  0  0  0  0  0  0  0  0
    4.5015   -3.1654   -0.9704 C   0  0  0  0  0  0  0  0  0  0  0  0
    5.2026   -2.2185   -1.9894 C   0  0  0  0  0  0  0  0  0  0  0  0
    4.8796   -0.8622   -1.6267 N   0  0  0  0  0  0  0  0  0  0  0  0
    5.2691   -0.4136   -0.3246 C   0  0  0  0  0  0  0  0  0  0  0  0
    0.7082    1.7261    0.7539 H   0  0  0  0  0  0  0  0  0  0  0  0
    0.7049    0.3175    1.8369 H   0  0  0  0  0  0  0  0  0  0  0  0
    0.4194    0.0971    0.0965 H   0  0  0  0  0  0  0  0  0  0  0  0
    3.0820    1.0675    1.3730 H   0  0  0  0  0  0  0  0  0  0  0  0
    2.7800    0.9280   -0.3573 H   0  0  0  0  0  0  0  0  0  0  0  0
    2.4621   -1.5378   -0.1115 H   0  0  0  0  0  0  0  0  0  0  0  0
    2.5600   -1.4036    1.6429 H   0  0  0  0  0  0  0  0  0  0  0  0
    4.9379   -2.4970    3.1415 H   0  0  0  0  0  0  0  0  0  0  0  0
    5.7663   -0.2152    4.4127 H   0  0  0  0  0  0  0  0  0  0  0  0
    5.5210   -1.8284    5.1286 H   0  0  0  0  0  0  0  0  0  0  0  0
    3.2543   -2.3815    6.2710 H   0  0  0  0  0  0  0  0  0  0  0  0
    2.4492   -1.9996    4.7269 H   0  0  0  0  0  0  0  0  0  0  0  0
    1.9585   -1.1579    6.2286 H   0  0  0  0  0  0  0  0  0  0  0  0
    5.3698    0.4748    6.7435 H   0  0  0  0  0  0  0  0  0  0  0  0
    3.8599   -0.0034    7.5909 H   0  0  0  0  0  0  0  0  0  0  0  0
    3.8109    1.2922    4.0269 H   0  0  0  0  0  0  0  0  0  0  0  0
    2.1870    0.8879    4.7145 H   0  0  0  0  0  0  0  0  0  0  0  0
    4.1579   -3.3580    1.1410 H   0  0  0  0  0  0  0  0  0  0  0  0
    5.8293   -2.9336    0.7312 H   0  0  0  0  0  0  0  0  0  0  0  0
    3.4213   -3.1737   -1.1861 H   0  0  0  0  0  0  0  0  0  0  0  0
    4.8704   -4.1831   -1.1720 H   0  0  0  0  0  0  0  0  0  0  0  0
    4.8852   -2.4194   -3.0219 H   0  0  0  0  0  0  0  0  0  0  0  0
    6.2939   -2.3352   -1.9153 H   0  0  0  0  0  0  0  0  0  0  0  0
    4.0172   -0.4757   -2.0118 H   0  0  0  0  0  0  0  0  0  0  0  0
    5.0726    0.6516   -0.1741 H   0  0  0  0  0  0  0  0  0  0  0  0
    6.3382   -0.6131   -0.1922 H   0  0  0  0  0  0  0  0  0  0  0  0
  1  2  1  0
  1 19  1  0
  1 20  1  0
  1 21  1  0
  2  3  1  0
  2 22  1  0
  2 23  1  0
  3  4  1  0
  3 24  1  0
  3 25  1  0
  4  5  1  1
  4 14  1  0
  4 18  1  0
  5  6  2  0
  5  7  1  0
  7  8  1  0
  7 26  1  0
  9  8  1  6
  8 27  1  0
  8 28  1  0
  9 10  1  0
  9 11  1  0
  9 13  1  0
 10 29  1  0
 10 30  1  0
 10 31  1  0
 11 12  1  0
 11 32  1  0
 11 33  1  0
 12 13  1  0
 13 34  1  0
 13 35  1  0
 14 15  1  0
 14 36  1  0
 14 37  1  0
 15 16  1  0
 15 38  1  0
 15 39  1  0
 16 17  1  0
 16 40  1  0
 16 41  1  0
 17 18  1  0
 17 42  1  0
 18 43  1  0
 18 44  1  0
M  END

