
     RDKit          3D

 43 44  0  0  0  0  0  0  0  0999 V2000
    0.8895    0.0765    0.8968 C   0  0  0  0  0  0  0  0  0  0  0  0
    2.0467   -0.3403    0.2181 O   0  0  0  0  0  0  0  0  0  0  0  0
    2.5809   -1.5973    0.6163 C   0  0  1  0  0  0  0  0  0  0  0  0
    1.7783   -2.7792    0.0448 C   0  0  0  0  0  0  0  0  0  0  0  0
    1.8480   -2.8205   -1.4871 C   0  0  0  0  0  0  0  0  0  0  0  0
    3.2982   -2.8191   -1.9930 C   0  0  0  0  0  0  0  0  0  0  0  0
    4.0673   -1.6302   -1.4188 C   0  0  2  0  0  0  0  0  0  0  0  0
    5.4216   -1.7268   -1.8826 O   0  0  0  0  0  0  0  0  0  0  0  0
    6.2378   -0.6627   -1.9910 C   0  0  0  0  0  0  0  0  0  0  0  0
    5.8182    0.6428   -1.6578 C   0  0  0  0  0  0  0  0  0  0  0  0
    6.7146    1.7343   -1.7817 C   0  0  0  0  0  0  0  0  0  0  0  0
    6.2622    3.1210   -1.4318 C   0  0  0  0  0  0  0  0  0  0  0  0
    8.0299    1.4682   -2.2273 C   0  0  0  0  0  0  0  0  0  0  0  0
    8.4739    0.1847   -2.5532 C   0  0  0  0  0  0  0  0  0  0  0  0
    7.5808   -0.9514   -2.4658 C   0  0  0  0  0  0  0  0  0  0  0  0
    8.0730   -2.2536   -2.8417 C   0  0  0  0  0  0  0  0  0  0  0  0
    7.2561   -3.5217   -2.8552 C   0  0  0  0  0  0  0  0  0  0  0  0
    9.3647   -2.2500   -3.1972 N   0  0  0  0  0  0  0  0  0  0  0  0
    9.8217   -3.5093   -3.5412 O   0  0  0  0  0  0  0  0  0  0  0  0
    4.0270   -1.6320    0.1144 C   0  0  0  0  0  0  0  0  0  0  0  0
    0.6477    1.0905    0.5461 H   0  0  0  0  0  0  0  0  0  0  0  0
    1.0481    0.1125    1.9934 H   0  0  0  0  0  0  0  0  0  0  0  0
    0.0154   -0.5737    0.6996 H   0  0  0  0  0  0  0  0  0  0  0  0
    2.5832   -1.6561    1.7238 H   0  0  0  0  0  0  0  0  0  0  0  0
    0.7304   -2.7286    0.3825 H   0  0  0  0  0  0  0  0  0  0  0  0
    2.1924   -3.7109    0.4691 H   0  0  0  0  0  0  0  0  0  0  0  0
    1.3193   -1.9421   -1.8939 H   0  0  0  0  0  0  0  0  0  0  0  0
    1.3203   -3.7092   -1.8690 H   0  0  0  0  0  0  0  0  0  0  0  0
    3.3290   -2.7805   -3.0936 H   0  0  0  0  0  0  0  0  0  0  0  0
    3.8091   -3.7495   -1.6888 H   0  0  0  0  0  0  0  0  0  0  0  0
    3.6226   -0.6971   -1.7939 H   0  0  0  0  0  0  0  0  0  0  0  0
    4.8112    0.8199   -1.2842 H   0  0  0  0  0  0  0  0  0  0  0  0
    5.9158    3.1849   -0.3819 H   0  0  0  0  0  0  0  0  0  0  0  0
    5.4049    3.4414   -2.0548 H   0  0  0  0  0  0  0  0  0  0  0  0
    7.0680    3.8582   -1.5651 H   0  0  0  0  0  0  0  0  0  0  0  0
    8.7276    2.3065   -2.3192 H   0  0  0  0  0  0  0  0  0  0  0  0
    9.4905    0.0073   -2.8927 H   0  0  0  0  0  0  0  0  0  0  0  0
    6.3457   -3.4042   -3.4600 H   0  0  0  0  0  0  0  0  0  0  0  0
    6.9248   -3.7982   -1.8418 H   0  0  0  0  0  0  0  0  0  0  0  0
    7.8527   -4.3442   -3.2639 H   0  0  0  0  0  0  0  0  0  0  0  0
   10.7438   -3.3375   -3.7759 H   0  0  0  0  0  0  0  0  0  0  0  0
    4.5771   -0.7657    0.5099 H   0  0  0  0  0  0  0  0  0  0  0  0
    4.5240   -2.5447    0.4826 H   0  0  0  0  0  0  0  0  0  0  0  0
  1  2  1  0
  1 21  1  0
  1 22  1  0
  1 23  1  0
  2  3  1  0
  3  4  1  0
  3 20  1  0
  3 24  1  1
  4  5  1  0
  4 25  1  0
  4 26  1  0
  5  6  1  0
  5 27  1  0
  5 28  1  0
  6  7  1  0
  6 29  1  0
  6 30  1  0
  7  8  1  0
  7 20  1  0
  7 31  1  6
  8  9  1  0
  9 10  2  0
  9 15  1  0
 10 11  1  0
 10 32  1  0
 11 12  1  0
 11 13  2  0
 12 33  1  0
 12 34  1  0
 12 35  1  0
 13 14  1  0
 13 36  1  0
 14 15  2  0
 14 37  1  0
 15 16  1  0
 16 17  1  0
 16 18  2  0
 17 38  1  0
 17 39  1  0
 17 40  1  0
 18 19  1  0
 19 41  1  0
 20 42  1  0
 20 43  1  0
M  END

