
     RDKit          3D

 61 61  0  0  0  0  0  0  0  0999 V2000
    7.3372    6.7533    2.5984 C   0  0  0  0  0  0  0  0  0  0  0  0
    7.9836    5.4506    3.1025 C   0  0  1  0  0  0  0  0  0  0  0  0
    9.0991    5.7910    4.1142 C   0  0  0  0  0  0  0  0  0  0  0  0
    6.9250    4.5645    3.7824 C   0  0  0  0  0  0  0  0  0  0  0  0
    8.8299    4.4973    1.6312 Si  0  0  1  0  0  4  0  0  0  0  0  0
   10.2360    5.4282    0.8040 C   0  0  0  0  0  0  0  0  0  0  0  0
    9.4014    2.7687    2.1241 C   0  0  0  0  0  0  0  0  0  0  0  0
    7.4006    4.3028    0.2989 C   0  0  0  0  0  0  0  0  0  0  0  0
    7.7396    3.0590   -0.5730 C   0  0  0  0  0  0  0  0  0  0  0  0
    7.0668    3.2635   -1.7930 O   0  0  0  0  0  0  0  0  0  0  0  0
    7.8018    3.8329   -2.8830 C   0  0  0  0  0  0  0  0  0  0  0  0
    8.7952    2.8278   -3.5136 C   0  0  1  0  0  0  0  0  0  0  0  0
    8.2045    1.4673   -3.9316 C   0  0  0  0  0  0  0  0  0  0  0  0
    6.8901    1.3421   -4.7424 C   0  0  0  0  0  0  0  0  0  0  0  0
    6.9523    1.0887   -6.2628 C   0  0  0  0  0  0  0  0  0  0  0  0
    7.3250    2.2803   -7.1633 C   0  0  0  0  0  0  0  0  0  0  0  0
    8.8139    2.4071   -7.5461 C   0  0  0  0  0  0  0  0  0  0  0  0
    9.2323    3.8378   -7.9456 C   0  0  0  0  0  0  0  0  0  0  0  0
    9.8022    4.7308   -6.8207 C   0  0  0  0  0  0  0  0  0  0  0  0
    9.0896    4.6669   -5.4519 C   0  0  0  0  0  0  0  0  0  0  0  0
    9.6892    3.6139   -4.4903 C   0  0  0  0  0  0  0  0  0  0  0  0
    6.9403    7.3367    3.4490 H   0  0  0  0  0  0  0  0  0  0  0  0
    6.4928    6.5625    1.9162 H   0  0  0  0  0  0  0  0  0  0  0  0
    8.0607    7.3972    2.0703 H   0  0  0  0  0  0  0  0  0  0  0  0
    8.6681    6.3371    4.9741 H   0  0  0  0  0  0  0  0  0  0  0  0
    9.8792    6.4315    3.6707 H   0  0  0  0  0  0  0  0  0  0  0  0
    9.5914    4.8885    4.5126 H   0  0  0  0  0  0  0  0  0  0  0  0
    6.4726    5.0987    4.6376 H   0  0  0  0  0  0  0  0  0  0  0  0
    7.3562    3.6281    4.1731 H   0  0  0  0  0  0  0  0  0  0  0  0
    6.1024    4.2941    3.0991 H   0  0  0  0  0  0  0  0  0  0  0  0
   11.1451    5.4107    1.4337 H   0  0  0  0  0  0  0  0  0  0  0  0
    9.9822    6.4801    0.5808 H   0  0  0  0  0  0  0  0  0  0  0  0
   10.4710    4.9263   -0.1713 H   0  0  0  0  0  0  0  0  0  0  0  0
   10.0990    2.8248    2.9771 H   0  0  0  0  0  0  0  0  0  0  0  0
    9.9596    2.3153    1.2815 H   0  0  0  0  0  0  0  0  0  0  0  0
    8.5728    2.0958    2.4064 H   0  0  0  0  0  0  0  0  0  0  0  0
    7.4348    5.2217   -0.3057 H   0  0  0  0  0  0  0  0  0  0  0  0
    6.3980    4.2094    0.7394 H   0  0  0  0  0  0  0  0  0  0  0  0
    7.2983    2.1557   -0.1174 H   0  0  0  0  0  0  0  0  0  0  0  0
    8.8234    2.9551   -0.7584 H   0  0  0  0  0  0  0  0  0  0  0  0
    8.4157    4.6631   -2.4769 H   0  0  0  0  0  0  0  0  0  0  0  0
    7.0405    4.1934   -3.5837 H   0  0  0  0  0  0  0  0  0  0  0  0
    9.5051    2.6024   -2.6674 H   0  0  0  0  0  0  0  0  0  0  0  0
    8.0500    0.9029   -2.9884 H   0  0  0  0  0  0  0  0  0  0  0  0
    9.0097    0.9146   -4.4472 H   0  0  0  0  0  0  0  0  0  0  0  0
    6.2386    2.2147   -4.5551 H   0  0  0  0  0  0  0  0  0  0  0  0
    6.3394    0.4865   -4.3117 H   0  0  0  0  0  0  0  0  0  0  0  0
    5.9487    0.7363   -6.5572 H   0  0  0  0  0  0  0  0  0  0  0  0
    7.6285    0.2374   -6.4652 H   0  0  0  0  0  0  0  0  0  0  0  0
    6.9735    3.2067   -6.6807 H   0  0  0  0  0  0  0  0  0  0  0  0
    6.7454    2.2186   -8.1013 H   0  0  0  0  0  0  0  0  0  0  0  0
    9.0081    1.7187   -8.3868 H   0  0  0  0  0  0  0  0  0  0  0  0
    9.4537    2.0439   -6.7276 H   0  0  0  0  0  0  0  0  0  0  0  0
    8.3571    4.3389   -8.3988 H   0  0  0  0  0  0  0  0  0  0  0  0
    9.9865    3.7934   -8.7496 H   0  0  0  0  0  0  0  0  0  0  0  0
    9.7975    5.7717   -7.1866 H   0  0  0  0  0  0  0  0  0  0  0  0
   10.8680    4.4852   -6.6642 H   0  0  0  0  0  0  0  0  0  0  0  0
    8.0114    4.5155   -5.6126 H   0  0  0  0  0  0  0  0  0  0  0  0
    9.1756    5.6566   -4.9642 H   0  0  0  0  0  0  0  0  0  0  0  0
   10.4273    4.1393   -3.8321 H   0  0  0  0  0  0  0  0  0  0  0  0
   10.2725    2.8675   -5.0505 H   0  0  0  0  0  0  0  0  0  0  0  0
  2  1  1  6
  1 22  1  0
  1 23  1  0
  1 24  1  0
  2  3  1  0
  2  4  1  0
  2  5  1  0
  3 25  1  0
  3 26  1  0
  3 27  1  0
  4 28  1  0
  4 29  1  0
  4 30  1  0
  5  6  1  6
  5  7  1  0
  5  8  1  0
  6 31  1  0
  6 32  1  0
  6 33  1  0
  7 34  1  0
  7 35  1  0
  7 36  1  0
  8  9  1  0
  8 37  1  0
  8 38  1  0
  9 10  1  0
  9 39  1  0
  9 40  1  0
 10 11  1  0
 11 12  1  0
 11 41  1  0
 11 42  1  0
 12 13  1  0
 12 21  1  0
 12 43  1  1
 13 14  1  0
 13 44  1  0
 13 45  1  0
 14 15  1  0
 14 46  1  0
 14 47  1  0
 15 16  1  0
 15 48  1  0
 15 49  1  0
 16 17  1  0
 16 50  1  0
 16 51  1  0
 17 18  1  0
 17 52  1  0
 17 53  1  0
 18 19  1  0
 18 54  1  0
 18 55  1  0
 19 20  1  0
 19 56  1  0
 19 57  1  0
 20 21  1  0
 20 58  1  0
 20 59  1  0
 21 60  1  0
 21 61  1  0
M  END

