
     RDKit          3D

 65 68  0  0  0  0  0  0  0  0999 V2000
    2.9792    0.5679    0.5321 C   0  0  0  0  0  0  0  0  0  0  0  0
    1.9528   -0.4363    1.0990 C   0  0  1  0  0  0  0  0  0  0  0  0
    1.2764    0.1651    2.3523 C   0  0  0  0  0  0  0  0  0  0  0  0
    0.9705   -0.7009    0.0382 N   0  0  0  0  0  0  0  0  0  0  0  0
    2.6901   -1.7441    1.4370 C   0  0  0  0  0  0  0  0  0  0  0  0
    3.4337   -1.8846    2.6201 C   0  0  0  0  0  0  0  0  0  0  0  0
    4.1330   -3.0567    2.8771 C   0  0  0  0  0  0  0  0  0  0  0  0
    4.1354   -4.1343    1.9624 C   0  0  0  0  0  0  0  0  0  0  0  0
    4.9697   -5.3366    2.2545 C   0  0  0  0  0  0  0  0  0  0  0  0
    5.4446   -6.0715    1.3988 O   0  0  0  0  0  0  0  0  0  0  0  0
    5.1770   -5.5770    3.6208 N   0  0  0  0  0  0  0  0  0  0  0  0
    5.9821   -6.5033    4.2294 C   0  0  0  0  0  0  0  0  0  0  0  0
    6.8186   -7.4024    3.5178 C   0  0  0  0  0  0  0  0  0  0  0  0
    7.6500   -8.3004    4.1933 C   0  0  0  0  0  0  0  0  0  0  0  0
    7.6364   -8.2633    5.5839 C   0  0  0  0  0  0  0  0  0  0  0  0
    8.4254   -9.0830    6.2684 F   0  0  0  0  0  0  0  0  0  0  0  0
    6.8108   -7.3824    6.3273 C   0  0  0  0  0  0  0  0  0  0  0  0
    5.9449   -6.5094    5.6875 C   0  0  0  0  0  0  0  0  0  0  0  0
    5.0684   -5.5636    6.4155 C   0  0  0  0  0  0  0  0  0  0  0  0
    4.6733   -4.4810    5.8763 O   0  0  0  0  0  0  0  0  0  0  0  0
    4.7802   -5.7449    7.7649 N   0  0  0  0  0  0  0  0  0  0  0  0
    4.4269   -6.8794    8.4877 C   0  0  0  0  0  0  0  0  0  0  0  0
    4.1168   -6.7480    9.8627 C   0  0  0  0  0  0  0  0  0  0  0  0
    3.7494   -7.8747   10.5801 C   0  0  0  0  0  0  0  0  0  0  0  0
    3.7192   -9.1137    9.9099 C   0  0  0  0  0  0  0  0  0  0  0  0
    3.2789  -10.5768   10.7577 Cl  0  0  0  0  0  0  0  0  0  0  0  0
    4.0530   -9.1503    8.5569 C   0  0  0  0  0  0  0  0  0  0  0  0
    4.3922   -8.0660    7.8567 N   0  0  0  0  0  0  0  0  0  0  0  0
    3.3784   -4.0190    0.7620 C   0  0  0  0  0  0  0  0  0  0  0  0
    3.3011   -5.1154   -0.2949 C   0  0  1  0  0  0  0  0  0  0  0  0
    1.8751   -5.3222   -0.9000 C   0  0  0  0  0  0  0  0  0  0  0  0
    1.7235   -4.8429   -2.3515 C   0  0  0  0  0  0  0  0  0  0  0  0
    2.7562   -5.4690   -3.2807 C   0  0  0  0  0  0  0  0  0  0  0  0
    2.5225   -5.7243   -4.4404 O   0  0  0  0  0  0  0  0  0  0  0  0
    4.1100   -5.7423   -2.6350 C   0  0  0  0  0  0  0  0  0  0  0  0
    4.3551   -4.8625   -1.4058 C   0  0  0  0  0  0  0  0  0  0  0  0
    2.6800   -2.8232    0.5416 C   0  0  0  0  0  0  0  0  0  0  0  0
    2.4847    1.5228    0.2842 H   0  0  0  0  0  0  0  0  0  0  0  0
    3.4404    0.1691   -0.3832 H   0  0  0  0  0  0  0  0  0  0  0  0
    3.7748    0.7776    1.2620 H   0  0  0  0  0  0  0  0  0  0  0  0
    0.7124    1.0678    2.0667 H   0  0  0  0  0  0  0  0  0  0  0  0
    1.9965    0.4622    3.1298 H   0  0  0  0  0  0  0  0  0  0  0  0
    0.5708   -0.5521    2.8022 H   0  0  0  0  0  0  0  0  0  0  0  0
    0.5745    0.1797   -0.2908 H   0  0  0  0  0  0  0  0  0  0  0  0
    0.1900   -1.2474    0.4067 H   0  0  0  0  0  0  0  0  0  0  0  0
    3.4795   -1.0780    3.3533 H   0  0  0  0  0  0  0  0  0  0  0  0
    4.7025   -3.1211    3.8056 H   0  0  0  0  0  0  0  0  0  0  0  0
    4.7408   -4.9460    4.3512 H   0  0  0  0  0  0  0  0  0  0  0  0
    6.7890   -7.3756    2.4316 H   0  0  0  0  0  0  0  0  0  0  0  0
    8.2916   -9.0055    3.6649 H   0  0  0  0  0  0  0  0  0  0  0  0
    6.8812   -7.4184    7.4123 H   0  0  0  0  0  0  0  0  0  0  0  0
    4.4842   -4.8646    8.1803 H   0  0  0  0  0  0  0  0  0  0  0  0
    4.1605   -5.7700   10.3493 H   0  0  0  0  0  0  0  0  0  0  0  0
    3.4898   -7.8119   11.6381 H   0  0  0  0  0  0  0  0  0  0  0  0
    4.0367  -10.1056    8.0203 H   0  0  0  0  0  0  0  0  0  0  0  0
    3.5904   -6.0597    0.1800 H   0  0  0  0  0  0  0  0  0  0  0  0
    1.1118   -4.8445   -0.2679 H   0  0  0  0  0  0  0  0  0  0  0  0
    1.6446   -6.4001   -0.8738 H   0  0  0  0  0  0  0  0  0  0  0  0
    1.8626   -3.7475   -2.4157 H   0  0  0  0  0  0  0  0  0  0  0  0
    0.7227   -5.0531   -2.7572 H   0  0  0  0  0  0  0  0  0  0  0  0
    4.8881   -5.6237   -3.4050 H   0  0  0  0  0  0  0  0  0  0  0  0
    4.1230   -6.8109   -2.3472 H   0  0  0  0  0  0  0  0  0  0  0  0
    4.3277   -3.8016   -1.7090 H   0  0  0  0  0  0  0  0  0  0  0  0
    5.3550   -5.0462   -0.9879 H   0  0  0  0  0  0  0  0  0  0  0  0
    2.0949   -2.7000   -0.3693 H   0  0  0  0  0  0  0  0  0  0  0  0
  1  2  1  0
  1 38  1  0
  1 39  1  0
  1 40  1  0
  2  3  1  0
  2  4  1  6
  2  5  1  0
  3 41  1  0
  3 42  1  0
  3 43  1  0
  4 44  1  0
  4 45  1  0
  5  6  2  0
  5 37  1  0
  6  7  1  0
  6 46  1  0
  7  8  2  0
  7 47  1  0
  8  9  1  0
  8 29  1  0
  9 10  2  0
  9 11  1  0
 11 12  1  0
 11 48  1  0
 12 13  2  0
 12 18  1  0
 13 14  1  0
 13 49  1  0
 14 15  2  0
 14 50  1  0
 15 16  1  0
 15 17  1  0
 17 18  2  0
 17 51  1  0
 18 19  1  0
 19 20  2  0
 19 21  1  0
 21 22  1  0
 21 52  1  0
 22 23  2  0
 22 28  1  0
 23 24  1  0
 23 53  1  0
 24 25  2  0
 24 54  1  0
 25 26  1  0
 25 27  1  0
 27 28  2  0
 27 55  1  0
 29 30  1  0
 29 37  2  0
 30 31  1  0
 30 36  1  0
 30 56  1  1
 31 32  1  0
 31 57  1  0
 31 58  1  0
 32 33  1  0
 32 59  1  0
 32 60  1  0
 33 34  2  0
 33 35  1  0
 35 36  1  0
 35 61  1  0
 35 62  1  0
 36 63  1  0
 36 64  1  0
 37 65  1  0
M  END

