
     RDKit          3D

 31 33  0  0  0  0  0  0  0  0999 V2000
    3.2231    0.2401   -2.4625 O   0  0  0  0  0  0  0  0  0  0  0  0
    3.6691    0.4076   -1.3347 C   0  0  0  0  0  0  0  0  0  0  0  0
    3.4009    1.4544   -0.5171 N   0  0  0  0  0  0  0  0  0  0  0  0
    2.5163    2.5471   -0.8831 C   0  0  2  0  0  0  0  0  0  0  0  0
    3.1237    3.9451   -0.5191 C   0  0  0  0  0  0  0  0  0  0  0  0
    2.1856    4.7652    0.2413 N   0  0  0  0  0  0  0  0  0  0  0  0
    0.9524    4.9544   -0.5282 C   0  0  0  0  0  0  0  0  0  0  0  0
    0.2512    3.5887   -0.8149 C   0  0  0  0  0  0  0  0  0  0  0  0
    1.1216    2.4690   -0.2122 C   0  0  2  0  0  0  0  0  0  0  0  0
    1.2576    2.7012    1.3046 C   0  0  0  0  0  0  0  0  0  0  0  0
    1.8790    4.1172    1.5204 C   0  0  0  0  0  0  0  0  0  0  0  0
    4.6078   -0.5860   -0.7390 C   0  0  0  0  0  0  0  0  0  0  0  0
    5.1786   -0.5767    0.4561 N   0  0  0  0  0  0  0  0  0  0  0  0
    5.9176   -1.7167    0.4468 C   0  0  0  0  0  0  0  0  0  0  0  0
    5.8357   -2.4214   -0.6760 N   0  0  0  0  0  0  0  0  0  0  0  0
    4.9974   -1.6856   -1.4174 N   0  0  0  0  0  0  0  0  0  0  0  0
    4.7169   -1.9501   -2.3570 H   0  0  0  0  0  0  0  0  0  0  0  0
    3.8540    1.4396    0.3932 H   0  0  0  0  0  0  0  0  0  0  0  0
    2.3782    2.4518   -1.9696 H   0  0  0  0  0  0  0  0  0  0  0  0
    3.4162    4.4875   -1.4321 H   0  0  0  0  0  0  0  0  0  0  0  0
    4.0401    3.8114    0.0796 H   0  0  0  0  0  0  0  0  0  0  0  0
    1.2085    5.4732   -1.4659 H   0  0  0  0  0  0  0  0  0  0  0  0
    0.2920    5.6299    0.0387 H   0  0  0  0  0  0  0  0  0  0  0  0
    0.1233    3.4256   -1.8976 H   0  0  0  0  0  0  0  0  0  0  0  0
   -0.7560    3.5546   -0.3684 H   0  0  0  0  0  0  0  0  0  0  0  0
    0.6776    1.4829   -0.4180 H   0  0  0  0  0  0  0  0  0  0  0  0
    1.8810    1.9129    1.7579 H   0  0  0  0  0  0  0  0  0  0  0  0
    0.2675    2.6213    1.7819 H   0  0  0  0  0  0  0  0  0  0  0  0
    2.8088    4.0580    2.1097 H   0  0  0  0  0  0  0  0  0  0  0  0
    1.1917    4.7717    2.0798 H   0  0  0  0  0  0  0  0  0  0  0  0
    6.5342   -2.0430    1.2838 H   0  0  0  0  0  0  0  0  0  0  0  0
  1  2  2  0
  2  3  1  0
  2 12  1  0
  3  4  1  0
  3 18  1  0
  4  5  1  0
  4  9  1  0
  4 19  1  6
  5  6  1  0
  5 20  1  0
  5 21  1  0
  6  7  1  0
  6 11  1  0
  7  8  1  0
  7 22  1  0
  7 23  1  0
  8  9  1  0
  8 24  1  0
  8 25  1  0
  9 10  1  0
  9 26  1  1
 10 11  1  0
 10 27  1  0
 10 28  1  0
 11 29  1  0
 11 30  1  0
 12 13  2  0
 12 16  1  0
 13 14  1  0
 14 15  2  0
 14 31  1  0
 15 16  1  0
 16 17  1  0
M  END

