
     RDKit          3D

 42 43  0  0  0  0  0  0  0  0999 V2000
    1.2699   -1.0823    0.6895 C   0  0  0  0  0  0  0  0  0  0  0  0
    2.1866    0.0040    0.0933 C   0  0  1  0  0  0  0  0  0  0  0  0
    2.4697    1.0619    1.1591 C   0  0  0  0  0  0  0  0  0  0  0  0
    3.3383    0.6776    2.1160 O   0  0  0  0  0  0  0  0  0  0  0  0
    2.5956    2.4081    0.8226 N   0  0  0  0  0  0  0  0  0  0  0  0
    1.6735    3.0491   -0.1100 C   0  0  0  0  0  0  0  0  0  0  0  0
    1.8971    4.5460    0.1340 C   0  0  0  0  0  0  0  0  0  0  0  0
    2.2700    4.6280    1.6214 C   0  0  1  0  0  0  0  0  0  0  0  0
    2.9437    5.9295    2.0920 C   0  0  0  0  0  0  0  0  0  0  0  0
    2.5972    5.9994    3.5951 C   0  0  0  0  0  0  0  0  0  0  0  0
    1.5727    5.0347    3.8242 O   0  0  0  0  0  0  0  0  0  0  0  0
    1.0644    4.5933    2.5826 C   0  0  0  0  0  0  0  0  0  0  0  0
    3.1324    3.3610    1.7991 C   0  0  0  0  0  0  0  0  0  0  0  0
    3.4608   -0.5770   -0.6488 C   0  0  1  0  0  0  0  0  0  0  0  0
    3.0042   -1.2652   -1.9527 C   0  0  0  0  0  0  0  0  0  0  0  0
    4.4229    0.5659   -1.0235 C   0  0  0  0  0  0  0  0  0  0  0  0
    4.2169   -1.5977    0.2221 C   0  0  0  0  0  0  0  0  0  0  0  0
    0.3286   -0.6285    1.0327 H   0  0  0  0  0  0  0  0  0  0  0  0
    1.7319   -1.5711    1.5595 H   0  0  0  0  0  0  0  0  0  0  0  0
    1.0257   -1.8602   -0.0497 H   0  0  0  0  0  0  0  0  0  0  0  0
    1.6054    0.5367   -0.6778 H   0  0  0  0  0  0  0  0  0  0  0  0
    0.6255    2.7542    0.1082 H   0  0  0  0  0  0  0  0  0  0  0  0
    1.8804    2.7648   -1.1555 H   0  0  0  0  0  0  0  0  0  0  0  0
    1.0091    5.1471   -0.1174 H   0  0  0  0  0  0  0  0  0  0  0  0
    2.7342    4.9142   -0.4819 H   0  0  0  0  0  0  0  0  0  0  0  0
    2.5068    6.7846    1.5516 H   0  0  0  0  0  0  0  0  0  0  0  0
    4.0277    5.9385    1.9003 H   0  0  0  0  0  0  0  0  0  0  0  0
    2.2484    7.0076    3.8862 H   0  0  0  0  0  0  0  0  0  0  0  0
    3.4565    5.7467    4.2393 H   0  0  0  0  0  0  0  0  0  0  0  0
    0.2608    5.2642    2.2090 H   0  0  0  0  0  0  0  0  0  0  0  0
    0.6357    3.5886    2.7227 H   0  0  0  0  0  0  0  0  0  0  0  0
    3.0683    2.9559    2.8221 H   0  0  0  0  0  0  0  0  0  0  0  0
    4.1986    3.5763    1.5933 H   0  0  0  0  0  0  0  0  0  0  0  0
    2.4782   -0.5598   -2.6178 H   0  0  0  0  0  0  0  0  0  0  0  0
    2.3316   -2.1160   -1.7636 H   0  0  0  0  0  0  0  0  0  0  0  0
    3.8753   -1.6547   -2.5054 H   0  0  0  0  0  0  0  0  0  0  0  0
    3.9243    1.3308   -1.6415 H   0  0  0  0  0  0  0  0  0  0  0  0
    5.2709    0.1711   -1.6070 H   0  0  0  0  0  0  0  0  0  0  0  0
    4.8286    1.0617   -0.1305 H   0  0  0  0  0  0  0  0  0  0  0  0
    3.6052   -2.4856    0.4448 H   0  0  0  0  0  0  0  0  0  0  0  0
    4.5294   -1.1474    1.1761 H   0  0  0  0  0  0  0  0  0  0  0  0
    5.1217   -1.9471   -0.3030 H   0  0  0  0  0  0  0  0  0  0  0  0
  1  2  1  0
  1 18  1  0
  1 19  1  0
  1 20  1  0
  2  3  1  0
  2 14  1  0
  2 21  1  6
  3  4  2  0
  3  5  1  0
  5  6  1  0
  5 13  1  0
  6  7  1  0
  6 22  1  0
  6 23  1  0
  8  7  1  6
  7 24  1  0
  7 25  1  0
  8  9  1  0
  8 12  1  0
  8 13  1  0
  9 10  1  0
  9 26  1  0
  9 27  1  0
 10 11  1  0
 10 28  1  0
 10 29  1  0
 11 12  1  0
 12 30  1  0
 12 31  1  0
 13 32  1  0
 13 33  1  0
 14 15  1  6
 14 16  1  0
 14 17  1  0
 15 34  1  0
 15 35  1  0
 15 36  1  0
 16 37  1  0
 16 38  1  0
 16 39  1  0
 17 40  1  0
 17 41  1  0
 17 42  1  0
M  END

