
     RDKit          3D

 42 43  0  0  0  0  0  0  0  0999 V2000
    0.9790   -0.7069   -2.0425 C   0  0  0  0  0  0  0  0  0  0  0  0
    2.3893   -0.8306   -2.6342 C   0  0  1  0  0  0  0  0  0  0  0  0
    2.3269   -1.3711   -4.0698 C   0  0  0  0  0  0  0  0  0  0  0  0
    3.1313    0.5148   -2.5336 C   0  0  0  0  0  0  0  0  0  0  0  0
    4.6135    0.4609   -2.9048 C   0  0  0  0  0  0  0  0  0  0  0  0
    5.3169    1.8068   -2.7029 C   0  0  0  0  0  0  0  0  0  0  0  0
    4.7112    2.7662   -2.2392 O   0  0  0  0  0  0  0  0  0  0  0  0
    6.6398    1.8987   -3.0657 N   0  0  0  0  0  0  0  0  0  0  0  0
    7.4833    0.7851   -3.4763 C   0  0  0  0  0  0  0  0  0  0  0  0
    8.3725    1.1911   -4.6539 C   0  0  0  0  0  0  0  0  0  0  0  0
    9.1271    2.3888   -4.3091 N   0  0  0  0  0  0  0  0  0  0  0  0
    8.2423    3.5061   -3.9820 C   0  0  0  0  0  0  0  0  0  0  0  0
    7.3707    3.1715   -2.7603 C   0  0  2  0  0  0  0  0  0  0  0  0
    8.0865    3.1609   -1.4399 C   0  0  0  0  0  0  0  0  0  0  0  0
    7.4154    3.3882   -0.1800 C   0  0  0  0  0  0  0  0  0  0  0  0
    8.0614    3.3183    1.0267 C   0  0  0  0  0  0  0  0  0  0  0  0
    9.4742    2.9859    1.0972 C   0  0  0  0  0  0  0  0  0  0  0  0
    9.9842    2.7493   -0.1275 N   0  0  0  0  0  0  0  0  0  0  0  0
    9.4789    2.7836   -1.3043 C   0  0  0  0  0  0  0  0  0  0  0  0
    0.4455   -1.6710   -2.0672 H   0  0  0  0  0  0  0  0  0  0  0  0
    0.3764    0.0222   -2.6112 H   0  0  0  0  0  0  0  0  0  0  0  0
    1.0107   -0.3645   -0.9955 H   0  0  0  0  0  0  0  0  0  0  0  0
    2.9450   -1.5672   -2.0213 H   0  0  0  0  0  0  0  0  0  0  0  0
    1.7990   -0.6632   -4.7326 H   0  0  0  0  0  0  0  0  0  0  0  0
    1.7844   -2.3297   -4.1099 H   0  0  0  0  0  0  0  0  0  0  0  0
    3.3276   -1.5441   -4.4966 H   0  0  0  0  0  0  0  0  0  0  0  0
    3.0475    0.9040   -1.5066 H   0  0  0  0  0  0  0  0  0  0  0  0
    2.6261    1.2643   -3.1674 H   0  0  0  0  0  0  0  0  0  0  0  0
    4.7442    0.1431   -3.9528 H   0  0  0  0  0  0  0  0  0  0  0  0
    5.1278   -0.3034   -2.2934 H   0  0  0  0  0  0  0  0  0  0  0  0
    6.8680   -0.0743   -3.7671 H   0  0  0  0  0  0  0  0  0  0  0  0
    8.1239    0.4636   -2.6327 H   0  0  0  0  0  0  0  0  0  0  0  0
    7.7246    1.3432   -5.5469 H   0  0  0  0  0  0  0  0  0  0  0  0
    9.0714    0.3705   -4.8837 H   0  0  0  0  0  0  0  0  0  0  0  0
    9.7652    2.6429   -5.0606 H   0  0  0  0  0  0  0  0  0  0  0  0
    7.5649    3.7564   -4.8273 H   0  0  0  0  0  0  0  0  0  0  0  0
    8.8491    4.3977   -3.7623 H   0  0  0  0  0  0  0  0  0  0  0  0
    6.5730    3.9237   -2.6943 H   0  0  0  0  0  0  0  0  0  0  0  0
    6.3480    3.6258   -0.2083 H   0  0  0  0  0  0  0  0  0  0  0  0
    7.5432    3.5127    1.9689 H   0  0  0  0  0  0  0  0  0  0  0  0
   10.0775    2.8787    1.9930 H   0  0  0  0  0  0  0  0  0  0  0  0
   10.0781    2.5200   -2.1879 H   0  0  0  0  0  0  0  0  0  0  0  0
  1  2  1  0
  1 20  1  0
  1 21  1  0
  1 22  1  0
  2  3  1  0
  2  4  1  0
  2 23  1  1
  3 24  1  0
  3 25  1  0
  3 26  1  0
  4  5  1  0
  4 27  1  0
  4 28  1  0
  5  6  1  0
  5 29  1  0
  5 30  1  0
  6  7  2  0
  6  8  1  0
  8  9  1  0
  8 13  1  0
  9 10  1  0
  9 31  1  0
  9 32  1  0
 10 11  1  0
 10 33  1  0
 10 34  1  0
 11 12  1  0
 11 35  1  0
 12 13  1  0
 12 36  1  0
 12 37  1  0
 13 14  1  0
 13 38  1  1
 14 15  2  0
 14 19  1  0
 15 16  1  0
 15 39  1  0
 16 17  2  0
 16 40  1  0
 17 18  1  0
 17 41  1  0
 18 19  2  0
 19 42  1  0
M  END

