
     RDKit          3D

 40 42  0  0  0  0  0  0  0  0999 V2000
    2.4188   -1.0341    0.3789 C   0  0  0  0  0  0  0  0  0  0  0  0
    2.2077    0.3348   -0.2831 C   0  0  1  0  0  0  0  0  0  0  0  0
    0.8010    0.7168   -0.4208 N   0  0  0  0  0  0  0  0  0  0  0  0
    2.9705    1.5078    0.4148 C   0  0  1  0  0  0  0  0  0  0  0  0
    2.4130    1.7507    1.8148 C   0  0  0  0  0  0  0  0  0  0  0  0
    2.8993    1.0464    2.9293 C   0  0  0  0  0  0  0  0  0  0  0  0
    2.3502    1.2319    4.1993 C   0  0  0  0  0  0  0  0  0  0  0  0
    1.2928    2.1316    4.3652 C   0  0  0  0  0  0  0  0  0  0  0  0
    0.5972    2.3697    5.9546 Cl  0  0  0  0  0  0  0  0  0  0  0  0
    0.7917    2.8469    3.2754 C   0  0  0  0  0  0  0  0  0  0  0  0
    1.3572    2.6537    2.0116 C   0  0  0  0  0  0  0  0  0  0  0  0
    4.4213    1.3086    0.4514 N   0  0  0  0  0  0  0  0  0  0  0  0
    5.0354    0.8503   -0.7895 C   0  0  0  0  0  0  0  0  0  0  0  0
    6.5837    0.7780   -0.6184 C   0  0  1  0  0  0  0  0  0  0  0  0
    7.3407    2.0263   -1.1533 C   0  0  0  0  0  0  0  0  0  0  0  0
    7.5250    2.8891    0.1227 C   0  0  0  0  0  0  0  0  0  0  0  0
    6.6613    2.1179    1.1377 C   0  0  1  0  0  0  0  0  0  0  0  0
    5.1427    2.4551    0.9916 C   0  0  0  0  0  0  0  0  0  0  0  0
    6.8815    0.7612    0.7704 O   0  0  0  0  0  0  0  0  0  0  0  0
    1.9548   -1.8246   -0.2338 H   0  0  0  0  0  0  0  0  0  0  0  0
    1.9501   -1.0660    1.3752 H   0  0  0  0  0  0  0  0  0  0  0  0
    3.4848   -1.2781    0.5067 H   0  0  0  0  0  0  0  0  0  0  0  0
    2.5986    0.2853   -1.3121 H   0  0  0  0  0  0  0  0  0  0  0  0
    0.3164    0.6130    0.4725 H   0  0  0  0  0  0  0  0  0  0  0  0
    0.3336    0.0859   -1.0715 H   0  0  0  0  0  0  0  0  0  0  0  0
    2.7149    2.3998   -0.1998 H   0  0  0  0  0  0  0  0  0  0  0  0
    3.7375    0.3599    2.7927 H   0  0  0  0  0  0  0  0  0  0  0  0
    2.7377    0.6856    5.0612 H   0  0  0  0  0  0  0  0  0  0  0  0
   -0.0289    3.5519    3.4191 H   0  0  0  0  0  0  0  0  0  0  0  0
    0.9637    3.2109    1.1581 H   0  0  0  0  0  0  0  0  0  0  0  0
    4.7849    1.5085   -1.6543 H   0  0  0  0  0  0  0  0  0  0  0  0
    4.6608   -0.1527   -1.0349 H   0  0  0  0  0  0  0  0  0  0  0  0
    6.9621   -0.1569   -1.0554 H   0  0  0  0  0  0  0  0  0  0  0  0
    6.7747    2.5430   -1.9428 H   0  0  0  0  0  0  0  0  0  0  0  0
    8.3111    1.7359   -1.5813 H   0  0  0  0  0  0  0  0  0  0  0  0
    7.2065    3.9346   -0.0042 H   0  0  0  0  0  0  0  0  0  0  0  0
    8.5755    2.8914    0.4488 H   0  0  0  0  0  0  0  0  0  0  0  0
    6.9917    2.2369    2.1791 H   0  0  0  0  0  0  0  0  0  0  0  0
    5.0124    3.3562    0.3466 H   0  0  0  0  0  0  0  0  0  0  0  0
    4.7211    2.7175    1.9707 H   0  0  0  0  0  0  0  0  0  0  0  0
  1  2  1  0
  1 20  1  0
  1 21  1  0
  1 22  1  0
  2  3  1  0
  2  4  1  0
  2 23  1  6
  3 24  1  0
  3 25  1  0
  4  5  1  0
  4 12  1  0
  4 26  1  6
  5  6  2  0
  5 11  1  0
  6  7  1  0
  6 27  1  0
  7  8  2  0
  7 28  1  0
  8  9  1  0
  8 10  1  0
 10 11  2  0
 10 29  1  0
 11 30  1  0
 12 13  1  0
 12 18  1  0
 13 14  1  0
 13 31  1  0
 13 32  1  0
 14 15  1  0
 14 19  1  0
 14 33  1  6
 15 16  1  0
 15 34  1  0
 15 35  1  0
 16 17  1  0
 16 36  1  0
 16 37  1  0
 17 18  1  0
 17 19  1  0
 17 38  1  1
 18 39  1  0
 18 40  1  0
M  END

