
     RDKit          3D

 91 96  0  0  0  0  0  0  0  0999 V2000
    1.9395    1.4166   -0.0644 C   0  0  0  0  0  0  0  0  0  0  0  0
    2.3714    0.2606    0.6221 O   0  0  0  0  0  0  0  0  0  0  0  0
    3.2848    0.3714    1.6117 C   0  0  0  0  0  0  0  0  0  0  0  0
    3.8658    1.5829    2.0290 C   0  0  0  0  0  0  0  0  0  0  0  0
    4.8007    1.5848    3.0613 C   0  0  0  0  0  0  0  0  0  0  0  0
    5.1873    0.3879    3.7068 C   0  0  0  0  0  0  0  0  0  0  0  0
    6.1388    0.4025    4.7551 C   0  0  0  0  0  0  0  0  0  0  0  0
    6.9588    0.4245    5.6660 C   0  0  0  0  0  0  0  0  0  0  0  0
    7.8862    0.4947    6.7369 C   0  0  0  0  0  0  0  0  0  0  0  0
    8.2011    1.7307    7.1689 N   0  0  0  0  0  0  0  0  0  0  0  0
    9.0472    1.8445    8.2098 C   0  0  0  0  0  0  0  0  0  0  0  0
    9.3834    3.1662    8.6000 C   0  0  0  0  0  0  0  0  0  0  0  0
    9.6722    4.3199    8.8970 C   0  0  0  0  0  0  0  0  0  0  0  0
   10.0020    5.6566    9.2258 C   0  0  0  0  0  0  0  0  0  0  0  0
    9.3077    6.7450    8.6337 C   0  0  0  0  0  0  0  0  0  0  0  0
    9.6300    8.0525    8.9531 C   0  0  0  0  0  0  0  0  0  0  0  0
   10.6612    8.3305    9.8745 C   0  0  0  0  0  0  0  0  0  0  0  0
   10.9012    9.6368   10.1194 O   0  0  0  0  0  0  0  0  0  0  0  0
   11.9184   10.0039   11.0278 C   0  0  0  0  0  0  0  0  0  0  0  0
   11.3634    7.2659   10.4691 C   0  0  0  0  0  0  0  0  0  0  0  0
   11.0338    5.9520   10.1458 C   0  0  0  0  0  0  0  0  0  0  0  0
    9.6239    0.7243    8.9012 C   0  0  0  0  0  0  0  0  0  0  0  0
   10.4903    0.9240    9.9819 C   0  0  0  0  0  0  0  0  0  0  0  0
   11.2549    1.0743   10.9334 C   0  0  0  0  0  0  0  0  0  0  0  0
   12.1356    1.2440   12.0242 C   0  0  0  0  0  0  0  0  0  0  0  0
   12.2306    2.4858   12.7100 C   0  0  0  0  0  0  0  0  0  0  0  0
   13.0952    2.6466   13.7787 C   0  0  0  0  0  0  0  0  0  0  0  0
   13.9056    1.5762   14.2113 C   0  0  0  0  0  0  0  0  0  0  0  0
   14.7174    1.8329   15.2616 O   0  0  0  0  0  0  0  0  0  0  0  0
   15.5543    0.8125   15.7635 C   0  0  0  0  0  0  0  0  0  0  0  0
   13.8269    0.3384   13.5469 C   0  0  0  0  0  0  0  0  0  0  0  0
   12.9550    0.1801   12.4730 C   0  0  0  0  0  0  0  0  0  0  0  0
    9.3129   -0.6150    8.4424 C   0  0  0  0  0  0  0  0  0  0  0  0
    9.8491   -1.7439    9.0551 C   0  0  0  0  0  0  0  0  0  0  0  0
   10.3268   -2.7431    9.5998 C   0  0  0  0  0  0  0  0  0  0  0  0
   10.8786   -3.8803   10.2240 C   0  0  0  0  0  0  0  0  0  0  0  0
   11.4878   -3.7970   11.5096 C   0  0  0  0  0  0  0  0  0  0  0  0
   12.0339   -4.9131   12.1208 C   0  0  0  0  0  0  0  0  0  0  0  0
   11.9997   -6.1708   11.4862 C   0  0  0  0  0  0  0  0  0  0  0  0
   12.5630   -7.2037   12.1702 O   0  0  0  0  0  0  0  0  0  0  0  0
   12.5619   -8.4888   11.5972 C   0  0  0  0  0  0  0  0  0  0  0  0
   11.4016   -6.2803   10.2192 C   0  0  0  0  0  0  0  0  0  0  0  0
   10.8543   -5.1558    9.6033 C   0  0  0  0  0  0  0  0  0  0  0  0
    8.4134   -0.7127    7.3113 C   0  0  0  0  0  0  0  0  0  0  0  0
    8.0435   -1.9629    6.8017 C   0  0  0  0  0  0  0  0  0  0  0  0
    7.7309   -3.0713    6.3705 C   0  0  0  0  0  0  0  0  0  0  0  0
    7.3712   -4.3465    5.8817 C   0  0  0  0  0  0  0  0  0  0  0  0
    7.6179   -5.5202    6.6459 C   0  0  0  0  0  0  0  0  0  0  0  0
    7.2629   -6.7692    6.1675 C   0  0  0  0  0  0  0  0  0  0  0  0
    6.6483   -6.9056    4.9053 C   0  0  0  0  0  0  0  0  0  0  0  0
    6.3411   -8.1666    4.5272 O   0  0  0  0  0  0  0  0  0  0  0  0
    5.7237   -8.3911    3.2779 C   0  0  0  0  0  0  0  0  0  0  0  0
    6.3965   -5.7572    4.1320 C   0  0  0  0  0  0  0  0  0  0  0  0
    6.7535   -4.5019    4.6175 C   0  0  0  0  0  0  0  0  0  0  0  0
    4.5871   -0.8235    3.2733 C   0  0  0  0  0  0  0  0  0  0  0  0
    3.6562   -0.8307    2.2486 C   0  0  0  0  0  0  0  0  0  0  0  0
    1.2082    1.0801   -0.8110 H   0  0  0  0  0  0  0  0  0  0  0  0
    2.7746    1.9210   -0.5821 H   0  0  0  0  0  0  0  0  0  0  0  0
    1.4521    2.1379    0.6153 H   0  0  0  0  0  0  0  0  0  0  0  0
    3.5956    2.5269    1.5557 H   0  0  0  0  0  0  0  0  0  0  0  0
    5.2496    2.5266    3.3827 H   0  0  0  0  0  0  0  0  0  0  0  0
    8.5092    6.5365    7.9191 H   0  0  0  0  0  0  0  0  0  0  0  0
    9.0996    8.8942    8.5035 H   0  0  0  0  0  0  0  0  0  0  0  0
   11.9266   11.1014   11.0587 H   0  0  0  0  0  0  0  0  0  0  0  0
   12.9098    9.6466   10.6974 H   0  0  0  0  0  0  0  0  0  0  0  0
   11.7187    9.6179   12.0431 H   0  0  0  0  0  0  0  0  0  0  0  0
   12.1682    7.4526   11.1801 H   0  0  0  0  0  0  0  0  0  0  0  0
   11.5871    5.1291   10.6023 H   0  0  0  0  0  0  0  0  0  0  0  0
   11.5977    3.3158   12.3897 H   0  0  0  0  0  0  0  0  0  0  0  0
   13.1680    3.5961   14.3128 H   0  0  0  0  0  0  0  0  0  0  0  0
   16.1082    1.2496   16.6048 H   0  0  0  0  0  0  0  0  0  0  0  0
   16.2748    0.4625   15.0030 H   0  0  0  0  0  0  0  0  0  0  0  0
   14.9717   -0.0521   16.1281 H   0  0  0  0  0  0  0  0  0  0  0  0
   14.4427   -0.5055   13.8583 H   0  0  0  0  0  0  0  0  0  0  0  0
   12.9038   -0.7799   11.9560 H   0  0  0  0  0  0  0  0  0  0  0  0
   11.5074   -2.8330   12.0219 H   0  0  0  0  0  0  0  0  0  0  0  0
   12.4962   -4.8471   13.1083 H   0  0  0  0  0  0  0  0  0  0  0  0
   13.0586   -9.1549   12.3161 H   0  0  0  0  0  0  0  0  0  0  0  0
   13.1187   -8.5172   10.6423 H   0  0  0  0  0  0  0  0  0  0  0  0
   11.5365   -8.8611   11.4168 H   0  0  0  0  0  0  0  0  0  0  0  0
   11.3620   -7.2384    9.6997 H   0  0  0  0  0  0  0  0  0  0  0  0
   10.4074   -5.2516    8.6118 H   0  0  0  0  0  0  0  0  0  0  0  0
    8.0862   -5.4229    7.6271 H   0  0  0  0  0  0  0  0  0  0  0  0
    7.4458   -7.6731    6.7520 H   0  0  0  0  0  0  0  0  0  0  0  0
    5.5746   -9.4757    3.1942 H   0  0  0  0  0  0  0  0  0  0  0  0
    6.3585   -8.0507    2.4404 H   0  0  0  0  0  0  0  0  0  0  0  0
    4.7426   -7.8881    3.2098 H   0  0  0  0  0  0  0  0  0  0  0  0
    5.9269   -5.8339    3.1513 H   0  0  0  0  0  0  0  0  0  0  0  0
    6.5664   -3.6153    4.0086 H   0  0  0  0  0  0  0  0  0  0  0  0
    4.8623   -1.7570    3.7677 H   0  0  0  0  0  0  0  0  0  0  0  0
    3.1878   -1.7579    1.9127 H   0  0  0  0  0  0  0  0  0  0  0  0
  1  2  1  0
  1 57  1  0
  1 58  1  0
  1 59  1  0
  2  3  1  0
  3  4  2  0
  3 56  1  0
  4  5  1  0
  4 60  1  0
  5  6  2  0
  5 61  1  0
  6  7  1  0
  6 55  1  0
  7  8  3  0
  8  9  1  0
  9 10  2  0
  9 44  1  0
 10 11  1  0
 11 12  1  0
 11 22  2  0
 12 13  3  0
 13 14  1  0
 14 15  2  0
 14 21  1  0
 15 16  1  0
 15 62  1  0
 16 17  2  0
 16 63  1  0
 17 18  1  0
 17 20  1  0
 18 19  1  0
 19 64  1  0
 19 65  1  0
 19 66  1  0
 20 21  2  0
 20 67  1  0
 21 68  1  0
 22 23  1  0
 22 33  1  0
 23 24  3  0
 24 25  1  0
 25 26  2  0
 25 32  1  0
 26 27  1  0
 26 69  1  0
 27 28  2  0
 27 70  1  0
 28 29  1  0
 28 31  1  0
 29 30  1  0
 30 71  1  0
 30 72  1  0
 30 73  1  0
 31 32  2  0
 31 74  1  0
 32 75  1  0
 33 34  1  0
 33 44  2  0
 34 35  3  0
 35 36  1  0
 36 37  2  0
 36 43  1  0
 37 38  1  0
 37 76  1  0
 38 39  2  0
 38 77  1  0
 39 40  1  0
 39 42  1  0
 40 41  1  0
 41 78  1  0
 41 79  1  0
 41 80  1  0
 42 43  2  0
 42 81  1  0
 43 82  1  0
 44 45  1  0
 45 46  3  0
 46 47  1  0
 47 48  2  0
 47 54  1  0
 48 49  1  0
 48 83  1  0
 49 50  2  0
 49 84  1  0
 50 51  1  0
 50 53  1  0
 51 52  1  0
 52 85  1  0
 52 86  1  0
 52 87  1  0
 53 54  2  0
 53 88  1  0
 54 89  1  0
 55 56  2  0
 55 90  1  0
 56 91  1  0
M  END

