
     RDKit          3D

 36 38  0  0  0  0  0  0  0  0999 V2000
    1.2824    0.3663    0.4411 C   0  0  0  0  0  0  0  0  0  0  0  0
    2.5856    0.1089   -0.1370 N   0  0  0  0  0  0  0  0  0  0  0  0
    2.9808   -1.2686   -0.2911 C   0  0  0  0  0  0  0  0  0  0  0  0
    2.4313   -1.8905   -1.6645 C   0  0  2  0  0  0  0  0  0  0  0  0
    3.0195   -3.2506   -1.9724 C   0  0  0  0  0  0  0  0  0  0  0  0
    2.1877   -4.3326   -2.1904 C   0  0  0  0  0  0  0  0  0  0  0  0
    2.6838   -5.5806   -2.6482 C   0  0  0  0  0  0  0  0  0  0  0  0
    4.0944   -5.6795   -2.9082 C   0  0  0  0  0  0  0  0  0  0  0  0
    4.9337   -4.6036   -2.7167 C   0  0  0  0  0  0  0  0  0  0  0  0
    4.4439   -3.3284   -2.2706 C   0  0  0  0  0  0  0  0  0  0  0  0
    2.7290   -0.9546   -2.7118 N   0  0  0  0  0  0  0  0  0  0  0  0
    2.3879    0.4007   -2.5657 C   0  0  0  0  0  0  0  0  0  0  0  0
    3.0217    0.9817   -1.1896 C   0  0  2  0  0  0  0  0  0  0  0  0
    4.5257    1.1193   -1.3249 C   0  0  1  0  0  0  0  0  0  0  0  0
    5.1028    2.4238   -1.8191 C   0  0  0  0  0  0  0  0  0  0  0  0
    5.2786    2.0194   -0.3794 C   0  0  0  0  0  0  0  0  0  0  0  0
    1.1627   -0.2200    1.3621 H   0  0  0  0  0  0  0  0  0  0  0  0
    0.4542    0.0909   -0.2451 H   0  0  0  0  0  0  0  0  0  0  0  0
    1.1807    1.4328    0.6875 H   0  0  0  0  0  0  0  0  0  0  0  0
    2.5846   -1.8785    0.5294 H   0  0  0  0  0  0  0  0  0  0  0  0
    4.0721   -1.3533   -0.2951 H   0  0  0  0  0  0  0  0  0  0  0  0
    1.3352   -1.9400   -1.5356 H   0  0  0  0  0  0  0  0  0  0  0  0
    1.1085   -4.2158   -2.0288 H   0  0  0  0  0  0  0  0  0  0  0  0
    2.0232   -6.4400   -2.7639 H   0  0  0  0  0  0  0  0  0  0  0  0
    4.5092   -6.6265   -3.2690 H   0  0  0  0  0  0  0  0  0  0  0  0
    6.0057   -4.7198   -2.9109 H   0  0  0  0  0  0  0  0  0  0  0  0
    5.1575   -2.6191   -1.8354 H   0  0  0  0  0  0  0  0  0  0  0  0
    3.5495   -1.2240   -3.2597 H   0  0  0  0  0  0  0  0  0  0  0  0
    1.2954    0.5277   -2.4661 H   0  0  0  0  0  0  0  0  0  0  0  0
    2.7500    1.0056   -3.4086 H   0  0  0  0  0  0  0  0  0  0  0  0
    2.5760    1.9756   -1.0297 H   0  0  0  0  0  0  0  0  0  0  0  0
    5.0432    0.2134   -1.6521 H   0  0  0  0  0  0  0  0  0  0  0  0
    4.4104    3.2427   -2.0393 H   0  0  0  0  0  0  0  0  0  0  0  0
    5.9669    2.3813   -2.4866 H   0  0  0  0  0  0  0  0  0  0  0  0
    4.7023    2.5580    0.3787 H   0  0  0  0  0  0  0  0  0  0  0  0
    6.2657    1.6946   -0.0414 H   0  0  0  0  0  0  0  0  0  0  0  0
  1  2  1  0
  1 17  1  0
  1 18  1  0
  1 19  1  0
  2  3  1  0
  2 13  1  0
  3  4  1  0
  3 20  1  0
  3 21  1  0
  4  5  1  0
  4 11  1  0
  4 22  1  1
  5  6  2  0
  5 10  1  0
  6  7  1  0
  6 23  1  0
  7  8  2  0
  7 24  1  0
  8  9  1  0
  8 25  1  0
  9 10  2  0
  9 26  1  0
 10 27  1  0
 11 12  1  0
 11 28  1  0
 12 13  1  0
 12 29  1  0
 12 30  1  0
 13 14  1  0
 13 31  1  1
 14 15  1  0
 14 16  1  0
 14 32  1  6
 15 16  1  0
 15 33  1  0
 15 34  1  0
 16 35  1  0
 16 36  1  0
M  END

