
     RDKit          3D

 47 49  0  0  0  0  0  0  0  0999 V2000
    1.6612   -0.3100   -1.3466 C   0  0  0  0  0  0  0  0  0  0  0  0
    3.1656   -0.2302   -1.4237 C   0  0  0  0  0  0  0  0  0  0  0  0
    3.8151    0.9446   -1.8348 C   0  0  0  0  0  0  0  0  0  0  0  0
    5.2049    1.0108   -1.9235 C   0  0  0  0  0  0  0  0  0  0  0  0
    5.9953   -0.1095   -1.5971 C   0  0  0  0  0  0  0  0  0  0  0  0
    7.4203   -0.0653   -1.6774 C   0  0  0  0  0  0  0  0  0  0  0  0
    8.6397   -0.0752   -1.7319 C   0  0  0  0  0  0  0  0  0  0  0  0
   10.0625   -0.1783   -1.7685 C   0  0  0  0  0  0  0  0  0  0  0  0
   10.8439    0.8075   -2.4056 C   0  0  0  0  0  0  0  0  0  0  0  0
   12.2328    0.6961   -2.4570 C   0  0  0  0  0  0  0  0  0  0  0  0
   12.8651   -0.4036   -1.8709 C   0  0  0  0  0  0  0  0  0  0  0  0
   12.0999   -1.3846   -1.2309 C   0  0  0  0  0  0  0  0  0  0  0  0
   10.7038   -1.2965   -1.1634 C   0  0  0  0  0  0  0  0  0  0  0  0
    9.8871   -2.3535   -0.4580 C   0  0  0  0  0  0  0  0  0  0  0  0
    9.0099   -3.2535   -1.3465 C   0  0  0  0  0  0  0  0  0  0  0  0
    7.9298   -3.6715   -0.9584 O   0  0  0  0  0  0  0  0  0  0  0  0
    9.5488   -3.5870   -2.5535 N   0  0  0  0  0  0  0  0  0  0  0  0
    8.8736   -4.4423   -3.5134 C   0  0  0  0  0  0  0  0  0  0  0  0
    8.7882   -3.8388   -4.9022 C   0  0  0  0  0  0  0  0  0  0  0  0
    9.1154   -4.6047   -6.0303 C   0  0  0  0  0  0  0  0  0  0  0  0
    9.0102   -4.0676   -7.3173 C   0  0  0  0  0  0  0  0  0  0  0  0
    8.5813   -2.7495   -7.4919 C   0  0  0  0  0  0  0  0  0  0  0  0
    8.2570   -1.9749   -6.3727 C   0  0  0  0  0  0  0  0  0  0  0  0
    8.3582   -2.5145   -5.0884 C   0  0  0  0  0  0  0  0  0  0  0  0
    5.3495   -1.2964   -1.1806 C   0  0  0  0  0  0  0  0  0  0  0  0
    3.9609   -1.3440   -1.0991 C   0  0  0  0  0  0  0  0  0  0  0  0
    1.1961    0.6830   -1.4351 H   0  0  0  0  0  0  0  0  0  0  0  0
    1.3306   -0.7586   -0.3957 H   0  0  0  0  0  0  0  0  0  0  0  0
    1.2549   -0.9410   -2.1563 H   0  0  0  0  0  0  0  0  0  0  0  0
    3.2201    1.8264   -2.0894 H   0  0  0  0  0  0  0  0  0  0  0  0
    5.6911    1.9350   -2.2435 H   0  0  0  0  0  0  0  0  0  0  0  0
   10.3413    1.6625   -2.8623 H   0  0  0  0  0  0  0  0  0  0  0  0
   12.8222    1.4694   -2.9557 H   0  0  0  0  0  0  0  0  0  0  0  0
   13.9534   -0.4972   -1.9048 H   0  0  0  0  0  0  0  0  0  0  0  0
   12.6005   -2.2361   -0.7605 H   0  0  0  0  0  0  0  0  0  0  0  0
    9.1951   -1.9015    0.2661 H   0  0  0  0  0  0  0  0  0  0  0  0
   10.5557   -3.0230    0.1086 H   0  0  0  0  0  0  0  0  0  0  0  0
   10.4336   -3.1684   -2.8201 H   0  0  0  0  0  0  0  0  0  0  0  0
    7.8688   -4.6208   -3.0985 H   0  0  0  0  0  0  0  0  0  0  0  0
    9.3726   -5.4261   -3.5729 H   0  0  0  0  0  0  0  0  0  0  0  0
    9.4579   -5.6357   -5.8998 H   0  0  0  0  0  0  0  0  0  0  0  0
    9.2699   -4.6801   -8.1848 H   0  0  0  0  0  0  0  0  0  0  0  0
    8.5018   -2.3253   -8.4962 H   0  0  0  0  0  0  0  0  0  0  0  0
    7.9198   -0.9429   -6.5003 H   0  0  0  0  0  0  0  0  0  0  0  0
    8.1025   -1.9020   -4.2199 H   0  0  0  0  0  0  0  0  0  0  0  0
    5.9546   -2.1715   -0.9300 H   0  0  0  0  0  0  0  0  0  0  0  0
    3.4793   -2.2711   -0.7742 H   0  0  0  0  0  0  0  0  0  0  0  0
  1  2  1  0
  1 27  1  0
  1 28  1  0
  1 29  1  0
  2  3  2  0
  2 26  1  0
  3  4  1  0
  3 30  1  0
  4  5  2  0
  4 31  1  0
  5  6  1  0
  5 25  1  0
  6  7  3  0
  7  8  1  0
  8  9  2  0
  8 13  1  0
  9 10  1  0
  9 32  1  0
 10 11  2  0
 10 33  1  0
 11 12  1  0
 11 34  1  0
 12 13  2  0
 12 35  1  0
 13 14  1  0
 14 15  1  0
 14 36  1  0
 14 37  1  0
 15 16  2  0
 15 17  1  0
 17 18  1  0
 17 38  1  0
 18 19  1  0
 18 39  1  0
 18 40  1  0
 19 20  2  0
 19 24  1  0
 20 21  1  0
 20 41  1  0
 21 22  2  0
 21 42  1  0
 22 23  1  0
 22 43  1  0
 23 24  2  0
 23 44  1  0
 24 45  1  0
 25 26  2  0
 25 46  1  0
 26 47  1  0
M  END

