
     RDKit          3D

 60 63  0  0  0  0  0  0  0  0999 V2000
    0.4948    2.3379   -7.3776 O   0  0  0  0  0  0  0  0  0  0  0  0
    1.0491    1.6015   -6.5719 C   0  0  0  0  0  0  0  0  0  0  0  0
    0.5398    0.1610   -6.3303 C   0  0  1  0  0  0  0  0  0  0  0  0
   -0.6657   -0.2018   -7.2151 C   0  0  0  0  0  0  0  0  0  0  0  0
   -0.3430   -1.6286   -7.6815 C   0  0  0  0  0  0  0  0  0  0  0  0
    1.1824   -1.5897   -7.7405 C   0  0  0  0  0  0  0  0  0  0  0  0
    1.5718   -0.7911   -6.6277 O   0  0  0  0  0  0  0  0  0  0  0  0
    2.1268    2.0082   -5.8317 N   0  0  0  0  0  0  0  0  0  0  0  0
    2.6618    3.3549   -6.0282 C   0  0  0  0  0  0  0  0  0  0  0  0
    2.8220    4.0636   -4.6740 C   0  0  0  0  0  0  0  0  0  0  0  0
    3.6025    3.2987   -3.7039 N   0  0  0  0  0  0  0  0  0  0  0  0
    5.0542    3.3909   -3.8525 C   0  0  0  0  0  0  0  0  0  0  0  0
    5.5981    4.6734   -3.2115 C   0  0  0  0  0  0  0  0  0  0  0  0
    7.1226    4.7312   -3.2604 C   0  0  0  0  0  0  0  0  0  0  0  0
    7.7275    3.8137   -3.8031 O   0  0  0  0  0  0  0  0  0  0  0  0
    7.8143    5.7890   -2.6936 N   0  0  0  0  0  0  0  0  0  0  0  0
    9.2685    5.7949   -2.9040 C   0  0  0  0  0  0  0  0  0  0  0  0
    9.6582    6.8725   -3.9194 C   0  0  0  0  0  0  0  0  0  0  0  0
    9.1714    8.2503   -3.4613 C   0  0  0  0  0  0  0  0  0  0  0  0
    7.6861    8.2440   -3.0681 C   0  0  2  0  0  0  0  0  0  0  0  0
    7.2885    9.5801   -2.4235 C   0  0  0  0  0  0  0  0  0  0  0  0
    5.9605    9.5965   -1.9503 O   0  0  0  0  0  0  0  0  0  0  0  0
    5.7274    8.5901   -0.9893 C   0  0  0  0  0  0  0  0  0  0  0  0
    5.9262    7.1951   -1.5879 C   0  0  0  0  0  0  0  0  0  0  0  0
    7.3625    7.0684   -2.1087 C   0  0  1  0  0  0  0  0  0  0  0  0
    3.0582    1.9541   -3.5619 C   0  0  0  0  0  0  0  0  0  0  0  0
    2.8993    1.1977   -4.8922 C   0  0  0  0  0  0  0  0  0  0  0  0
    0.2901    0.0572   -5.2582 H   0  0  0  0  0  0  0  0  0  0  0  0
   -0.7124    0.5001   -8.0598 H   0  0  0  0  0  0  0  0  0  0  0  0
   -1.6170   -0.1267   -6.6689 H   0  0  0  0  0  0  0  0  0  0  0  0
   -0.8064   -1.8825   -8.6469 H   0  0  0  0  0  0  0  0  0  0  0  0
   -0.6729   -2.3737   -6.9386 H   0  0  0  0  0  0  0  0  0  0  0  0
    1.5309   -1.1346   -8.6892 H   0  0  0  0  0  0  0  0  0  0  0  0
    1.6636   -2.5748   -7.6369 H   0  0  0  0  0  0  0  0  0  0  0  0
    1.9725    3.8977   -6.6869 H   0  0  0  0  0  0  0  0  0  0  0  0
    3.6395    3.2866   -6.5426 H   0  0  0  0  0  0  0  0  0  0  0  0
    1.8162    4.2438   -4.2527 H   0  0  0  0  0  0  0  0  0  0  0  0
    3.2845    5.0513   -4.8279 H   0  0  0  0  0  0  0  0  0  0  0  0
    5.4012    3.3316   -4.9022 H   0  0  0  0  0  0  0  0  0  0  0  0
    5.5148    2.5297   -3.3477 H   0  0  0  0  0  0  0  0  0  0  0  0
    5.2356    4.7232   -2.1755 H   0  0  0  0  0  0  0  0  0  0  0  0
    5.1840    5.5563   -3.7231 H   0  0  0  0  0  0  0  0  0  0  0  0
    9.5621    4.7975   -3.2465 H   0  0  0  0  0  0  0  0  0  0  0  0
    9.7618    5.9920   -1.9345 H   0  0  0  0  0  0  0  0  0  0  0  0
    9.2125    6.6134   -4.8951 H   0  0  0  0  0  0  0  0  0  0  0  0
   10.7523    6.8782   -4.0593 H   0  0  0  0  0  0  0  0  0  0  0  0
    9.3523    9.0099   -4.2409 H   0  0  0  0  0  0  0  0  0  0  0  0
    9.7649    8.5632   -2.5816 H   0  0  0  0  0  0  0  0  0  0  0  0
    7.0681    8.1020   -3.9741 H   0  0  0  0  0  0  0  0  0  0  0  0
    7.3776   10.3987   -3.1545 H   0  0  0  0  0  0  0  0  0  0  0  0
    7.9900    9.8024   -1.5897 H   0  0  0  0  0  0  0  0  0  0  0  0
    4.6905    8.7142   -0.6427 H   0  0  0  0  0  0  0  0  0  0  0  0
    6.3943    8.7327   -0.1120 H   0  0  0  0  0  0  0  0  0  0  0  0
    5.1939    7.0852   -2.3975 H   0  0  0  0  0  0  0  0  0  0  0  0
    5.7125    6.4277   -0.8273 H   0  0  0  0  0  0  0  0  0  0  0  0
    8.0102    7.2082   -1.2192 H   0  0  0  0  0  0  0  0  0  0  0  0
    2.0605    2.0314   -3.0900 H   0  0  0  0  0  0  0  0  0  0  0  0
    3.6974    1.3722   -2.8791 H   0  0  0  0  0  0  0  0  0  0  0  0
    2.4212    0.2253   -4.7344 H   0  0  0  0  0  0  0  0  0  0  0  0
    3.8932    0.9854   -5.3303 H   0  0  0  0  0  0  0  0  0  0  0  0
  1  2  2  0
  2  3  1  0
  2  8  1  0
  3  4  1  0
  3  7  1  0
  3 28  1  1
  4  5  1  0
  4 29  1  0
  4 30  1  0
  5  6  1  0
  5 31  1  0
  5 32  1  0
  6  7  1  0
  6 33  1  0
  6 34  1  0
  8  9  1  0
  8 27  1  0
  9 10  1  0
  9 35  1  0
  9 36  1  0
 10 11  1  0
 10 37  1  0
 10 38  1  0
 11 12  1  0
 11 26  1  0
 12 13  1  0
 12 39  1  0
 12 40  1  0
 13 14  1  0
 13 41  1  0
 13 42  1  0
 14 15  2  0
 14 16  1  0
 16 17  1  0
 16 25  1  0
 17 18  1  0
 17 43  1  0
 17 44  1  0
 18 19  1  0
 18 45  1  0
 18 46  1  0
 19 20  1  0
 19 47  1  0
 19 48  1  0
 20 21  1  0
 20 25  1  0
 20 49  1  6
 21 22  1  0
 21 50  1  0
 21 51  1  0
 22 23  1  0
 23 24  1  0
 23 52  1  0
 23 53  1  0
 24 25  1  0
 24 54  1  0
 24 55  1  0
 25 56  1  1
 26 27  1  0
 26 57  1  0
 26 58  1  0
 27 59  1  0
 27 60  1  0
M  END

