
     RDKit          3D

 35 37  0  0  0  0  0  0  0  0999 V2000
    0.9564   -0.3764   -0.6168 C   0  0  0  0  0  0  0  0  0  0  0  0
    2.4144   -0.1561   -0.4274 C   0  0  0  0  0  0  0  0  0  0  0  0
    3.0645    0.9626   -0.4677 N   0  0  0  0  0  0  0  0  0  0  0  0
    4.3917    0.6108   -0.2284 C   0  0  0  0  0  0  0  0  0  0  0  0
    5.5498    1.3854   -0.1530 C   0  0  0  0  0  0  0  0  0  0  0  0
    6.7744    0.7359    0.1038 C   0  0  0  0  0  0  0  0  0  0  0  0
    7.9374    1.5011    0.2013 N   0  0  0  0  0  0  0  0  0  0  0  0
    9.2678    0.9291    0.1678 C   0  0  0  0  0  0  0  0  0  0  0  0
    9.7217    0.3748    1.4923 C   0  0  0  0  0  0  0  0  0  0  0  0
    9.3727    0.7472    2.7787 C   0  0  0  0  0  0  0  0  0  0  0  0
   10.0869   -0.0969    3.5722 N   0  0  0  0  0  0  0  0  0  0  0  0
   10.1831   -0.1187    5.0232 C   0  0  0  0  0  0  0  0  0  0  0  0
   11.1898    0.9071    5.5520 C   0  0  0  0  0  0  0  0  0  0  0  0
   10.8253    2.2334    5.2468 O   0  0  0  0  0  0  0  0  0  0  0  0
   10.8353   -0.9281    2.8292 N   0  0  0  0  0  0  0  0  0  0  0  0
   10.6124   -0.6518    1.5791 N   0  0  0  0  0  0  0  0  0  0  0  0
    6.8020   -0.6743    0.2784 C   0  0  0  0  0  0  0  0  0  0  0  0
    5.6406   -1.4513    0.2043 C   0  0  0  0  0  0  0  0  0  0  0  0
    4.4544   -0.7804   -0.0502 C   0  0  0  0  0  0  0  0  0  0  0  0
    3.1777   -1.2664   -0.1793 O   0  0  0  0  0  0  0  0  0  0  0  0
    0.4673    0.5874   -0.8024 H   0  0  0  0  0  0  0  0  0  0  0  0
    0.5129   -0.8458    0.2762 H   0  0  0  0  0  0  0  0  0  0  0  0
    0.7708   -1.0505   -1.4686 H   0  0  0  0  0  0  0  0  0  0  0  0
    5.5009    2.4682   -0.2899 H   0  0  0  0  0  0  0  0  0  0  0  0
    7.8594    2.4265   -0.1993 H   0  0  0  0  0  0  0  0  0  0  0  0
    9.9611    1.7271   -0.1471 H   0  0  0  0  0  0  0  0  0  0  0  0
    9.3695    0.1259   -0.5870 H   0  0  0  0  0  0  0  0  0  0  0  0
    8.6837    1.4887    3.1713 H   0  0  0  0  0  0  0  0  0  0  0  0
   10.4837   -1.1368    5.3093 H   0  0  0  0  0  0  0  0  0  0  0  0
    9.1854    0.0886    5.4382 H   0  0  0  0  0  0  0  0  0  0  0  0
   12.1977    0.6536    5.1719 H   0  0  0  0  0  0  0  0  0  0  0  0
   11.2203    0.8220    6.6507 H   0  0  0  0  0  0  0  0  0  0  0  0
   11.0547    2.4096    4.3251 H   0  0  0  0  0  0  0  0  0  0  0  0
    7.7482   -1.1745    0.4856 H   0  0  0  0  0  0  0  0  0  0  0  0
    5.6769   -2.5336    0.3400 H   0  0  0  0  0  0  0  0  0  0  0  0
  1  2  1  0
  1 21  1  0
  1 22  1  0
  1 23  1  0
  2  3  2  0
  2 20  1  0
  3  4  1  0
  4  5  2  0
  4 19  1  0
  5  6  1  0
  5 24  1  0
  6  7  1  0
  6 17  2  0
  7  8  1  0
  7 25  1  0
  8  9  1  0
  8 26  1  0
  8 27  1  0
  9 10  2  0
  9 16  1  0
 10 11  1  0
 10 28  1  0
 11 12  1  0
 11 15  1  0
 12 13  1  0
 12 29  1  0
 12 30  1  0
 13 14  1  0
 13 31  1  0
 13 32  1  0
 14 33  1  0
 15 16  2  0
 17 18  1  0
 17 34  1  0
 18 19  2  0
 18 35  1  0
 19 20  1  0
M  END

