
     RDKit          3D

 37 37  0  0  0  0  0  0  0  0999 V2000
    0.4951    1.2613    1.6084 C   0  0  0  0  0  0  0  0  0  0  0  0
    1.9745    1.5733    1.7998 C   0  0  0  0  0  0  0  0  0  0  0  0
    2.7955    0.4047    1.5211 N   0  0  0  0  0  0  0  0  0  0  0  0
    4.1814    0.4384    1.5891 C   0  0  0  0  0  0  0  0  0  0  0  0
    4.8631    1.6562    1.8202 C   0  0  0  0  0  0  0  0  0  0  0  0
    6.2501    1.7077    1.9034 C   0  0  0  0  0  0  0  0  0  0  0  0
    7.0142    0.5419    1.7817 C   0  0  0  0  0  0  0  0  0  0  0  0
    8.5075    0.5840    1.9480 C   0  0  1  0  0  0  0  0  0  0  0  0
    9.0165    1.7789    1.5866 F   0  0  0  0  0  0  0  0  0  0  0  0
    8.8821    0.3793    3.2286 F   0  0  0  0  0  0  0  0  0  0  0  0
    9.1247   -0.3575    1.2115 F   0  0  0  0  0  0  0  0  0  0  0  0
    6.3593   -0.6680    1.5491 C   0  0  0  0  0  0  0  0  0  0  0  0
    4.9693   -0.7400    1.4165 C   0  0  0  0  0  0  0  0  0  0  0  0
    4.4254   -2.1117    1.1059 C   0  0  0  0  0  0  0  0  0  0  0  0
    4.9915   -3.1300    1.4805 O   0  0  0  0  0  0  0  0  0  0  0  0
    3.2903   -2.1625    0.3439 N   0  0  0  0  0  0  0  0  0  0  0  0
    2.6177   -3.4182    0.0725 C   0  0  0  0  0  0  0  0  0  0  0  0
    1.8843   -3.9926    1.2904 C   0  0  0  0  0  0  0  0  0  0  0  0
    0.5780   -2.8473    1.8840 S   0  0  0  0  0  0  0  0  0  0  0  0
    0.2517   -3.5618    3.5266 C   0  0  0  0  0  0  0  0  0  0  0  0
   -0.1139    2.1525    1.8224 H   0  0  0  0  0  0  0  0  0  0  0  0
    0.1648    0.4550    2.2826 H   0  0  0  0  0  0  0  0  0  0  0  0
    0.2867    0.9415    0.5753 H   0  0  0  0  0  0  0  0  0  0  0  0
    2.1488    1.9539    2.8273 H   0  0  0  0  0  0  0  0  0  0  0  0
    2.2696    2.3864    1.1153 H   0  0  0  0  0  0  0  0  0  0  0  0
    2.3634   -0.4753    1.7996 H   0  0  0  0  0  0  0  0  0  0  0  0
    4.2985    2.5783    1.9493 H   0  0  0  0  0  0  0  0  0  0  0  0
    6.7431    2.6666    2.0755 H   0  0  0  0  0  0  0  0  0  0  0  0
    6.9222   -1.5972    1.4472 H   0  0  0  0  0  0  0  0  0  0  0  0
    2.8708   -1.2939    0.0329 H   0  0  0  0  0  0  0  0  0  0  0  0
    3.3633   -4.1623   -0.2504 H   0  0  0  0  0  0  0  0  0  0  0  0
    1.9170   -3.2594   -0.7620 H   0  0  0  0  0  0  0  0  0  0  0  0
    2.6107   -4.1604    2.0997 H   0  0  0  0  0  0  0  0  0  0  0  0
    1.4299   -4.9610    1.0240 H   0  0  0  0  0  0  0  0  0  0  0  0
   -0.5211   -2.9391    3.9996 H   0  0  0  0  0  0  0  0  0  0  0  0
    1.1558   -3.5493    4.1542 H   0  0  0  0  0  0  0  0  0  0  0  0
   -0.1272   -4.5917    3.4439 H   0  0  0  0  0  0  0  0  0  0  0  0
  1  2  1  0
  1 21  1  0
  1 22  1  0
  1 23  1  0
  2  3  1  0
  2 24  1  0
  2 25  1  0
  3  4  1  0
  3 26  1  0
  4  5  2  0
  4 13  1  0
  5  6  1  0
  5 27  1  0
  6  7  2  0
  6 28  1  0
  7  8  1  0
  7 12  1  0
  8  9  1  1
  8 10  1  0
  8 11  1  0
 12 13  2  0
 12 29  1  0
 13 14  1  0
 14 15  2  0
 14 16  1  0
 16 17  1  0
 16 30  1  0
 17 18  1  0
 17 31  1  0
 17 32  1  0
 18 19  1  0
 18 33  1  0
 18 34  1  0
 19 20  1  0
 20 35  1  0
 20 36  1  0
 20 37  1  0
M  END

