
     RDKit          3D

 33 33  0  0  0  0  0  0  0  0999 V2000
    1.5560   -0.7997   -1.0832 C   0  0  0  0  0  0  0  0  0  0  0  0
    2.3570    0.0971   -0.1361 C   0  0  0  0  0  0  0  0  0  0  0  0
    3.1166    1.2868   -0.7982 C   0  0  1  0  0  0  0  0  0  0  0  0
    4.0505    0.7172   -1.8854 C   0  0  0  0  0  0  0  0  0  0  0  0
    4.0328    1.0404   -3.0415 O   0  0  0  0  0  0  0  0  0  0  0  0
    4.9459   -0.2136   -1.4663 O   0  0  0  0  0  0  0  0  0  0  0  0
    2.1460    2.2870   -1.4696 C   0  0  0  0  0  0  0  0  0  0  0  0
    1.2443    3.0251   -0.4738 C   0  0  0  0  0  0  0  0  0  0  0  0
    2.0424    3.7931    0.5984 C   0  0  2  0  0  0  0  0  0  0  0  0
    2.6227    5.1122    0.0640 C   0  0  0  0  0  0  0  0  0  0  0  0
    3.0787    2.8483    1.2480 C   0  0  0  0  0  0  0  0  0  0  0  0
    3.9797    2.0384    0.2833 C   0  0  2  0  0  0  0  0  0  0  0  0
    5.1267    2.8682   -0.3221 C   0  0  0  0  0  0  0  0  0  0  0  0
    1.0815   -1.6210   -0.5234 H   0  0  0  0  0  0  0  0  0  0  0  0
    2.1940   -1.2534   -1.8584 H   0  0  0  0  0  0  0  0  0  0  0  0
    0.7539   -0.2462   -1.5948 H   0  0  0  0  0  0  0  0  0  0  0  0
    3.0826   -0.5274    0.4180 H   0  0  0  0  0  0  0  0  0  0  0  0
    1.6865    0.4920    0.6419 H   0  0  0  0  0  0  0  0  0  0  0  0
    4.8441   -0.3751   -0.5176 H   0  0  0  0  0  0  0  0  0  0  0  0
    1.5389    1.7624   -2.2220 H   0  0  0  0  0  0  0  0  0  0  0  0
    2.7411    3.0084   -2.0487 H   0  0  0  0  0  0  0  0  0  0  0  0
    0.5691    2.3075    0.0236 H   0  0  0  0  0  0  0  0  0  0  0  0
    0.5878    3.7212   -1.0228 H   0  0  0  0  0  0  0  0  0  0  0  0
    1.3378    4.0726    1.4019 H   0  0  0  0  0  0  0  0  0  0  0  0
    3.2423    4.9771   -0.8348 H   0  0  0  0  0  0  0  0  0  0  0  0
    3.2464    5.6111    0.8235 H   0  0  0  0  0  0  0  0  0  0  0  0
    1.8093    5.8056   -0.2051 H   0  0  0  0  0  0  0  0  0  0  0  0
    2.5263    2.1345    1.8825 H   0  0  0  0  0  0  0  0  0  0  0  0
    3.7252    3.4161    1.9393 H   0  0  0  0  0  0  0  0  0  0  0  0
    4.4621    1.2644    0.9110 H   0  0  0  0  0  0  0  0  0  0  0  0
    4.7888    3.5563   -1.1090 H   0  0  0  0  0  0  0  0  0  0  0  0
    5.8946    2.2184   -0.7684 H   0  0  0  0  0  0  0  0  0  0  0  0
    5.6177    3.4709    0.4581 H   0  0  0  0  0  0  0  0  0  0  0  0
  1  2  1  0
  1 14  1  0
  1 15  1  0
  1 16  1  0
  2  3  1  0
  2 17  1  0
  2 18  1  0
  3  4  1  6
  3  7  1  0
  3 12  1  0
  4  5  2  0
  4  6  1  0
  6 19  1  0
  7  8  1  0
  7 20  1  0
  7 21  1  0
  8  9  1  0
  8 22  1  0
  8 23  1  0
  9 10  1  0
  9 11  1  0
  9 24  1  1
 10 25  1  0
 10 26  1  0
 10 27  1  0
 11 12  1  0
 11 28  1  0
 11 29  1  0
 12 13  1  0
 12 30  1  1
 13 31  1  0
 13 32  1  0
 13 33  1  0
M  END

