
     RDKit          3D

 50 52  0  0  0  0  0  0  0  0999 V2000
    7.1751    4.0601    7.4619 C   0  0  0  0  0  0  0  0  0  0  0  0
    7.1071    2.5449    7.3131 C   0  0  0  0  0  0  0  0  0  0  0  0
    6.3055    2.1067    6.0831 C   0  0  0  0  0  0  0  0  0  0  0  0
    5.8726    2.9012    5.2701 O   0  0  0  0  0  0  0  0  0  0  0  0
    6.1420    0.7403    5.9943 N   0  0  0  0  0  0  0  0  0  0  0  0
    5.4867   -0.0220    5.0061 C   0  0  0  0  0  0  0  0  0  0  0  0
    4.8515    0.5450    3.8877 C   0  0  0  0  0  0  0  0  0  0  0  0
    4.2291   -0.3059    2.9724 C   0  0  0  0  0  0  0  0  0  0  0  0
    4.2124   -1.6933    3.1217 C   0  0  0  0  0  0  0  0  0  0  0  0
    4.8519   -2.2613    4.2390 C   0  0  0  0  0  0  0  0  0  0  0  0
    4.9078   -3.6427    4.4858 N   0  0  0  0  0  0  0  0  0  0  0  0
    4.3695   -4.6886    3.7535 C   0  0  0  0  0  0  0  0  0  0  0  0
    3.6907   -4.5137    2.7497 O   0  0  0  0  0  0  0  0  0  0  0  0
    4.6845   -6.0297    4.3047 C   0  0  0  0  0  0  0  0  0  0  0  0
    5.6830   -6.3769    5.2783 C   0  0  0  0  0  0  0  0  0  0  0  0
    5.6235   -7.7341    5.4933 C   0  0  0  0  0  0  0  0  0  0  0  0
    6.4472   -8.6130    6.3775 C   0  0  0  0  0  0  0  0  0  0  0  0
    4.6096   -8.2337    4.6771 N   0  0  0  0  0  0  0  0  0  0  0  0
    4.2281   -9.6099    4.6018 C   0  0  0  0  0  0  0  0  0  0  0  0
    3.3031  -10.1362    5.5137 C   0  0  0  0  0  0  0  0  0  0  0  0
    2.9344  -11.4812    5.4486 C   0  0  0  0  0  0  0  0  0  0  0  0
    3.4984  -12.2873    4.4610 C   0  0  0  0  0  0  0  0  0  0  0  0
    3.1475  -13.5767    4.3936 F   0  0  0  0  0  0  0  0  0  0  0  0
    4.4178  -11.7851    3.5416 C   0  0  0  0  0  0  0  0  0  0  0  0
    4.7822  -10.4398    3.6177 C   0  0  0  0  0  0  0  0  0  0  0  0
    4.0349   -7.2100    3.9453 C   0  0  0  0  0  0  0  0  0  0  0  0
    2.9141   -7.4574    2.9886 C   0  0  0  0  0  0  0  0  0  0  0  0
    5.4813   -1.4162    5.1690 C   0  0  0  0  0  0  0  0  0  0  0  0
    7.7767    4.3392    8.3403 H   0  0  0  0  0  0  0  0  0  0  0  0
    6.1694    4.4909    7.5779 H   0  0  0  0  0  0  0  0  0  0  0  0
    7.6226    4.5211    6.5695 H   0  0  0  0  0  0  0  0  0  0  0  0
    6.6589    2.0809    8.2104 H   0  0  0  0  0  0  0  0  0  0  0  0
    8.1225    2.1154    7.2279 H   0  0  0  0  0  0  0  0  0  0  0  0
    6.5548    0.1989    6.7448 H   0  0  0  0  0  0  0  0  0  0  0  0
    4.8541    1.6235    3.7562 H   0  0  0  0  0  0  0  0  0  0  0  0
    3.7328    0.1332    2.1026 H   0  0  0  0  0  0  0  0  0  0  0  0
    3.7177   -2.3401    2.4027 H   0  0  0  0  0  0  0  0  0  0  0  0
    5.3748   -3.9057    5.3440 H   0  0  0  0  0  0  0  0  0  0  0  0
    6.4106   -5.7167    5.7491 H   0  0  0  0  0  0  0  0  0  0  0  0
    7.1934   -8.0060    6.9092 H   0  0  0  0  0  0  0  0  0  0  0  0
    6.9869   -9.3890    5.8086 H   0  0  0  0  0  0  0  0  0  0  0  0
    5.8377   -9.1360    7.1339 H   0  0  0  0  0  0  0  0  0  0  0  0
    2.8706   -9.4836    6.2749 H   0  0  0  0  0  0  0  0  0  0  0  0
    2.2156  -11.9125    6.1476 H   0  0  0  0  0  0  0  0  0  0  0  0
    4.8359  -12.4492    2.7829 H   0  0  0  0  0  0  0  0  0  0  0  0
    5.5026  -10.0237    2.9103 H   0  0  0  0  0  0  0  0  0  0  0  0
    2.0461   -7.9187    3.4894 H   0  0  0  0  0  0  0  0  0  0  0  0
    3.2185   -8.1413    2.1782 H   0  0  0  0  0  0  0  0  0  0  0  0
    2.6136   -6.5052    2.5380 H   0  0  0  0  0  0  0  0  0  0  0  0
    5.9792   -1.8557    6.0406 H   0  0  0  0  0  0  0  0  0  0  0  0
  1  2  1  0
  1 29  1  0
  1 30  1  0
  1 31  1  0
  2  3  1  0
  2 32  1  0
  2 33  1  0
  3  4  2  0
  3  5  1  0
  5  6  1  0
  5 34  1  0
  6  7  2  0
  6 28  1  0
  7  8  1  0
  7 35  1  0
  8  9  2  0
  8 36  1  0
  9 10  1  0
  9 37  1  0
 10 11  1  0
 10 28  2  0
 11 12  1  0
 11 38  1  0
 12 13  2  0
 12 14  1  0
 14 15  1  0
 14 26  2  0
 15 16  2  0
 15 39  1  0
 16 17  1  0
 16 18  1  0
 17 40  1  0
 17 41  1  0
 17 42  1  0
 18 19  1  0
 18 26  1  0
 19 20  2  0
 19 25  1  0
 20 21  1  0
 20 43  1  0
 21 22  2  0
 21 44  1  0
 22 23  1  0
 22 24  1  0
 24 25  2  0
 24 45  1  0
 25 46  1  0
 26 27  1  0
 27 47  1  0
 27 48  1  0
 27 49  1  0
 28 50  1  0
M  END

