
     RDKit          3D

 36 38  0  0  0  0  0  0  0  0999 V2000
    3.5518   -0.5678    0.9424 C   0  0  0  0  0  0  0  0  0  0  0  0
    2.4606    0.1293    0.1281 C   0  0  0  0  0  0  0  0  0  0  0  0
    2.8968    1.3650   -0.4991 N   0  0  0  0  0  0  0  0  0  0  0  0
    2.6766    2.6458   -0.0459 C   0  0  0  0  0  0  0  0  0  0  0  0
    3.2273    3.5810   -0.7745 N   0  0  0  0  0  0  0  0  0  0  0  0
    3.8734    2.8993   -1.7921 C   0  0  0  0  0  0  0  0  0  0  0  0
    4.6224    3.3953   -2.8649 C   0  0  0  0  0  0  0  0  0  0  0  0
    5.1817    2.4925   -3.7856 C   0  0  0  0  0  0  0  0  0  0  0  0
    5.9646    2.9871   -4.8325 N   0  0  0  0  0  0  0  0  0  0  0  0
    6.3093    2.1950   -5.9945 C   0  0  0  0  0  0  0  0  0  0  0  0
    7.2156    2.9597   -6.9376 C   0  0  0  0  0  0  0  0  0  0  0  0
    8.3372    3.6503   -6.4497 C   0  0  0  0  0  0  0  0  0  0  0  0
    9.1948    4.3340   -7.3123 C   0  0  0  0  0  0  0  0  0  0  0  0
    8.9327    4.3296   -8.6862 C   0  0  0  0  0  0  0  0  0  0  0  0
   10.0029    5.1854   -9.7746 Cl  0  0  0  0  0  0  0  0  0  0  0  0
    7.8234    3.6521   -9.1965 C   0  0  0  0  0  0  0  0  0  0  0  0
    6.9725    2.9758   -8.3177 C   0  0  0  0  0  0  0  0  0  0  0  0
    4.9617    1.0972   -3.6173 C   0  0  0  0  0  0  0  0  0  0  0  0
    4.2218    0.5898   -2.5480 C   0  0  0  0  0  0  0  0  0  0  0  0
    3.6816    1.5007   -1.6384 C   0  0  0  0  0  0  0  0  0  0  0  0
    3.1619   -1.4986    1.3840 H   0  0  0  0  0  0  0  0  0  0  0  0
    3.9070    0.0790    1.7597 H   0  0  0  0  0  0  0  0  0  0  0  0
    4.4175   -0.8246    0.3129 H   0  0  0  0  0  0  0  0  0  0  0  0
    1.6002    0.3730    0.7712 H   0  0  0  0  0  0  0  0  0  0  0  0
    2.0810   -0.5426   -0.6602 H   0  0  0  0  0  0  0  0  0  0  0  0
    2.0772    2.8199    0.8509 H   0  0  0  0  0  0  0  0  0  0  0  0
    4.7698    4.4728   -2.9719 H   0  0  0  0  0  0  0  0  0  0  0  0
    5.7973    3.9654   -5.0420 H   0  0  0  0  0  0  0  0  0  0  0  0
    5.4181    1.8362   -6.5520 H   0  0  0  0  0  0  0  0  0  0  0  0
    6.8409    1.2861   -5.6577 H   0  0  0  0  0  0  0  0  0  0  0  0
    8.5351    3.6541   -5.3751 H   0  0  0  0  0  0  0  0  0  0  0  0
   10.0658    4.8680   -6.9284 H   0  0  0  0  0  0  0  0  0  0  0  0
    7.6266    3.6616  -10.2699 H   0  0  0  0  0  0  0  0  0  0  0  0
    6.0999    2.4524   -8.7187 H   0  0  0  0  0  0  0  0  0  0  0  0
    5.3798    0.3931   -4.3368 H   0  0  0  0  0  0  0  0  0  0  0  0
    4.0747   -0.4882   -2.4486 H   0  0  0  0  0  0  0  0  0  0  0  0
  1  2  1  0
  1 21  1  0
  1 22  1  0
  1 23  1  0
  2  3  1  0
  2 24  1  0
  2 25  1  0
  3  4  1  0
  3 20  1  0
  4  5  2  0
  4 26  1  0
  5  6  1  0
  6  7  1  0
  6 20  2  0
  7  8  2  0
  7 27  1  0
  8  9  1  0
  8 18  1  0
  9 10  1  0
  9 28  1  0
 10 11  1  0
 10 29  1  0
 10 30  1  0
 11 12  2  0
 11 17  1  0
 12 13  1  0
 12 31  1  0
 13 14  2  0
 13 32  1  0
 14 15  1  0
 14 16  1  0
 16 17  2  0
 16 33  1  0
 17 34  1  0
 18 19  2  0
 18 35  1  0
 19 20  1  0
 19 36  1  0
M  END

