
     RDKit          3D

 36 36  0  0  0  0  0  0  0  0999 V2000
    0.5582    0.1242    1.0797 C   0  0  0  0  0  0  0  0  0  0  0  0
    2.0722    0.2381    1.2456 C   0  0  0  0  0  0  0  0  0  0  0  0
    2.7800   -1.1415    1.3400 C   0  0  1  0  0  0  0  0  0  0  0  0
    2.5997   -2.0487    0.0930 C   0  0  0  0  0  0  0  0  0  0  0  0
    3.0544   -1.4588   -1.2422 C   0  0  0  0  0  0  0  0  0  0  0  0
    4.1803   -0.9330    1.5996 N   0  0  0  0  0  0  0  0  0  0  0  0
    4.8666   -1.1911    2.8727 C   0  0  0  0  0  0  0  0  0  0  0  0
    6.3430   -1.0221    2.8384 C   0  0  0  0  0  0  0  0  0  0  0  0
    7.2254   -2.1576    2.5861 C   0  0  0  0  0  0  0  0  0  0  0  0
    8.5905   -1.9768    2.6421 C   0  0  0  0  0  0  0  0  0  0  0  0
    9.7241   -3.4959    2.2912 Br  0  0  0  0  0  0  0  0  0  0  0  0
    9.2118   -0.7485    2.9489 C   0  0  0  0  0  0  0  0  0  0  0  0
    8.3426    0.3638    3.2531 C   0  0  0  0  0  0  0  0  0  0  0  0
    6.9823    0.2049    3.1895 C   0  0  0  0  0  0  0  0  0  0  0  0
    6.1367    1.2966    3.5547 O   0  0  0  0  0  0  0  0  0  0  0  0
    5.8406    2.2392    2.6516 C   0  0  1  0  0  0  0  0  0  0  0  0
    6.9131    2.7782    2.0441 F   0  0  0  0  0  0  0  0  0  0  0  0
    5.0572    1.7273    1.6131 F   0  0  0  0  0  0  0  0  0  0  0  0
    0.1023    1.1249    1.1160 H   0  0  0  0  0  0  0  0  0  0  0  0
    0.1054   -0.4760    1.8856 H   0  0  0  0  0  0  0  0  0  0  0  0
    0.2740   -0.3306    0.1186 H   0  0  0  0  0  0  0  0  0  0  0  0
    2.3077    0.7968    2.1646 H   0  0  0  0  0  0  0  0  0  0  0  0
    2.5122    0.8203    0.4205 H   0  0  0  0  0  0  0  0  0  0  0  0
    2.3792   -1.6805    2.2130 H   0  0  0  0  0  0  0  0  0  0  0  0
    1.5306   -2.3077    0.0488 H   0  0  0  0  0  0  0  0  0  0  0  0
    3.1304   -2.9947    0.2876 H   0  0  0  0  0  0  0  0  0  0  0  0
    2.4887   -0.5548   -1.5148 H   0  0  0  0  0  0  0  0  0  0  0  0
    2.9017   -2.1944   -2.0460 H   0  0  0  0  0  0  0  0  0  0  0  0
    4.1258   -1.2012   -1.2483 H   0  0  0  0  0  0  0  0  0  0  0  0
    4.7220   -0.3933    0.9218 H   0  0  0  0  0  0  0  0  0  0  0  0
    4.5402   -2.2042    3.1747 H   0  0  0  0  0  0  0  0  0  0  0  0
    4.3630   -0.5024    3.5814 H   0  0  0  0  0  0  0  0  0  0  0  0
    6.8103   -3.1439    2.3760 H   0  0  0  0  0  0  0  0  0  0  0  0
   10.2936   -0.6433    2.9664 H   0  0  0  0  0  0  0  0  0  0  0  0
    8.7580    1.3325    3.5313 H   0  0  0  0  0  0  0  0  0  0  0  0
    5.2505    3.0324    3.1375 H   0  0  0  0  0  0  0  0  0  0  0  0
  1  2  1  0
  1 19  1  0
  1 20  1  0
  1 21  1  0
  2  3  1  0
  2 22  1  0
  2 23  1  0
  3  4  1  0
  3  6  1  0
  3 24  1  1
  4  5  1  0
  4 25  1  0
  4 26  1  0
  5 27  1  0
  5 28  1  0
  5 29  1  0
  6  7  1  0
  6 30  1  0
  7  8  1  0
  7 31  1  0
  7 32  1  0
  8  9  2  0
  8 14  1  0
  9 10  1  0
  9 33  1  0
 10 11  1  0
 10 12  2  0
 12 13  1  0
 12 34  1  0
 13 14  2  0
 13 35  1  0
 14 15  1  0
 15 16  1  0
 16 17  1  0
 16 18  1  0
 16 36  1  6
M  END

