
     RDKit          3D

 50 52  0  0  0  0  0  0  0  0999 V2000
    6.6015    4.9672   -8.2975 C   0  0  0  0  0  0  0  0  0  0  0  0
    6.3907    4.9290   -6.8985 O   0  0  0  0  0  0  0  0  0  0  0  0
    5.7874    3.8571   -6.3395 C   0  0  0  0  0  0  0  0  0  0  0  0
    5.3385    2.7408   -7.0603 C   0  0  0  0  0  0  0  0  0  0  0  0
    4.7627    1.6480   -6.4074 C   0  0  0  0  0  0  0  0  0  0  0  0
    4.6267    1.6472   -5.0152 C   0  0  0  0  0  0  0  0  0  0  0  0
    4.0086    0.4658   -4.3079 C   0  0  0  0  0  0  0  0  0  0  0  0
    4.8686   -0.7054   -4.1501 N   0  0  0  0  0  0  0  0  0  0  0  0
    6.3224   -0.5834   -4.1609 C   0  0  0  0  0  0  0  0  0  0  0  0
    7.0329   -1.7814   -3.5404 C   0  0  0  0  0  0  0  0  0  0  0  0
    6.4368   -2.9996   -4.0298 N   0  0  0  0  0  0  0  0  0  0  0  0
    7.4597   -4.4958   -3.9036 S   0  0  1  0  0  0  0  0  0  0  0  0
    6.5595   -5.4428   -4.5860 O   0  0  0  0  0  0  0  0  0  0  0  0
    8.6913   -3.9836   -4.5305 O   0  0  0  0  0  0  0  0  0  0  0  0
    7.7212   -4.9416   -2.2878 C   0  0  0  0  0  0  0  0  0  0  0  0
    6.8037   -5.8339   -1.6125 C   0  0  0  0  0  0  0  0  0  0  0  0
    7.0073   -6.1423   -0.2849 C   0  0  0  0  0  0  0  0  0  0  0  0
    8.1023   -5.6098    0.4484 C   0  0  0  0  0  0  0  0  0  0  0  0
    9.0283   -4.7729   -0.2324 C   0  0  0  0  0  0  0  0  0  0  0  0
    8.8646   -4.4370   -1.5588 C   0  0  0  0  0  0  0  0  0  0  0  0
    5.0758   -3.1295   -3.5757 C   0  0  0  0  0  0  0  0  0  0  0  0
    4.2359   -2.0218   -4.1985 C   0  0  0  0  0  0  0  0  0  0  0  0
    5.0505    2.7732   -4.2953 C   0  0  0  0  0  0  0  0  0  0  0  0
    5.6216    3.8810   -4.9273 C   0  0  0  0  0  0  0  0  0  0  0  0
    6.0423    4.8926   -4.1330 O   0  0  0  0  0  0  0  0  0  0  0  0
    5.7563    6.2489   -4.4633 C   0  0  0  0  0  0  0  0  0  0  0  0
    7.1050    5.9193   -8.5080 H   0  0  0  0  0  0  0  0  0  0  0  0
    5.6487    4.9326   -8.8540 H   0  0  0  0  0  0  0  0  0  0  0  0
    7.2474    4.1373   -8.6324 H   0  0  0  0  0  0  0  0  0  0  0  0
    5.4465    2.7127   -8.1441 H   0  0  0  0  0  0  0  0  0  0  0  0
    4.4216    0.7953   -7.0008 H   0  0  0  0  0  0  0  0  0  0  0  0
    3.0958    0.1242   -4.8208 H   0  0  0  0  0  0  0  0  0  0  0  0
    3.6956    0.7465   -3.2842 H   0  0  0  0  0  0  0  0  0  0  0  0
    6.5834    0.3728   -3.6844 H   0  0  0  0  0  0  0  0  0  0  0  0
    6.5931   -0.4794   -5.2294 H   0  0  0  0  0  0  0  0  0  0  0  0
    7.0016   -1.6931   -2.4313 H   0  0  0  0  0  0  0  0  0  0  0  0
    8.0881   -1.7493   -3.8434 H   0  0  0  0  0  0  0  0  0  0  0  0
    5.9824   -6.2796   -2.1743 H   0  0  0  0  0  0  0  0  0  0  0  0
    6.3136   -6.8302    0.2087 H   0  0  0  0  0  0  0  0  0  0  0  0
    8.2481   -5.8654    1.4984 H   0  0  0  0  0  0  0  0  0  0  0  0
    9.9061   -4.3963    0.3021 H   0  0  0  0  0  0  0  0  0  0  0  0
    9.6025   -3.8261   -2.0796 H   0  0  0  0  0  0  0  0  0  0  0  0
    4.9758   -3.0884   -2.4678 H   0  0  0  0  0  0  0  0  0  0  0  0
    4.6738   -4.0963   -3.9079 H   0  0  0  0  0  0  0  0  0  0  0  0
    3.2386   -1.9303   -3.7402 H   0  0  0  0  0  0  0  0  0  0  0  0
    4.0808   -2.2167   -5.2787 H   0  0  0  0  0  0  0  0  0  0  0  0
    4.9471    2.8267   -3.2088 H   0  0  0  0  0  0  0  0  0  0  0  0
    5.8793    6.8193   -3.5324 H   0  0  0  0  0  0  0  0  0  0  0  0
    4.7172    6.3618   -4.8173 H   0  0  0  0  0  0  0  0  0  0  0  0
    6.4423    6.6379   -5.2282 H   0  0  0  0  0  0  0  0  0  0  0  0
  1  2  1  0
  1 27  1  0
  1 28  1  0
  1 29  1  0
  2  3  1  0
  3  4  2  0
  3 24  1  0
  4  5  1  0
  4 30  1  0
  5  6  2  0
  5 31  1  0
  6  7  1  0
  6 23  1  0
  7  8  1  0
  7 32  1  0
  7 33  1  0
  8  9  1  0
  8 22  1  0
  9 10  1  0
  9 34  1  0
  9 35  1  0
 10 11  1  0
 10 36  1  0
 10 37  1  0
 11 12  1  0
 11 21  1  0
 12 13  2  0
 12 14  2  0
 12 15  1  1
 15 16  2  0
 15 20  1  0
 16 17  1  0
 16 38  1  0
 17 18  2  0
 17 39  1  0
 18 19  1  0
 18 40  1  0
 19 20  2  0
 19 41  1  0
 20 42  1  0
 21 22  1  0
 21 43  1  0
 21 44  1  0
 22 45  1  0
 22 46  1  0
 23 24  2  0
 23 47  1  0
 24 25  1  0
 25 26  1  0
 26 48  1  0
 26 49  1  0
 26 50  1  0
M  END

