
     RDKit          3D

 40 41  0  0  0  0  0  0  0  0999 V2000
    2.1447   -0.2098    1.1338 O   0  0  0  0  0  0  0  0  0  0  0  0
    2.6572   -0.2385    0.0304 C   0  0  0  0  0  0  0  0  0  0  0  0
    2.6813   -1.3373   -0.7606 O   0  0  0  0  0  0  0  0  0  0  0  0
    2.0022   -2.5123   -0.2713 C   0  0  0  0  0  0  0  0  0  0  0  0
    0.5638   -2.5715   -0.7286 C   0  0  0  0  0  0  0  0  0  0  0  0
    0.2119   -3.2996   -1.8749 C   0  0  0  0  0  0  0  0  0  0  0  0
   -1.1146   -3.3453   -2.3131 C   0  0  0  0  0  0  0  0  0  0  0  0
   -2.1067   -2.6587   -1.6073 C   0  0  0  0  0  0  0  0  0  0  0  0
   -1.7664   -1.9292   -0.4630 C   0  0  0  0  0  0  0  0  0  0  0  0
   -0.4407   -1.8857   -0.0248 C   0  0  0  0  0  0  0  0  0  0  0  0
    3.2775    0.8286   -0.5625 N   0  0  0  0  0  0  0  0  0  0  0  0
    3.9155    0.8026   -1.8766 C   0  0  0  0  0  0  0  0  0  0  0  0
    3.3721    1.9254   -2.7647 C   0  0  0  0  0  0  0  0  0  0  0  0
    3.4681    3.3035   -2.0811 C   0  0  2  0  0  0  0  0  0  0  0  0
    4.8555    3.7706   -1.9846 N   0  0  0  0  0  0  0  0  0  0  0  0
    5.4923    4.3221   -3.0430 C   0  0  0  0  0  0  0  0  0  0  0  0
    5.0284    4.4727   -4.1539 O   0  0  0  0  0  0  0  0  0  0  0  0
    6.9438    4.7861   -2.7552 C   0  0  1  0  0  0  0  0  0  0  0  0
    7.3088    4.5621   -1.4713 F   0  0  0  0  0  0  0  0  0  0  0  0
    7.8000    4.1298   -3.5396 F   0  0  0  0  0  0  0  0  0  0  0  0
    7.0668    6.0920   -2.9906 F   0  0  0  0  0  0  0  0  0  0  0  0
    2.8303    3.2492   -0.6848 C   0  0  0  0  0  0  0  0  0  0  0  0
    3.3695    2.0885    0.1618 C   0  0  0  0  0  0  0  0  0  0  0  0
    2.0690   -2.5234    0.8250 H   0  0  0  0  0  0  0  0  0  0  0  0
    2.5737   -3.3557   -0.6826 H   0  0  0  0  0  0  0  0  0  0  0  0
    0.9853   -3.8401   -2.4288 H   0  0  0  0  0  0  0  0  0  0  0  0
   -1.3743   -3.9198   -3.2061 H   0  0  0  0  0  0  0  0  0  0  0  0
   -3.1453   -2.6944   -1.9466 H   0  0  0  0  0  0  0  0  0  0  0  0
   -2.5398   -1.3937    0.0939 H   0  0  0  0  0  0  0  0  0  0  0  0
   -0.1676   -1.3106    0.8630 H   0  0  0  0  0  0  0  0  0  0  0  0
    3.7440   -0.1764   -2.3351 H   0  0  0  0  0  0  0  0  0  0  0  0
    5.0098    0.9209   -1.7515 H   0  0  0  0  0  0  0  0  0  0  0  0
    2.3112    1.7261   -2.9914 H   0  0  0  0  0  0  0  0  0  0  0  0
    3.9102    1.9539   -3.7244 H   0  0  0  0  0  0  0  0  0  0  0  0
    2.9393    4.0385   -2.7075 H   0  0  0  0  0  0  0  0  0  0  0  0
    5.3519    3.7069   -1.1034 H   0  0  0  0  0  0  0  0  0  0  0  0
    1.7437    3.1189   -0.8112 H   0  0  0  0  0  0  0  0  0  0  0  0
    2.9823    4.2056   -0.1572 H   0  0  0  0  0  0  0  0  0  0  0  0
    2.8030    1.9848    1.0950 H   0  0  0  0  0  0  0  0  0  0  0  0
    4.4263    2.2719    0.4467 H   0  0  0  0  0  0  0  0  0  0  0  0
  1  2  2  0
  2  3  1  0
  2 11  1  0
  3  4  1  0
  4  5  1  0
  4 24  1  0
  4 25  1  0
  5  6  2  0
  5 10  1  0
  6  7  1  0
  6 26  1  0
  7  8  2  0
  7 27  1  0
  8  9  1  0
  8 28  1  0
  9 10  2  0
  9 29  1  0
 10 30  1  0
 11 12  1  0
 11 23  1  0
 12 13  1  0
 12 31  1  0
 12 32  1  0
 13 14  1  0
 13 33  1  0
 13 34  1  0
 14 15  1  0
 14 22  1  0
 14 35  1  6
 15 16  1  0
 15 36  1  0
 16 17  2  0
 16 18  1  0
 18 19  1  1
 18 20  1  0
 18 21  1  0
 22 23  1  0
 22 37  1  0
 22 38  1  0
 23 39  1  0
 23 40  1  0
M  END

