
     RDKit          3D

 55 58  0  0  0  0  0  0  0  0999 V2000
    4.2842    3.5012   -2.4940 C   0  0  0  0  0  0  0  0  0  0  0  0
    5.2411    2.6737   -1.6425 C   0  0  0  0  0  0  0  0  0  0  0  0
    6.4686    2.8925   -1.9857 O   0  0  0  0  0  0  0  0  0  0  0  0
    4.8418    1.7920   -0.6211 C   0  0  0  0  0  0  0  0  0  0  0  0
    3.4594    1.5966   -0.2920 C   0  0  0  0  0  0  0  0  0  0  0  0
    3.1104    0.7216    0.7219 C   0  0  0  0  0  0  0  0  0  0  0  0
    4.0703    0.0030    1.4556 C   0  0  0  0  0  0  0  0  0  0  0  0
    5.4364    0.1841    1.1417 C   0  0  0  0  0  0  0  0  0  0  0  0
    6.4587   -0.4980    1.8267 N   0  0  0  0  0  0  0  0  0  0  0  0
    6.3817   -1.3814    2.8496 C   0  0  0  0  0  0  0  0  0  0  0  0
    5.3817   -1.7929    3.4212 O   0  0  0  0  0  0  0  0  0  0  0  0
    7.7985   -1.8569    3.2603 C   0  0  0  0  0  0  0  0  0  0  0  0
    8.7995   -1.4473    2.6838 O   0  0  0  0  0  0  0  0  0  0  0  0
    7.7575   -2.7341    4.2786 N   0  0  0  0  0  0  0  0  0  0  0  0
    8.9357   -3.3254    4.9054 C   0  0  1  0  0  0  0  0  0  0  0  0
    8.9908   -2.8922    6.3770 C   0  0  0  0  0  0  0  0  0  0  0  0
    9.0188   -4.8646    4.6534 C   0  0  2  0  0  0  0  0  0  0  0  0
    8.9630   -5.1470    3.1290 C   0  0  0  0  0  0  0  0  0  0  0  0
    9.0867   -6.6545    2.8388 C   0  0  1  0  0  0  0  0  0  0  0  0
   10.4295   -7.1752    3.3828 C   0  0  0  0  0  0  0  0  0  0  0  0
   10.4909   -6.9287    4.9014 C   0  0  2  0  0  0  0  0  0  0  0  0
    9.3330   -7.6751    5.5923 C   0  0  0  0  0  0  0  0  0  0  0  0
    7.9888   -7.1569    5.0450 C   0  0  2  0  0  0  0  0  0  0  0  0
    7.9272   -7.4014    3.5252 C   0  0  0  0  0  0  0  0  0  0  0  0
    7.8665   -5.6462    5.3330 C   0  0  0  0  0  0  0  0  0  0  0  0
   10.3643   -5.4196    5.1884 C   0  0  0  0  0  0  0  0  0  0  0  0
    5.8197    1.0581    0.1266 C   0  0  0  0  0  0  0  0  0  0  0  0
    4.8382    4.1165   -3.2153 H   0  0  0  0  0  0  0  0  0  0  0  0
    3.6920    4.1628   -1.8430 H   0  0  0  0  0  0  0  0  0  0  0  0
    3.6078    2.8296   -3.0452 H   0  0  0  0  0  0  0  0  0  0  0  0
    2.6797    2.1326   -0.8350 H   0  0  0  0  0  0  0  0  0  0  0  0
    2.0531    0.5821    0.9629 H   0  0  0  0  0  0  0  0  0  0  0  0
    3.7846   -0.6809    2.2504 H   0  0  0  0  0  0  0  0  0  0  0  0
    7.4230   -0.3289    1.5379 H   0  0  0  0  0  0  0  0  0  0  0  0
    6.8241   -2.9283    4.6363 H   0  0  0  0  0  0  0  0  0  0  0  0
    9.7896   -2.8716    4.3780 H   0  0  0  0  0  0  0  0  0  0  0  0
    8.1165   -3.2516    6.9431 H   0  0  0  0  0  0  0  0  0  0  0  0
    9.0008   -1.7937    6.4404 H   0  0  0  0  0  0  0  0  0  0  0  0
    9.8952   -3.2651    6.8781 H   0  0  0  0  0  0  0  0  0  0  0  0
    9.7703   -4.5914    2.6213 H   0  0  0  0  0  0  0  0  0  0  0  0
    8.0135   -4.7704    2.7159 H   0  0  0  0  0  0  0  0  0  0  0  0
    9.0388   -6.8170    1.7486 H   0  0  0  0  0  0  0  0  0  0  0  0
   11.2677   -6.6622    2.8800 H   0  0  0  0  0  0  0  0  0  0  0  0
   10.5389   -8.2523    3.1668 H   0  0  0  0  0  0  0  0  0  0  0  0
   11.4546   -7.2908    5.2986 H   0  0  0  0  0  0  0  0  0  0  0  0
    9.3823   -7.5252    6.6851 H   0  0  0  0  0  0  0  0  0  0  0  0
    9.4214   -8.7611    5.4161 H   0  0  0  0  0  0  0  0  0  0  0  0
    7.1576   -7.6870    5.5406 H   0  0  0  0  0  0  0  0  0  0  0  0
    6.9600   -7.0530    3.1228 H   0  0  0  0  0  0  0  0  0  0  0  0
    7.9894   -8.4827    3.3119 H   0  0  0  0  0  0  0  0  0  0  0  0
    7.8825   -5.4808    6.4235 H   0  0  0  0  0  0  0  0  0  0  0  0
    6.8911   -5.2795    4.9674 H   0  0  0  0  0  0  0  0  0  0  0  0
   11.2015   -4.8722    4.7198 H   0  0  0  0  0  0  0  0  0  0  0  0
   10.4434   -5.2531    6.2751 H   0  0  0  0  0  0  0  0  0  0  0  0
    6.8800    1.1855   -0.1011 H   0  0  0  0  0  0  0  0  0  0  0  0
  1  2  1  0
  1 28  1  0
  1 29  1  0
  1 30  1  0
  2  3  2  0
  2  4  1  0
  4  5  2  0
  4 27  1  0
  5  6  1  0
  5 31  1  0
  6  7  2  0
  6 32  1  0
  7  8  1  0
  7 33  1  0
  8  9  1  0
  8 27  2  0
  9 10  1  0
  9 34  1  0
 10 11  2  0
 10 12  1  0
 12 13  2  0
 12 14  1  0
 14 15  1  0
 14 35  1  0
 15 16  1  0
 15 17  1  0
 15 36  1  6
 16 37  1  0
 16 38  1  0
 16 39  1  0
 17 18  1  6
 17 25  1  0
 17 26  1  0
 18 19  1  0
 18 40  1  0
 18 41  1  0
 19 20  1  0
 19 24  1  0
 19 42  1  6
 20 21  1  0
 20 43  1  0
 20 44  1  0
 21 22  1  0
 21 26  1  0
 21 45  1  1
 22 23  1  0
 22 46  1  0
 22 47  1  0
 23 24  1  0
 23 25  1  0
 23 48  1  1
 24 49  1  0
 24 50  1  0
 25 51  1  0
 25 52  1  0
 26 53  1  0
 26 54  1  0
 27 55  1  0
M  END

