
     RDKit          3D

 83 87  0  0  0  0  0  0  0  0999 V2000
    2.1459   -2.2670    2.7593 N   0  0  0  0  0  0  0  0  0  0  0  0
    2.3479   -1.3703    3.8896 C   0  0  1  0  0  0  0  0  0  0  0  0
    2.5445   -0.3648    3.4736 H   0  0  0  0  0  0  0  0  0  0  0  0
    1.1612   -1.2348    4.8736 C   0  0  0  0  0  0  0  0  0  0  0  0
   -0.0087   -0.4667    4.3020 C   0  0  0  0  0  0  0  0  0  0  0  0
   -0.0688    0.9306    4.4400 C   0  0  0  0  0  0  0  0  0  0  0  0
   -1.1150    1.6613    3.8777 C   0  0  0  0  0  0  0  0  0  0  0  0
   -2.1120    0.9921    3.1756 C   0  0  0  0  0  0  0  0  0  0  0  0
   -3.1209    1.7184    2.6573 F   0  0  0  0  0  0  0  0  0  0  0  0
   -2.1091   -0.4020    3.0161 C   0  0  0  0  0  0  0  0  0  0  0  0
   -3.2068   -1.1145    2.3096 C   0  0  0  0  0  0  0  0  0  0  0  0
   -3.7447   -0.6384    1.0978 C   0  0  0  0  0  0  0  0  0  0  0  0
   -4.7577   -1.3306    0.4322 C   0  0  0  0  0  0  0  0  0  0  0  0
   -5.2477   -2.5089    0.9892 C   0  0  0  0  0  0  0  0  0  0  0  0
   -6.2160   -3.1879    0.3458 F   0  0  0  0  0  0  0  0  0  0  0  0
   -4.7532   -3.0075    2.1924 C   0  0  0  0  0  0  0  0  0  0  0  0
   -3.7347   -2.3056    2.8433 C   0  0  0  0  0  0  0  0  0  0  0  0
   -1.0316   -1.1080    3.5882 C   0  0  0  0  0  0  0  0  0  0  0  0
    3.6535   -1.6808    4.6649 C   0  0  0  0  0  0  0  0  0  0  0  0
    3.8714   -1.1687    5.7493 O   0  0  0  0  0  0  0  0  0  0  0  0
    4.5168   -2.4986    3.9814 N   0  0  0  0  0  0  0  0  0  0  0  0
    5.8427   -2.8322    4.2995 C   0  0  0  0  0  0  0  0  0  0  0  0
    6.5179   -2.2785    5.4123 C   0  0  0  0  0  0  0  0  0  0  0  0
    7.7841   -2.5659    5.7126 N   0  0  0  0  0  0  0  0  0  0  0  0
    8.4594   -3.4161    4.9428 C   0  0  0  0  0  0  0  0  0  0  0  0
    7.8620   -4.0127    3.8368 C   0  0  0  0  0  0  0  0  0  0  0  0
    8.5746   -4.8834    3.0957 F   0  0  0  0  0  0  0  0  0  0  0  0
    6.5434   -3.7426    3.4700 C   0  0  0  0  0  0  0  0  0  0  0  0
    5.9215   -4.4620    2.2990 C   0  0  0  0  0  0  0  0  0  0  0  0
    5.2349   -5.7769    2.7326 C   0  0  0  0  0  0  0  0  0  0  0  0
    4.1868   -6.2922    1.7488 C   0  0  2  0  0  0  0  0  0  0  0  0
    3.6874   -7.1675    2.2173 H   0  0  0  0  0  0  0  0  0  0  0  0
    4.6992   -6.7367    0.3744 C   0  0  0  0  0  0  0  0  0  0  0  0
    3.6104   -7.0638   -0.5420 N   0  0  0  0  0  0  0  0  0  0  0  0
    2.6425   -5.9792   -0.6431 C   0  0  0  0  0  0  0  0  0  0  0  0
    2.1499   -5.4565    0.7174 C   0  0  1  0  0  0  0  0  0  0  0  0
    1.6913   -4.4646    0.5845 H   0  0  0  0  0  0  0  0  0  0  0  0
    1.0942   -6.3463    1.3960 C   0  0  0  0  0  0  0  0  0  0  0  0
   -0.2094   -6.1079    0.8549 O   0  0  0  0  0  0  0  0  0  0  0  0
   -0.8798   -5.0375    1.3616 C   0  0  0  0  0  0  0  0  0  0  0  0
   -0.4318   -4.3239    2.2439 O   0  0  0  0  0  0  0  0  0  0  0  0
   -2.0819   -4.8560    0.7633 N   0  0  0  0  0  0  0  0  0  0  0  0
   -2.7232   -5.7353   -0.2110 C   0  0  0  0  0  0  0  0  0  0  0  0
   -3.6705   -6.7559    0.3958 C   0  0  0  0  0  0  0  0  0  0  0  0
   -3.1778   -7.9512    0.9452 C   0  0  0  0  0  0  0  0  0  0  0  0
   -4.0370   -8.8849    1.5266 C   0  0  0  0  0  0  0  0  0  0  0  0
   -5.4043   -8.6143    1.5560 C   0  0  0  0  0  0  0  0  0  0  0  0
   -6.2350   -9.5083    2.1101 F   0  0  0  0  0  0  0  0  0  0  0  0
   -5.9265   -7.4396    1.0210 C   0  0  0  0  0  0  0  0  0  0  0  0
   -5.0521   -6.5150    0.4423 C   0  0  0  0  0  0  0  0  0  0  0  0
    3.2420   -5.2309    1.5965 O   0  0  0  0  0  0  0  0  0  0  0  0
    1.5934   -1.8182    2.0314 H   0  0  0  0  0  0  0  0  0  0  0  0
    1.6269   -3.1082    3.0202 H   0  0  0  0  0  0  0  0  0  0  0  0
    1.5384   -0.7298    5.7739 H   0  0  0  0  0  0  0  0  0  0  0  0
    0.8449   -2.2470    5.1791 H   0  0  0  0  0  0  0  0  0  0  0  0
    0.7121    1.4543    4.9984 H   0  0  0  0  0  0  0  0  0  0  0  0
   -1.1823    2.7459    3.9840 H   0  0  0  0  0  0  0  0  0  0  0  0
   -3.3608    0.2850    0.6627 H   0  0  0  0  0  0  0  0  0  0  0  0
   -5.1709   -0.9689   -0.5115 H   0  0  0  0  0  0  0  0  0  0  0  0
   -5.1733   -3.9236    2.6120 H   0  0  0  0  0  0  0  0  0  0  0  0
   -3.3532   -2.6845    3.7936 H   0  0  0  0  0  0  0  0  0  0  0  0
   -0.9889   -2.1911    3.4451 H   0  0  0  0  0  0  0  0  0  0  0  0
    4.1085   -2.8384    3.1071 H   0  0  0  0  0  0  0  0  0  0  0  0
    5.9865   -1.5880    6.0663 H   0  0  0  0  0  0  0  0  0  0  0  0
    9.5006   -3.6475    5.1936 H   0  0  0  0  0  0  0  0  0  0  0  0
    6.7034   -4.6711    1.5548 H   0  0  0  0  0  0  0  0  0  0  0  0
    5.1783   -3.8216    1.8028 H   0  0  0  0  0  0  0  0  0  0  0  0
    4.7199   -5.6103    3.6924 H   0  0  0  0  0  0  0  0  0  0  0  0
    5.9921   -6.5578    2.9128 H   0  0  0  0  0  0  0  0  0  0  0  0
    5.3657   -7.6085    0.4803 H   0  0  0  0  0  0  0  0  0  0  0  0
    5.2949   -5.9244   -0.0784 H   0  0  0  0  0  0  0  0  0  0  0  0
    3.1598   -7.9360   -0.2668 H   0  0  0  0  0  0  0  0  0  0  0  0
    1.7833   -6.3023   -1.2534 H   0  0  0  0  0  0  0  0  0  0  0  0
    3.1228   -5.1423   -1.1800 H   0  0  0  0  0  0  0  0  0  0  0  0
    1.2807   -7.4182    1.2337 H   0  0  0  0  0  0  0  0  0  0  0  0
    1.0952   -6.1350    2.4739 H   0  0  0  0  0  0  0  0  0  0  0  0
   -2.6416   -4.1197    1.1842 H   0  0  0  0  0  0  0  0  0  0  0  0
   -1.9294   -6.2408   -0.7754 H   0  0  0  0  0  0  0  0  0  0  0  0
   -3.2741   -5.0985   -0.9206 H   0  0  0  0  0  0  0  0  0  0  0  0
   -2.1039   -8.1512    0.9173 H   0  0  0  0  0  0  0  0  0  0  0  0
   -3.6671   -9.8195    1.9530 H   0  0  0  0  0  0  0  0  0  0  0  0
   -7.0033   -7.2634    1.0597 H   0  0  0  0  0  0  0  0  0  0  0  0
   -5.4586   -5.5886    0.0278 H   0  0  0  0  0  0  0  0  0  0  0  0
  1  2  1  0
  1 52  1  0
  1 53  1  0
  2  3  1  6
  2  4  1  0
  2 19  1  0
  4  5  1  0
  4 54  1  0
  4 55  1  0
  5  6  2  0
  5 18  1  0
  6  7  1  0
  6 56  1  0
  7  8  2  0
  7 57  1  0
  8  9  1  0
  8 10  1  0
 10 11  1  0
 10 18  2  0
 11 12  2  0
 11 17  1  0
 12 13  1  0
 12 58  1  0
 13 14  2  0
 13 59  1  0
 14 15  1  0
 14 16  1  0
 16 17  2  0
 16 60  1  0
 17 61  1  0
 18 62  1  0
 19 20  2  0
 19 21  1  0
 21 22  1  0
 21 63  1  0
 22 23  2  0
 22 28  1  0
 23 24  1  0
 23 64  1  0
 24 25  2  0
 25 26  1  0
 25 65  1  0
 26 27  1  0
 26 28  2  0
 28 29  1  0
 29 30  1  0
 29 66  1  0
 29 67  1  0
 30 31  1  0
 30 68  1  0
 30 69  1  0
 31 32  1  1
 31 33  1  0
 31 51  1  0
 33 34  1  0
 33 70  1  0
 33 71  1  0
 34 35  1  0
 34 72  1  0
 35 36  1  0
 35 73  1  0
 35 74  1  0
 36 37  1  6
 36 38  1  0
 36 51  1  0
 38 39  1  0
 38 75  1  0
 38 76  1  0
 39 40  1  0
 40 41  2  0
 40 42  1  0
 42 43  1  0
 42 77  1  0
 43 44  1  0
 43 78  1  0
 43 79  1  0
 44 45  2  0
 44 50  1  0
 45 46  1  0
 45 80  1  0
 46 47  2  0
 46 81  1  0
 47 48  1  0
 47 49  1  0
 49 50  2  0
 49 82  1  0
 50 83  1  0
M  END

