
     RDKit          3D

 36 38  0  0  0  0  0  0  0  0999 V2000
    0.9398    0.0069   -0.3301 N   0  0  0  0  0  0  0  0  0  0  0  0
    2.3488    0.0899   -0.3193 N   0  0  0  0  0  0  0  0  0  0  0  0
    2.8483    1.3551   -0.8560 C   0  0  1  0  0  0  0  0  0  0  0  0
    2.3813    2.5579    0.0160 C   0  0  0  0  0  0  0  0  0  0  0  0
    2.8583    2.5599    1.4465 C   0  0  0  0  0  0  0  0  0  0  0  0
    3.9826    3.2925    1.8534 C   0  0  0  0  0  0  0  0  0  0  0  0
    4.3843    3.2521    3.1920 C   0  0  0  0  0  0  0  0  0  0  0  0
    3.7556    2.5427    4.1324 N   0  0  0  0  0  0  0  0  0  0  0  0
    2.6810    1.8457    3.7502 C   0  0  0  0  0  0  0  0  0  0  0  0
    2.1967    1.8217    2.4402 C   0  0  0  0  0  0  0  0  0  0  0  0
    4.3559    1.2696   -1.0264 C   0  0  0  0  0  0  0  0  0  0  0  0
    4.9735    1.8602   -2.1412 C   0  0  0  0  0  0  0  0  0  0  0  0
    6.3619    1.8353   -2.3254 C   0  0  0  0  0  0  0  0  0  0  0  0
    7.1281    1.1916   -1.3563 C   0  0  0  0  0  0  0  0  0  0  0  0
    6.5408    0.5890   -0.2362 C   0  0  0  0  0  0  0  0  0  0  0  0
    5.1623    0.6294   -0.0620 C   0  0  0  0  0  0  0  0  0  0  0  0
    7.6580    0.0509    0.6301 C   0  0  0  0  0  0  0  0  0  0  0  0
    8.8684    0.1722   -0.3254 C   0  0  0  0  0  0  0  0  0  0  0  0
    8.4815    1.0798   -1.3785 O   0  0  0  0  0  0  0  0  0  0  0  0
    0.5677   -0.2928   -1.2381 H   0  0  0  0  0  0  0  0  0  0  0  0
    0.6406   -0.6703    0.3697 H   0  0  0  0  0  0  0  0  0  0  0  0
    2.7945   -0.6803   -0.8238 H   0  0  0  0  0  0  0  0  0  0  0  0
    2.4179    1.5549   -1.8626 H   0  0  0  0  0  0  0  0  0  0  0  0
    1.2812    2.5465   -0.0011 H   0  0  0  0  0  0  0  0  0  0  0  0
    2.7153    3.4773   -0.4894 H   0  0  0  0  0  0  0  0  0  0  0  0
    4.5436    3.8941    1.1334 H   0  0  0  0  0  0  0  0  0  0  0  0
    5.2609    3.8268    3.5166 H   0  0  0  0  0  0  0  0  0  0  0  0
    2.1688    1.2715    4.5324 H   0  0  0  0  0  0  0  0  0  0  0  0
    1.3083    1.2390    2.1888 H   0  0  0  0  0  0  0  0  0  0  0  0
    4.3507    2.3500   -2.8960 H   0  0  0  0  0  0  0  0  0  0  0  0
    6.8333    2.2919   -3.1975 H   0  0  0  0  0  0  0  0  0  0  0  0
    4.6929    0.1717    0.8108 H   0  0  0  0  0  0  0  0  0  0  0  0
    7.4975   -0.9855    0.9648 H   0  0  0  0  0  0  0  0  0  0  0  0
    7.7848    0.6706    1.5351 H   0  0  0  0  0  0  0  0  0  0  0  0
    9.1175   -0.8006   -0.7855 H   0  0  0  0  0  0  0  0  0  0  0  0
    9.7746    0.5722    0.1516 H   0  0  0  0  0  0  0  0  0  0  0  0
  1  2  1  0
  1 20  1  0
  1 21  1  0
  2  3  1  0
  2 22  1  0
  3  4  1  0
  3 11  1  0
  3 23  1  6
  4  5  1  0
  4 24  1  0
  4 25  1  0
  5  6  2  0
  5 10  1  0
  6  7  1  0
  6 26  1  0
  7  8  2  0
  7 27  1  0
  8  9  1  0
  9 10  2  0
  9 28  1  0
 10 29  1  0
 11 12  2  0
 11 16  1  0
 12 13  1  0
 12 30  1  0
 13 14  2  0
 13 31  1  0
 14 15  1  0
 14 19  1  0
 15 16  2  0
 15 17  1  0
 16 32  1  0
 17 18  1  0
 17 33  1  0
 17 34  1  0
 18 19  1  0
 18 35  1  0
 18 36  1  0
M  END

