
     RDKit          3D

 30 30  0  0  0  0  0  0  0  0999 V2000
    1.0450    0.0609   -0.0921 C   0  0  0  0  0  0  0  0  0  0  0  0
    2.4981    0.0720   -0.0568 N   0  0  0  0  0  0  0  0  0  0  0  0
    3.1032    0.3938    1.1593 N   0  0  0  0  0  0  0  0  0  0  0  0
    3.2141   -0.3970   -1.1475 C   0  0  0  0  0  0  0  0  0  0  0  0
    2.6135   -0.8354   -2.1130 O   0  0  0  0  0  0  0  0  0  0  0  0
    4.7780   -0.3889   -1.1256 C   0  0  1  0  0  0  0  0  0  0  0  0
    5.4102    0.9506   -0.6647 C   0  0  0  0  0  0  0  0  0  0  0  0
    5.2306   -1.5144   -0.1699 C   0  0  0  0  0  0  0  0  0  0  0  0
    5.2367   -0.6559   -2.5705 C   0  0  0  0  0  0  0  0  0  0  0  0
    6.0453   -1.7386   -2.9413 C   0  0  0  0  0  0  0  0  0  0  0  0
    6.4836   -1.9391   -4.2554 C   0  0  0  0  0  0  0  0  0  0  0  0
    6.0999   -1.0303   -5.2331 C   0  0  0  0  0  0  0  0  0  0  0  0
    6.5070   -1.2017   -6.4990 F   0  0  0  0  0  0  0  0  0  0  0  0
    5.2957    0.0643   -4.9261 C   0  0  0  0  0  0  0  0  0  0  0  0
    4.8860    0.2256   -3.6077 C   0  0  0  0  0  0  0  0  0  0  0  0
    4.1156    1.2937   -3.3345 F   0  0  0  0  0  0  0  0  0  0  0  0
    0.6519    1.0480    0.2083 H   0  0  0  0  0  0  0  0  0  0  0  0
    0.6361   -0.7007    0.5987 H   0  0  0  0  0  0  0  0  0  0  0  0
    0.7156   -0.1737   -1.1103 H   0  0  0  0  0  0  0  0  0  0  0  0
    2.7449   -0.2225    1.8945 H   0  0  0  0  0  0  0  0  0  0  0  0
    2.8616    1.3523    1.4239 H   0  0  0  0  0  0  0  0  0  0  0  0
    5.2157    1.1349    0.3974 H   0  0  0  0  0  0  0  0  0  0  0  0
    5.0302    1.7991   -1.2495 H   0  0  0  0  0  0  0  0  0  0  0  0
    6.5002    0.8994   -0.8160 H   0  0  0  0  0  0  0  0  0  0  0  0
    4.8969   -1.2887    0.8505 H   0  0  0  0  0  0  0  0  0  0  0  0
    6.3287   -1.5920   -0.1528 H   0  0  0  0  0  0  0  0  0  0  0  0
    4.8196   -2.4914   -0.4665 H   0  0  0  0  0  0  0  0  0  0  0  0
    6.3496   -2.4654   -2.1888 H   0  0  0  0  0  0  0  0  0  0  0  0
    7.1124   -2.7895   -4.5237 H   0  0  0  0  0  0  0  0  0  0  0  0
    4.9887    0.7763   -5.6926 H   0  0  0  0  0  0  0  0  0  0  0  0
  1  2  1  0
  1 17  1  0
  1 18  1  0
  1 19  1  0
  2  3  1  0
  2  4  1  0
  3 20  1  0
  3 21  1  0
  4  5  2  0
  6  4  1  6
  6  7  1  0
  6  8  1  0
  6  9  1  0
  7 22  1  0
  7 23  1  0
  7 24  1  0
  8 25  1  0
  8 26  1  0
  8 27  1  0
  9 10  2  0
  9 15  1  0
 10 11  1  0
 10 28  1  0
 11 12  2  0
 11 29  1  0
 12 13  1  0
 12 14  1  0
 14 15  2  0
 14 30  1  0
 15 16  1  0
M  END

