
     RDKit          3D

 33 33  0  0  0  0  0  0  0  0999 V2000
    2.0219   -0.1992    0.7975 C   0  0  0  0  0  0  0  0  0  0  0  0
    2.5663   -0.1322   -0.6371 C   0  0  1  0  0  0  0  0  0  0  0  0
    1.5384   -0.5093   -1.6303 C   0  0  0  0  0  0  0  0  0  0  0  0
    0.7158   -0.8008   -2.3917 N   0  0  0  0  0  0  0  0  0  0  0  0
    3.1228    1.1746   -0.9957 N   0  0  0  0  0  0  0  0  0  0  0  0
    4.7586    1.4988   -0.6940 S   0  0  1  0  0  0  0  0  0  0  0  0
    4.8105    2.8194   -0.0648 O   0  0  0  0  0  0  0  0  0  0  0  0
    5.3379    0.3100   -0.0551 O   0  0  0  0  0  0  0  0  0  0  0  0
    5.4682    1.6387   -2.3525 C   0  0  0  0  0  0  0  0  0  0  0  0
    6.9623    1.9489   -2.2881 C   0  0  0  0  0  0  0  0  0  0  0  0
    7.5840    2.0839   -3.7033 C   0  0  0  0  0  0  0  0  0  0  0  0
    9.0454    2.3975   -3.6790 C   0  0  0  0  0  0  0  0  0  0  0  0
   10.0185    1.3431   -3.6391 C   0  0  0  0  0  0  0  0  0  0  0  0
   11.4120    1.6429   -3.5467 C   0  0  0  0  0  0  0  0  0  0  0  0
   11.8453    2.9996   -3.4950 C   0  0  0  0  0  0  0  0  0  0  0  0
   10.8920    4.0582   -3.5387 C   0  0  0  0  0  0  0  0  0  0  0  0
    9.4985    3.7586   -3.6315 C   0  0  0  0  0  0  0  0  0  0  0  0
    1.6156   -1.1982    1.0156 H   0  0  0  0  0  0  0  0  0  0  0  0
    1.2191    0.5395    0.9489 H   0  0  0  0  0  0  0  0  0  0  0  0
    2.8434    0.0103    1.4972 H   0  0  0  0  0  0  0  0  0  0  0  0
    3.3913   -0.8569   -0.7274 H   0  0  0  0  0  0  0  0  0  0  0  0
    2.5582    1.9824   -0.7335 H   0  0  0  0  0  0  0  0  0  0  0  0
    4.8938    2.4337   -2.8519 H   0  0  0  0  0  0  0  0  0  0  0  0
    5.2571    0.6814   -2.8534 H   0  0  0  0  0  0  0  0  0  0  0  0
    7.4773    1.1502   -1.7320 H   0  0  0  0  0  0  0  0  0  0  0  0
    7.1155    2.8834   -1.7263 H   0  0  0  0  0  0  0  0  0  0  0  0
    7.0419    2.8776   -4.2489 H   0  0  0  0  0  0  0  0  0  0  0  0
    7.4139    1.1398   -4.2520 H   0  0  0  0  0  0  0  0  0  0  0  0
    9.6863    0.3036   -3.6813 H   0  0  0  0  0  0  0  0  0  0  0  0
   12.1429    0.8333   -3.5133 H   0  0  0  0  0  0  0  0  0  0  0  0
   12.9099    3.2286   -3.4180 H   0  0  0  0  0  0  0  0  0  0  0  0
   11.2250    5.0966   -3.4986 H   0  0  0  0  0  0  0  0  0  0  0  0
    8.7680    4.5696   -3.6677 H   0  0  0  0  0  0  0  0  0  0  0  0
  1  2  1  0
  1 18  1  0
  1 19  1  0
  1 20  1  0
  2  3  1  0
  2  5  1  0
  2 21  1  1
  3  4  3  0
  6  5  1  6
  5 22  1  0
  6  7  2  0
  6  8  2  0
  6  9  1  0
  9 10  1  0
  9 23  1  0
  9 24  1  0
 10 11  1  0
 10 25  1  0
 10 26  1  0
 11 12  1  0
 11 27  1  0
 11 28  1  0
 12 13  2  0
 12 17  1  0
 13 14  1  0
 13 29  1  0
 14 15  2  0
 14 30  1  0
 15 16  1  0
 15 31  1  0
 16 17  2  0
 16 32  1  0
 17 33  1  0
M  END

