
     RDKit          3D

 43 44  0  0  0  0  0  0  0  0999 V2000
    0.9013   -0.0439   -0.3079 C   0  0  0  0  0  0  0  0  0  0  0  0
    2.4253   -0.0964   -0.0880 C   0  0  1  0  0  0  0  0  0  0  0  0
    2.9632    1.3558    0.0515 C   0  0  0  0  0  0  0  0  0  0  0  0
    4.4515    1.5565   -0.0072 C   0  0  0  0  0  0  0  0  0  0  0  0
    4.9986    2.6416   -0.7482 C   0  0  0  0  0  0  0  0  0  0  0  0
    6.3520    2.8922   -0.7622 C   0  0  0  0  0  0  0  0  0  0  0  0
    7.2357    2.0400   -0.0265 C   0  0  0  0  0  0  0  0  0  0  0  0
    8.5576    2.2712   -0.0239 N   0  0  0  0  0  0  0  0  0  0  0  0
    6.6973    0.9325    0.7019 C   0  0  0  0  0  0  0  0  0  0  0  0
    5.3443    0.7015    0.7050 C   0  0  0  0  0  0  0  0  0  0  0  0
    2.8655   -0.9050    1.0315 N   0  0  0  0  0  0  0  0  0  0  0  0
    2.7544   -2.3837    0.9150 C   0  0  0  0  0  0  0  0  0  0  0  0
    3.2943   -3.0953    2.1171 C   0  0  0  0  0  0  0  0  0  0  0  0
    2.4878   -3.3068    3.2814 C   0  0  0  0  0  0  0  0  0  0  0  0
    3.0101   -3.8039    4.4547 C   0  0  0  0  0  0  0  0  0  0  0  0
    4.4149   -4.1080    4.5441 C   0  0  0  0  0  0  0  0  0  0  0  0
    5.0870   -4.7799    5.9638 S   0  0  1  0  0  0  0  0  0  0  0  0
    5.2358   -6.4968    5.6740 N   0  0  0  0  0  0  0  0  0  0  0  0
    6.5037   -4.3939    6.1304 O   0  0  0  0  0  0  0  0  0  0  0  0
    4.1438   -4.6071    7.0912 O   0  0  0  0  0  0  0  0  0  0  0  0
    5.2313   -3.9542    3.3638 C   0  0  0  0  0  0  0  0  0  0  0  0
    4.6757   -3.4529    2.2101 C   0  0  0  0  0  0  0  0  0  0  0  0
    0.6328    0.5205   -1.2165 H   0  0  0  0  0  0  0  0  0  0  0  0
    0.3998    0.4336    0.5512 H   0  0  0  0  0  0  0  0  0  0  0  0
    0.4939   -1.0592   -0.4115 H   0  0  0  0  0  0  0  0  0  0  0  0
    2.8776   -0.5379   -0.9963 H   0  0  0  0  0  0  0  0  0  0  0  0
    2.6281    1.7408    1.0344 H   0  0  0  0  0  0  0  0  0  0  0  0
    2.4866    2.0041   -0.6996 H   0  0  0  0  0  0  0  0  0  0  0  0
    4.3275    3.2953   -1.3080 H   0  0  0  0  0  0  0  0  0  0  0  0
    6.7605    3.7338   -1.3253 H   0  0  0  0  0  0  0  0  0  0  0  0
    8.9606    3.0457   -0.5401 H   0  0  0  0  0  0  0  0  0  0  0  0
    9.1906    1.6754    0.4995 H   0  0  0  0  0  0  0  0  0  0  0  0
    7.3706    0.2727    1.2521 H   0  0  0  0  0  0  0  0  0  0  0  0
    4.8988   -0.1454    1.2329 H   0  0  0  0  0  0  0  0  0  0  0  0
    2.4191   -0.6100    1.9015 H   0  0  0  0  0  0  0  0  0  0  0  0
    3.3160   -2.6695    0.0061 H   0  0  0  0  0  0  0  0  0  0  0  0
    1.7001   -2.6812    0.7333 H   0  0  0  0  0  0  0  0  0  0  0  0
    1.4176   -3.0710    3.2394 H   0  0  0  0  0  0  0  0  0  0  0  0
    2.3827   -3.9588    5.3333 H   0  0  0  0  0  0  0  0  0  0  0  0
    5.8476   -6.8462    6.4170 H   0  0  0  0  0  0  0  0  0  0  0  0
    4.3104   -6.9088    5.8158 H   0  0  0  0  0  0  0  0  0  0  0  0
    6.2839   -4.2359    3.4101 H   0  0  0  0  0  0  0  0  0  0  0  0
    5.3106   -3.3400    1.3235 H   0  0  0  0  0  0  0  0  0  0  0  0
  1  2  1  0
  1 23  1  0
  1 24  1  0
  1 25  1  0
  2  3  1  0
  2 11  1  0
  2 26  1  6
  3  4  1  0
  3 27  1  0
  3 28  1  0
  4  5  2  0
  4 10  1  0
  5  6  1  0
  5 29  1  0
  6  7  2  0
  6 30  1  0
  7  8  1  0
  7  9  1  0
  8 31  1  0
  8 32  1  0
  9 10  2  0
  9 33  1  0
 10 34  1  0
 11 12  1  0
 11 35  1  0
 12 13  1  0
 12 36  1  0
 12 37  1  0
 13 14  2  0
 13 22  1  0
 14 15  1  0
 14 38  1  0
 15 16  2  0
 15 39  1  0
 16 17  1  0
 16 21  1  0
 17 18  1  6
 17 19  2  0
 17 20  2  0
 18 40  1  0
 18 41  1  0
 21 22  2  0
 21 42  1  0
 22 43  1  0
M  END

