
     RDKit          3D

 49 52  0  0  0  0  0  0  0  0999 V2000
    1.5545   -0.4409    0.7905 C   0  0  0  0  0  0  0  0  0  0  0  0
    2.8845   -0.0193    0.5504 O   0  0  0  0  0  0  0  0  0  0  0  0
    3.1507    1.2063    0.1179 C   0  0  0  0  0  0  0  0  0  0  0  0
    2.1533    2.1733   -0.1215 C   0  0  0  0  0  0  0  0  0  0  0  0
    2.5142    3.4281   -0.5902 C   0  0  0  0  0  0  0  0  0  0  0  0
    3.8808    3.7572   -0.7905 C   0  0  0  0  0  0  0  0  0  0  0  0
    4.2241    4.9579   -1.2628 O   0  0  0  0  0  0  0  0  0  0  0  0
    3.2569    5.8905   -1.7152 C   0  0  0  0  0  0  0  0  0  0  0  0
    4.9387    2.8211   -0.5013 C   0  0  0  0  0  0  0  0  0  0  0  0
    6.3495    3.0785   -0.6665 C   0  0  0  0  0  0  0  0  0  0  0  0
    6.8476    4.3516   -0.9790 N   0  0  0  0  0  0  0  0  0  0  0  0
    6.8125    5.4347   -0.0047 C   0  0  0  0  0  0  0  0  0  0  0  0
    7.9080    5.3610    1.0722 C   0  0  0  0  0  0  0  0  0  0  0  0
    7.7499    6.4580    2.1298 C   0  0  0  0  0  0  0  0  0  0  0  0
    8.8141    6.4801    3.1213 N   0  0  0  0  0  0  0  0  0  0  0  0
    9.0324    5.5613    4.1278 C   0  0  0  0  0  0  0  0  0  0  0  0
   10.1715    5.9864    4.7771 C   0  0  0  0  0  0  0  0  0  0  0  0
   10.6549    7.1319    4.1980 N   0  0  0  0  0  0  0  0  0  0  0  0
    9.8263    7.3982    3.2145 C   0  0  0  0  0  0  0  0  0  0  0  0
    7.2618    1.9720   -0.5676 C   0  0  0  0  0  0  0  0  0  0  0  0
    8.6624    2.0878   -0.7603 C   0  0  0  0  0  0  0  0  0  0  0  0
    9.5105    0.9715   -0.6580 C   0  0  0  0  0  0  0  0  0  0  0  0
    8.9858   -0.2812   -0.3435 C   0  0  0  0  0  0  0  0  0  0  0  0
    7.6075   -0.4277   -0.1220 C   0  0  0  0  0  0  0  0  0  0  0  0
    6.7267    0.6725   -0.2279 C   0  0  0  0  0  0  0  0  0  0  0  0
    5.4033    0.4749    0.0191 N   0  0  0  0  0  0  0  0  0  0  0  0
    4.5595    1.4956   -0.1208 C   0  0  0  0  0  0  0  0  0  0  0  0
    1.6218   -1.4821    1.1292 H   0  0  0  0  0  0  0  0  0  0  0  0
    0.9463   -0.3958   -0.1288 H   0  0  0  0  0  0  0  0  0  0  0  0
    1.0747    0.1669    1.5765 H   0  0  0  0  0  0  0  0  0  0  0  0
    1.1019    1.9477    0.0517 H   0  0  0  0  0  0  0  0  0  0  0  0
    1.7393    4.1654   -0.7894 H   0  0  0  0  0  0  0  0  0  0  0  0
    3.8228    6.7364   -2.1250 H   0  0  0  0  0  0  0  0  0  0  0  0
    2.6209    6.2475   -0.8879 H   0  0  0  0  0  0  0  0  0  0  0  0
    2.6221    5.4594   -2.5064 H   0  0  0  0  0  0  0  0  0  0  0  0
    7.7485    4.2989   -1.4438 H   0  0  0  0  0  0  0  0  0  0  0  0
    5.8247    5.4365    0.4784 H   0  0  0  0  0  0  0  0  0  0  0  0
    6.8890    6.3975   -0.5437 H   0  0  0  0  0  0  0  0  0  0  0  0
    8.9040    5.4539    0.6056 H   0  0  0  0  0  0  0  0  0  0  0  0
    7.8776    4.3699    1.5540 H   0  0  0  0  0  0  0  0  0  0  0  0
    6.7836    6.3446    2.6507 H   0  0  0  0  0  0  0  0  0  0  0  0
    7.7339    7.4502    1.6501 H   0  0  0  0  0  0  0  0  0  0  0  0
    8.3745    4.7099    4.2866 H   0  0  0  0  0  0  0  0  0  0  0  0
   10.6621    5.5233    5.6330 H   0  0  0  0  0  0  0  0  0  0  0  0
    9.8926    8.2456    2.5300 H   0  0  0  0  0  0  0  0  0  0  0  0
    9.1116    3.0591   -0.9771 H   0  0  0  0  0  0  0  0  0  0  0  0
   10.5848    1.0966   -0.8160 H   0  0  0  0  0  0  0  0  0  0  0  0
    9.6461   -1.1483   -0.2580 H   0  0  0  0  0  0  0  0  0  0  0  0
    7.1704   -1.3906    0.1475 H   0  0  0  0  0  0  0  0  0  0  0  0
  1  2  1  0
  1 28  1  0
  1 29  1  0
  1 30  1  0
  2  3  1  0
  3  4  2  0
  3 27  1  0
  4  5  1  0
  4 31  1  0
  5  6  2  0
  5 32  1  0
  6  7  1  0
  6  9  1  0
  7  8  1  0
  8 33  1  0
  8 34  1  0
  8 35  1  0
  9 10  1  0
  9 27  2  0
 10 11  1  0
 10 20  2  0
 11 12  1  0
 11 36  1  0
 12 13  1  0
 12 37  1  0
 12 38  1  0
 13 14  1  0
 13 39  1  0
 13 40  1  0
 14 15  1  0
 14 41  1  0
 14 42  1  0
 15 16  1  0
 15 19  1  0
 16 17  2  0
 16 43  1  0
 17 18  1  0
 17 44  1  0
 18 19  2  0
 19 45  1  0
 20 21  1  0
 20 25  1  0
 21 22  2  0
 21 46  1  0
 22 23  1  0
 22 47  1  0
 23 24  2  0
 23 48  1  0
 24 25  1  0
 24 49  1  0
 25 26  2  0
 26 27  1  0
M  END

