
     RDKit          3D

 52 54  0  0  0  0  0  0  0  0999 V2000
    0.7496    0.1632    0.1199 C   0  0  0  0  0  0  0  0  0  0  0  0
    2.2310    0.2076    0.4095 C   0  0  0  0  0  0  0  0  0  0  0  0
    2.7677    1.1014    1.3406 C   0  0  0  0  0  0  0  0  0  0  0  0
    4.1441    1.1175    1.5966 C   0  0  0  0  0  0  0  0  0  0  0  0
    5.0187    0.2507    0.9409 C   0  0  0  0  0  0  0  0  0  0  0  0
    6.5097    0.2616    1.2160 C   0  0  0  0  0  0  0  0  0  0  0  0
    7.3128    0.8349    0.1453 N   0  0  0  0  0  0  0  0  0  0  0  0
    7.5010    2.2034    0.0887 C   0  0  0  0  0  0  0  0  0  0  0  0
    7.1843    2.9385    1.0195 O   0  0  0  0  0  0  0  0  0  0  0  0
    8.1049    2.6913   -1.0511 N   0  0  0  0  0  0  0  0  0  0  0  0
    8.4805    1.9197   -2.2444 C   0  0  1  0  0  0  0  0  0  0  0  0
    7.2757    1.4862   -3.0969 C   0  0  0  0  0  0  0  0  0  0  0  0
    9.4064    2.8985   -2.9941 C   0  0  0  0  0  0  0  0  0  0  0  0
    8.8543    4.2794   -2.6123 C   0  0  0  0  0  0  0  0  0  0  0  0
    8.4679    4.1205   -1.1302 C   0  0  2  0  0  0  0  0  0  0  0  0
    9.5956    4.5008   -0.1636 C   0  0  0  0  0  0  0  0  0  0  0  0
    4.4779   -0.6376   -0.0153 C   0  0  0  0  0  0  0  0  0  0  0  0
    5.3967   -1.4300   -0.6598 O   0  0  0  0  0  0  0  0  0  0  0  0
    4.9898   -2.3982   -1.6068 C   0  0  1  0  0  0  0  0  0  0  0  0
    6.2066   -2.9229   -2.3715 C   0  0  0  0  0  0  0  0  0  0  0  0
    5.7259   -4.2943   -2.8614 C   0  0  0  0  0  0  0  0  0  0  0  0
    4.6672   -4.6912   -1.9878 O   0  0  0  0  0  0  0  0  0  0  0  0
    4.4400   -3.7031   -1.0032 C   0  0  0  0  0  0  0  0  0  0  0  0
    3.1034   -0.6651   -0.2679 C   0  0  0  0  0  0  0  0  0  0  0  0
    0.1984    0.8942    0.7292 H   0  0  0  0  0  0  0  0  0  0  0  0
    0.3289   -0.8348    0.3293 H   0  0  0  0  0  0  0  0  0  0  0  0
    0.5400    0.3837   -0.9405 H   0  0  0  0  0  0  0  0  0  0  0  0
    2.1086    1.7920    1.8729 H   0  0  0  0  0  0  0  0  0  0  0  0
    4.5577    1.8274    2.3171 H   0  0  0  0  0  0  0  0  0  0  0  0
    6.8638   -0.7666    1.3888 H   0  0  0  0  0  0  0  0  0  0  0  0
    6.7078    0.8505    2.1198 H   0  0  0  0  0  0  0  0  0  0  0  0
    7.3866    0.2801   -0.6963 H   0  0  0  0  0  0  0  0  0  0  0  0
    9.0452    1.0184   -1.9430 H   0  0  0  0  0  0  0  0  0  0  0  0
    6.7268    2.3616   -3.4780 H   0  0  0  0  0  0  0  0  0  0  0  0
    6.5615    0.8774   -2.5221 H   0  0  0  0  0  0  0  0  0  0  0  0
    7.6132    0.8885   -3.9595 H   0  0  0  0  0  0  0  0  0  0  0  0
    9.4159    2.7148   -4.0791 H   0  0  0  0  0  0  0  0  0  0  0  0
   10.4408    2.7877   -2.6321 H   0  0  0  0  0  0  0  0  0  0  0  0
    7.9631    4.5150   -3.2165 H   0  0  0  0  0  0  0  0  0  0  0  0
    9.5799    5.0913   -2.7689 H   0  0  0  0  0  0  0  0  0  0  0  0
    7.5829    4.7251   -0.8762 H   0  0  0  0  0  0  0  0  0  0  0  0
   10.5245    3.9515   -0.3899 H   0  0  0  0  0  0  0  0  0  0  0  0
    9.2944    4.2749    0.8682 H   0  0  0  0  0  0  0  0  0  0  0  0
    9.8087    5.5800   -0.2341 H   0  0  0  0  0  0  0  0  0  0  0  0
    4.2573   -1.9613   -2.3089 H   0  0  0  0  0  0  0  0  0  0  0  0
    7.0404   -3.0204   -1.6577 H   0  0  0  0  0  0  0  0  0  0  0  0
    6.5276   -2.2567   -3.1855 H   0  0  0  0  0  0  0  0  0  0  0  0
    6.5306   -5.0500   -2.8459 H   0  0  0  0  0  0  0  0  0  0  0  0
    5.3346   -4.2475   -3.8942 H   0  0  0  0  0  0  0  0  0  0  0  0
    4.9884   -3.9158   -0.0624 H   0  0  0  0  0  0  0  0  0  0  0  0
    3.3640   -3.6767   -0.7731 H   0  0  0  0  0  0  0  0  0  0  0  0
    2.6849   -1.3642   -0.9934 H   0  0  0  0  0  0  0  0  0  0  0  0
  1  2  1  0
  1 25  1  0
  1 26  1  0
  1 27  1  0
  2  3  2  0
  2 24  1  0
  3  4  1  0
  3 28  1  0
  4  5  2  0
  4 29  1  0
  5  6  1  0
  5 17  1  0
  6  7  1  0
  6 30  1  0
  6 31  1  0
  7  8  1  0
  7 32  1  0
  8  9  2  0
  8 10  1  0
 10 11  1  0
 10 15  1  0
 11 12  1  0
 11 13  1  0
 11 33  1  1
 12 34  1  0
 12 35  1  0
 12 36  1  0
 13 14  1  0
 13 37  1  0
 13 38  1  0
 14 15  1  0
 14 39  1  0
 14 40  1  0
 15 16  1  0
 15 41  1  1
 16 42  1  0
 16 43  1  0
 16 44  1  0
 17 18  1  0
 17 24  2  0
 18 19  1  0
 19 20  1  0
 19 23  1  0
 19 45  1  6
 20 21  1  0
 20 46  1  0
 20 47  1  0
 21 22  1  0
 21 48  1  0
 21 49  1  0
 22 23  1  0
 23 50  1  0
 23 51  1  0
 24 52  1  0
M  END

