
     RDKit          3D

 38 39  0  0  0  0  0  0  0  0999 V2000
    0.8390   -1.5580   -1.1080 C   0  0  0  0  0  0  0  0  0  0  0  0
    2.2992   -1.5050   -1.5214 C   0  0  0  0  0  0  0  0  0  0  0  0
    3.0602   -1.1224   -0.3901 O   0  0  0  0  0  0  0  0  0  0  0  0
    4.4787   -1.2564   -0.4443 C   0  0  1  0  0  0  0  0  0  0  0  0
    5.0878   -0.4453   -1.5938 C   0  0  0  0  0  0  0  0  0  0  0  0
    4.9402   -0.7409    0.9390 C   0  0  0  0  0  0  0  0  0  0  0  0
    6.4424   -0.7820    1.2138 C   0  0  0  0  0  0  0  0  0  0  0  0
    4.8309   -2.7322   -0.5694 C   0  0  0  0  0  0  0  0  0  0  0  0
    5.6931   -3.1976   -1.4360 N   0  0  0  0  0  0  0  0  0  0  0  0
    5.7164   -4.5682   -1.1818 O   0  0  0  0  0  0  0  0  0  0  0  0
    4.8517   -4.8031   -0.1781 C   0  0  0  0  0  0  0  0  0  0  0  0
    4.6582   -6.1580    0.2995 C   0  0  0  0  0  0  0  0  0  0  0  0
    5.3934   -7.2172   -0.2720 C   0  0  0  0  0  0  0  0  0  0  0  0
    5.2421   -8.5293    0.1498 C   0  0  0  0  0  0  0  0  0  0  0  0
    4.3205   -8.7867    1.1790 C   0  0  0  0  0  0  0  0  0  0  0  0
    4.0877  -10.5789    1.7840 Br  0  0  0  0  0  0  0  0  0  0  0  0
    3.5754   -7.7778    1.7690 C   0  0  0  0  0  0  0  0  0  0  0  0
    3.7216   -6.4314    1.3480 C   0  0  0  0  0  0  0  0  0  0  0  0
    2.9906   -5.4475    1.9274 N   0  0  0  0  0  0  0  0  0  0  0  0
    4.2794   -3.6961    0.2373 N   0  0  0  0  0  0  0  0  0  0  0  0
    0.2025   -1.8222   -1.9671 H   0  0  0  0  0  0  0  0  0  0  0  0
    0.5128   -0.5804   -0.7200 H   0  0  0  0  0  0  0  0  0  0  0  0
    0.6893   -2.3073   -0.3156 H   0  0  0  0  0  0  0  0  0  0  0  0
    2.4333   -0.7828   -2.3498 H   0  0  0  0  0  0  0  0  0  0  0  0
    2.6230   -2.4940   -1.9005 H   0  0  0  0  0  0  0  0  0  0  0  0
    4.7883    0.6086   -1.4901 H   0  0  0  0  0  0  0  0  0  0  0  0
    4.7546   -0.8150   -2.5733 H   0  0  0  0  0  0  0  0  0  0  0  0
    6.1840   -0.5085   -1.5863 H   0  0  0  0  0  0  0  0  0  0  0  0
    4.3987   -1.3372    1.6901 H   0  0  0  0  0  0  0  0  0  0  0  0
    4.5580    0.2893    1.0271 H   0  0  0  0  0  0  0  0  0  0  0  0
    6.8537   -1.7992    1.1130 H   0  0  0  0  0  0  0  0  0  0  0  0
    6.6486   -0.4447    2.2416 H   0  0  0  0  0  0  0  0  0  0  0  0
    7.0094   -0.1256    0.5354 H   0  0  0  0  0  0  0  0  0  0  0  0
    6.1011   -6.9850   -1.0700 H   0  0  0  0  0  0  0  0  0  0  0  0
    5.8181   -9.3379   -0.2993 H   0  0  0  0  0  0  0  0  0  0  0  0
    2.8674   -8.0124    2.5657 H   0  0  0  0  0  0  0  0  0  0  0  0
    2.3368   -5.6699    2.6638 H   0  0  0  0  0  0  0  0  0  0  0  0
    3.1139   -4.4864    1.6109 H   0  0  0  0  0  0  0  0  0  0  0  0
  1  2  1  0
  1 21  1  0
  1 22  1  0
  1 23  1  0
  2  3  1  0
  2 24  1  0
  2 25  1  0
  4  3  1  1
  4  5  1  0
  4  6  1  0
  4  8  1  0
  5 26  1  0
  5 27  1  0
  5 28  1  0
  6  7  1  0
  6 29  1  0
  6 30  1  0
  7 31  1  0
  7 32  1  0
  7 33  1  0
  8  9  2  0
  8 20  1  0
  9 10  1  0
 10 11  1  0
 11 12  1  0
 11 20  2  0
 12 13  2  0
 12 18  1  0
 13 14  1  0
 13 34  1  0
 14 15  2  0
 14 35  1  0
 15 16  1  0
 15 17  1  0
 17 18  2  0
 17 36  1  0
 18 19  1  0
 19 37  1  0
 19 38  1  0
M  END

