
     RDKit          3D

 43 46  0  0  0  0  0  0  0  0999 V2000
    2.1285    0.9690    1.3419 C   0  0  0  0  0  0  0  0  0  0  0  0
    3.1288    1.3453    0.2551 C   0  0  0  0  0  0  0  0  0  0  0  0
    2.2973    1.5205   -1.3497 S   0  0  1  0  0  0  0  0  0  0  0  0
    1.9160    0.1917   -1.8224 O   0  0  0  0  0  0  0  0  0  0  0  0
    1.3241    2.6054   -1.2288 O   0  0  0  0  0  0  0  0  0  0  0  0
    3.5224    1.9949   -2.4144 N   0  0  0  0  0  0  0  0  0  0  0  0
    4.2224    3.2088   -2.4688 C   0  0  0  0  0  0  0  0  0  0  0  0
    3.7267    4.4021   -1.9140 C   0  0  0  0  0  0  0  0  0  0  0  0
    4.4746    5.5748   -2.0080 C   0  0  0  0  0  0  0  0  0  0  0  0
    5.7185    5.6128   -2.6613 C   0  0  0  0  0  0  0  0  0  0  0  0
    6.5070    6.8640   -2.7810 C   0  0  0  0  0  0  0  0  0  0  0  0
    6.2752    7.9860   -1.9000 C   0  0  0  0  0  0  0  0  0  0  0  0
    7.0270    9.1225   -2.0196 C   0  0  0  0  0  0  0  0  0  0  0  0
    8.0227    9.1508   -3.0245 C   0  0  0  0  0  0  0  0  0  0  0  0
    8.9084   10.0626   -3.3927 N   0  0  0  0  0  0  0  0  0  0  0  0
    9.6162    9.5395   -4.4105 N   0  0  0  0  0  0  0  0  0  0  0  0
    9.1873    8.3105   -4.6890 C   0  0  0  0  0  0  0  0  0  0  0  0
    9.7572    7.4695   -5.7445 C   0  0  0  0  0  0  0  0  0  0  0  0
   10.8965    7.9375   -6.4280 C   0  0  0  0  0  0  0  0  0  0  0  0
   11.4484    7.1533   -7.4344 C   0  0  0  0  0  0  0  0  0  0  0  0
   10.8487    5.9229   -7.7315 C   0  0  0  0  0  0  0  0  0  0  0  0
    9.7667    5.4681   -7.0986 N   0  0  0  0  0  0  0  0  0  0  0  0
    9.2334    6.2202   -6.1331 C   0  0  0  0  0  0  0  0  0  0  0  0
    8.1600    8.0109   -3.8198 N   0  0  0  0  0  0  0  0  0  0  0  0
    7.4327    6.8874   -3.7187 N   0  0  0  0  0  0  0  0  0  0  0  0
    6.1957    4.4130   -3.2240 C   0  0  0  0  0  0  0  0  0  0  0  0
    5.4698    3.2338   -3.1245 C   0  0  0  0  0  0  0  0  0  0  0  0
    2.6514    0.8506    2.3033 H   0  0  0  0  0  0  0  0  0  0  0  0
    1.6284    0.0196    1.1001 H   0  0  0  0  0  0  0  0  0  0  0  0
    1.3618    1.7491    1.4543 H   0  0  0  0  0  0  0  0  0  0  0  0
    3.8972    0.5732    0.1008 H   0  0  0  0  0  0  0  0  0  0  0  0
    3.6216    2.3097    0.4519 H   0  0  0  0  0  0  0  0  0  0  0  0
    3.8959    1.2011   -2.9271 H   0  0  0  0  0  0  0  0  0  0  0  0
    2.7462    4.4129   -1.4396 H   0  0  0  0  0  0  0  0  0  0  0  0
    4.0437    6.4850   -1.5873 H   0  0  0  0  0  0  0  0  0  0  0  0
    5.5155    7.9105   -1.1235 H   0  0  0  0  0  0  0  0  0  0  0  0
    6.8993    9.9913   -1.3724 H   0  0  0  0  0  0  0  0  0  0  0  0
   11.3200    8.9049   -6.1525 H   0  0  0  0  0  0  0  0  0  0  0  0
   12.3324    7.4853   -7.9837 H   0  0  0  0  0  0  0  0  0  0  0  0
   11.2641    5.2809   -8.5177 H   0  0  0  0  0  0  0  0  0  0  0  0
    8.3444    5.8270   -5.6363 H   0  0  0  0  0  0  0  0  0  0  0  0
    7.1603    4.4108   -3.7326 H   0  0  0  0  0  0  0  0  0  0  0  0
    5.8708    2.3131   -3.5569 H   0  0  0  0  0  0  0  0  0  0  0  0
  1  2  1  0
  1 28  1  0
  1 29  1  0
  1 30  1  0
  2  3  1  0
  2 31  1  0
  2 32  1  0
  3  4  2  0
  3  5  2  0
  3  6  1  6
  6  7  1  0
  6 33  1  0
  7  8  2  0
  7 27  1  0
  8  9  1  0
  8 34  1  0
  9 10  2  0
  9 35  1  0
 10 11  1  0
 10 26  1  0
 11 12  1  0
 11 25  2  0
 12 13  2  0
 12 36  1  0
 13 14  1  0
 13 37  1  0
 14 15  2  0
 14 24  1  0
 15 16  1  0
 16 17  2  0
 17 18  1  0
 17 24  1  0
 18 19  2  0
 18 23  1  0
 19 20  1  0
 19 38  1  0
 20 21  2  0
 20 39  1  0
 21 22  1  0
 21 40  1  0
 22 23  2  0
 23 41  1  0
 24 25  1  0
 26 27  2  0
 26 42  1  0
 27 43  1  0
M  END

