
     RDKit          3D

 26 28  0  0  0  0  0  0  0  0999 V2000
   -2.4326    0.7547    0.1533 C   0  0  0  0  0  0  0  0  0  0  0  0
   -2.4787   -0.6596    0.1330 C   0  0  0  0  0  0  0  0  0  0  0  0
   -1.3201   -1.4055    0.0352 C   0  0  0  0  0  0  0  0  0  0  0  0
   -0.0470   -0.7741   -0.0489 C   0  0  0  0  0  0  0  0  0  0  0  0
    1.2128   -1.4764   -0.1594 C   0  0  0  0  0  0  0  0  0  0  0  0
    1.3711   -2.9340   -0.2103 C   0  0  0  0  0  0  0  0  0  0  0  0
    0.4116   -3.7935   -0.0634 N   0  0  0  0  0  0  0  0  0  0  0  0
    0.9088   -5.0582   -0.0596 N   0  0  0  0  0  0  0  0  0  0  0  0
    2.2638   -5.0799   -0.6280 C   0  0  0  0  0  0  0  0  0  0  0  0
    2.7209   -3.6393   -0.3531 C   0  0  0  0  0  0  0  0  0  0  0  0
    2.3616   -0.6926   -0.2268 C   0  0  0  0  0  0  0  0  0  0  0  0
    2.2791    0.7177   -0.1890 C   0  0  0  0  0  0  0  0  0  0  0  0
    1.1527    1.3841   -0.0948 N   0  0  0  0  0  0  0  0  0  0  0  0
   -0.0038    0.6648   -0.0254 C   0  0  0  0  0  0  0  0  0  0  0  0
   -1.2181    1.4001    0.0760 C   0  0  0  0  0  0  0  0  0  0  0  0
   -3.3587    1.3302    0.2317 H   0  0  0  0  0  0  0  0  0  0  0  0
   -3.4434   -1.1701    0.1974 H   0  0  0  0  0  0  0  0  0  0  0  0
   -1.3620   -2.4921    0.0277 H   0  0  0  0  0  0  0  0  0  0  0  0
    0.2323   -5.7481   -0.3719 H   0  0  0  0  0  0  0  0  0  0  0  0
    2.2405   -5.2860   -1.7166 H   0  0  0  0  0  0  0  0  0  0  0  0
    2.8882   -5.8447   -0.1441 H   0  0  0  0  0  0  0  0  0  0  0  0
    3.3517   -3.2307   -1.1545 H   0  0  0  0  0  0  0  0  0  0  0  0
    3.2900   -3.5621    0.5911 H   0  0  0  0  0  0  0  0  0  0  0  0
    3.3477   -1.1518   -0.3062 H   0  0  0  0  0  0  0  0  0  0  0  0
    3.2036    1.3077   -0.2416 H   0  0  0  0  0  0  0  0  0  0  0  0
   -1.1363    2.4886    0.0896 H   0  0  0  0  0  0  0  0  0  0  0  0
  1  2  2  0
  1 15  1  0
  1 16  1  0
  2  3  1  0
  2 17  1  0
  3  4  2  0
  3 18  1  0
  4  5  1  0
  4 14  1  0
  5  6  1  0
  5 11  2  0
  6  7  2  0
  6 10  1  0
  7  8  1  0
  8  9  1  0
  8 19  1  0
  9 10  1  0
  9 20  1  0
  9 21  1  0
 10 22  1  0
 10 23  1  0
 11 12  1  0
 11 24  1  0
 12 13  2  0
 12 25  1  0
 13 14  1  0
 14 15  2  0
 15 26  1  0
M  END

