
     RDKit          3D

 56 57  0  0  0  0  0  0  0  0999 V2000
    0.8288    0.0930   -0.7586 C   0  0  0  0  0  0  0  0  0  0  0  0
    2.3501   -0.0075   -0.6475 C   0  0  0  0  0  0  0  0  0  0  0  0
    2.8877    0.7364    0.4898 N   0  0  0  0  0  0  0  0  0  0  0  0
    4.1583    0.2582    1.0249 C   0  0  0  0  0  0  0  0  0  0  0  0
    5.3813    0.7227    0.2211 C   0  0  0  0  0  0  0  0  0  0  0  0
    5.3617    2.1780    0.0748 N   0  0  0  0  0  0  0  0  0  0  0  0
    6.4945    2.9002    0.3659 C   0  0  0  0  0  0  0  0  0  0  0  0
    7.5133    2.3647    0.7802 O   0  0  0  0  0  0  0  0  0  0  0  0
    6.4373    4.4165    0.1649 C   0  0  0  0  0  0  0  0  0  0  0  0
    7.7939    5.0736    0.4152 C   0  0  0  0  0  0  0  0  0  0  0  0
    7.7628    6.5858    0.2926 C   0  0  0  0  0  0  0  0  0  0  0  0
    7.3807    6.9320   -1.0407 O   0  0  0  0  0  0  0  0  0  0  0  0
    7.2576    8.2139   -1.4342 C   0  0  0  0  0  0  0  0  0  0  0  0
    6.8837    8.3826   -2.7990 C   0  0  0  0  0  0  0  0  0  0  0  0
    6.7369    9.7049   -3.3117 C   0  0  0  0  0  0  0  0  0  0  0  0
    6.9598   10.8352   -2.4753 C   0  0  0  0  0  0  0  0  0  0  0  0
    6.8249   12.2657   -2.9979 C   0  0  1  0  0  0  0  0  0  0  0  0
    6.4157   12.3295   -4.4804 C   0  0  0  0  0  0  0  0  0  0  0  0
    5.7501   13.0158   -2.1681 C   0  0  0  0  0  0  0  0  0  0  0  0
    8.1855   12.9945   -2.8408 C   0  0  0  0  0  0  0  0  0  0  0  0
    7.3285   10.6346   -1.1022 C   0  0  0  0  0  0  0  0  0  0  0  0
    7.4822    9.3182   -0.5680 C   0  0  0  0  0  0  0  0  0  0  0  0
    4.1140    2.7098   -0.4638 C   0  0  0  0  0  0  0  0  0  0  0  0
    2.9125    2.1860    0.3483 C   0  0  0  0  0  0  0  0  0  0  0  0
    0.4612   -0.5341   -1.5867 H   0  0  0  0  0  0  0  0  0  0  0  0
    0.4929    1.1234   -0.9576 H   0  0  0  0  0  0  0  0  0  0  0  0
    0.3523   -0.2416    0.1759 H   0  0  0  0  0  0  0  0  0  0  0  0
    2.8069    0.2836   -1.6201 H   0  0  0  0  0  0  0  0  0  0  0  0
    2.6214   -1.0656   -0.4991 H   0  0  0  0  0  0  0  0  0  0  0  0
    4.1402   -0.8420    1.0785 H   0  0  0  0  0  0  0  0  0  0  0  0
    4.2614    0.6335    2.0596 H   0  0  0  0  0  0  0  0  0  0  0  0
    5.3806    0.2525   -0.7817 H   0  0  0  0  0  0  0  0  0  0  0  0
    6.3208    0.4507    0.7183 H   0  0  0  0  0  0  0  0  0  0  0  0
    5.6785    4.8418    0.8471 H   0  0  0  0  0  0  0  0  0  0  0  0
    6.0930    4.6539   -0.8547 H   0  0  0  0  0  0  0  0  0  0  0  0
    8.5403    4.6623   -0.2822 H   0  0  0  0  0  0  0  0  0  0  0  0
    8.1526    4.8144    1.4232 H   0  0  0  0  0  0  0  0  0  0  0  0
    8.7550    7.0199    0.5036 H   0  0  0  0  0  0  0  0  0  0  0  0
    7.0402    7.0341    0.9982 H   0  0  0  0  0  0  0  0  0  0  0  0
    6.7338    7.4975   -3.4167 H   0  0  0  0  0  0  0  0  0  0  0  0
    6.4571    9.8360   -4.3544 H   0  0  0  0  0  0  0  0  0  0  0  0
    5.4422   11.8459   -4.6549 H   0  0  0  0  0  0  0  0  0  0  0  0
    7.1609   11.8444   -5.1293 H   0  0  0  0  0  0  0  0  0  0  0  0
    6.3289   13.3803   -4.7989 H   0  0  0  0  0  0  0  0  0  0  0  0
    4.7666   12.5316   -2.2742 H   0  0  0  0  0  0  0  0  0  0  0  0
    5.6599   14.0568   -2.5212 H   0  0  0  0  0  0  0  0  0  0  0  0
    5.9980   13.0410   -1.0971 H   0  0  0  0  0  0  0  0  0  0  0  0
    8.9684   12.4880   -3.4268 H   0  0  0  0  0  0  0  0  0  0  0  0
    8.5180   13.0262   -1.7930 H   0  0  0  0  0  0  0  0  0  0  0  0
    8.1021   14.0328   -3.2036 H   0  0  0  0  0  0  0  0  0  0  0  0
    7.5001   11.4905   -0.4504 H   0  0  0  0  0  0  0  0  0  0  0  0
    7.7662    9.1780    0.4731 H   0  0  0  0  0  0  0  0  0  0  0  0
    4.0122    2.4103   -1.5256 H   0  0  0  0  0  0  0  0  0  0  0  0
    4.1203    3.8058   -0.4405 H   0  0  0  0  0  0  0  0  0  0  0  0
    1.9770    2.5337   -0.1158 H   0  0  0  0  0  0  0  0  0  0  0  0
    2.9581    2.6351    1.3576 H   0  0  0  0  0  0  0  0  0  0  0  0
  1  2  1  0
  1 25  1  0
  1 26  1  0
  1 27  1  0
  2  3  1  0
  2 28  1  0
  2 29  1  0
  3  4  1  0
  3 24  1  0
  4  5  1  0
  4 30  1  0
  4 31  1  0
  5  6  1  0
  5 32  1  0
  5 33  1  0
  6  7  1  0
  6 23  1  0
  7  8  2  0
  7  9  1  0
  9 10  1  0
  9 34  1  0
  9 35  1  0
 10 11  1  0
 10 36  1  0
 10 37  1  0
 11 12  1  0
 11 38  1  0
 11 39  1  0
 12 13  1  0
 13 14  2  0
 13 22  1  0
 14 15  1  0
 14 40  1  0
 15 16  2  0
 15 41  1  0
 16 17  1  0
 16 21  1  0
 17 18  1  6
 17 19  1  0
 17 20  1  0
 18 42  1  0
 18 43  1  0
 18 44  1  0
 19 45  1  0
 19 46  1  0
 19 47  1  0
 20 48  1  0
 20 49  1  0
 20 50  1  0
 21 22  2  0
 21 51  1  0
 22 52  1  0
 23 24  1  0
 23 53  1  0
 23 54  1  0
 24 55  1  0
 24 56  1  0
M  END

