
     RDKit          3D

 53 57  0  0  0  0  0  0  0  0999 V2000
    6.8565   -5.1909   -4.2160 C   0  0  0  0  0  0  0  0  0  0  0  0
    7.0960   -3.9779   -3.3384 C   0  0  0  0  0  0  0  0  0  0  0  0
    5.9759   -3.8409   -2.4749 O   0  0  0  0  0  0  0  0  0  0  0  0
    5.9098   -2.8182   -1.5975 C   0  0  0  0  0  0  0  0  0  0  0  0
    6.8987   -1.8449   -1.4104 C   0  0  0  0  0  0  0  0  0  0  0  0
    6.7472   -0.8173   -0.4626 C   0  0  0  0  0  0  0  0  0  0  0  0
    7.8712    0.1781   -0.2713 C   0  0  1  0  0  0  0  0  0  0  0  0
    7.5123    1.6244    0.0281 C   0  0  0  0  0  0  0  0  0  0  0  0
    6.4333    2.3826   -0.4320 C   0  0  0  0  0  0  0  0  0  0  0  0
    6.3416    3.7319   -0.0675 C   0  0  0  0  0  0  0  0  0  0  0  0
    7.3209    4.3171    0.7446 C   0  0  0  0  0  0  0  0  0  0  0  0
    8.4084    3.5602    1.1987 C   0  0  0  0  0  0  0  0  0  0  0  0
    8.4988    2.2149    0.8365 C   0  0  0  0  0  0  0  0  0  0  0  0
    9.5748    1.2075    1.1700 C   0  0  0  0  0  0  0  0  0  0  0  0
    8.9173   -0.1644    0.8732 C   0  0  1  0  0  0  0  0  0  0  0  0
    8.3505   -0.7639    2.0546 N   0  0  0  0  0  0  0  0  0  0  0  0
    7.6128   -0.1688    3.0665 C   0  0  0  0  0  0  0  0  0  0  0  0
    7.1613   -1.2063    3.8805 C   0  0  0  0  0  0  0  0  0  0  0  0
    6.3795   -1.3989    5.0575 C   0  0  0  0  0  0  0  0  0  0  0  0
    5.8249   -0.3394    5.7557 N   0  0  0  0  0  0  0  0  0  0  0  0
    6.1858   -2.6478    5.5410 N   0  0  0  0  0  0  0  0  0  0  0  0
    6.6733   -3.7285    4.9640 C   0  0  0  0  0  0  0  0  0  0  0  0
    7.4248   -3.5759    3.8648 N   0  0  0  0  0  0  0  0  0  0  0  0
    7.6812   -2.4021    3.2522 C   0  0  0  0  0  0  0  0  0  0  0  0
    8.3743   -2.1433    2.1624 N   0  0  0  0  0  0  0  0  0  0  0  0
    5.5740   -0.7692    0.3000 C   0  0  0  0  0  0  0  0  0  0  0  0
    4.5722   -1.7266    0.1140 C   0  0  0  0  0  0  0  0  0  0  0  0
    4.7334   -2.7372   -0.8238 C   0  0  0  0  0  0  0  0  0  0  0  0
    3.7466   -3.7133   -0.9224 O   0  0  0  0  0  0  0  0  0  0  0  0
    3.0327   -3.9131   -2.0553 C   0  0  1  0  0  0  0  0  0  0  0  0
    3.1758   -2.9238   -2.9438 F   0  0  0  0  0  0  0  0  0  0  0  0
    3.3656   -5.0614   -2.6515 F   0  0  0  0  0  0  0  0  0  0  0  0
    1.7363   -3.9985   -1.7351 F   0  0  0  0  0  0  0  0  0  0  0  0
    7.7002   -5.3321   -4.9090 H   0  0  0  0  0  0  0  0  0  0  0  0
    5.9344   -5.0664   -4.8035 H   0  0  0  0  0  0  0  0  0  0  0  0
    6.7509   -6.0979   -3.6021 H   0  0  0  0  0  0  0  0  0  0  0  0
    7.2109   -3.0629   -3.9495 H   0  0  0  0  0  0  0  0  0  0  0  0
    8.0180   -4.0976   -2.7396 H   0  0  0  0  0  0  0  0  0  0  0  0
    7.8140   -1.8871   -2.0016 H   0  0  0  0  0  0  0  0  0  0  0  0
    8.4669    0.1808   -1.2034 H   0  0  0  0  0  0  0  0  0  0  0  0
    5.6656    1.9292   -1.0640 H   0  0  0  0  0  0  0  0  0  0  0  0
    5.4981    4.3319   -0.4189 H   0  0  0  0  0  0  0  0  0  0  0  0
    7.2361    5.3700    1.0260 H   0  0  0  0  0  0  0  0  0  0  0  0
    9.1744    4.0197    1.8300 H   0  0  0  0  0  0  0  0  0  0  0  0
    9.9544    1.2737    2.2010 H   0  0  0  0  0  0  0  0  0  0  0  0
   10.4427    1.3427    0.5000 H   0  0  0  0  0  0  0  0  0  0  0  0
    9.6408   -0.9043    0.5075 H   0  0  0  0  0  0  0  0  0  0  0  0
    7.5050    0.9085    3.1462 H   0  0  0  0  0  0  0  0  0  0  0  0
    5.5610    0.4648    5.1936 H   0  0  0  0  0  0  0  0  0  0  0  0
    5.1099   -0.6090    6.4243 H   0  0  0  0  0  0  0  0  0  0  0  0
    6.4980   -4.7254    5.3715 H   0  0  0  0  0  0  0  0  0  0  0  0
    5.4360    0.0161    1.0441 H   0  0  0  0  0  0  0  0  0  0  0  0
    3.6514   -1.7062    0.7000 H   0  0  0  0  0  0  0  0  0  0  0  0
  1  2  1  0
  1 34  1  0
  1 35  1  0
  1 36  1  0
  2  3  1  0
  2 37  1  0
  2 38  1  0
  3  4  1  0
  4  5  2  0
  4 28  1  0
  5  6  1  0
  5 39  1  0
  6  7  1  0
  6 26  2  0
  7  8  1  0
  7 15  1  0
  7 40  1  6
  8  9  2  0
  8 13  1  0
  9 10  1  0
  9 41  1  0
 10 11  2  0
 10 42  1  0
 11 12  1  0
 11 43  1  0
 12 13  2  0
 12 44  1  0
 13 14  1  0
 14 15  1  0
 14 45  1  0
 14 46  1  0
 15 16  1  0
 15 47  1  6
 16 17  1  0
 16 25  1  0
 17 18  2  0
 17 48  1  0
 18 19  1  0
 18 24  1  0
 19 20  1  0
 19 21  2  0
 20 49  1  0
 20 50  1  0
 21 22  1  0
 22 23  2  0
 22 51  1  0
 23 24  1  0
 24 25  2  0
 26 27  1  0
 26 52  1  0
 27 28  2  0
 27 53  1  0
 28 29  1  0
 29 30  1  0
 30 31  1  6
 30 32  1  0
 30 33  1  0
M  END

