
     RDKit          3D

 97 99  0  0  0  0  0  0  0  0999 V2000
    5.5856  -26.2794  -11.0224 C   0  0  0  0  0  0  0  0  0  0  0  0
    6.1148  -25.2917  -12.0631 C   0  0  0  0  0  0  0  0  0  0  0  0
    7.2013  -24.3565  -11.5227 C   0  0  0  0  0  0  0  0  0  0  0  0
    7.7399  -23.3677  -12.5606 C   0  0  0  0  0  0  0  0  0  0  0  0
    8.8231  -22.4296  -12.0198 C   0  0  0  0  0  0  0  0  0  0  0  0
    9.3663  -21.4496  -13.0641 C   0  0  0  0  0  0  0  0  0  0  0  0
   10.4431  -20.5044  -12.5236 C   0  0  0  0  0  0  0  0  0  0  0  0
   10.9927  -19.5399  -13.5796 C   0  0  0  0  0  0  0  0  0  0  0  0
   12.0585  -18.5841  -13.0318 C   0  0  0  0  0  0  0  0  0  0  0  0
   12.5982  -17.6622  -14.1082 C   0  0  0  0  0  0  0  0  0  0  0  0
   13.5798  -16.7815  -13.5075 O   0  0  0  0  0  0  0  0  0  0  0  0
   14.2320  -15.8772  -14.2027 C   0  0  0  0  0  0  0  0  0  0  0  0
   14.0692  -15.6569  -15.5999 C   0  0  0  0  0  0  0  0  0  0  0  0
   14.8066  -14.6752  -16.2230 C   0  0  0  0  0  0  0  0  0  0  0  0
   15.7495  -13.8629  -15.5151 C   0  0  0  0  0  0  0  0  0  0  0  0
   16.5244  -12.8328  -16.1968 C   0  0  0  0  0  0  0  0  0  0  0  0
   16.1222  -12.3309  -17.4642 C   0  0  0  0  0  0  0  0  0  0  0  0
   16.8584  -11.3465  -18.1047 C   0  0  0  0  0  0  0  0  0  0  0  0
   18.0276  -10.8386  -17.5163 C   0  0  0  0  0  0  0  0  0  0  0  0
   18.7960   -9.7669  -18.2847 C   0  0  0  0  0  0  0  0  0  0  0  0
   18.4077   -9.3916  -19.3605 O   0  0  0  0  0  0  0  0  0  0  0  0
   19.8576   -9.3686  -17.6096 O   0  0  0  0  0  0  0  0  0  0  0  0
   20.7359   -8.3721  -18.1553 C   0  0  0  0  0  0  0  0  0  0  0  0
   20.3934   -7.0184  -18.0800 C   0  0  0  0  0  0  0  0  0  0  0  0
   21.2880   -6.0687  -18.5519 C   0  0  0  0  0  0  0  0  0  0  0  0
   22.5576   -6.4176  -19.1119 C   0  0  0  0  0  0  0  0  0  0  0  0
   23.4448   -5.4028  -19.5861 C   0  0  0  0  0  0  0  0  0  0  0  0
   24.7126   -5.5987  -20.1466 C   0  0  0  0  0  0  0  0  0  0  0  0
   25.5780   -4.5790  -20.6286 C   0  0  0  0  0  0  0  0  0  0  0  0
   26.6884   -4.7089  -21.1364 O   0  0  0  0  0  0  0  0  0  0  0  0
   25.0369   -3.2765  -20.4522 O   0  0  0  0  0  0  0  0  0  0  0  0
   25.7687   -2.2047  -20.9836 C   0  0  2  0  0  0  0  0  0  0  0  0
   26.6879   -2.5956  -21.4515 H   0  0  0  0  0  0  0  0  0  0  0  0
   26.1108   -1.1834  -19.8959 C   0  0  0  0  0  0  0  0  0  0  0  0
   26.9968   -1.7654  -18.7938 C   0  0  0  0  0  0  0  0  0  0  0  0
   27.3436   -0.7536  -17.6983 C   0  0  0  0  0  0  0  0  0  0  0  0
   28.2293   -1.3247  -16.5878 C   0  0  0  0  0  0  0  0  0  0  0  0
   28.5679   -0.3205  -15.4817 C   0  0  0  0  0  0  0  0  0  0  0  0
   29.4582   -0.8966  -14.3795 C   0  0  0  0  0  0  0  0  0  0  0  0
   24.9456   -1.5792  -22.1063 C   0  0  1  0  0  0  0  0  0  0  0  0
   24.6288   -2.4735  -23.0519 F   0  0  0  0  0  0  0  0  0  0  0  0
   23.7944   -1.0341  -21.6671 F   0  0  0  0  0  0  0  0  0  0  0  0
   25.6400   -0.5858  -22.7122 F   0  0  0  0  0  0  0  0  0  0  0  0
   22.8548   -7.8191  -19.1547 C   0  0  0  0  0  0  0  0  0  0  0  0
   21.9603   -8.7744  -18.6855 C   0  0  0  0  0  0  0  0  0  0  0  0
   18.4479  -11.3241  -16.2678 C   0  0  0  0  0  0  0  0  0  0  0  0
   17.7054  -12.2991  -15.6149 C   0  0  0  0  0  0  0  0  0  0  0  0
   15.8958  -14.1094  -14.1124 C   0  0  0  0  0  0  0  0  0  0  0  0
   15.1627  -15.0767  -13.4726 C   0  0  0  0  0  0  0  0  0  0  0  0
    4.8059  -26.9333  -11.4443 H   0  0  0  0  0  0  0  0  0  0  0  0
    5.1467  -25.7539  -10.1577 H   0  0  0  0  0  0  0  0  0  0  0  0
    6.3913  -26.9275  -10.6386 H   0  0  0  0  0  0  0  0  0  0  0  0
    5.2782  -24.6858  -12.4565 H   0  0  0  0  0  0  0  0  0  0  0  0
    6.5145  -25.8479  -12.9307 H   0  0  0  0  0  0  0  0  0  0  0  0
    8.0383  -24.9613  -11.1261 H   0  0  0  0  0  0  0  0  0  0  0  0
    6.8019  -23.7960  -10.6568 H   0  0  0  0  0  0  0  0  0  0  0  0
    6.9027  -22.7653  -12.9597 H   0  0  0  0  0  0  0  0  0  0  0  0
    8.1422  -23.9289  -13.4245 H   0  0  0  0  0  0  0  0  0  0  0  0
    9.6585  -23.0304  -11.6149 H   0  0  0  0  0  0  0  0  0  0  0  0
    8.4196  -21.8615  -11.1612 H   0  0  0  0  0  0  0  0  0  0  0  0
    8.5307  -20.8529  -13.4746 H   0  0  0  0  0  0  0  0  0  0  0  0
    9.7763  -22.0184  -13.9193 H   0  0  0  0  0  0  0  0  0  0  0  0
   11.2764  -21.0972  -12.1042 H   0  0  0  0  0  0  0  0  0  0  0  0
   10.0317  -19.9232  -11.6782 H   0  0  0  0  0  0  0  0  0  0  0  0
   10.1583  -18.9544  -14.0076 H   0  0  0  0  0  0  0  0  0  0  0  0
   11.4151  -20.1229  -14.4186 H   0  0  0  0  0  0  0  0  0  0  0  0
   12.8975  -19.1548  -12.5995 H   0  0  0  0  0  0  0  0  0  0  0  0
   11.6386  -17.9715  -12.2165 H   0  0  0  0  0  0  0  0  0  0  0  0
   11.8006  -17.0409  -14.5479 H   0  0  0  0  0  0  0  0  0  0  0  0
   13.0887  -18.2289  -14.9168 H   0  0  0  0  0  0  0  0  0  0  0  0
   13.3749  -16.2615  -16.1809 H   0  0  0  0  0  0  0  0  0  0  0  0
   14.6827  -14.5391  -17.2962 H   0  0  0  0  0  0  0  0  0  0  0  0
   15.2068  -12.6894  -17.9355 H   0  0  0  0  0  0  0  0  0  0  0  0
   16.5539  -10.9419  -19.0710 H   0  0  0  0  0  0  0  0  0  0  0  0
   19.4337   -6.7153  -17.6553 H   0  0  0  0  0  0  0  0  0  0  0  0
   21.0182   -5.0106  -18.4964 H   0  0  0  0  0  0  0  0  0  0  0  0
   23.0901   -4.3732  -19.5075 H   0  0  0  0  0  0  0  0  0  0  0  0
   25.1306   -6.6005  -20.2605 H   0  0  0  0  0  0  0  0  0  0  0  0
   25.1686   -0.8077  -19.4608 H   0  0  0  0  0  0  0  0  0  0  0  0
   26.6106   -0.3206  -20.3686 H   0  0  0  0  0  0  0  0  0  0  0  0
   27.9249   -2.1643  -19.2411 H   0  0  0  0  0  0  0  0  0  0  0  0
   26.4822   -2.6322  -18.3472 H   0  0  0  0  0  0  0  0  0  0  0  0
   26.4087   -0.3632  -17.2538 H   0  0  0  0  0  0  0  0  0  0  0  0
   27.8463    0.1228  -18.1500 H   0  0  0  0  0  0  0  0  0  0  0  0
   29.1673   -1.7085  -17.0310 H   0  0  0  0  0  0  0  0  0  0  0  0
   27.7306   -2.2050  -16.1413 H   0  0  0  0  0  0  0  0  0  0  0  0
   27.6295    0.0585  -15.0364 H   0  0  0  0  0  0  0  0  0  0  0  0
   29.0616    0.5614  -15.9302 H   0  0  0  0  0  0  0  0  0  0  0  0
   28.9780   -1.7589  -13.8866 H   0  0  0  0  0  0  0  0  0  0  0  0
   29.6787   -0.1485  -13.6005 H   0  0  0  0  0  0  0  0  0  0  0  0
   30.4219   -1.2480  -14.7857 H   0  0  0  0  0  0  0  0  0  0  0  0
   23.8085   -8.1503  -19.5679 H   0  0  0  0  0  0  0  0  0  0  0  0
   22.2125   -9.8370  -18.7263 H   0  0  0  0  0  0  0  0  0  0  0  0
   19.3615  -10.9280  -15.8258 H   0  0  0  0  0  0  0  0  0  0  0  0
   18.0655  -12.6748  -14.6568 H   0  0  0  0  0  0  0  0  0  0  0  0
   16.5818  -13.4999  -13.5264 H   0  0  0  0  0  0  0  0  0  0  0  0
   15.2608  -15.2567  -12.4014 H   0  0  0  0  0  0  0  0  0  0  0  0
  1  2  1  0
  1 50  1  0
  1 51  1  0
  1 52  1  0
  2  3  1  0
  2 53  1  0
  2 54  1  0
  3  4  1  0
  3 55  1  0
  3 56  1  0
  4  5  1  0
  4 57  1  0
  4 58  1  0
  5  6  1  0
  5 59  1  0
  5 60  1  0
  6  7  1  0
  6 61  1  0
  6 62  1  0
  7  8  1  0
  7 63  1  0
  7 64  1  0
  8  9  1  0
  8 65  1  0
  8 66  1  0
  9 10  1  0
  9 67  1  0
  9 68  1  0
 10 11  1  0
 10 69  1  0
 10 70  1  0
 11 12  1  0
 12 13  2  0
 12 49  1  0
 13 14  1  0
 13 71  1  0
 14 15  2  0
 14 72  1  0
 15 16  1  0
 15 48  1  0
 16 17  2  0
 16 47  1  0
 17 18  1  0
 17 73  1  0
 18 19  2  0
 18 74  1  0
 19 20  1  0
 19 46  1  0
 20 21  2  0
 20 22  1  0
 22 23  1  0
 23 24  2  0
 23 45  1  0
 24 25  1  0
 24 75  1  0
 25 26  2  0
 25 76  1  0
 26 27  1  0
 26 44  1  0
 27 28  2  0
 27 77  1  0
 28 29  1  0
 28 78  1  0
 29 30  2  0
 29 31  1  0
 31 32  1  0
 32 33  1  6
 32 34  1  0
 32 40  1  0
 34 35  1  0
 34 79  1  0
 34 80  1  0
 35 36  1  0
 35 81  1  0
 35 82  1  0
 36 37  1  0
 36 83  1  0
 36 84  1  0
 37 38  1  0
 37 85  1  0
 37 86  1  0
 38 39  1  0
 38 87  1  0
 38 88  1  0
 39 89  1  0
 39 90  1  0
 39 91  1  0
 40 41  1  6
 40 42  1  0
 40 43  1  0
 44 45  2  0
 44 92  1  0
 45 93  1  0
 46 47  2  0
 46 94  1  0
 47 95  1  0
 48 49  2  0
 48 96  1  0
 49 97  1  0
M  END

