
     RDKit          3D

 49 51  0  0  0  0  0  0  0  0999 V2000
    6.5013    1.5738   -2.1033 C   0  0  0  0  0  0  0  0  0  0  0  0
    6.1321    1.0642   -0.8376 O   0  0  0  0  0  0  0  0  0  0  0  0
    5.3985    1.8261    0.0070 C   0  0  0  0  0  0  0  0  0  0  0  0
    5.2130    3.2085   -0.1480 C   0  0  0  0  0  0  0  0  0  0  0  0
    4.5139    3.9313    0.8224 C   0  0  0  0  0  0  0  0  0  0  0  0
    4.0052    3.2976    1.9589 C   0  0  0  0  0  0  0  0  0  0  0  0
    4.1850    1.9223    2.1078 C   0  0  0  0  0  0  0  0  0  0  0  0
    4.8424    1.1653    1.1272 C   0  0  0  0  0  0  0  0  0  0  0  0
    4.9637   -0.3122    1.3536 C   0  0  0  0  0  0  0  0  0  0  0  0
    5.2419   -0.7410    2.4600 O   0  0  0  0  0  0  0  0  0  0  0  0
    4.6528   -1.2810    0.2357 C   0  0  0  0  0  0  0  0  0  0  0  0
    4.0597   -0.8200   -0.9805 C   0  0  0  0  0  0  0  0  0  0  0  0
    3.5886   -0.4543   -1.9792 N   0  0  0  0  0  0  0  0  0  0  0  0
    4.9801   -2.5945    0.4411 C   0  0  0  0  0  0  0  0  0  0  0  0
    4.7569   -3.7676   -0.3620 C   0  0  0  0  0  0  0  0  0  0  0  0
    5.6355   -4.9066   -0.3746 C   0  0  0  0  0  0  0  0  0  0  0  0
    6.9209   -5.0829    0.3707 C   0  0  0  0  0  0  0  0  0  0  0  0
    5.1836   -5.8412   -1.1909 N   0  0  0  0  0  0  0  0  0  0  0  0
    4.0105   -5.3675   -1.6837 N   0  0  0  0  0  0  0  0  0  0  0  0
    3.2630   -6.1957   -2.6112 C   0  0  0  0  0  0  0  0  0  0  0  0
    3.5233   -5.8903   -4.0768 C   0  0  0  0  0  0  0  0  0  0  0  0
    4.6727   -5.2024   -4.4924 C   0  0  0  0  0  0  0  0  0  0  0  0
    4.9135   -4.9402   -5.8427 C   0  0  0  0  0  0  0  0  0  0  0  0
    4.0028   -5.3694   -6.8111 C   0  0  0  0  0  0  0  0  0  0  0  0
    2.8551   -6.0644   -6.4258 C   0  0  0  0  0  0  0  0  0  0  0  0
    2.6275   -6.3196   -5.0712 C   0  0  0  0  0  0  0  0  0  0  0  0
    1.1801   -7.2108   -4.6237 Cl  0  0  0  0  0  0  0  0  0  0  0  0
    3.7006   -4.1266   -1.2243 C   0  0  0  0  0  0  0  0  0  0  0  0
    2.4137   -3.4423   -1.5467 C   0  0  0  0  0  0  0  0  0  0  0  0
    6.9999    0.7522   -2.6337 H   0  0  0  0  0  0  0  0  0  0  0  0
    7.2056    2.4194   -2.0121 H   0  0  0  0  0  0  0  0  0  0  0  0
    5.6163    1.8893   -2.6812 H   0  0  0  0  0  0  0  0  0  0  0  0
    5.6253    3.7278   -1.0130 H   0  0  0  0  0  0  0  0  0  0  0  0
    4.3775    5.0076    0.6879 H   0  0  0  0  0  0  0  0  0  0  0  0
    3.4713    3.8696    2.7207 H   0  0  0  0  0  0  0  0  0  0  0  0
    3.8005    1.4005    2.9868 H   0  0  0  0  0  0  0  0  0  0  0  0
    5.5377   -2.7541    1.3716 H   0  0  0  0  0  0  0  0  0  0  0  0
    7.6748   -4.3406    0.0616 H   0  0  0  0  0  0  0  0  0  0  0  0
    7.3227   -6.0874    0.1804 H   0  0  0  0  0  0  0  0  0  0  0  0
    6.7759   -4.9650    1.4574 H   0  0  0  0  0  0  0  0  0  0  0  0
    2.1893   -6.1021   -2.3979 H   0  0  0  0  0  0  0  0  0  0  0  0
    3.5422   -7.2361   -2.3851 H   0  0  0  0  0  0  0  0  0  0  0  0
    5.3918   -4.8753   -3.7393 H   0  0  0  0  0  0  0  0  0  0  0  0
    5.8164   -4.4003   -6.1369 H   0  0  0  0  0  0  0  0  0  0  0  0
    4.1818   -5.1667   -7.8697 H   0  0  0  0  0  0  0  0  0  0  0  0
    2.1307   -6.4114   -7.1644 H   0  0  0  0  0  0  0  0  0  0  0  0
    1.6046   -4.1691   -1.7112 H   0  0  0  0  0  0  0  0  0  0  0  0
    2.4968   -2.8078   -2.4433 H   0  0  0  0  0  0  0  0  0  0  0  0
    2.1179   -2.7831   -0.7201 H   0  0  0  0  0  0  0  0  0  0  0  0
  1  2  1  0
  1 30  1  0
  1 31  1  0
  1 32  1  0
  2  3  1  0
  3  4  2  0
  3  8  1  0
  4  5  1  0
  4 33  1  0
  5  6  2  0
  5 34  1  0
  6  7  1  0
  6 35  1  0
  7  8  2  0
  7 36  1  0
  8  9  1  0
  9 10  2  0
  9 11  1  0
 11 12  1  0
 11 14  2  0
 12 13  3  0
 14 15  1  0
 14 37  1  0
 15 16  1  0
 15 28  2  0
 16 17  1  0
 16 18  2  0
 17 38  1  0
 17 39  1  0
 17 40  1  0
 18 19  1  0
 19 20  1  0
 19 28  1  0
 20 21  1  0
 20 41  1  0
 20 42  1  0
 21 22  2  0
 21 26  1  0
 22 23  1  0
 22 43  1  0
 23 24  2  0
 23 44  1  0
 24 25  1  0
 24 45  1  0
 25 26  2  0
 25 46  1  0
 26 27  1  0
 28 29  1  0
 29 47  1  0
 29 48  1  0
 29 49  1  0
M  END

