
     RDKit          3D

 68 70  0  0  0  0  0  0  0  0999 V2000
    2.5437   -2.8720   -2.2891 C   0  0  0  0  0  0  0  0  0  0  0  0
    2.9562   -2.6491   -1.0242 C   0  0  0  0  0  0  0  0  0  0  0  0
    3.0629   -1.3553   -0.5001 N   0  0  0  0  0  0  0  0  0  0  0  0
    3.8201   -0.9370    0.5945 C   0  0  0  0  0  0  0  0  0  0  0  0
    3.9285    0.2449    0.8675 O   0  0  0  0  0  0  0  0  0  0  0  0
    4.4228   -2.0505    1.3255 C   0  0  0  0  0  0  0  0  0  0  0  0
    4.1471   -3.3243    0.9663 C   0  0  0  0  0  0  0  0  0  0  0  0
    3.3089   -3.6608   -0.0866 N   0  0  0  0  0  0  0  0  0  0  0  0
    3.2057   -5.0431   -0.4918 C   0  0  2  0  0  0  0  0  0  0  0  0
    3.8958   -5.2206   -1.3415 H   0  0  0  0  0  0  0  0  0  0  0  0
    1.8725   -5.3360   -0.9273 O   0  0  0  0  0  0  0  0  0  0  0  0
    1.8085   -6.6936   -1.1740 C   0  0  2  0  0  0  0  0  0  0  0  0
    2.2006   -6.9206   -2.5082 F   0  0  0  0  0  0  0  0  0  0  0  0
    0.4084   -7.2378   -0.9947 C   0  0  0  0  0  0  0  0  0  0  0  0
   -0.4941   -6.5153   -1.8175 O   0  0  0  0  0  0  0  0  0  0  0  0
   -2.0003   -7.1073   -2.0351 P   0  0  1  0  0  0  0  0  0  0  0  0
   -2.0567   -8.5845   -2.1582 O   0  0  0  0  0  0  0  0  0  0  0  0
   -2.9936   -6.5076   -0.8532 N   0  0  0  0  0  0  0  0  0  0  0  0
   -3.0585   -5.1272   -0.4126 C   0  0  1  0  0  0  0  0  0  0  0  0
   -2.7484   -4.4885   -1.2553 H   0  0  0  0  0  0  0  0  0  0  0  0
   -4.4910   -4.7398   -0.0200 C   0  0  0  0  0  0  0  0  0  0  0  0
   -2.0618   -4.8415    0.7243 C   0  0  0  0  0  0  0  0  0  0  0  0
   -1.3429   -5.6718    1.2330 O   0  0  0  0  0  0  0  0  0  0  0  0
   -2.1079   -3.5542    1.0733 O   0  0  0  0  0  0  0  0  0  0  0  0
   -1.2111   -3.0608    2.1124 C   0  0  1  0  0  0  0  0  0  0  0  0
    0.0381   -2.4989    1.4491 C   0  0  0  0  0  0  0  0  0  0  0  0
   -1.9969   -2.0370    2.9158 C   0  0  0  0  0  0  0  0  0  0  0  0
   -2.4370   -6.1816   -3.2956 O   0  0  0  0  0  0  0  0  0  0  0  0
   -1.8200   -6.2047   -4.5405 C   0  0  0  0  0  0  0  0  0  0  0  0
   -1.6099   -4.9776   -5.1735 C   0  0  0  0  0  0  0  0  0  0  0  0
   -1.0375   -4.9540   -6.4474 C   0  0  0  0  0  0  0  0  0  0  0  0
   -0.6729   -6.1466   -7.0806 C   0  0  0  0  0  0  0  0  0  0  0  0
   -0.8887   -7.3667   -6.4329 C   0  0  0  0  0  0  0  0  0  0  0  0
   -1.4676   -7.4074   -5.1613 C   0  0  0  0  0  0  0  0  0  0  0  0
    2.8793   -7.3689   -0.2587 C   0  0  1  0  0  0  0  0  0  0  0  0
    2.4211   -8.1221    0.4034 H   0  0  0  0  0  0  0  0  0  0  0  0
    3.9261   -7.9653   -0.9840 O   0  0  0  0  0  0  0  0  0  0  0  0
    3.4387   -6.1651    0.5682 C   0  0  2  0  0  0  0  0  0  0  0  0
    2.6272   -5.9920    1.8531 C   0  0  0  0  0  0  0  0  0  0  0  0
    4.7881   -6.3577    0.8878 O   0  0  0  0  0  0  0  0  0  0  0  0
    2.3240   -2.0140   -2.9259 H   0  0  0  0  0  0  0  0  0  0  0  0
    2.3450   -3.8644   -2.6800 H   0  0  0  0  0  0  0  0  0  0  0  0
    2.7027   -0.6000   -1.0743 H   0  0  0  0  0  0  0  0  0  0  0  0
    5.0826   -1.8263    2.1617 H   0  0  0  0  0  0  0  0  0  0  0  0
    4.6083   -4.1676    1.4769 H   0  0  0  0  0  0  0  0  0  0  0  0
    0.1201   -7.1353    0.0638 H   0  0  0  0  0  0  0  0  0  0  0  0
    0.4074   -8.3052   -1.2694 H   0  0  0  0  0  0  0  0  0  0  0  0
   -3.2957   -7.2111   -0.1852 H   0  0  0  0  0  0  0  0  0  0  0  0
   -5.1639   -4.9103   -0.8724 H   0  0  0  0  0  0  0  0  0  0  0  0
   -4.5413   -3.6837    0.2764 H   0  0  0  0  0  0  0  0  0  0  0  0
   -4.8437   -5.3530    0.8258 H   0  0  0  0  0  0  0  0  0  0  0  0
   -0.9447   -3.9216    2.7436 H   0  0  0  0  0  0  0  0  0  0  0  0
   -0.2171   -1.6559    0.7880 H   0  0  0  0  0  0  0  0  0  0  0  0
    0.5484   -3.2670    0.8507 H   0  0  0  0  0  0  0  0  0  0  0  0
    0.7425   -2.1342    2.2128 H   0  0  0  0  0  0  0  0  0  0  0  0
   -2.3132   -1.1965    2.2779 H   0  0  0  0  0  0  0  0  0  0  0  0
   -1.3712   -1.6355    3.7278 H   0  0  0  0  0  0  0  0  0  0  0  0
   -2.8940   -2.4904    3.3641 H   0  0  0  0  0  0  0  0  0  0  0  0
   -1.8981   -4.0579   -4.6608 H   0  0  0  0  0  0  0  0  0  0  0  0
   -0.8735   -3.9952   -6.9458 H   0  0  0  0  0  0  0  0  0  0  0  0
   -0.2238   -6.1247   -8.0763 H   0  0  0  0  0  0  0  0  0  0  0  0
   -0.6098   -8.3035   -6.9221 H   0  0  0  0  0  0  0  0  0  0  0  0
   -1.6503   -8.3528   -4.6478 H   0  0  0  0  0  0  0  0  0  0  0  0
    3.7298   -7.8625   -1.9294 H   0  0  0  0  0  0  0  0  0  0  0  0
    1.5573   -5.8476    1.6458 H   0  0  0  0  0  0  0  0  0  0  0  0
    2.9765   -5.1406    2.4511 H   0  0  0  0  0  0  0  0  0  0  0  0
    2.7529   -6.8986    2.4632 H   0  0  0  0  0  0  0  0  0  0  0  0
    5.1527   -6.9295    0.1879 H   0  0  0  0  0  0  0  0  0  0  0  0
  1  2  2  0
  1 41  1  0
  1 42  1  0
  2  3  1  0
  2  8  1  0
  3  4  1  0
  3 43  1  0
  4  5  2  0
  4  6  1  0
  6  7  2  0
  6 44  1  0
  7  8  1  0
  7 45  1  0
  8  9  1  0
  9 10  1  6
  9 11  1  0
  9 38  1  0
 11 12  1  0
 12 13  1  6
 12 14  1  0
 12 35  1  0
 14 15  1  0
 14 46  1  0
 14 47  1  0
 16 15  1  1
 16 17  2  0
 16 18  1  0
 16 28  1  0
 18 19  1  0
 18 48  1  0
 19 20  1  6
 19 21  1  0
 19 22  1  0
 21 49  1  0
 21 50  1  0
 21 51  1  0
 22 23  2  0
 22 24  1  0
 24 25  1  0
 25 26  1  0
 25 27  1  0
 25 52  1  1
 26 53  1  0
 26 54  1  0
 26 55  1  0
 27 56  1  0
 27 57  1  0
 27 58  1  0
 28 29  1  0
 29 30  2  0
 29 34  1  0
 30 31  1  0
 30 59  1  0
 31 32  2  0
 31 60  1  0
 32 33  1  0
 32 61  1  0
 33 34  2  0
 33 62  1  0
 34 63  1  0
 35 36  1  1
 35 37  1  0
 35 38  1  0
 37 64  1  0
 38 39  1  0
 38 40  1  1
 39 65  1  0
 39 66  1  0
 39 67  1  0
 40 68  1  0
M  END

