
     RDKit          3D

 69 73  0  0  0  0  0  0  0  0999 V2000
    1.1419   -0.0563    0.6063 F   0  0  0  0  0  0  0  0  0  0  0  0
    2.4130   -0.0519    0.1739 C   0  0  0  0  0  0  0  0  0  0  0  0
    3.3589    0.7242    0.8364 C   0  0  0  0  0  0  0  0  0  0  0  0
    4.6826    0.7201    0.3887 C   0  0  0  0  0  0  0  0  0  0  0  0
    5.0638   -0.0406   -0.7325 C   0  0  0  0  0  0  0  0  0  0  0  0
    6.3871   -0.0379   -1.2163 N   0  0  0  0  0  0  0  0  0  0  0  0
    7.1900   -1.1970   -1.3176 C   0  0  0  0  0  0  0  0  0  0  0  0
    6.8460   -2.5381   -1.1302 C   0  0  0  0  0  0  0  0  0  0  0  0
    7.8465   -3.5151   -1.2536 C   0  0  0  0  0  0  0  0  0  0  0  0
    9.1525   -3.1434   -1.5542 C   0  0  0  0  0  0  0  0  0  0  0  0
   10.0999   -4.0937   -1.6634 F   0  0  0  0  0  0  0  0  0  0  0  0
    9.5139   -1.8047   -1.7454 C   0  0  0  0  0  0  0  0  0  0  0  0
    8.5259   -0.8380   -1.6179 C   0  0  0  0  0  0  0  0  0  0  0  0
    8.5367    0.6527   -1.8403 C   0  0  2  0  0  0  0  0  0  0  0  0
    8.2894    0.8207   -2.9072 H   0  0  0  0  0  0  0  0  0  0  0  0
    9.7213    1.5564   -1.5316 C   0  0  0  0  0  0  0  0  0  0  0  0
    9.3512    2.9281   -1.8828 N   0  0  0  0  0  0  0  0  0  0  0  0
   10.4537    3.8797   -1.8007 C   0  0  0  0  0  0  0  0  0  0  0  0
   11.5293    3.6887   -2.8738 C   0  0  0  0  0  0  0  0  0  0  0  0
   12.5880    4.7962   -2.8652 C   0  0  0  0  0  0  0  0  0  0  0  0
   13.6606    4.6242   -3.9438 C   0  0  0  0  0  0  0  0  0  0  0  0
   14.7179    5.7310   -3.9480 C   0  0  0  0  0  0  0  0  0  0  0  0
   15.7321    5.6193   -5.0955 C   0  0  0  0  0  0  0  0  0  0  0  0
   15.1167    5.7170   -6.4163 N   0  0  0  0  0  0  0  0  0  0  0  0
   14.7505    7.0652   -6.8469 C   0  0  0  0  0  0  0  0  0  0  0  0
   15.9259    7.8438   -7.4551 C   0  0  0  0  0  0  0  0  0  0  0  0
   16.4960    7.0672   -8.5505 N   0  0  0  0  0  0  0  0  0  0  0  0
   16.9605    5.7564   -8.1108 C   0  0  0  0  0  0  0  0  0  0  0  0
   15.7774    4.9934   -7.4988 C   0  0  0  0  0  0  0  0  0  0  0  0
    8.1447    3.4015   -1.2062 C   0  0  0  0  0  0  0  0  0  0  0  0
    6.9191    2.4986   -1.4404 C   0  0  0  0  0  0  0  0  0  0  0  0
    7.3124    1.0896   -1.0243 C   0  0  1  0  0  0  0  0  0  0  0  0
    7.6209    1.1211    0.0455 H   0  0  0  0  0  0  0  0  0  0  0  0
    4.0781   -0.8023   -1.3912 C   0  0  0  0  0  0  0  0  0  0  0  0
    2.7605   -0.8209   -0.9356 C   0  0  0  0  0  0  0  0  0  0  0  0
    3.0557    1.3141    1.7037 H   0  0  0  0  0  0  0  0  0  0  0  0
    5.4255    1.3088    0.9286 H   0  0  0  0  0  0  0  0  0  0  0  0
    5.8279   -2.8346   -0.8762 H   0  0  0  0  0  0  0  0  0  0  0  0
    7.6180   -4.5725   -1.1059 H   0  0  0  0  0  0  0  0  0  0  0  0
   10.5497   -1.5548   -1.9845 H   0  0  0  0  0  0  0  0  0  0  0  0
   10.5959    1.2580   -2.1284 H   0  0  0  0  0  0  0  0  0  0  0  0
   10.0117    1.4592   -0.4585 H   0  0  0  0  0  0  0  0  0  0  0  0
   10.9286    3.8708   -0.7905 H   0  0  0  0  0  0  0  0  0  0  0  0
   10.0256    4.8891   -1.9213 H   0  0  0  0  0  0  0  0  0  0  0  0
   11.0315    3.6503   -3.8584 H   0  0  0  0  0  0  0  0  0  0  0  0
   12.0338    2.7154   -2.7453 H   0  0  0  0  0  0  0  0  0  0  0  0
   13.0683    4.8395   -1.8694 H   0  0  0  0  0  0  0  0  0  0  0  0
   12.0924    5.7759   -3.0000 H   0  0  0  0  0  0  0  0  0  0  0  0
   13.1876    4.5886   -4.9395 H   0  0  0  0  0  0  0  0  0  0  0  0
   14.1598    3.6458   -3.8111 H   0  0  0  0  0  0  0  0  0  0  0  0
   15.2770    5.7246   -2.9945 H   0  0  0  0  0  0  0  0  0  0  0  0
   14.2184    6.7161   -3.9892 H   0  0  0  0  0  0  0  0  0  0  0  0
   16.2225    4.6331   -5.0321 H   0  0  0  0  0  0  0  0  0  0  0  0
   16.5381    6.3676   -4.9320 H   0  0  0  0  0  0  0  0  0  0  0  0
   14.3229    7.6216   -5.9986 H   0  0  0  0  0  0  0  0  0  0  0  0
   13.9606    6.9831   -7.6151 H   0  0  0  0  0  0  0  0  0  0  0  0
   16.6695    8.0723   -6.6561 H   0  0  0  0  0  0  0  0  0  0  0  0
   15.5655    8.8112   -7.8434 H   0  0  0  0  0  0  0  0  0  0  0  0
   17.2450    7.5827   -9.0075 H   0  0  0  0  0  0  0  0  0  0  0  0
   17.7854    5.8167   -7.3622 H   0  0  0  0  0  0  0  0  0  0  0  0
   17.3522    5.1991   -8.9786 H   0  0  0  0  0  0  0  0  0  0  0  0
   16.1031    4.0074   -7.1307 H   0  0  0  0  0  0  0  0  0  0  0  0
   15.0366    4.8202   -8.3009 H   0  0  0  0  0  0  0  0  0  0  0  0
    7.9232    4.4153   -1.5754 H   0  0  0  0  0  0  0  0  0  0  0  0
    8.3058    3.4988   -0.1051 H   0  0  0  0  0  0  0  0  0  0  0  0
    6.6325    2.5108   -2.5044 H   0  0  0  0  0  0  0  0  0  0  0  0
    6.0687    2.8887   -0.8597 H   0  0  0  0  0  0  0  0  0  0  0  0
    4.3512   -1.3711   -2.2818 H   0  0  0  0  0  0  0  0  0  0  0  0
    1.9926   -1.4088   -1.4424 H   0  0  0  0  0  0  0  0  0  0  0  0
  1  2  1  0
  2  3  2  0
  2 35  1  0
  3  4  1  0
  3 36  1  0
  4  5  2  0
  4 37  1  0
  5  6  1  0
  5 34  1  0
  6  7  1  0
  6 32  1  0
  7  8  2  0
  7 13  1  0
  8  9  1  0
  8 38  1  0
  9 10  2  0
  9 39  1  0
 10 11  1  0
 10 12  1  0
 12 13  2  0
 12 40  1  0
 13 14  1  0
 14 15  1  6
 14 16  1  0
 14 32  1  0
 16 17  1  0
 16 41  1  0
 16 42  1  0
 17 18  1  0
 17 30  1  0
 18 19  1  0
 18 43  1  0
 18 44  1  0
 19 20  1  0
 19 45  1  0
 19 46  1  0
 20 21  1  0
 20 47  1  0
 20 48  1  0
 21 22  1  0
 21 49  1  0
 21 50  1  0
 22 23  1  0
 22 51  1  0
 22 52  1  0
 23 24  1  0
 23 53  1  0
 23 54  1  0
 24 25  1  0
 24 29  1  0
 25 26  1  0
 25 55  1  0
 25 56  1  0
 26 27  1  0
 26 57  1  0
 26 58  1  0
 27 28  1  0
 27 59  1  0
 28 29  1  0
 28 60  1  0
 28 61  1  0
 29 62  1  0
 29 63  1  0
 30 31  1  0
 30 64  1  0
 30 65  1  0
 31 32  1  0
 31 66  1  0
 31 67  1  0
 32 33  1  1
 34 35  2  0
 34 68  1  0
 35 69  1  0
M  END

