
     RDKit          3D

 57 61  0  0  0  0  0  0  0  0999 V2000
    2.6207    0.3368    4.0255 C   0  0  0  0  0  0  0  0  0  0  0  0
    2.5948   -0.4220    2.7199 C   0  0  0  0  0  0  0  0  0  0  0  0
    1.9708    0.1031    1.5804 C   0  0  0  0  0  0  0  0  0  0  0  0
    1.9610   -0.6130    0.3778 C   0  0  0  0  0  0  0  0  0  0  0  0
    2.5674   -1.8658    0.2952 C   0  0  0  0  0  0  0  0  0  0  0  0
    3.1989   -2.4116    1.4241 C   0  0  0  0  0  0  0  0  0  0  0  0
    3.8145   -3.7869    1.3596 C   0  0  0  0  0  0  0  0  0  0  0  0
    4.4668   -3.9599    0.1028 O   0  0  0  0  0  0  0  0  0  0  0  0
    4.9057   -5.2172   -0.2010 C   0  0  0  0  0  0  0  0  0  0  0  0
    6.3151   -5.4543   -0.2989 C   0  0  0  0  0  0  0  0  0  0  0  0
    6.7532   -6.7007   -0.7277 C   0  0  0  0  0  0  0  0  0  0  0  0
    5.8530   -7.7134   -1.0336 C   0  0  0  0  0  0  0  0  0  0  0  0
    4.4782   -7.4738   -0.9099 N   0  0  0  0  0  0  0  0  0  0  0  0
    3.5700   -8.5712   -1.1471 C   0  0  0  0  0  0  0  0  0  0  0  0
    4.0606   -9.6616   -1.4185 O   0  0  0  0  0  0  0  0  0  0  0  0
    2.1461   -8.2891   -1.0403 C   0  0  0  0  0  0  0  0  0  0  0  0
    1.2147   -9.3645   -1.2862 C   0  0  0  0  0  0  0  0  0  0  0  0
    1.4748  -10.6883   -1.7964 C   0  0  0  0  0  0  0  0  0  0  0  0
    0.2620  -11.3258   -1.8458 C   0  0  0  0  0  0  0  0  0  0  0  0
   -0.0901  -12.6941   -2.3313 C   0  0  0  0  0  0  0  0  0  0  0  0
   -0.6672  -10.3988   -1.3752 N   0  0  0  0  0  0  0  0  0  0  0  0
   -2.0690  -10.5462   -1.2730 C   0  0  0  0  0  0  0  0  0  0  0  0
   -2.6316  -11.6425   -0.6020 C   0  0  0  0  0  0  0  0  0  0  0  0
   -4.0153  -11.7581   -0.5173 C   0  0  0  0  0  0  0  0  0  0  0  0
   -4.5365  -12.8086    0.1284 F   0  0  0  0  0  0  0  0  0  0  0  0
   -4.8677  -10.8035   -1.0691 C   0  0  0  0  0  0  0  0  0  0  0  0
   -4.3095   -9.7074   -1.7313 C   0  0  0  0  0  0  0  0  0  0  0  0
   -2.9275   -9.5827   -1.8374 C   0  0  0  0  0  0  0  0  0  0  0  0
   -2.4214   -8.5486   -2.5096 F   0  0  0  0  0  0  0  0  0  0  0  0
   -0.1082   -9.2316   -1.0422 N   0  0  0  0  0  0  0  0  0  0  0  0
    1.7605   -6.9261   -0.7445 C   0  0  0  0  0  0  0  0  0  0  0  0
    0.3259   -6.4745   -0.6970 C   0  0  0  0  0  0  0  0  0  0  0  0
    2.6471   -5.9841   -0.5220 N   0  0  0  0  0  0  0  0  0  0  0  0
    3.9948   -6.2309   -0.5365 C   0  0  0  0  0  0  0  0  0  0  0  0
    3.2098   -1.6814    2.6173 C   0  0  0  0  0  0  0  0  0  0  0  0
    2.1373    1.3206    3.9315 H   0  0  0  0  0  0  0  0  0  0  0  0
    3.6539    0.5017    4.3745 H   0  0  0  0  0  0  0  0  0  0  0  0
    2.0982   -0.2182    4.8231 H   0  0  0  0  0  0  0  0  0  0  0  0
    1.4914    1.0851    1.6326 H   0  0  0  0  0  0  0  0  0  0  0  0
    1.4735   -0.1856   -0.5029 H   0  0  0  0  0  0  0  0  0  0  0  0
    2.5688   -2.4311   -0.6385 H   0  0  0  0  0  0  0  0  0  0  0  0
    3.0243   -4.5524    1.4667 H   0  0  0  0  0  0  0  0  0  0  0  0
    4.5387   -3.9275    2.1843 H   0  0  0  0  0  0  0  0  0  0  0  0
    7.0019   -4.6407   -0.0649 H   0  0  0  0  0  0  0  0  0  0  0  0
    7.8197   -6.9117   -0.8345 H   0  0  0  0  0  0  0  0  0  0  0  0
    6.1177   -8.7110   -1.3678 H   0  0  0  0  0  0  0  0  0  0  0  0
    2.4381  -11.0842   -2.0950 H   0  0  0  0  0  0  0  0  0  0  0  0
    0.7518  -13.1014   -2.9077 H   0  0  0  0  0  0  0  0  0  0  0  0
   -0.9792  -12.6825   -2.9810 H   0  0  0  0  0  0  0  0  0  0  0  0
   -0.2946  -13.3949   -1.5050 H   0  0  0  0  0  0  0  0  0  0  0  0
   -1.9999  -12.3889   -0.1213 H   0  0  0  0  0  0  0  0  0  0  0  0
   -5.9480  -10.9248   -0.9763 H   0  0  0  0  0  0  0  0  0  0  0  0
   -4.9376   -8.9396   -2.1867 H   0  0  0  0  0  0  0  0  0  0  0  0
   -0.2315   -6.7825   -1.5923 H   0  0  0  0  0  0  0  0  0  0  0  0
    0.3117   -5.3831   -0.5870 H   0  0  0  0  0  0  0  0  0  0  0  0
   -0.1999   -6.9422    0.1489 H   0  0  0  0  0  0  0  0  0  0  0  0
    3.7142   -2.0999    3.4951 H   0  0  0  0  0  0  0  0  0  0  0  0
  1  2  1  0
  1 36  1  0
  1 37  1  0
  1 38  1  0
  2  3  2  0
  2 35  1  0
  3  4  1  0
  3 39  1  0
  4  5  2  0
  4 40  1  0
  5  6  1  0
  5 41  1  0
  6  7  1  0
  6 35  2  0
  7  8  1  0
  7 42  1  0
  7 43  1  0
  8  9  1  0
  9 10  2  0
  9 34  1  0
 10 11  1  0
 10 44  1  0
 11 12  2  0
 11 45  1  0
 12 13  1  0
 12 46  1  0
 13 14  1  0
 13 34  1  0
 14 15  2  0
 14 16  1  0
 16 17  1  0
 16 31  2  0
 17 18  1  0
 17 30  2  0
 18 19  2  0
 18 47  1  0
 19 20  1  0
 19 21  1  0
 20 48  1  0
 20 49  1  0
 20 50  1  0
 21 22  1  0
 21 30  1  0
 22 23  2  0
 22 28  1  0
 23 24  1  0
 23 51  1  0
 24 25  1  0
 24 26  2  0
 26 27  1  0
 26 52  1  0
 27 28  2  0
 27 53  1  0
 28 29  1  0
 31 32  1  0
 31 33  1  0
 32 54  1  0
 32 55  1  0
 32 56  1  0
 33 34  2  0
 35 57  1  0
M  END

