
     RDKit          3D

 33 34  0  0  0  0  0  0  0  0999 V2000
    1.1169    0.5279   -0.7478 C   0  0  0  0  0  0  0  0  0  0  0  0
    2.5291    0.1378   -0.3855 C   0  0  0  0  0  0  0  0  0  0  0  0
    3.6015    1.0128   -0.5865 C   0  0  0  0  0  0  0  0  0  0  0  0
    4.9190    0.6638   -0.2538 C   0  0  0  0  0  0  0  0  0  0  0  0
    6.0326    1.6624   -0.4837 C   0  0  0  0  0  0  0  0  0  0  0  0
    5.1609   -0.6064    0.3107 C   0  0  0  0  0  0  0  0  0  0  0  0
    6.5566   -1.0051    0.7366 C   0  0  0  0  0  0  0  0  0  0  0  0
    6.8151   -1.2169    1.9048 O   0  0  0  0  0  0  0  0  0  0  0  0
    7.5970   -1.1789   -0.3364 C   0  0  0  0  0  0  0  0  0  0  0  0
    7.2281   -1.4691   -1.6626 C   0  0  0  0  0  0  0  0  0  0  0  0
    8.1712   -1.7090   -2.6607 C   0  0  0  0  0  0  0  0  0  0  0  0
    9.5296   -1.6427   -2.3339 C   0  0  0  0  0  0  0  0  0  0  0  0
   10.8386   -1.9540   -3.6771 Br  0  0  0  0  0  0  0  0  0  0  0  0
    9.9426   -1.3458   -1.0338 C   0  0  0  0  0  0  0  0  0  0  0  0
    8.9755   -1.1254   -0.0544 C   0  0  0  0  0  0  0  0  0  0  0  0
    9.4048   -0.8262    1.1686 F   0  0  0  0  0  0  0  0  0  0  0  0
    4.0913   -1.5010    0.5531 C   0  0  0  0  0  0  0  0  0  0  0  0
    4.3223   -2.8488    1.1969 C   0  0  0  0  0  0  0  0  0  0  0  0
    2.7983   -1.1149    0.1852 C   0  0  0  0  0  0  0  0  0  0  0  0
    1.0852    1.4872   -1.2850 H   0  0  0  0  0  0  0  0  0  0  0  0
    0.4884    0.6280    0.1536 H   0  0  0  0  0  0  0  0  0  0  0  0
    0.6415   -0.2351   -1.3858 H   0  0  0  0  0  0  0  0  0  0  0  0
    3.4110    2.0030   -1.0113 H   0  0  0  0  0  0  0  0  0  0  0  0
    5.6242    2.6719   -0.6373 H   0  0  0  0  0  0  0  0  0  0  0  0
    6.6324    1.4098   -1.3739 H   0  0  0  0  0  0  0  0  0  0  0  0
    6.7275    1.7088    0.3691 H   0  0  0  0  0  0  0  0  0  0  0  0
    6.1652   -1.5155   -1.9094 H   0  0  0  0  0  0  0  0  0  0  0  0
    7.8587   -1.9435   -3.6788 H   0  0  0  0  0  0  0  0  0  0  0  0
   10.9967   -1.2805   -0.7631 H   0  0  0  0  0  0  0  0  0  0  0  0
    5.0905   -3.4334    0.6645 H   0  0  0  0  0  0  0  0  0  0  0  0
    3.3965   -3.4417    1.2112 H   0  0  0  0  0  0  0  0  0  0  0  0
    4.6801   -2.7328    2.2311 H   0  0  0  0  0  0  0  0  0  0  0  0
    1.9722   -1.8118    0.3574 H   0  0  0  0  0  0  0  0  0  0  0  0
  1  2  1  0
  1 20  1  0
  1 21  1  0
  1 22  1  0
  2  3  2  0
  2 19  1  0
  3  4  1  0
  3 23  1  0
  4  5  1  0
  4  6  2  0
  5 24  1  0
  5 25  1  0
  5 26  1  0
  6  7  1  0
  6 17  1  0
  7  8  2  0
  7  9  1  0
  9 10  2  0
  9 15  1  0
 10 11  1  0
 10 27  1  0
 11 12  2  0
 11 28  1  0
 12 13  1  0
 12 14  1  0
 14 15  2  0
 14 29  1  0
 15 16  1  0
 17 18  1  0
 17 19  2  0
 18 30  1  0
 18 31  1  0
 18 32  1  0
 19 33  1  0
M  END

