
     RDKit          3D

 36 37  0  0  0  0  0  0  0  0999 V2000
    1.6120   -0.2467    1.7180 N   0  0  0  0  0  0  0  0  0  0  0  0
    2.5902   -0.1679    0.7551 C   0  0  0  0  0  0  0  0  0  0  0  0
    2.7114    1.0320    0.0094 C   0  0  0  0  0  0  0  0  0  0  0  0
    3.7277    1.0825   -0.9952 C   0  0  0  0  0  0  0  0  0  0  0  0
    4.5444   -0.0457   -1.2103 C   0  0  0  0  0  0  0  0  0  0  0  0
    4.4322   -1.2459   -0.4636 C   0  0  0  0  0  0  0  0  0  0  0  0
    5.3532   -2.4081   -0.6547 C   0  0  0  0  0  0  0  0  0  0  0  0
    4.6468   -3.6981   -0.8343 N   0  0  0  0  0  0  0  0  0  0  0  0
    3.8276   -3.7323   -2.0365 C   0  0  0  0  0  0  0  0  0  0  0  0
    2.6939   -4.7542   -1.9962 C   0  0  0  0  0  0  0  0  0  0  0  0
    1.6479   -4.4762   -0.5024 S   0  0  0  0  0  0  0  0  0  0  0  0
    0.2740   -5.5711   -0.9639 C   0  0  1  0  0  0  0  0  0  0  0  0
   -0.3405   -5.1982   -2.1000 F   0  0  0  0  0  0  0  0  0  0  0  0
    0.6559   -6.8476   -1.1411 F   0  0  0  0  0  0  0  0  0  0  0  0
   -0.6335   -5.5452    0.0195 F   0  0  0  0  0  0  0  0  0  0  0  0
    5.5147   -4.8335   -0.6930 C   0  0  1  0  0  0  0  0  0  0  0  0
    5.9876   -5.2265    0.6808 C   0  0  0  0  0  0  0  0  0  0  0  0
    5.0115   -6.1081   -0.0540 C   0  0  0  0  0  0  0  0  0  0  0  0
    3.4228   -1.2977    0.5615 C   0  0  0  0  0  0  0  0  0  0  0  0
    0.9645    0.5188    1.8658 H   0  0  0  0  0  0  0  0  0  0  0  0
    1.4494   -1.1135    2.2180 H   0  0  0  0  0  0  0  0  0  0  0  0
    2.0348    1.8695    0.1906 H   0  0  0  0  0  0  0  0  0  0  0  0
    3.8629    1.9787   -1.6020 H   0  0  0  0  0  0  0  0  0  0  0  0
    5.3103    0.0053   -1.9918 H   0  0  0  0  0  0  0  0  0  0  0  0
    5.9888   -2.5497    0.2430 H   0  0  0  0  0  0  0  0  0  0  0  0
    6.0464   -2.2024   -1.5001 H   0  0  0  0  0  0  0  0  0  0  0  0
    4.4331   -3.9482   -2.9473 H   0  0  0  0  0  0  0  0  0  0  0  0
    3.3998   -2.7269   -2.1736 H   0  0  0  0  0  0  0  0  0  0  0  0
    3.0673   -5.7870   -1.9696 H   0  0  0  0  0  0  0  0  0  0  0  0
    2.0575   -4.6319   -2.8847 H   0  0  0  0  0  0  0  0  0  0  0  0
    6.2512   -4.9686   -1.5073 H   0  0  0  0  0  0  0  0  0  0  0  0
    5.5988   -4.6468    1.5221 H   0  0  0  0  0  0  0  0  0  0  0  0
    7.0228   -5.5595    0.7953 H   0  0  0  0  0  0  0  0  0  0  0  0
    3.9793   -6.1129    0.3036 H   0  0  0  0  0  0  0  0  0  0  0  0
    5.3653   -7.0599   -0.4609 H   0  0  0  0  0  0  0  0  0  0  0  0
    3.2860   -2.1979    1.1626 H   0  0  0  0  0  0  0  0  0  0  0  0
  1  2  1  0
  1 20  1  0
  1 21  1  0
  2  3  2  0
  2 19  1  0
  3  4  1  0
  3 22  1  0
  4  5  2  0
  4 23  1  0
  5  6  1  0
  5 24  1  0
  6  7  1  0
  6 19  2  0
  7  8  1  0
  7 25  1  0
  7 26  1  0
  8  9  1  0
  8 16  1  0
  9 10  1  0
  9 27  1  0
  9 28  1  0
 10 11  1  0
 10 29  1  0
 10 30  1  0
 11 12  1  0
 12 13  1  6
 12 14  1  0
 12 15  1  0
 16 17  1  0
 16 18  1  0
 16 31  1  6
 17 18  1  0
 17 32  1  0
 17 33  1  0
 18 34  1  0
 18 35  1  0
 19 36  1  0
M  END

