
     RDKit          3D

 39 40  0  0  0  0  0  0  0  0999 V2000
    3.1390    1.3537    0.6135 C   0  0  0  0  0  0  0  0  0  0  0  0
    2.6120    0.5875   -0.5980 C   0  0  0  0  0  0  0  0  0  0  0  0
    2.8280   -0.8608   -0.5422 N   0  0  0  0  0  0  0  0  0  0  0  0
    1.7754   -1.7116   -0.8713 C   0  0  0  0  0  0  0  0  0  0  0  0
    0.5893   -1.9731    0.2915 C   0  0  1  0  0  0  0  0  0  0  0  0
   -0.7141   -2.4173   -0.3932 C   0  0  0  0  0  0  0  0  0  0  0  0
   -0.7005   -3.8990   -0.7855 C   0  0  0  0  0  0  0  0  0  0  0  0
   -0.3637   -4.7649    0.4318 C   0  0  0  0  0  0  0  0  0  0  0  0
    0.9560   -4.3215    1.0691 C   0  0  0  0  0  0  0  0  0  0  0  0
    1.0158   -2.8890    1.2679 N   0  0  0  0  0  0  0  0  0  0  0  0
    4.1829   -1.3556   -0.4065 C   0  0  0  0  0  0  0  0  0  0  0  0
    4.9945   -1.4278   -1.5192 C   0  0  0  0  0  0  0  0  0  0  0  0
    6.3299   -1.8997   -1.4493 C   0  0  0  0  0  0  0  0  0  0  0  0
    6.7982   -2.2981   -0.1824 C   0  0  0  0  0  0  0  0  0  0  0  0
    8.0662   -2.7533   -0.0970 F   0  0  0  0  0  0  0  0  0  0  0  0
    6.0400   -2.2508    0.9634 C   0  0  0  0  0  0  0  0  0  0  0  0
    4.6757   -1.7622    0.9009 C   0  0  0  0  0  0  0  0  0  0  0  0
    3.8474   -1.6981    2.0150 C   0  0  0  0  0  0  0  0  0  0  0  0
    3.0527   -1.6563    2.8930 N   0  0  0  0  0  0  0  0  0  0  0  0
    2.9282    2.4278    0.4897 H   0  0  0  0  0  0  0  0  0  0  0  0
    4.2263    1.2289    0.7152 H   0  0  0  0  0  0  0  0  0  0  0  0
    2.6735    1.0049    1.5474 H   0  0  0  0  0  0  0  0  0  0  0  0
    3.0857    0.9862   -1.5165 H   0  0  0  0  0  0  0  0  0  0  0  0
    1.5285    0.7639   -0.7074 H   0  0  0  0  0  0  0  0  0  0  0  0
    2.1484   -2.6982   -1.1735 H   0  0  0  0  0  0  0  0  0  0  0  0
    1.1428   -1.2936   -1.6755 H   0  0  0  0  0  0  0  0  0  0  0  0
    0.4797   -0.9861    0.7610 H   0  0  0  0  0  0  0  0  0  0  0  0
   -0.9039   -1.7752   -1.2669 H   0  0  0  0  0  0  0  0  0  0  0  0
   -1.5428   -2.2379    0.3129 H   0  0  0  0  0  0  0  0  0  0  0  0
    0.0370   -4.0765   -1.5880 H   0  0  0  0  0  0  0  0  0  0  0  0
   -1.6803   -4.1847   -1.1992 H   0  0  0  0  0  0  0  0  0  0  0  0
   -0.2919   -5.8289    0.1594 H   0  0  0  0  0  0  0  0  0  0  0  0
   -1.1707   -4.6804    1.1798 H   0  0  0  0  0  0  0  0  0  0  0  0
    1.8084   -4.6209    0.4258 H   0  0  0  0  0  0  0  0  0  0  0  0
    1.1268   -4.8016    2.0435 H   0  0  0  0  0  0  0  0  0  0  0  0
    1.6840   -2.5350    1.9784 H   0  0  0  0  0  0  0  0  0  0  0  0
    4.5909   -1.1107   -2.4848 H   0  0  0  0  0  0  0  0  0  0  0  0
    6.9768   -1.9575   -2.3225 H   0  0  0  0  0  0  0  0  0  0  0  0
    6.4721   -2.5730    1.9105 H   0  0  0  0  0  0  0  0  0  0  0  0
  1  2  1  0
  1 20  1  0
  1 21  1  0
  1 22  1  0
  2  3  1  0
  2 23  1  0
  2 24  1  0
  3  4  1  0
  3 11  1  0
  4  5  1  0
  4 25  1  0
  4 26  1  0
  5  6  1  0
  5 10  1  0
  5 27  1  1
  6  7  1  0
  6 28  1  0
  6 29  1  0
  7  8  1  0
  7 30  1  0
  7 31  1  0
  8  9  1  0
  8 32  1  0
  8 33  1  0
  9 10  1  0
  9 34  1  0
  9 35  1  0
 10 36  1  0
 11 12  2  0
 11 17  1  0
 12 13  1  0
 12 37  1  0
 13 14  2  0
 13 38  1  0
 14 15  1  0
 14 16  1  0
 16 17  2  0
 16 39  1  0
 17 18  1  0
 18 19  3  0
M  END

