
     RDKit          3D

 82 85  0  0  0  0  0  0  0  0999 V2000
    3.4173   -2.4599    1.1231 C   0  0  0  0  0  0  0  0  0  0  0  0
    3.9420   -1.4300    0.2471 N   0  0  0  0  0  0  0  0  0  0  0  0
    4.7669   -1.7040   -0.7961 C   0  0  0  0  0  0  0  0  0  0  0  0
    5.1139   -2.8363   -1.0986 O   0  0  0  0  0  0  0  0  0  0  0  0
    5.3215   -0.4756   -1.5815 C   0  0  2  0  0  0  0  0  0  0  0  0
    6.1567   -0.1025   -0.9730 H   0  0  0  0  0  0  0  0  0  0  0  0
    4.3484    0.7234   -1.7556 C   0  0  0  0  0  0  0  0  0  0  0  0
    4.1176    1.5754   -0.5212 C   0  0  0  0  0  0  0  0  0  0  0  0
    5.1879    2.2268    0.1189 C   0  0  0  0  0  0  0  0  0  0  0  0
    4.9738    3.0319    1.2395 C   0  0  0  0  0  0  0  0  0  0  0  0
    3.6808    3.2064    1.7453 C   0  0  0  0  0  0  0  0  0  0  0  0
    2.6059    2.5743    1.1168 C   0  0  0  0  0  0  0  0  0  0  0  0
    2.8241    1.7680   -0.0064 C   0  0  0  0  0  0  0  0  0  0  0  0
    5.8686   -0.9126   -2.8596 N   0  0  0  0  0  0  0  0  0  0  0  0
    4.9309   -1.2725   -3.9326 C   0  0  0  0  0  0  0  0  0  0  0  0
    4.5332   -0.1502   -4.8773 C   0  0  0  0  0  0  0  0  0  0  0  0
    5.4997    0.6844   -5.4514 C   0  0  0  0  0  0  0  0  0  0  0  0
    5.1082    1.6860   -6.3481 C   0  0  0  0  0  0  0  0  0  0  0  0
    3.7691    1.8598   -6.6874 C   0  0  0  0  0  0  0  0  0  0  0  0
    2.7947    1.0172   -6.1272 C   0  0  0  0  0  0  0  0  0  0  0  0
    1.5120    1.2455   -6.5140 O   0  0  0  0  0  0  0  0  0  0  0  0
    0.4832    0.4169   -6.0274 C   0  0  0  0  0  0  0  0  0  0  0  0
    3.1811    0.0180   -5.2204 C   0  0  0  0  0  0  0  0  0  0  0  0
    7.1856   -1.2823   -3.0370 C   0  0  0  0  0  0  0  0  0  0  0  0
    7.6058   -1.6309   -4.1259 O   0  0  0  0  0  0  0  0  0  0  0  0
    8.0905   -1.2290   -1.7981 C   0  0  0  0  0  0  0  0  0  0  0  0
    9.3990   -1.8284   -2.0363 N   0  0  0  0  0  0  0  0  0  0  0  0
    9.4749   -3.2121   -2.4239 C   0  0  0  0  0  0  0  0  0  0  0  0
    8.6429   -4.1413   -1.7610 C   0  0  0  0  0  0  0  0  0  0  0  0
    8.6718   -5.5001   -2.0711 C   0  0  0  0  0  0  0  0  0  0  0  0
    7.8759   -6.4410   -1.4924 O   0  0  0  0  0  0  0  0  0  0  0  0
    6.9205   -6.0277   -0.5407 C   0  0  0  0  0  0  0  0  0  0  0  0
    9.5821   -5.9496   -3.0438 C   0  0  0  0  0  0  0  0  0  0  0  0
   10.3920   -5.0409   -3.7044 C   0  0  0  0  0  0  0  0  0  0  0  0
   10.3472   -3.6542   -3.4433 C   0  0  0  0  0  0  0  0  0  0  0  0
   11.1825   -2.9139   -4.2023 O   0  0  0  0  0  0  0  0  0  0  0  0
   10.9047   -1.5693   -4.5741 C   0  0  0  0  0  0  0  0  0  0  0  0
   10.6338   -1.2547   -0.9917 S   0  0  1  0  0  0  0  0  0  0  0  0
   11.9003   -1.7581   -1.5130 O   0  0  0  0  0  0  0  0  0  0  0  0
   10.3808    0.1823   -0.8299 O   0  0  0  0  0  0  0  0  0  0  0  0
   10.3676   -2.0359    0.6073 C   0  0  0  0  0  0  0  0  0  0  0  0
   10.9105   -3.3037    0.8456 C   0  0  0  0  0  0  0  0  0  0  0  0
   10.6885   -3.9111    2.0839 C   0  0  0  0  0  0  0  0  0  0  0  0
    9.9413   -3.2539    3.0677 C   0  0  0  0  0  0  0  0  0  0  0  0
    9.4169   -1.9805    2.8213 C   0  0  0  0  0  0  0  0  0  0  0  0
    9.6296   -1.3620    1.5863 C   0  0  0  0  0  0  0  0  0  0  0  0
    2.3341   -2.3277    1.2732 H   0  0  0  0  0  0  0  0  0  0  0  0
    3.9093   -2.4477    2.1114 H   0  0  0  0  0  0  0  0  0  0  0  0
    3.5989   -3.4358    0.6556 H   0  0  0  0  0  0  0  0  0  0  0  0
    3.7378   -0.4612    0.4685 H   0  0  0  0  0  0  0  0  0  0  0  0
    3.3828    0.3768   -2.1512 H   0  0  0  0  0  0  0  0  0  0  0  0
    4.7857    1.3604   -2.5398 H   0  0  0  0  0  0  0  0  0  0  0  0
    6.2035    2.1184   -0.2732 H   0  0  0  0  0  0  0  0  0  0  0  0
    5.8206    3.5320    1.7164 H   0  0  0  0  0  0  0  0  0  0  0  0
    3.5134    3.8379    2.6212 H   0  0  0  0  0  0  0  0  0  0  0  0
    1.5900    2.7116    1.4962 H   0  0  0  0  0  0  0  0  0  0  0  0
    1.9737    1.2868   -0.4986 H   0  0  0  0  0  0  0  0  0  0  0  0
    4.0344   -1.7156   -3.4718 H   0  0  0  0  0  0  0  0  0  0  0  0
    5.4215   -2.0660   -4.5145 H   0  0  0  0  0  0  0  0  0  0  0  0
    6.5542    0.5346   -5.2140 H   0  0  0  0  0  0  0  0  0  0  0  0
    5.8638    2.3365   -6.7966 H   0  0  0  0  0  0  0  0  0  0  0  0
    3.4484    2.6343   -7.3868 H   0  0  0  0  0  0  0  0  0  0  0  0
   -0.4494    0.7709   -6.4874 H   0  0  0  0  0  0  0  0  0  0  0  0
    0.3831    0.4817   -4.9280 H   0  0  0  0  0  0  0  0  0  0  0  0
    0.6386   -0.6415   -6.3053 H   0  0  0  0  0  0  0  0  0  0  0  0
    2.4360   -0.6424   -4.7734 H   0  0  0  0  0  0  0  0  0  0  0  0
    7.5659   -1.7045   -0.9518 H   0  0  0  0  0  0  0  0  0  0  0  0
    8.2620   -0.1750   -1.5342 H   0  0  0  0  0  0  0  0  0  0  0  0
    7.9539   -3.7731   -1.0041 H   0  0  0  0  0  0  0  0  0  0  0  0
    6.3531   -6.9252   -0.2577 H   0  0  0  0  0  0  0  0  0  0  0  0
    6.2267   -5.2697   -0.9453 H   0  0  0  0  0  0  0  0  0  0  0  0
    7.4003   -5.6126    0.3661 H   0  0  0  0  0  0  0  0  0  0  0  0
    9.6153   -7.0148   -3.2816 H   0  0  0  0  0  0  0  0  0  0  0  0
   11.0813   -5.3710   -4.4841 H   0  0  0  0  0  0  0  0  0  0  0  0
   11.4729   -1.3943   -5.4999 H   0  0  0  0  0  0  0  0  0  0  0  0
   11.2535   -0.8629   -3.8065 H   0  0  0  0  0  0  0  0  0  0  0  0
    9.8321   -1.4191   -4.7573 H   0  0  0  0  0  0  0  0  0  0  0  0
   11.5072   -3.7929    0.0746 H   0  0  0  0  0  0  0  0  0  0  0  0
   11.1082   -4.9001    2.2830 H   0  0  0  0  0  0  0  0  0  0  0  0
    9.7757   -3.7330    4.0361 H   0  0  0  0  0  0  0  0  0  0  0  0
    8.8500   -1.4609    3.5978 H   0  0  0  0  0  0  0  0  0  0  0  0
    9.2567   -0.3567    1.3839 H   0  0  0  0  0  0  0  0  0  0  0  0
  1  2  1  0
  1 47  1  0
  1 48  1  0
  1 49  1  0
  2  3  1  0
  2 50  1  0
  3  4  2  0
  3  5  1  0
  5  6  1  1
  5  7  1  0
  5 14  1  0
  7  8  1  0
  7 51  1  0
  7 52  1  0
  8  9  2  0
  8 13  1  0
  9 10  1  0
  9 53  1  0
 10 11  2  0
 10 54  1  0
 11 12  1  0
 11 55  1  0
 12 13  2  0
 12 56  1  0
 13 57  1  0
 14 15  1  0
 14 24  1  0
 15 16  1  0
 15 58  1  0
 15 59  1  0
 16 17  2  0
 16 23  1  0
 17 18  1  0
 17 60  1  0
 18 19  2  0
 18 61  1  0
 19 20  1  0
 19 62  1  0
 20 21  1  0
 20 23  2  0
 21 22  1  0
 22 63  1  0
 22 64  1  0
 22 65  1  0
 23 66  1  0
 24 25  2  0
 24 26  1  0
 26 27  1  0
 26 67  1  0
 26 68  1  0
 27 28  1  0
 38 27  1  6
 28 29  2  0
 28 35  1  0
 29 30  1  0
 29 69  1  0
 30 31  1  0
 30 33  2  0
 31 32  1  0
 32 70  1  0
 32 71  1  0
 32 72  1  0
 33 34  1  0
 33 73  1  0
 34 35  2  0
 34 74  1  0
 35 36  1  0
 36 37  1  0
 37 75  1  0
 37 76  1  0
 37 77  1  0
 38 39  2  0
 38 40  2  0
 38 41  1  0
 41 42  2  0
 41 46  1  0
 42 43  1  0
 42 78  1  0
 43 44  2  0
 43 79  1  0
 44 45  1  0
 44 80  1  0
 45 46  2  0
 45 81  1  0
 46 82  1  0
M  END

