
     RDKit          3D

 42 43  0  0  0  0  0  0  0  0999 V2000
    1.3796   -0.2261    2.0577 C   0  0  0  0  0  0  0  0  0  0  0  0
    2.7162   -0.0816    1.3923 C   0  0  0  0  0  0  0  0  0  0  0  0
    2.8817   -0.1491    0.0102 C   0  0  0  0  0  0  0  0  0  0  0  0
    4.1255   -0.0437   -0.6306 C   0  0  0  0  0  0  0  0  0  0  0  0
    5.3056    0.2022    0.2070 C   0  0  0  0  0  0  0  0  0  0  0  0
    6.6188    0.2432   -0.4222 C   0  0  0  0  0  0  0  0  0  0  0  0
    7.3456    1.4187   -0.8917 C   0  0  0  0  0  0  0  0  0  0  0  0
    8.4809    1.0952   -1.4977 N   0  0  0  0  0  0  0  0  0  0  0  0
    8.5154   -0.2404   -1.4457 C   0  0  0  0  0  0  0  0  0  0  0  0
    7.4340   -0.7996   -0.7855 N   0  0  0  0  0  0  0  0  0  0  0  0
    7.1805   -2.2915   -0.7488 C   0  0  1  0  0  0  0  0  0  0  0  0
    6.1654   -2.6727    0.3336 C   0  0  0  0  0  0  0  0  0  0  0  0
    6.5734   -2.6196   -2.1420 C   0  0  0  0  0  0  0  0  0  0  0  0
    7.4645   -2.2586   -3.2376 N   0  0  0  0  0  0  0  0  0  0  0  0
    8.5551   -3.0128   -0.5224 C   0  0  1  0  0  0  0  0  0  0  0  0
    9.2459   -2.6050    0.7886 C   0  0  0  0  0  0  0  0  0  0  0  0
    8.4539   -4.5454   -0.6013 C   0  0  0  0  0  0  0  0  0  0  0  0
    5.1455    0.2870    1.6037 C   0  0  0  0  0  0  0  0  0  0  0  0
    3.9066    0.1419    2.2070 C   0  0  0  0  0  0  0  0  0  0  0  0
    0.5706   -0.3692    1.3232 H   0  0  0  0  0  0  0  0  0  0  0  0
    1.1189    0.6620    2.6690 H   0  0  0  0  0  0  0  0  0  0  0  0
    1.3475   -1.0876    2.7567 H   0  0  0  0  0  0  0  0  0  0  0  0
    1.9920   -0.2915   -0.6157 H   0  0  0  0  0  0  0  0  0  0  0  0
    4.1844    0.0050   -1.7197 H   0  0  0  0  0  0  0  0  0  0  0  0
    7.0006    2.4433   -0.7572 H   0  0  0  0  0  0  0  0  0  0  0  0
    9.3181   -0.8382   -1.8599 H   0  0  0  0  0  0  0  0  0  0  0  0
    5.1671   -2.2775    0.1135 H   0  0  0  0  0  0  0  0  0  0  0  0
    6.4537   -2.3095    1.3276 H   0  0  0  0  0  0  0  0  0  0  0  0
    6.1009   -3.7694    0.3723 H   0  0  0  0  0  0  0  0  0  0  0  0
    5.6438   -2.0373   -2.2224 H   0  0  0  0  0  0  0  0  0  0  0  0
    6.2700   -3.6814   -2.1456 H   0  0  0  0  0  0  0  0  0  0  0  0
    6.9466   -1.9553   -4.0593 H   0  0  0  0  0  0  0  0  0  0  0  0
    8.0594   -3.0333   -3.5268 H   0  0  0  0  0  0  0  0  0  0  0  0
    9.2141   -2.7211   -1.3560 H   0  0  0  0  0  0  0  0  0  0  0  0
    8.6831   -2.9590    1.6657 H   0  0  0  0  0  0  0  0  0  0  0  0
    9.3649   -1.5157    0.8905 H   0  0  0  0  0  0  0  0  0  0  0  0
   10.2513   -3.0510    0.8410 H   0  0  0  0  0  0  0  0  0  0  0  0
    7.8778   -4.9679    0.2356 H   0  0  0  0  0  0  0  0  0  0  0  0
    9.4642   -4.9803   -0.5509 H   0  0  0  0  0  0  0  0  0  0  0  0
    7.9950   -4.8982   -1.5373 H   0  0  0  0  0  0  0  0  0  0  0  0
    6.0242    0.4633    2.2353 H   0  0  0  0  0  0  0  0  0  0  0  0
    3.8144    0.2387    3.2913 H   0  0  0  0  0  0  0  0  0  0  0  0
  1  2  1  0
  1 20  1  0
  1 21  1  0
  1 22  1  0
  2  3  2  0
  2 19  1  0
  3  4  1  0
  3 23  1  0
  4  5  2  0
  4 24  1  0
  5  6  1  0
  5 18  1  0
  6  7  2  0
  6 10  1  0
  7  8  1  0
  7 25  1  0
  8  9  2  0
  9 10  1  0
  9 26  1  0
 10 11  1  0
 11 12  1  1
 11 13  1  0
 11 15  1  0
 12 27  1  0
 12 28  1  0
 12 29  1  0
 13 14  1  0
 13 30  1  0
 13 31  1  0
 14 32  1  0
 14 33  1  0
 15 16  1  0
 15 17  1  0
 15 34  1  6
 16 35  1  0
 16 36  1  0
 16 37  1  0
 17 38  1  0
 17 39  1  0
 17 40  1  0
 18 19  2  0
 18 41  1  0
 19 42  1  0
M  END

