
     RDKit          3D

 43 43  0  0  0  0  0  0  0  0999 V2000
    0.6393    1.7603   -1.0721 C   0  0  0  0  0  0  0  0  0  0  0  0
    2.0049    2.1858   -1.5994 C   0  0  0  0  0  0  0  0  0  0  0  0
    2.9720    1.1084   -1.4675 N   0  0  0  0  0  0  0  0  0  0  0  0
    4.3145    1.2841   -1.4110 C   0  0  0  0  0  0  0  0  0  0  0  0
    4.7962    2.5398   -1.4002 N   0  0  0  0  0  0  0  0  0  0  0  0
    6.1133    2.7143   -1.3301 C   0  0  0  0  0  0  0  0  0  0  0  0
    6.6678    4.1572   -1.3284 C   0  0  1  0  0  0  0  0  0  0  0  0
    7.5327    4.3493   -2.5963 C   0  0  0  0  0  0  0  0  0  0  0  0
    6.7915    4.3023   -3.9315 C   0  0  0  0  0  0  0  0  0  0  0  0
    5.5343    5.1982   -1.2097 C   0  0  0  0  0  0  0  0  0  0  0  0
    6.0157    6.6482   -1.1415 C   0  0  0  0  0  0  0  0  0  0  0  0
    7.6166    4.3068   -0.2680 O   0  0  0  0  0  0  0  0  0  0  0  0
    7.1881    4.0553    1.0457 C   0  0  0  0  0  0  0  0  0  0  0  0
    7.0213    1.7389   -1.2766 N   0  0  0  0  0  0  0  0  0  0  0  0
    6.5929    0.4669   -1.2849 C   0  0  0  0  0  0  0  0  0  0  0  0
    7.6320   -0.6323   -1.2184 C   0  0  0  0  0  0  0  0  0  0  0  0
    9.0780   -0.1459   -1.2202 C   0  0  0  0  0  0  0  0  0  0  0  0
    5.2246    0.1952   -1.3507 C   0  0  0  0  0  0  0  0  0  0  0  0
    4.5574   -1.5996   -1.3586 Br  0  0  0  0  0  0  0  0  0  0  0  0
   -0.0864    2.5804   -1.1823 H   0  0  0  0  0  0  0  0  0  0  0  0
    0.6913    1.4873   -0.0061 H   0  0  0  0  0  0  0  0  0  0  0  0
    0.2426    0.8934   -1.6277 H   0  0  0  0  0  0  0  0  0  0  0  0
    2.3882    3.0541   -1.0452 H   0  0  0  0  0  0  0  0  0  0  0  0
    1.9214    2.5081   -2.6556 H   0  0  0  0  0  0  0  0  0  0  0  0
    2.6422    0.1541   -1.5570 H   0  0  0  0  0  0  0  0  0  0  0  0
    8.3013    3.5633   -2.5567 H   0  0  0  0  0  0  0  0  0  0  0  0
    8.0633    5.3079   -2.4835 H   0  0  0  0  0  0  0  0  0  0  0  0
    6.2281    3.3635   -4.0591 H   0  0  0  0  0  0  0  0  0  0  0  0
    7.5060    4.3707   -4.7672 H   0  0  0  0  0  0  0  0  0  0  0  0
    6.0777    5.1338   -4.0450 H   0  0  0  0  0  0  0  0  0  0  0  0
    4.9329    4.9614   -0.3178 H   0  0  0  0  0  0  0  0  0  0  0  0
    4.8416    5.0600   -2.0524 H   0  0  0  0  0  0  0  0  0  0  0  0
    6.7553    6.7870   -0.3382 H   0  0  0  0  0  0  0  0  0  0  0  0
    5.1706    7.3282   -0.9487 H   0  0  0  0  0  0  0  0  0  0  0  0
    6.4892    6.9736   -2.0813 H   0  0  0  0  0  0  0  0  0  0  0  0
    8.0727    4.1568    1.6925 H   0  0  0  0  0  0  0  0  0  0  0  0
    6.7870    3.0325    1.1757 H   0  0  0  0  0  0  0  0  0  0  0  0
    6.4236    4.7742    1.3979 H   0  0  0  0  0  0  0  0  0  0  0  0
    7.4544   -1.3251   -2.0599 H   0  0  0  0  0  0  0  0  0  0  0  0
    7.4292   -1.2361   -0.3152 H   0  0  0  0  0  0  0  0  0  0  0  0
    9.3115    0.4110   -2.1396 H   0  0  0  0  0  0  0  0  0  0  0  0
    9.7658   -1.0031   -1.1496 H   0  0  0  0  0  0  0  0  0  0  0  0
    9.2736    0.5327   -0.3779 H   0  0  0  0  0  0  0  0  0  0  0  0
  1  2  1  0
  1 20  1  0
  1 21  1  0
  1 22  1  0
  2  3  1  0
  2 23  1  0
  2 24  1  0
  3  4  1  0
  3 25  1  0
  4  5  2  0
  4 18  1  0
  5  6  1  0
  6  7  1  0
  6 14  2  0
  7  8  1  0
  7 10  1  0
  7 12  1  1
  8  9  1  0
  8 26  1  0
  8 27  1  0
  9 28  1  0
  9 29  1  0
  9 30  1  0
 10 11  1  0
 10 31  1  0
 10 32  1  0
 11 33  1  0
 11 34  1  0
 11 35  1  0
 12 13  1  0
 13 36  1  0
 13 37  1  0
 13 38  1  0
 14 15  1  0
 15 16  1  0
 15 18  2  0
 16 17  1  0
 16 39  1  0
 16 40  1  0
 17 41  1  0
 17 42  1  0
 17 43  1  0
 18 19  1  0
M  END

