
     RDKit          3D

 48 50  0  0  0  0  0  0  0  0999 V2000
    2.1671    1.8853    1.1046 C   0  0  0  0  0  0  0  0  0  0  0  0
    3.0372    0.7959    1.7031 C   0  0  0  0  0  0  0  0  0  0  0  0
    3.3308   -0.1586    0.7021 O   0  0  0  0  0  0  0  0  0  0  0  0
    4.1521   -1.2109    1.1120 C   0  0  1  0  0  0  0  0  0  0  0  0
    3.5409   -2.3612    1.9492 C   0  0  0  0  0  0  0  0  0  0  0  0
    4.2762   -3.3949    1.0544 C   0  0  2  0  0  0  0  0  0  0  0  0
    5.4296   -3.9607    1.6744 N   0  0  0  0  0  0  0  0  0  0  0  0
    6.0560   -5.1578    1.3442 C   0  0  0  0  0  0  0  0  0  0  0  0
    5.3403   -6.2002    0.6728 C   0  0  0  0  0  0  0  0  0  0  0  0
    6.1036   -7.3164    0.2279 C   0  0  0  0  0  0  0  0  0  0  0  0
    7.4758   -7.4092    0.5169 C   0  0  0  0  0  0  0  0  0  0  0  0
    8.1716   -6.4394    1.2622 C   0  0  0  0  0  0  0  0  0  0  0  0
    7.4308   -5.2505    1.6294 C   0  0  0  0  0  0  0  0  0  0  0  0
    8.0378   -4.0555    1.9802 O   0  0  0  0  0  0  0  0  0  0  0  0
    9.3567   -4.0902    2.4762 C   0  0  0  0  0  0  0  0  0  0  0  0
    4.5393   -2.2127   -0.0108 C   0  0  1  0  0  0  0  0  0  0  0  0
    3.4969   -2.2664   -1.1402 C   0  0  0  0  0  0  0  0  0  0  0  0
    3.8404   -3.3029   -2.2185 C   0  0  0  0  0  0  0  0  0  0  0  0
    5.2392   -3.0663   -2.7973 C   0  0  0  0  0  0  0  0  0  0  0  0
    6.2921   -3.0706   -1.6839 C   0  0  0  0  0  0  0  0  0  0  0  0
    5.9549   -2.0582   -0.5801 C   0  0  0  0  0  0  0  0  0  0  0  0
    1.9269    2.6478    1.8618 H   0  0  0  0  0  0  0  0  0  0  0  0
    1.2242    1.4629    0.7240 H   0  0  0  0  0  0  0  0  0  0  0  0
    2.6848    2.3762    0.2661 H   0  0  0  0  0  0  0  0  0  0  0  0
    2.5187    0.3139    2.5573 H   0  0  0  0  0  0  0  0  0  0  0  0
    3.9794    1.2252    2.1040 H   0  0  0  0  0  0  0  0  0  0  0  0
    5.0643   -0.8094    1.6020 H   0  0  0  0  0  0  0  0  0  0  0  0
    2.4515   -2.4205    1.8145 H   0  0  0  0  0  0  0  0  0  0  0  0
    3.7705   -2.4031    3.0249 H   0  0  0  0  0  0  0  0  0  0  0  0
    3.6699   -4.2079    0.6373 H   0  0  0  0  0  0  0  0  0  0  0  0
    6.0193   -3.3377    2.2240 H   0  0  0  0  0  0  0  0  0  0  0  0
    4.2494   -6.2517    0.7322 H   0  0  0  0  0  0  0  0  0  0  0  0
    5.6170   -8.1213   -0.3288 H   0  0  0  0  0  0  0  0  0  0  0  0
    8.0249   -8.2890    0.1611 H   0  0  0  0  0  0  0  0  0  0  0  0
    9.1809   -6.6301    1.6271 H   0  0  0  0  0  0  0  0  0  0  0  0
    9.6267   -3.0565    2.7343 H   0  0  0  0  0  0  0  0  0  0  0  0
   10.0683   -4.4664    1.7215 H   0  0  0  0  0  0  0  0  0  0  0  0
    9.4339   -4.7199    3.3824 H   0  0  0  0  0  0  0  0  0  0  0  0
    3.4473   -1.2607   -1.5914 H   0  0  0  0  0  0  0  0  0  0  0  0
    2.4919   -2.4552   -0.7276 H   0  0  0  0  0  0  0  0  0  0  0  0
    3.0782   -3.2699   -3.0152 H   0  0  0  0  0  0  0  0  0  0  0  0
    3.7988   -4.3202   -1.7887 H   0  0  0  0  0  0  0  0  0  0  0  0
    5.2577   -2.0930   -3.3231 H   0  0  0  0  0  0  0  0  0  0  0  0
    5.4777   -3.8345   -3.5516 H   0  0  0  0  0  0  0  0  0  0  0  0
    7.2915   -2.8481   -2.0934 H   0  0  0  0  0  0  0  0  0  0  0  0
    6.3518   -4.0827   -1.2485 H   0  0  0  0  0  0  0  0  0  0  0  0
    6.0248   -1.0315   -0.9861 H   0  0  0  0  0  0  0  0  0  0  0  0
    6.7023   -2.1251    0.2280 H   0  0  0  0  0  0  0  0  0  0  0  0
  1  2  1  0
  1 22  1  0
  1 23  1  0
  1 24  1  0
  2  3  1  0
  2 25  1  0
  2 26  1  0
  3  4  1  0
  4  5  1  0
  4 16  1  0
  4 27  1  1
  5  6  1  0
  5 28  1  0
  5 29  1  0
  6  7  1  0
  6 16  1  0
  6 30  1  6
  7  8  1  0
  7 31  1  0
  8  9  2  0
  8 13  1  0
  9 10  1  0
  9 32  1  0
 10 11  2  0
 10 33  1  0
 11 12  1  0
 11 34  1  0
 12 13  2  0
 12 35  1  0
 13 14  1  0
 14 15  1  0
 15 36  1  0
 15 37  1  0
 15 38  1  0
 16 17  1  6
 16 21  1  0
 17 18  1  0
 17 39  1  0
 17 40  1  0
 18 19  1  0
 18 41  1  0
 18 42  1  0
 19 20  1  0
 19 43  1  0
 19 44  1  0
 20 21  1  0
 20 45  1  0
 20 46  1  0
 21 47  1  0
 21 48  1  0
M  END

