
     RDKit          3D

 51 54  0  0  0  0  0  0  0  0999 V2000
    5.3323   -0.8722    1.9535 C   0  0  0  0  0  0  0  0  0  0  0  0
    5.3054    0.5283    2.0642 O   0  0  0  0  0  0  0  0  0  0  0  0
    4.1663    1.1538    1.4958 C   0  0  2  0  0  0  0  0  0  0  0  0
    3.2983    0.4708    1.5670 H   0  0  0  0  0  0  0  0  0  0  0  0
    4.3997    1.5358    0.0287 C   0  0  0  0  0  0  0  0  0  0  0  0
    3.2121    2.3195   -0.5455 C   0  0  0  0  0  0  0  0  0  0  0  0
    2.8709    3.5494    0.3082 C   0  0  0  0  0  0  0  0  0  0  0  0
    2.6768    3.2181    1.7998 C   0  0  1  0  0  0  0  0  0  0  0  0
    2.6364    4.1630    2.3720 H   0  0  0  0  0  0  0  0  0  0  0  0
    1.3438    2.5173    2.0639 C   0  0  0  0  0  0  0  0  0  0  0  0
    0.6418    1.9982    1.2235 O   0  0  0  0  0  0  0  0  0  0  0  0
    0.9350    2.5659    3.4067 N   0  0  0  0  0  0  0  0  0  0  0  0
    0.0390    1.6419    3.8803 N   0  0  0  0  0  0  0  0  0  0  0  0
   -1.3122    1.7887    3.6003 C   0  0  0  0  0  0  0  0  0  0  0  0
   -1.8416    2.9902    2.8789 C   0  0  1  0  0  0  0  0  0  0  0  0
   -2.5363    2.7879    1.4910 C   0  0  0  0  0  0  0  0  0  0  0  0
   -3.5996    3.8324    1.9088 C   0  0  0  0  0  0  0  0  0  0  0  0
   -3.1713    3.6294    3.3830 C   0  0  0  0  0  0  0  0  0  0  0  0
   -2.1655    0.8874    4.0345 N   0  0  0  0  0  0  0  0  0  0  0  0
   -1.8241   -0.3883    4.3467 C   0  0  0  0  0  0  0  0  0  0  0  0
   -2.7957   -1.3148    4.7605 C   0  0  0  0  0  0  0  0  0  0  0  0
   -2.4338   -2.6287    5.0973 C   0  0  0  0  0  0  0  0  0  0  0  0
   -1.0687   -2.9951    5.0380 C   0  0  0  0  0  0  0  0  0  0  0  0
   -0.0792   -2.0896    4.6471 C   0  0  0  0  0  0  0  0  0  0  0  0
   -0.4204   -0.7720    4.2453 C   0  0  0  0  0  0  0  0  0  0  0  0
    0.5719    0.1917    3.9222 C   0  0  0  0  0  0  0  0  0  0  0  0
    1.7580    0.0572    3.6568 O   0  0  0  0  0  0  0  0  0  0  0  0
    3.8709    2.3934    2.3419 C   0  0  0  0  0  0  0  0  0  0  0  0
    6.2540   -1.2253    2.4405 H   0  0  0  0  0  0  0  0  0  0  0  0
    5.3476   -1.2189    0.9008 H   0  0  0  0  0  0  0  0  0  0  0  0
    4.4640   -1.3391    2.4578 H   0  0  0  0  0  0  0  0  0  0  0  0
    4.5856    0.6300   -0.5722 H   0  0  0  0  0  0  0  0  0  0  0  0
    5.3228    2.1418   -0.0179 H   0  0  0  0  0  0  0  0  0  0  0  0
    2.3270    1.6673   -0.5998 H   0  0  0  0  0  0  0  0  0  0  0  0
    3.4346    2.6399   -1.5770 H   0  0  0  0  0  0  0  0  0  0  0  0
    1.9700    4.0460   -0.0856 H   0  0  0  0  0  0  0  0  0  0  0  0
    3.6946    4.2815    0.2380 H   0  0  0  0  0  0  0  0  0  0  0  0
    1.6492    2.8004    4.0908 H   0  0  0  0  0  0  0  0  0  0  0  0
   -1.0465    3.7414    2.7996 H   0  0  0  0  0  0  0  0  0  0  0  0
   -2.9616    1.7768    1.4104 H   0  0  0  0  0  0  0  0  0  0  0  0
   -1.9130    2.9828    0.6080 H   0  0  0  0  0  0  0  0  0  0  0  0
   -4.6482    3.6162    1.6551 H   0  0  0  0  0  0  0  0  0  0  0  0
   -3.3541    4.8409    1.5405 H   0  0  0  0  0  0  0  0  0  0  0  0
   -3.7902    2.8796    3.8946 H   0  0  0  0  0  0  0  0  0  0  0  0
   -3.0739    4.5186    4.0248 H   0  0  0  0  0  0  0  0  0  0  0  0
   -3.8355   -0.9826    4.7908 H   0  0  0  0  0  0  0  0  0  0  0  0
   -3.1898   -3.3516    5.4060 H   0  0  0  0  0  0  0  0  0  0  0  0
   -0.7746   -4.0119    5.3129 H   0  0  0  0  0  0  0  0  0  0  0  0
    0.9764   -2.3684    4.6716 H   0  0  0  0  0  0  0  0  0  0  0  0
    3.7035    2.0688    3.3800 H   0  0  0  0  0  0  0  0  0  0  0  0
    4.7699    3.0331    2.3417 H   0  0  0  0  0  0  0  0  0  0  0  0
  1  2  1  0
  1 29  1  0
  1 30  1  0
  1 31  1  0
  2  3  1  0
  3  4  1  6
  3  5  1  0
  3 28  1  0
  5  6  1  0
  5 32  1  0
  5 33  1  0
  6  7  1  0
  6 34  1  0
  6 35  1  0
  7  8  1  0
  7 36  1  0
  7 37  1  0
  8  9  1  1
  8 10  1  0
  8 28  1  0
 10 11  2  0
 10 12  1  0
 12 13  1  0
 12 38  1  0
 13 14  1  0
 13 26  1  0
 14 15  1  0
 14 19  2  0
 15 16  1  0
 15 18  1  0
 15 39  1  1
 16 17  1  0
 16 40  1  0
 16 41  1  0
 17 18  1  0
 17 42  1  0
 17 43  1  0
 18 44  1  0
 18 45  1  0
 19 20  1  0
 20 21  2  0
 20 25  1  0
 21 22  1  0
 21 46  1  0
 22 23  2  0
 22 47  1  0
 23 24  1  0
 23 48  1  0
 24 25  2  0
 24 49  1  0
 25 26  1  0
 26 27  2  0
 28 50  1  0
 28 51  1  0
M  END

