
     RDKit          3D

 43 43  0  0  0  0  0  0  0  0999 V2000
    1.0449   -1.2228   -2.9071 C   0  0  0  0  0  0  0  0  0  0  0  0
    1.9941   -0.3860   -2.0453 C   0  0  1  0  0  0  0  0  0  0  0  0
    1.3043    0.2166   -0.8170 C   0  0  0  0  0  0  0  0  0  0  0  0
    3.1537   -1.2147   -1.6778 N   0  0  0  0  0  0  0  0  0  0  0  0
    4.6644   -0.5604   -1.3949 S   0  0  1  0  0  0  0  0  0  0  0  0
    4.5620    0.8866   -1.1703 O   0  0  0  0  0  0  0  0  0  0  0  0
    5.2950   -1.4504   -0.4174 O   0  0  0  0  0  0  0  0  0  0  0  0
    5.5150   -0.7822   -2.9669 C   0  0  0  0  0  0  0  0  0  0  0  0
    6.2319    0.2780   -3.5219 C   0  0  0  0  0  0  0  0  0  0  0  0
    6.9607    0.0563   -4.6972 C   0  0  0  0  0  0  0  0  0  0  0  0
    6.9579   -1.1999   -5.3033 C   0  0  0  0  0  0  0  0  0  0  0  0
    6.2107   -2.2550   -4.7535 C   0  0  0  0  0  0  0  0  0  0  0  0
    6.2277   -3.5908   -5.4561 C   0  0  0  0  0  0  0  0  0  0  0  0
    7.1398   -3.9195   -6.1985 O   0  0  0  0  0  0  0  0  0  0  0  0
    5.1465   -4.3855   -5.2006 N   0  0  0  0  0  0  0  0  0  0  0  0
    5.0072   -5.7451   -5.6707 C   0  0  0  0  0  0  0  0  0  0  0  0
    4.6133   -6.6530   -4.5138 C   0  0  0  0  0  0  0  0  0  0  0  0
    3.4499   -6.0933   -3.9229 O   0  0  0  0  0  0  0  0  0  0  0  0
    3.0997   -6.5824   -2.6651 C   0  0  0  0  0  0  0  0  0  0  0  0
    2.2203   -5.5531   -1.9745 C   0  0  1  0  0  0  0  0  0  0  0  0
    1.0977   -5.3012   -2.6569 F   0  0  0  0  0  0  0  0  0  0  0  0
    1.8780   -5.9916   -0.7548 F   0  0  0  0  0  0  0  0  0  0  0  0
    2.8689   -4.3791   -1.8212 F   0  0  0  0  0  0  0  0  0  0  0  0
    5.5033   -2.0441   -3.5647 C   0  0  0  0  0  0  0  0  0  0  0  0
    0.1655   -0.6306   -3.2048 H   0  0  0  0  0  0  0  0  0  0  0  0
    0.6858   -2.1072   -2.3549 H   0  0  0  0  0  0  0  0  0  0  0  0
    1.5510   -1.5791   -3.8168 H   0  0  0  0  0  0  0  0  0  0  0  0
    2.3935    0.4391   -2.6570 H   0  0  0  0  0  0  0  0  0  0  0  0
    0.9077   -0.5789   -0.1629 H   0  0  0  0  0  0  0  0  0  0  0  0
    0.4604    0.8593   -1.1149 H   0  0  0  0  0  0  0  0  0  0  0  0
    2.0166    0.8235   -0.2398 H   0  0  0  0  0  0  0  0  0  0  0  0
    2.9842   -1.9846   -1.0315 H   0  0  0  0  0  0  0  0  0  0  0  0
    6.2142    1.2535   -3.0330 H   0  0  0  0  0  0  0  0  0  0  0  0
    7.5339    0.8747   -5.1397 H   0  0  0  0  0  0  0  0  0  0  0  0
    7.5279   -1.3917   -6.2146 H   0  0  0  0  0  0  0  0  0  0  0  0
    4.3813   -4.0319   -4.6400 H   0  0  0  0  0  0  0  0  0  0  0  0
    5.9666   -6.0584   -6.1064 H   0  0  0  0  0  0  0  0  0  0  0  0
    4.2404   -5.8113   -6.4640 H   0  0  0  0  0  0  0  0  0  0  0  0
    5.4309   -6.6953   -3.7681 H   0  0  0  0  0  0  0  0  0  0  0  0
    4.4184   -7.6824   -4.8722 H   0  0  0  0  0  0  0  0  0  0  0  0
    3.9816   -6.7440   -2.0163 H   0  0  0  0  0  0  0  0  0  0  0  0
    2.5336   -7.5328   -2.7167 H   0  0  0  0  0  0  0  0  0  0  0  0
    4.9471   -2.8500   -3.0829 H   0  0  0  0  0  0  0  0  0  0  0  0
  1  2  1  0
  1 25  1  0
  1 26  1  0
  1 27  1  0
  2  3  1  0
  2  4  1  0
  2 28  1  6
  3 29  1  0
  3 30  1  0
  3 31  1  0
  5  4  1  6
  4 32  1  0
  5  6  2  0
  5  7  2  0
  5  8  1  0
  8  9  2  0
  8 24  1  0
  9 10  1  0
  9 33  1  0
 10 11  2  0
 10 34  1  0
 11 12  1  0
 11 35  1  0
 12 13  1  0
 12 24  2  0
 13 14  2  0
 13 15  1  0
 15 16  1  0
 15 36  1  0
 16 17  1  0
 16 37  1  0
 16 38  1  0
 17 18  1  0
 17 39  1  0
 17 40  1  0
 18 19  1  0
 19 20  1  0
 19 41  1  0
 19 42  1  0
 20 21  1  6
 20 22  1  0
 20 23  1  0
 24 43  1  0
M  END

