
     RDKit          3D

 52 54  0  0  0  0  0  0  0  0999 V2000
    2.6563    2.0031   -2.2298 O   0  0  0  0  0  0  0  0  0  0  0  0
    2.7007    1.5718   -1.0894 C   0  0  0  0  0  0  0  0  0  0  0  0
    3.3770    2.4026    0.0036 C   0  0  0  0  0  0  0  0  0  0  0  0
    3.4741    1.6643    1.2027 O   0  0  0  0  0  0  0  0  0  0  0  0
    3.9913    2.2250    2.3328 C   0  0  0  0  0  0  0  0  0  0  0  0
    4.4931    3.5326    2.3729 C   0  0  0  0  0  0  0  0  0  0  0  0
    4.9889    4.0578    3.5708 C   0  0  0  0  0  0  0  0  0  0  0  0
    4.9838    3.2858    4.7314 C   0  0  0  0  0  0  0  0  0  0  0  0
    4.4831    1.9815    4.6841 C   0  0  0  0  0  0  0  0  0  0  0  0
    3.9846    1.4185    3.4996 C   0  0  0  0  0  0  0  0  0  0  0  0
    3.4523    0.0262    3.4973 C   0  0  0  0  0  0  0  0  0  0  0  0
    2.5528   -0.3873    4.4970 C   0  0  0  0  0  0  0  0  0  0  0  0
    2.0686   -1.6978    4.5345 C   0  0  0  0  0  0  0  0  0  0  0  0
    2.4755   -2.6258    3.5726 C   0  0  0  0  0  0  0  0  0  0  0  0
    3.3729   -2.2316    2.5744 C   0  0  0  0  0  0  0  0  0  0  0  0
    3.8551   -0.9212    2.5355 C   0  0  0  0  0  0  0  0  0  0  0  0
    2.1661    0.3947   -0.6800 N   0  0  0  0  0  0  0  0  0  0  0  0
    1.5231   -0.5281   -1.5964 C   0  0  0  0  0  0  0  0  0  0  0  0
    2.4463   -1.6586   -2.0683 C   0  0  0  0  0  0  0  0  0  0  0  0
    1.7500   -2.6311   -3.0225 C   0  0  0  0  0  0  0  0  0  0  0  0
    2.6856   -3.7446   -3.5010 C   0  0  0  0  0  0  0  0  0  0  0  0
    2.0299   -4.7007   -4.3991 N   0  0  0  0  0  0  0  0  0  0  0  0
    2.1374   -4.5649   -5.7531 C   0  0  0  0  0  0  0  0  0  0  0  0
    1.5252   -5.4261   -6.6224 C   0  0  0  0  0  0  0  0  0  0  0  0
    0.7556   -6.4940   -6.0771 C   0  0  0  0  0  0  0  0  0  0  0  0
    0.6348   -6.6449   -4.7229 C   0  0  0  0  0  0  0  0  0  0  0  0
    1.2661   -5.7340   -3.7842 C   0  0  0  0  0  0  0  0  0  0  0  0
    1.1882   -5.7923   -2.5630 O   0  0  0  0  0  0  0  0  0  0  0  0
    2.7818    3.3239    0.1423 H   0  0  0  0  0  0  0  0  0  0  0  0
    4.3700    2.7006   -0.3766 H   0  0  0  0  0  0  0  0  0  0  0  0
    4.4972    4.1497    1.4746 H   0  0  0  0  0  0  0  0  0  0  0  0
    5.3801    5.0781    3.5862 H   0  0  0  0  0  0  0  0  0  0  0  0
    5.3732    3.6895    5.6686 H   0  0  0  0  0  0  0  0  0  0  0  0
    4.4941    1.3658    5.5868 H   0  0  0  0  0  0  0  0  0  0  0  0
    2.2161    0.3353    5.2445 H   0  0  0  0  0  0  0  0  0  0  0  0
    1.3647   -1.9923    5.3173 H   0  0  0  0  0  0  0  0  0  0  0  0
    2.0973   -3.6508    3.5992 H   0  0  0  0  0  0  0  0  0  0  0  0
    3.7070   -2.9537    1.8243 H   0  0  0  0  0  0  0  0  0  0  0  0
    4.5625   -0.6281    1.7580 H   0  0  0  0  0  0  0  0  0  0  0  0
    2.3021    0.1312    0.2911 H   0  0  0  0  0  0  0  0  0  0  0  0
    1.1832    0.0614   -2.4609 H   0  0  0  0  0  0  0  0  0  0  0  0
    0.6292   -0.9514   -1.1074 H   0  0  0  0  0  0  0  0  0  0  0  0
    2.8245   -2.2095   -1.1884 H   0  0  0  0  0  0  0  0  0  0  0  0
    3.3265   -1.2073   -2.5594 H   0  0  0  0  0  0  0  0  0  0  0  0
    1.3579   -2.0818   -3.8972 H   0  0  0  0  0  0  0  0  0  0  0  0
    0.8876   -3.0991   -2.5203 H   0  0  0  0  0  0  0  0  0  0  0  0
    3.0498   -4.3153   -2.6352 H   0  0  0  0  0  0  0  0  0  0  0  0
    3.5538   -3.3232   -4.0312 H   0  0  0  0  0  0  0  0  0  0  0  0
    2.7476   -3.7267   -6.0978 H   0  0  0  0  0  0  0  0  0  0  0  0
    1.6370   -5.2892   -7.6979 H   0  0  0  0  0  0  0  0  0  0  0  0
    0.2584   -7.1986   -6.7500 H   0  0  0  0  0  0  0  0  0  0  0  0
    0.0525   -7.4525   -4.2767 H   0  0  0  0  0  0  0  0  0  0  0  0
  1  2  2  0
  2  3  1  0
  2 17  1  0
  3  4  1  0
  3 29  1  0
  3 30  1  0
  4  5  1  0
  5  6  2  0
  5 10  1  0
  6  7  1  0
  6 31  1  0
  7  8  2  0
  7 32  1  0
  8  9  1  0
  8 33  1  0
  9 10  2  0
  9 34  1  0
 10 11  1  0
 11 12  2  0
 11 16  1  0
 12 13  1  0
 12 35  1  0
 13 14  2  0
 13 36  1  0
 14 15  1  0
 14 37  1  0
 15 16  2  0
 15 38  1  0
 16 39  1  0
 17 18  1  0
 17 40  1  0
 18 19  1  0
 18 41  1  0
 18 42  1  0
 19 20  1  0
 19 43  1  0
 19 44  1  0
 20 21  1  0
 20 45  1  0
 20 46  1  0
 21 22  1  0
 21 47  1  0
 21 48  1  0
 22 23  1  0
 22 27  1  0
 23 24  2  0
 23 49  1  0
 24 25  1  0
 24 50  1  0
 25 26  2  0
 25 51  1  0
 26 27  1  0
 26 52  1  0
 27 28  2  0
M  END

