
     RDKit          3D

 91 96  0  0  0  0  0  0  0  0999 V2000
    0.7240   -1.6566   -1.9218 C   0  0  0  0  0  0  0  0  0  0  0  0
    1.9867   -3.0683   -1.9535 Si  0  0  1  0  0  4  0  0  0  0  0  0
    1.7628   -4.1558   -0.4218 C   0  0  0  0  0  0  0  0  0  0  0  0
    1.7392   -4.1079   -3.5160 C   0  0  0  0  0  0  0  0  0  0  0  0
    3.7597   -2.3656   -1.9154 C   0  0  0  0  0  0  0  0  0  0  0  0
    4.1548   -1.4987   -3.1062 C   0  0  0  0  0  0  0  0  0  0  0  0
    5.4200   -0.8416   -2.9615 O   0  0  0  0  0  0  0  0  0  0  0  0
    6.5679   -1.6377   -3.0095 C   0  0  0  0  0  0  0  0  0  0  0  0
    6.8830   -2.1661   -4.3311 N   0  0  0  0  0  0  0  0  0  0  0  0
    7.5792   -1.5357   -5.3795 C   0  0  0  0  0  0  0  0  0  0  0  0
    8.0717   -0.1490   -5.3316 C   0  0  0  0  0  0  0  0  0  0  0  0
    9.2897    0.1637   -5.9631 C   0  0  0  0  0  0  0  0  0  0  0  0
    9.7875    1.4670   -6.0025 C   0  0  0  0  0  0  0  0  0  0  0  0
    9.0681    2.5067   -5.3914 C   0  0  0  0  0  0  0  0  0  0  0  0
    9.4612    3.8024   -5.3681 O   0  0  0  0  0  0  0  0  0  0  0  0
   10.6770    4.1841   -5.9889 C   0  0  0  0  0  0  0  0  0  0  0  0
   10.8269    5.6908   -5.8086 C   0  0  0  0  0  0  0  0  0  0  0  0
   11.9963    6.2067   -6.4864 N   0  0  0  0  0  0  0  0  0  0  0  0
   12.0055    7.6511   -6.6899 C   0  0  0  0  0  0  0  0  0  0  0  0
   13.4164    7.9352   -7.2290 C   0  0  0  0  0  0  0  0  0  0  0  0
   14.2855    6.7855   -6.6483 C   0  0  0  0  0  0  0  0  0  0  0  0
   13.2872    5.9008   -5.8765 C   0  0  0  0  0  0  0  0  0  0  0  0
    7.8523    2.2099   -4.7508 C   0  0  0  0  0  0  0  0  0  0  0  0
    7.3610    0.9102   -4.7231 C   0  0  0  0  0  0  0  0  0  0  0  0
    7.7433   -2.4407   -6.4153 C   0  0  0  0  0  0  0  0  0  0  0  0
    7.1446   -3.6681   -6.0054 C   0  0  0  0  0  0  0  0  0  0  0  0
    6.9439   -4.9672   -6.5111 C   0  0  0  0  0  0  0  0  0  0  0  0
    7.4344   -5.2400   -7.7430 O   0  0  0  0  0  0  0  0  0  0  0  0
    7.2137   -6.4403   -8.3936 C   0  0  0  0  0  0  0  0  0  0  0  0
    5.9394   -6.9826   -8.5768 C   0  0  0  0  0  0  0  0  0  0  0  0
    5.8068   -8.1517   -9.3242 C   0  0  0  0  0  0  0  0  0  0  0  0
    6.9050   -8.8043   -9.9050 C   0  0  0  0  0  0  0  0  0  0  0  0
    6.7292  -10.0546  -10.7224 C   0  0  0  0  0  0  0  0  0  0  0  0
    6.7532   -9.8207  -12.2413 C   0  0  0  0  0  0  0  0  0  0  0  0
    6.6423   -8.7160  -12.7181 O   0  0  0  0  0  0  0  0  0  0  0  0
    6.9139  -11.0574  -13.1222 C   0  0  0  0  0  0  0  0  0  0  0  0
    5.8913  -12.1533  -12.8755 C   0  0  1  0  0  0  0  0  0  0  0  0
    6.1549  -13.5583  -13.3549 C   0  0  0  0  0  0  0  0  0  0  0  0
    6.1376  -13.2603  -11.8776 C   0  0  0  0  0  0  0  0  0  0  0  0
    8.1662   -8.2200   -9.7046 C   0  0  0  0  0  0  0  0  0  0  0  0
    9.5957   -8.9616  -10.4058 Cl  0  0  0  0  0  0  0  0  0  0  0  0
    8.3333   -7.0544   -8.9557 C   0  0  0  0  0  0  0  0  0  0  0  0
    6.3247   -5.8930   -5.8011 N   0  0  0  0  0  0  0  0  0  0  0  0
    5.8828   -5.5676   -4.5736 C   0  0  0  0  0  0  0  0  0  0  0  0
    5.9915   -4.3880   -3.9715 N   0  0  0  0  0  0  0  0  0  0  0  0
    6.6203   -3.4652   -4.7060 C   0  0  0  0  0  0  0  0  0  0  0  0
   -0.3063   -2.0500   -1.9083 H   0  0  0  0  0  0  0  0  0  0  0  0
    0.8163   -1.0062   -2.8074 H   0  0  0  0  0  0  0  0  0  0  0  0
    0.8510   -1.0244   -1.0271 H   0  0  0  0  0  0  0  0  0  0  0  0
    0.7489   -4.5883   -0.3860 H   0  0  0  0  0  0  0  0  0  0  0  0
    1.9132   -3.5797    0.5064 H   0  0  0  0  0  0  0  0  0  0  0  0
    2.4829   -4.9909   -0.4179 H   0  0  0  0  0  0  0  0  0  0  0  0
    0.7555   -4.6066   -3.5096 H   0  0  0  0  0  0  0  0  0  0  0  0
    2.5143   -4.8876   -3.5976 H   0  0  0  0  0  0  0  0  0  0  0  0
    1.7916   -3.4908   -4.4283 H   0  0  0  0  0  0  0  0  0  0  0  0
    4.4374   -3.2340   -1.8426 H   0  0  0  0  0  0  0  0  0  0  0  0
    3.8764   -1.7789   -0.9861 H   0  0  0  0  0  0  0  0  0  0  0  0
    3.4428   -0.6703   -3.2424 H   0  0  0  0  0  0  0  0  0  0  0  0
    4.1472   -2.0927   -4.0378 H   0  0  0  0  0  0  0  0  0  0  0  0
    6.4919   -2.5101   -2.3426 H   0  0  0  0  0  0  0  0  0  0  0  0
    7.3990   -0.9980   -2.6844 H   0  0  0  0  0  0  0  0  0  0  0  0
    9.8742   -0.6361   -6.4229 H   0  0  0  0  0  0  0  0  0  0  0  0
   10.7375    1.6579   -6.5015 H   0  0  0  0  0  0  0  0  0  0  0  0
   10.6648    3.9425   -7.0672 H   0  0  0  0  0  0  0  0  0  0  0  0
   11.5229    3.6398   -5.5303 H   0  0  0  0  0  0  0  0  0  0  0  0
   10.8240    5.9274   -4.7189 H   0  0  0  0  0  0  0  0  0  0  0  0
    9.9299    6.1670   -6.2360 H   0  0  0  0  0  0  0  0  0  0  0  0
   11.8410    8.1993   -5.7322 H   0  0  0  0  0  0  0  0  0  0  0  0
   11.2030    7.9553   -7.3814 H   0  0  0  0  0  0  0  0  0  0  0  0
   13.7731    8.9324   -6.9314 H   0  0  0  0  0  0  0  0  0  0  0  0
   13.4186    7.9009   -8.3287 H   0  0  0  0  0  0  0  0  0  0  0  0
   15.0870    7.1511   -5.9892 H   0  0  0  0  0  0  0  0  0  0  0  0
   14.7659    6.2154   -7.4573 H   0  0  0  0  0  0  0  0  0  0  0  0
   13.2914    6.1654   -4.7924 H   0  0  0  0  0  0  0  0  0  0  0  0
   13.5268    4.8280   -5.9479 H   0  0  0  0  0  0  0  0  0  0  0  0
    7.3003    3.0284   -4.2843 H   0  0  0  0  0  0  0  0  0  0  0  0
    6.4068    0.7128   -4.2324 H   0  0  0  0  0  0  0  0  0  0  0  0
    8.2154   -2.2288   -7.3707 H   0  0  0  0  0  0  0  0  0  0  0  0
    5.0673   -6.5018   -8.1362 H   0  0  0  0  0  0  0  0  0  0  0  0
    4.8097   -8.5763   -9.4681 H   0  0  0  0  0  0  0  0  0  0  0  0
    5.7599  -10.5273  -10.4892 H   0  0  0  0  0  0  0  0  0  0  0  0
    7.4967  -10.8041  -10.4725 H   0  0  0  0  0  0  0  0  0  0  0  0
    7.9303  -11.4577  -12.9514 H   0  0  0  0  0  0  0  0  0  0  0  0
    6.8672  -10.7060  -14.1647 H   0  0  0  0  0  0  0  0  0  0  0  0
    4.8521  -11.8149  -12.9645 H   0  0  0  0  0  0  0  0  0  0  0  0
    7.1220  -13.7619  -13.8253 H   0  0  0  0  0  0  0  0  0  0  0  0
    5.3234  -14.1244  -13.7839 H   0  0  0  0  0  0  0  0  0  0  0  0
    7.0930  -13.2695  -11.3440 H   0  0  0  0  0  0  0  0  0  0  0  0
    5.2944  -13.6217  -11.2818 H   0  0  0  0  0  0  0  0  0  0  0  0
    9.3216   -6.6181   -8.8120 H   0  0  0  0  0  0  0  0  0  0  0  0
    5.3803   -6.3655   -4.0151 H   0  0  0  0  0  0  0  0  0  0  0  0
  2  1  1  1
  1 47  1  0
  1 48  1  0
  1 49  1  0
  2  3  1  0
  2  4  1  0
  2  5  1  0
  3 50  1  0
  3 51  1  0
  3 52  1  0
  4 53  1  0
  4 54  1  0
  4 55  1  0
  5  6  1  0
  5 56  1  0
  5 57  1  0
  6  7  1  0
  6 58  1  0
  6 59  1  0
  7  8  1  0
  8  9  1  0
  8 60  1  0
  8 61  1  0
  9 10  1  0
  9 46  1  0
 10 11  1  0
 10 25  2  0
 11 12  2  0
 11 24  1  0
 12 13  1  0
 12 62  1  0
 13 14  2  0
 13 63  1  0
 14 15  1  0
 14 23  1  0
 15 16  1  0
 16 17  1  0
 16 64  1  0
 16 65  1  0
 17 18  1  0
 17 66  1  0
 17 67  1  0
 18 19  1  0
 18 22  1  0
 19 20  1  0
 19 68  1  0
 19 69  1  0
 20 21  1  0
 20 70  1  0
 20 71  1  0
 21 22  1  0
 21 72  1  0
 21 73  1  0
 22 74  1  0
 22 75  1  0
 23 24  2  0
 23 76  1  0
 24 77  1  0
 25 26  1  0
 25 78  1  0
 26 27  1  0
 26 46  2  0
 27 28  1  0
 27 43  2  0
 28 29  1  0
 29 30  2  0
 29 42  1  0
 30 31  1  0
 30 79  1  0
 31 32  2  0
 31 80  1  0
 32 33  1  0
 32 40  1  0
 33 34  1  0
 33 81  1  0
 33 82  1  0
 34 35  2  0
 34 36  1  0
 36 37  1  0
 36 83  1  0
 36 84  1  0
 37 38  1  0
 37 39  1  0
 37 85  1  1
 38 39  1  0
 38 86  1  0
 38 87  1  0
 39 88  1  0
 39 89  1  0
 40 41  1  0
 40 42  2  0
 42 90  1  0
 43 44  1  0
 44 45  2  0
 44 91  1  0
 45 46  1  0
M  END

