
     RDKit          3D

 42 44  0  0  0  0  0  0  0  0999 V2000
    1.0085   -0.2733    0.0420 C   0  0  0  0  0  0  0  0  0  0  0  0
    2.5365   -0.0580    0.0800 C   0  0  1  0  0  0  0  0  0  0  0  0
    3.2781   -1.3979   -0.0055 C   0  0  0  0  0  0  0  0  0  0  0  0
    2.9581    0.9774   -0.9512 C   0  0  0  0  0  0  0  0  0  0  0  0
    3.5064    0.6118   -2.2043 C   0  0  0  0  0  0  0  0  0  0  0  0
    3.9086    1.5546   -3.1661 C   0  0  0  0  0  0  0  0  0  0  0  0
    3.6696    2.9504   -2.8951 C   0  0  0  0  0  0  0  0  0  0  0  0
    3.1786    3.3302   -1.6223 C   0  0  0  0  0  0  0  0  0  0  0  0
    2.7943    2.3424   -0.6345 C   0  0  0  0  0  0  0  0  0  0  0  0
    2.9663    4.6579   -1.3407 N   0  0  0  0  0  0  0  0  0  0  0  0
    3.5655    5.6208   -2.2140 C   0  0  0  0  0  0  0  0  0  0  0  0
    3.3426    5.2893   -3.7066 C   0  0  2  0  0  0  0  0  0  0  0  0
    4.1480    6.3224   -4.5689 C   0  0  0  0  0  0  0  0  0  0  0  0
    3.1308    7.0199   -5.4898 C   0  0  0  0  0  0  0  0  0  0  0  0
    1.8105    6.9288   -4.7119 C   0  0  0  0  0  0  0  0  0  0  0  0
    1.8503    5.5178   -4.1109 C   0  0  0  0  0  0  0  0  0  0  0  0
    3.7758    3.8937   -3.9266 N   0  0  0  0  0  0  0  0  0  0  0  0
    3.7888    3.4107   -5.2994 C   0  0  0  0  0  0  0  0  0  0  0  0
    0.6793   -0.9341    0.8622 H   0  0  0  0  0  0  0  0  0  0  0  0
    0.7047   -0.7353   -0.9121 H   0  0  0  0  0  0  0  0  0  0  0  0
    0.4762    0.6858    0.1339 H   0  0  0  0  0  0  0  0  0  0  0  0
    2.7701    0.3847    1.0675 H   0  0  0  0  0  0  0  0  0  0  0  0
    3.0185   -1.9521   -0.9226 H   0  0  0  0  0  0  0  0  0  0  0  0
    3.0068   -2.0414    0.8473 H   0  0  0  0  0  0  0  0  0  0  0  0
    4.3706   -1.2593    0.0066 H   0  0  0  0  0  0  0  0  0  0  0  0
    3.6547   -0.4469   -2.4303 H   0  0  0  0  0  0  0  0  0  0  0  0
    4.4894    1.2341   -4.0306 H   0  0  0  0  0  0  0  0  0  0  0  0
    2.6587    2.6596    0.4052 H   0  0  0  0  0  0  0  0  0  0  0  0
    2.1265    4.9063   -0.8010 H   0  0  0  0  0  0  0  0  0  0  0  0
    4.6569    5.6579   -2.0310 H   0  0  0  0  0  0  0  0  0  0  0  0
    3.1510    6.6202   -2.0036 H   0  0  0  0  0  0  0  0  0  0  0  0
    4.9811    5.8511   -5.1091 H   0  0  0  0  0  0  0  0  0  0  0  0
    4.6094    7.0613   -3.8921 H   0  0  0  0  0  0  0  0  0  0  0  0
    3.0357    6.4758   -6.4458 H   0  0  0  0  0  0  0  0  0  0  0  0
    3.4213    8.0530   -5.7379 H   0  0  0  0  0  0  0  0  0  0  0  0
    0.9206    7.1044   -5.3364 H   0  0  0  0  0  0  0  0  0  0  0  0
    1.7929    7.6872   -3.9086 H   0  0  0  0  0  0  0  0  0  0  0  0
    1.5480    4.7792   -4.8694 H   0  0  0  0  0  0  0  0  0  0  0  0
    1.1750    5.3834   -3.2494 H   0  0  0  0  0  0  0  0  0  0  0  0
    3.8802    4.2576   -5.9894 H   0  0  0  0  0  0  0  0  0  0  0  0
    2.8755    2.8450   -5.5572 H   0  0  0  0  0  0  0  0  0  0  0  0
    4.6500    2.7493   -5.4695 H   0  0  0  0  0  0  0  0  0  0  0  0
  1  2  1  0
  1 19  1  0
  1 20  1  0
  1 21  1  0
  2  3  1  0
  2  4  1  0
  2 22  1  1
  3 23  1  0
  3 24  1  0
  3 25  1  0
  4  5  2  0
  4  9  1  0
  5  6  1  0
  5 26  1  0
  6  7  2  0
  6 27  1  0
  7  8  1  0
  7 17  1  0
  8  9  2  0
  8 10  1  0
  9 28  1  0
 10 11  1  0
 10 29  1  0
 11 12  1  0
 11 30  1  0
 11 31  1  0
 12 13  1  0
 12 16  1  0
 12 17  1  6
 13 14  1  0
 13 32  1  0
 13 33  1  0
 14 15  1  0
 14 34  1  0
 14 35  1  0
 15 16  1  0
 15 36  1  0
 15 37  1  0
 16 38  1  0
 16 39  1  0
 17 18  1  0
 18 40  1  0
 18 41  1  0
 18 42  1  0
M  END

