
     RDKit          3D

 37 38  0  0  0  0  0  0  0  0999 V2000
    0.8459    1.9020   -0.3740 C   0  0  0  0  0  0  0  0  0  0  0  0
    2.3212    1.7381   -0.2253 C   0  0  0  0  0  0  0  0  0  0  0  0
    3.1255    1.1025   -1.1859 C   0  0  0  0  0  0  0  0  0  0  0  0
    4.5030    0.9114   -1.0865 C   0  0  0  0  0  0  0  0  0  0  0  0
    5.2188    1.3269   -0.0536 O   0  0  0  0  0  0  0  0  0  0  0  0
    5.2553    0.2746   -2.0388 N   0  0  0  0  0  0  0  0  0  0  0  0
    6.7185    0.2362   -2.0150 C   0  0  2  0  0  0  0  0  0  0  0  0
    7.3946    1.5576   -2.4671 C   0  0  0  0  0  0  0  0  0  0  0  0
    7.4178    1.7223   -3.9918 C   0  0  0  0  0  0  0  0  0  0  0  0
    8.2418    0.6159   -4.6782 C   0  0  0  0  0  0  0  0  0  0  0  0
    7.8805   -0.7077   -4.0772 C   0  0  0  0  0  0  0  0  0  0  0  0
    7.2016   -0.8948   -2.8748 C   0  0  0  0  0  0  0  0  0  0  0  0
    7.0992   -2.3009   -2.7379 C   0  0  0  0  0  0  0  0  0  0  0  0
    7.6737   -2.9211   -3.7608 N   0  0  0  0  0  0  0  0  0  0  0  0
    8.1533   -1.9457   -4.5676 N   0  0  0  0  0  0  0  0  0  0  0  0
    8.8296   -2.3100   -5.8095 C   0  0  0  0  0  0  0  0  0  0  0  0
    9.7704   -3.5049   -5.6243 C   0  0  0  0  0  0  0  0  0  0  0  0
    9.0884   -4.7012   -5.3843 O   0  0  0  0  0  0  0  0  0  0  0  0
    0.2764    1.4022    0.4363 H   0  0  0  0  0  0  0  0  0  0  0  0
    0.4852    1.4830   -1.3280 H   0  0  0  0  0  0  0  0  0  0  0  0
    0.5293    2.9645   -0.3437 H   0  0  0  0  0  0  0  0  0  0  0  0
    2.7818    2.1332    0.6832 H   0  0  0  0  0  0  0  0  0  0  0  0
    2.6697    0.6993   -2.0958 H   0  0  0  0  0  0  0  0  0  0  0  0
    4.7865    0.0683   -2.9132 H   0  0  0  0  0  0  0  0  0  0  0  0
    6.9952    0.0607   -0.9603 H   0  0  0  0  0  0  0  0  0  0  0  0
    8.4296    1.5612   -2.0814 H   0  0  0  0  0  0  0  0  0  0  0  0
    6.8776    2.4017   -1.9871 H   0  0  0  0  0  0  0  0  0  0  0  0
    7.8247    2.7090   -4.2614 H   0  0  0  0  0  0  0  0  0  0  0  0
    6.3833    1.6983   -4.3774 H   0  0  0  0  0  0  0  0  0  0  0  0
    9.3217    0.8099   -4.5360 H   0  0  0  0  0  0  0  0  0  0  0  0
    8.0674    0.6238   -5.7668 H   0  0  0  0  0  0  0  0  0  0  0  0
    6.6358   -2.8776   -1.9374 H   0  0  0  0  0  0  0  0  0  0  0  0
    9.3922   -1.4297   -6.1535 H   0  0  0  0  0  0  0  0  0  0  0  0
    8.0772   -2.5622   -6.5770 H   0  0  0  0  0  0  0  0  0  0  0  0
   10.5000   -3.2576   -4.8231 H   0  0  0  0  0  0  0  0  0  0  0  0
   10.3468   -3.6267   -6.5571 H   0  0  0  0  0  0  0  0  0  0  0  0
    8.4976   -4.5225   -4.6283 H   0  0  0  0  0  0  0  0  0  0  0  0
  1  2  1  0
  1 19  1  0
  1 20  1  0
  1 21  1  0
  2  3  2  0
  2 22  1  0
  3  4  1  0
  3 23  1  0
  4  5  2  0
  4  6  1  0
  6  7  1  0
  6 24  1  0
  7  8  1  0
  7 12  1  0
  7 25  1  1
  8  9  1  0
  8 26  1  0
  8 27  1  0
  9 10  1  0
  9 28  1  0
  9 29  1  0
 10 11  1  0
 10 30  1  0
 10 31  1  0
 11 12  2  0
 11 15  1  0
 12 13  1  0
 13 14  2  0
 13 32  1  0
 14 15  1  0
 15 16  1  0
 16 17  1  0
 16 33  1  0
 16 34  1  0
 17 18  1  0
 17 35  1  0
 17 36  1  0
 18 37  1  0
M  END

