
     RDKit          3D

 45 47  0  0  0  0  0  0  0  0999 V2000
    4.5036    0.9113    1.6212 C   0  0  0  0  0  0  0  0  0  0  0  0
    4.2428    0.4717    0.1737 C   0  0  1  0  0  0  0  0  0  0  0  0
    3.1687   -0.6253    0.0996 C   0  0  0  0  0  0  0  0  0  0  0  0
    3.7825    1.6803   -0.6520 C   0  0  0  0  0  0  0  0  0  0  0  0
    2.8037    2.3299   -0.3352 O   0  0  0  0  0  0  0  0  0  0  0  0
    4.5570    1.9460   -1.7647 N   0  0  0  0  0  0  0  0  0  0  0  0
    4.4086    2.9480   -2.7355 C   0  0  0  0  0  0  0  0  0  0  0  0
    3.3746    3.9067   -2.7090 C   0  0  0  0  0  0  0  0  0  0  0  0
    3.3046    4.8612   -3.7171 C   0  0  0  0  0  0  0  0  0  0  0  0
    4.2392    4.9022   -4.7688 C   0  0  0  0  0  0  0  0  0  0  0  0
    4.0656    5.9496   -5.8161 C   0  0  0  0  0  0  0  0  0  0  0  0
    3.1252    6.7224   -5.7965 O   0  0  0  0  0  0  0  0  0  0  0  0
    5.0856    6.0724   -6.9526 C   0  0  0  0  0  0  0  0  0  0  0  0
    6.5180    7.1169   -6.4364 S   0  0  0  0  0  0  0  0  0  0  0  0
    7.8557    5.9885   -6.6352 C   0  0  0  0  0  0  0  0  0  0  0  0
    7.7843    4.7383   -6.9650 N   0  0  0  0  0  0  0  0  0  0  0  0
    8.9901    4.1027   -7.0317 N   0  0  0  0  0  0  0  0  0  0  0  0
    9.9927    4.8875   -6.7600 C   0  0  0  0  0  0  0  0  0  0  0  0
   11.3088    4.5195   -6.7995 N   0  0  0  0  0  0  0  0  0  0  0  0
   11.6788    3.1459   -6.9959 C   0  0  1  0  0  0  0  0  0  0  0  0
   11.7208    2.6016   -8.3975 C   0  0  0  0  0  0  0  0  0  0  0  0
   13.0042    2.8740   -7.6563 C   0  0  0  0  0  0  0  0  0  0  0  0
    9.5122    6.5526   -6.3709 S   0  0  0  0  0  0  0  0  0  0  0  0
    5.2682    3.9431   -4.7863 C   0  0  0  0  0  0  0  0  0  0  0  0
    5.3486    2.9827   -3.7835 C   0  0  0  0  0  0  0  0  0  0  0  0
    4.7915    0.0491    2.2429 H   0  0  0  0  0  0  0  0  0  0  0  0
    3.5939    1.3620    2.0461 H   0  0  0  0  0  0  0  0  0  0  0  0
    5.3106    1.6591    1.6784 H   0  0  0  0  0  0  0  0  0  0  0  0
    5.1822    0.0744   -0.2514 H   0  0  0  0  0  0  0  0  0  0  0  0
    2.2095   -0.2391    0.4767 H   0  0  0  0  0  0  0  0  0  0  0  0
    3.4595   -1.4949    0.7097 H   0  0  0  0  0  0  0  0  0  0  0  0
    3.0125   -0.9706   -0.9350 H   0  0  0  0  0  0  0  0  0  0  0  0
    5.3456    1.3264   -1.9090 H   0  0  0  0  0  0  0  0  0  0  0  0
    2.6468    3.8838   -1.9016 H   0  0  0  0  0  0  0  0  0  0  0  0
    2.5074    5.6071   -3.7120 H   0  0  0  0  0  0  0  0  0  0  0  0
    4.5946    6.6035   -7.7779 H   0  0  0  0  0  0  0  0  0  0  0  0
    5.4948    5.1164   -7.3030 H   0  0  0  0  0  0  0  0  0  0  0  0
   11.9552    5.0952   -6.2717 H   0  0  0  0  0  0  0  0  0  0  0  0
   11.3469    2.4541   -6.2103 H   0  0  0  0  0  0  0  0  0  0  0  0
   11.4419    3.2863   -9.2017 H   0  0  0  0  0  0  0  0  0  0  0  0
   11.4031    1.5665   -8.5462 H   0  0  0  0  0  0  0  0  0  0  0  0
   13.5958    3.7390   -7.9702 H   0  0  0  0  0  0  0  0  0  0  0  0
   13.5942    2.0315   -7.2858 H   0  0  0  0  0  0  0  0  0  0  0  0
    6.0214    3.9368   -5.5771 H   0  0  0  0  0  0  0  0  0  0  0  0
    6.1548    2.2433   -3.8126 H   0  0  0  0  0  0  0  0  0  0  0  0
  1  2  1  0
  1 26  1  0
  1 27  1  0
  1 28  1  0
  2  3  1  0
  2  4  1  0
  2 29  1  6
  3 30  1  0
  3 31  1  0
  3 32  1  0
  4  5  2  0
  4  6  1  0
  6  7  1  0
  6 33  1  0
  7  8  2  0
  7 25  1  0
  8  9  1  0
  8 34  1  0
  9 10  2  0
  9 35  1  0
 10 11  1  0
 10 24  1  0
 11 12  2  0
 11 13  1  0
 13 14  1  0
 13 36  1  0
 13 37  1  0
 14 15  1  0
 15 16  2  0
 15 23  1  0
 16 17  1  0
 17 18  2  0
 18 19  1  0
 18 23  1  0
 19 20  1  0
 19 38  1  0
 20 21  1  0
 20 22  1  0
 20 39  1  1
 21 22  1  0
 21 40  1  0
 21 41  1  0
 22 42  1  0
 22 43  1  0
 24 25  2  0
 24 44  1  0
 25 45  1  0
M  END

