
     RDKit          3D

 75 78  0  0  0  0  0  0  0  0999 V2000
    2.7603   -0.9443    0.8155 C   0  0  0  0  0  0  0  0  0  0  0  0
    3.4741    0.2206    0.4570 O   0  0  0  0  0  0  0  0  0  0  0  0
    3.5810    0.5636   -0.8460 C   0  0  0  0  0  0  0  0  0  0  0  0
    3.0342   -0.1647   -1.9090 C   0  0  0  0  0  0  0  0  0  0  0  0
    3.1612    0.2929   -3.2215 C   0  0  0  0  0  0  0  0  0  0  0  0
    3.8631    1.4950   -3.5218 C   0  0  0  0  0  0  0  0  0  0  0  0
    4.0245    1.9528   -4.8839 C   0  0  0  0  0  0  0  0  0  0  0  0
    3.9494    1.1984   -6.0814 C   0  0  0  0  0  0  0  0  0  0  0  0
    4.1183   -0.2386   -6.2509 C   0  0  0  0  0  0  0  0  0  0  0  0
    4.8478   -1.0222   -5.3091 C   0  0  0  0  0  0  0  0  0  0  0  0
    4.9909   -2.4027   -5.4693 C   0  0  0  0  0  0  0  0  0  0  0  0
    4.4472   -3.0488   -6.5817 C   0  0  0  0  0  0  0  0  0  0  0  0
    4.5309   -4.3641   -6.8400 O   0  0  0  0  0  0  0  0  0  0  0  0
    5.1984   -5.2111   -5.9277 C   0  0  0  0  0  0  0  0  0  0  0  0
    3.7588   -2.2625   -7.5710 C   0  0  0  0  0  0  0  0  0  0  0  0
    3.2965   -2.9470   -8.6257 O   0  0  0  0  0  0  0  0  0  0  0  0
    2.6321   -2.2534   -9.6698 C   0  0  0  0  0  0  0  0  0  0  0  0
    3.6067   -0.8868   -7.3916 C   0  0  0  0  0  0  0  0  0  0  0  0
    3.8666    2.1272   -7.2073 C   0  0  0  0  0  0  0  0  0  0  0  0
    3.7530    1.9103   -8.4175 O   0  0  0  0  0  0  0  0  0  0  0  0
    3.9858    3.4116   -6.6444 N   0  0  0  0  0  0  0  0  0  0  0  0
    3.9570    4.6417   -7.4179 C   0  0  0  0  0  0  0  0  0  0  0  0
    2.6368    5.3597   -7.3067 C   0  0  0  0  0  0  0  0  0  0  0  0
    1.8044    5.5617   -8.3419 C   0  0  0  0  0  0  0  0  0  0  0  0
    0.5065    6.2561   -8.3250 C   0  0  0  0  0  0  0  0  0  0  0  0
   -0.0504    6.7874   -7.1465 C   0  0  0  0  0  0  0  0  0  0  0  0
   -1.2885    7.4369   -7.1804 C   0  0  0  0  0  0  0  0  0  0  0  0
   -1.8990    7.9811   -6.0961 O   0  0  0  0  0  0  0  0  0  0  0  0
   -1.2813    7.8715   -4.8338 C   0  0  0  0  0  0  0  0  0  0  0  0
   -2.0003    7.5600   -8.3948 C   0  0  0  0  0  0  0  0  0  0  0  0
   -3.2354    8.1344   -8.4260 O   0  0  0  0  0  0  0  0  0  0  0  0
   -3.2609    9.5514   -8.4635 C   0  0  0  0  0  0  0  0  0  0  0  0
   -1.4341    7.0463   -9.5780 C   0  0  0  0  0  0  0  0  0  0  0  0
   -2.1671    7.2324  -10.7053 O   0  0  0  0  0  0  0  0  0  0  0  0
   -1.6895    6.7198  -11.9263 C   0  0  0  0  0  0  0  0  0  0  0  0
   -0.1953    6.3898   -9.5361 C   0  0  0  0  0  0  0  0  0  0  0  0
    4.1073    3.3776   -5.2524 C   0  0  0  0  0  0  0  0  0  0  0  0
    4.2205    4.3801   -4.5446 O   0  0  0  0  0  0  0  0  0  0  0  0
    4.3777    2.2402   -2.4314 C   0  0  0  0  0  0  0  0  0  0  0  0
    4.2631    1.7912   -1.1232 C   0  0  0  0  0  0  0  0  0  0  0  0
    4.7424    2.5721   -0.1192 O   0  0  0  0  0  0  0  0  0  0  0  0
    5.7970    2.0676    0.6881 C   0  0  0  0  0  0  0  0  0  0  0  0
    2.8043   -1.0117    1.9104 H   0  0  0  0  0  0  0  0  0  0  0  0
    3.2136   -1.8520    0.3786 H   0  0  0  0  0  0  0  0  0  0  0  0
    1.7039   -0.8848    0.5000 H   0  0  0  0  0  0  0  0  0  0  0  0
    2.4672   -1.0762   -1.7187 H   0  0  0  0  0  0  0  0  0  0  0  0
    2.6467   -0.2411   -4.0195 H   0  0  0  0  0  0  0  0  0  0  0  0
    5.3541   -0.5288   -4.4807 H   0  0  0  0  0  0  0  0  0  0  0  0
    5.5578   -2.9672   -4.7291 H   0  0  0  0  0  0  0  0  0  0  0  0
    5.1219   -6.2275   -6.3350 H   0  0  0  0  0  0  0  0  0  0  0  0
    4.7269   -5.1833   -4.9293 H   0  0  0  0  0  0  0  0  0  0  0  0
    6.2644   -4.9403   -5.8283 H   0  0  0  0  0  0  0  0  0  0  0  0
    2.3808   -3.0078  -10.4259 H   0  0  0  0  0  0  0  0  0  0  0  0
    3.2813   -1.4822  -10.1163 H   0  0  0  0  0  0  0  0  0  0  0  0
    1.7068   -1.7755   -9.3066 H   0  0  0  0  0  0  0  0  0  0  0  0
    3.1082   -0.2769   -8.1418 H   0  0  0  0  0  0  0  0  0  0  0  0
    4.1675    4.3661   -8.4608 H   0  0  0  0  0  0  0  0  0  0  0  0
    4.7655    5.2900   -7.0406 H   0  0  0  0  0  0  0  0  0  0  0  0
    2.3878    5.7097   -6.2995 H   0  0  0  0  0  0  0  0  0  0  0  0
    2.1070    5.1751   -9.3226 H   0  0  0  0  0  0  0  0  0  0  0  0
    0.4891    6.6885   -6.2067 H   0  0  0  0  0  0  0  0  0  0  0  0
   -1.9521    8.3603   -4.1144 H   0  0  0  0  0  0  0  0  0  0  0  0
   -0.2992    8.3775   -4.8083 H   0  0  0  0  0  0  0  0  0  0  0  0
   -1.1424    6.8172   -4.5346 H   0  0  0  0  0  0  0  0  0  0  0  0
   -4.3179    9.8519   -8.5024 H   0  0  0  0  0  0  0  0  0  0  0  0
   -2.7469    9.9392   -9.3615 H   0  0  0  0  0  0  0  0  0  0  0  0
   -2.7972    9.9887   -7.5625 H   0  0  0  0  0  0  0  0  0  0  0  0
   -2.4392    6.9761  -12.6874 H   0  0  0  0  0  0  0  0  0  0  0  0
   -1.5735    5.6211  -11.8963 H   0  0  0  0  0  0  0  0  0  0  0  0
   -0.7212    7.1686  -12.2147 H   0  0  0  0  0  0  0  0  0  0  0  0
    0.2445    5.9804  -10.4452 H   0  0  0  0  0  0  0  0  0  0  0  0
    4.8740    3.1926   -2.6146 H   0  0  0  0  0  0  0  0  0  0  0  0
    6.0594    2.8682    1.3933 H   0  0  0  0  0  0  0  0  0  0  0  0
    6.6844    1.8307    0.0734 H   0  0  0  0  0  0  0  0  0  0  0  0
    5.4942    1.1720    1.2522 H   0  0  0  0  0  0  0  0  0  0  0  0
  1  2  1  0
  1 43  1  0
  1 44  1  0
  1 45  1  0
  2  3  1  0
  3  4  2  0
  3 40  1  0
  4  5  1  0
  4 46  1  0
  5  6  2  0
  5 47  1  0
  6  7  1  0
  6 39  1  0
  7  8  2  0
  7 37  1  0
  8  9  1  0
  8 19  1  0
  9 10  2  0
  9 18  1  0
 10 11  1  0
 10 48  1  0
 11 12  2  0
 11 49  1  0
 12 13  1  0
 12 15  1  0
 13 14  1  0
 14 50  1  0
 14 51  1  0
 14 52  1  0
 15 16  1  0
 15 18  2  0
 16 17  1  0
 17 53  1  0
 17 54  1  0
 17 55  1  0
 18 56  1  0
 19 20  2  0
 19 21  1  0
 21 22  1  0
 21 37  1  0
 22 23  1  0
 22 57  1  0
 22 58  1  0
 23 24  2  0
 23 59  1  0
 24 25  1  0
 24 60  1  0
 25 26  2  0
 25 36  1  0
 26 27  1  0
 26 61  1  0
 27 28  1  0
 27 30  2  0
 28 29  1  0
 29 62  1  0
 29 63  1  0
 29 64  1  0
 30 31  1  0
 30 33  1  0
 31 32  1  0
 32 65  1  0
 32 66  1  0
 32 67  1  0
 33 34  1  0
 33 36  2  0
 34 35  1  0
 35 68  1  0
 35 69  1  0
 35 70  1  0
 36 71  1  0
 37 38  2  0
 39 40  2  0
 39 72  1  0
 40 41  1  0
 41 42  1  0
 42 73  1  0
 42 74  1  0
 42 75  1  0
M  END

