
     RDKit          3D

 64 67  0  0  0  0  0  0  0  0999 V2000
    5.4387    1.8486   -3.6922 C   0  0  0  0  0  0  0  0  0  0  0  0
    4.8439    1.2198   -2.5906 O   0  0  0  0  0  0  0  0  0  0  0  0
    5.0169   -0.1772   -2.5709 C   0  0  0  0  0  0  0  0  0  0  0  0
    4.3395   -0.7193   -1.3191 C   0  0  0  0  0  0  0  0  0  0  0  0
    4.3746   -2.2429   -1.1744 C   0  0  0  0  0  0  0  0  0  0  0  0
    5.7240   -2.8090   -1.0383 N   0  0  0  0  0  0  0  0  0  0  0  0
    6.3677   -3.3032   -2.1793 C   0  0  0  0  0  0  0  0  0  0  0  0
    5.8300   -3.3684   -3.2675 O   0  0  0  0  0  0  0  0  0  0  0  0
    7.7630   -3.7341   -1.8710 C   0  0  0  0  0  0  0  0  0  0  0  0
    8.4687   -4.3746   -2.8377 C   0  0  0  0  0  0  0  0  0  0  0  0
    9.7835   -5.0043   -2.8853 C   0  0  0  0  0  0  0  0  0  0  0  0
    9.9075   -6.1593   -3.6974 C   0  0  0  0  0  0  0  0  0  0  0  0
   11.0693   -6.9131   -3.8229 C   0  0  0  0  0  0  0  0  0  0  0  0
   12.2421   -6.5044   -3.1122 C   0  0  0  0  0  0  0  0  0  0  0  0
   12.1598   -5.3212   -2.3467 C   0  0  0  0  0  0  0  0  0  0  0  0
   10.9713   -4.5976   -2.2456 C   0  0  0  0  0  0  0  0  0  0  0  0
   11.0548   -3.0878   -1.3659 Cl  0  0  0  0  0  0  0  0  0  0  0  0
   13.4108   -7.2264   -3.1804 N   0  0  0  0  0  0  0  0  0  0  0  0
   14.5637   -6.7404   -2.4415 C   0  0  0  0  0  0  0  0  0  0  0  0
   13.6028   -8.4069   -4.0631 C   0  0  1  0  0  0  0  0  0  0  0  0
   14.6546   -8.0900   -5.1558 C   0  0  0  0  0  0  0  0  0  0  0  0
   14.0632   -9.6271   -3.2283 C   0  0  0  0  0  0  0  0  0  0  0  0
   12.3091   -8.7795   -4.7486 C   0  0  0  0  0  0  0  0  0  0  0  0
   11.1425   -8.1177   -4.6603 C   0  0  0  0  0  0  0  0  0  0  0  0
    9.9193   -8.5863   -5.4042 C   0  0  0  0  0  0  0  0  0  0  0  0
    8.1386   -3.3940   -0.1832 S   0  0  0  0  0  0  0  0  0  0  0  0
    6.4701   -2.8121    0.1421 C   0  0  0  0  0  0  0  0  0  0  0  0
    6.1893   -2.4693    1.3268 N   0  0  0  0  0  0  0  0  0  0  0  0
    4.9955   -2.0988    1.9406 C   0  0  0  0  0  0  0  0  0  0  0  0
    3.9787   -3.0415    2.2012 C   0  0  0  0  0  0  0  0  0  0  0  0
    2.8300   -2.6679    2.9023 C   0  0  0  0  0  0  0  0  0  0  0  0
    2.6686   -1.3562    3.3594 C   0  0  0  0  0  0  0  0  0  0  0  0
    3.6804   -0.4210    3.1176 C   0  0  0  0  0  0  0  0  0  0  0  0
    4.8374   -0.7858    2.4277 C   0  0  0  0  0  0  0  0  0  0  0  0
    5.2457    2.9286   -3.6101 H   0  0  0  0  0  0  0  0  0  0  0  0
    5.0205    1.4885   -4.6550 H   0  0  0  0  0  0  0  0  0  0  0  0
    6.5364    1.6887   -3.7223 H   0  0  0  0  0  0  0  0  0  0  0  0
    6.0979   -0.4311   -2.5743 H   0  0  0  0  0  0  0  0  0  0  0  0
    4.5846   -0.6439   -3.4805 H   0  0  0  0  0  0  0  0  0  0  0  0
    3.2813   -0.4086   -1.3372 H   0  0  0  0  0  0  0  0  0  0  0  0
    4.7839   -0.2384   -0.4330 H   0  0  0  0  0  0  0  0  0  0  0  0
    3.9492   -2.7212   -2.0680 H   0  0  0  0  0  0  0  0  0  0  0  0
    3.7777   -2.5481   -0.3076 H   0  0  0  0  0  0  0  0  0  0  0  0
    7.8714   -4.5131   -3.7470 H   0  0  0  0  0  0  0  0  0  0  0  0
    9.0159   -6.4802   -4.2382 H   0  0  0  0  0  0  0  0  0  0  0  0
   13.0294   -4.9231   -1.8319 H   0  0  0  0  0  0  0  0  0  0  0  0
   14.3443   -6.6580   -1.3634 H   0  0  0  0  0  0  0  0  0  0  0  0
   14.8966   -5.7479   -2.7954 H   0  0  0  0  0  0  0  0  0  0  0  0
   15.4046   -7.4318   -2.5542 H   0  0  0  0  0  0  0  0  0  0  0  0
   15.6473   -7.8835   -4.7258 H   0  0  0  0  0  0  0  0  0  0  0  0
   14.3408   -7.2173   -5.7479 H   0  0  0  0  0  0  0  0  0  0  0  0
   14.7631   -8.9469   -5.8392 H   0  0  0  0  0  0  0  0  0  0  0  0
   15.0491   -9.4705   -2.7646 H   0  0  0  0  0  0  0  0  0  0  0  0
   14.1454  -10.5148   -3.8746 H   0  0  0  0  0  0  0  0  0  0  0  0
   13.3330   -9.8455   -2.4350 H   0  0  0  0  0  0  0  0  0  0  0  0
   12.3742   -9.6747   -5.3745 H   0  0  0  0  0  0  0  0  0  0  0  0
   10.1337   -9.4953   -5.9838 H   0  0  0  0  0  0  0  0  0  0  0  0
    9.5535   -7.8158   -6.1037 H   0  0  0  0  0  0  0  0  0  0  0  0
    9.0888   -8.8103   -4.7139 H   0  0  0  0  0  0  0  0  0  0  0  0
    4.1090   -4.0718    1.8612 H   0  0  0  0  0  0  0  0  0  0  0  0
    2.0541   -3.4140    3.0947 H   0  0  0  0  0  0  0  0  0  0  0  0
    1.7679   -1.0681    3.9064 H   0  0  0  0  0  0  0  0  0  0  0  0
    3.5728    0.6062    3.4764 H   0  0  0  0  0  0  0  0  0  0  0  0
    5.6375   -0.0623    2.2567 H   0  0  0  0  0  0  0  0  0  0  0  0
  1  2  1  0
  1 35  1  0
  1 36  1  0
  1 37  1  0
  2  3  1  0
  3  4  1  0
  3 38  1  0
  3 39  1  0
  4  5  1  0
  4 40  1  0
  4 41  1  0
  5  6  1  0
  5 42  1  0
  5 43  1  0
  6  7  1  0
  6 27  1  0
  7  8  2  0
  7  9  1  0
  9 10  2  0
  9 26  1  0
 10 11  1  0
 10 44  1  0
 11 12  2  0
 11 16  1  0
 12 13  1  0
 12 45  1  0
 13 14  2  0
 13 24  1  0
 14 15  1  0
 14 18  1  0
 15 16  2  0
 15 46  1  0
 16 17  1  0
 18 19  1  0
 18 20  1  0
 19 47  1  0
 19 48  1  0
 19 49  1  0
 20 21  1  6
 20 22  1  0
 20 23  1  0
 21 50  1  0
 21 51  1  0
 21 52  1  0
 22 53  1  0
 22 54  1  0
 22 55  1  0
 23 24  2  0
 23 56  1  0
 24 25  1  0
 25 57  1  0
 25 58  1  0
 25 59  1  0
 26 27  1  0
 27 28  2  0
 28 29  1  0
 29 30  2  0
 29 34  1  0
 30 31  1  0
 30 60  1  0
 31 32  2  0
 31 61  1  0
 32 33  1  0
 32 62  1  0
 33 34  2  0
 33 63  1  0
 34 64  1  0
M  END

