
     RDKit          3D

 42 45  0  0  0  0  0  0  0  0999 V2000
    0.5371    0.5412    0.1105 O   0  0  0  0  0  0  0  0  0  0  0  0
    1.7372    0.3210    0.1435 C   0  0  0  0  0  0  0  0  0  0  0  0
    2.3413   -0.4897   -0.7944 N   0  0  0  0  0  0  0  0  0  0  0  0
    1.6922   -1.0971   -1.8585 C   0  0  0  0  0  0  0  0  0  0  0  0
    2.3317   -1.8671   -2.6867 N   0  0  0  0  0  0  0  0  0  0  0  0
    1.4974   -2.3601   -3.6698 C   0  0  0  0  0  0  0  0  0  0  0  0
    2.0536   -3.2581   -4.7044 C   0  0  0  0  0  0  0  0  0  0  0  0
    3.4172   -3.6036   -4.6709 C   0  0  0  0  0  0  0  0  0  0  0  0
    3.9636   -4.4502   -5.6372 C   0  0  0  0  0  0  0  0  0  0  0  0
    3.1609   -4.9698   -6.6568 C   0  0  0  0  0  0  0  0  0  0  0  0
    1.8034   -4.6335   -6.7009 C   0  0  0  0  0  0  0  0  0  0  0  0
    1.2559   -3.7875   -5.7365 C   0  0  0  0  0  0  0  0  0  0  0  0
    0.1929   -1.9347   -3.5601 C   0  0  0  0  0  0  0  0  0  0  0  0
   -0.0172   -0.8916   -2.1881 S   0  0  0  0  0  0  0  0  0  0  0  0
    2.6333    0.8891    1.2034 C   0  0  0  0  0  0  0  0  0  0  0  0
    2.0327    1.3339    2.3905 C   0  0  0  0  0  0  0  0  0  0  0  0
    2.8221    1.8621    3.4104 C   0  0  0  0  0  0  0  0  0  0  0  0
    4.2081    1.9594    3.2629 C   0  0  0  0  0  0  0  0  0  0  0  0
    4.8090    1.5386    2.0678 C   0  0  0  0  0  0  0  0  0  0  0  0
    6.2231    1.6407    1.8929 N   0  0  0  0  0  0  0  0  0  0  0  0
    6.9986    2.7239    2.3635 C   0  0  0  0  0  0  0  0  0  0  0  0
    6.5714    3.6711    2.9711 O   0  0  0  0  0  0  0  0  0  0  0  0
    8.4459    2.4764    1.9604 C   0  0  0  0  0  0  0  0  0  0  0  0
    8.4564    1.1030    1.2901 C   0  0  0  0  0  0  0  0  0  0  0  0
    6.9998    0.6656    1.2323 C   0  0  0  0  0  0  0  0  0  0  0  0
    6.5685   -0.3356    0.7180 O   0  0  0  0  0  0  0  0  0  0  0  0
    4.0191    1.0126    1.0374 C   0  0  0  0  0  0  0  0  0  0  0  0
    3.3171   -0.7543   -0.7011 H   0  0  0  0  0  0  0  0  0  0  0  0
    4.0376   -3.1949   -3.8724 H   0  0  0  0  0  0  0  0  0  0  0  0
    5.0255   -4.7063   -5.5923 H   0  0  0  0  0  0  0  0  0  0  0  0
    3.5886   -5.6327   -7.4132 H   0  0  0  0  0  0  0  0  0  0  0  0
    1.1656   -5.0333   -7.4936 H   0  0  0  0  0  0  0  0  0  0  0  0
    0.1940   -3.5378   -5.7915 H   0  0  0  0  0  0  0  0  0  0  0  0
   -0.6547   -2.1739   -4.1981 H   0  0  0  0  0  0  0  0  0  0  0  0
    0.9491    1.2532    2.4904 H   0  0  0  0  0  0  0  0  0  0  0  0
    2.3581    2.2020    4.3391 H   0  0  0  0  0  0  0  0  0  0  0  0
    4.8173    2.3784    4.0617 H   0  0  0  0  0  0  0  0  0  0  0  0
    9.0768    2.5469    2.8590 H   0  0  0  0  0  0  0  0  0  0  0  0
    8.7563    3.2947    1.2921 H   0  0  0  0  0  0  0  0  0  0  0  0
    9.0167    0.3413    1.8547 H   0  0  0  0  0  0  0  0  0  0  0  0
    8.8642    1.1007    0.2682 H   0  0  0  0  0  0  0  0  0  0  0  0
    4.5000    0.7146    0.1081 H   0  0  0  0  0  0  0  0  0  0  0  0
  1  2  2  0
  2  3  1  0
  2 15  1  0
  3  4  1  0
  3 28  1  0
  4  5  2  0
  4 14  1  0
  5  6  1  0
  6  7  1  0
  6 13  2  0
  7  8  2  0
  7 12  1  0
  8  9  1  0
  8 29  1  0
  9 10  2  0
  9 30  1  0
 10 11  1  0
 10 31  1  0
 11 12  2  0
 11 32  1  0
 12 33  1  0
 13 14  1  0
 13 34  1  0
 15 16  2  0
 15 27  1  0
 16 17  1  0
 16 35  1  0
 17 18  2  0
 17 36  1  0
 18 19  1  0
 18 37  1  0
 19 20  1  0
 19 27  2  0
 20 21  1  0
 20 25  1  0
 21 22  2  0
 21 23  1  0
 23 24  1  0
 23 38  1  0
 23 39  1  0
 24 25  1  0
 24 40  1  0
 24 41  1  0
 25 26  2  0
 27 42  1  0
M  END

