
     RDKit          3D

 38 38  0  0  0  0  0  0  0  0999 V2000
    2.5014    2.0602    2.6750 C   0  0  0  0  0  0  0  0  0  0  0  0
    3.1508    1.2505    1.5890 C   0  0  0  0  0  0  0  0  0  0  0  0
    3.0843   -0.0746    1.3893 C   0  0  0  0  0  0  0  0  0  0  0  0
    2.3414   -1.1116    2.1970 C   0  0  1  0  0  0  0  0  0  0  0  0
    1.2496   -1.7737    1.3400 C   0  0  0  0  0  0  0  0  0  0  0  0
    3.3600   -2.1386    2.7772 C   0  0  0  0  0  0  0  0  0  0  0  0
    2.7796   -3.2058    3.6836 C   0  0  0  0  0  0  0  0  0  0  0  0
    2.4480   -4.4698    3.1462 C   0  0  0  0  0  0  0  0  0  0  0  0
    2.6842   -4.6385    1.8142 O   0  0  0  0  0  0  0  0  0  0  0  0
    2.4018   -5.8759    1.2043 C   0  0  0  0  0  0  0  0  0  0  0  0
    1.9150   -5.4775    3.9569 C   0  0  0  0  0  0  0  0  0  0  0  0
    1.6985   -5.2683    5.3247 C   0  0  0  0  0  0  0  0  0  0  0  0
    1.1208   -6.3643    6.1826 C   0  0  0  0  0  0  0  0  0  0  0  0
    2.0425   -4.0151    5.8523 C   0  0  0  0  0  0  0  0  0  0  0  0
    1.7904   -3.7687    7.5839 Cl  0  0  0  0  0  0  0  0  0  0  0  0
    2.5771   -2.9761    5.0623 C   0  0  0  0  0  0  0  0  0  0  0  0
    2.9691   -1.6501    5.6722 C   0  0  0  0  0  0  0  0  0  0  0  0
    3.2585    2.6070    3.2645 H   0  0  0  0  0  0  0  0  0  0  0  0
    1.9081    1.4513    3.3721 H   0  0  0  0  0  0  0  0  0  0  0  0
    1.8326    2.8273    2.2463 H   0  0  0  0  0  0  0  0  0  0  0  0
    3.7490    1.8321    0.8758 H   0  0  0  0  0  0  0  0  0  0  0  0
    3.6316   -0.4815    0.5280 H   0  0  0  0  0  0  0  0  0  0  0  0
    1.8412   -0.6157    3.0445 H   0  0  0  0  0  0  0  0  0  0  0  0
    1.6857   -2.2863    0.4676 H   0  0  0  0  0  0  0  0  0  0  0  0
    0.5388   -1.0178    0.9708 H   0  0  0  0  0  0  0  0  0  0  0  0
    0.6836   -2.5206    1.9179 H   0  0  0  0  0  0  0  0  0  0  0  0
    4.1326   -1.5739    3.3207 H   0  0  0  0  0  0  0  0  0  0  0  0
    3.8684   -2.6298    1.9343 H   0  0  0  0  0  0  0  0  0  0  0  0
    2.6817   -5.7740    0.1469 H   0  0  0  0  0  0  0  0  0  0  0  0
    1.3283   -6.1311    1.2652 H   0  0  0  0  0  0  0  0  0  0  0  0
    2.9874   -6.6998    1.6508 H   0  0  0  0  0  0  0  0  0  0  0  0
    1.6582   -6.4496    3.5363 H   0  0  0  0  0  0  0  0  0  0  0  0
    0.9101   -7.2632    5.5856 H   0  0  0  0  0  0  0  0  0  0  0  0
    0.1851   -6.0409    6.6668 H   0  0  0  0  0  0  0  0  0  0  0  0
    1.8107   -6.6415    6.9962 H   0  0  0  0  0  0  0  0  0  0  0  0
    2.5718   -1.5412    6.6874 H   0  0  0  0  0  0  0  0  0  0  0  0
    2.6096   -0.8031    5.0717 H   0  0  0  0  0  0  0  0  0  0  0  0
    4.0674   -1.5570    5.7333 H   0  0  0  0  0  0  0  0  0  0  0  0
  1  2  1  0
  1 18  1  0
  1 19  1  0
  1 20  1  0
  2  3  2  0
  2 21  1  0
  3  4  1  0
  3 22  1  0
  4  5  1  0
  4  6  1  0
  4 23  1  1
  5 24  1  0
  5 25  1  0
  5 26  1  0
  6  7  1  0
  6 27  1  0
  6 28  1  0
  7  8  2  0
  7 16  1  0
  8  9  1  0
  8 11  1  0
  9 10  1  0
 10 29  1  0
 10 30  1  0
 10 31  1  0
 11 12  2  0
 11 32  1  0
 12 13  1  0
 12 14  1  0
 13 33  1  0
 13 34  1  0
 13 35  1  0
 14 15  1  0
 14 16  2  0
 16 17  1  0
 17 36  1  0
 17 37  1  0
 17 38  1  0
M  END

