
     RDKit          3D

 50 52  0  0  0  0  0  0  0  0999 V2000
    0.4616    0.0017   -1.0067 C   0  0  0  0  0  0  0  0  0  0  0  0
    1.8432    0.1518   -0.3479 C   0  0  1  0  0  0  0  0  0  0  0  0
    2.7867   -1.0340   -0.6726 C   0  0  0  0  0  0  0  0  0  0  0  0
    2.3221   -2.3747   -0.1468 C   0  0  0  0  0  0  0  0  0  0  0  0
    1.7076   -3.3273   -0.9743 C   0  0  0  0  0  0  0  0  0  0  0  0
    1.2635   -4.5477   -0.4699 C   0  0  0  0  0  0  0  0  0  0  0  0
    1.4219   -4.8713    0.8918 C   0  0  0  0  0  0  0  0  0  0  0  0
    2.0506   -3.9293    1.7446 C   0  0  0  0  0  0  0  0  0  0  0  0
    2.4768   -2.7111    1.2072 C   0  0  0  0  0  0  0  0  0  0  0  0
    2.2753   -4.2697    3.2066 C   0  0  0  0  0  0  0  0  0  0  0  0
    1.3303   -5.3745    3.6928 C   0  0  0  0  0  0  0  0  0  0  0  0
    1.3321   -6.5434    2.7078 C   0  0  0  0  0  0  0  0  0  0  0  0
    0.9389   -6.0722    1.3944 N   0  0  0  0  0  0  0  0  0  0  0  0
    2.5114    1.4355   -0.6252 N   0  0  0  0  0  0  0  0  0  0  0  0
    2.6328    1.7946   -2.0266 C   0  0  0  0  0  0  0  0  0  0  0  0
    2.0906    2.5365    0.2271 C   0  0  0  0  0  0  0  0  0  0  0  0
    2.7654    2.5162    1.6164 C   0  0  0  0  0  0  0  0  0  0  0  0
    2.3487    3.6819    2.4793 C   0  0  0  0  0  0  0  0  0  0  0  0
    1.2136    3.6249    3.3016 C   0  0  0  0  0  0  0  0  0  0  0  0
    0.8478    4.7479    4.0492 C   0  0  0  0  0  0  0  0  0  0  0  0
    1.5229    5.9001    4.0326 N   0  0  0  0  0  0  0  0  0  0  0  0
    2.6046    5.9606    3.2516 C   0  0  0  0  0  0  0  0  0  0  0  0
    3.0527    4.8953    2.4656 C   0  0  0  0  0  0  0  0  0  0  0  0
   -0.0418   -0.9094   -0.6506 H   0  0  0  0  0  0  0  0  0  0  0  0
    0.5396   -0.0712   -2.1037 H   0  0  0  0  0  0  0  0  0  0  0  0
   -0.1900    0.8587   -0.7713 H   0  0  0  0  0  0  0  0  0  0  0  0
    1.6883    0.1257    0.7435 H   0  0  0  0  0  0  0  0  0  0  0  0
    3.7709   -0.7800   -0.2469 H   0  0  0  0  0  0  0  0  0  0  0  0
    2.9255   -1.1027   -1.7649 H   0  0  0  0  0  0  0  0  0  0  0  0
    1.5739   -3.1121   -2.0387 H   0  0  0  0  0  0  0  0  0  0  0  0
    0.7824   -5.2699   -1.1367 H   0  0  0  0  0  0  0  0  0  0  0  0
    2.9646   -1.9956    1.8791 H   0  0  0  0  0  0  0  0  0  0  0  0
    2.1594   -3.3650    3.8261 H   0  0  0  0  0  0  0  0  0  0  0  0
    3.3214   -4.6004    3.3500 H   0  0  0  0  0  0  0  0  0  0  0  0
    0.3022   -4.9822    3.7737 H   0  0  0  0  0  0  0  0  0  0  0  0
    1.6263   -5.7275    4.6934 H   0  0  0  0  0  0  0  0  0  0  0  0
    0.6208   -7.3208    3.0314 H   0  0  0  0  0  0  0  0  0  0  0  0
    2.3401   -7.0131    2.7011 H   0  0  0  0  0  0  0  0  0  0  0  0
    0.7212   -6.7815    0.7055 H   0  0  0  0  0  0  0  0  0  0  0  0
    3.0179    0.9440   -2.6089 H   0  0  0  0  0  0  0  0  0  0  0  0
    3.3588    2.6162   -2.1399 H   0  0  0  0  0  0  0  0  0  0  0  0
    1.6832    2.1229   -2.5045 H   0  0  0  0  0  0  0  0  0  0  0  0
    0.9870    2.5819    0.3603 H   0  0  0  0  0  0  0  0  0  0  0  0
    2.3650    3.4816   -0.2684 H   0  0  0  0  0  0  0  0  0  0  0  0
    3.8561    2.5226    1.4636 H   0  0  0  0  0  0  0  0  0  0  0  0
    2.5190    1.5736    2.1313 H   0  0  0  0  0  0  0  0  0  0  0  0
    0.6190    2.7092    3.3672 H   0  0  0  0  0  0  0  0  0  0  0  0
   -0.0369    4.7087    4.6967 H   0  0  0  0  0  0  0  0  0  0  0  0
    3.1535    6.9104    3.2492 H   0  0  0  0  0  0  0  0  0  0  0  0
    3.9508    5.0096    1.8519 H   0  0  0  0  0  0  0  0  0  0  0  0
  1  2  1  0
  1 24  1  0
  1 25  1  0
  1 26  1  0
  2  3  1  0
  2 14  1  0
  2 27  1  1
  3  4  1  0
  3 28  1  0
  3 29  1  0
  4  5  2  0
  4  9  1  0
  5  6  1  0
  5 30  1  0
  6  7  2  0
  6 31  1  0
  7  8  1  0
  7 13  1  0
  8  9  2  0
  8 10  1  0
  9 32  1  0
 10 11  1  0
 10 33  1  0
 10 34  1  0
 11 12  1  0
 11 35  1  0
 11 36  1  0
 12 13  1  0
 12 37  1  0
 12 38  1  0
 13 39  1  0
 14 15  1  0
 14 16  1  0
 15 40  1  0
 15 41  1  0
 15 42  1  0
 16 17  1  0
 16 43  1  0
 16 44  1  0
 17 18  1  0
 17 45  1  0
 17 46  1  0
 18 19  2  0
 18 23  1  0
 19 20  1  0
 19 47  1  0
 20 21  2  0
 20 48  1  0
 21 22  1  0
 22 23  2  0
 22 49  1  0
 23 50  1  0
M  END

