
     RDKit          3D

 38 40  0  0  0  0  0  0  0  0999 V2000
    7.6476   -1.6066   -0.5450 O   0  0  0  0  0  0  0  0  0  0  0  0
    6.8813   -2.0709   -1.3599 C   0  0  0  0  0  0  0  0  0  0  0  0
    7.1903   -3.1464   -2.2203 N   0  0  0  0  0  0  0  0  0  0  0  0
    8.3671   -3.8724   -2.3591 C   0  0  0  0  0  0  0  0  0  0  0  0
    9.5414   -3.5820   -1.6136 C   0  0  0  0  0  0  0  0  0  0  0  0
   10.6857   -4.3951   -1.8733 C   0  0  0  0  0  0  0  0  0  0  0  0
   10.6363   -5.4412   -2.8039 C   0  0  0  0  0  0  0  0  0  0  0  0
    9.4551   -5.7423   -3.5425 C   0  0  0  0  0  0  0  0  0  0  0  0
    9.3675   -6.8933   -4.4646 C   0  0  1  0  0  0  0  0  0  0  0  0
   10.5704   -7.4328   -4.7387 F   0  0  0  0  0  0  0  0  0  0  0  0
    8.5891   -7.9112   -3.9862 F   0  0  0  0  0  0  0  0  0  0  0  0
    8.7897   -6.5586   -5.6519 F   0  0  0  0  0  0  0  0  0  0  0  0
    8.2988   -4.9225   -3.3174 C   0  0  0  0  0  0  0  0  0  0  0  0
    5.6006   -1.6108   -1.5631 N   0  0  0  0  0  0  0  0  0  0  0  0
    5.0552   -0.5026   -0.8009 C   0  0  1  0  0  0  0  0  0  0  0  0
    5.8831   -0.0030   -0.2825 H   0  0  0  0  0  0  0  0  0  0  0  0
    4.2227    0.4148   -1.6987 C   0  0  0  0  0  0  0  0  0  0  0  0
    2.9985   -0.3116   -1.8794 O   0  0  0  0  0  0  0  0  0  0  0  0
    2.6664   -0.9248   -0.6340 C   0  0  2  0  0  0  0  0  0  0  0  0
    2.2383   -1.9147   -0.8483 H   0  0  0  0  0  0  0  0  0  0  0  0
    1.6947   -0.0354    0.2143 C   0  0  2  0  0  0  0  0  0  0  0  0
    0.7174   -0.5377    0.3505 H   0  0  0  0  0  0  0  0  0  0  0  0
    1.5341    1.2333   -0.3667 O   0  0  0  0  0  0  0  0  0  0  0  0
    2.4450    0.0886    1.5423 C   0  0  0  0  0  0  0  0  0  0  0  0
    3.8257    0.0068    1.2154 O   0  0  0  0  0  0  0  0  0  0  0  0
    3.9772   -0.9617    0.2028 C   0  0  2  0  0  0  0  0  0  0  0  0
    4.2013   -1.9585    0.6256 H   0  0  0  0  0  0  0  0  0  0  0  0
    6.4436   -3.4586   -2.8357 H   0  0  0  0  0  0  0  0  0  0  0  0
    9.5495   -2.7792   -0.8842 H   0  0  0  0  0  0  0  0  0  0  0  0
   11.6165   -4.1990   -1.3386 H   0  0  0  0  0  0  0  0  0  0  0  0
   11.5276   -6.0476   -2.9792 H   0  0  0  0  0  0  0  0  0  0  0  0
    7.3842   -5.0865   -3.8913 H   0  0  0  0  0  0  0  0  0  0  0  0
    5.0027   -2.0167   -2.2753 H   0  0  0  0  0  0  0  0  0  0  0  0
    4.6660    0.5965   -2.6877 H   0  0  0  0  0  0  0  0  0  0  0  0
    4.0348    1.3730   -1.1871 H   0  0  0  0  0  0  0  0  0  0  0  0
    1.5823    1.1080   -1.3281 H   0  0  0  0  0  0  0  0  0  0  0  0
    2.1577   -0.7301    2.2321 H   0  0  0  0  0  0  0  0  0  0  0  0
    2.2553    1.0548    2.0295 H   0  0  0  0  0  0  0  0  0  0  0  0
  1  2  2  0
  2  3  1  0
  2 14  1  0
  3  4  1  0
  3 28  1  0
  4  5  2  0
  4 13  1  0
  5  6  1  0
  5 29  1  0
  6  7  2  0
  6 30  1  0
  7  8  1  0
  7 31  1  0
  8  9  1  0
  8 13  2  0
  9 10  1  6
  9 11  1  0
  9 12  1  0
 13 32  1  0
 14 15  1  0
 14 33  1  0
 15 16  1  1
 15 17  1  0
 15 26  1  0
 17 18  1  0
 17 34  1  0
 17 35  1  0
 18 19  1  0
 19 20  1  6
 19 21  1  0
 19 26  1  0
 21 22  1  1
 21 23  1  0
 21 24  1  0
 23 36  1  0
 24 25  1  0
 24 37  1  0
 24 38  1  0
 25 26  1  0
 26 27  1  1
M  END

