
     RDKit          3D

 64 66  0  0  0  0  0  0  0  0999 V2000
    7.0773   12.7933    3.8722 C   0  0  0  0  0  0  0  0  0  0  0  0
    6.7992   11.2896    3.8567 C   0  0  0  0  0  0  0  0  0  0  0  0
    7.8532   10.4637    4.6008 C   0  0  0  0  0  0  0  0  0  0  0  0
    7.5823    8.9565    4.5917 C   0  0  0  0  0  0  0  0  0  0  0  0
    8.6362    8.1325    5.3374 C   0  0  0  0  0  0  0  0  0  0  0  0
    8.3658    6.6248    5.3361 C   0  0  0  0  0  0  0  0  0  0  0  0
    9.3956    5.8118    6.1300 C   0  0  0  0  0  0  0  0  0  0  0  0
    9.1501    4.2977    6.1478 C   0  0  0  0  0  0  0  0  0  0  0  0
    9.4722    3.5443    4.8503 C   0  0  0  0  0  0  0  0  0  0  0  0
   10.8903    3.5568    4.4892 N   0  0  0  0  0  0  0  0  0  0  0  0
   11.5350    4.2285    3.4844 C   0  0  0  0  0  0  0  0  0  0  0  0
   10.8706    5.1024    2.6557 N   0  0  0  0  0  0  0  0  0  0  0  0
   11.4670    5.5545    1.5347 N   0  0  0  0  0  0  0  0  0  0  0  0
   10.8387    6.3910    0.7775 C   0  0  0  0  0  0  0  0  0  0  0  0
    9.4591    6.9138    1.1090 C   0  0  0  0  0  0  0  0  0  0  0  0
   11.5920    6.8748   -0.4100 C   0  0  0  0  0  0  0  0  0  0  0  0
   12.9948    6.9797   -0.3434 C   0  0  0  0  0  0  0  0  0  0  0  0
   13.7551    7.4181   -1.4258 C   0  0  0  0  0  0  0  0  0  0  0  0
   13.1170    7.7641   -2.6209 C   0  0  0  0  0  0  0  0  0  0  0  0
   11.7303    7.6565   -2.7212 C   0  0  0  0  0  0  0  0  0  0  0  0
   10.9671    7.2082   -1.6342 C   0  0  0  0  0  0  0  0  0  0  0  0
    9.6156    7.0590   -1.7434 O   0  0  0  0  0  0  0  0  0  0  0  0
   12.8321    3.9474    3.4011 N   0  0  0  0  0  0  0  0  0  0  0  0
   13.0402    3.0503    4.3903 C   0  0  0  0  0  0  0  0  0  0  0  0
   11.8807    2.7786    5.1007 C   0  0  0  0  0  0  0  0  0  0  0  0
   11.8381    1.8474    6.1878 C   0  0  0  0  0  0  0  0  0  0  0  0
   10.8857    1.5190    6.8834 O   0  0  0  0  0  0  0  0  0  0  0  0
   13.1219    1.3001    6.3980 N   0  0  0  0  0  0  0  0  0  0  0  0
   13.1919    0.6257    7.1552 H   0  0  0  0  0  0  0  0  0  0  0  0
   14.3260    1.5359    5.7320 C   0  0  0  0  0  0  0  0  0  0  0  0
   15.3548    0.9724    6.0510 O   0  0  0  0  0  0  0  0  0  0  0  0
   14.2486    2.4593    4.6861 N   0  0  0  0  0  0  0  0  0  0  0  0
   15.4388    2.7868    3.9108 C   0  0  0  0  0  0  0  0  0  0  0  0
    6.3004   13.3550    3.3294 H   0  0  0  0  0  0  0  0  0  0  0  0
    8.0469   13.0269    3.4010 H   0  0  0  0  0  0  0  0  0  0  0  0
    7.1111   13.1840    4.9031 H   0  0  0  0  0  0  0  0  0  0  0  0
    6.7341   10.9370    2.8109 H   0  0  0  0  0  0  0  0  0  0  0  0
    5.8058   11.0935    4.3000 H   0  0  0  0  0  0  0  0  0  0  0  0
    7.9191   10.8156    5.6473 H   0  0  0  0  0  0  0  0  0  0  0  0
    8.8481   10.6587    4.1582 H   0  0  0  0  0  0  0  0  0  0  0  0
    7.5155    8.6053    3.5446 H   0  0  0  0  0  0  0  0  0  0  0  0
    6.5877    8.7617    5.0342 H   0  0  0  0  0  0  0  0  0  0  0  0
    8.7016    8.4850    6.3832 H   0  0  0  0  0  0  0  0  0  0  0  0
    9.6327    8.3253    4.8975 H   0  0  0  0  0  0  0  0  0  0  0  0
    8.3165    6.2711    4.2878 H   0  0  0  0  0  0  0  0  0  0  0  0
    7.3591    6.4332    5.7508 H   0  0  0  0  0  0  0  0  0  0  0  0
    9.3968    6.1757    7.1719 H   0  0  0  0  0  0  0  0  0  0  0  0
   10.4124    6.0201    5.7489 H   0  0  0  0  0  0  0  0  0  0  0  0
    8.0907    4.0958    6.3867 H   0  0  0  0  0  0  0  0  0  0  0  0
    9.7328    3.8209    6.9507 H   0  0  0  0  0  0  0  0  0  0  0  0
    8.9027    3.9383    3.9939 H   0  0  0  0  0  0  0  0  0  0  0  0
    9.1793    2.4914    4.9722 H   0  0  0  0  0  0  0  0  0  0  0  0
    9.9181    5.3703    2.8910 H   0  0  0  0  0  0  0  0  0  0  0  0
    9.4399    7.3055    2.1419 H   0  0  0  0  0  0  0  0  0  0  0  0
    8.6953    6.1185    1.0368 H   0  0  0  0  0  0  0  0  0  0  0  0
    9.1505    7.7160    0.4331 H   0  0  0  0  0  0  0  0  0  0  0  0
   13.4753    6.7005    0.5958 H   0  0  0  0  0  0  0  0  0  0  0  0
   14.8410    7.4946   -1.3361 H   0  0  0  0  0  0  0  0  0  0  0  0
   13.6954    8.1158   -3.4789 H   0  0  0  0  0  0  0  0  0  0  0  0
   11.2230    7.9092   -3.6584 H   0  0  0  0  0  0  0  0  0  0  0  0
    9.3416    7.2977   -2.6388 H   0  0  0  0  0  0  0  0  0  0  0  0
   16.2654    2.1834    4.3012 H   0  0  0  0  0  0  0  0  0  0  0  0
   15.6744    3.8577    4.0043 H   0  0  0  0  0  0  0  0  0  0  0  0
   15.2729    2.5640    2.8464 H   0  0  0  0  0  0  0  0  0  0  0  0
  1  2  1  0
  1 34  1  0
  1 35  1  0
  1 36  1  0
  2  3  1  0
  2 37  1  0
  2 38  1  0
  3  4  1  0
  3 39  1  0
  3 40  1  0
  4  5  1  0
  4 41  1  0
  4 42  1  0
  5  6  1  0
  5 43  1  0
  5 44  1  0
  6  7  1  0
  6 45  1  0
  6 46  1  0
  7  8  1  0
  7 47  1  0
  7 48  1  0
  8  9  1  0
  8 49  1  0
  8 50  1  0
  9 10  1  0
  9 51  1  0
  9 52  1  0
 10 11  1  0
 10 25  1  0
 11 12  1  0
 11 23  2  0
 12 13  1  0
 12 53  1  0
 13 14  2  0
 14 15  1  0
 14 16  1  0
 15 54  1  0
 15 55  1  0
 15 56  1  0
 16 17  2  0
 16 21  1  0
 17 18  1  0
 17 57  1  0
 18 19  2  0
 18 58  1  0
 19 20  1  0
 19 59  1  0
 20 21  2  0
 20 60  1  0
 21 22  1  0
 22 61  1  0
 23 24  1  0
 24 25  2  0
 24 32  1  0
 25 26  1  0
 26 27  2  0
 26 28  1  0
 28 29  1  0
 28 30  1  0
 30 31  2  0
 30 32  1  0
 32 33  1  0
 33 62  1  0
 33 63  1  0
 33 64  1  0
M  END

