
     RDKit          3D

 50 52  0  0  0  0  0  0  0  0999 V2000
    3.9092   -8.9467   -5.6467 C   0  0  0  0  0  0  0  0  0  0  0  0
    4.7879   -7.7401   -5.9370 C   0  0  0  0  0  0  0  0  0  0  0  0
    5.3897   -7.5784   -6.9848 O   0  0  0  0  0  0  0  0  0  0  0  0
    4.8616   -6.8195   -4.9313 N   0  0  0  0  0  0  0  0  0  0  0  0
    5.6036   -5.5658   -4.8913 C   0  0  0  0  0  0  0  0  0  0  0  0
    4.9695   -5.2936   -3.4916 C   0  0  2  0  0  0  0  0  0  0  0  0
    5.8560   -5.0433   -2.3871 N   0  0  0  0  0  0  0  0  0  0  0  0
    5.7462   -3.9372   -1.5843 C   0  0  0  0  0  0  0  0  0  0  0  0
    4.8786   -3.0943   -1.7214 O   0  0  0  0  0  0  0  0  0  0  0  0
    6.8056   -3.8111   -0.4844 C   0  0  0  0  0  0  0  0  0  0  0  0
    7.1223   -5.0825    0.3169 C   0  0  0  0  0  0  0  0  0  0  0  0
    7.9028   -6.0821   -0.4212 N   0  0  0  0  0  0  0  0  0  0  0  0
    9.3063   -5.7976   -0.5926 C   0  0  0  0  0  0  0  0  0  0  0  0
   10.1309   -6.2354    0.7060 C   0  0  0  0  0  0  0  0  0  0  0  0
    9.8638   -7.6120    0.9706 N   0  0  0  0  0  0  0  0  0  0  0  0
   10.8179   -8.6558    0.6948 C   0  0  0  0  0  0  0  0  0  0  0  0
   11.6264   -9.1926    1.7898 C   0  0  0  0  0  0  0  0  0  0  0  0
   12.5342  -10.1912    1.5070 C   0  0  0  0  0  0  0  0  0  0  0  0
   12.6826  -10.7576    0.2139 C   0  0  0  0  0  0  0  0  0  0  0  0
   11.8462  -10.2413   -0.8540 C   0  0  0  0  0  0  0  0  0  0  0  0
   10.9584   -9.2202   -0.6157 C   0  0  0  0  0  0  0  0  0  0  0  0
    8.4797   -7.8918    1.1990 C   0  0  0  0  0  0  0  0  0  0  0  0
    7.6605   -7.4671   -0.0982 C   0  0  0  0  0  0  0  0  0  0  0  0
    4.3136   -6.7072   -3.5835 C   0  0  0  0  0  0  0  0  0  0  0  0
    3.9671   -9.6339   -6.4994 H   0  0  0  0  0  0  0  0  0  0  0  0
    2.8602   -8.6417   -5.4987 H   0  0  0  0  0  0  0  0  0  0  0  0
    4.2333   -9.4708   -4.7328 H   0  0  0  0  0  0  0  0  0  0  0  0
    5.3469   -4.8540   -5.6924 H   0  0  0  0  0  0  0  0  0  0  0  0
    6.7011   -5.6970   -4.8780 H   0  0  0  0  0  0  0  0  0  0  0  0
    4.2366   -4.4777   -3.4996 H   0  0  0  0  0  0  0  0  0  0  0  0
    6.6399   -5.6703   -2.2233 H   0  0  0  0  0  0  0  0  0  0  0  0
    6.4282   -3.0401    0.2010 H   0  0  0  0  0  0  0  0  0  0  0  0
    7.7269   -3.4000   -0.9331 H   0  0  0  0  0  0  0  0  0  0  0  0
    6.1818   -5.5561    0.6356 H   0  0  0  0  0  0  0  0  0  0  0  0
    7.6512   -4.7867    1.2455 H   0  0  0  0  0  0  0  0  0  0  0  0
    9.4690   -4.7262   -0.7722 H   0  0  0  0  0  0  0  0  0  0  0  0
    9.7068   -6.3658   -1.4425 H   0  0  0  0  0  0  0  0  0  0  0  0
    9.7873   -5.5894    1.5363 H   0  0  0  0  0  0  0  0  0  0  0  0
   11.2008   -6.0864    0.5252 H   0  0  0  0  0  0  0  0  0  0  0  0
   11.5742   -8.7497    2.7877 H   0  0  0  0  0  0  0  0  0  0  0  0
   13.1613  -10.5601    2.3274 H   0  0  0  0  0  0  0  0  0  0  0  0
   13.3981  -11.5570    0.0250 H   0  0  0  0  0  0  0  0  0  0  0  0
   11.9507  -10.6340   -1.8687 H   0  0  0  0  0  0  0  0  0  0  0  0
   10.3490   -8.8424   -1.4444 H   0  0  0  0  0  0  0  0  0  0  0  0
    8.0788   -7.2958    2.0393 H   0  0  0  0  0  0  0  0  0  0  0  0
    8.3421   -8.9602    1.3980 H   0  0  0  0  0  0  0  0  0  0  0  0
    6.5893   -7.6396    0.0776 H   0  0  0  0  0  0  0  0  0  0  0  0
    7.9979   -8.1116   -0.9222 H   0  0  0  0  0  0  0  0  0  0  0  0
    3.2120   -6.7293   -3.5173 H   0  0  0  0  0  0  0  0  0  0  0  0
    4.7231   -7.4391   -2.8611 H   0  0  0  0  0  0  0  0  0  0  0  0
  1  2  1  0
  1 25  1  0
  1 26  1  0
  1 27  1  0
  2  3  2  0
  2  4  1  0
  4  5  1  0
  4 24  1  0
  5  6  1  0
  5 28  1  0
  5 29  1  0
  6  7  1  0
  6 24  1  0
  6 30  1  6
  7  8  1  0
  7 31  1  0
  8  9  2  0
  8 10  1  0
 10 11  1  0
 10 32  1  0
 10 33  1  0
 11 12  1  0
 11 34  1  0
 11 35  1  0
 12 13  1  0
 12 23  1  0
 13 14  1  0
 13 36  1  0
 13 37  1  0
 14 15  1  0
 14 38  1  0
 14 39  1  0
 15 16  1  0
 15 22  1  0
 16 17  2  0
 16 21  1  0
 17 18  1  0
 17 40  1  0
 18 19  2  0
 18 41  1  0
 19 20  1  0
 19 42  1  0
 20 21  2  0
 20 43  1  0
 21 44  1  0
 22 23  1  0
 22 45  1  0
 22 46  1  0
 23 47  1  0
 23 48  1  0
 24 49  1  0
 24 50  1  0
M  END

