
     RDKit          3D

 32 33  0  0  0  0  0  0  0  0999 V2000
    0.7448    0.1900   -0.1385 C   0  0  0  0  0  0  0  0  0  0  0  0
    2.2388    0.1257   -0.1153 C   0  0  0  0  0  0  0  0  0  0  0  0
    2.9149   -1.1482   -0.1478 C   0  0  0  0  0  0  0  0  0  0  0  0
    4.2994   -1.1961   -0.1242 C   0  0  0  0  0  0  0  0  0  0  0  0
    5.1345   -0.0281   -0.0826 C   0  0  0  0  0  0  0  0  0  0  0  0
    6.6262   -0.1694   -0.0894 C   0  0  0  0  0  0  0  0  0  0  0  0
    7.3593   -0.2282   -1.4832 C   0  0  1  0  0  0  0  0  0  0  0  0
    7.1319    1.0676   -2.2783 C   0  0  0  0  0  0  0  0  0  0  0  0
    8.8632   -0.3957   -1.2006 C   0  0  0  0  0  0  0  0  0  0  0  0
    6.8609   -1.4292   -2.3052 C   0  0  0  0  0  0  0  0  0  0  0  0
    4.4847    1.2417   -0.0211 C   0  0  0  0  0  0  0  0  0  0  0  0
    5.0058    2.5606    0.1140 C   0  0  0  0  0  0  0  0  0  0  0  0
    4.1570    3.6015    0.1212 N   0  0  0  0  0  0  0  0  0  0  0  0
    2.5670    2.9431   -0.0142 S   0  0  0  0  0  0  0  0  0  0  0  0
    3.0502    1.2712   -0.0649 C   0  0  0  0  0  0  0  0  0  0  0  0
    0.3080   -0.5935    0.5048 H   0  0  0  0  0  0  0  0  0  0  0  0
    0.3531    0.0069   -1.1583 H   0  0  0  0  0  0  0  0  0  0  0  0
    0.3603    1.1665    0.1930 H   0  0  0  0  0  0  0  0  0  0  0  0
    2.3262   -2.0670   -0.1720 H   0  0  0  0  0  0  0  0  0  0  0  0
    4.7951   -2.1706   -0.1332 H   0  0  0  0  0  0  0  0  0  0  0  0
    6.8909   -1.0998    0.4439 H   0  0  0  0  0  0  0  0  0  0  0  0
    7.0776    0.6605    0.4818 H   0  0  0  0  0  0  0  0  0  0  0  0
    7.5098    1.9484   -1.7346 H   0  0  0  0  0  0  0  0  0  0  0  0
    6.0653    1.2359   -2.4916 H   0  0  0  0  0  0  0  0  0  0  0  0
    7.6641    1.0223   -3.2432 H   0  0  0  0  0  0  0  0  0  0  0  0
    9.2572    0.4482   -0.6107 H   0  0  0  0  0  0  0  0  0  0  0  0
    9.4354   -0.4416   -2.1416 H   0  0  0  0  0  0  0  0  0  0  0  0
    9.0664   -1.3224   -0.6388 H   0  0  0  0  0  0  0  0  0  0  0  0
    5.7917   -1.3378   -2.5522 H   0  0  0  0  0  0  0  0  0  0  0  0
    7.0046   -2.3782   -1.7620 H   0  0  0  0  0  0  0  0  0  0  0  0
    7.4177   -1.5028   -3.2537 H   0  0  0  0  0  0  0  0  0  0  0  0
    6.0690    2.7867    0.2360 H   0  0  0  0  0  0  0  0  0  0  0  0
  1  2  1  0
  1 16  1  0
  1 17  1  0
  1 18  1  0
  2  3  2  0
  2 15  1  0
  3  4  1  0
  3 19  1  0
  4  5  2  0
  4 20  1  0
  5  6  1  0
  5 11  1  0
  7  6  1  1
  6 21  1  0
  6 22  1  0
  7  8  1  0
  7  9  1  0
  7 10  1  0
  8 23  1  0
  8 24  1  0
  8 25  1  0
  9 26  1  0
  9 27  1  0
  9 28  1  0
 10 29  1  0
 10 30  1  0
 10 31  1  0
 11 12  1  0
 11 15  2  0
 12 13  2  0
 12 32  1  0
 13 14  1  0
 14 15  1  0
M  END

