
     RDKit          3D

 49 52  0  0  0  0  0  0  0  0999 V2000
    8.1285   -2.5665    4.7317 C   0  0  0  0  0  0  0  0  0  0  0  0
    7.7381   -2.6593    3.2759 C   0  0  0  0  0  0  0  0  0  0  0  0
    6.5146   -3.1671    3.0733 N   0  0  0  0  0  0  0  0  0  0  0  0
    6.1144   -3.2370    1.7252 N   0  0  0  0  0  0  0  0  0  0  0  0
    4.6985   -3.5449    1.5808 C   0  0  0  0  0  0  0  0  0  0  0  0
    4.3673   -4.9388    1.0596 C   0  0  0  0  0  0  0  0  0  0  0  0
    3.5621   -5.6936    1.6119 O   0  0  0  0  0  0  0  0  0  0  0  0
    4.9975   -5.2971   -0.0881 N   0  0  0  0  0  0  0  0  0  0  0  0
    4.5747   -6.4860   -0.7875 C   0  0  1  0  0  0  0  0  0  0  0  0
    5.5779   -6.8288   -1.9025 C   0  0  0  0  0  0  0  0  0  0  0  0
    4.4074   -7.6536    0.1658 C   0  0  0  0  0  0  0  0  0  0  0  0
    5.3879   -7.8858    1.1974 C   0  0  0  0  0  0  0  0  0  0  0  0
    5.3107   -8.9766    2.0260 C   0  0  0  0  0  0  0  0  0  0  0  0
    4.2453   -9.8886    1.8691 C   0  0  0  0  0  0  0  0  0  0  0  0
    3.2964   -9.7062    0.7943 C   0  0  0  0  0  0  0  0  0  0  0  0
    3.3896   -8.5866   -0.0280 C   0  0  0  0  0  0  0  0  0  0  0  0
    2.3295  -10.6052    0.5834 O   0  0  0  0  0  0  0  0  0  0  0  0
    2.4582  -11.8580    1.2671 C   0  0  0  0  0  0  0  0  0  0  0  0
    2.8881  -11.6311    2.6971 C   0  0  0  0  0  0  0  0  0  0  0  0
    4.1218  -10.8914    2.7299 O   0  0  0  0  0  0  0  0  0  0  0  0
    6.8501   -2.9013    0.6189 C   0  0  0  0  0  0  0  0  0  0  0  0
    6.3611   -3.0799   -0.5279 O   0  0  0  0  0  0  0  0  0  0  0  0
    8.1772   -2.3654    0.8688 C   0  0  0  0  0  0  0  0  0  0  0  0
    9.0063   -1.9860   -0.1888 C   0  0  0  0  0  0  0  0  0  0  0  0
   10.2783   -1.4562    0.0457 C   0  0  0  0  0  0  0  0  0  0  0  0
   10.7141   -1.3120    1.3971 C   0  0  0  0  0  0  0  0  0  0  0  0
    9.9226   -1.6820    2.4600 C   0  0  0  0  0  0  0  0  0  0  0  0
    8.6057   -2.2369    2.2507 C   0  0  0  0  0  0  0  0  0  0  0  0
    7.3166   -2.9741    5.3491 H   0  0  0  0  0  0  0  0  0  0  0  0
    8.3095   -1.5230    5.0432 H   0  0  0  0  0  0  0  0  0  0  0  0
    9.0523   -3.1295    4.9495 H   0  0  0  0  0  0  0  0  0  0  0  0
    4.2322   -2.8236    0.8862 H   0  0  0  0  0  0  0  0  0  0  0  0
    4.2476   -3.4416    2.5726 H   0  0  0  0  0  0  0  0  0  0  0  0
    5.5751   -4.5401   -0.5320 H   0  0  0  0  0  0  0  0  0  0  0  0
    3.5840   -6.3253   -1.2559 H   0  0  0  0  0  0  0  0  0  0  0  0
    6.5763   -7.0373   -1.4889 H   0  0  0  0  0  0  0  0  0  0  0  0
    5.6674   -5.9736   -2.5868 H   0  0  0  0  0  0  0  0  0  0  0  0
    5.2430   -7.7026   -2.4809 H   0  0  0  0  0  0  0  0  0  0  0  0
    6.1807   -7.1507    1.3278 H   0  0  0  0  0  0  0  0  0  0  0  0
    6.0220   -9.1441    2.8348 H   0  0  0  0  0  0  0  0  0  0  0  0
    2.6440   -8.4576   -0.8134 H   0  0  0  0  0  0  0  0  0  0  0  0
    3.1903  -12.4824    0.7268 H   0  0  0  0  0  0  0  0  0  0  0  0
    1.4749  -12.3426    1.2206 H   0  0  0  0  0  0  0  0  0  0  0  0
    3.0816  -12.5774    3.2170 H   0  0  0  0  0  0  0  0  0  0  0  0
    2.1325  -11.0578    3.2588 H   0  0  0  0  0  0  0  0  0  0  0  0
    8.6230   -2.1093   -1.2042 H   0  0  0  0  0  0  0  0  0  0  0  0
   10.9223   -1.1514   -0.7804 H   0  0  0  0  0  0  0  0  0  0  0  0
   11.7061   -0.8932    1.5950 H   0  0  0  0  0  0  0  0  0  0  0  0
   10.2941   -1.5516    3.4786 H   0  0  0  0  0  0  0  0  0  0  0  0
  1  2  1  0
  1 29  1  0
  1 30  1  0
  1 31  1  0
  2  3  2  0
  2 28  1  0
  3  4  1  0
  4  5  1  0
  4 21  1  0
  5  6  1  0
  5 32  1  0
  5 33  1  0
  6  7  2  0
  6  8  1  0
  8  9  1  0
  8 34  1  0
  9 10  1  0
  9 11  1  0
  9 35  1  1
 10 36  1  0
 10 37  1  0
 10 38  1  0
 11 12  2  0
 11 16  1  0
 12 13  1  0
 12 39  1  0
 13 14  2  0
 13 40  1  0
 14 15  1  0
 14 20  1  0
 15 16  2  0
 15 17  1  0
 16 41  1  0
 17 18  1  0
 18 19  1  0
 18 42  1  0
 18 43  1  0
 19 20  1  0
 19 44  1  0
 19 45  1  0
 21 22  2  0
 21 23  1  0
 23 24  1  0
 23 28  2  0
 24 25  2  0
 24 46  1  0
 25 26  1  0
 25 47  1  0
 26 27  2  0
 26 48  1  0
 27 28  1  0
 27 49  1  0
M  END

