
     RDKit          3D

 65 66  0  0  0  0  0  0  0  0999 V2000
    5.1449    2.1267    0.2083 C   0  0  0  0  0  0  0  0  0  0  0  0
    4.8866    0.8405   -0.3907 N   0  0  0  0  0  0  0  0  0  0  0  0
    4.8703    0.7227   -1.6684 C   0  0  0  0  0  0  0  0  0  0  0  0
    5.1971    1.7190   -2.5753 N   0  0  0  0  0  0  0  0  0  0  0  0
    4.8646    1.7563   -3.9839 C   0  0  0  0  0  0  0  0  0  0  0  0
    4.1714    3.0418   -4.4777 C   0  0  0  0  0  0  0  0  0  0  0  0
    4.2013    3.3153   -5.6674 O   0  0  0  0  0  0  0  0  0  0  0  0
    3.5357    3.7661   -3.5220 N   0  0  0  0  0  0  0  0  0  0  0  0
    2.7358    4.9914   -3.7468 C   0  0  1  0  0  0  0  0  0  0  0  0
    1.5439    4.6795   -4.6713 C   0  0  0  0  0  0  0  0  0  0  0  0
    2.2294    5.4406   -2.3685 C   0  0  0  0  0  0  0  0  0  0  0  0
    3.6221    6.0883   -4.3644 C   0  0  0  0  0  0  0  0  0  0  0  0
    4.4558   -0.4990   -2.2306 N   0  0  0  0  0  0  0  0  0  0  0  0
    5.4207   -1.3028   -2.9838 C   0  0  0  0  0  0  0  0  0  0  0  0
    6.7616   -1.6001   -2.2681 C   0  0  1  0  0  0  0  0  0  0  0  0
    6.5915   -2.2361   -0.8808 C   0  0  0  0  0  0  0  0  0  0  0  0
    6.0270   -3.6512   -0.9933 C   0  0  0  0  0  0  0  0  0  0  0  0
    6.8963   -4.5328   -1.8898 C   0  0  0  0  0  0  0  0  0  0  0  0
    7.3685   -3.8925   -3.0979 N   0  0  0  0  0  0  0  0  0  0  0  0
    7.7943   -4.7148   -4.1956 C   0  0  0  0  0  0  0  0  0  0  0  0
    7.7054   -2.4289   -3.1859 C   0  0  2  0  0  0  0  0  0  0  0  0
    9.1969   -2.1875   -3.0600 C   0  0  0  0  0  0  0  0  0  0  0  0
    9.7483   -1.1514   -3.8845 C   0  0  0  0  0  0  0  0  0  0  0  0
   10.9667   -0.5708   -3.6211 C   0  0  0  0  0  0  0  0  0  0  0  0
   11.7306   -0.9611   -2.4609 C   0  0  0  0  0  0  0  0  0  0  0  0
   13.0656   -0.3923   -2.2304 C   0  0  1  0  0  0  0  0  0  0  0  0
   13.1108    0.9576   -2.4240 F   0  0  0  0  0  0  0  0  0  0  0  0
   13.5316   -0.6254   -0.9798 F   0  0  0  0  0  0  0  0  0  0  0  0
   14.0396   -0.8745   -3.0735 F   0  0  0  0  0  0  0  0  0  0  0  0
   11.1742   -1.9560   -1.6073 C   0  0  0  0  0  0  0  0  0  0  0  0
    9.9497   -2.5319   -1.8698 C   0  0  0  0  0  0  0  0  0  0  0  0
    4.8537    2.1116    1.2700 H   0  0  0  0  0  0  0  0  0  0  0  0
    4.5944    2.9634   -0.2731 H   0  0  0  0  0  0  0  0  0  0  0  0
    6.2210    2.3951    0.1821 H   0  0  0  0  0  0  0  0  0  0  0  0
    5.7911    2.4616   -2.2255 H   0  0  0  0  0  0  0  0  0  0  0  0
    4.1720    0.9277   -4.1921 H   0  0  0  0  0  0  0  0  0  0  0  0
    5.7425    1.6250   -4.6396 H   0  0  0  0  0  0  0  0  0  0  0  0
    3.5491    3.3777   -2.5852 H   0  0  0  0  0  0  0  0  0  0  0  0
    0.8996    3.9040   -4.2266 H   0  0  0  0  0  0  0  0  0  0  0  0
    1.8990    4.3221   -5.6475 H   0  0  0  0  0  0  0  0  0  0  0  0
    0.9343    5.5834   -4.8277 H   0  0  0  0  0  0  0  0  0  0  0  0
    1.5984    4.6657   -1.9021 H   0  0  0  0  0  0  0  0  0  0  0  0
    1.6229    6.3533   -2.4645 H   0  0  0  0  0  0  0  0  0  0  0  0
    3.0686    5.6631   -1.6889 H   0  0  0  0  0  0  0  0  0  0  0  0
    4.0256    5.7579   -5.3308 H   0  0  0  0  0  0  0  0  0  0  0  0
    4.4647    6.3290   -3.6965 H   0  0  0  0  0  0  0  0  0  0  0  0
    3.0353    7.0070   -4.5217 H   0  0  0  0  0  0  0  0  0  0  0  0
    4.0123   -1.0324   -1.4874 H   0  0  0  0  0  0  0  0  0  0  0  0
    5.6484   -0.8018   -3.9387 H   0  0  0  0  0  0  0  0  0  0  0  0
    4.9017   -2.2366   -3.2617 H   0  0  0  0  0  0  0  0  0  0  0  0
    7.2795   -0.6394   -2.1385 H   0  0  0  0  0  0  0  0  0  0  0  0
    5.9430   -1.6028   -0.2564 H   0  0  0  0  0  0  0  0  0  0  0  0
    7.5719   -2.2625   -0.3810 H   0  0  0  0  0  0  0  0  0  0  0  0
    5.0005   -3.6354   -1.3965 H   0  0  0  0  0  0  0  0  0  0  0  0
    5.9595   -4.1380   -0.0084 H   0  0  0  0  0  0  0  0  0  0  0  0
    6.3946   -5.4731   -2.1707 H   0  0  0  0  0  0  0  0  0  0  0  0
    7.8182   -4.8318   -1.3491 H   0  0  0  0  0  0  0  0  0  0  0  0
    7.8819   -5.7663   -3.8944 H   0  0  0  0  0  0  0  0  0  0  0  0
    8.7528   -4.3245   -4.5671 H   0  0  0  0  0  0  0  0  0  0  0  0
    7.0482   -4.6378   -5.0091 H   0  0  0  0  0  0  0  0  0  0  0  0
    7.4403   -2.1817   -4.2287 H   0  0  0  0  0  0  0  0  0  0  0  0
    9.1915   -0.8208   -4.7696 H   0  0  0  0  0  0  0  0  0  0  0  0
   11.3671    0.1837   -4.3014 H   0  0  0  0  0  0  0  0  0  0  0  0
   11.7372   -2.2713   -0.7259 H   0  0  0  0  0  0  0  0  0  0  0  0
    9.5889   -3.2937   -1.1734 H   0  0  0  0  0  0  0  0  0  0  0  0
  1  2  1  0
  1 32  1  0
  1 33  1  0
  1 34  1  0
  2  3  2  0
  3  4  1  0
  3 13  1  0
  4  5  1  0
  4 35  1  0
  5  6  1  0
  5 36  1  0
  5 37  1  0
  6  7  2  0
  6  8  1  0
  9  8  1  1
  8 38  1  0
  9 10  1  0
  9 11  1  0
  9 12  1  0
 10 39  1  0
 10 40  1  0
 10 41  1  0
 11 42  1  0
 11 43  1  0
 11 44  1  0
 12 45  1  0
 12 46  1  0
 12 47  1  0
 13 14  1  0
 13 48  1  0
 14 15  1  0
 14 49  1  0
 14 50  1  0
 15 16  1  0
 15 21  1  0
 15 51  1  1
 16 17  1  0
 16 52  1  0
 16 53  1  0
 17 18  1  0
 17 54  1  0
 17 55  1  0
 18 19  1  0
 18 56  1  0
 18 57  1  0
 19 20  1  0
 19 21  1  0
 20 58  1  0
 20 59  1  0
 20 60  1  0
 21 22  1  0
 21 61  1  6
 22 23  2  0
 22 31  1  0
 23 24  1  0
 23 62  1  0
 24 25  2  0
 24 63  1  0
 25 26  1  0
 25 30  1  0
 26 27  1  6
 26 28  1  0
 26 29  1  0
 30 31  2  0
 30 64  1  0
 31 65  1  0
M  END

