
     RDKit          3D

 67 71  0  0  0  0  0  0  0  0999 V2000
    0.5844   -1.2824   -1.8350 C   0  0  0  0  0  0  0  0  0  0  0  0
    2.0521   -0.9933   -2.1383 C   0  0  0  0  0  0  0  0  0  0  0  0
    2.7777   -0.2656   -1.0988 N   0  0  0  0  0  0  0  0  0  0  0  0
    2.0634    0.7335   -0.3123 C   0  0  0  0  0  0  0  0  0  0  0  0
    1.9568    2.1153   -0.9690 C   0  0  0  0  0  0  0  0  0  0  0  0
    4.1700   -0.2059   -1.1880 C   0  0  0  0  0  0  0  0  0  0  0  0
    4.9504    0.5210   -0.2416 C   0  0  0  0  0  0  0  0  0  0  0  0
    6.3334    0.5393   -0.3043 C   0  0  0  0  0  0  0  0  0  0  0  0
    7.0494   -0.1518   -1.3122 C   0  0  0  0  0  0  0  0  0  0  0  0
    8.4599   -0.1888   -1.4515 C   0  0  0  0  0  0  0  0  0  0  0  0
    9.0968   -0.8932   -2.4844 C   0  0  0  0  0  0  0  0  0  0  0  0
   10.5147   -0.9094   -2.5831 C   0  0  0  0  0  0  0  0  0  0  0  0
   11.3093   -1.5562   -3.5406 C   0  0  0  0  0  0  0  0  0  0  0  0
   12.7073   -1.5715   -3.6290 C   0  0  0  0  0  0  0  0  0  0  0  0
   13.7106   -0.9636   -2.8072 C   0  0  0  0  0  0  0  0  0  0  0  0
   15.0864   -1.1472   -3.1182 C   0  0  0  0  0  0  0  0  0  0  0  0
   16.2041   -1.3255   -3.4080 N   0  0  0  0  0  0  0  0  0  0  0  0
   13.4306   -0.1705   -1.6650 C   0  0  0  0  0  0  0  0  0  0  0  0
   13.2238    0.4848   -0.7209 N   0  0  0  0  0  0  0  0  0  0  0  0
   13.2528   -2.3644   -4.7845 C   0  0  0  0  0  0  0  0  0  0  0  0
   13.5010   -1.7357   -6.0288 C   0  0  0  0  0  0  0  0  0  0  0  0
   14.0203   -2.4276   -7.1131 C   0  0  0  0  0  0  0  0  0  0  0  0
   14.2971   -3.8001   -6.9355 C   0  0  0  0  0  0  0  0  0  0  0  0
   14.0456   -4.4631   -5.6966 C   0  0  0  0  0  0  0  0  0  0  0  0
   13.5271   -3.7476   -4.6325 C   0  0  0  0  0  0  0  0  0  0  0  0
   14.4494   -5.8566   -5.8909 C   0  0  0  0  0  0  0  0  0  0  0  0
   14.4592   -6.9819   -5.0801 C   0  0  0  0  0  0  0  0  0  0  0  0
   14.9390   -8.1985   -5.6129 C   0  0  0  0  0  0  0  0  0  0  0  0
   15.3993   -8.2821   -6.9308 C   0  0  0  0  0  0  0  0  0  0  0  0
   15.3989   -7.1554   -7.7649 C   0  0  0  0  0  0  0  0  0  0  0  0
   14.9214   -5.9552   -7.2281 C   0  0  0  0  0  0  0  0  0  0  0  0
   14.8228   -4.7016   -7.8318 N   0  0  0  0  0  0  0  0  0  0  0  0
   15.1700   -4.4101   -9.2208 C   0  0  0  0  0  0  0  0  0  0  0  0
   14.0062   -4.6391  -10.1882 C   0  0  0  0  0  0  0  0  0  0  0  0
    8.2422   -1.6115   -3.4567 C   0  0  0  0  0  0  0  0  0  0  0  0
    8.6100   -2.2640   -4.4066 O   0  0  0  0  0  0  0  0  0  0  0  0
    6.8721   -1.5351   -3.2687 O   0  0  0  0  0  0  0  0  0  0  0  0
    6.2658   -0.8529   -2.2553 C   0  0  0  0  0  0  0  0  0  0  0  0
    4.8751   -0.8793   -2.2134 C   0  0  0  0  0  0  0  0  0  0  0  0
    0.1839   -1.9394   -2.6227 H   0  0  0  0  0  0  0  0  0  0  0  0
   -0.0423   -0.3778   -1.8192 H   0  0  0  0  0  0  0  0  0  0  0  0
    0.4658   -1.8036   -0.8716 H   0  0  0  0  0  0  0  0  0  0  0  0
    2.1258   -0.4732   -3.1174 H   0  0  0  0  0  0  0  0  0  0  0  0
    2.5563   -1.9623   -2.2763 H   0  0  0  0  0  0  0  0  0  0  0  0
    2.5431    0.8227    0.6736 H   0  0  0  0  0  0  0  0  0  0  0  0
    1.0575    0.3489   -0.0983 H   0  0  0  0  0  0  0  0  0  0  0  0
    2.9525    2.5421   -1.1647 H   0  0  0  0  0  0  0  0  0  0  0  0
    1.4087    2.8139   -0.3155 H   0  0  0  0  0  0  0  0  0  0  0  0
    1.4194    2.0618   -1.9299 H   0  0  0  0  0  0  0  0  0  0  0  0
    4.4672    1.0747    0.5614 H   0  0  0  0  0  0  0  0  0  0  0  0
    6.8962    1.1036    0.4442 H   0  0  0  0  0  0  0  0  0  0  0  0
    9.0773    0.3497   -0.7275 H   0  0  0  0  0  0  0  0  0  0  0  0
   11.0173   -0.3383   -1.7999 H   0  0  0  0  0  0  0  0  0  0  0  0
   10.7714   -2.1128   -4.3085 H   0  0  0  0  0  0  0  0  0  0  0  0
   13.2805   -0.6718   -6.1208 H   0  0  0  0  0  0  0  0  0  0  0  0
   14.2079   -1.9214   -8.0608 H   0  0  0  0  0  0  0  0  0  0  0  0
   13.3301   -4.2202   -3.6693 H   0  0  0  0  0  0  0  0  0  0  0  0
   14.1060   -6.9340   -4.0484 H   0  0  0  0  0  0  0  0  0  0  0  0
   14.9512   -9.0890   -4.9816 H   0  0  0  0  0  0  0  0  0  0  0  0
   15.7655   -9.2346   -7.3178 H   0  0  0  0  0  0  0  0  0  0  0  0
   15.7605   -7.2251   -8.7917 H   0  0  0  0  0  0  0  0  0  0  0  0
   16.0319   -5.0400   -9.4839 H   0  0  0  0  0  0  0  0  0  0  0  0
   15.5159   -3.3680   -9.2616 H   0  0  0  0  0  0  0  0  0  0  0  0
   13.6649   -5.6848  -10.1665 H   0  0  0  0  0  0  0  0  0  0  0  0
   14.3330   -4.4052  -11.2123 H   0  0  0  0  0  0  0  0  0  0  0  0
   13.1512   -3.9916   -9.9435 H   0  0  0  0  0  0  0  0  0  0  0  0
    4.3740   -1.4345   -3.0023 H   0  0  0  0  0  0  0  0  0  0  0  0
  1  2  1  0
  1 40  1  0
  1 41  1  0
  1 42  1  0
  2  3  1  0
  2 43  1  0
  2 44  1  0
  3  4  1  0
  3  6  1  0
  4  5  1  0
  4 45  1  0
  4 46  1  0
  5 47  1  0
  5 48  1  0
  5 49  1  0
  6  7  2  0
  6 39  1  0
  7  8  1  0
  7 50  1  0
  8  9  2  0
  8 51  1  0
  9 10  1  0
  9 38  1  0
 10 11  2  0
 10 52  1  0
 11 12  1  0
 11 35  1  0
 12 13  2  0
 12 53  1  0
 13 14  1  0
 13 54  1  0
 14 15  2  0
 14 20  1  0
 15 16  1  0
 15 18  1  0
 16 17  3  0
 18 19  3  0
 20 21  2  0
 20 25  1  0
 21 22  1  0
 21 55  1  0
 22 23  2  0
 22 56  1  0
 23 24  1  0
 23 32  1  0
 24 25  2  0
 24 26  1  0
 25 57  1  0
 26 27  2  0
 26 31  1  0
 27 28  1  0
 27 58  1  0
 28 29  2  0
 28 59  1  0
 29 30  1  0
 29 60  1  0
 30 31  2  0
 30 61  1  0
 31 32  1  0
 32 33  1  0
 33 34  1  0
 33 62  1  0
 33 63  1  0
 34 64  1  0
 34 65  1  0
 34 66  1  0
 35 36  2  0
 35 37  1  0
 37 38  1  0
 38 39  2  0
 39 67  1  0
M  END

