
     RDKit          3D

 43 46  0  0  0  0  0  0  0  0999 V2000
    1.7164    2.0956   -2.1225 C   0  0  0  0  0  0  0  0  0  0  0  0
    2.3766    0.7639   -2.4650 C   0  0  2  0  0  0  0  0  0  0  0  0
    2.2597    0.5759   -3.5582 H   0  0  0  0  0  0  0  0  0  0  0  0
    1.6937   -0.3982   -1.7365 C   0  0  0  0  0  0  0  0  0  0  0  0
    2.3802   -1.6667   -1.9822 N   0  0  0  0  0  0  0  0  0  0  0  0
    1.6795   -2.8309   -2.1856 C   0  0  0  0  0  0  0  0  0  0  0  0
    2.2819   -4.1163   -2.0947 C   0  0  0  0  0  0  0  0  0  0  0  0
    1.5020   -5.2240   -2.3660 C   0  0  0  0  0  0  0  0  0  0  0  0
    0.1433   -5.0988   -2.6969 C   0  0  0  0  0  0  0  0  0  0  0  0
   -0.6288   -6.3376   -3.0496 C   0  0  1  0  0  0  0  0  0  0  0  0
    0.1606   -7.4167   -3.1415 F   0  0  0  0  0  0  0  0  0  0  0  0
   -1.5738   -6.6465   -2.1063 F   0  0  0  0  0  0  0  0  0  0  0  0
   -1.2932   -6.2258   -4.2119 F   0  0  0  0  0  0  0  0  0  0  0  0
   -0.3971   -3.7860   -2.7098 C   0  0  0  0  0  0  0  0  0  0  0  0
   -1.8007   -3.4459   -2.9918 C   0  0  0  0  0  0  0  0  0  0  0  0
   -2.8876   -4.2226   -2.7154 N   0  0  0  0  0  0  0  0  0  0  0  0
   -2.8604   -5.1383   -2.2762 H   0  0  0  0  0  0  0  0  0  0  0  0
   -4.0693   -3.7076   -3.0271 N   0  0  0  0  0  0  0  0  0  0  0  0
   -3.7704   -2.5051   -3.5602 C   0  0  0  0  0  0  0  0  0  0  0  0
   -4.6890   -1.6327   -4.0332 N   0  0  0  0  0  0  0  0  0  0  0  0
   -4.2039   -0.5135   -4.5227 C   0  0  0  0  0  0  0  0  0  0  0  0
   -2.8136   -0.1821   -4.5866 C   0  0  0  0  0  0  0  0  0  0  0  0
   -1.8673   -1.0625   -4.1040 C   0  0  0  0  0  0  0  0  0  0  0  0
   -2.3496   -2.2757   -3.5596 C   0  0  0  0  0  0  0  0  0  0  0  0
    0.3734   -2.7177   -2.4726 N   0  0  0  0  0  0  0  0  0  0  0  0
    3.8073   -1.6335   -1.6919 C   0  0  0  0  0  0  0  0  0  0  0  0
    4.4667   -0.4580   -2.4164 C   0  0  0  0  0  0  0  0  0  0  0  0
    3.7853    0.7789   -2.0776 N   0  0  0  0  0  0  0  0  0  0  0  0
    1.7968    2.3015   -1.0435 H   0  0  0  0  0  0  0  0  0  0  0  0
    0.6516    2.0932   -2.4027 H   0  0  0  0  0  0  0  0  0  0  0  0
    2.2020    2.9248   -2.6628 H   0  0  0  0  0  0  0  0  0  0  0  0
    0.6511   -0.5031   -2.0529 H   0  0  0  0  0  0  0  0  0  0  0  0
    1.7081   -0.1832   -0.6493 H   0  0  0  0  0  0  0  0  0  0  0  0
    3.3236   -4.2509   -1.8111 H   0  0  0  0  0  0  0  0  0  0  0  0
    1.9508   -6.2174   -2.3251 H   0  0  0  0  0  0  0  0  0  0  0  0
   -4.9332    0.2093   -4.9110 H   0  0  0  0  0  0  0  0  0  0  0  0
   -2.5182    0.7747   -5.0233 H   0  0  0  0  0  0  0  0  0  0  0  0
   -0.7990   -0.8452   -4.1380 H   0  0  0  0  0  0  0  0  0  0  0  0
    4.2841   -2.5628   -2.0248 H   0  0  0  0  0  0  0  0  0  0  0  0
    3.9755   -1.5314   -0.6015 H   0  0  0  0  0  0  0  0  0  0  0  0
    4.4544   -0.6767   -3.5087 H   0  0  0  0  0  0  0  0  0  0  0  0
    5.5214   -0.3936   -2.1034 H   0  0  0  0  0  0  0  0  0  0  0  0
    4.2622    1.5790   -2.4898 H   0  0  0  0  0  0  0  0  0  0  0  0
  1  2  1  0
  1 29  1  0
  1 30  1  0
  1 31  1  0
  2  3  1  6
  2  4  1  0
  2 28  1  0
  4  5  1  0
  4 32  1  0
  4 33  1  0
  5  6  1  0
  5 26  1  0
  6  7  2  0
  6 25  1  0
  7  8  1  0
  7 34  1  0
  8  9  2  0
  8 35  1  0
  9 10  1  0
  9 14  1  0
 10 11  1  6
 10 12  1  0
 10 13  1  0
 14 15  1  0
 14 25  2  0
 15 16  1  0
 15 24  2  0
 16 17  1  0
 16 18  1  0
 18 19  2  0
 19 20  1  0
 19 24  1  0
 20 21  2  0
 21 22  1  0
 21 36  1  0
 22 23  2  0
 22 37  1  0
 23 24  1  0
 23 38  1  0
 26 27  1  0
 26 39  1  0
 26 40  1  0
 27 28  1  0
 27 41  1  0
 27 42  1  0
 28 43  1  0
M  END

