
     RDKit          3D

 62 65  0  0  0  0  0  0  0  0999 V2000
    7.4065    4.4301   15.3783 C   0  0  0  0  0  0  0  0  0  0  0  0
    8.1937    3.5907   14.5705 O   0  0  0  0  0  0  0  0  0  0  0  0
    7.6211    2.9298   13.5222 C   0  0  0  0  0  0  0  0  0  0  0  0
    6.2452    3.0370   13.1903 C   0  0  0  0  0  0  0  0  0  0  0  0
    5.7100    2.3409   12.1091 C   0  0  0  0  0  0  0  0  0  0  0  0
    6.5634    1.5288   11.3532 C   0  0  0  0  0  0  0  0  0  0  0  0
    6.3250    0.7397   10.2550 N   0  0  0  0  0  0  0  0  0  0  0  0
    5.4537    0.5858    9.7607 H   0  0  0  0  0  0  0  0  0  0  0  0
    7.4924    0.1268    9.8634 C   0  0  0  0  0  0  0  0  0  0  0  0
    7.4085   -0.7706    8.6835 C   0  0  0  0  0  0  0  0  0  0  0  0
    6.3341   -0.9428    8.1153 O   0  0  0  0  0  0  0  0  0  0  0  0
    8.5720   -1.3632    8.2897 N   0  0  0  0  0  0  0  0  0  0  0  0
    8.6499   -2.2938    7.1741 C   0  0  0  0  0  0  0  0  0  0  0  0
    9.1861   -3.6361    7.5923 C   0  0  0  0  0  0  0  0  0  0  0  0
   10.2980   -4.1955    7.1027 C   0  0  0  0  0  0  0  0  0  0  0  0
   10.8335   -5.5471    7.5012 C   0  0  0  0  0  0  0  0  0  0  0  0
   12.2365   -5.4804    7.9168 N   0  0  0  0  0  0  0  0  0  0  0  0
   12.6450   -6.4101    8.9597 C   0  0  0  0  0  0  0  0  0  0  0  0
   12.9313   -7.8318    8.4527 C   0  0  0  0  0  0  0  0  0  0  0  0
   13.9214   -7.7877    7.3830 N   0  0  0  0  0  0  0  0  0  0  0  0
   14.5452   -8.9988    7.0094 C   0  0  0  0  0  0  0  0  0  0  0  0
   14.0233  -10.2597    7.3576 C   0  0  0  0  0  0  0  0  0  0  0  0
   14.6622  -11.4459    6.9835 C   0  0  0  0  0  0  0  0  0  0  0  0
   15.8372  -11.4076    6.2330 C   0  0  0  0  0  0  0  0  0  0  0  0
   16.3789  -10.1672    5.8830 C   0  0  0  0  0  0  0  0  0  0  0  0
   15.7613   -8.9782    6.2737 C   0  0  0  0  0  0  0  0  0  0  0  0
   16.3495   -7.7892    5.9073 O   0  0  0  0  0  0  0  0  0  0  0  0
   17.0559   -7.1155    6.9401 C   0  0  0  0  0  0  0  0  0  0  0  0
   13.5171   -6.8912    6.2893 C   0  0  0  0  0  0  0  0  0  0  0  0
   13.2101   -5.4888    6.8292 C   0  0  0  0  0  0  0  0  0  0  0  0
    8.5191    0.5119   10.7101 C   0  0  0  0  0  0  0  0  0  0  0  0
    7.9523    1.4096   11.6738 C   0  0  0  0  0  0  0  0  0  0  0  0
    8.4728    2.1212   12.7697 C   0  0  0  0  0  0  0  0  0  0  0  0
    8.0759    4.8471   16.1435 H   0  0  0  0  0  0  0  0  0  0  0  0
    6.5919    3.8792   15.8845 H   0  0  0  0  0  0  0  0  0  0  0  0
    6.9623    5.2652   14.8050 H   0  0  0  0  0  0  0  0  0  0  0  0
    5.5856    3.6710   13.7826 H   0  0  0  0  0  0  0  0  0  0  0  0
    4.6493    2.4324   11.8642 H   0  0  0  0  0  0  0  0  0  0  0  0
    9.4159   -1.1885    8.8216 H   0  0  0  0  0  0  0  0  0  0  0  0
    9.2733   -1.8738    6.3642 H   0  0  0  0  0  0  0  0  0  0  0  0
    7.6222   -2.3804    6.7885 H   0  0  0  0  0  0  0  0  0  0  0  0
    8.6040   -4.1615    8.3610 H   0  0  0  0  0  0  0  0  0  0  0  0
   10.8715   -3.6496    6.3415 H   0  0  0  0  0  0  0  0  0  0  0  0
   10.6680   -6.2621    6.6640 H   0  0  0  0  0  0  0  0  0  0  0  0
   10.2369   -5.9301    8.3440 H   0  0  0  0  0  0  0  0  0  0  0  0
   11.8736   -6.4435    9.7456 H   0  0  0  0  0  0  0  0  0  0  0  0
   13.5694   -6.0215    9.4250 H   0  0  0  0  0  0  0  0  0  0  0  0
   11.9809   -8.3062    8.1189 H   0  0  0  0  0  0  0  0  0  0  0  0
   13.3235   -8.4420    9.2813 H   0  0  0  0  0  0  0  0  0  0  0  0
   13.0903  -10.3197    7.9186 H   0  0  0  0  0  0  0  0  0  0  0  0
   14.2234  -12.4047    7.2717 H   0  0  0  0  0  0  0  0  0  0  0  0
   16.3348  -12.3309    5.9275 H   0  0  0  0  0  0  0  0  0  0  0  0
   17.3049  -10.0916    5.3082 H   0  0  0  0  0  0  0  0  0  0  0  0
   17.8946   -7.7309    7.3130 H   0  0  0  0  0  0  0  0  0  0  0  0
   16.3930   -6.8607    7.7839 H   0  0  0  0  0  0  0  0  0  0  0  0
   17.4600   -6.1912    6.5027 H   0  0  0  0  0  0  0  0  0  0  0  0
   12.6236   -7.3040    5.7716 H   0  0  0  0  0  0  0  0  0  0  0  0
   14.3285   -6.8343    5.5534 H   0  0  0  0  0  0  0  0  0  0  0  0
   12.8550   -4.8485    6.0065 H   0  0  0  0  0  0  0  0  0  0  0  0
   14.1500   -5.0416    7.2000 H   0  0  0  0  0  0  0  0  0  0  0  0
    9.5598    0.1965   10.6607 H   0  0  0  0  0  0  0  0  0  0  0  0
    9.5260    2.0603   13.0504 H   0  0  0  0  0  0  0  0  0  0  0  0
  1  2  1  0
  1 34  1  0
  1 35  1  0
  1 36  1  0
  2  3  1  0
  3  4  2  0
  3 33  1  0
  4  5  1  0
  4 37  1  0
  5  6  2  0
  5 38  1  0
  6  7  1  0
  6 32  1  0
  7  8  1  0
  7  9  1  0
  9 10  1  0
  9 31  2  0
 10 11  2  0
 10 12  1  0
 12 13  1  0
 12 39  1  0
 13 14  1  0
 13 40  1  0
 13 41  1  0
 14 15  2  0
 14 42  1  0
 15 16  1  0
 15 43  1  0
 16 17  1  0
 16 44  1  0
 16 45  1  0
 17 18  1  0
 17 30  1  0
 18 19  1  0
 18 46  1  0
 18 47  1  0
 19 20  1  0
 19 48  1  0
 19 49  1  0
 20 21  1  0
 20 29  1  0
 21 22  2  0
 21 26  1  0
 22 23  1  0
 22 50  1  0
 23 24  2  0
 23 51  1  0
 24 25  1  0
 24 52  1  0
 25 26  2  0
 25 53  1  0
 26 27  1  0
 27 28  1  0
 28 54  1  0
 28 55  1  0
 28 56  1  0
 29 30  1  0
 29 57  1  0
 29 58  1  0
 30 59  1  0
 30 60  1  0
 31 32  1  0
 31 61  1  0
 32 33  2  0
 33 62  1  0
M  END

