
     RDKit          3D

 37 38  0  0  0  0  0  0  0  0999 V2000
    1.2013    0.5150    0.8892 C   0  0  0  0  0  0  0  0  0  0  0  0
    2.5989    0.2280    0.4009 C   0  0  0  0  0  0  0  0  0  0  0  0
    3.4574    1.3102    0.1592 C   0  0  0  0  0  0  0  0  0  0  0  0
    4.7982    1.1208   -0.1700 C   0  0  0  0  0  0  0  0  0  0  0  0
    5.2964   -0.1746   -0.2637 C   0  0  0  0  0  0  0  0  0  0  0  0
    4.4526   -1.2829   -0.0901 C   0  0  0  0  0  0  0  0  0  0  0  0
    5.0945   -2.6256   -0.2889 C   0  0  0  0  0  0  0  0  0  0  0  0
    4.6148   -3.3568   -1.3140 N   0  0  0  0  0  0  0  0  0  0  0  0
    6.3599   -3.1559    0.6514 S   0  0  0  0  0  0  0  0  0  0  0  0
    3.0763   -1.1036    0.2453 C   0  0  0  0  0  0  0  0  0  0  0  0
    2.2318   -2.2098    0.5163 N   0  0  0  0  0  0  0  0  0  0  0  0
    2.5748   -3.1750    1.5656 C   0  0  0  0  0  0  0  0  0  0  0  0
    1.9243   -4.5113    1.1299 C   0  0  0  0  0  0  0  0  0  0  0  0
    1.4151   -4.2473   -0.2952 C   0  0  0  0  0  0  0  0  0  0  0  0
    1.1185   -2.7250   -0.3225 C   0  0  1  0  0  0  0  0  0  0  0  0
   -0.2758   -2.4805    0.3064 C   0  0  0  0  0  0  0  0  0  0  0  0
    1.1294   -2.1515   -1.7420 C   0  0  0  0  0  0  0  0  0  0  0  0
    1.1456    1.5211    1.3299 H   0  0  0  0  0  0  0  0  0  0  0  0
    0.8914   -0.2185    1.6469 H   0  0  0  0  0  0  0  0  0  0  0  0
    0.4555    0.4777    0.0775 H   0  0  0  0  0  0  0  0  0  0  0  0
    3.0690    2.3259    0.2772 H   0  0  0  0  0  0  0  0  0  0  0  0
    5.4570    1.9779   -0.3285 H   0  0  0  0  0  0  0  0  0  0  0  0
    6.3508   -0.3527   -0.4836 H   0  0  0  0  0  0  0  0  0  0  0  0
    3.9182   -2.9860   -1.9484 H   0  0  0  0  0  0  0  0  0  0  0  0
    5.0408   -4.2565   -1.5098 H   0  0  0  0  0  0  0  0  0  0  0  0
    2.1869   -2.8552    2.5529 H   0  0  0  0  0  0  0  0  0  0  0  0
    3.6650   -3.2647    1.6781 H   0  0  0  0  0  0  0  0  0  0  0  0
    1.0929   -4.7786    1.8000 H   0  0  0  0  0  0  0  0  0  0  0  0
    2.6418   -5.3445    1.1647 H   0  0  0  0  0  0  0  0  0  0  0  0
    0.5353   -4.8543   -0.5606 H   0  0  0  0  0  0  0  0  0  0  0  0
    2.2077   -4.4714   -1.0245 H   0  0  0  0  0  0  0  0  0  0  0  0
   -0.3070   -2.8127    1.3554 H   0  0  0  0  0  0  0  0  0  0  0  0
   -1.0471   -3.0421   -0.2455 H   0  0  0  0  0  0  0  0  0  0  0  0
   -0.5567   -1.4204    0.2845 H   0  0  0  0  0  0  0  0  0  0  0  0
    2.0740   -2.3562   -2.2688 H   0  0  0  0  0  0  0  0  0  0  0  0
    0.9812   -1.0615   -1.7458 H   0  0  0  0  0  0  0  0  0  0  0  0
    0.3181   -2.6033   -2.3334 H   0  0  0  0  0  0  0  0  0  0  0  0
  1  2  1  0
  1 18  1  0
  1 19  1  0
  1 20  1  0
  2  3  2  0
  2 10  1  0
  3  4  1  0
  3 21  1  0
  4  5  2  0
  4 22  1  0
  5  6  1  0
  5 23  1  0
  6  7  1  0
  6 10  2  0
  7  8  1  0
  7  9  2  0
  8 24  1  0
  8 25  1  0
 10 11  1  0
 11 12  1  0
 11 15  1  0
 12 13  1  0
 12 26  1  0
 12 27  1  0
 13 14  1  0
 13 28  1  0
 13 29  1  0
 14 15  1  0
 14 30  1  0
 14 31  1  0
 15 16  1  1
 15 17  1  0
 16 32  1  0
 16 33  1  0
 16 34  1  0
 17 35  1  0
 17 36  1  0
 17 37  1  0
M  END

