
     RDKit          3D

 29 30  0  0  0  0  0  0  0  0999 V2000
    3.2267    3.1811    0.5748 N   0  0  0  0  0  0  0  0  0  0  0  0
    2.7915    1.8982    0.4926 C   0  0  0  0  0  0  0  0  0  0  0  0
    2.0195    1.3788    1.2796 O   0  0  0  0  0  0  0  0  0  0  0  0
    3.3546    1.1280   -0.7206 C   0  0  0  0  0  0  0  0  0  0  0  0
    4.7916    0.9087   -0.6860 N   0  0  0  0  0  0  0  0  0  0  0  0
    5.6898    1.8722   -1.0550 C   0  0  0  0  0  0  0  0  0  0  0  0
    5.3211    3.0017   -1.3905 O   0  0  0  0  0  0  0  0  0  0  0  0
    7.1150    1.4910   -1.0171 C   0  0  0  0  0  0  0  0  0  0  0  0
    8.1176    2.4398   -1.0209 C   0  0  0  0  0  0  0  0  0  0  0  0
    9.3393    1.8218   -0.9563 N   0  0  0  0  0  0  0  0  0  0  0  0
   10.2311    2.2985   -0.9411 H   0  0  0  0  0  0  0  0  0  0  0  0
    9.1697    0.4504   -0.9222 C   0  0  0  0  0  0  0  0  0  0  0  0
   10.1332   -0.5631   -0.8691 C   0  0  0  0  0  0  0  0  0  0  0  0
    9.6972   -1.8955   -0.8707 C   0  0  0  0  0  0  0  0  0  0  0  0
   10.6069   -2.9470   -0.8696 N   0  0  0  0  0  0  0  0  0  0  0  0
    8.3030   -2.1677   -0.9379 C   0  0  0  0  0  0  0  0  0  0  0  0
    7.3581   -1.1520   -0.9893 C   0  0  0  0  0  0  0  0  0  0  0  0
    7.7699    0.1952   -0.9648 C   0  0  0  0  0  0  0  0  0  0  0  0
    2.9395    3.7360    1.3724 H   0  0  0  0  0  0  0  0  0  0  0  0
    3.9146    3.5281   -0.0953 H   0  0  0  0  0  0  0  0  0  0  0  0
    3.1170    1.6846   -1.6409 H   0  0  0  0  0  0  0  0  0  0  0  0
    2.8432    0.1574   -0.7440 H   0  0  0  0  0  0  0  0  0  0  0  0
    5.1372    0.0887   -0.2030 H   0  0  0  0  0  0  0  0  0  0  0  0
    8.0176    3.5220   -1.0593 H   0  0  0  0  0  0  0  0  0  0  0  0
   11.2004   -0.3270   -0.8387 H   0  0  0  0  0  0  0  0  0  0  0  0
   11.5334   -2.7408   -0.5145 H   0  0  0  0  0  0  0  0  0  0  0  0
   10.2554   -3.8409   -0.5464 H   0  0  0  0  0  0  0  0  0  0  0  0
    7.9733   -3.2100   -0.9643 H   0  0  0  0  0  0  0  0  0  0  0  0
    6.3014   -1.4169   -1.0715 H   0  0  0  0  0  0  0  0  0  0  0  0
  1  2  1  0
  1 19  1  0
  1 20  1  0
  2  3  2  0
  2  4  1  0
  4  5  1  0
  4 21  1  0
  4 22  1  0
  5  6  1  0
  5 23  1  0
  6  7  2  0
  6  8  1  0
  8  9  2  0
  8 18  1  0
  9 10  1  0
  9 24  1  0
 10 11  1  0
 10 12  1  0
 12 13  1  0
 12 18  2  0
 13 14  2  0
 13 25  1  0
 14 15  1  0
 14 16  1  0
 15 26  1  0
 15 27  1  0
 16 17  2  0
 16 28  1  0
 17 18  1  0
 17 29  1  0
M  END

