
     RDKit          3D

 52 56  0  0  0  0  0  0  0  0999 V2000
    5.4574    0.2305   -0.2104 C   0  0  0  0  0  0  0  0  0  0  0  0
    4.2951    0.1038    0.6540 N   0  0  0  0  0  0  0  0  0  0  0  0
    3.2676    1.0090    0.7607 C   0  0  0  0  0  0  0  0  0  0  0  0
    3.2834    2.5647   -0.0548 S   0  0  0  0  0  0  0  0  0  0  0  0
    1.5467    3.0797    0.2662 C   0  0  0  0  0  0  0  0  0  0  0  0
    1.3310    4.5113   -0.2152 C   0  0  0  0  0  0  0  0  0  0  0  0
   -0.1228    4.9703    0.0421 C   0  0  0  0  0  0  0  0  0  0  0  0
   -0.4536    6.3168   -0.3544 N   0  0  0  0  0  0  0  0  0  0  0  0
    0.0960    7.4436    0.3852 C   0  0  0  0  0  0  0  0  0  0  0  0
   -0.4238    8.6468   -0.3820 C   0  0  2  0  0  0  0  0  0  0  0  0
   -1.8730    8.6158   -0.7993 C   0  0  0  0  0  0  0  0  0  0  0  0
   -0.8111    8.1618   -1.7713 C   0  0  1  0  0  0  0  0  0  0  0  0
   -0.5289    8.9235   -3.0312 C   0  0  0  0  0  0  0  0  0  0  0  0
    0.7918    9.1899   -3.4318 C   0  0  0  0  0  0  0  0  0  0  0  0
    1.0695    9.8685   -4.6199 C   0  0  0  0  0  0  0  0  0  0  0  0
    0.0105   10.2895   -5.4294 C   0  0  0  0  0  0  0  0  0  0  0  0
    0.3782   11.2219   -7.0531 Br  0  0  0  0  0  0  0  0  0  0  0  0
   -1.3124   10.0380   -5.0594 C   0  0  0  0  0  0  0  0  0  0  0  0
   -1.5702    9.3574   -3.8660 C   0  0  0  0  0  0  0  0  0  0  0  0
   -0.5277    6.6551   -1.7657 C   0  0  0  0  0  0  0  0  0  0  0  0
    2.3146    0.5425    1.5413 N   0  0  0  0  0  0  0  0  0  0  0  0
    2.7027   -0.6886    1.9639 N   0  0  0  0  0  0  0  0  0  0  0  0
    3.8858   -0.9552    1.4492 C   0  0  0  0  0  0  0  0  0  0  0  0
    4.6052   -2.2040    1.7150 C   0  0  0  0  0  0  0  0  0  0  0  0
    3.8928   -3.3370    2.1209 C   0  0  0  0  0  0  0  0  0  0  0  0
    4.6215   -4.4962    2.3872 C   0  0  0  0  0  0  0  0  0  0  0  0
    5.9505   -4.5803    2.2718 N   0  0  0  0  0  0  0  0  0  0  0  0
    6.6355   -3.5067    1.9121 N   0  0  0  0  0  0  0  0  0  0  0  0
    6.0047   -2.3630    1.6490 C   0  0  0  0  0  0  0  0  0  0  0  0
    5.2046    0.8987   -1.0459 H   0  0  0  0  0  0  0  0  0  0  0  0
    5.7291   -0.7504   -0.6212 H   0  0  0  0  0  0  0  0  0  0  0  0
    6.3219    0.6505    0.3273 H   0  0  0  0  0  0  0  0  0  0  0  0
    1.3679    2.9738    1.3455 H   0  0  0  0  0  0  0  0  0  0  0  0
    0.8814    2.3698   -0.2479 H   0  0  0  0  0  0  0  0  0  0  0  0
    1.5584    4.5839   -1.2926 H   0  0  0  0  0  0  0  0  0  0  0  0
    2.0324    5.1860    0.3042 H   0  0  0  0  0  0  0  0  0  0  0  0
   -0.3406    4.8662    1.1207 H   0  0  0  0  0  0  0  0  0  0  0  0
   -0.8107    4.2784   -0.4772 H   0  0  0  0  0  0  0  0  0  0  0  0
    1.2098    7.4769    0.4009 H   0  0  0  0  0  0  0  0  0  0  0  0
   -0.2421    7.4089    1.4375 H   0  0  0  0  0  0  0  0  0  0  0  0
    0.0689    9.6126   -0.2430 H   0  0  0  0  0  0  0  0  0  0  0  0
   -2.3435    9.5820   -1.0002 H   0  0  0  0  0  0  0  0  0  0  0  0
   -2.5268    7.8624   -0.3511 H   0  0  0  0  0  0  0  0  0  0  0  0
    1.6224    8.8682   -2.7975 H   0  0  0  0  0  0  0  0  0  0  0  0
    2.1003   10.0737   -4.9139 H   0  0  0  0  0  0  0  0  0  0  0  0
   -2.1339   10.3703   -5.6964 H   0  0  0  0  0  0  0  0  0  0  0  0
   -2.6059    9.1607   -3.5775 H   0  0  0  0  0  0  0  0  0  0  0  0
    0.4176    6.4761   -2.3267 H   0  0  0  0  0  0  0  0  0  0  0  0
   -1.3178    6.0639   -2.2647 H   0  0  0  0  0  0  0  0  0  0  0  0
    2.8069   -3.2994    2.2212 H   0  0  0  0  0  0  0  0  0  0  0  0
    4.1197   -5.4163    2.7031 H   0  0  0  0  0  0  0  0  0  0  0  0
    6.6669   -1.5317    1.3952 H   0  0  0  0  0  0  0  0  0  0  0  0
  1  2  1  0
  1 30  1  0
  1 31  1  0
  1 32  1  0
  2  3  1  0
  2 23  1  0
  3  4  1  0
  3 21  2  0
  4  5  1  0
  5  6  1  0
  5 33  1  0
  5 34  1  0
  6  7  1  0
  6 35  1  0
  6 36  1  0
  7  8  1  0
  7 37  1  0
  7 38  1  0
  8  9  1  0
  8 20  1  0
  9 10  1  0
  9 39  1  0
  9 40  1  0
 10 11  1  0
 10 12  1  0
 10 41  1  6
 11 12  1  0
 11 42  1  0
 11 43  1  0
 12 13  1  6
 12 20  1  0
 13 14  2  0
 13 19  1  0
 14 15  1  0
 14 44  1  0
 15 16  2  0
 15 45  1  0
 16 17  1  0
 16 18  1  0
 18 19  2  0
 18 46  1  0
 19 47  1  0
 20 48  1  0
 20 49  1  0
 21 22  1  0
 22 23  2  0
 23 24  1  0
 24 25  2  0
 24 29  1  0
 25 26  1  0
 25 50  1  0
 26 27  2  0
 26 51  1  0
 27 28  1  0
 28 29  2  0
 29 52  1  0
M  END

