
     RDKit          3D

 30 30  0  0  0  0  0  0  0  0999 V2000
    1.0352   -0.3554    0.7250 Cl  0  0  0  0  0  0  0  0  0  0  0  0
    2.7246   -0.0889    0.1300 C   0  0  0  0  0  0  0  0  0  0  0  0
    3.3380   -1.3649   -0.4269 C   0  0  0  0  0  0  0  0  0  0  0  0
    4.7686   -1.1496   -0.9350 C   0  0  0  0  0  0  0  0  0  0  0  0
    5.4082   -2.4220   -1.4989 C   0  0  0  0  0  0  0  0  0  0  0  0
    6.8398   -2.2046   -2.0016 C   0  0  0  0  0  0  0  0  0  0  0  0
    7.5308   -3.4583   -2.5457 C   0  0  0  0  0  0  0  0  0  0  0  0
    6.7362   -4.0056   -4.1036 S   0  0  0  0  0  0  0  0  0  0  0  0
    7.6174   -5.4788   -4.5429 C   0  0  0  0  0  0  0  0  0  0  0  0
    7.1302   -6.1188   -5.7248 C   0  0  0  0  0  0  0  0  0  0  0  0
    7.8245   -7.3190   -6.1387 C   0  0  0  0  0  0  0  0  0  0  0  0
    8.8125   -7.6966   -5.3955 N   0  0  0  0  0  0  0  0  0  0  0  0
    9.3474   -7.2094   -4.2819 C   0  0  0  0  0  0  0  0  0  0  0  0
    8.6905   -5.9795   -3.8245 C   0  0  0  0  0  0  0  0  0  0  0  0
    3.2992    0.2987    0.9836 H   0  0  0  0  0  0  0  0  0  0  0  0
    2.6662    0.7001   -0.6335 H   0  0  0  0  0  0  0  0  0  0  0  0
    2.7000   -1.7429   -1.2436 H   0  0  0  0  0  0  0  0  0  0  0  0
    3.3280   -2.1396    0.3587 H   0  0  0  0  0  0  0  0  0  0  0  0
    5.3966   -0.7573   -0.1135 H   0  0  0  0  0  0  0  0  0  0  0  0
    4.7683   -0.3659   -1.7150 H   0  0  0  0  0  0  0  0  0  0  0  0
    4.7824   -2.8165   -2.3178 H   0  0  0  0  0  0  0  0  0  0  0  0
    5.4128   -3.2064   -0.7200 H   0  0  0  0  0  0  0  0  0  0  0  0
    7.4612   -1.8204   -1.1729 H   0  0  0  0  0  0  0  0  0  0  0  0
    6.8495   -1.4166   -2.7758 H   0  0  0  0  0  0  0  0  0  0  0  0
    7.4782   -4.2801   -1.8132 H   0  0  0  0  0  0  0  0  0  0  0  0
    8.5918   -3.2497   -2.7528 H   0  0  0  0  0  0  0  0  0  0  0  0
    6.2779   -5.7632   -6.2983 H   0  0  0  0  0  0  0  0  0  0  0  0
    7.5564   -7.9067   -7.0204 H   0  0  0  0  0  0  0  0  0  0  0  0
   10.2155   -7.6742   -3.8224 H   0  0  0  0  0  0  0  0  0  0  0  0
    9.0950   -5.5090   -2.9315 H   0  0  0  0  0  0  0  0  0  0  0  0
  1  2  1  0
  2  3  1  0
  2 15  1  0
  2 16  1  0
  3  4  1  0
  3 17  1  0
  3 18  1  0
  4  5  1  0
  4 19  1  0
  4 20  1  0
  5  6  1  0
  5 21  1  0
  5 22  1  0
  6  7  1  0
  6 23  1  0
  6 24  1  0
  7  8  1  0
  7 25  1  0
  7 26  1  0
  8  9  1  0
  9 10  2  0
  9 14  1  0
 10 11  1  0
 10 27  1  0
 11 12  2  0
 11 28  1  0
 12 13  1  0
 13 14  2  0
 13 29  1  0
 14 30  1  0
M  END

