
     RDKit          3D

 47 50  0  0  0  0  0  0  0  0999 V2000
    3.9319   -4.4436    4.0750 O   0  0  0  0  0  0  0  0  0  0  0  0
    4.0853   -3.9418    2.7603 C   0  0  0  0  0  0  0  0  0  0  0  0
    3.0558   -2.8240    2.5866 C   0  0  1  0  0  0  0  0  0  0  0  0
    3.2116   -1.7127    3.6443 C   0  0  0  0  0  0  0  0  0  0  0  0
    2.8091   -0.4284    2.9137 C   0  0  0  0  0  0  0  0  0  0  0  0
    3.3397   -0.6584    1.4946 C   0  0  0  0  0  0  0  0  0  0  0  0
    3.1952   -2.1012    1.3071 N   0  0  0  0  0  0  0  0  0  0  0  0
    2.9443   -2.6750    0.0939 C   0  0  0  0  0  0  0  0  0  0  0  0
    3.0946   -1.9726   -1.1211 C   0  0  0  0  0  0  0  0  0  0  0  0
    2.7844   -2.6675   -2.3069 C   0  0  0  0  0  0  0  0  0  0  0  0
    2.9302   -2.0685   -3.5282 N   0  0  0  0  0  0  0  0  0  0  0  0
    2.5157   -2.6595   -4.7785 C   0  0  0  0  0  0  0  0  0  0  0  0
    1.0034   -2.4279   -5.1108 C   0  0  0  0  0  0  0  0  0  0  0  0
    0.6297   -2.9429   -6.4638 C   0  0  0  0  0  0  0  0  0  0  0  0
    0.0205   -4.2257   -6.5763 C   0  0  0  0  0  0  0  0  0  0  0  0
   -0.3571   -4.8294   -7.8050 C   0  0  0  0  0  0  0  0  0  0  0  0
   -0.0382   -4.0182   -8.9326 C   0  0  0  0  0  0  0  0  0  0  0  0
    0.5743   -2.7693   -8.8434 C   0  0  0  0  0  0  0  0  0  0  0  0
    0.9607   -2.1549   -7.6201 C   0  0  0  0  0  0  0  0  0  0  0  0
    0.6502   -2.2176  -10.0995 O   0  0  0  0  0  0  0  0  0  0  0  0
    0.1958   -3.2097  -10.9964 C   0  0  0  0  0  0  0  0  0  0  0  0
   -0.3449   -4.2779  -10.2426 O   0  0  0  0  0  0  0  0  0  0  0  0
    2.3605   -3.9470   -2.2884 N   0  0  0  0  0  0  0  0  0  0  0  0
    2.2723   -4.5100   -1.0883 C   0  0  0  0  0  0  0  0  0  0  0  0
    2.5349   -3.9662    0.0938 N   0  0  0  0  0  0  0  0  0  0  0  0
    4.4564   -5.2485    4.1574 H   0  0  0  0  0  0  0  0  0  0  0  0
    3.9077   -4.7165    1.9969 H   0  0  0  0  0  0  0  0  0  0  0  0
    5.0989   -3.5176    2.5957 H   0  0  0  0  0  0  0  0  0  0  0  0
    2.0540   -3.2852    2.6388 H   0  0  0  0  0  0  0  0  0  0  0  0
    4.2661   -1.6535    3.9626 H   0  0  0  0  0  0  0  0  0  0  0  0
    2.6156   -1.9175    4.5434 H   0  0  0  0  0  0  0  0  0  0  0  0
    3.2153    0.4839    3.3757 H   0  0  0  0  0  0  0  0  0  0  0  0
    1.7113   -0.3293    2.8849 H   0  0  0  0  0  0  0  0  0  0  0  0
    4.3963   -0.3393    1.4003 H   0  0  0  0  0  0  0  0  0  0  0  0
    2.7610   -0.1071    0.7372 H   0  0  0  0  0  0  0  0  0  0  0  0
    3.4612   -0.9468   -1.1574 H   0  0  0  0  0  0  0  0  0  0  0  0
    3.1400   -1.0777   -3.5225 H   0  0  0  0  0  0  0  0  0  0  0  0
    2.7037   -3.7388   -4.7276 H   0  0  0  0  0  0  0  0  0  0  0  0
    3.1288   -2.2360   -5.5887 H   0  0  0  0  0  0  0  0  0  0  0  0
    0.8138   -1.3397   -5.0553 H   0  0  0  0  0  0  0  0  0  0  0  0
    0.4132   -2.9156   -4.3201 H   0  0  0  0  0  0  0  0  0  0  0  0
   -0.1685   -4.7704   -5.6466 H   0  0  0  0  0  0  0  0  0  0  0  0
   -0.7773   -5.8284   -7.8882 H   0  0  0  0  0  0  0  0  0  0  0  0
    1.3817   -1.1537   -7.5676 H   0  0  0  0  0  0  0  0  0  0  0  0
    1.0486   -3.5823  -11.6032 H   0  0  0  0  0  0  0  0  0  0  0  0
   -0.5800   -2.7908  -11.6625 H   0  0  0  0  0  0  0  0  0  0  0  0
    1.9344   -5.5550   -1.0713 H   0  0  0  0  0  0  0  0  0  0  0  0
  1  2  1  0
  1 26  1  0
  2  3  1  0
  2 27  1  0
  2 28  1  0
  3  4  1  0
  3  7  1  0
  3 29  1  6
  4  5  1  0
  4 30  1  0
  4 31  1  0
  5  6  1  0
  5 32  1  0
  5 33  1  0
  6  7  1  0
  6 34  1  0
  6 35  1  0
  7  8  1  0
  8  9  2  0
  8 25  1  0
  9 10  1  0
  9 36  1  0
 10 11  1  0
 10 23  2  0
 11 12  1  0
 11 37  1  0
 12 13  1  0
 12 38  1  0
 12 39  1  0
 13 14  1  0
 13 40  1  0
 13 41  1  0
 14 15  2  0
 14 19  1  0
 15 16  1  0
 15 42  1  0
 16 17  2  0
 16 43  1  0
 17 18  1  0
 17 22  1  0
 18 19  2  0
 18 20  1  0
 19 44  1  0
 20 21  1  0
 21 22  1  0
 21 45  1  0
 21 46  1  0
 23 24  1  0
 24 25  2  0
 24 47  1  0
M  END

