
     RDKit          3D

 52 54  0  0  0  0  0  0  0  0999 V2000
    4.2420   -0.7357    0.0878 C   0  0  0  0  0  0  0  0  0  0  0  0
    3.5407    0.4284    0.7909 C   0  0  0  0  0  0  0  0  0  0  0  0
    4.0183    1.7695    0.4179 N   0  0  0  0  0  0  0  0  0  0  0  0
    3.2349    2.5186   -0.5691 C   0  0  0  0  0  0  0  0  0  0  0  0
    3.1466    1.8524   -1.9435 C   0  0  0  0  0  0  0  0  0  0  0  0
    5.1869    2.1892    0.9861 C   0  0  0  0  0  0  0  0  0  0  0  0
    5.8709    1.4030    1.6564 O   0  0  0  0  0  0  0  0  0  0  0  0
    5.6378    3.6141    0.8119 C   0  0  0  0  0  0  0  0  0  0  0  0
    4.7892    4.6761    1.1608 C   0  0  0  0  0  0  0  0  0  0  0  0
    5.2042    6.0023    1.0477 C   0  0  0  0  0  0  0  0  0  0  0  0
    6.4865    6.2708    0.5606 C   0  0  0  0  0  0  0  0  0  0  0  0
    7.3601    5.2360    0.2289 C   0  0  0  0  0  0  0  0  0  0  0  0
    6.9635    3.8932    0.3816 C   0  0  0  0  0  0  0  0  0  0  0  0
    7.8244    2.8164    0.1244 N   0  0  0  0  0  0  0  0  0  0  0  0
    9.0712    2.8401   -0.4569 C   0  0  0  0  0  0  0  0  0  0  0  0
    9.6135    3.8388   -0.8986 O   0  0  0  0  0  0  0  0  0  0  0  0
    9.7618    1.4781   -0.5397 C   0  0  0  0  0  0  0  0  0  0  0  0
   11.0263    1.4217    0.3261 C   0  0  0  0  0  0  0  0  0  0  0  0
   10.7175    1.3301    1.7858 C   0  0  0  0  0  0  0  0  0  0  0  0
    9.5530    1.3069    2.3492 N   0  0  0  0  0  0  0  0  0  0  0  0
    9.8572    1.2060    3.7018 C   0  0  0  0  0  0  0  0  0  0  0  0
    8.8680    1.1532    4.7245 C   0  0  0  0  0  0  0  0  0  0  0  0
    9.1695    1.0382    6.1281 C   0  0  0  0  0  0  0  0  0  0  0  0
    8.1820    0.9901    7.0857 C   0  0  0  0  0  0  0  0  0  0  0  0
    6.8025    1.0548    6.7166 C   0  0  0  0  0  0  0  0  0  0  0  0
    6.6411    1.1628    5.3933 N   0  0  0  0  0  0  0  0  0  0  0  0
    7.4585    1.2170    4.4052 C   0  0  0  0  0  0  0  0  0  0  0  0
   11.1757    1.1651    3.9455 N   0  0  0  0  0  0  0  0  0  0  0  0
   11.7361    1.2498    2.6498 O   0  0  0  0  0  0  0  0  0  0  0  0
    3.8174   -1.6899    0.4394 H   0  0  0  0  0  0  0  0  0  0  0  0
    5.3142   -0.7315    0.3269 H   0  0  0  0  0  0  0  0  0  0  0  0
    4.1225   -0.6950   -1.0050 H   0  0  0  0  0  0  0  0  0  0  0  0
    3.6757    0.3194    1.8773 H   0  0  0  0  0  0  0  0  0  0  0  0
    2.4577    0.4065    0.5891 H   0  0  0  0  0  0  0  0  0  0  0  0
    3.6855    3.5097   -0.6841 H   0  0  0  0  0  0  0  0  0  0  0  0
    2.2168    2.6748   -0.1672 H   0  0  0  0  0  0  0  0  0  0  0  0
    4.1479    1.6948   -2.3738 H   0  0  0  0  0  0  0  0  0  0  0  0
    2.5803    2.5037   -2.6281 H   0  0  0  0  0  0  0  0  0  0  0  0
    2.6288    0.8819   -1.9092 H   0  0  0  0  0  0  0  0  0  0  0  0
    3.7868    4.4522    1.5345 H   0  0  0  0  0  0  0  0  0  0  0  0
    4.5328    6.8156    1.3319 H   0  0  0  0  0  0  0  0  0  0  0  0
    6.8240    7.3046    0.4492 H   0  0  0  0  0  0  0  0  0  0  0  0
    8.3617    5.4418   -0.1405 H   0  0  0  0  0  0  0  0  0  0  0  0
    7.5765    1.9578    0.6147 H   0  0  0  0  0  0  0  0  0  0  0  0
   10.0534    1.3531   -1.5938 H   0  0  0  0  0  0  0  0  0  0  0  0
    9.0815    0.6565   -0.2728 H   0  0  0  0  0  0  0  0  0  0  0  0
   11.6442    2.3157    0.1379 H   0  0  0  0  0  0  0  0  0  0  0  0
   11.6474    0.5545    0.0447 H   0  0  0  0  0  0  0  0  0  0  0  0
   10.2209    0.9890    6.4192 H   0  0  0  0  0  0  0  0  0  0  0  0
    8.4188    0.9026    8.1486 H   0  0  0  0  0  0  0  0  0  0  0  0
    5.9459    1.0295    7.3848 H   0  0  0  0  0  0  0  0  0  0  0  0
    7.0681    1.3112    3.3782 H   0  0  0  0  0  0  0  0  0  0  0  0
  1  2  1  0
  1 30  1  0
  1 31  1  0
  1 32  1  0
  2  3  1  0
  2 33  1  0
  2 34  1  0
  3  4  1  0
  3  6  1  0
  4  5  1  0
  4 35  1  0
  4 36  1  0
  5 37  1  0
  5 38  1  0
  5 39  1  0
  6  7  2  0
  6  8  1  0
  8  9  2  0
  8 13  1  0
  9 10  1  0
  9 40  1  0
 10 11  2  0
 10 41  1  0
 11 12  1  0
 11 42  1  0
 12 13  2  0
 12 43  1  0
 13 14  1  0
 14 15  1  0
 14 44  1  0
 15 16  2  0
 15 17  1  0
 17 18  1  0
 17 45  1  0
 17 46  1  0
 18 19  1  0
 18 47  1  0
 18 48  1  0
 19 20  2  0
 19 29  1  0
 20 21  1  0
 21 22  1  0
 21 28  2  0
 22 23  2  0
 22 27  1  0
 23 24  1  0
 23 49  1  0
 24 25  2  0
 24 50  1  0
 25 26  1  0
 25 51  1  0
 26 27  2  0
 27 52  1  0
 28 29  1  0
M  END

