
     RDKit          3D

 33 35  0  0  0  0  0  0  0  0999 V2000
    4.0678    1.5820    2.4175 Br  0  0  0  0  0  0  0  0  0  0  0  0
    4.2971    0.5465    0.8401 C   0  0  0  0  0  0  0  0  0  0  0  0
    3.4623    0.8038   -0.2650 C   0  0  0  0  0  0  0  0  0  0  0  0
    3.6373    0.0545   -1.4409 C   0  0  0  0  0  0  0  0  0  0  0  0
    4.6068   -0.9275   -1.5269 C   0  0  0  0  0  0  0  0  0  0  0  0
    5.4534   -1.2081   -0.3994 C   0  0  0  0  0  0  0  0  0  0  0  0
    6.4048   -2.1678   -0.4217 N   0  0  0  0  0  0  0  0  0  0  0  0
    6.6052   -3.0233   -1.5836 C   0  0  0  0  0  0  0  0  0  0  0  0
    5.6502   -4.2696   -1.5345 C   0  0  0  0  0  0  0  0  0  0  0  0
    5.8098   -5.1884   -0.4467 N   0  0  0  0  0  0  0  0  0  0  0  0
    5.7329   -4.6354    0.9204 C   0  0  0  0  0  0  0  0  0  0  0  0
    6.9444   -3.8294    1.3324 C   0  0  0  0  0  0  0  0  0  0  0  0
    7.8961   -4.3703    2.1737 C   0  0  0  0  0  0  0  0  0  0  0  0
    9.1401   -3.7182    2.4402 C   0  0  0  0  0  0  0  0  0  0  0  0
    9.4359   -2.5308    1.7226 C   0  0  0  0  0  0  0  0  0  0  0  0
    8.5150   -1.9496    0.8731 C   0  0  0  0  0  0  0  0  0  0  0  0
    7.1781   -2.5078    0.7790 C   0  0  0  0  0  0  0  0  0  0  0  0
    5.2765   -0.4249    0.7935 C   0  0  0  0  0  0  0  0  0  0  0  0
    2.6985    1.5800   -0.2075 H   0  0  0  0  0  0  0  0  0  0  0  0
    2.9937    0.2536   -2.3005 H   0  0  0  0  0  0  0  0  0  0  0  0
    4.7109   -1.4894   -2.4520 H   0  0  0  0  0  0  0  0  0  0  0  0
    7.6507   -3.3549   -1.5518 H   0  0  0  0  0  0  0  0  0  0  0  0
    6.4409   -2.4817   -2.5271 H   0  0  0  0  0  0  0  0  0  0  0  0
    5.7947   -4.8071   -2.4871 H   0  0  0  0  0  0  0  0  0  0  0  0
    4.6134   -3.8846   -1.5389 H   0  0  0  0  0  0  0  0  0  0  0  0
    6.6702   -5.7257   -0.5436 H   0  0  0  0  0  0  0  0  0  0  0  0
    5.6031   -5.4805    1.6144 H   0  0  0  0  0  0  0  0  0  0  0  0
    4.8007   -4.0423    0.9765 H   0  0  0  0  0  0  0  0  0  0  0  0
    7.6856   -5.3379    2.6432 H   0  0  0  0  0  0  0  0  0  0  0  0
    9.8756   -4.1712    3.1052 H   0  0  0  0  0  0  0  0  0  0  0  0
   10.4121   -2.0520    1.8512 H   0  0  0  0  0  0  0  0  0  0  0  0
    8.7592   -1.0282    0.3369 H   0  0  0  0  0  0  0  0  0  0  0  0
    5.9360   -0.6332    1.6328 H   0  0  0  0  0  0  0  0  0  0  0  0
  1  2  1  0
  2  3  2  0
  2 18  1  0
  3  4  1  0
  3 19  1  0
  4  5  2  0
  4 20  1  0
  5  6  1  0
  5 21  1  0
  6  7  1  0
  6 18  2  0
  7  8  1  0
  7 17  1  0
  8  9  1  0
  8 22  1  0
  8 23  1  0
  9 10  1  0
  9 24  1  0
  9 25  1  0
 10 11  1  0
 10 26  1  0
 11 12  1  0
 11 27  1  0
 11 28  1  0
 12 13  1  0
 12 17  2  0
 13 14  2  0
 13 29  1  0
 14 15  1  0
 14 30  1  0
 15 16  2  0
 15 31  1  0
 16 17  1  0
 16 32  1  0
 18 33  1  0
M  END

