
     RDKit          3D

 52 54  0  0  0  0  0  0  0  0999 V2000
    4.8838   -0.5265   -0.1597 C   0  0  0  0  0  0  0  0  0  0  0  0
    3.4815   -0.0581   -0.5374 C   0  0  0  0  0  0  0  0  0  0  0  0
    3.4729    0.7516   -1.7537 N   0  0  0  0  0  0  0  0  0  0  0  0
    3.2233    2.0705   -1.8515 C   0  0  0  0  0  0  0  0  0  0  0  0
    3.3598    2.3984   -3.2348 C   0  0  0  0  0  0  0  0  0  0  0  0
    3.2171    3.5656   -3.8605 N   0  0  0  0  0  0  0  0  0  0  0  0
    2.8460    4.8575   -3.1714 C   0  0  0  0  0  0  0  0  0  0  0  0
    2.6546    4.8292   -1.9677 O   0  0  0  0  0  0  0  0  0  0  0  0
    2.7727    5.9461   -4.0618 C   0  0  0  0  0  0  0  0  0  0  0  0
    2.4798    7.3213   -3.8985 C   0  0  0  0  0  0  0  0  0  0  0  0
    2.5841    7.8986   -5.1662 C   0  0  0  0  0  0  0  0  0  0  0  0
    2.9231    6.8910   -6.0724 C   0  0  0  0  0  0  0  0  0  0  0  0
    3.1900    6.8957   -7.5184 C   0  0  0  0  0  0  0  0  0  0  0  0
    4.6166    6.9122   -7.7790 O   0  0  0  0  0  0  0  0  0  0  0  0
    5.0636    6.8997   -9.0493 C   0  0  0  0  0  0  0  0  0  0  0  0
    4.2398    6.8882  -10.1921 C   0  0  0  0  0  0  0  0  0  0  0  0
    4.8179    6.8796  -11.4611 C   0  0  0  0  0  0  0  0  0  0  0  0
    6.2094    6.8832  -11.6276 C   0  0  0  0  0  0  0  0  0  0  0  0
    6.7547    6.8740  -13.0103 C   0  0  0  0  0  0  0  0  0  0  0  0
    6.0757    6.8599  -14.0360 O   0  0  0  0  0  0  0  0  0  0  0  0
    8.1108    6.8830  -13.0326 O   0  0  0  0  0  0  0  0  0  0  0  0
    8.7163    6.8774  -14.3207 C   0  0  0  0  0  0  0  0  0  0  0  0
    7.0279    6.8962  -10.4808 C   0  0  0  0  0  0  0  0  0  0  0  0
    6.4654    6.9038   -9.2128 C   0  0  0  0  0  0  0  0  0  0  0  0
    3.0461    5.6924   -5.4086 O   0  0  0  0  0  0  0  0  0  0  0  0
    3.7062    1.1221   -3.8435 C   0  0  0  0  0  0  0  0  0  0  0  0
    3.9468    0.9371   -5.2863 C   0  0  0  0  0  0  0  0  0  0  0  0
    3.8633    1.8662   -6.0786 O   0  0  0  0  0  0  0  0  0  0  0  0
    4.2565   -0.3160   -5.6240 O   0  0  0  0  0  0  0  0  0  0  0  0
    4.5022   -0.5543   -7.0127 C   0  0  0  0  0  0  0  0  0  0  0  0
    3.7666    0.1620   -2.9321 N   0  0  0  0  0  0  0  0  0  0  0  0
    4.8336   -1.1519    0.7445 H   0  0  0  0  0  0  0  0  0  0  0  0
    5.5456    0.3286    0.0470 H   0  0  0  0  0  0  0  0  0  0  0  0
    5.3236   -1.1231   -0.9720 H   0  0  0  0  0  0  0  0  0  0  0  0
    3.0332    0.5564    0.2562 H   0  0  0  0  0  0  0  0  0  0  0  0
    2.8175   -0.9176   -0.7177 H   0  0  0  0  0  0  0  0  0  0  0  0
    2.9684    2.7104   -1.0139 H   0  0  0  0  0  0  0  0  0  0  0  0
    3.3671    3.5691   -4.8711 H   0  0  0  0  0  0  0  0  0  0  0  0
    2.2253    7.8050   -2.9590 H   0  0  0  0  0  0  0  0  0  0  0  0
    2.4298    8.9452   -5.4237 H   0  0  0  0  0  0  0  0  0  0  0  0
    2.7289    7.7884   -7.9738 H   0  0  0  0  0  0  0  0  0  0  0  0
    2.7634    5.9937   -7.9946 H   0  0  0  0  0  0  0  0  0  0  0  0
    3.1540    6.8858  -10.1023 H   0  0  0  0  0  0  0  0  0  0  0  0
    4.1891    6.8704  -12.3539 H   0  0  0  0  0  0  0  0  0  0  0  0
    9.8006    6.8863  -14.1512 H   0  0  0  0  0  0  0  0  0  0  0  0
    8.4153    7.7623  -14.9027 H   0  0  0  0  0  0  0  0  0  0  0  0
    8.4278    5.9796  -14.8893 H   0  0  0  0  0  0  0  0  0  0  0  0
    8.1124    6.8999  -10.5979 H   0  0  0  0  0  0  0  0  0  0  0  0
    7.0860    6.9133   -8.3145 H   0  0  0  0  0  0  0  0  0  0  0  0
    4.7438   -1.6203   -7.0977 H   0  0  0  0  0  0  0  0  0  0  0  0
    5.3415    0.0603   -7.3708 H   0  0  0  0  0  0  0  0  0  0  0  0
    3.6117   -0.3134   -7.6126 H   0  0  0  0  0  0  0  0  0  0  0  0
  1  2  1  0
  1 32  1  0
  1 33  1  0
  1 34  1  0
  2  3  1  0
  2 35  1  0
  2 36  1  0
  3  4  1  0
  3 31  1  0
  4  5  2  0
  4 37  1  0
  5  6  1  0
  5 26  1  0
  6  7  1  0
  6 38  1  0
  7  8  2  0
  7  9  1  0
  9 10  2  0
  9 25  1  0
 10 11  1  0
 10 39  1  0
 11 12  2  0
 11 40  1  0
 12 13  1  0
 12 25  1  0
 13 14  1  0
 13 41  1  0
 13 42  1  0
 14 15  1  0
 15 16  2  0
 15 24  1  0
 16 17  1  0
 16 43  1  0
 17 18  2  0
 17 44  1  0
 18 19  1  0
 18 23  1  0
 19 20  2  0
 19 21  1  0
 21 22  1  0
 22 45  1  0
 22 46  1  0
 22 47  1  0
 23 24  2  0
 23 48  1  0
 24 49  1  0
 26 27  1  0
 26 31  2  0
 27 28  2  0
 27 29  1  0
 29 30  1  0
 30 50  1  0
 30 51  1  0
 30 52  1  0
M  END

