
     RDKit          3D

 30 31  0  0  0  0  0  0  0  0999 V2000
    0.9065   -0.1909   -0.1969 C   0  0  0  0  0  0  0  0  0  0  0  0
    2.3141   -0.0625   -0.3975 N   0  0  0  0  0  0  0  0  0  0  0  0
    3.1711   -1.0229   -1.1122 C   0  0  0  0  0  0  0  0  0  0  0  0
    4.6161   -0.7366   -1.0158 C   0  0  0  0  0  0  0  0  0  0  0  0
    5.6440   -1.3584    0.3043 S   0  0  0  0  0  0  0  0  0  0  0  0
    7.0936   -0.8422   -0.6457 C   0  0  0  0  0  0  0  0  0  0  0  0
    8.4152   -0.9903   -0.1402 C   0  0  0  0  0  0  0  0  0  0  0  0
    9.5370   -0.5538   -0.9018 C   0  0  0  0  0  0  0  0  0  0  0  0
   10.8355   -0.6865   -0.4231 C   0  0  0  0  0  0  0  0  0  0  0  0
   11.0966   -1.2582    0.8368 C   0  0  0  0  0  0  0  0  0  0  0  0
   12.3284   -1.4342    1.3989 O   0  0  0  0  0  0  0  0  0  0  0  0
   13.4570   -1.0230    0.6741 C   0  0  0  0  0  0  0  0  0  0  0  0
    9.9862   -1.6904    1.5907 C   0  0  0  0  0  0  0  0  0  0  0  0
   10.2133   -2.2401    2.7982 F   0  0  0  0  0  0  0  0  0  0  0  0
    8.6887   -1.5707    1.1360 C   0  0  0  0  0  0  0  0  0  0  0  0
    6.7676   -0.3120   -1.8510 N   0  0  0  0  0  0  0  0  0  0  0  0
    5.4719   -0.2823   -2.0260 C   0  0  0  0  0  0  0  0  0  0  0  0
    4.7599    0.3926   -3.6881 Br  0  0  0  0  0  0  0  0  0  0  0  0
    0.3969    0.7203   -0.5511 H   0  0  0  0  0  0  0  0  0  0  0  0
    0.7000   -0.2742    0.8852 H   0  0  0  0  0  0  0  0  0  0  0  0
    0.5235   -1.0761   -0.7172 H   0  0  0  0  0  0  0  0  0  0  0  0
    2.7903    0.7646   -0.0329 H   0  0  0  0  0  0  0  0  0  0  0  0
    2.8162   -0.9717   -2.1596 H   0  0  0  0  0  0  0  0  0  0  0  0
    2.8617   -2.0161   -0.7355 H   0  0  0  0  0  0  0  0  0  0  0  0
    9.3558   -0.1088   -1.8807 H   0  0  0  0  0  0  0  0  0  0  0  0
   11.6627   -0.3383   -1.0434 H   0  0  0  0  0  0  0  0  0  0  0  0
   14.3340   -1.2530    1.2956 H   0  0  0  0  0  0  0  0  0  0  0  0
   13.4461    0.0636    0.4643 H   0  0  0  0  0  0  0  0  0  0  0  0
   13.5537   -1.5603   -0.2887 H   0  0  0  0  0  0  0  0  0  0  0  0
    7.8886   -1.9336    1.7842 H   0  0  0  0  0  0  0  0  0  0  0  0
  1  2  1  0
  1 19  1  0
  1 20  1  0
  1 21  1  0
  2  3  1  0
  2 22  1  0
  3  4  1  0
  3 23  1  0
  3 24  1  0
  4  5  1  0
  4 17  2  0
  5  6  1  0
  6  7  1  0
  6 16  2  0
  7  8  2  0
  7 15  1  0
  8  9  1  0
  8 25  1  0
  9 10  2  0
  9 26  1  0
 10 11  1  0
 10 13  1  0
 11 12  1  0
 12 27  1  0
 12 28  1  0
 12 29  1  0
 13 14  1  0
 13 15  2  0
 15 30  1  0
 16 17  1  0
 17 18  1  0
M  END

