
     RDKit          3D

 45 47  0  0  0  0  0  0  0  0999 V2000
    7.9116   -6.0439   -0.2029 C   0  0  0  0  0  0  0  0  0  0  0  0
    8.4995   -4.7070    0.2328 C   0  0  1  0  0  0  0  0  0  0  0  0
    7.6333   -3.4860   -0.1590 C   0  0  0  0  0  0  0  0  0  0  0  0
    7.7279   -2.5094    1.0458 C   0  0  2  0  0  0  0  0  0  0  0  0
    7.9956   -1.1362    0.6757 N   0  0  0  0  0  0  0  0  0  0  0  0
    7.2444   -0.0811    1.1376 C   0  0  0  0  0  0  0  0  0  0  0  0
    6.3199   -0.1528    1.9192 O   0  0  0  0  0  0  0  0  0  0  0  0
    7.6634    1.1201    0.5438 N   0  0  0  0  0  0  0  0  0  0  0  0
    7.2071    2.4621    0.9307 C   0  0  2  0  0  0  0  0  0  0  0  0
    6.2114    2.3489    1.3792 H   0  0  0  0  0  0  0  0  0  0  0  0
    7.4165    3.5502   -0.0727 C   0  0  0  0  0  0  0  0  0  0  0  0
    8.7902    3.9777   -0.0782 C   0  0  0  0  0  0  0  0  0  0  0  0
    9.4693    3.4588    1.1912 C   0  0  2  0  0  0  0  0  0  0  0  0
    9.9686    4.2407    1.7914 H   0  0  0  0  0  0  0  0  0  0  0  0
   10.5524    2.4025    0.8103 C   0  0  0  0  0  0  0  0  0  0  0  0
   10.1279    1.6939   -0.3568 O   0  0  0  0  0  0  0  0  0  0  0  0
    8.3057    2.8633    2.0205 C   0  0  0  0  0  0  0  0  0  0  0  0
    8.8240   -3.1406    1.9272 C   0  0  0  0  0  0  0  0  0  0  0  0
    8.6462   -4.5616    1.6894 N   0  0  0  0  0  0  0  0  0  0  0  0
    9.6175   -5.4013    2.3244 C   0  0  1  0  0  0  0  0  0  0  0  0
    9.4970   -5.6391    3.8079 C   0  0  0  0  0  0  0  0  0  0  0  0
    9.2086   -6.7577    2.8421 C   0  0  0  0  0  0  0  0  0  0  0  0
    7.7727   -6.0592   -1.2958 H   0  0  0  0  0  0  0  0  0  0  0  0
    6.9323   -6.2082    0.2745 H   0  0  0  0  0  0  0  0  0  0  0  0
    8.5706   -6.8835    0.0611 H   0  0  0  0  0  0  0  0  0  0  0  0
    9.4990   -4.5948   -0.2496 H   0  0  0  0  0  0  0  0  0  0  0  0
    6.5863   -3.7768   -0.3321 H   0  0  0  0  0  0  0  0  0  0  0  0
    7.9965   -3.0172   -1.0864 H   0  0  0  0  0  0  0  0  0  0  0  0
    6.7840   -2.4895    1.6044 H   0  0  0  0  0  0  0  0  0  0  0  0
    8.8023   -0.9376    0.0886 H   0  0  0  0  0  0  0  0  0  0  0  0
    8.5955    1.1434    0.0444 H   0  0  0  0  0  0  0  0  0  0  0  0
    6.6588    3.7805   -0.8199 H   0  0  0  0  0  0  0  0  0  0  0  0
    9.0842    4.9508   -0.4878 H   0  0  0  0  0  0  0  0  0  0  0  0
   10.7358    1.6691    1.6144 H   0  0  0  0  0  0  0  0  0  0  0  0
   11.5105    2.9122    0.6008 H   0  0  0  0  0  0  0  0  0  0  0  0
    9.6913    2.4668   -0.8538 H   0  0  0  0  0  0  0  0  0  0  0  0
    7.7988    3.6333    2.6201 H   0  0  0  0  0  0  0  0  0  0  0  0
    8.5959    2.0441    2.6998 H   0  0  0  0  0  0  0  0  0  0  0  0
    8.7149   -2.8884    2.9925 H   0  0  0  0  0  0  0  0  0  0  0  0
    9.8249   -2.7736    1.5951 H   0  0  0  0  0  0  0  0  0  0  0  0
   10.6470   -5.3208    1.9287 H   0  0  0  0  0  0  0  0  0  0  0  0
    8.6418   -5.1829    4.3137 H   0  0  0  0  0  0  0  0  0  0  0  0
   10.4147   -5.6750    4.4008 H   0  0  0  0  0  0  0  0  0  0  0  0
    8.1631   -7.0440    2.7081 H   0  0  0  0  0  0  0  0  0  0  0  0
    9.9258   -7.5789    2.7571 H   0  0  0  0  0  0  0  0  0  0  0  0
  1  2  1  0
  1 23  1  0
  1 24  1  0
  1 25  1  0
  2  3  1  0
  2 19  1  0
  2 26  1  6
  3  4  1  0
  3 27  1  0
  3 28  1  0
  4  5  1  0
  4 18  1  0
  4 29  1  1
  5  6  1  0
  5 30  1  0
  6  7  2  0
  6  8  1  0
  8  9  1  0
  8 31  1  0
  9 10  1  1
  9 11  1  0
  9 17  1  0
 11 12  2  0
 11 32  1  0
 12 13  1  0
 12 33  1  0
 13 14  1  1
 13 15  1  0
 13 17  1  0
 15 16  1  0
 15 34  1  0
 15 35  1  0
 16 36  1  0
 17 37  1  0
 17 38  1  0
 18 19  1  0
 18 39  1  0
 18 40  1  0
 19 20  1  0
 20 21  1  0
 20 22  1  0
 20 41  1  6
 21 22  1  0
 21 42  1  0
 21 43  1  0
 22 44  1  0
 22 45  1  0
M  END

