
     RDKit          3D

 48 51  0  0  0  0  0  0  0  0999 V2000
    3.3781    0.1878   -0.2067 O   0  0  0  0  0  0  0  0  0  0  0  0
    3.7599    1.3168   -0.4564 C   0  0  0  0  0  0  0  0  0  0  0  0
    3.0413    2.6070   -0.0250 C   0  0  1  0  0  0  0  0  0  0  0  0
    3.3596    2.9386    1.4509 C   0  0  0  0  0  0  0  0  0  0  0  0
    4.3593    3.6097    1.6914 O   0  0  0  0  0  0  0  0  0  0  0  0
    2.5135    2.5088    2.4327 N   0  0  0  0  0  0  0  0  0  0  0  0
    2.7027    3.0254    3.7870 C   0  0  0  0  0  0  0  0  0  0  0  0
    1.5042    3.8986    4.1663 C   0  0  0  0  0  0  0  0  0  0  0  0
    0.2648    3.1412    4.0052 N   0  0  0  0  0  0  0  0  0  0  0  0
    0.0904    2.6022    2.6585 C   0  0  0  0  0  0  0  0  0  0  0  0
    1.2696    1.6752    2.2885 C   0  0  2  0  0  0  0  0  0  0  0  0
    1.3096    0.3789    3.0455 C   0  0  0  0  0  0  0  0  0  0  0  0
    1.9484   -0.8174    2.5471 C   0  0  0  0  0  0  0  0  0  0  0  0
    1.9544   -1.9973    3.2453 C   0  0  0  0  0  0  0  0  0  0  0  0
    1.3139   -2.1037    4.5452 C   0  0  0  0  0  0  0  0  0  0  0  0
    0.8004   -0.9203    4.9322 N   0  0  0  0  0  0  0  0  0  0  0  0
    0.7383    0.2266    4.3685 C   0  0  0  0  0  0  0  0  0  0  0  0
    3.6419    3.6644   -0.9630 C   0  0  0  0  0  0  0  0  0  0  0  0
    5.0399    3.1252   -1.2877 C   0  0  0  0  0  0  0  0  0  0  0  0
    4.8934    1.6694   -1.1583 N   0  0  0  0  0  0  0  0  0  0  0  0
    5.8923    0.7819   -1.6272 C   0  0  0  0  0  0  0  0  0  0  0  0
    5.6596   -0.6027   -1.7594 C   0  0  0  0  0  0  0  0  0  0  0  0
    6.6638   -1.4439   -2.2377 C   0  0  0  0  0  0  0  0  0  0  0  0
    7.9025   -0.9141   -2.5896 C   0  0  0  0  0  0  0  0  0  0  0  0
    8.8641   -1.7286   -3.0526 F   0  0  0  0  0  0  0  0  0  0  0  0
    8.1582    0.4474   -2.4684 C   0  0  0  0  0  0  0  0  0  0  0  0
    7.1553    1.2909   -1.9869 C   0  0  0  0  0  0  0  0  0  0  0  0
    1.9651    2.4686   -0.1847 H   0  0  0  0  0  0  0  0  0  0  0  0
    3.6341    3.6028    3.8061 H   0  0  0  0  0  0  0  0  0  0  0  0
    2.7951    2.1806    4.4884 H   0  0  0  0  0  0  0  0  0  0  0  0
    1.5234    4.8132    3.5327 H   0  0  0  0  0  0  0  0  0  0  0  0
    1.5947    4.2210    5.2164 H   0  0  0  0  0  0  0  0  0  0  0  0
   -0.5428    3.6969    4.2793 H   0  0  0  0  0  0  0  0  0  0  0  0
    0.0362    3.4063    1.8912 H   0  0  0  0  0  0  0  0  0  0  0  0
   -0.8529    2.0357    2.6168 H   0  0  0  0  0  0  0  0  0  0  0  0
    1.1837    1.4223    1.2244 H   0  0  0  0  0  0  0  0  0  0  0  0
    2.4421   -0.7663    1.5730 H   0  0  0  0  0  0  0  0  0  0  0  0
    2.4399   -2.8932    2.8507 H   0  0  0  0  0  0  0  0  0  0  0  0
    1.3322   -2.9587    5.2141 H   0  0  0  0  0  0  0  0  0  0  0  0
    0.2741    1.0869    4.8766 H   0  0  0  0  0  0  0  0  0  0  0  0
    3.6888    4.6608   -0.5072 H   0  0  0  0  0  0  0  0  0  0  0  0
    3.0385    3.7208   -1.8824 H   0  0  0  0  0  0  0  0  0  0  0  0
    5.7851    3.5038   -0.5707 H   0  0  0  0  0  0  0  0  0  0  0  0
    5.3650    3.3810   -2.3080 H   0  0  0  0  0  0  0  0  0  0  0  0
    4.6938   -1.0121   -1.4758 H   0  0  0  0  0  0  0  0  0  0  0  0
    6.4909   -2.5169   -2.3433 H   0  0  0  0  0  0  0  0  0  0  0  0
    9.1389    0.8386   -2.7456 H   0  0  0  0  0  0  0  0  0  0  0  0
    7.3755    2.3529   -1.8836 H   0  0  0  0  0  0  0  0  0  0  0  0
  1  2  2  0
  2  3  1  0
  2 20  1  0
  3  4  1  0
  3 18  1  0
  3 28  1  1
  4  5  2  0
  4  6  1  0
  6  7  1  0
  6 11  1  0
  7  8  1  0
  7 29  1  0
  7 30  1  0
  8  9  1  0
  8 31  1  0
  8 32  1  0
  9 10  1  0
  9 33  1  0
 10 11  1  0
 10 34  1  0
 10 35  1  0
 11 12  1  0
 11 36  1  6
 12 13  2  0
 12 17  1  0
 13 14  1  0
 13 37  1  0
 14 15  2  0
 14 38  1  0
 15 16  1  0
 15 39  1  0
 16 17  2  0
 17 40  1  0
 18 19  1  0
 18 41  1  0
 18 42  1  0
 19 20  1  0
 19 43  1  0
 19 44  1  0
 20 21  1  0
 21 22  2  0
 21 27  1  0
 22 23  1  0
 22 45  1  0
 23 24  2  0
 23 46  1  0
 24 25  1  0
 24 26  1  0
 26 27  2  0
 26 47  1  0
 27 48  1  0
M  END

