
     RDKit          3D

 55 58  0  0  0  0  0  0  0  0999 V2000
    2.6798   -1.1625    0.4792 C   0  0  0  0  0  0  0  0  0  0  0  0
    3.6975   -0.1800    1.0501 C   0  0  0  0  0  0  0  0  0  0  0  0
    4.4707    0.4393   -0.0232 N   0  0  0  0  0  0  0  0  0  0  0  0
    5.9525    1.1605    0.2534 S   0  0  1  0  0  0  0  0  0  0  0  0
    6.6795    0.2656    1.1544 O   0  0  0  0  0  0  0  0  0  0  0  0
    6.4422    1.5390   -1.0719 O   0  0  0  0  0  0  0  0  0  0  0  0
    5.6768    2.6709    1.1328 C   0  0  0  0  0  0  0  0  0  0  0  0
    5.5783    3.9031    0.5213 C   0  0  0  0  0  0  0  0  0  0  0  0
    5.3642    4.8818    1.4622 N   0  0  0  0  0  0  0  0  0  0  0  0
    5.2225    6.2705    1.1759 C   0  0  0  0  0  0  0  0  0  0  0  0
    4.3174    6.7002    0.1982 C   0  0  0  0  0  0  0  0  0  0  0  0
    4.1825    8.0514   -0.1190 C   0  0  0  0  0  0  0  0  0  0  0  0
    4.9533    9.0103    0.5638 C   0  0  0  0  0  0  0  0  0  0  0  0
    4.8797   10.3918    0.3197 N   0  0  0  0  0  0  0  0  0  0  0  0
    4.0661   11.0584   -0.5876 C   0  0  0  0  0  0  0  0  0  0  0  0
    3.2675   10.5033   -1.3182 O   0  0  0  0  0  0  0  0  0  0  0  0
    4.2690   12.4318   -0.5651 N   0  0  0  0  0  0  0  0  0  0  0  0
    3.6213   13.4126   -1.3361 C   0  0  0  0  0  0  0  0  0  0  0  0
    2.6274   13.1340   -2.2899 C   0  0  0  0  0  0  0  0  0  0  0  0
    2.0442   14.1799   -3.0033 C   0  0  0  0  0  0  0  0  0  0  0  0
    2.4256   15.5069   -2.7932 C   0  0  0  0  0  0  0  0  0  0  0  0
    1.6474   16.7577   -3.7277 Cl  0  0  0  0  0  0  0  0  0  0  0  0
    3.4190   15.7980   -1.8419 C   0  0  0  0  0  0  0  0  0  0  0  0
    3.8779   17.2169   -1.5683 C   0  0  1  0  0  0  0  0  0  0  0  0
    2.8722   17.9937   -1.1400 F   0  0  0  0  0  0  0  0  0  0  0  0
    4.8311   17.2471   -0.6157 F   0  0  0  0  0  0  0  0  0  0  0  0
    4.3993   17.7930   -2.6615 F   0  0  0  0  0  0  0  0  0  0  0  0
    4.0015   14.7487   -1.1286 C   0  0  0  0  0  0  0  0  0  0  0  0
    5.8573    8.5739    1.5514 C   0  0  0  0  0  0  0  0  0  0  0  0
    5.9996    7.2222    1.8496 C   0  0  0  0  0  0  0  0  0  0  0  0
    5.3235    4.2761    2.7193 C   0  0  0  0  0  0  0  0  0  0  0  0
    5.1030    4.8044    4.0007 C   0  0  0  0  0  0  0  0  0  0  0  0
    5.1132    4.0217    5.0716 N   0  0  0  0  0  0  0  0  0  0  0  0
    5.3428    2.7013    4.9214 C   0  0  0  0  0  0  0  0  0  0  0  0
    5.5540    2.0725    3.6985 C   0  0  0  0  0  0  0  0  0  0  0  0
    5.5271    2.8801    2.5483 C   0  0  0  0  0  0  0  0  0  0  0  0
    2.1150   -1.6439    1.2928 H   0  0  0  0  0  0  0  0  0  0  0  0
    3.1806   -1.9438   -0.1124 H   0  0  0  0  0  0  0  0  0  0  0  0
    1.9510   -0.6535   -0.1738 H   0  0  0  0  0  0  0  0  0  0  0  0
    4.4149   -0.7110    1.6924 H   0  0  0  0  0  0  0  0  0  0  0  0
    3.1843    0.5732    1.6806 H   0  0  0  0  0  0  0  0  0  0  0  0
    3.9451    0.9379   -0.7390 H   0  0  0  0  0  0  0  0  0  0  0  0
    5.6892    4.1470   -0.5331 H   0  0  0  0  0  0  0  0  0  0  0  0
    3.6966    5.9666   -0.3209 H   0  0  0  0  0  0  0  0  0  0  0  0
    3.4772    8.3737   -0.8804 H   0  0  0  0  0  0  0  0  0  0  0  0
    5.5052   10.9495    0.8887 H   0  0  0  0  0  0  0  0  0  0  0  0
    4.9631   12.7965    0.0760 H   0  0  0  0  0  0  0  0  0  0  0  0
    2.3211   12.1058   -2.4642 H   0  0  0  0  0  0  0  0  0  0  0  0
    1.2724   13.9649   -3.7441 H   0  0  0  0  0  0  0  0  0  0  0  0
    4.7718   14.9872   -0.3929 H   0  0  0  0  0  0  0  0  0  0  0  0
    6.4717    9.3039    2.0868 H   0  0  0  0  0  0  0  0  0  0  0  0
    6.7274    6.9044    2.5981 H   0  0  0  0  0  0  0  0  0  0  0  0
    4.9127    5.8725    4.1545 H   0  0  0  0  0  0  0  0  0  0  0  0
    5.3567    2.1114    5.8446 H   0  0  0  0  0  0  0  0  0  0  0  0
    5.7464    1.0010    3.6315 H   0  0  0  0  0  0  0  0  0  0  0  0
  1  2  1  0
  1 37  1  0
  1 38  1  0
  1 39  1  0
  2  3  1  0
  2 40  1  0
  2 41  1  0
  4  3  1  6
  3 42  1  0
  4  5  2  0
  4  6  2  0
  4  7  1  0
  7  8  2  0
  7 36  1  0
  8  9  1  0
  8 43  1  0
  9 10  1  0
  9 31  1  0
 10 11  2  0
 10 30  1  0
 11 12  1  0
 11 44  1  0
 12 13  2  0
 12 45  1  0
 13 14  1  0
 13 29  1  0
 14 15  1  0
 14 46  1  0
 15 16  2  0
 15 17  1  0
 17 18  1  0
 17 47  1  0
 18 19  2  0
 18 28  1  0
 19 20  1  0
 19 48  1  0
 20 21  2  0
 20 49  1  0
 21 22  1  0
 21 23  1  0
 23 24  1  0
 23 28  2  0
 24 25  1  1
 24 26  1  0
 24 27  1  0
 28 50  1  0
 29 30  2  0
 29 51  1  0
 30 52  1  0
 31 32  1  0
 31 36  2  0
 32 33  2  0
 32 53  1  0
 33 34  1  0
 34 35  2  0
 34 54  1  0
 35 36  1  0
 35 55  1  0
M  END

