
     RDKit          3D

 49 51  0  0  0  0  0  0  0  0999 V2000
    0.3731    2.0259    0.7393 C   0  0  0  0  0  0  0  0  0  0  0  0
    1.5926    1.2177    0.3462 C   0  0  0  0  0  0  0  0  0  0  0  0
    2.6967    2.1282    0.2676 O   0  0  0  0  0  0  0  0  0  0  0  0
    3.9231    1.8472   -0.1849 C   0  0  0  0  0  0  0  0  0  0  0  0
    4.8145    2.9401   -0.3642 C   0  0  0  0  0  0  0  0  0  0  0  0
    4.1278    4.9022    0.0639 I   0  0  0  0  0  0  0  0  0  0  0  0
    6.1099    2.7622   -0.8120 C   0  0  0  0  0  0  0  0  0  0  0  0
    6.6245    1.4583   -1.1198 C   0  0  0  0  0  0  0  0  0  0  0  0
    7.9916    1.3358   -1.5908 C   0  0  0  0  0  0  0  0  0  0  0  0
    8.7117    0.1926   -1.9535 C   0  0  0  0  0  0  0  0  0  0  0  0
   10.0277    0.3013   -2.3821 N   0  0  0  0  0  0  0  0  0  0  0  0
   10.6116   -0.9254   -2.6992 C   0  0  0  0  0  0  0  0  0  0  0  0
   11.7462   -1.1132   -3.0947 O   0  0  0  0  0  0  0  0  0  0  0  0
    9.6201   -1.8554   -2.4549 N   0  0  0  0  0  0  0  0  0  0  0  0
    9.7759   -3.2817   -2.7001 C   0  0  0  0  0  0  0  0  0  0  0  0
    9.4218   -3.6990   -4.1153 C   0  0  0  0  0  0  0  0  0  0  0  0
   10.3998   -3.7329   -5.1185 C   0  0  0  0  0  0  0  0  0  0  0  0
   10.0676   -4.1014   -6.4251 C   0  0  0  0  0  0  0  0  0  0  0  0
    8.7525   -4.4461   -6.7709 C   0  0  0  0  0  0  0  0  0  0  0  0
    8.3947   -4.8714   -8.1747 C   0  0  0  0  0  0  0  0  0  0  0  0
    7.7755   -4.3998   -5.7621 C   0  0  0  0  0  0  0  0  0  0  0  0
    8.1016   -4.0318   -4.4563 C   0  0  0  0  0  0  0  0  0  0  0  0
    8.4246   -1.2568   -2.0032 C   0  0  0  0  0  0  0  0  0  0  0  0
    7.4075   -1.9160   -1.7265 O   0  0  0  0  0  0  0  0  0  0  0  0
    5.7570    0.3684   -0.9418 C   0  0  0  0  0  0  0  0  0  0  0  0
    4.4449    0.5412   -0.4849 C   0  0  0  0  0  0  0  0  0  0  0  0
    3.6119   -0.5014   -0.2979 O   0  0  0  0  0  0  0  0  0  0  0  0
    4.0724   -1.8237   -0.5573 C   0  0  0  0  0  0  0  0  0  0  0  0
   -0.5025    1.3626    0.8165 H   0  0  0  0  0  0  0  0  0  0  0  0
    0.1590    2.8031   -0.0096 H   0  0  0  0  0  0  0  0  0  0  0  0
    0.5250    2.5164    1.7127 H   0  0  0  0  0  0  0  0  0  0  0  0
    1.4582    0.7208   -0.6285 H   0  0  0  0  0  0  0  0  0  0  0  0
    1.8179    0.4330    1.0858 H   0  0  0  0  0  0  0  0  0  0  0  0
    6.7577    3.6310   -0.9409 H   0  0  0  0  0  0  0  0  0  0  0  0
    8.5420    2.2764   -1.6781 H   0  0  0  0  0  0  0  0  0  0  0  0
   10.5454    1.1677   -2.4659 H   0  0  0  0  0  0  0  0  0  0  0  0
    9.1271   -3.7953   -1.9770 H   0  0  0  0  0  0  0  0  0  0  0  0
   10.8235   -3.5332   -2.4818 H   0  0  0  0  0  0  0  0  0  0  0  0
   11.4279   -3.4524   -4.8744 H   0  0  0  0  0  0  0  0  0  0  0  0
   10.8475   -4.1200   -7.1922 H   0  0  0  0  0  0  0  0  0  0  0  0
    9.1895   -4.6144   -8.8909 H   0  0  0  0  0  0  0  0  0  0  0  0
    7.4619   -4.3939   -8.5160 H   0  0  0  0  0  0  0  0  0  0  0  0
    8.2373   -5.9627   -8.2339 H   0  0  0  0  0  0  0  0  0  0  0  0
    6.7396   -4.6561   -6.0058 H   0  0  0  0  0  0  0  0  0  0  0  0
    7.3258   -3.9830   -3.6876 H   0  0  0  0  0  0  0  0  0  0  0  0
    6.1319   -0.6319   -1.1681 H   0  0  0  0  0  0  0  0  0  0  0  0
    3.2299   -2.4869   -0.3256 H   0  0  0  0  0  0  0  0  0  0  0  0
    4.9397   -2.0747    0.0741 H   0  0  0  0  0  0  0  0  0  0  0  0
    4.3716   -1.9423   -1.6111 H   0  0  0  0  0  0  0  0  0  0  0  0
  1  2  1  0
  1 29  1  0
  1 30  1  0
  1 31  1  0
  2  3  1  0
  2 32  1  0
  2 33  1  0
  3  4  1  0
  4  5  2  0
  4 26  1  0
  5  6  1  0
  5  7  1  0
  7  8  2  0
  7 34  1  0
  8  9  1  0
  8 25  1  0
  9 10  2  0
  9 35  1  0
 10 11  1  0
 10 23  1  0
 11 12  1  0
 11 36  1  0
 12 13  2  0
 12 14  1  0
 14 15  1  0
 14 23  1  0
 15 16  1  0
 15 37  1  0
 15 38  1  0
 16 17  2  0
 16 22  1  0
 17 18  1  0
 17 39  1  0
 18 19  2  0
 18 40  1  0
 19 20  1  0
 19 21  1  0
 20 41  1  0
 20 42  1  0
 20 43  1  0
 21 22  2  0
 21 44  1  0
 22 45  1  0
 23 24  2  0
 25 26  2  0
 25 46  1  0
 26 27  1  0
 27 28  1  0
 28 47  1  0
 28 48  1  0
 28 49  1  0
M  END

