
     RDKit          3D

 47 49  0  0  0  0  0  0  0  0999 V2000
    5.6063    3.6881   -1.3746 C   0  0  0  0  0  0  0  0  0  0  0  0
    5.5036    2.4957   -0.4566 C   0  0  0  0  0  0  0  0  0  0  0  0
    4.4883    2.4376    0.5352 C   0  0  0  0  0  0  0  0  0  0  0  0
    4.4287    1.2976    1.3675 C   0  0  0  0  0  0  0  0  0  0  0  0
    5.3199    0.2438    1.2526 C   0  0  0  0  0  0  0  0  0  0  0  0
    5.2340   -0.8521    2.0713 N   0  0  0  0  0  0  0  0  0  0  0  0
    6.0999   -1.8123    1.9063 C   0  0  0  0  0  0  0  0  0  0  0  0
    7.1486   -1.8268    0.9431 C   0  0  0  0  0  0  0  0  0  0  0  0
    8.0343   -2.9724    0.8583 C   0  0  0  0  0  0  0  0  0  0  0  0
    7.9194   -4.0132    1.5248 O   0  0  0  0  0  0  0  0  0  0  0  0
    9.0939   -2.8849   -0.0466 N   0  0  0  0  0  0  0  0  0  0  0  0
    9.7607   -4.1027   -0.3616 C   0  0  0  0  0  0  0  0  0  0  0  0
   11.2454   -4.0510   -0.3257 C   0  0  0  0  0  0  0  0  0  0  0  0
   11.9271   -3.0606    0.4285 C   0  0  0  0  0  0  0  0  0  0  0  0
   13.3052   -3.0546    0.4969 C   0  0  0  0  0  0  0  0  0  0  0  0
   14.0586   -4.0043   -0.2433 C   0  0  0  0  0  0  0  0  0  0  0  0
   15.5472   -4.0093   -0.1036 C   0  0  0  0  0  0  0  0  0  0  0  0
   15.9026   -4.2852    1.0472 O   0  0  0  0  0  0  0  0  0  0  0  0
   16.3761   -3.7889   -1.1345 N   0  0  0  0  0  0  0  0  0  0  0  0
   15.9317   -3.3570   -2.4527 C   0  0  0  0  0  0  0  0  0  0  0  0
   17.8180   -3.9072   -0.9334 C   0  0  0  0  0  0  0  0  0  0  0  0
   13.3919   -5.0287   -0.9619 C   0  0  0  0  0  0  0  0  0  0  0  0
   12.0135   -5.0346   -1.0177 C   0  0  0  0  0  0  0  0  0  0  0  0
    7.2796   -0.6991    0.0611 C   0  0  0  0  0  0  0  0  0  0  0  0
    8.1368   -0.5636   -0.8381 O   0  0  0  0  0  0  0  0  0  0  0  0
    6.3329    0.3243    0.2561 N   0  0  0  0  0  0  0  0  0  0  0  0
    6.3934    1.4599   -0.5800 C   0  0  0  0  0  0  0  0  0  0  0  0
    5.7512    4.6178   -0.7982 H   0  0  0  0  0  0  0  0  0  0  0  0
    4.6784    3.8175   -1.9576 H   0  0  0  0  0  0  0  0  0  0  0  0
    6.4428    3.5911   -2.0822 H   0  0  0  0  0  0  0  0  0  0  0  0
    3.7721    3.2519    0.6471 H   0  0  0  0  0  0  0  0  0  0  0  0
    3.6722    1.1902    2.1449 H   0  0  0  0  0  0  0  0  0  0  0  0
    6.0139   -2.6837    2.5670 H   0  0  0  0  0  0  0  0  0  0  0  0
    9.0421   -2.0679   -0.6785 H   0  0  0  0  0  0  0  0  0  0  0  0
    9.4337   -4.5764   -1.3113 H   0  0  0  0  0  0  0  0  0  0  0  0
    9.4083   -4.8126    0.4381 H   0  0  0  0  0  0  0  0  0  0  0  0
   11.3273   -2.3163    0.9520 H   0  0  0  0  0  0  0  0  0  0  0  0
   13.8293   -2.3164    1.1063 H   0  0  0  0  0  0  0  0  0  0  0  0
   14.8498   -3.1771   -2.4607 H   0  0  0  0  0  0  0  0  0  0  0  0
   16.1714   -4.1172   -3.2138 H   0  0  0  0  0  0  0  0  0  0  0  0
   16.4397   -2.4189   -2.7269 H   0  0  0  0  0  0  0  0  0  0  0  0
   18.0153   -4.2744    0.0804 H   0  0  0  0  0  0  0  0  0  0  0  0
   18.3046   -2.9274   -1.0649 H   0  0  0  0  0  0  0  0  0  0  0  0
   18.2417   -4.6122   -1.6658 H   0  0  0  0  0  0  0  0  0  0  0  0
   13.9709   -5.7920   -1.4857 H   0  0  0  0  0  0  0  0  0  0  0  0
   11.4931   -5.7986   -1.5992 H   0  0  0  0  0  0  0  0  0  0  0  0
    7.1961    1.4228   -1.3100 H   0  0  0  0  0  0  0  0  0  0  0  0
  1  2  1  0
  1 28  1  0
  1 29  1  0
  1 30  1  0
  2  3  1  0
  2 27  2  0
  3  4  2  0
  3 31  1  0
  4  5  1  0
  4 32  1  0
  5  6  2  0
  5 26  1  0
  6  7  1  0
  7  8  2  0
  7 33  1  0
  8  9  1  0
  8 24  1  0
  9 10  2  0
  9 11  1  0
 11 12  1  0
 11 34  1  0
 12 13  1  0
 12 35  1  0
 12 36  1  0
 13 14  2  0
 13 23  1  0
 14 15  1  0
 14 37  1  0
 15 16  2  0
 15 38  1  0
 16 17  1  0
 16 22  1  0
 17 18  2  0
 17 19  1  0
 19 20  1  0
 19 21  1  0
 20 39  1  0
 20 40  1  0
 20 41  1  0
 21 42  1  0
 21 43  1  0
 21 44  1  0
 22 23  2  0
 22 45  1  0
 23 46  1  0
 24 25  2  0
 24 26  1  0
 26 27  1  0
 27 47  1  0
M  END

