
     RDKit          3D

 31 32  0  0  0  0  0  0  0  0999 V2000
    5.3700    2.1372   -2.3304 C   0  0  0  0  0  0  0  0  0  0  0  0
    4.5494    0.9183   -2.0678 C   0  0  0  0  0  0  0  0  0  0  0  0
    3.1662    0.8477   -2.2237 C   0  0  0  0  0  0  0  0  0  0  0  0
    2.4358   -0.3283   -1.9664 C   0  0  0  0  0  0  0  0  0  0  0  0
    3.0482   -1.5031   -1.5561 N   0  0  0  0  0  0  0  0  0  0  0  0
    4.3570   -1.4162   -1.4040 C   0  0  0  0  0  0  0  0  0  0  0  0
    4.9714   -2.6358   -0.9572 N   0  0  0  0  0  0  0  0  0  0  0  0
    4.2450   -3.7732   -0.5396 C   0  0  1  0  0  0  0  0  0  0  0  0
    4.9139   -5.1295   -0.8216 C   0  0  0  0  0  0  0  0  0  0  0  0
    4.1711   -6.0762    0.1205 C   0  0  0  0  0  0  0  0  0  0  0  0
    4.0718   -5.2974    1.4447 C   0  0  2  0  0  0  0  0  0  0  0  0
    3.0108   -5.7700    2.3014 N   0  0  0  0  0  0  0  0  0  0  0  0
    3.9828   -3.7871    1.0229 C   0  0  0  0  0  0  0  0  0  0  0  0
    5.1872   -0.3213   -1.6129 C   0  0  0  0  0  0  0  0  0  0  0  0
    4.7478    2.9850   -2.6574 H   0  0  0  0  0  0  0  0  0  0  0  0
    6.1378    1.9647   -3.1142 H   0  0  0  0  0  0  0  0  0  0  0  0
    5.9342    2.4635   -1.4309 H   0  0  0  0  0  0  0  0  0  0  0  0
    2.6175    1.7336   -2.5636 H   0  0  0  0  0  0  0  0  0  0  0  0
    1.3534   -0.3628   -2.1046 H   0  0  0  0  0  0  0  0  0  0  0  0
    5.9777   -2.6161   -0.8108 H   0  0  0  0  0  0  0  0  0  0  0  0
    3.2647   -3.6891   -1.0309 H   0  0  0  0  0  0  0  0  0  0  0  0
    5.9867   -5.0911   -0.5565 H   0  0  0  0  0  0  0  0  0  0  0  0
    4.8436   -5.4085   -1.8833 H   0  0  0  0  0  0  0  0  0  0  0  0
    4.6597   -7.0532    0.2470 H   0  0  0  0  0  0  0  0  0  0  0  0
    3.1550   -6.2672   -0.2686 H   0  0  0  0  0  0  0  0  0  0  0  0
    5.0170   -5.4334    1.9974 H   0  0  0  0  0  0  0  0  0  0  0  0
    2.0891   -5.6697    1.8762 H   0  0  0  0  0  0  0  0  0  0  0  0
    2.9994   -5.3111    3.2106 H   0  0  0  0  0  0  0  0  0  0  0  0
    4.7293   -3.1753    1.5527 H   0  0  0  0  0  0  0  0  0  0  0  0
    2.9952   -3.3475    1.2251 H   0  0  0  0  0  0  0  0  0  0  0  0
    6.2624   -0.3738   -1.4254 H   0  0  0  0  0  0  0  0  0  0  0  0
  1  2  1  0
  1 15  1  0
  1 16  1  0
  1 17  1  0
  2  3  2  0
  2 14  1  0
  3  4  1  0
  3 18  1  0
  4  5  2  0
  4 19  1  0
  5  6  1  0
  6  7  1  0
  6 14  2  0
  7  8  1  0
  7 20  1  0
  8  9  1  0
  8 13  1  0
  8 21  1  6
  9 10  1  0
  9 22  1  0
  9 23  1  0
 10 11  1  0
 10 24  1  0
 10 25  1  0
 11 12  1  0
 11 13  1  0
 11 26  1  1
 12 27  1  0
 12 28  1  0
 13 29  1  0
 13 30  1  0
 14 31  1  0
M  END

