
     RDKit          3D

108119  0  0  0  0  0  0  0  0999 V2000
    5.7371    1.2282    3.3236 C   0  0  0  0  0  0  0  0  0  0  0  0
    6.0760    0.7635    4.5458 C   0  0  0  0  0  0  0  0  0  0  0  0
    5.6548    1.3311    5.8431 C   0  0  0  0  0  0  0  0  0  0  0  0
    5.0954    0.4556    6.8185 C   0  0  0  0  0  0  0  0  0  0  0  0
    4.8938   -0.9421    6.5715 C   0  0  0  0  0  0  0  0  0  0  0  0
    4.3562   -1.7708    7.5271 C   0  0  0  0  0  0  0  0  0  0  0  0
    3.9665   -1.2577    8.7975 C   0  0  0  0  0  0  0  0  0  0  0  0
    4.1197    0.0778    9.0704 C   0  0  0  0  0  0  0  0  0  0  0  0
    4.6790    0.9726    8.1023 C   0  0  0  0  0  0  0  0  0  0  0  0
    4.8155    2.3408    8.3694 C   0  0  0  0  0  0  0  0  0  0  0  0
    5.3735    3.2188    7.4330 C   0  0  0  0  0  0  0  0  0  0  0  0
    5.5252    4.6127    7.7296 C   0  0  0  0  0  0  0  0  0  0  0  0
    6.1155    5.4698    6.8372 C   0  0  0  0  0  0  0  0  0  0  0  0
    6.6062    4.9700    5.5962 C   0  0  0  0  0  0  0  0  0  0  0  0
    6.4650    3.6435    5.2676 C   0  0  0  0  0  0  0  0  0  0  0  0
    5.8226    2.7122    6.1513 C   0  0  0  0  0  0  0  0  0  0  0  0
    6.1470    0.6793    2.0248 C   0  0  0  0  0  0  0  0  0  0  0  0
    7.1671   -0.2838    1.8769 C   0  0  0  0  0  0  0  0  0  0  0  0
    7.5197   -0.7894    0.6289 C   0  0  0  0  0  0  0  0  0  0  0  0
    6.8466   -0.3416   -0.5186 C   0  0  0  0  0  0  0  0  0  0  0  0
    7.1741   -0.7527   -1.7851 O   0  0  0  0  0  0  0  0  0  0  0  0
    7.6244   -2.0275   -2.0406 C   0  0  0  0  0  0  0  0  0  0  0  0
    6.9922   -3.1477   -1.4378 C   0  0  0  0  0  0  0  0  0  0  0  0
    7.4050   -4.4199   -1.7546 C   0  0  0  0  0  0  0  0  0  0  0  0
    8.4568   -4.6382   -2.6868 C   0  0  0  0  0  0  0  0  0  0  0  0
    8.8984   -5.9476   -3.0238 C   0  0  0  0  0  0  0  0  0  0  0  0
    9.9156   -6.1408   -3.9344 C   0  0  0  0  0  0  0  0  0  0  0  0
   10.5343   -5.0236   -4.5474 C   0  0  0  0  0  0  0  0  0  0  0  0
   10.1285   -3.7403   -4.2431 C   0  0  0  0  0  0  0  0  0  0  0  0
    9.0810   -3.5035   -3.3073 C   0  0  0  0  0  0  0  0  0  0  0  0
    8.6451   -2.1785   -2.9680 C   0  0  0  0  0  0  0  0  0  0  0  0
    9.2551   -0.9777   -3.6180 C   0  0  0  0  0  0  0  0  0  0  0  0
   10.3721   -0.3731   -3.0613 C   0  0  0  0  0  0  0  0  0  0  0  0
   10.9214   -0.9413   -1.9342 O   0  0  0  0  0  0  0  0  0  0  0  0
   11.2897   -0.1819   -0.8541 C   0  0  0  0  0  0  0  0  0  0  0  0
   10.6765    1.0315   -0.5198 C   0  0  0  0  0  0  0  0  0  0  0  0
   11.0895    1.7143    0.6240 C   0  0  0  0  0  0  0  0  0  0  0  0
   12.1005    1.2163    1.4694 C   0  0  0  0  0  0  0  0  0  0  0  0
   12.4820    1.9955    2.6532 C   0  0  0  0  0  0  0  0  0  0  0  0
   13.4340    1.6968    3.5641 C   0  0  0  0  0  0  0  0  0  0  0  0
   13.8038    2.5118    4.7384 C   0  0  0  0  0  0  0  0  0  0  0  0
   12.8279    3.0221    5.6442 C   0  0  0  0  0  0  0  0  0  0  0  0
   11.4272    2.7247    5.5454 C   0  0  0  0  0  0  0  0  0  0  0  0
   10.5126    3.2494    6.4261 C   0  0  0  0  0  0  0  0  0  0  0  0
   10.9301    4.1101    7.4821 C   0  0  0  0  0  0  0  0  0  0  0  0
   12.2620    4.3894    7.6451 C   0  0  0  0  0  0  0  0  0  0  0  0
   13.2489    3.8504    6.7565 C   0  0  0  0  0  0  0  0  0  0  0  0
   14.6109    4.1010    6.9594 C   0  0  0  0  0  0  0  0  0  0  0  0
   15.5895    3.5701    6.1099 C   0  0  0  0  0  0  0  0  0  0  0  0
   16.9819    3.8190    6.3337 C   0  0  0  0  0  0  0  0  0  0  0  0
   17.9380    3.3211    5.4855 C   0  0  0  0  0  0  0  0  0  0  0  0
   17.5472    2.5528    4.3517 C   0  0  0  0  0  0  0  0  0  0  0  0
   16.2202    2.2957    4.1029 C   0  0  0  0  0  0  0  0  0  0  0  0
   15.1860    2.7719    4.9744 C   0  0  0  0  0  0  0  0  0  0  0  0
   12.6867   -0.0190    1.1161 C   0  0  0  0  0  0  0  0  0  0  0  0
   12.2948   -0.7063   -0.0271 C   0  0  0  0  0  0  0  0  0  0  0  0
   10.9989    0.7456   -3.6723 C   0  0  0  0  0  0  0  0  0  0  0  0
   10.4853    1.2682   -4.8350 C   0  0  0  0  0  0  0  0  0  0  0  0
    9.3332    0.7003   -5.4466 C   0  0  0  0  0  0  0  0  0  0  0  0
    8.7855    1.2306   -6.6473 C   0  0  0  0  0  0  0  0  0  0  0  0
    7.6715    0.6640   -7.2300 C   0  0  0  0  0  0  0  0  0  0  0  0
    7.0591   -0.4638   -6.6304 C   0  0  0  0  0  0  0  0  0  0  0  0
    7.5667   -1.0031   -5.4659 C   0  0  0  0  0  0  0  0  0  0  0  0
    8.7145   -0.4426   -4.8359 C   0  0  0  0  0  0  0  0  0  0  0  0
    5.8418    0.6256   -0.4035 C   0  0  0  0  0  0  0  0  0  0  0  0
    5.5066    1.1285    0.8517 C   0  0  0  0  0  0  0  0  0  0  0  0
    5.0603    2.0879    3.2668 H   0  0  0  0  0  0  0  0  0  0  0  0
    6.6855   -0.1455    4.6047 H   0  0  0  0  0  0  0  0  0  0  0  0
    5.1597   -1.3545    5.5975 H   0  0  0  0  0  0  0  0  0  0  0  0
    4.2174   -2.8328    7.3092 H   0  0  0  0  0  0  0  0  0  0  0  0
    3.5389   -1.9295    9.5460 H   0  0  0  0  0  0  0  0  0  0  0  0
    3.8138    0.4864   10.0374 H   0  0  0  0  0  0  0  0  0  0  0  0
    4.4836    2.7320    9.3354 H   0  0  0  0  0  0  0  0  0  0  0  0
    5.1639    4.9771    8.6952 H   0  0  0  0  0  0  0  0  0  0  0  0
    6.2268    6.5299    7.0783 H   0  0  0  0  0  0  0  0  0  0  0  0
    7.1101    5.6487    4.9034 H   0  0  0  0  0  0  0  0  0  0  0  0
    6.8658    3.2819    4.3217 H   0  0  0  0  0  0  0  0  0  0  0  0
    7.7190   -0.6307    2.7532 H   0  0  0  0  0  0  0  0  0  0  0  0
    8.3276   -1.5174    0.5397 H   0  0  0  0  0  0  0  0  0  0  0  0
    6.1759   -2.9833   -0.7326 H   0  0  0  0  0  0  0  0  0  0  0  0
    6.9165   -5.2833   -1.2950 H   0  0  0  0  0  0  0  0  0  0  0  0
    8.4135   -6.8026   -2.5445 H   0  0  0  0  0  0  0  0  0  0  0  0
   10.2462   -7.1519   -4.1849 H   0  0  0  0  0  0  0  0  0  0  0  0
   11.3413   -5.1804   -5.2678 H   0  0  0  0  0  0  0  0  0  0  0  0
   10.6138   -2.8872   -4.7200 H   0  0  0  0  0  0  0  0  0  0  0  0
    9.8765    1.4339   -1.1426 H   0  0  0  0  0  0  0  0  0  0  0  0
   10.6053    2.6616    0.8768 H   0  0  0  0  0  0  0  0  0  0  0  0
   11.9292    2.9329    2.7748 H   0  0  0  0  0  0  0  0  0  0  0  0
   14.0285    0.7887    3.4154 H   0  0  0  0  0  0  0  0  0  0  0  0
   11.0852    2.0493    4.7628 H   0  0  0  0  0  0  0  0  0  0  0  0
    9.4538    2.9990    6.3243 H   0  0  0  0  0  0  0  0  0  0  0  0
   10.1869    4.5268    8.1664 H   0  0  0  0  0  0  0  0  0  0  0  0
   12.6011    5.0263    8.4668 H   0  0  0  0  0  0  0  0  0  0  0  0
   14.9185    4.7225    7.8053 H   0  0  0  0  0  0  0  0  0  0  0  0
   17.2670    4.4213    7.2008 H   0  0  0  0  0  0  0  0  0  0  0  0
   18.9973    3.5182    5.6689 H   0  0  0  0  0  0  0  0  0  0  0  0
   18.3113    2.1722    3.6690 H   0  0  0  0  0  0  0  0  0  0  0  0
   15.9478    1.7276    3.2129 H   0  0  0  0  0  0  0  0  0  0  0  0
   13.4690   -0.4516    1.7436 H   0  0  0  0  0  0  0  0  0  0  0  0
   12.7526   -1.6590   -0.3009 H   0  0  0  0  0  0  0  0  0  0  0  0
   11.8894    1.1741   -3.2093 H   0  0  0  0  0  0  0  0  0  0  0  0
   10.9681    2.1272   -5.3085 H   0  0  0  0  0  0  0  0  0  0  0  0
    9.2667    2.1009   -7.1024 H   0  0  0  0  0  0  0  0  0  0  0  0
    7.2598    1.0811   -8.1524 H   0  0  0  0  0  0  0  0  0  0  0  0
    6.1762   -0.9104   -7.0948 H   0  0  0  0  0  0  0  0  0  0  0  0
    7.0852   -1.8712   -5.0126 H   0  0  0  0  0  0  0  0  0  0  0  0
    5.3388    0.9716   -1.3085 H   0  0  0  0  0  0  0  0  0  0  0  0
    4.7183    1.8824    0.9302 H   0  0  0  0  0  0  0  0  0  0  0  0
  1  2  2  0
  1 17  1  0
  1 67  1  0
  2  3  1  0
  2 68  1  0
  3  4  1  0
  3 16  2  0
  4  5  2  0
  4  9  1  0
  5  6  1  0
  5 69  1  0
  6  7  2  0
  6 70  1  0
  7  8  1  0
  7 71  1  0
  8  9  2  0
  8 72  1  0
  9 10  1  0
 10 11  2  0
 10 73  1  0
 11 12  1  0
 11 16  1  0
 12 13  2  0
 12 74  1  0
 13 14  1  0
 13 75  1  0
 14 15  2  0
 14 76  1  0
 15 16  1  0
 15 77  1  0
 17 18  2  0
 17 66  1  0
 18 19  1  0
 18 78  1  0
 19 20  2  0
 19 79  1  0
 20 21  1  0
 20 65  1  0
 21 22  1  0
 22 23  2  0
 22 31  1  0
 23 24  1  0
 23 80  1  0
 24 25  2  0
 24 81  1  0
 25 26  1  0
 25 30  1  0
 26 27  2  0
 26 82  1  0
 27 28  1  0
 27 83  1  0
 28 29  2  0
 28 84  1  0
 29 30  1  0
 29 85  1  0
 30 31  2  0
 31 32  1  0
 32 33  1  0
 32 64  2  0
 33 34  1  0
 33 57  2  0
 34 35  1  0
 35 36  2  0
 35 56  1  0
 36 37  1  0
 36 86  1  0
 37 38  2  0
 37 87  1  0
 38 39  1  0
 38 55  1  0
 39 40  2  0
 39 88  1  0
 40 41  1  0
 40 89  1  0
 41 42  1  0
 41 54  2  0
 42 43  2  0
 42 47  1  0
 43 44  1  0
 43 90  1  0
 44 45  2  0
 44 91  1  0
 45 46  1  0
 45 92  1  0
 46 47  2  0
 46 93  1  0
 47 48  1  0
 48 49  2  0
 48 94  1  0
 49 50  1  0
 49 54  1  0
 50 51  2  0
 50 95  1  0
 51 52  1  0
 51 96  1  0
 52 53  2  0
 52 97  1  0
 53 54  1  0
 53 98  1  0
 55 56  2  0
 55 99  1  0
 56100  1  0
 57 58  1  0
 57101  1  0
 58 59  2  0
 58102  1  0
 59 60  1  0
 59 64  1  0
 60 61  2  0
 60103  1  0
 61 62  1  0
 61104  1  0
 62 63  2  0
 62105  1  0
 63 64  1  0
 63106  1  0
 65 66  2  0
 65107  1  0
 66108  1  0
M  END

