
     RDKit          3D

 35 35  0  0  0  0  0  0  0  0999 V2000
    1.1603    0.1580   -0.2012 C   0  0  0  0  0  0  0  0  0  0  0  0
    2.5680    0.1484    0.0381 O   0  0  0  0  0  0  0  0  0  0  0  0
    3.0372   -0.8544    0.8044 C   0  0  0  0  0  0  0  0  0  0  0  0
    2.3338   -1.7132    1.2775 O   0  0  0  0  0  0  0  0  0  0  0  0
    4.5384   -0.7486    0.9815 C   0  0  0  0  0  0  0  0  0  0  0  0
    5.1216   -1.8611    1.8492 C   0  0  0  0  0  0  0  0  0  0  0  0
    6.6375   -1.7466    2.0254 C   0  0  0  0  0  0  0  0  0  0  0  0
    7.1894   -2.8767    2.8981 C   0  0  0  0  0  0  0  0  0  0  0  0
    8.7143   -2.8649    3.1528 C   0  0  0  0  0  0  0  0  0  0  0  0
    9.2834   -1.8673    2.5675 O   0  0  0  0  0  0  0  0  0  0  0  0
    9.3644   -3.8437    3.9340 C   0  0  0  0  0  0  0  0  0  0  0  0
    8.6125   -4.9121    4.5336 C   0  0  0  0  0  0  0  0  0  0  0  0
    9.2386   -5.8763    5.3030 C   0  0  0  0  0  0  0  0  0  0  0  0
   10.6250   -5.8391    5.5201 C   0  0  0  0  0  0  0  0  0  0  0  0
   11.3544   -4.7968    4.9338 C   0  0  0  0  0  0  0  0  0  0  0  0
   12.6864   -4.7782    5.1544 F   0  0  0  0  0  0  0  0  0  0  0  0
   10.7979   -3.7951    4.1504 C   0  0  0  0  0  0  0  0  0  0  0  0
   11.6647   -2.7158    3.5629 C   0  0  0  0  0  0  0  0  0  0  0  0
    0.9631    1.0312   -0.8352 H   0  0  0  0  0  0  0  0  0  0  0  0
    0.6023    0.2395    0.7441 H   0  0  0  0  0  0  0  0  0  0  0  0
    0.8426   -0.7637   -0.7120 H   0  0  0  0  0  0  0  0  0  0  0  0
    4.7558    0.2485    1.4029 H   0  0  0  0  0  0  0  0  0  0  0  0
    4.9937   -0.7402   -0.0243 H   0  0  0  0  0  0  0  0  0  0  0  0
    4.8643   -2.8373    1.4040 H   0  0  0  0  0  0  0  0  0  0  0  0
    4.6239   -1.8479    2.8338 H   0  0  0  0  0  0  0  0  0  0  0  0
    6.8902   -0.7723    2.4759 H   0  0  0  0  0  0  0  0  0  0  0  0
    7.1323   -1.7635    1.0399 H   0  0  0  0  0  0  0  0  0  0  0  0
    6.9570   -3.8560    2.4451 H   0  0  0  0  0  0  0  0  0  0  0  0
    6.7082   -2.8607    3.8914 H   0  0  0  0  0  0  0  0  0  0  0  0
    7.5344   -4.9738    4.3868 H   0  0  0  0  0  0  0  0  0  0  0  0
    8.6438   -6.6782    5.7477 H   0  0  0  0  0  0  0  0  0  0  0  0
   11.1452   -6.5846    6.1218 H   0  0  0  0  0  0  0  0  0  0  0  0
   12.7163   -2.8593    3.8439 H   0  0  0  0  0  0  0  0  0  0  0  0
   11.3582   -1.7148    3.9108 H   0  0  0  0  0  0  0  0  0  0  0  0
   11.6104   -2.7060    2.4611 H   0  0  0  0  0  0  0  0  0  0  0  0
  1  2  1  0
  1 19  1  0
  1 20  1  0
  1 21  1  0
  2  3  1  0
  3  4  2  0
  3  5  1  0
  5  6  1  0
  5 22  1  0
  5 23  1  0
  6  7  1  0
  6 24  1  0
  6 25  1  0
  7  8  1  0
  7 26  1  0
  7 27  1  0
  8  9  1  0
  8 28  1  0
  8 29  1  0
  9 10  2  0
  9 11  1  0
 11 12  2  0
 11 17  1  0
 12 13  1  0
 12 30  1  0
 13 14  2  0
 13 31  1  0
 14 15  1  0
 14 32  1  0
 15 16  1  0
 15 17  2  0
 17 18  1  0
 18 33  1  0
 18 34  1  0
 18 35  1  0
M  END

