
     RDKit          3D

 40 42  0  0  0  0  0  0  0  0999 V2000
    0.9250    0.0340    0.2278 C   0  0  0  0  0  0  0  0  0  0  0  0
    2.4190    0.1116    0.2519 C   0  0  0  0  0  0  0  0  0  0  0  0
    3.2018   -0.8132    0.6927 N   0  0  0  0  0  0  0  0  0  0  0  0
    4.5348   -0.4600    0.5879 C   0  0  0  0  0  0  0  0  0  0  0  0
    5.6317   -1.2433    0.9789 C   0  0  0  0  0  0  0  0  0  0  0  0
    6.9288   -0.7697    0.8209 C   0  0  0  0  0  0  0  0  0  0  0  0
    7.1618    0.5110    0.2609 C   0  0  0  0  0  0  0  0  0  0  0  0
    8.4503    1.0394    0.0677 N   0  0  0  0  0  0  0  0  0  0  0  0
    9.6796    0.4795    0.3999 C   0  0  0  0  0  0  0  0  0  0  0  0
    9.8156   -0.5895    0.9725 O   0  0  0  0  0  0  0  0  0  0  0  0
   10.7536    1.2607    0.0316 N   0  0  0  0  0  0  0  0  0  0  0  0
   12.1243    0.8085    0.2677 C   0  0  1  0  0  0  0  0  0  0  0  0
   12.5929   -0.2316   -0.7733 C   0  0  0  0  0  0  0  0  0  0  0  0
   12.8063    0.3844   -2.1630 C   0  0  0  0  0  0  0  0  0  0  0  0
   13.7782    1.5753   -2.1252 C   0  0  2  0  0  0  0  0  0  0  0  0
   15.1153    1.1619   -1.8800 O   0  0  0  0  0  0  0  0  0  0  0  0
   13.3127    2.6236   -1.0976 C   0  0  0  0  0  0  0  0  0  0  0  0
   13.0816    2.0125    0.2940 C   0  0  0  0  0  0  0  0  0  0  0  0
    6.0761    1.3100   -0.1363 C   0  0  0  0  0  0  0  0  0  0  0  0
    4.7798    0.8205    0.0298 C   0  0  0  0  0  0  0  0  0  0  0  0
    3.2498    1.5728   -0.3631 S   0  0  0  0  0  0  0  0  0  0  0  0
    0.6173   -0.9373    0.6378 H   0  0  0  0  0  0  0  0  0  0  0  0
    0.5339    0.1298   -0.7983 H   0  0  0  0  0  0  0  0  0  0  0  0
    0.4710    0.8369    0.8316 H   0  0  0  0  0  0  0  0  0  0  0  0
    5.4512   -2.2299    1.4107 H   0  0  0  0  0  0  0  0  0  0  0  0
    7.7836   -1.3670    1.1274 H   0  0  0  0  0  0  0  0  0  0  0  0
    8.4662    1.9736   -0.3232 H   0  0  0  0  0  0  0  0  0  0  0  0
   10.6109    2.0546   -0.5803 H   0  0  0  0  0  0  0  0  0  0  0  0
   12.1131    0.3235    1.2548 H   0  0  0  0  0  0  0  0  0  0  0  0
   11.8668   -1.0573   -0.8105 H   0  0  0  0  0  0  0  0  0  0  0  0
   13.5363   -0.6808   -0.4099 H   0  0  0  0  0  0  0  0  0  0  0  0
   11.8363    0.7268   -2.5648 H   0  0  0  0  0  0  0  0  0  0  0  0
   13.1890   -0.3710   -2.8679 H   0  0  0  0  0  0  0  0  0  0  0  0
   13.8123    2.0467   -3.1211 H   0  0  0  0  0  0  0  0  0  0  0  0
   15.1303    0.6087   -1.0886 H   0  0  0  0  0  0  0  0  0  0  0  0
   12.3850    3.0967   -1.4710 H   0  0  0  0  0  0  0  0  0  0  0  0
   14.0641    3.4271   -1.0404 H   0  0  0  0  0  0  0  0  0  0  0  0
   12.7093    2.7732    0.9993 H   0  0  0  0  0  0  0  0  0  0  0  0
   14.0494    1.6697    0.6984 H   0  0  0  0  0  0  0  0  0  0  0  0
    6.2482    2.2993   -0.5693 H   0  0  0  0  0  0  0  0  0  0  0  0
  1  2  1  0
  1 22  1  0
  1 23  1  0
  1 24  1  0
  2  3  2  0
  2 21  1  0
  3  4  1  0
  4  5  2  0
  4 20  1  0
  5  6  1  0
  5 25  1  0
  6  7  2  0
  6 26  1  0
  7  8  1  0
  7 19  1  0
  8  9  1  0
  8 27  1  0
  9 10  2  0
  9 11  1  0
 11 12  1  0
 11 28  1  0
 12 13  1  0
 12 18  1  0
 12 29  1  1
 13 14  1  0
 13 30  1  0
 13 31  1  0
 14 15  1  0
 14 32  1  0
 14 33  1  0
 15 16  1  0
 15 17  1  0
 15 34  1  6
 16 35  1  0
 17 18  1  0
 17 36  1  0
 17 37  1  0
 18 38  1  0
 18 39  1  0
 19 20  2  0
 19 40  1  0
 20 21  1  0
M  END

