
     RDKit          3D

 43 46  0  0  0  0  0  0  0  0999 V2000
    0.6583   -0.6520    0.1458 C   0  0  0  0  0  0  0  0  0  0  0  0
    1.5739   -0.8981   -1.0296 C   0  0  0  0  0  0  0  0  0  0  0  0
    1.4694   -0.1395   -2.2048 C   0  0  0  0  0  0  0  0  0  0  0  0
    2.3262   -0.3687   -3.2864 C   0  0  0  0  0  0  0  0  0  0  0  0
    3.3047   -1.3581   -3.2108 C   0  0  0  0  0  0  0  0  0  0  0  0
    3.4420   -2.1194   -2.0401 C   0  0  0  0  0  0  0  0  0  0  0  0
    4.5177   -3.1787   -2.0296 C   0  0  0  0  0  0  0  0  0  0  0  0
    5.0053   -3.5990   -3.0693 O   0  0  0  0  0  0  0  0  0  0  0  0
    4.9170   -3.6190   -0.7963 N   0  0  0  0  0  0  0  0  0  0  0  0
    5.9458   -4.6289   -0.6114 C   0  0  2  0  0  0  0  0  0  0  0  0
    5.3521   -5.9314    0.0331 C   0  0  0  0  0  0  0  0  0  0  0  0
    5.6847   -5.7139    1.4746 C   0  0  0  0  0  0  0  0  0  0  0  0
    5.3450   -6.3191    2.6618 N   0  0  0  0  0  0  0  0  0  0  0  0
    4.6759   -7.0661    2.7874 H   0  0  0  0  0  0  0  0  0  0  0  0
    6.0602   -5.7023    3.6798 C   0  0  0  0  0  0  0  0  0  0  0  0
    6.0582   -5.9387    5.0594 C   0  0  0  0  0  0  0  0  0  0  0  0
    6.8931   -5.1603    5.8560 C   0  0  0  0  0  0  0  0  0  0  0  0
    7.7286   -4.1504    5.3147 C   0  0  0  0  0  0  0  0  0  0  0  0
    8.6168   -3.3439    6.2339 C   0  0  0  0  0  0  0  0  0  0  0  0
    7.7160   -3.9213    3.9380 C   0  0  0  0  0  0  0  0  0  0  0  0
    6.8839   -4.6867    3.0975 C   0  0  0  0  0  0  0  0  0  0  0  0
    6.6099   -4.7237    1.6866 C   0  0  0  0  0  0  0  0  0  0  0  0
    7.0488   -4.1212    0.3796 C   0  0  0  0  0  0  0  0  0  0  0  0
    2.5673   -1.8881   -0.9683 C   0  0  0  0  0  0  0  0  0  0  0  0
   -0.2584   -0.1255   -0.1590 H   0  0  0  0  0  0  0  0  0  0  0  0
    1.1536   -0.0314    0.9132 H   0  0  0  0  0  0  0  0  0  0  0  0
    0.3632   -1.5943    0.6338 H   0  0  0  0  0  0  0  0  0  0  0  0
    0.7004    0.6352   -2.2771 H   0  0  0  0  0  0  0  0  0  0  0  0
    2.2223    0.2276   -4.1967 H   0  0  0  0  0  0  0  0  0  0  0  0
    3.9747   -1.5678   -4.0463 H   0  0  0  0  0  0  0  0  0  0  0  0
    4.5512   -3.1661    0.0323 H   0  0  0  0  0  0  0  0  0  0  0  0
    6.3430   -4.8265   -1.6146 H   0  0  0  0  0  0  0  0  0  0  0  0
    5.8495   -6.8339   -0.3690 H   0  0  0  0  0  0  0  0  0  0  0  0
    4.2775   -6.0268   -0.1923 H   0  0  0  0  0  0  0  0  0  0  0  0
    5.4251   -6.7123    5.5022 H   0  0  0  0  0  0  0  0  0  0  0  0
    6.9071   -5.3342    6.9360 H   0  0  0  0  0  0  0  0  0  0  0  0
    9.3354   -3.9883    6.7688 H   0  0  0  0  0  0  0  0  0  0  0  0
    8.0287   -2.8149    7.0031 H   0  0  0  0  0  0  0  0  0  0  0  0
    9.1949   -2.5902    5.6787 H   0  0  0  0  0  0  0  0  0  0  0  0
    8.3557   -3.1443    3.5098 H   0  0  0  0  0  0  0  0  0  0  0  0
    8.0454   -4.4886    0.0722 H   0  0  0  0  0  0  0  0  0  0  0  0
    7.1034   -3.0205    0.3657 H   0  0  0  0  0  0  0  0  0  0  0  0
    2.6260   -2.5054   -0.0667 H   0  0  0  0  0  0  0  0  0  0  0  0
  1  2  1  0
  1 25  1  0
  1 26  1  0
  1 27  1  0
  2  3  2  0
  2 24  1  0
  3  4  1  0
  3 28  1  0
  4  5  2  0
  4 29  1  0
  5  6  1  0
  5 30  1  0
  6  7  1  0
  6 24  2  0
  7  8  2  0
  7  9  1  0
  9 10  1  0
  9 31  1  0
 10 11  1  0
 10 23  1  0
 10 32  1  6
 11 12  1  0
 11 33  1  0
 11 34  1  0
 12 13  1  0
 12 22  2  0
 13 14  1  0
 13 15  1  0
 15 16  1  0
 15 21  2  0
 16 17  2  0
 16 35  1  0
 17 18  1  0
 17 36  1  0
 18 19  1  0
 18 20  2  0
 19 37  1  0
 19 38  1  0
 19 39  1  0
 20 21  1  0
 20 40  1  0
 21 22  1  0
 22 23  1  0
 23 41  1  0
 23 42  1  0
 24 43  1  0
M  END

