
     RDKit          3D

 39 39  0  0  0  0  0  0  0  0999 V2000
    3.5250    2.1543    1.1997 C   0  0  0  0  0  0  0  0  0  0  0  0
    3.4087    0.8515    0.4323 C   0  0  0  0  0  0  0  0  0  0  0  0
    3.8000   -0.2061    0.8882 O   0  0  0  0  0  0  0  0  0  0  0  0
    2.8679    0.8979   -0.8573 N   0  0  0  0  0  0  0  0  0  0  0  0
    2.4010    2.1076   -1.5470 C   0  0  0  0  0  0  0  0  0  0  0  0
    0.8740    2.2525   -1.6323 C   0  0  0  0  0  0  0  0  0  0  0  0
    0.2606    2.7415   -0.3170 C   0  0  0  0  0  0  0  0  0  0  0  0
    0.7247    3.7256    0.2519 O   0  0  0  0  0  0  0  0  0  0  0  0
   -0.8127    2.0570    0.1434 N   0  0  0  0  0  0  0  0  0  0  0  0
   -1.4973    2.4234    1.3883 C   0  0  1  0  0  0  0  0  0  0  0  0
   -2.4865    3.5712    1.1544 C   0  0  0  0  0  0  0  0  0  0  0  0
   -2.1637    1.1865    1.9896 C   0  0  0  0  0  0  0  0  0  0  0  0
    2.9916   -0.3022   -1.6294 C   0  0  0  0  0  0  0  0  0  0  0  0
    4.1317   -0.5024   -2.4156 C   0  0  0  0  0  0  0  0  0  0  0  0
    4.2905   -1.6647   -3.1722 C   0  0  0  0  0  0  0  0  0  0  0  0
    3.3054   -2.6568   -3.1526 C   0  0  0  0  0  0  0  0  0  0  0  0
    2.1610   -2.4789   -2.3794 C   0  0  0  0  0  0  0  0  0  0  0  0
    1.9960   -1.3055   -1.6182 C   0  0  0  0  0  0  0  0  0  0  0  0
    0.7907   -1.1342   -0.8600 C   0  0  0  0  0  0  0  0  0  0  0  0
   -0.2161   -0.9949   -0.2983 N   0  0  0  0  0  0  0  0  0  0  0  0
    3.8162    1.9003    2.2261 H   0  0  0  0  0  0  0  0  0  0  0  0
    2.6029    2.7521    1.2020 H   0  0  0  0  0  0  0  0  0  0  0  0
    4.3206    2.7778    0.7573 H   0  0  0  0  0  0  0  0  0  0  0  0
    2.8245    2.1055   -2.5643 H   0  0  0  0  0  0  0  0  0  0  0  0
    2.7965    2.9943   -1.0348 H   0  0  0  0  0  0  0  0  0  0  0  0
    0.4030    1.3280   -1.9968 H   0  0  0  0  0  0  0  0  0  0  0  0
    0.6533    3.0393   -2.3742 H   0  0  0  0  0  0  0  0  0  0  0  0
   -1.0316    1.1560   -0.2731 H   0  0  0  0  0  0  0  0  0  0  0  0
   -0.7173    2.7890    2.0771 H   0  0  0  0  0  0  0  0  0  0  0  0
   -3.2795    3.2693    0.4501 H   0  0  0  0  0  0  0  0  0  0  0  0
   -1.9651    4.4478    0.7425 H   0  0  0  0  0  0  0  0  0  0  0  0
   -2.9632    3.8708    2.1018 H   0  0  0  0  0  0  0  0  0  0  0  0
   -2.9603    0.8034    1.3290 H   0  0  0  0  0  0  0  0  0  0  0  0
   -2.6239    1.4346    2.9581 H   0  0  0  0  0  0  0  0  0  0  0  0
   -1.4371    0.3751    2.1461 H   0  0  0  0  0  0  0  0  0  0  0  0
    4.9075    0.2662   -2.4137 H   0  0  0  0  0  0  0  0  0  0  0  0
    5.1927   -1.8002   -3.7737 H   0  0  0  0  0  0  0  0  0  0  0  0
    3.4291   -3.5698   -3.7392 H   0  0  0  0  0  0  0  0  0  0  0  0
    1.3822   -3.2432   -2.3549 H   0  0  0  0  0  0  0  0  0  0  0  0
  1  2  1  0
  1 21  1  0
  1 22  1  0
  1 23  1  0
  2  3  2  0
  2  4  1  0
  4  5  1  0
  4 13  1  0
  5  6  1  0
  5 24  1  0
  5 25  1  0
  6  7  1  0
  6 26  1  0
  6 27  1  0
  7  8  2  0
  7  9  1  0
  9 10  1  0
  9 28  1  0
 10 11  1  0
 10 12  1  0
 10 29  1  1
 11 30  1  0
 11 31  1  0
 11 32  1  0
 12 33  1  0
 12 34  1  0
 12 35  1  0
 13 14  2  0
 13 18  1  0
 14 15  1  0
 14 36  1  0
 15 16  2  0
 15 37  1  0
 16 17  1  0
 16 38  1  0
 17 18  2  0
 17 39  1  0
 18 19  1  0
 19 20  3  0
M  END

