
     RDKit          3D

 51 54  0  0  0  0  0  0  0  0999 V2000
    8.9519   -5.1617   -2.3953 C   0  0  0  0  0  0  0  0  0  0  0  0
    8.4976   -3.8347   -1.8456 C   0  0  0  0  0  0  0  0  0  0  0  0
    9.2720   -2.6668   -1.9541 C   0  0  0  0  0  0  0  0  0  0  0  0
    8.8345   -1.4552   -1.4428 C   0  0  0  0  0  0  0  0  0  0  0  0
    7.5635   -1.2993   -0.7794 C   0  0  0  0  0  0  0  0  0  0  0  0
    7.1036   -0.0487   -0.2734 C   0  0  0  0  0  0  0  0  0  0  0  0
    6.0283    0.1965    0.3579 O   0  0  0  0  0  0  0  0  0  0  0  0
    7.9890    1.2256   -0.4141 C   0  0  2  0  0  0  0  0  0  0  0  0
    8.6208    1.5678    0.9603 C   0  0  0  0  0  0  0  0  0  0  0  0
    9.1901    2.9495    1.1369 C   0  0  0  0  0  0  0  0  0  0  0  0
   10.1267    3.2864    1.8059 O   0  0  0  0  0  0  0  0  0  0  0  0
    8.4547    4.0009    0.4559 N   0  0  0  0  0  0  0  0  0  0  0  0
    7.4810    3.7212   -0.4135 C   0  0  0  0  0  0  0  0  0  0  0  0
    7.1658    2.3953   -0.8583 C   0  0  0  0  0  0  0  0  0  0  0  0
    6.0872    2.5885   -1.7340 C   0  0  0  0  0  0  0  0  0  0  0  0
    5.2802    1.5664   -2.4596 C   0  0  0  0  0  0  0  0  0  0  0  0
    5.7827    3.9033   -1.8295 N   0  0  0  0  0  0  0  0  0  0  0  0
    6.6394    4.5925   -1.0318 N   0  0  0  0  0  0  0  0  0  0  0  0
    6.5507    6.0119   -0.8543 C   0  0  0  0  0  0  0  0  0  0  0  0
    6.1892    6.4876    0.4127 C   0  0  0  0  0  0  0  0  0  0  0  0
    6.1010    7.8612    0.6337 C   0  0  0  0  0  0  0  0  0  0  0  0
    6.3498    8.7462   -0.4149 C   0  0  0  0  0  0  0  0  0  0  0  0
    6.6961    8.2510   -1.6751 C   0  0  0  0  0  0  0  0  0  0  0  0
    6.9831    9.3991   -2.9598 Cl  0  0  0  0  0  0  0  0  0  0  0  0
    6.8234    6.8718   -1.9384 C   0  0  0  0  0  0  0  0  0  0  0  0
    7.2181    6.3701   -3.3004 C   0  0  0  0  0  0  0  0  0  0  0  0
    6.7712   -2.5173   -0.6500 C   0  0  0  0  0  0  0  0  0  0  0  0
    5.4331   -2.5303    0.0500 C   0  0  0  0  0  0  0  0  0  0  0  0
    7.2556   -3.7052   -1.1779 C   0  0  0  0  0  0  0  0  0  0  0  0
    9.9555   -5.0887   -2.8435 H   0  0  0  0  0  0  0  0  0  0  0  0
    8.2712   -5.5450   -3.1783 H   0  0  0  0  0  0  0  0  0  0  0  0
    8.9969   -5.9427   -1.6141 H   0  0  0  0  0  0  0  0  0  0  0  0
   10.2490   -2.7125   -2.4471 H   0  0  0  0  0  0  0  0  0  0  0  0
    9.5058   -0.6015   -1.5495 H   0  0  0  0  0  0  0  0  0  0  0  0
    8.7965    1.1213   -1.1577 H   0  0  0  0  0  0  0  0  0  0  0  0
    9.4017    0.8475    1.2328 H   0  0  0  0  0  0  0  0  0  0  0  0
    7.8054    1.4679    1.7033 H   0  0  0  0  0  0  0  0  0  0  0  0
    8.7193    4.9604    0.6801 H   0  0  0  0  0  0  0  0  0  0  0  0
    5.9241    0.9138   -3.0650 H   0  0  0  0  0  0  0  0  0  0  0  0
    4.5356    2.0527   -3.1027 H   0  0  0  0  0  0  0  0  0  0  0  0
    4.7874    0.9262   -1.7134 H   0  0  0  0  0  0  0  0  0  0  0  0
    5.9566    5.7787    1.2100 H   0  0  0  0  0  0  0  0  0  0  0  0
    5.8191    8.2430    1.6169 H   0  0  0  0  0  0  0  0  0  0  0  0
    6.2731    9.8246   -0.2691 H   0  0  0  0  0  0  0  0  0  0  0  0
    8.0615    6.9541   -3.6959 H   0  0  0  0  0  0  0  0  0  0  0  0
    6.3852    6.4903   -4.0125 H   0  0  0  0  0  0  0  0  0  0  0  0
    7.4930    5.3091   -3.2894 H   0  0  0  0  0  0  0  0  0  0  0  0
    5.5053   -2.1501    1.0798 H   0  0  0  0  0  0  0  0  0  0  0  0
    5.0253   -3.5538    0.0721 H   0  0  0  0  0  0  0  0  0  0  0  0
    4.7012   -1.8723   -0.4436 H   0  0  0  0  0  0  0  0  0  0  0  0
    6.6345   -4.6013   -1.0633 H   0  0  0  0  0  0  0  0  0  0  0  0
  1  2  1  0
  1 30  1  0
  1 31  1  0
  1 32  1  0
  2  3  2  0
  2 29  1  0
  3  4  1  0
  3 33  1  0
  4  5  2  0
  4 34  1  0
  5  6  1  0
  5 27  1  0
  6  7  2  0
  6  8  1  0
  8  9  1  0
  8 14  1  0
  8 35  1  6
  9 10  1  0
  9 36  1  0
  9 37  1  0
 10 11  2  0
 10 12  1  0
 12 13  1  0
 12 38  1  0
 13 14  2  0
 13 18  1  0
 14 15  1  0
 15 16  1  0
 15 17  2  0
 16 39  1  0
 16 40  1  0
 16 41  1  0
 17 18  1  0
 18 19  1  0
 19 20  2  0
 19 25  1  0
 20 21  1  0
 20 42  1  0
 21 22  2  0
 21 43  1  0
 22 23  1  0
 22 44  1  0
 23 24  1  0
 23 25  2  0
 25 26  1  0
 26 45  1  0
 26 46  1  0
 26 47  1  0
 27 28  1  0
 27 29  2  0
 28 48  1  0
 28 49  1  0
 28 50  1  0
 29 51  1  0
M  END

