
     RDKit          3D

 60 64  0  0  0  0  0  0  0  0999 V2000
    0.5907   -0.3713    0.7984 O   0  0  0  0  0  0  0  0  0  0  0  0
    1.8117   -0.3669    0.7671 C   0  0  0  0  0  0  0  0  0  0  0  0
    2.5866    0.8778    0.5209 C   0  0  0  0  0  0  0  0  0  0  0  0
    1.9391    2.0646    0.4227 O   0  0  0  0  0  0  0  0  0  0  0  0
    1.0032    2.2862   -0.5693 C   0  0  0  0  0  0  0  0  0  0  0  0
    0.0757    3.3036   -0.3345 C   0  0  0  0  0  0  0  0  0  0  0  0
   -0.8619    3.6200   -1.3144 C   0  0  0  0  0  0  0  0  0  0  0  0
   -0.9001    2.9343   -2.5443 C   0  0  0  0  0  0  0  0  0  0  0  0
   -1.9093    3.2705   -3.5831 C   0  0  0  0  0  0  0  0  0  0  0  0
   -2.3037    4.6034   -3.8088 C   0  0  0  0  0  0  0  0  0  0  0  0
   -3.2532    4.9190   -4.7828 C   0  0  0  0  0  0  0  0  0  0  0  0
   -3.8314    3.9091   -5.5578 C   0  0  0  0  0  0  0  0  0  0  0  0
   -3.4504    2.5805   -5.3472 C   0  0  0  0  0  0  0  0  0  0  0  0
   -2.5022    2.2656   -4.3717 C   0  0  0  0  0  0  0  0  0  0  0  0
    0.0524    1.9205   -2.7529 C   0  0  0  0  0  0  0  0  0  0  0  0
    1.0026    1.5975   -1.7837 C   0  0  0  0  0  0  0  0  0  0  0  0
    3.9443    0.8564    0.5155 C   0  0  0  0  0  0  0  0  0  0  0  0
    4.8213    2.0830    0.3209 C   0  0  1  0  0  0  0  0  0  0  0  0
    6.0802    1.7186    0.0366 F   0  0  0  0  0  0  0  0  0  0  0  0
    4.3783    2.8454   -0.6836 F   0  0  0  0  0  0  0  0  0  0  0  0
    4.8590    2.8391    1.4272 F   0  0  0  0  0  0  0  0  0  0  0  0
    4.6720   -0.2516    0.7616 O   0  0  0  0  0  0  0  0  0  0  0  0
    4.0584   -1.4558    0.9701 C   0  0  0  0  0  0  0  0  0  0  0  0
    4.9019   -2.5571    1.1845 C   0  0  0  0  0  0  0  0  0  0  0  0
    6.4065   -2.3976    1.2822 C   0  0  0  0  0  0  0  0  0  0  0  0
    7.1253   -3.5574    0.7168 N   0  0  0  0  0  0  0  0  0  0  0  0
    7.0796   -3.6259   -0.7575 C   0  0  0  0  0  0  0  0  0  0  0  0
    8.0262   -2.6342   -1.4496 C   0  0  0  0  0  0  0  0  0  0  0  0
    9.4624   -2.7893   -0.9300 C   0  0  0  0  0  0  0  0  0  0  0  0
    9.4978   -2.7159    0.6024 C   0  0  0  0  0  0  0  0  0  0  0  0
    8.5037   -3.7132    1.2133 C   0  0  0  0  0  0  0  0  0  0  0  0
    4.2899   -3.8136    1.3932 C   0  0  0  0  0  0  0  0  0  0  0  0
    5.0253   -4.9130    1.5713 O   0  0  0  0  0  0  0  0  0  0  0  0
    2.8776   -3.9320    1.4076 C   0  0  0  0  0  0  0  0  0  0  0  0
    2.0821   -2.8219    1.2092 C   0  0  0  0  0  0  0  0  0  0  0  0
    2.6551   -1.5541    0.9725 C   0  0  0  0  0  0  0  0  0  0  0  0
    0.0942    3.8245    0.6245 H   0  0  0  0  0  0  0  0  0  0  0  0
   -1.5996    4.3984   -1.1077 H   0  0  0  0  0  0  0  0  0  0  0  0
   -1.8420    5.4062   -3.2290 H   0  0  0  0  0  0  0  0  0  0  0  0
   -3.5367    5.9626   -4.9431 H   0  0  0  0  0  0  0  0  0  0  0  0
   -4.5746    4.1559   -6.3203 H   0  0  0  0  0  0  0  0  0  0  0  0
   -3.9021    1.7806   -5.9399 H   0  0  0  0  0  0  0  0  0  0  0  0
   -2.2353    1.2202   -4.1994 H   0  0  0  0  0  0  0  0  0  0  0  0
    0.0716    1.3876   -3.7063 H   0  0  0  0  0  0  0  0  0  0  0  0
    1.7450    0.8215   -1.9791 H   0  0  0  0  0  0  0  0  0  0  0  0
    6.6870   -2.3391    2.3492 H   0  0  0  0  0  0  0  0  0  0  0  0
    6.7094   -1.4379    0.8318 H   0  0  0  0  0  0  0  0  0  0  0  0
    6.0389   -3.4703   -1.0808 H   0  0  0  0  0  0  0  0  0  0  0  0
    7.3521   -4.6563   -1.0466 H   0  0  0  0  0  0  0  0  0  0  0  0
    7.6779   -1.6003   -1.2790 H   0  0  0  0  0  0  0  0  0  0  0  0
    7.9840   -2.7958   -2.5395 H   0  0  0  0  0  0  0  0  0  0  0  0
   10.1201   -2.0234   -1.3724 H   0  0  0  0  0  0  0  0  0  0  0  0
    9.8620   -3.7684   -1.2540 H   0  0  0  0  0  0  0  0  0  0  0  0
    9.2534   -1.6915    0.9354 H   0  0  0  0  0  0  0  0  0  0  0  0
   10.5105   -2.9317    0.9822 H   0  0  0  0  0  0  0  0  0  0  0  0
    8.4887   -3.6394    2.3122 H   0  0  0  0  0  0  0  0  0  0  0  0
    8.8254   -4.7409    0.9669 H   0  0  0  0  0  0  0  0  0  0  0  0
    5.9691   -4.6623    1.3256 H   0  0  0  0  0  0  0  0  0  0  0  0
    2.4516   -4.9226    1.5768 H   0  0  0  0  0  0  0  0  0  0  0  0
    0.9924   -2.8885    1.2198 H   0  0  0  0  0  0  0  0  0  0  0  0
  1  2  2  0
  2  3  1  0
  2 36  1  0
  3  4  1  0
  3 17  2  0
  4  5  1  0
  5  6  2  0
  5 16  1  0
  6  7  1  0
  6 37  1  0
  7  8  2  0
  7 38  1  0
  8  9  1  0
  8 15  1  0
  9 10  2  0
  9 14  1  0
 10 11  1  0
 10 39  1  0
 11 12  2  0
 11 40  1  0
 12 13  1  0
 12 41  1  0
 13 14  2  0
 13 42  1  0
 14 43  1  0
 15 16  2  0
 15 44  1  0
 16 45  1  0
 17 18  1  0
 17 22  1  0
 18 19  1  6
 18 20  1  0
 18 21  1  0
 22 23  1  0
 23 24  1  0
 23 36  2  0
 24 25  1  0
 24 32  2  0
 25 26  1  0
 25 46  1  0
 25 47  1  0
 26 27  1  0
 26 31  1  0
 27 28  1  0
 27 48  1  0
 27 49  1  0
 28 29  1  0
 28 50  1  0
 28 51  1  0
 29 30  1  0
 29 52  1  0
 29 53  1  0
 30 31  1  0
 30 54  1  0
 30 55  1  0
 31 56  1  0
 31 57  1  0
 32 33  1  0
 32 34  1  0
 33 58  1  0
 34 35  2  0
 34 59  1  0
 35 36  1  0
 35 60  1  0
M  END

