
     RDKit          3D

 77 81  0  0  0  0  0  0  0  0999 V2000
    2.7180    2.0675    1.8594 C   0  0  0  0  0  0  0  0  0  0  0  0
    3.7054    1.3925    0.9495 C   0  0  0  0  0  0  0  0  0  0  0  0
    4.3603    2.1340   -0.0651 C   0  0  0  0  0  0  0  0  0  0  0  0
    5.2781    1.5589   -0.9547 C   0  0  0  0  0  0  0  0  0  0  0  0
    5.9396    2.1412   -1.8558 O   0  0  0  0  0  0  0  0  0  0  0  0
    5.5090    0.1459   -0.8021 N   0  0  0  0  0  0  0  0  0  0  0  0
    6.3105   -0.4664   -1.8301 C   0  0  0  0  0  0  0  0  0  0  0  0
    7.8296   -0.4938   -1.5532 C   0  0  0  0  0  0  0  0  0  0  0  0
    8.4391    0.8286   -1.6182 N   0  0  0  0  0  0  0  0  0  0  0  0
    8.8564    1.3353   -2.8990 C   0  0  0  0  0  0  0  0  0  0  0  0
    8.7598    2.8567   -3.0467 C   0  0  0  0  0  0  0  0  0  0  0  0
    9.1354    3.7185   -1.8191 C   0  0  2  0  0  0  0  0  0  0  0  0
   10.5095    4.2816   -1.7841 N   0  0  0  0  0  0  0  0  0  0  0  0
   11.6219    3.4974   -1.6799 C   0  0  0  0  0  0  0  0  0  0  0  0
   12.7814    3.8646   -1.6912 O   0  0  0  0  0  0  0  0  0  0  0  0
   11.3064    2.1727   -1.5433 O   0  0  0  0  0  0  0  0  0  0  0  0
   12.4172    1.2625   -1.5565 C   0  0  0  0  0  0  0  0  0  0  0  0
   12.8905    0.9645   -2.9616 C   0  0  0  0  0  0  0  0  0  0  0  0
   14.1893    1.2747   -3.3691 C   0  0  0  0  0  0  0  0  0  0  0  0
   14.5828    0.9638   -4.6739 C   0  0  0  0  0  0  0  0  0  0  0  0
   13.6345    0.3807   -5.5374 C   0  0  0  0  0  0  0  0  0  0  0  0
   12.3560    0.1175   -5.0339 C   0  0  0  0  0  0  0  0  0  0  0  0
   11.9957    0.3896   -3.7814 N   0  0  0  0  0  0  0  0  0  0  0  0
   13.9271    0.0795   -6.8311 O   0  0  0  0  0  0  0  0  0  0  0  0
   15.0916    0.7312   -7.3256 C   0  0  0  0  0  0  0  0  0  0  0  0
   16.2216    0.6283   -6.3153 C   0  0  0  0  0  0  0  0  0  0  0  0
   15.8449    1.2344   -5.0802 O   0  0  0  0  0  0  0  0  0  0  0  0
   10.7411    5.7851   -1.8760 C   0  0  1  0  0  0  0  0  0  0  0  0
   11.4802    6.2694   -0.6111 C   0  0  0  0  0  0  0  0  0  0  0  0
   11.5505    6.1056   -3.1500 C   0  0  0  0  0  0  0  0  0  0  0  0
    9.4184    6.5668   -1.9594 C   0  0  0  0  0  0  0  0  0  0  0  0
    8.6081    3.0747   -0.5173 C   0  0  0  0  0  0  0  0  0  0  0  0
    8.7067    1.5512   -0.3947 C   0  0  0  0  0  0  0  0  0  0  0  0
    4.9472   -0.6259    0.2365 C   0  0  0  0  0  0  0  0  0  0  0  0
    5.2810   -1.9695    0.4174 C   0  0  0  0  0  0  0  0  0  0  0  0
    4.6755   -2.7161    1.4493 C   0  0  0  0  0  0  0  0  0  0  0  0
    5.0287   -4.0187    1.5755 F   0  0  0  0  0  0  0  0  0  0  0  0
    3.7535   -2.1516    2.3078 C   0  0  0  0  0  0  0  0  0  0  0  0
    3.4251   -0.7993    2.1464 C   0  0  0  0  0  0  0  0  0  0  0  0
    4.0060    0.0121    1.1239 C   0  0  0  0  0  0  0  0  0  0  0  0
    2.5999    3.1293    1.5964 H   0  0  0  0  0  0  0  0  0  0  0  0
    3.0232    2.0185    2.9226 H   0  0  0  0  0  0  0  0  0  0  0  0
    1.7161    1.5997    1.8098 H   0  0  0  0  0  0  0  0  0  0  0  0
    4.1715    3.2007   -0.1899 H   0  0  0  0  0  0  0  0  0  0  0  0
    6.1389    0.0846   -2.7642 H   0  0  0  0  0  0  0  0  0  0  0  0
    5.9966   -1.5067   -1.9842 H   0  0  0  0  0  0  0  0  0  0  0  0
    8.3289   -1.1205   -2.3085 H   0  0  0  0  0  0  0  0  0  0  0  0
    8.0340   -0.9178   -0.5609 H   0  0  0  0  0  0  0  0  0  0  0  0
    8.2369    0.8443   -3.6629 H   0  0  0  0  0  0  0  0  0  0  0  0
    9.8943    0.9701   -3.0620 H   0  0  0  0  0  0  0  0  0  0  0  0
    7.7028    3.0708   -3.2557 H   0  0  0  0  0  0  0  0  0  0  0  0
    9.3546    3.1593   -3.9205 H   0  0  0  0  0  0  0  0  0  0  0  0
    8.5111    4.6011   -1.9342 H   0  0  0  0  0  0  0  0  0  0  0  0
   12.0274    0.3431   -1.0958 H   0  0  0  0  0  0  0  0  0  0  0  0
   13.2324    1.6661   -0.9435 H   0  0  0  0  0  0  0  0  0  0  0  0
   14.8984    1.7608   -2.6978 H   0  0  0  0  0  0  0  0  0  0  0  0
   11.6165   -0.3364   -5.7028 H   0  0  0  0  0  0  0  0  0  0  0  0
   14.8655    1.7932   -7.5349 H   0  0  0  0  0  0  0  0  0  0  0  0
   15.3600    0.2359   -8.2693 H   0  0  0  0  0  0  0  0  0  0  0  0
   17.1191    1.1566   -6.6667 H   0  0  0  0  0  0  0  0  0  0  0  0
   16.4798   -0.4319   -6.1415 H   0  0  0  0  0  0  0  0  0  0  0  0
   12.4577    5.7854   -0.5050 H   0  0  0  0  0  0  0  0  0  0  0  0
   10.8792    6.0607    0.2885 H   0  0  0  0  0  0  0  0  0  0  0  0
   11.6376    7.3578   -0.6655 H   0  0  0  0  0  0  0  0  0  0  0  0
   12.5292    5.6125   -3.1374 H   0  0  0  0  0  0  0  0  0  0  0  0
   11.7098    7.1925   -3.2269 H   0  0  0  0  0  0  0  0  0  0  0  0
   10.9994    5.7815   -4.0476 H   0  0  0  0  0  0  0  0  0  0  0  0
    8.7777    6.4233   -1.0763 H   0  0  0  0  0  0  0  0  0  0  0  0
    8.8360    6.3362   -2.8643 H   0  0  0  0  0  0  0  0  0  0  0  0
    9.6682    7.6368   -2.0046 H   0  0  0  0  0  0  0  0  0  0  0  0
    7.5374    3.3116   -0.4709 H   0  0  0  0  0  0  0  0  0  0  0  0
    9.0973    3.5254    0.3579 H   0  0  0  0  0  0  0  0  0  0  0  0
    8.0033    1.1833    0.3626 H   0  0  0  0  0  0  0  0  0  0  0  0
    9.7204    1.2434   -0.0774 H   0  0  0  0  0  0  0  0  0  0  0  0
    5.9969   -2.4926   -0.2134 H   0  0  0  0  0  0  0  0  0  0  0  0
    3.2990   -2.7594    3.0929 H   0  0  0  0  0  0  0  0  0  0  0  0
    2.6981   -0.3511    2.8234 H   0  0  0  0  0  0  0  0  0  0  0  0
  1  2  1  0
  1 41  1  0
  1 42  1  0
  1 43  1  0
  2  3  2  0
  2 40  1  0
  3  4  1  0
  3 44  1  0
  4  5  2  0
  4  6  1  0
  6  7  1  0
  6 34  1  0
  7  8  1  0
  7 45  1  0
  7 46  1  0
  8  9  1  0
  8 47  1  0
  8 48  1  0
  9 10  1  0
  9 33  1  0
 10 11  1  0
 10 49  1  0
 10 50  1  0
 11 12  1  0
 11 51  1  0
 11 52  1  0
 12 13  1  0
 12 32  1  0
 12 53  1  1
 13 14  1  0
 28 13  1  6
 14 15  2  0
 14 16  1  0
 16 17  1  0
 17 18  1  0
 17 54  1  0
 17 55  1  0
 18 19  2  0
 18 23  1  0
 19 20  1  0
 19 56  1  0
 20 21  2  0
 20 27  1  0
 21 22  1  0
 21 24  1  0
 22 23  2  0
 22 57  1  0
 24 25  1  0
 25 26  1  0
 25 58  1  0
 25 59  1  0
 26 27  1  0
 26 60  1  0
 26 61  1  0
 28 29  1  0
 28 30  1  0
 28 31  1  0
 29 62  1  0
 29 63  1  0
 29 64  1  0
 30 65  1  0
 30 66  1  0
 30 67  1  0
 31 68  1  0
 31 69  1  0
 31 70  1  0
 32 33  1  0
 32 71  1  0
 32 72  1  0
 33 73  1  0
 33 74  1  0
 34 35  1  0
 34 40  2  0
 35 36  2  0
 35 75  1  0
 36 37  1  0
 36 38  1  0
 38 39  2  0
 38 76  1  0
 39 40  1  0
 39 77  1  0
M  END

