
     RDKit          3D

 45 47  0  0  0  0  0  0  0  0999 V2000
    1.6825   -0.3633    1.1885 C   0  0  0  0  0  0  0  0  0  0  0  0
    2.9975    0.0462    0.4892 C   0  0  1  0  0  0  0  0  0  0  0  0
    3.8510    0.8985    1.4364 C   0  0  0  0  0  0  0  0  0  0  0  0
    3.8151   -1.2278    0.1098 C   0  0  0  0  0  0  0  0  0  0  0  0
    3.3426   -1.9005   -1.0737 N   0  0  0  0  0  0  0  0  0  0  0  0
    3.3105   -3.3557   -1.1109 C   0  0  0  0  0  0  0  0  0  0  0  0
    1.9203   -3.9343   -0.7269 C   0  0  1  0  0  0  0  0  0  0  0  0
    2.2515   -5.2997   -0.5364 F   0  0  0  0  0  0  0  0  0  0  0  0
    1.6710   -3.4756    0.5587 F   0  0  0  0  0  0  0  0  0  0  0  0
    0.8130   -3.6702   -1.6353 C   0  0  0  0  0  0  0  0  0  0  0  0
    0.9466   -3.9086   -3.0704 C   0  0  0  0  0  0  0  0  0  0  0  0
   -0.1195   -3.6757   -3.9202 C   0  0  0  0  0  0  0  0  0  0  0  0
   -1.3759   -3.2281   -3.4442 C   0  0  0  0  0  0  0  0  0  0  0  0
   -1.5448   -3.0970   -2.0249 C   0  0  0  0  0  0  0  0  0  0  0  0
   -0.5041   -3.3264   -1.1536 C   0  0  0  0  0  0  0  0  0  0  0  0
    2.9496   -1.1282   -2.2493 C   0  0  2  0  0  0  0  0  0  0  0  0
    4.1902   -0.6841   -3.0281 C   0  0  1  0  0  0  0  0  0  0  0  0
    4.9287   -1.6329   -3.9382 C   0  0  0  0  0  0  0  0  0  0  0  0
    4.0841   -0.5325   -4.5241 C   0  0  0  0  0  0  0  0  0  0  0  0
    2.1005    0.0788   -1.8001 C   0  0  0  0  0  0  0  0  0  0  0  0
    2.8041    0.7904   -0.7512 N   0  0  0  0  0  0  0  0  0  0  0  0
    1.8845   -0.8886    2.1341 H   0  0  0  0  0  0  0  0  0  0  0  0
    1.0680   -1.0329    0.5734 H   0  0  0  0  0  0  0  0  0  0  0  0
    1.0970    0.5407    1.4199 H   0  0  0  0  0  0  0  0  0  0  0  0
    4.1277    0.3349    2.3406 H   0  0  0  0  0  0  0  0  0  0  0  0
    3.2825    1.7838    1.7622 H   0  0  0  0  0  0  0  0  0  0  0  0
    4.7678    1.2452    0.9358 H   0  0  0  0  0  0  0  0  0  0  0  0
    3.8307   -1.9490    0.9355 H   0  0  0  0  0  0  0  0  0  0  0  0
    4.8587   -0.9111   -0.0881 H   0  0  0  0  0  0  0  0  0  0  0  0
    4.0571   -3.7407   -0.4043 H   0  0  0  0  0  0  0  0  0  0  0  0
    3.5696   -3.6846   -2.1226 H   0  0  0  0  0  0  0  0  0  0  0  0
    1.8642   -4.3406   -3.4812 H   0  0  0  0  0  0  0  0  0  0  0  0
    0.0071   -3.8743   -4.9904 H   0  0  0  0  0  0  0  0  0  0  0  0
   -2.2077   -3.0567   -4.1279 H   0  0  0  0  0  0  0  0  0  0  0  0
   -2.5261   -2.8287   -1.6215 H   0  0  0  0  0  0  0  0  0  0  0  0
   -0.6738   -3.2470   -0.0775 H   0  0  0  0  0  0  0  0  0  0  0  0
    2.3372   -1.7951   -2.8679 H   0  0  0  0  0  0  0  0  0  0  0  0
    4.7794    0.0705   -2.4973 H   0  0  0  0  0  0  0  0  0  0  0  0
    4.5527   -2.6547   -4.0412 H   0  0  0  0  0  0  0  0  0  0  0  0
    6.0175   -1.5500   -3.9911 H   0  0  0  0  0  0  0  0  0  0  0  0
    3.1438   -0.8193   -5.0031 H   0  0  0  0  0  0  0  0  0  0  0  0
    4.5802    0.3275   -4.9810 H   0  0  0  0  0  0  0  0  0  0  0  0
    1.1015   -0.2928   -1.5135 H   0  0  0  0  0  0  0  0  0  0  0  0
    1.9749    0.7398   -2.6685 H   0  0  0  0  0  0  0  0  0  0  0  0
    2.4330    1.7221   -0.5837 H   0  0  0  0  0  0  0  0  0  0  0  0
  2  1  1  1
  1 22  1  0
  1 23  1  0
  1 24  1  0
  2  3  1  0
  2  4  1  0
  2 21  1  0
  3 25  1  0
  3 26  1  0
  3 27  1  0
  4  5  1  0
  4 28  1  0
  4 29  1  0
  5  6  1  0
  5 16  1  0
  6  7  1  0
  6 30  1  0
  6 31  1  0
  7  8  1  1
  7  9  1  0
  7 10  1  0
 10 11  2  0
 10 15  1  0
 11 12  1  0
 11 32  1  0
 12 13  2  0
 12 33  1  0
 13 14  1  0
 13 34  1  0
 14 15  2  0
 14 35  1  0
 15 36  1  0
 16 17  1  0
 16 20  1  0
 16 37  1  6
 17 18  1  0
 17 19  1  0
 17 38  1  1
 18 19  1  0
 18 39  1  0
 18 40  1  0
 19 41  1  0
 19 42  1  0
 20 21  1  0
 20 43  1  0
 20 44  1  0
 21 45  1  0
M  END

