
     RDKit          3D

 51 56  0  0  0  0  0  0  0  0999 V2000
    1.5667    0.4487    0.1740 C   0  0  0  0  0  0  0  0  0  0  0  0
    2.9470    0.0256    0.0063 N   0  0  0  0  0  0  0  0  0  0  0  0
    3.9118    0.9363   -0.0704 N   0  0  0  0  0  0  0  0  0  0  0  0
    5.0652    0.2746   -0.2560 C   0  0  0  0  0  0  0  0  0  0  0  0
    6.3511    0.9777   -0.3663 C   0  0  0  0  0  0  0  0  0  0  0  0
    6.5112    2.2630    0.1860 C   0  0  0  0  0  0  0  0  0  0  0  0
    7.7258    2.9352    0.0938 C   0  0  0  0  0  0  0  0  0  0  0  0
    8.8391    2.3565   -0.5493 C   0  0  0  0  0  0  0  0  0  0  0  0
   10.1345    3.0738   -0.6403 C   0  0  0  0  0  0  0  0  0  0  0  0
   11.3676    2.4032   -0.5642 C   0  0  0  0  0  0  0  0  0  0  0  0
   12.5534    3.1301   -0.6566 C   0  0  0  0  0  0  0  0  0  0  0  0
   12.4773    4.5169   -0.8186 C   0  0  0  0  0  0  0  0  0  0  0  0
   11.3185    5.1749   -0.8996 N   0  0  0  0  0  0  0  0  0  0  0  0
   10.1899    4.4722   -0.8163 C   0  0  0  0  0  0  0  0  0  0  0  0
    8.6739    1.0774   -1.1095 C   0  0  0  0  0  0  0  0  0  0  0  0
    7.4554    0.4030   -1.0256 C   0  0  0  0  0  0  0  0  0  0  0  0
    4.8055   -1.1190   -0.2811 C   0  0  0  0  0  0  0  0  0  0  0  0
    5.6652   -2.1700   -0.4201 O   0  0  0  0  0  0  0  0  0  0  0  0
    3.4271   -1.2560   -0.1093 C   0  0  0  0  0  0  0  0  0  0  0  0
    2.6337   -2.4659   -0.0447 C   0  0  0  0  0  0  0  0  0  0  0  0
    1.3303   -2.5470    0.1354 N   0  0  0  0  0  0  0  0  0  0  0  0
    1.0429   -3.8963    0.1273 C   0  0  0  0  0  0  0  0  0  0  0  0
   -0.1914   -4.5549    0.2826 C   0  0  0  0  0  0  0  0  0  0  0  0
   -0.1784   -5.9432    0.2476 C   0  0  0  0  0  0  0  0  0  0  0  0
    1.0174   -6.6774    0.0540 C   0  0  0  0  0  0  0  0  0  0  0  0
    2.2489   -6.0519   -0.1129 C   0  0  0  0  0  0  0  0  0  0  0  0
    2.2363   -4.6507   -0.0673 C   0  0  0  0  0  0  0  0  0  0  0  0
    3.2326   -3.7034   -0.1733 N   0  0  0  0  0  0  0  0  0  0  0  0
    4.2272   -3.8451   -0.3110 H   0  0  0  0  0  0  0  0  0  0  0  0
    0.6665   -8.1561    0.0366 C   0  0  0  0  0  0  0  0  0  0  0  0
   -0.6914   -8.2437    0.6009 N   0  0  0  0  0  0  0  0  0  0  0  0
   -1.3256   -6.9350    0.3611 C   0  0  0  0  0  0  0  0  0  0  0  0
    1.5807    1.5427    0.2439 H   0  0  0  0  0  0  0  0  0  0  0  0
    1.1340    0.0040    1.0802 H   0  0  0  0  0  0  0  0  0  0  0  0
    0.9558    0.1241   -0.6798 H   0  0  0  0  0  0  0  0  0  0  0  0
    5.6641    2.7220    0.6986 H   0  0  0  0  0  0  0  0  0  0  0  0
    7.8231    3.9198    0.5568 H   0  0  0  0  0  0  0  0  0  0  0  0
   11.3956    1.3215   -0.4102 H   0  0  0  0  0  0  0  0  0  0  0  0
   13.5241    2.6328   -0.5924 H   0  0  0  0  0  0  0  0  0  0  0  0
   13.3912    5.1191   -0.8851 H   0  0  0  0  0  0  0  0  0  0  0  0
    9.2581    5.0413   -0.9147 H   0  0  0  0  0  0  0  0  0  0  0  0
    9.4995    0.6158   -1.6563 H   0  0  0  0  0  0  0  0  0  0  0  0
    7.3504   -0.5602   -1.5318 H   0  0  0  0  0  0  0  0  0  0  0  0
    6.5553   -1.8899   -0.1635 H   0  0  0  0  0  0  0  0  0  0  0  0
   -1.1077   -3.9780    0.4286 H   0  0  0  0  0  0  0  0  0  0  0  0
    3.1720   -6.6172   -0.2660 H   0  0  0  0  0  0  0  0  0  0  0  0
    1.3707   -8.7878    0.6017 H   0  0  0  0  0  0  0  0  0  0  0  0
    0.6706   -8.5341   -1.0051 H   0  0  0  0  0  0  0  0  0  0  0  0
   -0.6029   -8.3673    1.6085 H   0  0  0  0  0  0  0  0  0  0  0  0
   -2.0444   -6.6933    1.1602 H   0  0  0  0  0  0  0  0  0  0  0  0
   -1.9020   -6.9602   -0.5847 H   0  0  0  0  0  0  0  0  0  0  0  0
  1  2  1  0
  1 33  1  0
  1 34  1  0
  1 35  1  0
  2  3  1  0
  2 19  1  0
  3  4  2  0
  4  5  1  0
  4 17  1  0
  5  6  2  0
  5 16  1  0
  6  7  1  0
  6 36  1  0
  7  8  2  0
  7 37  1  0
  8  9  1  0
  8 15  1  0
  9 10  2  0
  9 14  1  0
 10 11  1  0
 10 38  1  0
 11 12  2  0
 11 39  1  0
 12 13  1  0
 12 40  1  0
 13 14  2  0
 14 41  1  0
 15 16  2  0
 15 42  1  0
 16 43  1  0
 17 18  1  0
 17 19  2  0
 18 44  1  0
 19 20  1  0
 20 21  2  0
 20 28  1  0
 21 22  1  0
 22 23  2  0
 22 27  1  0
 23 24  1  0
 23 45  1  0
 24 25  2  0
 24 32  1  0
 25 26  1  0
 25 30  1  0
 26 27  2  0
 26 46  1  0
 27 28  1  0
 28 29  1  0
 30 31  1  0
 30 47  1  0
 30 48  1  0
 31 32  1  0
 31 49  1  0
 32 50  1  0
 32 51  1  0
M  END

