
     RDKit          3D

 55 58  0  0  0  0  0  0  0  0999 V2000
    1.7496   -1.4992   -1.1539 C   0  0  0  0  0  0  0  0  0  0  0  0
    2.2454   -2.5089   -0.2985 O   0  0  0  0  0  0  0  0  0  0  0  0
    3.2855   -3.3019   -0.7033 C   0  0  0  0  0  0  0  0  0  0  0  0
    3.8534   -3.2042   -1.9803 C   0  0  0  0  0  0  0  0  0  0  0  0
    4.9149   -4.0348   -2.3495 C   0  0  0  0  0  0  0  0  0  0  0  0
    5.4133   -4.9709   -1.4427 C   0  0  0  0  0  0  0  0  0  0  0  0
    4.8460   -5.0681   -0.1732 C   0  0  0  0  0  0  0  0  0  0  0  0
    3.7793   -4.2462    0.2379 C   0  0  0  0  0  0  0  0  0  0  0  0
    3.2423   -4.3888    1.5937 C   0  0  0  0  0  0  0  0  0  0  0  0
    3.6663   -5.1574    2.6730 C   0  0  0  0  0  0  0  0  0  0  0  0
    2.8520   -4.9603    3.7534 N   0  0  0  0  0  0  0  0  0  0  0  0
    1.9407   -4.0885    3.3655 C   0  0  0  0  0  0  0  0  0  0  0  0
    0.8263   -3.6309    4.2851 C   0  0  1  0  0  0  0  0  0  0  0  0
    1.2213   -3.8847    5.6085 O   0  0  0  0  0  0  0  0  0  0  0  0
    0.4785   -2.1646    4.0728 C   0  0  0  0  0  0  0  0  0  0  0  0
   -0.4874   -1.7850    3.1288 C   0  0  0  0  0  0  0  0  0  0  0  0
   -0.7719   -0.4366    2.8984 C   0  0  0  0  0  0  0  0  0  0  0  0
   -0.1048    0.5682    3.6151 C   0  0  0  0  0  0  0  0  0  0  0  0
   -0.3839    2.0367    3.3384 C   0  0  0  0  0  0  0  0  0  0  0  0
   -1.7956    2.3243    3.1256 N   0  0  0  0  0  0  0  0  0  0  0  0
   -2.6361    2.2105    4.3199 C   0  0  0  0  0  0  0  0  0  0  0  0
   -2.5565    3.4336    5.2505 C   0  0  0  0  0  0  0  0  0  0  0  0
   -2.8613    4.7251    4.4788 C   0  0  0  0  0  0  0  0  0  0  0  0
   -1.9792    4.8333    3.2266 C   0  0  0  0  0  0  0  0  0  0  0  0
   -2.0838    3.5490    2.3840 C   0  0  0  0  0  0  0  0  0  0  0  0
    0.8438    0.1814    4.5729 C   0  0  0  0  0  0  0  0  0  0  0  0
    1.1369   -1.1656    4.7988 C   0  0  0  0  0  0  0  0  0  0  0  0
    2.1299   -3.7177    2.0765 N   0  0  0  0  0  0  0  0  0  0  0  0
    1.6202   -3.0234    1.5412 H   0  0  0  0  0  0  0  0  0  0  0  0
    0.9597   -0.9803   -0.5946 H   0  0  0  0  0  0  0  0  0  0  0  0
    1.3183   -1.9216   -2.0783 H   0  0  0  0  0  0  0  0  0  0  0  0
    2.5357   -0.7726   -1.4231 H   0  0  0  0  0  0  0  0  0  0  0  0
    3.4704   -2.4783   -2.6970 H   0  0  0  0  0  0  0  0  0  0  0  0
    5.3454   -3.9452   -3.3497 H   0  0  0  0  0  0  0  0  0  0  0  0
    6.2404   -5.6276   -1.7211 H   0  0  0  0  0  0  0  0  0  0  0  0
    5.2367   -5.8071    0.5286 H   0  0  0  0  0  0  0  0  0  0  0  0
    4.5206   -5.8300    2.7210 H   0  0  0  0  0  0  0  0  0  0  0  0
   -0.0793   -4.2272    4.0362 H   0  0  0  0  0  0  0  0  0  0  0  0
    1.9511   -4.5288    5.5430 H   0  0  0  0  0  0  0  0  0  0  0  0
   -1.0408   -2.5546    2.5801 H   0  0  0  0  0  0  0  0  0  0  0  0
   -1.5413   -0.1448    2.1794 H   0  0  0  0  0  0  0  0  0  0  0  0
    0.1473    2.3240    2.4128 H   0  0  0  0  0  0  0  0  0  0  0  0
    0.0850    2.6391    4.1468 H   0  0  0  0  0  0  0  0  0  0  0  0
   -2.3663    1.2890    4.8587 H   0  0  0  0  0  0  0  0  0  0  0  0
   -3.6832    2.0845    3.9859 H   0  0  0  0  0  0  0  0  0  0  0  0
   -1.5480    3.4983    5.6970 H   0  0  0  0  0  0  0  0  0  0  0  0
   -3.2587    3.3055    6.0919 H   0  0  0  0  0  0  0  0  0  0  0  0
   -2.7317    5.6084    5.1264 H   0  0  0  0  0  0  0  0  0  0  0  0
   -3.9239    4.7192    4.1703 H   0  0  0  0  0  0  0  0  0  0  0  0
   -0.9277    4.9973    3.5248 H   0  0  0  0  0  0  0  0  0  0  0  0
   -2.2702    5.7057    2.6164 H   0  0  0  0  0  0  0  0  0  0  0  0
   -1.4159    3.6003    1.5083 H   0  0  0  0  0  0  0  0  0  0  0  0
   -3.1151    3.4697    1.9900 H   0  0  0  0  0  0  0  0  0  0  0  0
    1.3593    0.9492    5.1583 H   0  0  0  0  0  0  0  0  0  0  0  0
    1.8632   -1.4624    5.5578 H   0  0  0  0  0  0  0  0  0  0  0  0
  1  2  1  0
  1 30  1  0
  1 31  1  0
  1 32  1  0
  2  3  1  0
  3  4  2  0
  3  8  1  0
  4  5  1  0
  4 33  1  0
  5  6  2  0
  5 34  1  0
  6  7  1  0
  6 35  1  0
  7  8  2  0
  7 36  1  0
  8  9  1  0
  9 10  2  0
  9 28  1  0
 10 11  1  0
 10 37  1  0
 11 12  2  0
 12 13  1  0
 12 28  1  0
 13 14  1  0
 13 15  1  0
 13 38  1  6
 14 39  1  0
 15 16  2  0
 15 27  1  0
 16 17  1  0
 16 40  1  0
 17 18  2  0
 17 41  1  0
 18 19  1  0
 18 26  1  0
 19 20  1  0
 19 42  1  0
 19 43  1  0
 20 21  1  0
 20 25  1  0
 21 22  1  0
 21 44  1  0
 21 45  1  0
 22 23  1  0
 22 46  1  0
 22 47  1  0
 23 24  1  0
 23 48  1  0
 23 49  1  0
 24 25  1  0
 24 50  1  0
 24 51  1  0
 25 52  1  0
 25 53  1  0
 26 27  2  0
 26 54  1  0
 27 55  1  0
 28 29  1  0
M  END

