
     RDKit          3D

 49 51  0  0  0  0  0  0  0  0999 V2000
    3.6228    2.4615   -0.0169 C   0  0  0  0  0  0  0  0  0  0  0  0
    3.3997    1.0670   -0.3474 N   0  0  0  0  0  0  0  0  0  0  0  0
    2.0586    0.5350   -0.1850 C   0  0  0  0  0  0  0  0  0  0  0  0
    1.8337   -0.1991    1.1184 C   0  0  0  0  0  0  0  0  0  0  0  0
    2.2385   -1.4225    1.3307 N   0  0  0  0  0  0  0  0  0  0  0  0
    1.9631   -1.8386    2.6072 C   0  0  0  0  0  0  0  0  0  0  0  0
    1.3291   -0.9197    3.4014 C   0  0  0  0  0  0  0  0  0  0  0  0
    1.0672    0.5372    2.5075 S   0  0  0  0  0  0  0  0  0  0  0  0
    4.4445    0.3279   -0.9083 C   0  0  0  0  0  0  0  0  0  0  0  0
    5.4774    0.8610   -1.2920 O   0  0  0  0  0  0  0  0  0  0  0  0
    4.2104   -1.0252   -1.0206 N   0  0  0  0  0  0  0  0  0  0  0  0
    5.2340   -1.8870   -1.6158 C   0  0  1  0  0  0  0  0  0  0  0  0
    6.3992   -2.1952   -0.6504 C   0  0  0  0  0  0  0  0  0  0  0  0
    5.9661   -3.1496    0.4752 C   0  0  0  0  0  0  0  0  0  0  0  0
    5.3635   -4.3958   -0.0075 N   0  0  0  0  0  0  0  0  0  0  0  0
    6.3103   -5.4103   -0.4574 C   0  0  0  0  0  0  0  0  0  0  0  0
    6.9418   -6.1919    0.6973 C   0  0  1  0  0  0  0  0  0  0  0  0
    5.9617   -6.9917    1.5668 C   0  0  0  0  0  0  0  0  0  0  0  0
    6.8897   -8.0139    2.2230 C   0  0  0  0  0  0  0  0  0  0  0  0
    7.9160   -8.2821    1.2721 O   0  0  0  0  0  0  0  0  0  0  0  0
    7.9120   -7.2970    0.2475 C   0  0  0  0  0  0  0  0  0  0  0  0
    4.2443   -4.1245   -0.9076 C   0  0  0  0  0  0  0  0  0  0  0  0
    4.5985   -3.2047   -2.0922 C   0  0  0  0  0  0  0  0  0  0  0  0
    3.4060    2.6623    1.0477 H   0  0  0  0  0  0  0  0  0  0  0  0
    2.9882    3.1287   -0.6294 H   0  0  0  0  0  0  0  0  0  0  0  0
    4.6733    2.6986   -0.2216 H   0  0  0  0  0  0  0  0  0  0  0  0
    1.8417   -0.1709   -1.0019 H   0  0  0  0  0  0  0  0  0  0  0  0
    1.3409    1.3657   -0.2712 H   0  0  0  0  0  0  0  0  0  0  0  0
    2.2456   -2.8449    2.9206 H   0  0  0  0  0  0  0  0  0  0  0  0
    1.0058   -1.0243    4.4354 H   0  0  0  0  0  0  0  0  0  0  0  0
    3.5779   -1.4524   -0.3445 H   0  0  0  0  0  0  0  0  0  0  0  0
    5.6353   -1.3305   -2.4748 H   0  0  0  0  0  0  0  0  0  0  0  0
    6.7897   -1.2510   -0.2404 H   0  0  0  0  0  0  0  0  0  0  0  0
    7.2211   -2.6497   -1.2310 H   0  0  0  0  0  0  0  0  0  0  0  0
    5.2264   -2.6397    1.1186 H   0  0  0  0  0  0  0  0  0  0  0  0
    6.8214   -3.3881    1.1267 H   0  0  0  0  0  0  0  0  0  0  0  0
    7.1222   -4.9998   -1.0987 H   0  0  0  0  0  0  0  0  0  0  0  0
    5.7610   -6.1273   -1.0914 H   0  0  0  0  0  0  0  0  0  0  0  0
    7.4946   -5.4929    1.3503 H   0  0  0  0  0  0  0  0  0  0  0  0
    5.2189   -7.4962    0.9241 H   0  0  0  0  0  0  0  0  0  0  0  0
    5.4121   -6.3683    2.2857 H   0  0  0  0  0  0  0  0  0  0  0  0
    6.3853   -8.9600    2.4826 H   0  0  0  0  0  0  0  0  0  0  0  0
    7.3335   -7.6060    3.1538 H   0  0  0  0  0  0  0  0  0  0  0  0
    7.5726   -7.7502   -0.7071 H   0  0  0  0  0  0  0  0  0  0  0  0
    8.9400   -6.9265    0.0894 H   0  0  0  0  0  0  0  0  0  0  0  0
    3.4347   -3.6612   -0.3134 H   0  0  0  0  0  0  0  0  0  0  0  0
    3.8416   -5.0820   -1.2752 H   0  0  0  0  0  0  0  0  0  0  0  0
    3.7002   -2.9928   -2.6963 H   0  0  0  0  0  0  0  0  0  0  0  0
    5.3167   -3.7196   -2.7528 H   0  0  0  0  0  0  0  0  0  0  0  0
  1  2  1  0
  1 24  1  0
  1 25  1  0
  1 26  1  0
  2  3  1  0
  2  9  1  0
  3  4  1  0
  3 27  1  0
  3 28  1  0
  4  5  2  0
  4  8  1  0
  5  6  1  0
  6  7  2  0
  6 29  1  0
  7  8  1  0
  7 30  1  0
  9 10  2  0
  9 11  1  0
 11 12  1  0
 11 31  1  0
 12 13  1  0
 12 23  1  0
 12 32  1  6
 13 14  1  0
 13 33  1  0
 13 34  1  0
 14 15  1  0
 14 35  1  0
 14 36  1  0
 15 16  1  0
 15 22  1  0
 16 17  1  0
 16 37  1  0
 16 38  1  0
 17 18  1  0
 17 21  1  0
 17 39  1  1
 18 19  1  0
 18 40  1  0
 18 41  1  0
 19 20  1  0
 19 42  1  0
 19 43  1  0
 20 21  1  0
 21 44  1  0
 21 45  1  0
 22 23  1  0
 22 46  1  0
 22 47  1  0
 23 48  1  0
 23 49  1  0
M  END

