
     RDKit          3D

 39 41  0  0  0  0  0  0  0  0999 V2000
    0.7968    0.1845    0.0369 C   0  0  0  0  0  0  0  0  0  0  0  0
    2.3246    0.0671   -0.0545 C   0  0  1  0  0  0  0  0  0  0  0  0
    2.8002   -1.3543   -0.4231 C   0  0  0  0  0  0  0  0  0  0  0  0
    2.5176   -1.7233   -1.8864 C   0  0  0  0  0  0  0  0  0  0  0  0
    3.1263   -0.6934   -2.8473 C   0  0  0  0  0  0  0  0  0  0  0  0
    2.6669    0.7322   -2.5055 C   0  0  0  0  0  0  0  0  0  0  0  0
    2.9350    1.1113   -1.0361 C   0  0  2  0  0  0  0  0  0  0  0  0
    4.3683    1.2701   -0.8401 N   0  0  0  0  0  0  0  0  0  0  0  0
    4.9756    2.0128    0.1214 C   0  0  0  0  0  0  0  0  0  0  0  0
    4.2438    2.8014    1.0496 C   0  0  0  0  0  0  0  0  0  0  0  0
    4.8866    3.5853    1.9999 C   0  0  0  0  0  0  0  0  0  0  0  0
    6.2813    3.6246    2.0904 C   0  0  0  0  0  0  0  0  0  0  0  0
    7.0304    2.8517    1.2047 C   0  0  0  0  0  0  0  0  0  0  0  0
    8.5140    2.8847    1.3488 C   0  0  0  0  0  0  0  0  0  0  0  0
    9.1113    3.4936    2.2205 O   0  0  0  0  0  0  0  0  0  0  0  0
    9.2064    2.1592    0.4043 N   0  0  0  0  0  0  0  0  0  0  0  0
   10.1706    1.9400    0.6389 H   0  0  0  0  0  0  0  0  0  0  0  0
    8.5924    1.2614   -0.4643 N   0  0  0  0  0  0  0  0  0  0  0  0
    9.1643    0.9599   -1.2484 H   0  0  0  0  0  0  0  0  0  0  0  0
    7.2363    1.2364   -0.6936 C   0  0  0  0  0  0  0  0  0  0  0  0
    6.8134    0.5533   -1.6330 O   0  0  0  0  0  0  0  0  0  0  0  0
    6.4101    2.0354    0.2257 C   0  0  0  0  0  0  0  0  0  0  0  0
    0.3982   -0.5113    0.7926 H   0  0  0  0  0  0  0  0  0  0  0  0
    0.2934   -0.0446   -0.9153 H   0  0  0  0  0  0  0  0  0  0  0  0
    0.4918    1.2026    0.3313 H   0  0  0  0  0  0  0  0  0  0  0  0
    2.7259    0.3014    0.9465 H   0  0  0  0  0  0  0  0  0  0  0  0
    2.3350   -2.0883    0.2568 H   0  0  0  0  0  0  0  0  0  0  0  0
    3.8882   -1.4156   -0.2467 H   0  0  0  0  0  0  0  0  0  0  0  0
    1.4278   -1.7847   -2.0565 H   0  0  0  0  0  0  0  0  0  0  0  0
    2.9163   -2.7283   -2.1031 H   0  0  0  0  0  0  0  0  0  0  0  0
    2.8562   -0.9294   -3.8901 H   0  0  0  0  0  0  0  0  0  0  0  0
    4.2286   -0.7571   -2.8012 H   0  0  0  0  0  0  0  0  0  0  0  0
    1.5840    0.8196   -2.6939 H   0  0  0  0  0  0  0  0  0  0  0  0
    3.1578    1.4698   -3.1613 H   0  0  0  0  0  0  0  0  0  0  0  0
    2.4514    2.0857   -0.8479 H   0  0  0  0  0  0  0  0  0  0  0  0
    5.0192    0.7711   -1.4502 H   0  0  0  0  0  0  0  0  0  0  0  0
    3.1547    2.7961    1.0158 H   0  0  0  0  0  0  0  0  0  0  0  0
    4.2821    4.1805    2.6897 H   0  0  0  0  0  0  0  0  0  0  0  0
    6.8031    4.2305    2.8312 H   0  0  0  0  0  0  0  0  0  0  0  0
  1  2  1  0
  1 23  1  0
  1 24  1  0
  1 25  1  0
  2  3  1  0
  2  7  1  0
  2 26  1  1
  3  4  1  0
  3 27  1  0
  3 28  1  0
  4  5  1  0
  4 29  1  0
  4 30  1  0
  5  6  1  0
  5 31  1  0
  5 32  1  0
  6  7  1  0
  6 33  1  0
  6 34  1  0
  7  8  1  0
  7 35  1  1
  8  9  1  0
  8 36  1  0
  9 10  2  0
  9 22  1  0
 10 11  1  0
 10 37  1  0
 11 12  2  0
 11 38  1  0
 12 13  1  0
 12 39  1  0
 13 14  1  0
 13 22  2  0
 14 15  2  0
 14 16  1  0
 16 17  1  0
 16 18  1  0
 18 19  1  0
 18 20  1  0
 20 21  2  0
 20 22  1  0
M  END

