
     RDKit          3D

 56 58  0  0  0  0  0  0  0  0999 V2000
    0.5638   -0.4800   -0.3580 C   0  0  0  0  0  0  0  0  0  0  0  0
    2.0101   -0.1315   -0.0962 C   0  0  0  0  0  0  0  0  0  0  0  0
    2.6868   -0.6840    0.8526 N   0  0  0  0  0  0  0  0  0  0  0  0
    2.0931   -1.5943    1.6576 N   0  0  0  0  0  0  0  0  0  0  0  0
    3.1565   -2.6159    2.5538 S   0  0  1  0  0  0  0  0  0  0  0  0
    2.2514   -3.6661    3.0263 O   0  0  0  0  0  0  0  0  0  0  0  0
    4.3082   -2.9696    1.7281 O   0  0  0  0  0  0  0  0  0  0  0  0
    3.6678   -1.5551    3.9231 C   0  0  0  0  0  0  0  0  0  0  0  0
    2.6941   -1.2200    4.9027 C   0  0  0  0  0  0  0  0  0  0  0  0
    1.2493   -1.6593    4.8542 C   0  0  0  0  0  0  0  0  0  0  0  0
    3.0996   -0.4261    5.9798 C   0  0  0  0  0  0  0  0  0  0  0  0
    4.4130    0.0380    6.1203 C   0  0  0  0  0  0  0  0  0  0  0  0
    4.8075    0.8770    7.3093 C   0  0  0  0  0  0  0  0  0  0  0  0
    5.3354   -0.3048    5.1310 C   0  0  0  0  0  0  0  0  0  0  0  0
    5.0039   -1.0954    4.0178 C   0  0  0  0  0  0  0  0  0  0  0  0
    6.1066   -1.3714    3.0206 C   0  0  0  0  0  0  0  0  0  0  0  0
    2.7199    0.8722   -0.9343 C   0  0  0  0  0  0  0  0  0  0  0  0
    2.0287    1.8417   -1.6827 C   0  0  0  0  0  0  0  0  0  0  0  0
    2.7402    2.7769   -2.4377 C   0  0  0  0  0  0  0  0  0  0  0  0
    4.1344    2.7755   -2.4798 C   0  0  0  0  0  0  0  0  0  0  0  0
    4.8377    1.8062   -1.7370 C   0  0  0  0  0  0  0  0  0  0  0  0
    6.2403    1.7088   -1.7186 N   0  0  0  0  0  0  0  0  0  0  0  0
    7.1790    2.4942   -2.3564 C   0  0  0  0  0  0  0  0  0  0  0  0
    6.8858    3.4587   -3.0498 O   0  0  0  0  0  0  0  0  0  0  0  0
    8.5855    2.0706   -2.1225 C   0  0  0  0  0  0  0  0  0  0  0  0
    9.0889    0.8595   -1.5134 C   0  0  0  0  0  0  0  0  0  0  0  0
   10.4446    0.9575   -1.5403 C   0  0  0  0  0  0  0  0  0  0  0  0
   10.8183    2.1318   -2.1159 O   0  0  0  0  0  0  0  0  0  0  0  0
    9.6996    2.8081   -2.4741 C   0  0  0  0  0  0  0  0  0  0  0  0
    9.8931    4.1280   -3.1284 C   0  0  0  0  0  0  0  0  0  0  0  0
    4.1228    0.8702   -0.9758 C   0  0  0  0  0  0  0  0  0  0  0  0
    0.4408   -1.5726   -0.4687 H   0  0  0  0  0  0  0  0  0  0  0  0
    0.1818   -0.0222   -1.2770 H   0  0  0  0  0  0  0  0  0  0  0  0
   -0.0791   -0.1661    0.4828 H   0  0  0  0  0  0  0  0  0  0  0  0
    1.2999   -2.1518    1.3189 H   0  0  0  0  0  0  0  0  0  0  0  0
    1.1587   -2.7497    4.9516 H   0  0  0  0  0  0  0  0  0  0  0  0
    0.7799   -1.3894    3.8965 H   0  0  0  0  0  0  0  0  0  0  0  0
    0.6840   -1.1780    5.6643 H   0  0  0  0  0  0  0  0  0  0  0  0
    2.3556   -0.1610    6.7364 H   0  0  0  0  0  0  0  0  0  0  0  0
    4.1261    1.7338    7.4362 H   0  0  0  0  0  0  0  0  0  0  0  0
    5.8314    1.2658    7.2118 H   0  0  0  0  0  0  0  0  0  0  0  0
    4.7582    0.2873    8.2405 H   0  0  0  0  0  0  0  0  0  0  0  0
    6.3634    0.0571    5.2156 H   0  0  0  0  0  0  0  0  0  0  0  0
    7.0177   -0.8371    3.3252 H   0  0  0  0  0  0  0  0  0  0  0  0
    5.8251   -1.0501    2.0086 H   0  0  0  0  0  0  0  0  0  0  0  0
    6.3318   -2.4439    2.9457 H   0  0  0  0  0  0  0  0  0  0  0  0
    0.9387    1.8880   -1.6642 H   0  0  0  0  0  0  0  0  0  0  0  0
    2.1952    3.5324   -3.0095 H   0  0  0  0  0  0  0  0  0  0  0  0
    4.6869    3.5016   -3.0703 H   0  0  0  0  0  0  0  0  0  0  0  0
    6.6003    0.9726   -1.1249 H   0  0  0  0  0  0  0  0  0  0  0  0
    8.5265    0.0109   -1.1279 H   0  0  0  0  0  0  0  0  0  0  0  0
   11.2486    0.3038   -1.2132 H   0  0  0  0  0  0  0  0  0  0  0  0
   10.4526    4.8129   -2.4693 H   0  0  0  0  0  0  0  0  0  0  0  0
    8.9156    4.5602   -3.3692 H   0  0  0  0  0  0  0  0  0  0  0  0
   10.4771    4.0170   -4.0574 H   0  0  0  0  0  0  0  0  0  0  0  0
    4.6539    0.1075   -0.4019 H   0  0  0  0  0  0  0  0  0  0  0  0
  1  2  1  0
  1 32  1  0
  1 33  1  0
  1 34  1  0
  2  3  2  0
  2 17  1  0
  3  4  1  0
  5  4  1  6
  4 35  1  0
  5  6  2  0
  5  7  2  0
  5  8  1  0
  8  9  2  0
  8 15  1  0
  9 10  1  0
  9 11  1  0
 10 36  1  0
 10 37  1  0
 10 38  1  0
 11 12  2  0
 11 39  1  0
 12 13  1  0
 12 14  1  0
 13 40  1  0
 13 41  1  0
 13 42  1  0
 14 15  2  0
 14 43  1  0
 15 16  1  0
 16 44  1  0
 16 45  1  0
 16 46  1  0
 17 18  2  0
 17 31  1  0
 18 19  1  0
 18 47  1  0
 19 20  2  0
 19 48  1  0
 20 21  1  0
 20 49  1  0
 21 22  1  0
 21 31  2  0
 22 23  1  0
 22 50  1  0
 23 24  2  0
 23 25  1  0
 25 26  1  0
 25 29  2  0
 26 27  2  0
 26 51  1  0
 27 28  1  0
 27 52  1  0
 28 29  1  0
 29 30  1  0
 30 53  1  0
 30 54  1  0
 30 55  1  0
 31 56  1  0
M  END

