
     RDKit          3D

 54 56  0  0  0  0  0  0  0  0999 V2000
    1.4418    0.1175   -1.3531 C   0  0  0  0  0  0  0  0  0  0  0  0
    2.4728   -0.9663   -1.6689 C   0  0  0  0  0  0  0  0  0  0  0  0
    3.5029   -1.1500   -0.5553 C   0  0  0  0  0  0  0  0  0  0  0  0
    4.5657   -2.1909   -0.8999 C   0  0  0  0  0  0  0  0  0  0  0  0
    4.6653   -2.6718   -2.0212 O   0  0  0  0  0  0  0  0  0  0  0  0
    5.4192   -2.5764    0.1070 N   0  0  0  0  0  0  0  0  0  0  0  0
    6.5197   -3.4758   -0.2596 C   0  0  0  0  0  0  0  0  0  0  0  0
    7.5266   -3.7108    1.2505 S   0  0  0  0  0  0  0  0  0  0  0  0
    6.9556   -2.0917    1.8852 C   0  0  0  0  0  0  0  0  0  0  0  0
    5.4794   -2.0002    1.4610 C   0  0  2  0  0  0  0  0  0  0  0  0
    4.5661   -2.6478    2.4983 C   0  0  0  0  0  0  0  0  0  0  0  0
    4.5416   -2.2132    3.6682 O   0  0  0  0  0  0  0  0  0  0  0  0
    3.8204   -3.7326    2.0839 N   0  0  0  0  0  0  0  0  0  0  0  0
    2.9709   -4.4903    2.8306 C   0  0  0  0  0  0  0  0  0  0  0  0
    2.3001   -5.5398    2.3092 N   0  0  0  0  0  0  0  0  0  0  0  0
    1.5453   -6.1199    3.2694 C   0  0  0  0  0  0  0  0  0  0  0  0
    0.7355   -7.3326    2.9076 C   0  0  0  0  0  0  0  0  0  0  0  0
   -0.4497   -7.1018    2.0582 N   0  0  0  0  0  0  0  0  0  0  0  0
   -0.6462   -5.8530    1.3472 C   0  0  0  0  0  0  0  0  0  0  0  0
   -1.3724   -6.0220    0.0071 C   0  0  0  0  0  0  0  0  0  0  0  0
   -2.6188   -6.9175    0.0876 C   0  0  2  0  0  0  0  0  0  0  0  0
   -3.7905   -6.2625    0.8312 C   0  0  0  0  0  0  0  0  0  0  0  0
   -2.1923   -8.2644    0.6938 C   0  0  0  0  0  0  0  0  0  0  0  0
   -1.4941   -8.1070    2.0505 C   0  0  0  0  0  0  0  0  0  0  0  0
    1.5714   -5.5764    4.5378 C   0  0  0  0  0  0  0  0  0  0  0  0
    2.6791   -4.1941    4.5706 S   0  0  0  0  0  0  0  0  0  0  0  0
    0.7101    0.2259   -2.1699 H   0  0  0  0  0  0  0  0  0  0  0  0
    1.9213    1.1002   -1.2066 H   0  0  0  0  0  0  0  0  0  0  0  0
    0.8813   -0.1107   -0.4304 H   0  0  0  0  0  0  0  0  0  0  0  0
    3.0000   -0.7343   -2.6078 H   0  0  0  0  0  0  0  0  0  0  0  0
    1.9676   -1.9298   -1.8526 H   0  0  0  0  0  0  0  0  0  0  0  0
    3.0133   -1.4263    0.3934 H   0  0  0  0  0  0  0  0  0  0  0  0
    4.0158   -0.1917   -0.3511 H   0  0  0  0  0  0  0  0  0  0  0  0
    7.1063   -3.0359   -1.0835 H   0  0  0  0  0  0  0  0  0  0  0  0
    6.1485   -4.4524   -0.6062 H   0  0  0  0  0  0  0  0  0  0  0  0
    7.5541   -1.2744    1.4499 H   0  0  0  0  0  0  0  0  0  0  0  0
    7.0347   -2.0655    2.9797 H   0  0  0  0  0  0  0  0  0  0  0  0
    5.2166   -0.9270    1.4245 H   0  0  0  0  0  0  0  0  0  0  0  0
    3.9489   -4.0568    1.1317 H   0  0  0  0  0  0  0  0  0  0  0  0
    0.3757   -7.8642    3.8002 H   0  0  0  0  0  0  0  0  0  0  0  0
    1.3399   -8.0568    2.3287 H   0  0  0  0  0  0  0  0  0  0  0  0
    0.3421   -5.3879    1.2441 H   0  0  0  0  0  0  0  0  0  0  0  0
   -1.2237   -5.2095    2.0398 H   0  0  0  0  0  0  0  0  0  0  0  0
   -0.6611   -6.4483   -0.7193 H   0  0  0  0  0  0  0  0  0  0  0  0
   -1.6259   -5.0171   -0.3616 H   0  0  0  0  0  0  0  0  0  0  0  0
   -2.9525   -7.1157   -0.9445 H   0  0  0  0  0  0  0  0  0  0  0  0
   -3.5506   -6.0104    1.8779 H   0  0  0  0  0  0  0  0  0  0  0  0
   -4.6687   -6.9269    0.8477 H   0  0  0  0  0  0  0  0  0  0  0  0
   -4.0913   -5.3265    0.3361 H   0  0  0  0  0  0  0  0  0  0  0  0
   -1.5022   -8.7765    0.0032 H   0  0  0  0  0  0  0  0  0  0  0  0
   -3.0541   -8.9349    0.8334 H   0  0  0  0  0  0  0  0  0  0  0  0
   -1.0600   -9.0546    2.3995 H   0  0  0  0  0  0  0  0  0  0  0  0
   -2.2219   -7.7928    2.8248 H   0  0  0  0  0  0  0  0  0  0  0  0
    1.0735   -5.9253    5.4396 H   0  0  0  0  0  0  0  0  0  0  0  0
  1  2  1  0
  1 27  1  0
  1 28  1  0
  1 29  1  0
  2  3  1  0
  2 30  1  0
  2 31  1  0
  3  4  1  0
  3 32  1  0
  3 33  1  0
  4  5  2  0
  4  6  1  0
  6  7  1  0
  6 10  1  0
  7  8  1  0
  7 34  1  0
  7 35  1  0
  8  9  1  0
  9 10  1  0
  9 36  1  0
  9 37  1  0
 10 11  1  0
 10 38  1  6
 11 12  2  0
 11 13  1  0
 13 14  1  0
 13 39  1  0
 14 15  2  0
 14 26  1  0
 15 16  1  0
 16 17  1  0
 16 25  2  0
 17 18  1  0
 17 40  1  0
 17 41  1  0
 18 19  1  0
 18 24  1  0
 19 20  1  0
 19 42  1  0
 19 43  1  0
 20 21  1  0
 20 44  1  0
 20 45  1  0
 21 22  1  0
 21 23  1  0
 21 46  1  6
 22 47  1  0
 22 48  1  0
 22 49  1  0
 23 24  1  0
 23 50  1  0
 23 51  1  0
 24 52  1  0
 24 53  1  0
 25 26  1  0
 25 54  1  0
M  END

