
     RDKit          3D

194200  0  0  0  0  0  0  0  0999 V2000
   11.1204    8.0911    3.6353 C   0  0  0  0  0  0  0  0  0  0  0  0
    9.8794    7.2105    3.4792 C   0  0  0  0  0  0  0  0  0  0  0  0
   10.0311    5.8279    4.1237 C   0  0  0  0  0  0  0  0  0  0  0  0
    8.7767    4.9407    4.0710 C   0  0  0  0  0  0  0  0  0  0  0  0
    8.2701    4.5479    2.6741 C   0  0  0  0  0  0  0  0  0  0  0  0
    9.2614    3.6963    1.8832 C   0  0  0  0  0  0  0  0  0  0  0  0
    8.6764    3.1307    0.7119 O   0  0  0  0  0  0  0  0  0  0  0  0
    8.6791    3.7383   -0.4899 C   0  0  0  0  0  0  0  0  0  0  0  0
    9.0603    5.0651   -0.6896 C   0  0  0  0  0  0  0  0  0  0  0  0
    9.0468    5.6658   -1.9627 C   0  0  0  0  0  0  0  0  0  0  0  0
    9.4255    7.0603   -2.1689 C   0  0  0  0  0  0  0  0  0  0  0  0
    9.3569    8.0163   -1.2049 C   0  0  0  0  0  0  0  0  0  0  0  0
    9.6857    9.4344   -1.2710 C   0  0  0  0  0  0  0  0  0  0  0  0
    9.2093   10.2556   -0.2252 C   0  0  0  0  0  0  0  0  0  0  0  0
    9.4406   11.6303   -0.1769 C   0  0  0  0  0  0  0  0  0  0  0  0
    8.9723   12.4383    0.8109 O   0  0  0  0  0  0  0  0  0  0  0  0
    8.2084   11.8957    1.8781 C   0  0  0  0  0  0  0  0  0  0  0  0
    7.8097   13.0267    2.8167 C   0  0  0  0  0  0  0  0  0  0  0  0
    6.9180   14.1140    2.2008 C   0  0  0  0  0  0  0  0  0  0  0  0
    5.5208   13.6472    1.7784 C   0  0  0  0  0  0  0  0  0  0  0  0
    4.6370   14.7768    1.2390 C   0  0  0  0  0  0  0  0  0  0  0  0
    3.2440   14.3129    0.8115 C   0  0  0  0  0  0  0  0  0  0  0  0
   10.2001   12.2519   -1.2063 C   0  0  0  0  0  0  0  0  0  0  0  0
   10.4378   13.6874   -1.1548 C   0  0  0  0  0  0  0  0  0  0  0  0
   11.0452   14.4406   -2.1089 C   0  0  0  0  0  0  0  0  0  0  0  0
   11.2800   15.8752   -2.0516 C   0  0  0  0  0  0  0  0  0  0  0  0
   10.9567   16.6634   -0.9288 C   0  0  0  0  0  0  0  0  0  0  0  0
   11.1698   18.0404   -0.8974 C   0  0  0  0  0  0  0  0  0  0  0  0
   10.8618   18.8094    0.1688 O   0  0  0  0  0  0  0  0  0  0  0  0
   10.3524   18.2202    1.3644 C   0  0  0  0  0  0  0  0  0  0  0  0
   10.0113   19.3233    2.3537 C   0  0  0  0  0  0  0  0  0  0  0  0
    8.7958   20.1635    1.9531 C   0  0  0  0  0  0  0  0  0  0  0  0
    8.4966   21.3126    2.9198 C   0  0  0  0  0  0  0  0  0  0  0  0
    7.2827   22.1516    2.5085 C   0  0  0  0  0  0  0  0  0  0  0  0
    6.9891   23.3105    3.4622 C   0  0  0  0  0  0  0  0  0  0  0  0
   11.7614   18.6985   -2.0309 C   0  0  0  0  0  0  0  0  0  0  0  0
   11.9537   20.1219   -1.9546 C   0  0  0  0  0  0  0  0  0  0  0  0
   12.6617   21.0399   -2.7110 C   0  0  0  0  0  0  0  0  0  0  0  0
   13.6692   20.7995   -3.7943 C   0  0  0  0  0  0  0  0  0  0  0  0
   13.8889   19.7936   -4.4486 O   0  0  0  0  0  0  0  0  0  0  0  0
   14.4252   22.0699   -3.9452 C   0  0  0  0  0  0  0  0  0  0  0  0
   15.5182   22.3094   -4.7718 C   0  0  0  0  0  0  0  0  0  0  0  0
   16.0930   23.5838   -4.7500 C   0  0  0  0  0  0  0  0  0  0  0  0
   15.5648   24.5797   -3.9152 C   0  0  0  0  0  0  0  0  0  0  0  0
   14.4558   24.3383   -3.0950 C   0  0  0  0  0  0  0  0  0  0  0  0
   13.8760   23.0610   -3.1107 C   0  0  0  0  0  0  0  0  0  0  0  0
   12.7061   22.4808   -2.4047 C   0  0  0  0  0  0  0  0  0  0  0  0
   11.7844   23.2153   -1.6760 C   0  0  0  0  0  0  0  0  0  0  0  0
   10.5516   22.6906   -1.1692 C   0  0  0  0  0  0  0  0  0  0  0  0
    9.5212   22.3452   -0.7563 N   0  0  0  0  0  0  0  0  0  0  0  0
   11.9363   24.6147   -1.4091 C   0  0  0  0  0  0  0  0  0  0  0  0
   12.0300   25.7474   -1.1641 N   0  0  0  0  0  0  0  0  0  0  0  0
   12.0894   17.8992   -3.1541 C   0  0  0  0  0  0  0  0  0  0  0  0
   11.8600   16.5304   -3.1799 C   0  0  0  0  0  0  0  0  0  0  0  0
   12.1591   15.7445   -4.2467 O   0  0  0  0  0  0  0  0  0  0  0  0
   12.7121   16.3291   -5.4196 C   0  0  0  0  0  0  0  0  0  0  0  0
   12.9466   15.2236   -6.4365 C   0  0  0  0  0  0  0  0  0  0  0  0
   13.5348   15.7396   -7.7527 C   0  0  0  0  0  0  0  0  0  0  0  0
   13.7649   14.6371   -8.7905 C   0  0  0  0  0  0  0  0  0  0  0  0
   14.3527   15.1422  -10.1119 C   0  0  0  0  0  0  0  0  0  0  0  0
   14.5753   14.0357  -11.1437 C   0  0  0  0  0  0  0  0  0  0  0  0
   10.6964   11.4307   -2.2398 C   0  0  0  0  0  0  0  0  0  0  0  0
   10.4630   10.0570   -2.2915 C   0  0  0  0  0  0  0  0  0  0  0  0
   10.9631    9.2593   -3.2692 O   0  0  0  0  0  0  0  0  0  0  0  0
   11.8712    9.7933   -4.2223 C   0  0  0  0  0  0  0  0  0  0  0  0
   12.4098    8.6569   -5.0765 C   0  0  0  0  0  0  0  0  0  0  0  0
   13.3937    9.1415   -6.1452 C   0  0  0  0  0  0  0  0  0  0  0  0
   13.9813    8.0114   -6.9958 C   0  0  0  0  0  0  0  0  0  0  0  0
   14.9559    8.4933   -8.0747 C   0  0  0  0  0  0  0  0  0  0  0  0
   15.5433    7.3604   -8.9175 C   0  0  0  0  0  0  0  0  0  0  0  0
    8.6385    4.8691   -3.0758 C   0  0  0  0  0  0  0  0  0  0  0  0
    8.6196    5.4853   -4.2867 O   0  0  0  0  0  0  0  0  0  0  0  0
    8.0775    4.7910   -5.4067 C   0  0  0  0  0  0  0  0  0  0  0  0
    8.0780    5.7209   -6.6107 C   0  0  0  0  0  0  0  0  0  0  0  0
    9.4646    6.1735   -7.0925 C   0  0  0  0  0  0  0  0  0  0  0  0
   10.4083    5.0677   -7.5883 C   0  0  0  0  0  0  0  0  0  0  0  0
    9.9295    4.3038   -8.8285 C   0  0  0  0  0  0  0  0  0  0  0  0
   10.9448    3.2771   -9.3337 C   0  0  0  0  0  0  0  0  0  0  0  0
    8.2566    3.5473   -2.8891 C   0  0  0  0  0  0  0  0  0  0  0  0
    8.2679    2.9353   -1.6100 C   0  0  0  0  0  0  0  0  0  0  0  0
    7.9393    1.5650   -1.3260 C   0  0  0  0  0  0  0  0  0  0  0  0
    7.4834    0.4809   -2.0535 C   0  0  0  0  0  0  0  0  0  0  0  0
    7.0816    0.4075   -3.4914 C   0  0  0  0  0  0  0  0  0  0  0  0
    7.1366    1.2643   -4.3598 O   0  0  0  0  0  0  0  0  0  0  0  0
    6.5615   -0.9641   -3.7134 C   0  0  0  0  0  0  0  0  0  0  0  0
    6.0475   -1.4885   -4.8950 C   0  0  0  0  0  0  0  0  0  0  0  0
    5.6018   -2.8132   -4.8884 C   0  0  0  0  0  0  0  0  0  0  0  0
    5.6808   -3.5738   -3.7126 C   0  0  0  0  0  0  0  0  0  0  0  0
    6.2024   -3.0423   -2.5269 C   0  0  0  0  0  0  0  0  0  0  0  0
    6.6522   -1.7127   -2.5255 C   0  0  0  0  0  0  0  0  0  0  0  0
    7.2537   -0.8558   -1.4689 C   0  0  0  0  0  0  0  0  0  0  0  0
    7.5534   -1.2986   -0.1881 C   0  0  0  0  0  0  0  0  0  0  0  0
    8.1815   -0.5196    0.8390 C   0  0  0  0  0  0  0  0  0  0  0  0
    8.6900    0.0370    1.7248 N   0  0  0  0  0  0  0  0  0  0  0  0
    7.2777   -2.6309    0.2624 C   0  0  0  0  0  0  0  0  0  0  0  0
    7.0719   -3.6982    0.6754 N   0  0  0  0  0  0  0  0  0  0  0  0
   10.9857    9.0722    3.1521 H   0  0  0  0  0  0  0  0  0  0  0  0
   12.0067    7.6183    3.1800 H   0  0  0  0  0  0  0  0  0  0  0  0
   11.3534    8.2708    4.6982 H   0  0  0  0  0  0  0  0  0  0  0  0
    9.6488    7.1018    2.4042 H   0  0  0  0  0  0  0  0  0  0  0  0
    9.0040    7.7203    3.9226 H   0  0  0  0  0  0  0  0  0  0  0  0
   10.3108    5.9630    5.1839 H   0  0  0  0  0  0  0  0  0  0  0  0
   10.8890    5.3046    3.6629 H   0  0  0  0  0  0  0  0  0  0  0  0
    7.9562    5.4552    4.6016 H   0  0  0  0  0  0  0  0  0  0  0  0
    8.9723    4.0186    4.6465 H   0  0  0  0  0  0  0  0  0  0  0  0
    7.9935    5.4448    2.0947 H   0  0  0  0  0  0  0  0  0  0  0  0
    7.3454    3.9574    2.7820 H   0  0  0  0  0  0  0  0  0  0  0  0
    9.5642    2.8228    2.4805 H   0  0  0  0  0  0  0  0  0  0  0  0
   10.1741    4.2538    1.6136 H   0  0  0  0  0  0  0  0  0  0  0  0
    9.3967    5.6598    0.1575 H   0  0  0  0  0  0  0  0  0  0  0  0
    9.7306    7.3330   -3.1770 H   0  0  0  0  0  0  0  0  0  0  0  0
    8.9396    7.7210   -0.2355 H   0  0  0  0  0  0  0  0  0  0  0  0
    8.6252    9.7757    0.5594 H   0  0  0  0  0  0  0  0  0  0  0  0
    8.8085   11.1440    2.4246 H   0  0  0  0  0  0  0  0  0  0  0  0
    7.3175   11.3790    1.4760 H   0  0  0  0  0  0  0  0  0  0  0  0
    8.7330   13.4859    3.2090 H   0  0  0  0  0  0  0  0  0  0  0  0
    7.2986   12.5693    3.6827 H   0  0  0  0  0  0  0  0  0  0  0  0
    7.4349   14.5553    1.3310 H   0  0  0  0  0  0  0  0  0  0  0  0
    6.8130   14.9297    2.9379 H   0  0  0  0  0  0  0  0  0  0  0  0
    5.0169   13.1709    2.6409 H   0  0  0  0  0  0  0  0  0  0  0  0
    5.6019   12.8616    1.0051 H   0  0  0  0  0  0  0  0  0  0  0  0
    5.1456   15.2560    0.3828 H   0  0  0  0  0  0  0  0  0  0  0  0
    4.5438   15.5637    2.0097 H   0  0  0  0  0  0  0  0  0  0  0  0
    3.3012   13.5531    0.0139 H   0  0  0  0  0  0  0  0  0  0  0  0
    2.6389   15.1502    0.4292 H   0  0  0  0  0  0  0  0  0  0  0  0
    2.6938   13.8634    1.6553 H   0  0  0  0  0  0  0  0  0  0  0  0
   10.0662   14.1681   -0.2483 H   0  0  0  0  0  0  0  0  0  0  0  0
   11.3909   13.9683   -3.0293 H   0  0  0  0  0  0  0  0  0  0  0  0
   10.5267   16.1695   -0.0611 H   0  0  0  0  0  0  0  0  0  0  0  0
   11.1145   17.5346    1.7785 H   0  0  0  0  0  0  0  0  0  0  0  0
    9.4507   17.6241    1.1324 H   0  0  0  0  0  0  0  0  0  0  0  0
   10.8997   19.9667    2.4795 H   0  0  0  0  0  0  0  0  0  0  0  0
    9.8357   18.8447    3.3338 H   0  0  0  0  0  0  0  0  0  0  0  0
    7.9109   19.5028    1.8841 H   0  0  0  0  0  0  0  0  0  0  0  0
    8.9527   20.5774    0.9445 H   0  0  0  0  0  0  0  0  0  0  0  0
    9.3837   21.9699    2.9855 H   0  0  0  0  0  0  0  0  0  0  0  0
    8.3418   20.9132    3.9408 H   0  0  0  0  0  0  0  0  0  0  0  0
    6.3953   21.4955    2.4408 H   0  0  0  0  0  0  0  0  0  0  0  0
    7.4506   22.5403    1.4892 H   0  0  0  0  0  0  0  0  0  0  0  0
    6.7873   22.9506    4.4857 H   0  0  0  0  0  0  0  0  0  0  0  0
    6.1117   23.8915    3.1355 H   0  0  0  0  0  0  0  0  0  0  0  0
    7.8432   24.0061    3.5210 H   0  0  0  0  0  0  0  0  0  0  0  0
   11.4590   20.5425   -1.0782 H   0  0  0  0  0  0  0  0  0  0  0  0
   15.9013   21.5096   -5.4095 H   0  0  0  0  0  0  0  0  0  0  0  0
   16.9560   23.8081   -5.3819 H   0  0  0  0  0  0  0  0  0  0  0  0
   16.0256   25.5705   -3.9024 H   0  0  0  0  0  0  0  0  0  0  0  0
   14.0738   25.1380   -2.4637 H   0  0  0  0  0  0  0  0  0  0  0  0
   12.5505   18.3968   -4.0011 H   0  0  0  0  0  0  0  0  0  0  0  0
   13.6560   16.8500   -5.1767 H   0  0  0  0  0  0  0  0  0  0  0  0
   12.0166   17.0893   -5.8222 H   0  0  0  0  0  0  0  0  0  0  0  0
   11.9876   14.7104   -6.6260 H   0  0  0  0  0  0  0  0  0  0  0  0
   13.6204   14.4713   -5.9903 H   0  0  0  0  0  0  0  0  0  0  0  0
   14.4909   16.2569   -7.5516 H   0  0  0  0  0  0  0  0  0  0  0  0
   12.8631   16.5068   -8.1803 H   0  0  0  0  0  0  0  0  0  0  0  0
   12.8077   14.1205   -8.9912 H   0  0  0  0  0  0  0  0  0  0  0  0
   14.4358   13.8684   -8.3635 H   0  0  0  0  0  0  0  0  0  0  0  0
   15.3097   15.6570   -9.9097 H   0  0  0  0  0  0  0  0  0  0  0  0
   13.6827   15.9127  -10.5353 H   0  0  0  0  0  0  0  0  0  0  0  0
   15.2691   13.2668  -10.7639 H   0  0  0  0  0  0  0  0  0  0  0  0
   15.0003   14.4334  -12.0790 H   0  0  0  0  0  0  0  0  0  0  0  0
   13.6295   13.5282  -11.3980 H   0  0  0  0  0  0  0  0  0  0  0  0
   11.2916   11.8989   -3.0203 H   0  0  0  0  0  0  0  0  0  0  0  0
   12.7003   10.3083   -3.7015 H   0  0  0  0  0  0  0  0  0  0  0  0
   11.3591   10.5456   -4.8522 H   0  0  0  0  0  0  0  0  0  0  0  0
   11.5614    8.1353   -5.5509 H   0  0  0  0  0  0  0  0  0  0  0  0
   12.8975    7.9207   -4.4149 H   0  0  0  0  0  0  0  0  0  0  0  0
   14.2191    9.6966   -5.6616 H   0  0  0  0  0  0  0  0  0  0  0  0
   12.8891    9.8701   -6.8066 H   0  0  0  0  0  0  0  0  0  0  0  0
   13.1583    7.4475   -7.4728 H   0  0  0  0  0  0  0  0  0  0  0  0
   14.4952    7.2883   -6.3357 H   0  0  0  0  0  0  0  0  0  0  0  0
   15.7754    9.0601   -7.5958 H   0  0  0  0  0  0  0  0  0  0  0  0
   14.4392    9.2147   -8.7337 H   0  0  0  0  0  0  0  0  0  0  0  0
   16.0962    6.6402   -8.2912 H   0  0  0  0  0  0  0  0  0  0  0  0
   16.2411    7.7422   -9.6796 H   0  0  0  0  0  0  0  0  0  0  0  0
   14.7523    6.7991   -9.4428 H   0  0  0  0  0  0  0  0  0  0  0  0
    7.0478    4.4656   -5.1744 H   0  0  0  0  0  0  0  0  0  0  0  0
    8.6660    3.8770   -5.6043 H   0  0  0  0  0  0  0  0  0  0  0  0
    7.4757    6.6100   -6.3583 H   0  0  0  0  0  0  0  0  0  0  0  0
    7.5369    5.2052   -7.4223 H   0  0  0  0  0  0  0  0  0  0  0  0
    9.9571    6.7151   -6.2680 H   0  0  0  0  0  0  0  0  0  0  0  0
    9.3235    6.9120   -7.9020 H   0  0  0  0  0  0  0  0  0  0  0  0
   10.6106    4.3489   -6.7731 H   0  0  0  0  0  0  0  0  0  0  0  0
   11.3869    5.5286   -7.8146 H   0  0  0  0  0  0  0  0  0  0  0  0
    9.7031    5.0272   -9.6336 H   0  0  0  0  0  0  0  0  0  0  0  0
    8.9764    3.7904   -8.6106 H   0  0  0  0  0  0  0  0  0  0  0  0
   11.8999    3.7573   -9.6055 H   0  0  0  0  0  0  0  0  0  0  0  0
   10.5746    2.7450  -10.2245 H   0  0  0  0  0  0  0  0  0  0  0  0
   11.1660    2.5202   -8.5625 H   0  0  0  0  0  0  0  0  0  0  0  0
    7.9301    2.9357   -3.7253 H   0  0  0  0  0  0  0  0  0  0  0  0
    8.0929    1.3564   -0.2691 H   0  0  0  0  0  0  0  0  0  0  0  0
    6.0025   -0.8636   -5.7897 H   0  0  0  0  0  0  0  0  0  0  0  0
    5.1904   -3.2600   -5.7968 H   0  0  0  0  0  0  0  0  0  0  0  0
    5.3279   -4.6080   -3.7164 H   0  0  0  0  0  0  0  0  0  0  0  0
    6.2451   -3.6680   -1.6384 H   0  0  0  0  0  0  0  0  0  0  0  0
  1  2  1  0
  1 97  1  0
  1 98  1  0
  1 99  1  0
  2  3  1  0
  2100  1  0
  2101  1  0
  3  4  1  0
  3102  1  0
  3103  1  0
  4  5  1  0
  4104  1  0
  4105  1  0
  5  6  1  0
  5106  1  0
  5107  1  0
  6  7  1  0
  6108  1  0
  6109  1  0
  7  8  1  0
  8  9  2  0
  8 80  1  0
  9 10  1  0
  9110  1  0
 10 11  1  0
 10 71  2  0
 11 12  2  0
 11111  1  0
 12 13  1  0
 12112  1  0
 13 14  2  0
 13 63  1  0
 14 15  1  0
 14113  1  0
 15 16  1  0
 15 23  2  0
 16 17  1  0
 17 18  1  0
 17114  1  0
 17115  1  0
 18 19  1  0
 18116  1  0
 18117  1  0
 19 20  1  0
 19118  1  0
 19119  1  0
 20 21  1  0
 20120  1  0
 20121  1  0
 21 22  1  0
 21122  1  0
 21123  1  0
 22124  1  0
 22125  1  0
 22126  1  0
 23 24  1  0
 23 62  1  0
 24 25  2  0
 24127  1  0
 25 26  1  0
 25128  1  0
 26 27  2  0
 26 54  1  0
 27 28  1  0
 27129  1  0
 28 29  1  0
 28 36  2  0
 29 30  1  0
 30 31  1  0
 30130  1  0
 30131  1  0
 31 32  1  0
 31132  1  0
 31133  1  0
 32 33  1  0
 32134  1  0
 32135  1  0
 33 34  1  0
 33136  1  0
 33137  1  0
 34 35  1  0
 34138  1  0
 34139  1  0
 35140  1  0
 35141  1  0
 35142  1  0
 36 37  1  0
 36 53  1  0
 37 38  2  0
 37143  1  0
 38 39  1  0
 38 47  1  0
 39 40  2  0
 39 41  1  0
 41 42  1  0
 41 46  2  0
 42 43  2  0
 42144  1  0
 43 44  1  0
 43145  1  0
 44 45  2  0
 44146  1  0
 45 46  1  0
 45147  1  0
 46 47  1  0
 47 48  2  0
 48 49  1  0
 48 51  1  0
 49 50  3  0
 51 52  3  0
 53 54  2  0
 53148  1  0
 54 55  1  0
 55 56  1  0
 56 57  1  0
 56149  1  0
 56150  1  0
 57 58  1  0
 57151  1  0
 57152  1  0
 58 59  1  0
 58153  1  0
 58154  1  0
 59 60  1  0
 59155  1  0
 59156  1  0
 60 61  1  0
 60157  1  0
 60158  1  0
 61159  1  0
 61160  1  0
 61161  1  0
 62 63  2  0
 62162  1  0
 63 64  1  0
 64 65  1  0
 65 66  1  0
 65163  1  0
 65164  1  0
 66 67  1  0
 66165  1  0
 66166  1  0
 67 68  1  0
 67167  1  0
 67168  1  0
 68 69  1  0
 68169  1  0
 68170  1  0
 69 70  1  0
 69171  1  0
 69172  1  0
 70173  1  0
 70174  1  0
 70175  1  0
 71 72  1  0
 71 79  1  0
 72 73  1  0
 73 74  1  0
 73176  1  0
 73177  1  0
 74 75  1  0
 74178  1  0
 74179  1  0
 75 76  1  0
 75180  1  0
 75181  1  0
 76 77  1  0
 76182  1  0
 76183  1  0
 77 78  1  0
 77184  1  0
 77185  1  0
 78186  1  0
 78187  1  0
 78188  1  0
 79 80  2  0
 79189  1  0
 80 81  1  0
 81 82  2  0
 81190  1  0
 82 83  1  0
 82 91  1  0
 83 84  2  0
 83 85  1  0
 85 86  1  0
 85 90  2  0
 86 87  2  0
 86191  1  0
 87 88  1  0
 87192  1  0
 88 89  2  0
 88193  1  0
 89 90  1  0
 89194  1  0
 90 91  1  0
 91 92  2  0
 92 93  1  0
 92 95  1  0
 93 94  3  0
 95 96  3  0
M  END

