
     RDKit          3D

108110  0  0  0  0  0  0  0  0999 V2000
   18.9607   -1.5652   -0.9216 C   0  0  0  0  0  0  0  0  0  0  0  0
   18.8187   -0.1817   -1.5589 C   0  0  0  0  0  0  0  0  0  0  0  0
   19.3152    0.9539   -0.6567 C   0  0  0  0  0  0  0  0  0  0  0  0
   19.2641    2.3558   -1.2834 C   0  0  0  0  0  0  0  0  0  0  0  0
   17.8694    2.8784   -1.6690 C   0  0  0  0  0  0  0  0  0  0  0  0
   16.8432    2.9796   -0.5296 C   0  0  0  0  0  0  0  0  0  0  0  0
   17.2308    3.9308    0.6084 C   0  0  0  0  0  0  0  0  0  0  0  0
   16.1449    4.0832    1.6781 C   0  0  0  0  0  0  0  0  0  0  0  0
   16.5370    5.0194    2.8251 C   0  0  0  0  0  0  0  0  0  0  0  0
   15.4557    5.1752    3.8988 C   0  0  0  0  0  0  0  0  0  0  0  0
   15.8663    6.1047    5.0442 C   0  0  0  0  0  0  0  0  0  0  0  0
   14.7799    6.2498    6.1171 C   0  0  0  0  0  0  0  0  0  0  0  0
   15.1506    7.1341    7.2109 N   0  0  0  0  0  0  0  0  0  0  0  0
   14.8257    8.4653    7.2689 C   0  0  0  0  0  0  0  0  0  0  0  0
   15.4100    9.0231    8.4030 C   0  0  0  0  0  0  0  0  0  0  0  0
   16.1198    7.9984    9.0532 C   0  0  0  0  0  0  0  0  0  0  0  0
   15.9623    6.8086    8.3011 C   0  0  0  0  0  0  0  0  0  0  0  0
   16.4762    5.4962    8.5234 C   0  0  0  0  0  0  0  0  0  0  0  0
   17.3088    5.1506    9.5802 C   0  0  0  0  0  0  0  0  0  0  0  0
   17.8502    3.8627    9.8686 C   0  0  0  0  0  0  0  0  0  0  0  0
   18.7282    3.6840   10.9876 C   0  0  0  0  0  0  0  0  0  0  0  0
   19.2754    2.4589   11.2935 C   0  0  0  0  0  0  0  0  0  0  0  0
   18.9955    1.2887   10.5140 C   0  0  0  0  0  0  0  0  0  0  0  0
   19.5805    0.0361   10.8668 C   0  0  0  0  0  0  0  0  0  0  0  0
   19.3917   -1.1873   10.2374 C   0  0  0  0  0  0  0  0  0  0  0  0
   20.0199   -2.4035   10.6401 C   0  0  0  0  0  0  0  0  0  0  0  0
   20.9472   -2.6467   11.6828 C   0  0  0  0  0  0  0  0  0  0  0  0
   21.2736   -4.0138   11.6690 C   0  0  0  0  0  0  0  0  0  0  0  0
   20.5556   -4.5984   10.6301 C   0  0  0  0  0  0  0  0  0  0  0  0
   19.8030   -3.6333   10.0092 N   0  0  0  0  0  0  0  0  0  0  0  0
   18.9014   -3.9173    8.8996 C   0  0  0  0  0  0  0  0  0  0  0  0
   17.5557   -4.5303    9.3154 C   0  0  0  0  0  0  0  0  0  0  0  0
   16.6596   -3.6232   10.1620 C   0  0  0  0  0  0  0  0  0  0  0  0
   15.3423   -4.2855   10.5780 C   0  0  0  0  0  0  0  0  0  0  0  0
   14.4414   -3.3811   11.4242 C   0  0  0  0  0  0  0  0  0  0  0  0
   13.1278   -4.0396   11.8560 C   0  0  0  0  0  0  0  0  0  0  0  0
   12.2317   -3.1330   12.7049 C   0  0  0  0  0  0  0  0  0  0  0  0
   10.9184   -3.7884   13.1421 C   0  0  0  0  0  0  0  0  0  0  0  0
   10.0253   -2.8805   13.9935 C   0  0  0  0  0  0  0  0  0  0  0  0
    8.7116   -3.5414   14.4261 C   0  0  0  0  0  0  0  0  0  0  0  0
    7.7670   -2.6429   15.2380 C   0  0  0  0  0  0  0  0  0  0  0  0
    8.2924   -2.2361   16.6174 C   0  0  0  0  0  0  0  0  0  0  0  0
   18.1143    1.4668    9.3962 C   0  0  0  0  0  0  0  0  0  0  0  0
   17.5704    2.6918    9.0881 C   0  0  0  0  0  0  0  0  0  0  0  0
   18.5975   -2.3608   -1.5920 H   0  0  0  0  0  0  0  0  0  0  0  0
   18.3858   -1.6341    0.0174 H   0  0  0  0  0  0  0  0  0  0  0  0
   20.0131   -1.7894   -0.6786 H   0  0  0  0  0  0  0  0  0  0  0  0
   17.7607   -0.0140   -1.8266 H   0  0  0  0  0  0  0  0  0  0  0  0
   19.3768   -0.1557   -2.5130 H   0  0  0  0  0  0  0  0  0  0  0  0
   20.3603    0.7422   -0.3663 H   0  0  0  0  0  0  0  0  0  0  0  0
   18.7420    0.9415    0.2887 H   0  0  0  0  0  0  0  0  0  0  0  0
   19.8964    2.3618   -2.1898 H   0  0  0  0  0  0  0  0  0  0  0  0
   19.7422    3.0683   -0.5890 H   0  0  0  0  0  0  0  0  0  0  0  0
   17.4469    2.2420   -2.4659 H   0  0  0  0  0  0  0  0  0  0  0  0
   17.9907    3.8777   -2.1252 H   0  0  0  0  0  0  0  0  0  0  0  0
   16.6438    1.9765   -0.1102 H   0  0  0  0  0  0  0  0  0  0  0  0
   15.8812    3.3135   -0.9587 H   0  0  0  0  0  0  0  0  0  0  0  0
   17.4690    4.9254    0.1865 H   0  0  0  0  0  0  0  0  0  0  0  0
   18.1603    3.5807    1.0914 H   0  0  0  0  0  0  0  0  0  0  0  0
   15.8958    3.0872    2.0896 H   0  0  0  0  0  0  0  0  0  0  0  0
   15.2151    4.4519    1.2059 H   0  0  0  0  0  0  0  0  0  0  0  0
   16.7880    6.0150    2.4147 H   0  0  0  0  0  0  0  0  0  0  0  0
   17.4655    4.6489    3.2972 H   0  0  0  0  0  0  0  0  0  0  0  0
   15.2014    4.1791    4.3069 H   0  0  0  0  0  0  0  0  0  0  0  0
   14.5272    5.5526    3.4308 H   0  0  0  0  0  0  0  0  0  0  0  0
   16.1079    7.1068    4.6486 H   0  0  0  0  0  0  0  0  0  0  0  0
   16.7903    5.7301    5.5173 H   0  0  0  0  0  0  0  0  0  0  0  0
   14.5158    5.2631    6.5313 H   0  0  0  0  0  0  0  0  0  0  0  0
   13.8572    6.6515    5.6683 H   0  0  0  0  0  0  0  0  0  0  0  0
   14.1966    8.9172    6.5039 H   0  0  0  0  0  0  0  0  0  0  0  0
   15.3168   10.0606    8.7193 H   0  0  0  0  0  0  0  0  0  0  0  0
   16.6863    8.0836    9.9781 H   0  0  0  0  0  0  0  0  0  0  0  0
   16.1913    4.7209    7.8092 H   0  0  0  0  0  0  0  0  0  0  0  0
   17.5972    5.9463   10.2750 H   0  0  0  0  0  0  0  0  0  0  0  0
   18.9654    4.5531   11.6083 H   0  0  0  0  0  0  0  0  0  0  0  0
   19.9426    2.3643   12.1553 H   0  0  0  0  0  0  0  0  0  0  0  0
   20.2454    0.0589   11.7365 H   0  0  0  0  0  0  0  0  0  0  0  0
   18.7171   -1.2305    9.3805 H   0  0  0  0  0  0  0  0  0  0  0  0
   21.3369   -1.8906   12.3608 H   0  0  0  0  0  0  0  0  0  0  0  0
   21.9643   -4.5311   12.3327 H   0  0  0  0  0  0  0  0  0  0  0  0
   20.5337   -5.6297   10.2818 H   0  0  0  0  0  0  0  0  0  0  0  0
   19.4225   -4.6092    8.2179 H   0  0  0  0  0  0  0  0  0  0  0  0
   18.7428   -2.9881    8.3337 H   0  0  0  0  0  0  0  0  0  0  0  0
   17.7510   -5.4710    9.8610 H   0  0  0  0  0  0  0  0  0  0  0  0
   17.0243   -4.8201    8.3906 H   0  0  0  0  0  0  0  0  0  0  0  0
   16.4406   -2.6962    9.6008 H   0  0  0  0  0  0  0  0  0  0  0  0
   17.2080   -3.3038   11.0649 H   0  0  0  0  0  0  0  0  0  0  0  0
   15.5629   -5.2111   11.1418 H   0  0  0  0  0  0  0  0  0  0  0  0
   14.7914   -4.6099    9.6752 H   0  0  0  0  0  0  0  0  0  0  0  0
   14.2179   -2.4574   10.8587 H   0  0  0  0  0  0  0  0  0  0  0  0
   14.9975   -3.0525   12.3215 H   0  0  0  0  0  0  0  0  0  0  0  0
   13.3516   -4.9637   12.4213 H   0  0  0  0  0  0  0  0  0  0  0  0
   12.5702   -4.3671   10.9585 H   0  0  0  0  0  0  0  0  0  0  0  0
   12.0078   -2.2093   12.1392 H   0  0  0  0  0  0  0  0  0  0  0  0
   12.7913   -2.8046   13.6005 H   0  0  0  0  0  0  0  0  0  0  0  0
   11.1425   -4.7123   13.7075 H   0  0  0  0  0  0  0  0  0  0  0  0
   10.3578   -4.1162   12.2466 H   0  0  0  0  0  0  0  0  0  0  0  0
    9.7976   -1.9581   13.4268 H   0  0  0  0  0  0  0  0  0  0  0  0
   10.5935   -2.5530   14.8824 H   0  0  0  0  0  0  0  0  0  0  0  0
    8.9381   -4.4527   15.0115 H   0  0  0  0  0  0  0  0  0  0  0  0
    8.1787   -3.8916   13.5235 H   0  0  0  0  0  0  0  0  0  0  0  0
    6.8043   -3.1689   15.3637 H   0  0  0  0  0  0  0  0  0  0  0  0
    7.5371   -1.7352   14.6500 H   0  0  0  0  0  0  0  0  0  0  0  0
    8.5193   -3.1219   17.2350 H   0  0  0  0  0  0  0  0  0  0  0  0
    7.5501   -1.6328   17.1644 H   0  0  0  0  0  0  0  0  0  0  0  0
    9.2141   -1.6362   16.5497 H   0  0  0  0  0  0  0  0  0  0  0  0
   17.8682    0.6091    8.7660 H   0  0  0  0  0  0  0  0  0  0  0  0
   16.9043    2.7694    8.2257 H   0  0  0  0  0  0  0  0  0  0  0  0
  1  2  1  0
  1 45  1  0
  1 46  1  0
  1 47  1  0
  2  3  1  0
  2 48  1  0
  2 49  1  0
  3  4  1  0
  3 50  1  0
  3 51  1  0
  4  5  1  0
  4 52  1  0
  4 53  1  0
  5  6  1  0
  5 54  1  0
  5 55  1  0
  6  7  1  0
  6 56  1  0
  6 57  1  0
  7  8  1  0
  7 58  1  0
  7 59  1  0
  8  9  1  0
  8 60  1  0
  8 61  1  0
  9 10  1  0
  9 62  1  0
  9 63  1  0
 10 11  1  0
 10 64  1  0
 10 65  1  0
 11 12  1  0
 11 66  1  0
 11 67  1  0
 12 13  1  0
 12 68  1  0
 12 69  1  0
 13 14  1  0
 13 17  1  0
 14 15  2  0
 14 70  1  0
 15 16  1  0
 15 71  1  0
 16 17  2  0
 16 72  1  0
 17 18  1  0
 18 19  2  0
 18 73  1  0
 19 20  1  0
 19 74  1  0
 20 21  2  0
 20 44  1  0
 21 22  1  0
 21 75  1  0
 22 23  2  0
 22 76  1  0
 23 24  1  0
 23 43  1  0
 24 25  2  0
 24 77  1  0
 25 26  1  0
 25 78  1  0
 26 27  2  0
 26 30  1  0
 27 28  1  0
 27 79  1  0
 28 29  2  0
 28 80  1  0
 29 30  1  0
 29 81  1  0
 30 31  1  0
 31 32  1  0
 31 82  1  0
 31 83  1  0
 32 33  1  0
 32 84  1  0
 32 85  1  0
 33 34  1  0
 33 86  1  0
 33 87  1  0
 34 35  1  0
 34 88  1  0
 34 89  1  0
 35 36  1  0
 35 90  1  0
 35 91  1  0
 36 37  1  0
 36 92  1  0
 36 93  1  0
 37 38  1  0
 37 94  1  0
 37 95  1  0
 38 39  1  0
 38 96  1  0
 38 97  1  0
 39 40  1  0
 39 98  1  0
 39 99  1  0
 40 41  1  0
 40100  1  0
 40101  1  0
 41 42  1  0
 41102  1  0
 41103  1  0
 42104  1  0
 42105  1  0
 42106  1  0
 43 44  2  0
 43107  1  0
 44108  1  0
M  END

