
     RDKit          3D

 59 62  0  0  0  0  0  0  0  0999 V2000
    2.1566    4.3327   -3.7978 C   0  0  0  0  0  0  0  0  0  0  0  0
    2.3938    4.6747   -2.3254 C   0  0  0  0  0  0  0  0  0  0  0  0
    3.1622    3.6736   -1.5916 N   0  0  0  0  0  0  0  0  0  0  0  0
    2.3517    2.4552   -1.3003 C   0  0  0  0  0  0  0  0  0  0  0  0
    3.0190    1.0956   -0.8604 C   0  0  0  0  0  0  0  0  0  0  0  0
    3.6168    1.0922    0.6052 C   0  0  1  0  0  0  0  0  0  0  0  0
    5.1939    0.9213    0.7876 C   0  0  0  0  0  0  0  0  0  0  0  0
    5.7701    2.3989    0.8304 C   0  0  0  0  0  0  0  0  0  0  0  0
    4.5328    3.0521    0.1937 C   0  0  2  0  0  0  0  0  0  0  0  0
    4.0024    4.2837   -0.5146 C   0  0  0  0  0  0  0  0  0  0  0  0
    3.4558    2.4752    1.0101 N   0  0  0  0  0  0  0  0  0  0  0  0
    3.2035    2.9727    2.2752 C   0  0  0  0  0  0  0  0  0  0  0  0
    3.6558    4.0435    2.6644 O   0  0  0  0  0  0  0  0  0  0  0  0
    2.3785    2.1921    3.0575 N   0  0  0  0  0  0  0  0  0  0  0  0
    1.9088    2.6777    4.3523 C   0  0  1  0  0  0  0  0  0  0  0  0
    0.6635    3.5743    4.2265 C   0  0  0  0  0  0  0  0  0  0  0  0
    1.6791    1.5104    5.2639 C   0  0  0  0  0  0  0  0  0  0  0  0
    0.7696    0.5843    4.7991 O   0  0  0  0  0  0  0  0  0  0  0  0
    0.6805   -0.3909    5.7515 C   0  0  0  0  0  0  0  0  0  0  0  0
   -0.1117   -1.5291    5.7136 C   0  0  0  0  0  0  0  0  0  0  0  0
   -0.0454   -2.3975    6.8101 C   0  0  0  0  0  0  0  0  0  0  0  0
    0.7992   -2.1168    7.9085 C   0  0  0  0  0  0  0  0  0  0  0  0
    0.9040   -2.9222    9.0029 O   0  0  0  0  0  0  0  0  0  0  0  0
    0.1392   -4.1010    9.0741 C   0  0  0  0  0  0  0  0  0  0  0  0
    1.5926   -0.9605    7.9258 C   0  0  0  0  0  0  0  0  0  0  0  0
    1.5313   -0.0877    6.8333 C   0  0  0  0  0  0  0  0  0  0  0  0
    2.1788    1.1657    6.4886 C   0  0  0  0  0  0  0  0  0  0  0  0
    3.1815    1.8970    7.3253 C   0  0  0  0  0  0  0  0  0  0  0  0
    1.6567    5.1715   -4.3089 H   0  0  0  0  0  0  0  0  0  0  0  0
    1.5161    3.4465   -3.9297 H   0  0  0  0  0  0  0  0  0  0  0  0
    3.1141    4.1351   -4.3050 H   0  0  0  0  0  0  0  0  0  0  0  0
    1.4186    4.8931   -1.8311 H   0  0  0  0  0  0  0  0  0  0  0  0
    2.9637    5.6172   -2.2830 H   0  0  0  0  0  0  0  0  0  0  0  0
    1.8486    2.2187   -2.2500 H   0  0  0  0  0  0  0  0  0  0  0  0
    1.5431    2.6780   -0.5729 H   0  0  0  0  0  0  0  0  0  0  0  0
    3.7723    0.7855   -1.6037 H   0  0  0  0  0  0  0  0  0  0  0  0
    2.2130    0.3441   -0.9217 H   0  0  0  0  0  0  0  0  0  0  0  0
    3.0771    0.3823    1.2481 H   0  0  0  0  0  0  0  0  0  0  0  0
    5.6382    0.3431   -0.0389 H   0  0  0  0  0  0  0  0  0  0  0  0
    5.3989    0.3757    1.7207 H   0  0  0  0  0  0  0  0  0  0  0  0
    6.6825    2.4991    0.2238 H   0  0  0  0  0  0  0  0  0  0  0  0
    5.9777    2.7451    1.8532 H   0  0  0  0  0  0  0  0  0  0  0  0
    4.5596    2.4492   -0.7150 H   0  0  0  0  0  0  0  0  0  0  0  0
    4.7956    4.8762   -1.0001 H   0  0  0  0  0  0  0  0  0  0  0  0
    3.4428    4.9496    0.1689 H   0  0  0  0  0  0  0  0  0  0  0  0
    1.8343    1.4548    2.6254 H   0  0  0  0  0  0  0  0  0  0  0  0
    2.7275    3.2826    4.7652 H   0  0  0  0  0  0  0  0  0  0  0  0
   -0.1839    3.0105    3.8059 H   0  0  0  0  0  0  0  0  0  0  0  0
    0.8903    4.4270    3.5698 H   0  0  0  0  0  0  0  0  0  0  0  0
    0.3608    3.9619    5.2119 H   0  0  0  0  0  0  0  0  0  0  0  0
   -0.7638   -1.7404    4.8640 H   0  0  0  0  0  0  0  0  0  0  0  0
   -0.6604   -3.2971    6.8029 H   0  0  0  0  0  0  0  0  0  0  0  0
    0.3861   -4.5776   10.0327 H   0  0  0  0  0  0  0  0  0  0  0  0
    0.3814   -4.8042    8.2558 H   0  0  0  0  0  0  0  0  0  0  0  0
   -0.9467   -3.8939    9.0505 H   0  0  0  0  0  0  0  0  0  0  0  0
    2.2334   -0.7741    8.7896 H   0  0  0  0  0  0  0  0  0  0  0  0
    4.0554    1.2606    7.5447 H   0  0  0  0  0  0  0  0  0  0  0  0
    2.7506    2.1960    8.2961 H   0  0  0  0  0  0  0  0  0  0  0  0
    3.5471    2.8062    6.8268 H   0  0  0  0  0  0  0  0  0  0  0  0
  1  2  1  0
  1 29  1  0
  1 30  1  0
  1 31  1  0
  2  3  1  0
  2 32  1  0
  2 33  1  0
  3  4  1  0
  3 10  1  0
  4  5  1  0
  4 34  1  0
  4 35  1  0
  5  6  1  0
  5 36  1  0
  5 37  1  0
  6  7  1  0
  6 11  1  0
  6 38  1  1
  7  8  1  0
  7 39  1  0
  7 40  1  0
  8  9  1  0
  8 41  1  0
  8 42  1  0
  9 10  1  0
  9 11  1  0
  9 43  1  6
 10 44  1  0
 10 45  1  0
 11 12  1  0
 12 13  2  0
 12 14  1  0
 14 15  1  0
 14 46  1  0
 15 16  1  0
 15 17  1  0
 15 47  1  1
 16 48  1  0
 16 49  1  0
 16 50  1  0
 17 18  1  0
 17 27  2  0
 18 19  1  0
 19 20  2  0
 19 26  1  0
 20 21  1  0
 20 51  1  0
 21 22  2  0
 21 52  1  0
 22 23  1  0
 22 25  1  0
 23 24  1  0
 24 53  1  0
 24 54  1  0
 24 55  1  0
 25 26  2  0
 25 56  1  0
 26 27  1  0
 27 28  1  0
 28 57  1  0
 28 58  1  0
 28 59  1  0
M  END

