
     RDKit          3D

 55 58  0  0  0  0  0  0  0  0999 V2000
    7.4455    0.6794   -8.4938 C   0  0  0  0  0  0  0  0  0  0  0  0
    7.6398    0.1882   -7.0799 C   0  0  0  0  0  0  0  0  0  0  0  0
    6.5571   -0.1913   -6.2752 C   0  0  0  0  0  0  0  0  0  0  0  0
    6.7236   -0.6401   -4.9620 C   0  0  0  0  0  0  0  0  0  0  0  0
    8.0146   -0.7212   -4.4166 C   0  0  0  0  0  0  0  0  0  0  0  0
    8.2832   -1.1655   -3.1050 N   0  0  0  0  0  0  0  0  0  0  0  0
    7.4063   -1.6258   -2.1628 C   0  0  0  0  0  0  0  0  0  0  0  0
    6.1956   -1.6825   -2.2819 O   0  0  0  0  0  0  0  0  0  0  0  0
    8.0775   -2.0762   -0.8506 C   0  0  0  0  0  0  0  0  0  0  0  0
    8.8512   -3.2823   -0.9939 O   0  0  0  0  0  0  0  0  0  0  0  0
   10.1295   -3.1795   -1.3825 C   0  0  0  0  0  0  0  0  0  0  0  0
   10.6481   -2.1278   -1.7025 O   0  0  0  0  0  0  0  0  0  0  0  0
   10.8437   -4.4908   -1.3857 C   0  0  0  0  0  0  0  0  0  0  0  0
   10.1913   -5.6887   -1.0331 C   0  0  0  0  0  0  0  0  0  0  0  0
   10.8730   -6.9119   -1.0492 C   0  0  0  0  0  0  0  0  0  0  0  0
   12.2124   -6.8970   -1.4209 C   0  0  0  0  0  0  0  0  0  0  0  0
   12.8624   -5.7110   -1.7698 C   0  0  0  0  0  0  0  0  0  0  0  0
   12.2009   -4.4922   -1.7625 C   0  0  0  0  0  0  0  0  0  0  0  0
   14.2799   -6.0342   -2.1259 C   0  0  0  0  0  0  0  0  0  0  0  0
   15.1511   -5.2876   -2.4927 O   0  0  0  0  0  0  0  0  0  0  0  0
   14.4054   -7.4339   -1.9461 N   0  0  0  0  0  0  0  0  0  0  0  0
   15.5978   -8.1720   -2.2361 C   0  0  0  0  0  0  0  0  0  0  0  0
   16.0802   -8.1509   -3.5506 C   0  0  0  0  0  0  0  0  0  0  0  0
   17.2260   -8.8700   -3.8749 C   0  0  0  0  0  0  0  0  0  0  0  0
   17.8703   -9.6194   -2.8888 C   0  0  0  0  0  0  0  0  0  0  0  0
   17.4013   -9.6474   -1.5689 C   0  0  0  0  0  0  0  0  0  0  0  0
   18.1236  -10.4756   -0.5331 C   0  0  0  0  0  0  0  0  0  0  0  0
   16.2538   -8.8945   -1.2199 C   0  0  0  0  0  0  0  0  0  0  0  0
   15.7531   -8.8811    0.2023 C   0  0  0  0  0  0  0  0  0  0  0  0
   13.1896   -8.0257   -1.5414 C   0  0  0  0  0  0  0  0  0  0  0  0
   13.0028   -9.2006   -1.3421 O   0  0  0  0  0  0  0  0  0  0  0  0
    9.1133   -0.3447   -5.2114 C   0  0  0  0  0  0  0  0  0  0  0  0
    8.9243    0.1009   -6.5164 C   0  0  0  0  0  0  0  0  0  0  0  0
    6.3933    0.6038   -8.8058 H   0  0  0  0  0  0  0  0  0  0  0  0
    8.0513    0.0992   -9.2097 H   0  0  0  0  0  0  0  0  0  0  0  0
    7.7494    1.7351   -8.5991 H   0  0  0  0  0  0  0  0  0  0  0  0
    5.5433   -0.1363   -6.6826 H   0  0  0  0  0  0  0  0  0  0  0  0
    5.8675   -0.9281   -4.3565 H   0  0  0  0  0  0  0  0  0  0  0  0
    9.2643   -1.1722   -2.8284 H   0  0  0  0  0  0  0  0  0  0  0  0
    7.2722   -2.3241   -0.1516 H   0  0  0  0  0  0  0  0  0  0  0  0
    8.7184   -1.2810   -0.4392 H   0  0  0  0  0  0  0  0  0  0  0  0
    9.1391   -5.6504   -0.7491 H   0  0  0  0  0  0  0  0  0  0  0  0
   10.3758   -7.8465   -0.7816 H   0  0  0  0  0  0  0  0  0  0  0  0
   12.6987   -3.5608   -2.0370 H   0  0  0  0  0  0  0  0  0  0  0  0
   15.5507   -7.5710   -4.3080 H   0  0  0  0  0  0  0  0  0  0  0  0
   17.6106   -8.8569   -4.8973 H   0  0  0  0  0  0  0  0  0  0  0  0
   18.7611  -10.1987   -3.1469 H   0  0  0  0  0  0  0  0  0  0  0  0
   18.9453  -11.0470   -0.9881 H   0  0  0  0  0  0  0  0  0  0  0  0
   17.4469  -11.1926   -0.0395 H   0  0  0  0  0  0  0  0  0  0  0  0
   18.5571   -9.8481    0.2645 H   0  0  0  0  0  0  0  0  0  0  0  0
   16.5840   -8.8965    0.9218 H   0  0  0  0  0  0  0  0  0  0  0  0
   15.1158   -9.7577    0.4070 H   0  0  0  0  0  0  0  0  0  0  0  0
   15.1503   -7.9870    0.4121 H   0  0  0  0  0  0  0  0  0  0  0  0
   10.1246   -0.4072   -4.7985 H   0  0  0  0  0  0  0  0  0  0  0  0
    9.7971    0.3861   -7.1113 H   0  0  0  0  0  0  0  0  0  0  0  0
  1  2  1  0
  1 34  1  0
  1 35  1  0
  1 36  1  0
  2  3  2  0
  2 33  1  0
  3  4  1  0
  3 37  1  0
  4  5  2  0
  4 38  1  0
  5  6  1  0
  5 32  1  0
  6  7  1  0
  6 39  1  0
  7  8  2  0
  7  9  1  0
  9 10  1  0
  9 40  1  0
  9 41  1  0
 10 11  1  0
 11 12  2  0
 11 13  1  0
 13 14  2  0
 13 18  1  0
 14 15  1  0
 14 42  1  0
 15 16  2  0
 15 43  1  0
 16 17  1  0
 16 30  1  0
 17 18  2  0
 17 19  1  0
 18 44  1  0
 19 20  2  0
 19 21  1  0
 21 22  1  0
 21 30  1  0
 22 23  2  0
 22 28  1  0
 23 24  1  0
 23 45  1  0
 24 25  2  0
 24 46  1  0
 25 26  1  0
 25 47  1  0
 26 27  1  0
 26 28  2  0
 27 48  1  0
 27 49  1  0
 27 50  1  0
 28 29  1  0
 29 51  1  0
 29 52  1  0
 29 53  1  0
 30 31  2  0
 32 33  2  0
 32 54  1  0
 33 55  1  0
M  END

