
     RDKit          3D

 51 53  0  0  0  0  0  0  0  0999 V2000
    9.4892   -5.3576    4.3677 C   0  0  0  0  0  0  0  0  0  0  0  0
    9.3056   -4.2932    3.3123 C   0  0  0  0  0  0  0  0  0  0  0  0
   10.0936   -3.1410    3.2827 C   0  0  0  0  0  0  0  0  0  0  0  0
    9.9139   -2.1591    2.2985 C   0  0  0  0  0  0  0  0  0  0  0  0
    8.9288   -2.3226    1.3195 C   0  0  0  0  0  0  0  0  0  0  0  0
    8.6763   -1.4251    0.3257 O   0  0  0  0  0  0  0  0  0  0  0  0
    9.4272   -0.2293    0.2477 C   0  0  0  0  0  0  0  0  0  0  0  0
    8.9192    0.5783   -0.9369 C   0  0  0  0  0  0  0  0  0  0  0  0
    9.6590    1.9091   -1.1271 C   0  0  0  0  0  0  0  0  0  0  0  0
   11.0740    1.7664   -1.4269 N   0  0  0  0  0  0  0  0  0  0  0  0
   11.5223    1.6706   -2.7103 C   0  0  0  0  0  0  0  0  0  0  0  0
   10.7642    1.7275   -3.6708 O   0  0  0  0  0  0  0  0  0  0  0  0
   13.0137    1.5162   -2.9308 C   0  0  0  0  0  0  0  0  0  0  0  0
   13.4290    1.5615   -4.2889 C   0  0  0  0  0  0  0  0  0  0  0  0
   14.7409    1.4187   -4.6694 C   0  0  0  0  0  0  0  0  0  0  0  0
   15.7619    1.2296   -3.6958 C   0  0  0  0  0  0  0  0  0  0  0  0
   17.1550    1.0818   -4.0166 C   0  0  0  0  0  0  0  0  0  0  0  0
   17.6632    1.0899   -5.4181 C   0  0  0  0  0  0  0  0  0  0  0  0
   18.8333    0.9690   -5.7070 O   0  0  0  0  0  0  0  0  0  0  0  0
   18.0976    0.9234   -3.0088 C   0  0  0  0  0  0  0  0  0  0  0  0
   17.7181    0.9112   -1.6552 C   0  0  0  0  0  0  0  0  0  0  0  0
   16.3849    1.0454   -1.3181 C   0  0  0  0  0  0  0  0  0  0  0  0
   15.3772    1.1910   -2.3093 C   0  0  0  0  0  0  0  0  0  0  0  0
   13.9888    1.3161   -1.9580 C   0  0  0  0  0  0  0  0  0  0  0  0
   13.6189    1.2447   -0.6461 O   0  0  0  0  0  0  0  0  0  0  0  0
    8.1126   -3.4794    1.3189 C   0  0  0  0  0  0  0  0  0  0  0  0
    7.0560   -3.6439    0.2585 C   0  0  0  0  0  0  0  0  0  0  0  0
    8.3219   -4.4336    2.3148 C   0  0  0  0  0  0  0  0  0  0  0  0
   10.2916   -5.0922    5.0722 H   0  0  0  0  0  0  0  0  0  0  0  0
    9.7474   -6.3322    3.9195 H   0  0  0  0  0  0  0  0  0  0  0  0
    8.5670   -5.5099    4.9539 H   0  0  0  0  0  0  0  0  0  0  0  0
   10.8684   -2.9947    4.0411 H   0  0  0  0  0  0  0  0  0  0  0  0
   10.5486   -1.2727    2.3096 H   0  0  0  0  0  0  0  0  0  0  0  0
   10.5027   -0.4605    0.1252 H   0  0  0  0  0  0  0  0  0  0  0  0
    9.3190    0.3510    1.1860 H   0  0  0  0  0  0  0  0  0  0  0  0
    7.8450    0.7827   -0.7925 H   0  0  0  0  0  0  0  0  0  0  0  0
    9.0106   -0.0228   -1.8556 H   0  0  0  0  0  0  0  0  0  0  0  0
    9.5611    2.5332   -0.2221 H   0  0  0  0  0  0  0  0  0  0  0  0
    9.1977    2.4549   -1.9618 H   0  0  0  0  0  0  0  0  0  0  0  0
   11.7489    1.6897   -0.6760 H   0  0  0  0  0  0  0  0  0  0  0  0
   12.6385    1.7056   -5.0271 H   0  0  0  0  0  0  0  0  0  0  0  0
   14.9880    1.4555   -5.7293 H   0  0  0  0  0  0  0  0  0  0  0  0
   16.9029    1.2137   -6.2237 H   0  0  0  0  0  0  0  0  0  0  0  0
   19.1438    0.8159   -3.3036 H   0  0  0  0  0  0  0  0  0  0  0  0
   18.4734    0.8040   -0.8736 H   0  0  0  0  0  0  0  0  0  0  0  0
   16.1303    1.0591   -0.2537 H   0  0  0  0  0  0  0  0  0  0  0  0
   14.3469    0.9148   -0.1049 H   0  0  0  0  0  0  0  0  0  0  0  0
    6.3351   -2.8100    0.2808 H   0  0  0  0  0  0  0  0  0  0  0  0
    6.5036   -4.5854    0.3912 H   0  0  0  0  0  0  0  0  0  0  0  0
    7.4991   -3.6386   -0.7511 H   0  0  0  0  0  0  0  0  0  0  0  0
    7.6898   -5.3278    2.3147 H   0  0  0  0  0  0  0  0  0  0  0  0
  1  2  1  0
  1 29  1  0
  1 30  1  0
  1 31  1  0
  2  3  2  0
  2 28  1  0
  3  4  1  0
  3 32  1  0
  4  5  2  0
  4 33  1  0
  5  6  1  0
  5 26  1  0
  6  7  1  0
  7  8  1  0
  7 34  1  0
  7 35  1  0
  8  9  1  0
  8 36  1  0
  8 37  1  0
  9 10  1  0
  9 38  1  0
  9 39  1  0
 10 11  1  0
 10 40  1  0
 11 12  2  0
 11 13  1  0
 13 14  2  0
 13 24  1  0
 14 15  1  0
 14 41  1  0
 15 16  2  0
 15 42  1  0
 16 17  1  0
 16 23  1  0
 17 18  1  0
 17 20  2  0
 18 19  2  0
 18 43  1  0
 20 21  1  0
 20 44  1  0
 21 22  2  0
 21 45  1  0
 22 23  1  0
 22 46  1  0
 23 24  2  0
 24 25  1  0
 25 47  1  0
 26 27  1  0
 26 28  2  0
 27 48  1  0
 27 49  1  0
 27 50  1  0
 28 51  1  0
M  END

