
     RDKit          3D

 38 39  0  0  0  0  0  0  0  0999 V2000
    1.9012   -8.3969    2.7458 C   0  0  0  0  0  0  0  0  0  0  0  0
    2.1004   -7.4453    1.5545 C   0  0  0  0  0  0  0  0  0  0  0  0
    2.4164   -6.0252    1.9679 C   0  0  0  0  0  0  0  0  0  0  0  0
    1.4977   -5.0646    2.1868 C   0  0  0  0  0  0  0  0  0  0  0  0
    0.0122   -5.1934    2.0375 C   0  0  0  0  0  0  0  0  0  0  0  0
   -0.4837   -3.9270    1.6317 O   0  0  0  0  0  0  0  0  0  0  0  0
   -1.8155   -3.7529    1.4446 C   0  0  0  0  0  0  0  0  0  0  0  0
   -2.7798   -4.7604    1.6310 C   0  0  0  0  0  0  0  0  0  0  0  0
   -4.1186   -4.4636    1.3955 C   0  0  0  0  0  0  0  0  0  0  0  0
   -4.5268   -3.1866    0.9822 C   0  0  0  0  0  0  0  0  0  0  0  0
   -3.5554   -2.1719    0.7977 C   0  0  0  0  0  0  0  0  0  0  0  0
   -2.2130   -2.4712    1.0299 C   0  0  0  0  0  0  0  0  0  0  0  0
   -3.9757   -0.7824    0.3680 C   0  0  0  0  0  0  0  0  0  0  0  0
   -5.2758   -0.7975   -0.4407 C   0  0  0  0  0  0  0  0  0  0  0  0
   -6.3788   -1.5317    0.3252 C   0  0  0  0  0  0  0  0  0  0  0  0
   -5.9800   -2.9413    0.7439 C   0  0  0  0  0  0  0  0  0  0  0  0
   -6.8126   -3.8168    0.8918 O   0  0  0  0  0  0  0  0  0  0  0  0
    3.8714   -5.7576    2.2631 C   0  0  0  0  0  0  0  0  0  0  0  0
    4.6426   -6.6364    2.5507 O   0  0  0  0  0  0  0  0  0  0  0  0
    4.2920   -4.4751    2.1941 O   0  0  0  0  0  0  0  0  0  0  0  0
    1.6910   -9.4188    2.3928 H   0  0  0  0  0  0  0  0  0  0  0  0
    1.0586   -8.0786    3.3811 H   0  0  0  0  0  0  0  0  0  0  0  0
    2.8082   -8.4279    3.3663 H   0  0  0  0  0  0  0  0  0  0  0  0
    1.1991   -7.4508    0.9199 H   0  0  0  0  0  0  0  0  0  0  0  0
    2.9296   -7.8214    0.9361 H   0  0  0  0  0  0  0  0  0  0  0  0
    1.8039   -4.0814    2.5626 H   0  0  0  0  0  0  0  0  0  0  0  0
   -0.4422   -5.4847    3.0060 H   0  0  0  0  0  0  0  0  0  0  0  0
   -0.2589   -5.9716    1.3025 H   0  0  0  0  0  0  0  0  0  0  0  0
   -2.4985   -5.7636    1.9511 H   0  0  0  0  0  0  0  0  0  0  0  0
   -4.8910   -5.2245    1.5278 H   0  0  0  0  0  0  0  0  0  0  0  0
   -1.4374   -1.7151    0.8876 H   0  0  0  0  0  0  0  0  0  0  0  0
   -3.1618   -0.3050   -0.2006 H   0  0  0  0  0  0  0  0  0  0  0  0
   -4.1202   -0.1607    1.2726 H   0  0  0  0  0  0  0  0  0  0  0  0
   -5.1001   -1.3002   -1.4082 H   0  0  0  0  0  0  0  0  0  0  0  0
   -5.5917    0.2319   -0.6736 H   0  0  0  0  0  0  0  0  0  0  0  0
   -7.3181   -1.6050   -0.2428 H   0  0  0  0  0  0  0  0  0  0  0  0
   -6.6178   -0.9803    1.2554 H   0  0  0  0  0  0  0  0  0  0  0  0
    3.6025   -3.9201    1.8027 H   0  0  0  0  0  0  0  0  0  0  0  0
  1  2  1  0
  1 21  1  0
  1 22  1  0
  1 23  1  0
  2  3  1  0
  2 24  1  0
  2 25  1  0
  3  4  2  0
  3 18  1  0
  4  5  1  0
  4 26  1  0
  5  6  1  0
  5 27  1  0
  5 28  1  0
  6  7  1  0
  7  8  2  0
  7 12  1  0
  8  9  1  0
  8 29  1  0
  9 10  2  0
  9 30  1  0
 10 11  1  0
 10 16  1  0
 11 12  2  0
 11 13  1  0
 12 31  1  0
 13 14  1  0
 13 32  1  0
 13 33  1  0
 14 15  1  0
 14 34  1  0
 14 35  1  0
 15 16  1  0
 15 36  1  0
 15 37  1  0
 16 17  2  0
 18 19  2  0
 18 20  1  0
 20 38  1  0
M  END

