
     RDKit          3D

105109  0  0  0  0  0  0  0  0999 V2000
    1.5813    2.8329   -2.1124 C   0  0  0  0  0  0  0  0  0  0  0  0
    2.7200    2.1701   -1.3779 C   0  0  0  0  0  0  0  0  0  0  0  0
    3.9829    2.0348   -1.9508 C   0  0  0  0  0  0  0  0  0  0  0  0
    5.0521    1.4137   -1.2795 C   0  0  0  0  0  0  0  0  0  0  0  0
    6.3739    1.3868   -2.0157 C   0  0  0  0  0  0  0  0  0  0  0  0
    4.8594    0.8903    0.0253 C   0  0  0  0  0  0  0  0  0  0  0  0
    6.2831    0.0910    1.0190 Si  0  0  0  0  0  4  0  0  0  0  0  0
    6.7748    1.1665    2.5285 C   0  0  0  0  0  0  0  0  0  0  0  0
    6.4634    0.8045    3.8735 C   0  0  0  0  0  0  0  0  0  0  0  0
    5.8160   -0.4253    4.2292 C   0  0  0  0  0  0  0  0  0  0  0  0
    5.5127   -0.7451    5.5299 C   0  0  0  0  0  0  0  0  0  0  0  0
    5.8399    0.1441    6.5936 C   0  0  0  0  0  0  0  0  0  0  0  0
    6.4546    1.3361    6.3120 C   0  0  0  0  0  0  0  0  0  0  0  0
    6.7766    1.7080    4.9658 C   0  0  0  0  0  0  0  0  0  0  0  0
    7.3787    2.9400    4.6921 C   0  0  0  0  0  0  0  0  0  0  0  0
    7.6978    3.3248    3.3857 C   0  0  0  0  0  0  0  0  0  0  0  0
    8.3183    4.5889    3.1222 C   0  0  0  0  0  0  0  0  0  0  0  0
    8.6558    4.9630    1.8473 C   0  0  0  0  0  0  0  0  0  0  0  0
    8.3958    4.0769    0.7630 C   0  0  0  0  0  0  0  0  0  0  0  0
    7.7967    2.8607    0.9816 C   0  0  0  0  0  0  0  0  0  0  0  0
    7.4044    2.4249    2.2893 C   0  0  0  0  0  0  0  0  0  0  0  0
    7.0005   -1.9423    0.6885 Si  0  0  0  0  0  4  0  0  0  0  0  0
    8.5782   -2.8326    1.4016 C   0  0  1  0  0  0  0  0  0  0  0  0
   10.2082   -1.7708    1.3835 Si  0  0  1  0  0  4  0  0  0  0  0  0
   10.1256   -0.1596    2.3679 C   0  0  0  0  0  0  0  0  0  0  0  0
   11.6746   -2.8050    2.0233 C   0  0  0  0  0  0  0  0  0  0  0  0
   10.7515   -1.2385   -0.3527 C   0  0  0  0  0  0  0  0  0  0  0  0
    8.3848   -3.6469    3.1709 Si  0  0  1  0  0  4  0  0  0  0  0  0
    9.3859   -5.2636    3.2537 C   0  0  0  0  0  0  0  0  0  0  0  0
    8.9723   -2.5407    4.5947 C   0  0  0  0  0  0  0  0  0  0  0  0
    6.6291   -4.1638    3.6581 C   0  0  0  0  0  0  0  0  0  0  0  0
    8.7011   -3.9740    0.3206 C   0  0  0  0  0  0  0  0  0  0  0  0
    7.3135   -4.4670   -0.1264 C   0  0  0  0  0  0  0  0  0  0  0  0
    6.4183   -3.2650   -0.6160 C   0  0  1  0  0  0  0  0  0  0  0  0
    4.5476   -3.7748   -0.4522 Si  0  0  1  0  0  4  0  0  0  0  0  0
    3.2985   -2.4010   -0.8137 C   0  0  0  0  0  0  0  0  0  0  0  0
    4.1635   -5.2362   -1.6090 C   0  0  0  0  0  0  0  0  0  0  0  0
    4.0949   -4.4029    1.2783 C   0  0  0  0  0  0  0  0  0  0  0  0
    6.8241   -2.8953   -2.4909 Si  0  0  1  0  0  4  0  0  0  0  0  0
    8.3351   -1.8018   -2.8107 C   0  0  0  0  0  0  0  0  0  0  0  0
    7.2189   -4.5173   -3.4061 C   0  0  0  0  0  0  0  0  0  0  0  0
    5.3945   -2.0726   -3.4303 C   0  0  0  0  0  0  0  0  0  0  0  0
    3.5690    1.0345    0.6215 C   0  0  0  0  0  0  0  0  0  0  0  0
    3.2658    0.5160    2.0072 C   0  0  0  0  0  0  0  0  0  0  0  0
    2.5388    1.6623   -0.0832 C   0  0  0  0  0  0  0  0  0  0  0  0
    1.8995    3.2185   -3.0923 H   0  0  0  0  0  0  0  0  0  0  0  0
    1.1695    3.6761   -1.5332 H   0  0  0  0  0  0  0  0  0  0  0  0
    0.7513    2.1260   -2.2815 H   0  0  0  0  0  0  0  0  0  0  0  0
    4.1558    2.4293   -2.9573 H   0  0  0  0  0  0  0  0  0  0  0  0
    6.2629    0.9370   -3.0149 H   0  0  0  0  0  0  0  0  0  0  0  0
    7.1409    0.8169   -1.4754 H   0  0  0  0  0  0  0  0  0  0  0  0
    6.7505    2.4122   -2.1694 H   0  0  0  0  0  0  0  0  0  0  0  0
    5.5656   -1.1193    3.4264 H   0  0  0  0  0  0  0  0  0  0  0  0
    5.0158   -1.6929    5.7521 H   0  0  0  0  0  0  0  0  0  0  0  0
    5.5961   -0.1253    7.6243 H   0  0  0  0  0  0  0  0  0  0  0  0
    6.7093    2.0342    7.1141 H   0  0  0  0  0  0  0  0  0  0  0  0
    7.6046    3.6191    5.5194 H   0  0  0  0  0  0  0  0  0  0  0  0
    8.5215    5.2505    3.9689 H   0  0  0  0  0  0  0  0  0  0  0  0
    9.1306    5.9292    1.6593 H   0  0  0  0  0  0  0  0  0  0  0  0
    8.6829    4.3658   -0.2513 H   0  0  0  0  0  0  0  0  0  0  0  0
    7.6274    2.1923    0.1384 H   0  0  0  0  0  0  0  0  0  0  0  0
    9.7319   -0.2563    3.3871 H   0  0  0  0  0  0  0  0  0  0  0  0
    9.5115    0.5846    1.8408 H   0  0  0  0  0  0  0  0  0  0  0  0
   11.1479    0.2501    2.4393 H   0  0  0  0  0  0  0  0  0  0  0  0
   11.6077   -3.0761    3.0872 H   0  0  0  0  0  0  0  0  0  0  0  0
   12.5962   -2.2124    1.8935 H   0  0  0  0  0  0  0  0  0  0  0  0
   11.8014   -3.7345    1.4444 H   0  0  0  0  0  0  0  0  0  0  0  0
   10.0195   -0.5815   -0.8424 H   0  0  0  0  0  0  0  0  0  0  0  0
   10.9722   -2.0791   -1.0281 H   0  0  0  0  0  0  0  0  0  0  0  0
   11.6860   -0.6635   -0.2341 H   0  0  0  0  0  0  0  0  0  0  0  0
   10.4374   -5.1525    2.9528 H   0  0  0  0  0  0  0  0  0  0  0  0
    8.9370   -6.0571    2.6343 H   0  0  0  0  0  0  0  0  0  0  0  0
    9.3749   -5.6233    4.2968 H   0  0  0  0  0  0  0  0  0  0  0  0
   10.0382   -2.2762    4.5489 H   0  0  0  0  0  0  0  0  0  0  0  0
    8.8109   -3.1000    5.5320 H   0  0  0  0  0  0  0  0  0  0  0  0
    8.3873   -1.6117    4.6674 H   0  0  0  0  0  0  0  0  0  0  0  0
    6.2495   -4.9959    3.0494 H   0  0  0  0  0  0  0  0  0  0  0  0
    5.9026   -3.3414    3.6013 H   0  0  0  0  0  0  0  0  0  0  0  0
    6.6601   -4.5103    4.7054 H   0  0  0  0  0  0  0  0  0  0  0  0
    9.2987   -4.8211    0.6917 H   0  0  0  0  0  0  0  0  0  0  0  0
    9.2353   -3.5986   -0.5682 H   0  0  0  0  0  0  0  0  0  0  0  0
    6.8363   -4.9753    0.7287 H   0  0  0  0  0  0  0  0  0  0  0  0
    7.4197   -5.2359   -0.9075 H   0  0  0  0  0  0  0  0  0  0  0  0
    3.1675   -2.1964   -1.8843 H   0  0  0  0  0  0  0  0  0  0  0  0
    3.5636   -1.4534   -0.3245 H   0  0  0  0  0  0  0  0  0  0  0  0
    2.3197   -2.7186   -0.4160 H   0  0  0  0  0  0  0  0  0  0  0  0
    4.2110   -4.9713   -2.6761 H   0  0  0  0  0  0  0  0  0  0  0  0
    3.1373   -5.5855   -1.4037 H   0  0  0  0  0  0  0  0  0  0  0  0
    4.8407   -6.0893   -1.4402 H   0  0  0  0  0  0  0  0  0  0  0  0
    4.2196   -3.6346    2.0551 H   0  0  0  0  0  0  0  0  0  0  0  0
    4.6539   -5.2988    1.5859 H   0  0  0  0  0  0  0  0  0  0  0  0
    3.0270   -4.6793    1.2523 H   0  0  0  0  0  0  0  0  0  0  0  0
    9.2752   -2.2989   -2.5348 H   0  0  0  0  0  0  0  0  0  0  0  0
    8.2940   -0.8388   -2.2841 H   0  0  0  0  0  0  0  0  0  0  0  0
    8.3801   -1.5918   -3.8931 H   0  0  0  0  0  0  0  0  0  0  0  0
    8.1839   -4.9461   -3.0904 H   0  0  0  0  0  0  0  0  0  0  0  0
    7.3034   -4.2936   -4.4834 H   0  0  0  0  0  0  0  0  0  0  0  0
    6.4487   -5.2933   -3.2879 H   0  0  0  0  0  0  0  0  0  0  0  0
    5.0105   -1.1696   -2.9335 H   0  0  0  0  0  0  0  0  0  0  0  0
    4.5462   -2.7531   -3.5976 H   0  0  0  0  0  0  0  0  0  0  0  0
    5.7742   -1.7747   -4.4223 H   0  0  0  0  0  0  0  0  0  0  0  0
    3.8477    1.0457    2.7770 H   0  0  0  0  0  0  0  0  0  0  0  0
    3.5128   -0.5535    2.1023 H   0  0  0  0  0  0  0  0  0  0  0  0
    2.2005    0.6391    2.2511 H   0  0  0  0  0  0  0  0  0  0  0  0
    1.5571    1.7550    0.3918 H   0  0  0  0  0  0  0  0  0  0  0  0
  1  2  1  0
  1 46  1  0
  1 47  1  0
  1 48  1  0
  2  3  2  0
  2 45  1  0
  3  4  1  0
  3 49  1  0
  4  5  1  0
  4  6  2  0
  5 50  1  0
  5 51  1  0
  5 52  1  0
  6  7  1  0
  6 43  1  0
  7  8  1  0
  7 22  2  0
  8  9  1  0
  8 21  2  0
  9 10  2  0
  9 14  1  0
 10 11  1  0
 10 53  1  0
 11 12  2  0
 11 54  1  0
 12 13  1  0
 12 55  1  0
 13 14  2  0
 13 56  1  0
 14 15  1  0
 15 16  2  0
 15 57  1  0
 16 17  1  0
 16 21  1  0
 17 18  2  0
 17 58  1  0
 18 19  1  0
 18 59  1  0
 19 20  2  0
 19 60  1  0
 20 21  1  0
 20 61  1  0
 23 22  1  6
 34 22  1  1
 23 24  1  0
 23 28  1  0
 23 32  1  0
 24 25  1  1
 24 26  1  0
 24 27  1  0
 25 62  1  0
 25 63  1  0
 25 64  1  0
 26 65  1  0
 26 66  1  0
 26 67  1  0
 27 68  1  0
 27 69  1  0
 27 70  1  0
 28 29  1  6
 28 30  1  0
 28 31  1  0
 29 71  1  0
 29 72  1  0
 29 73  1  0
 30 74  1  0
 30 75  1  0
 30 76  1  0
 31 77  1  0
 31 78  1  0
 31 79  1  0
 32 33  1  0
 32 80  1  0
 32 81  1  0
 33 34  1  0
 33 82  1  0
 33 83  1  0
 34 35  1  0
 34 39  1  0
 35 36  1  6
 35 37  1  0
 35 38  1  0
 36 84  1  0
 36 85  1  0
 36 86  1  0
 37 87  1  0
 37 88  1  0
 37 89  1  0
 38 90  1  0
 38 91  1  0
 38 92  1  0
 39 40  1  1
 39 41  1  0
 39 42  1  0
 40 93  1  0
 40 94  1  0
 40 95  1  0
 41 96  1  0
 41 97  1  0
 41 98  1  0
 42 99  1  0
 42100  1  0
 42101  1  0
 43 44  1  0
 43 45  2  0
 44102  1  0
 44103  1  0
 44104  1  0
 45105  1  0
M  END

