
     RDKit          3D

 34 35  0  0  0  0  0  0  0  0999 V2000
    3.1871    2.1369   -4.0324 C   0  0  0  0  0  0  0  0  0  0  0  0
    2.9455    1.5873   -2.7051 N   0  0  0  0  0  0  0  0  0  0  0  0
    3.3567   -0.0457   -2.4472 S   0  0  1  0  0  0  0  0  0  0  0  0
    2.5636   -0.4095   -1.2663 O   0  0  0  0  0  0  0  0  0  0  0  0
    3.2177   -0.7993   -3.7044 O   0  0  0  0  0  0  0  0  0  0  0  0
    5.0683    0.0154   -2.0406 C   0  0  0  0  0  0  0  0  0  0  0  0
    5.4812    0.5885   -0.8109 C   0  0  0  0  0  0  0  0  0  0  0  0
    6.8134    0.6071   -0.4710 C   0  0  0  0  0  0  0  0  0  0  0  0
    7.8148    0.0422   -1.3414 C   0  0  0  0  0  0  0  0  0  0  0  0
    9.1568    0.0888   -0.9087 C   0  0  0  0  0  0  0  0  0  0  0  0
    9.6940    0.5253    0.1079 O   0  0  0  0  0  0  0  0  0  0  0  0
   10.1783   -0.5901   -1.8523 N   0  0  0  0  0  0  0  0  0  0  0  0
   11.0178    0.0239   -2.6691 C   0  0  0  0  0  0  0  0  0  0  0  0
   10.8718    1.4266   -2.9519 C   0  0  0  0  0  0  0  0  0  0  0  0
   11.7617    2.0126   -3.8176 C   0  0  0  0  0  0  0  0  0  0  0  0
   11.6579    3.3046   -4.0975 F   0  0  0  0  0  0  0  0  0  0  0  0
   12.8072    1.2963   -4.4375 C   0  0  0  0  0  0  0  0  0  0  0  0
   12.9513   -0.0800   -4.1561 C   0  0  0  0  0  0  0  0  0  0  0  0
   14.2390   -0.9549   -4.9159 Cl  0  0  0  0  0  0  0  0  0  0  0  0
   12.0895   -0.7183   -3.2902 C   0  0  0  0  0  0  0  0  0  0  0  0
    7.3619   -0.5459   -2.5736 C   0  0  0  0  0  0  0  0  0  0  0  0
    6.0223   -0.5554   -2.9092 C   0  0  0  0  0  0  0  0  0  0  0  0
    2.8730    3.1918   -4.0366 H   0  0  0  0  0  0  0  0  0  0  0  0
    2.6624    1.5975   -4.8408 H   0  0  0  0  0  0  0  0  0  0  0  0
    4.2665    2.1133   -4.2493 H   0  0  0  0  0  0  0  0  0  0  0  0
    1.9865    1.6916   -2.3717 H   0  0  0  0  0  0  0  0  0  0  0  0
    4.7322    1.0066   -0.1358 H   0  0  0  0  0  0  0  0  0  0  0  0
    7.1393    1.0417    0.4751 H   0  0  0  0  0  0  0  0  0  0  0  0
   10.3787   -1.5697   -1.6494 H   0  0  0  0  0  0  0  0  0  0  0  0
   10.0829    2.0089   -2.4821 H   0  0  0  0  0  0  0  0  0  0  0  0
   13.4876    1.8098   -5.1165 H   0  0  0  0  0  0  0  0  0  0  0  0
   12.2084   -1.7798   -3.0722 H   0  0  0  0  0  0  0  0  0  0  0  0
    8.0726   -1.0046   -3.2626 H   0  0  0  0  0  0  0  0  0  0  0  0
    5.6796   -1.0124   -3.8387 H   0  0  0  0  0  0  0  0  0  0  0  0
  1  2  1  0
  1 23  1  0
  1 24  1  0
  1 25  1  0
  3  2  1  6
  2 26  1  0
  3  4  2  0
  3  5  2  0
  3  6  1  0
  6  7  2  0
  6 22  1  0
  7  8  1  0
  7 27  1  0
  8  9  2  0
  8 28  1  0
  9 10  1  0
  9 21  1  0
 10 11  2  0
 10 12  1  0
 12 13  1  0
 12 29  1  0
 13 14  2  0
 13 20  1  0
 14 15  1  0
 14 30  1  0
 15 16  1  0
 15 17  2  0
 17 18  1  0
 17 31  1  0
 18 19  1  0
 18 20  2  0
 20 32  1  0
 21 22  2  0
 21 33  1  0
 22 34  1  0
M  END

