
     RDKit          3D

 62 64  0  0  0  0  0  0  0  0999 V2000
    2.0896    2.1883    1.4672 C   0  0  0  0  0  0  0  0  0  0  0  0
    3.2673    1.4940    0.7854 C   0  0  0  0  0  0  0  0  0  0  0  0
    4.5683    1.8398    1.3506 N   0  0  0  0  0  0  0  0  0  0  0  0
    4.7979    1.4197    2.7304 C   0  0  0  0  0  0  0  0  0  0  0  0
    4.8967   -0.0929    2.9838 C   0  0  0  0  0  0  0  0  0  0  0  0
    5.6827    1.6038    0.4443 C   0  0  0  0  0  0  0  0  0  0  0  0
    5.9181    2.7990   -0.4774 C   0  0  0  0  0  0  0  0  0  0  0  0
    6.9888    2.4682   -1.3413 O   0  0  0  0  0  0  0  0  0  0  0  0
    7.4044    3.3608   -2.2793 C   0  0  0  0  0  0  0  0  0  0  0  0
    6.8578    4.6423   -2.4534 C   0  0  0  0  0  0  0  0  0  0  0  0
    7.3664    5.4661   -3.4601 C   0  0  0  0  0  0  0  0  0  0  0  0
    8.4063    5.0583   -4.3034 C   0  0  0  0  0  0  0  0  0  0  0  0
    8.9604    3.7741   -4.1176 C   0  0  0  0  0  0  0  0  0  0  0  0
    8.4517    2.9448   -3.1124 C   0  0  0  0  0  0  0  0  0  0  0  0
   10.1272    3.3076   -4.9655 C   0  0  0  0  0  0  0  0  0  0  0  0
   10.2946    4.1548   -6.2263 C   0  0  0  0  0  0  0  0  0  0  0  0
   10.2381    5.5581   -5.8488 N   0  0  0  0  0  0  0  0  0  0  0  0
    8.9064    5.9853   -5.4010 C   0  0  1  0  0  0  0  0  0  0  0  0
    7.9089    6.1475   -6.5620 C   0  0  0  0  0  0  0  0  0  0  0  0
    6.8520    5.2686   -6.8122 C   0  0  0  0  0  0  0  0  0  0  0  0
    5.9702    5.4125   -7.8960 C   0  0  0  0  0  0  0  0  0  0  0  0
    4.8499    4.4221   -8.1044 C   0  0  0  0  0  0  0  0  0  0  0  0
    6.1525    6.4997   -8.7725 C   0  0  0  0  0  0  0  0  0  0  0  0
    5.2284    6.7095   -9.9469 C   0  0  0  0  0  0  0  0  0  0  0  0
    7.2103    7.3943   -8.5414 C   0  0  0  0  0  0  0  0  0  0  0  0
    8.0829    7.2225   -7.4614 C   0  0  0  0  0  0  0  0  0  0  0  0
    9.1433    8.0493   -7.2074 O   0  0  0  0  0  0  0  0  0  0  0  0
    9.3492    9.1871   -8.0120 C   0  0  0  0  0  0  0  0  0  0  0  0
    1.1553    1.9749    0.9240 H   0  0  0  0  0  0  0  0  0  0  0  0
    2.2421    3.2792    1.4850 H   0  0  0  0  0  0  0  0  0  0  0  0
    1.9458    1.8497    2.5052 H   0  0  0  0  0  0  0  0  0  0  0  0
    3.2783    1.7968   -0.2740 H   0  0  0  0  0  0  0  0  0  0  0  0
    3.0925    0.3936    0.7748 H   0  0  0  0  0  0  0  0  0  0  0  0
    3.9964    1.8405    3.3595 H   0  0  0  0  0  0  0  0  0  0  0  0
    5.7266    1.9057    3.0750 H   0  0  0  0  0  0  0  0  0  0  0  0
    3.9650   -0.6184    2.7199 H   0  0  0  0  0  0  0  0  0  0  0  0
    5.0952   -0.2900    4.0500 H   0  0  0  0  0  0  0  0  0  0  0  0
    5.7151   -0.5496    2.4035 H   0  0  0  0  0  0  0  0  0  0  0  0
    5.5535    0.6951   -0.1804 H   0  0  0  0  0  0  0  0  0  0  0  0
    6.6044    1.4442    1.0255 H   0  0  0  0  0  0  0  0  0  0  0  0
    6.1553    3.6921    0.1292 H   0  0  0  0  0  0  0  0  0  0  0  0
    5.0074    3.0289   -1.0621 H   0  0  0  0  0  0  0  0  0  0  0  0
    6.0497    5.0046   -1.8179 H   0  0  0  0  0  0  0  0  0  0  0  0
    6.9321    6.4614   -3.5949 H   0  0  0  0  0  0  0  0  0  0  0  0
    8.8668    1.9462   -2.9536 H   0  0  0  0  0  0  0  0  0  0  0  0
   10.0076    2.2418   -5.2230 H   0  0  0  0  0  0  0  0  0  0  0  0
   11.0486    3.3882   -4.3615 H   0  0  0  0  0  0  0  0  0  0  0  0
    9.5206    3.8677   -6.9731 H   0  0  0  0  0  0  0  0  0  0  0  0
   11.2733    3.9507   -6.6893 H   0  0  0  0  0  0  0  0  0  0  0  0
   10.5475    6.1671   -6.6019 H   0  0  0  0  0  0  0  0  0  0  0  0
    9.0365    6.9881   -4.9626 H   0  0  0  0  0  0  0  0  0  0  0  0
    6.6970    4.4361   -6.1219 H   0  0  0  0  0  0  0  0  0  0  0  0
    4.8552    3.6473   -7.3239 H   0  0  0  0  0  0  0  0  0  0  0  0
    4.9262    3.9125   -9.0808 H   0  0  0  0  0  0  0  0  0  0  0  0
    3.8597    4.9097   -8.0839 H   0  0  0  0  0  0  0  0  0  0  0  0
    5.2346    5.8420  -10.6289 H   0  0  0  0  0  0  0  0  0  0  0  0
    5.5107    7.5969  -10.5322 H   0  0  0  0  0  0  0  0  0  0  0  0
    4.1820    6.8414   -9.6217 H   0  0  0  0  0  0  0  0  0  0  0  0
    7.3435    8.2322   -9.2266 H   0  0  0  0  0  0  0  0  0  0  0  0
    9.5492    8.9182   -9.0652 H   0  0  0  0  0  0  0  0  0  0  0  0
   10.2285    9.7046   -7.6049 H   0  0  0  0  0  0  0  0  0  0  0  0
    8.4841    9.8738   -7.9818 H   0  0  0  0  0  0  0  0  0  0  0  0
  1  2  1  0
  1 29  1  0
  1 30  1  0
  1 31  1  0
  2  3  1  0
  2 32  1  0
  2 33  1  0
  3  4  1  0
  3  6  1  0
  4  5  1  0
  4 34  1  0
  4 35  1  0
  5 36  1  0
  5 37  1  0
  5 38  1  0
  6  7  1  0
  6 39  1  0
  6 40  1  0
  7  8  1  0
  7 41  1  0
  7 42  1  0
  8  9  1  0
  9 10  2  0
  9 14  1  0
 10 11  1  0
 10 43  1  0
 11 12  2  0
 11 44  1  0
 12 13  1  0
 12 18  1  0
 13 14  2  0
 13 15  1  0
 14 45  1  0
 15 16  1  0
 15 46  1  0
 15 47  1  0
 16 17  1  0
 16 48  1  0
 16 49  1  0
 17 18  1  0
 17 50  1  0
 18 19  1  0
 18 51  1  1
 19 20  2  0
 19 26  1  0
 20 21  1  0
 20 52  1  0
 21 22  1  0
 21 23  2  0
 22 53  1  0
 22 54  1  0
 22 55  1  0
 23 24  1  0
 23 25  1  0
 24 56  1  0
 24 57  1  0
 24 58  1  0
 25 26  2  0
 25 59  1  0
 26 27  1  0
 27 28  1  0
 28 60  1  0
 28 61  1  0
 28 62  1  0
M  END

