
     RDKit          3D

 57 59  0  0  0  0  0  0  0  0999 V2000
    5.9499   -3.6846    1.1129 C   0  0  0  0  0  0  0  0  0  0  0  0
    5.5057   -3.5020   -0.2532 N   0  0  0  0  0  0  0  0  0  0  0  0
    4.5821   -2.4448   -0.5386 C   0  0  0  0  0  0  0  0  0  0  0  0
    5.4139   -1.1139   -0.8762 C   0  0  0  0  0  0  0  0  0  0  0  0
    6.3294   -1.3740   -1.9288 N   0  0  0  0  0  0  0  0  0  0  0  0
    5.8323   -1.2601   -3.3110 C   0  0  0  0  0  0  0  0  0  0  0  0
    6.2880   -0.2340   -4.0952 C   0  0  0  0  0  0  0  0  0  0  0  0
    5.8033   -0.1445   -5.4621 C   0  0  0  0  0  0  0  0  0  0  0  0
    6.2437    0.9557   -6.3712 C   0  0  0  0  0  0  0  0  0  0  0  0
    5.6851    2.2901   -6.0519 N   0  0  0  0  0  0  0  0  0  0  0  0
    6.3971    3.2014   -5.3067 C   0  0  0  0  0  0  0  0  0  0  0  0
    7.5940    3.0989   -5.0637 O   0  0  0  0  0  0  0  0  0  0  0  0
    5.6421    4.2772   -4.8554 N   0  0  0  0  0  0  0  0  0  0  0  0
    6.2472    5.3924   -4.1413 C   0  0  1  0  0  0  0  0  0  0  0  0
    6.0359    6.7322   -4.8741 C   0  0  0  0  0  0  0  0  0  0  0  0
    4.5770    7.2156   -4.8117 C   0  0  0  0  0  0  0  0  0  0  0  0
    4.0180    7.2835   -3.3751 C   0  0  2  0  0  0  0  0  0  0  0  0
    4.5510    8.5038   -2.6057 C   0  0  0  0  0  0  0  0  0  0  0  0
    4.0175    8.6184   -1.3011 O   0  0  0  0  0  0  0  0  0  0  0  0
    4.2675    5.9581   -2.6260 C   0  0  0  0  0  0  0  0  0  0  0  0
    5.7315    5.5017   -2.6920 C   0  0  0  0  0  0  0  0  0  0  0  0
    4.8833   -1.1629   -5.8326 C   0  0  0  0  0  0  0  0  0  0  0  0
    4.4959   -2.1499   -4.9497 C   0  0  0  0  0  0  0  0  0  0  0  0
    4.9569   -2.2364   -3.6405 N   0  0  0  0  0  0  0  0  0  0  0  0
    7.2389   -2.4262   -1.6443 C   0  0  0  0  0  0  0  0  0  0  0  0
    6.4277   -3.7707   -1.3165 C   0  0  0  0  0  0  0  0  0  0  0  0
    5.0871   -3.6687    1.7925 H   0  0  0  0  0  0  0  0  0  0  0  0
    6.6510   -2.8854    1.4270 H   0  0  0  0  0  0  0  0  0  0  0  0
    6.4645   -4.6496    1.2135 H   0  0  0  0  0  0  0  0  0  0  0  0
    3.9183   -2.2671    0.3182 H   0  0  0  0  0  0  0  0  0  0  0  0
    4.0256   -2.6707   -1.4555 H   0  0  0  0  0  0  0  0  0  0  0  0
    5.9424   -0.8121    0.0463 H   0  0  0  0  0  0  0  0  0  0  0  0
    4.7033   -0.3310   -1.1627 H   0  0  0  0  0  0  0  0  0  0  0  0
    7.0065    0.4915   -3.7096 H   0  0  0  0  0  0  0  0  0  0  0  0
    5.9676    0.7161   -7.4124 H   0  0  0  0  0  0  0  0  0  0  0  0
    7.3351    1.1038   -6.3441 H   0  0  0  0  0  0  0  0  0  0  0  0
    4.6769    2.2994   -5.9308 H   0  0  0  0  0  0  0  0  0  0  0  0
    4.7046    4.3864   -5.2206 H   0  0  0  0  0  0  0  0  0  0  0  0
    7.3201    5.1548   -4.1221 H   0  0  0  0  0  0  0  0  0  0  0  0
    6.3600    6.6337   -5.9229 H   0  0  0  0  0  0  0  0  0  0  0  0
    6.6970    7.4869   -4.4141 H   0  0  0  0  0  0  0  0  0  0  0  0
    3.9411    6.5314   -5.4029 H   0  0  0  0  0  0  0  0  0  0  0  0
    4.4830    8.1990   -5.3048 H   0  0  0  0  0  0  0  0  0  0  0  0
    2.9220    7.4300   -3.4506 H   0  0  0  0  0  0  0  0  0  0  0  0
    4.3553    9.4181   -3.2038 H   0  0  0  0  0  0  0  0  0  0  0  0
    5.6432    8.4436   -2.4757 H   0  0  0  0  0  0  0  0  0  0  0  0
    3.0567    8.6925   -1.3782 H   0  0  0  0  0  0  0  0  0  0  0  0
    3.6278    5.1730   -3.0679 H   0  0  0  0  0  0  0  0  0  0  0  0
    3.9476    6.0708   -1.5782 H   0  0  0  0  0  0  0  0  0  0  0  0
    5.8499    4.5268   -2.1928 H   0  0  0  0  0  0  0  0  0  0  0  0
    6.3713    6.2144   -2.1426 H   0  0  0  0  0  0  0  0  0  0  0  0
    4.4724   -1.1777   -6.8488 H   0  0  0  0  0  0  0  0  0  0  0  0
    3.7918   -2.9278   -5.2596 H   0  0  0  0  0  0  0  0  0  0  0  0
    7.8563   -2.1896   -0.7588 H   0  0  0  0  0  0  0  0  0  0  0  0
    7.8904   -2.6199   -2.5034 H   0  0  0  0  0  0  0  0  0  0  0  0
    7.1241   -4.5715   -1.0331 H   0  0  0  0  0  0  0  0  0  0  0  0
    5.8796   -4.0066   -2.2356 H   0  0  0  0  0  0  0  0  0  0  0  0
  1  2  1  0
  1 27  1  0
  1 28  1  0
  1 29  1  0
  2  3  1  0
  2 26  1  0
  3  4  1  0
  3 30  1  0
  3 31  1  0
  4  5  1  0
  4 32  1  0
  4 33  1  0
  5  6  1  0
  5 25  1  0
  6  7  2  0
  6 24  1  0
  7  8  1  0
  7 34  1  0
  8  9  1  0
  8 22  2  0
  9 10  1  0
  9 35  1  0
  9 36  1  0
 10 11  1  0
 10 37  1  0
 11 12  2  0
 11 13  1  0
 13 14  1  0
 13 38  1  0
 14 15  1  0
 14 21  1  0
 14 39  1  1
 15 16  1  0
 15 40  1  0
 15 41  1  0
 16 17  1  0
 16 42  1  0
 16 43  1  0
 17 18  1  0
 17 20  1  0
 17 44  1  6
 18 19  1  0
 18 45  1  0
 18 46  1  0
 19 47  1  0
 20 21  1  0
 20 48  1  0
 20 49  1  0
 21 50  1  0
 21 51  1  0
 22 23  1  0
 22 52  1  0
 23 24  2  0
 23 53  1  0
 25 26  1  0
 25 54  1  0
 25 55  1  0
 26 56  1  0
 26 57  1  0
M  END

