
     RDKit          3D

 43 45  0  0  0  0  0  0  0  0999 V2000
    0.6828    4.8230   -0.8597 C   0  0  0  0  0  0  0  0  0  0  0  0
    2.0814    5.3829   -0.5485 C   0  0  1  0  0  0  0  0  0  0  0  0
    2.0145    6.5635    0.4356 C   0  0  0  0  0  0  0  0  0  0  0  0
    3.0265    4.2957   -0.0571 C   0  0  0  0  0  0  0  0  0  0  0  0
    2.7661    3.5930    1.1505 C   0  0  0  0  0  0  0  0  0  0  0  0
    3.6333    2.5836    1.6147 C   0  0  0  0  0  0  0  0  0  0  0  0
    4.7698    2.2437    0.9140 C   0  0  0  0  0  0  0  0  0  0  0  0
    5.0737    2.9359   -0.3151 C   0  0  0  0  0  0  0  0  0  0  0  0
    6.1451    2.6481   -1.0321 N   0  0  0  0  0  0  0  0  0  0  0  0
    7.2834    1.5982   -0.8306 C   0  0  2  0  0  0  0  0  0  0  0  0
    8.2079    2.1003    0.2930 C   0  0  0  0  0  0  0  0  0  0  0  0
    9.1651    3.1923   -0.1951 C   0  0  0  0  0  0  0  0  0  0  0  0
   10.0144    2.6820   -1.3631 C   0  0  0  0  0  0  0  0  0  0  0  0
    9.1745    2.0870   -2.4754 C   0  0  0  0  0  0  0  0  0  0  0  0
    9.6008    2.1347   -3.7867 C   0  0  0  0  0  0  0  0  0  0  0  0
    8.8737    1.4872   -4.8454 C   0  0  0  0  0  0  0  0  0  0  0  0
    7.7047    0.7677   -4.5051 C   0  0  0  0  0  0  0  0  0  0  0  0
    7.2447    0.7064   -3.2027 C   0  0  0  0  0  0  0  0  0  0  0  0
    7.9710    1.3659   -2.1229 C   0  0  0  0  0  0  0  0  0  0  0  0
    4.1616    3.9617   -0.7678 C   0  0  0  0  0  0  0  0  0  0  0  0
    0.0418    5.6122   -1.2822 H   0  0  0  0  0  0  0  0  0  0  0  0
    0.1834    4.4447    0.0474 H   0  0  0  0  0  0  0  0  0  0  0  0
    0.7307    3.9987   -1.5878 H   0  0  0  0  0  0  0  0  0  0  0  0
    2.5036    5.7632   -1.4937 H   0  0  0  0  0  0  0  0  0  0  0  0
    1.5799    6.2637    1.4035 H   0  0  0  0  0  0  0  0  0  0  0  0
    1.3817    7.3661    0.0261 H   0  0  0  0  0  0  0  0  0  0  0  0
    3.0131    6.9845    0.6301 H   0  0  0  0  0  0  0  0  0  0  0  0
    1.8758    3.8328    1.7344 H   0  0  0  0  0  0  0  0  0  0  0  0
    3.3964    2.0617    2.5440 H   0  0  0  0  0  0  0  0  0  0  0  0
    5.4340    1.4607    1.2719 H   0  0  0  0  0  0  0  0  0  0  0  0
    6.2594    3.1412   -1.9179 H   0  0  0  0  0  0  0  0  0  0  0  0
    6.7274    0.7063   -0.4894 H   0  0  0  0  0  0  0  0  0  0  0  0
    8.7904    1.2268    0.6292 H   0  0  0  0  0  0  0  0  0  0  0  0
    7.6282    2.4480    1.1648 H   0  0  0  0  0  0  0  0  0  0  0  0
    9.8049    3.5231    0.6408 H   0  0  0  0  0  0  0  0  0  0  0  0
    8.5865    4.0807   -0.5111 H   0  0  0  0  0  0  0  0  0  0  0  0
   10.7004    1.9065   -0.9663 H   0  0  0  0  0  0  0  0  0  0  0  0
   10.6556    3.4894   -1.7530 H   0  0  0  0  0  0  0  0  0  0  0  0
   10.5403    2.6492   -4.0170 H   0  0  0  0  0  0  0  0  0  0  0  0
    9.2232    1.5410   -5.8771 H   0  0  0  0  0  0  0  0  0  0  0  0
    7.1545    0.2355   -5.2896 H   0  0  0  0  0  0  0  0  0  0  0  0
    6.3545    0.1118   -2.9683 H   0  0  0  0  0  0  0  0  0  0  0  0
    4.3971    4.4762   -1.7023 H   0  0  0  0  0  0  0  0  0  0  0  0
  1  2  1  0
  1 21  1  0
  1 22  1  0
  1 23  1  0
  2  3  1  0
  2  4  1  0
  2 24  1  6
  3 25  1  0
  3 26  1  0
  3 27  1  0
  4  5  2  0
  4 20  1  0
  5  6  1  0
  5 28  1  0
  6  7  2  0
  6 29  1  0
  7  8  1  0
  7 30  1  0
  8  9  1  0
  8 20  2  0
  9 10  1  0
  9 31  1  0
 10 11  1  0
 10 19  1  0
 10 32  1  1
 11 12  1  0
 11 33  1  0
 11 34  1  0
 12 13  1  0
 12 35  1  0
 12 36  1  0
 13 14  1  0
 13 37  1  0
 13 38  1  0
 14 15  2  0
 14 19  1  0
 15 16  1  0
 15 39  1  0
 16 17  2  0
 16 40  1  0
 17 18  1  0
 17 41  1  0
 18 19  2  0
 18 42  1  0
 20 43  1  0
M  END

