
     RDKit          3D

 52 55  0  0  0  0  0  0  0  0999 V2000
    4.0278    3.9172    3.8907 C   0  0  0  0  0  0  0  0  0  0  0  0
    5.0490    3.1196    3.1027 C   0  0  0  0  0  0  0  0  0  0  0  0
    5.2985    3.8036    1.8845 O   0  0  0  0  0  0  0  0  0  0  0  0
    6.1790    3.2885    0.9912 C   0  0  0  0  0  0  0  0  0  0  0  0
    6.8905    2.0929    1.1657 C   0  0  0  0  0  0  0  0  0  0  0  0
    7.7759    1.6453    0.1791 C   0  0  0  0  0  0  0  0  0  0  0  0
    7.9579    2.3750   -1.0025 C   0  0  0  0  0  0  0  0  0  0  0  0
    8.8609    1.9896   -2.0109 N   0  0  0  0  0  0  0  0  0  0  0  0
    9.4148    0.7922   -2.3183 C   0  0  0  0  0  0  0  0  0  0  0  0
    9.1646   -0.5406   -2.0765 C   0  0  0  0  0  0  0  0  0  0  0  0
    8.0141   -1.2305   -1.4786 C   0  0  0  0  0  0  0  0  0  0  0  0
    6.7052   -0.7315   -1.6293 C   0  0  0  0  0  0  0  0  0  0  0  0
    5.6103   -1.3996   -1.0793 C   0  0  0  0  0  0  0  0  0  0  0  0
    5.7704   -2.5936   -0.3616 C   0  0  0  0  0  0  0  0  0  0  0  0
    4.5868   -3.3333    0.2117 C   0  0  0  0  0  0  0  0  0  0  0  0
    7.0752   -3.0963   -0.2183 C   0  0  0  0  0  0  0  0  0  0  0  0
    8.1743   -2.4384   -0.7659 C   0  0  0  0  0  0  0  0  0  0  0  0
   10.2929   -1.2955   -2.6938 C   0  0  0  0  0  0  0  0  0  0  0  0
   10.5165   -2.4861   -2.6949 O   0  0  0  0  0  0  0  0  0  0  0  0
   11.1453   -0.3599   -3.3355 N   0  0  0  0  0  0  0  0  0  0  0  0
   12.3221   -0.7356   -4.1099 C   0  0  0  0  0  0  0  0  0  0  0  0
   12.0215   -1.1915   -5.5018 C   0  0  0  0  0  0  0  0  0  0  0  0
   11.7733   -2.4228   -6.0456 C   0  0  0  0  0  0  0  0  0  0  0  0
   11.5124   -2.2033   -7.4385 C   0  0  0  0  0  0  0  0  0  0  0  0
   11.6205   -0.8554   -7.6321 C   0  0  0  0  0  0  0  0  0  0  0  0
   11.9276   -0.2340   -6.4670 O   0  0  0  0  0  0  0  0  0  0  0  0
   10.6745    0.9146   -3.1531 C   0  0  0  0  0  0  0  0  0  0  0  0
   11.1540    1.9563   -3.5504 O   0  0  0  0  0  0  0  0  0  0  0  0
    7.2445    3.5790   -1.1697 C   0  0  0  0  0  0  0  0  0  0  0  0
    6.3738    4.0312   -0.1887 C   0  0  0  0  0  0  0  0  0  0  0  0
    3.8085    3.4161    4.8461 H   0  0  0  0  0  0  0  0  0  0  0  0
    3.0891    4.0140    3.3241 H   0  0  0  0  0  0  0  0  0  0  0  0
    4.4057    4.9283    4.1057 H   0  0  0  0  0  0  0  0  0  0  0  0
    4.6734    2.1000    2.8929 H   0  0  0  0  0  0  0  0  0  0  0  0
    5.9901    3.0127    3.6751 H   0  0  0  0  0  0  0  0  0  0  0  0
    6.7720    1.4949    2.0691 H   0  0  0  0  0  0  0  0  0  0  0  0
    8.3367    0.7269    0.3468 H   0  0  0  0  0  0  0  0  0  0  0  0
    9.3296    2.7516   -2.5024 H   0  0  0  0  0  0  0  0  0  0  0  0
    6.5384    0.1823   -2.2025 H   0  0  0  0  0  0  0  0  0  0  0  0
    4.6078   -0.9837   -1.2166 H   0  0  0  0  0  0  0  0  0  0  0  0
    3.6962   -2.6899    0.2721 H   0  0  0  0  0  0  0  0  0  0  0  0
    4.8006   -3.7169    1.2222 H   0  0  0  0  0  0  0  0  0  0  0  0
    4.3216   -4.2050   -0.4123 H   0  0  0  0  0  0  0  0  0  0  0  0
    7.2342   -4.0262    0.3362 H   0  0  0  0  0  0  0  0  0  0  0  0
    9.1719   -2.8619   -0.6490 H   0  0  0  0  0  0  0  0  0  0  0  0
   12.8271   -1.5477   -3.5694 H   0  0  0  0  0  0  0  0  0  0  0  0
   12.9808    0.1443   -4.1402 H   0  0  0  0  0  0  0  0  0  0  0  0
   11.7617   -3.3660   -5.5039 H   0  0  0  0  0  0  0  0  0  0  0  0
   11.2767   -2.9501   -8.1939 H   0  0  0  0  0  0  0  0  0  0  0  0
   11.5178   -0.2148   -8.5042 H   0  0  0  0  0  0  0  0  0  0  0  0
    7.3770    4.1601   -2.0864 H   0  0  0  0  0  0  0  0  0  0  0  0
    5.8179    4.9624   -0.3143 H   0  0  0  0  0  0  0  0  0  0  0  0
  1  2  1  0
  1 31  1  0
  1 32  1  0
  1 33  1  0
  2  3  1  0
  2 34  1  0
  2 35  1  0
  3  4  1  0
  4  5  2  0
  4 30  1  0
  5  6  1  0
  5 36  1  0
  6  7  2  0
  6 37  1  0
  7  8  1  0
  7 29  1  0
  8  9  1  0
  8 38  1  0
  9 10  2  0
  9 27  1  0
 10 11  1  0
 10 18  1  0
 11 12  2  0
 11 17  1  0
 12 13  1  0
 12 39  1  0
 13 14  2  0
 13 40  1  0
 14 15  1  0
 14 16  1  0
 15 41  1  0
 15 42  1  0
 15 43  1  0
 16 17  2  0
 16 44  1  0
 17 45  1  0
 18 19  2  0
 18 20  1  0
 20 21  1  0
 20 27  1  0
 21 22  1  0
 21 46  1  0
 21 47  1  0
 22 23  2  0
 22 26  1  0
 23 24  1  0
 23 48  1  0
 24 25  2  0
 24 49  1  0
 25 26  1  0
 25 50  1  0
 27 28  2  0
 29 30  2  0
 29 51  1  0
 30 52  1  0
M  END

