
     RDKit          3D

 43 44  0  0  0  0  0  0  0  0999 V2000
    6.3397   -1.6257    2.8503 C   0  0  0  0  0  0  0  0  0  0  0  0
    6.1899   -2.0812    1.3947 C   0  0  1  0  0  0  0  0  0  0  0  0
    5.7523   -3.5471    1.3076 C   0  0  0  0  0  0  0  0  0  0  0  0
    5.2155   -1.1767    0.6074 C   0  0  0  0  0  0  0  0  0  0  0  0
    5.6814    0.2390    0.4739 C   0  0  0  0  0  0  0  0  0  0  0  0
    6.8091    0.6431   -0.0886 N   0  0  0  0  0  0  0  0  0  0  0  0
    6.7696    2.0054    0.0496 C   0  0  0  0  0  0  0  0  0  0  0  0
    7.7462    2.8284   -0.4602 N   0  0  0  0  0  0  0  0  0  0  0  0
    9.0506    2.2627   -0.7780 C   0  0  0  0  0  0  0  0  0  0  0  0
    9.7476    3.0871   -1.8625 C   0  0  0  0  0  0  0  0  0  0  0  0
    9.8419    4.5848   -1.5084 C   0  0  2  0  0  0  0  0  0  0  0  0
   10.8684    4.9292   -0.3967 C   0  0  1  0  0  0  0  0  0  0  0  0
   12.2715    4.3678   -0.6787 C   0  0  0  0  0  0  0  0  0  0  0  0
   10.8679    6.3825   -0.1963 N   0  0  0  0  0  0  0  0  0  0  0  0
    8.4222    5.0897   -1.1766 C   0  0  0  0  0  0  0  0  0  0  0  0
    7.7213    4.2436   -0.1107 C   0  0  0  0  0  0  0  0  0  0  0  0
    5.6883    2.4637    0.6811 N   0  0  0  0  0  0  0  0  0  0  0  0
    5.0063    1.3138    0.9322 N   0  0  0  0  0  0  0  0  0  0  0  0
    4.1177    1.3454    1.4166 H   0  0  0  0  0  0  0  0  0  0  0  0
    7.0670   -2.2550    3.3880 H   0  0  0  0  0  0  0  0  0  0  0  0
    5.3784   -1.6969    3.3896 H   0  0  0  0  0  0  0  0  0  0  0  0
    6.6894   -0.5836    2.9174 H   0  0  0  0  0  0  0  0  0  0  0  0
    7.1729   -1.9806    0.9024 H   0  0  0  0  0  0  0  0  0  0  0  0
    4.7598   -3.6960    1.7677 H   0  0  0  0  0  0  0  0  0  0  0  0
    6.4625   -4.2052    1.8333 H   0  0  0  0  0  0  0  0  0  0  0  0
    5.6892   -3.8895    0.2618 H   0  0  0  0  0  0  0  0  0  0  0  0
    4.2203   -1.1923    1.0860 H   0  0  0  0  0  0  0  0  0  0  0  0
    5.0846   -1.5922   -0.4063 H   0  0  0  0  0  0  0  0  0  0  0  0
    8.9002    1.2286   -1.1134 H   0  0  0  0  0  0  0  0  0  0  0  0
    9.6871    2.2085    0.1331 H   0  0  0  0  0  0  0  0  0  0  0  0
    9.1629    2.9918   -2.7932 H   0  0  0  0  0  0  0  0  0  0  0  0
   10.7387    2.6549   -2.0695 H   0  0  0  0  0  0  0  0  0  0  0  0
   10.1889    5.1203   -2.4134 H   0  0  0  0  0  0  0  0  0  0  0  0
   10.5175    4.4890    0.5537 H   0  0  0  0  0  0  0  0  0  0  0  0
   12.6423    4.7082   -1.6620 H   0  0  0  0  0  0  0  0  0  0  0  0
   12.3037    3.2671   -0.6700 H   0  0  0  0  0  0  0  0  0  0  0  0
   12.9823    4.7210    0.0866 H   0  0  0  0  0  0  0  0  0  0  0  0
   11.2603    6.8456   -1.0193 H   0  0  0  0  0  0  0  0  0  0  0  0
   11.4752    6.6328    0.5843 H   0  0  0  0  0  0  0  0  0  0  0  0
    7.8150    5.0619   -2.0976 H   0  0  0  0  0  0  0  0  0  0  0  0
    8.4728    6.1331   -0.8353 H   0  0  0  0  0  0  0  0  0  0  0  0
    6.6721    4.5509   -0.0082 H   0  0  0  0  0  0  0  0  0  0  0  0
    8.1887    4.4073    0.8841 H   0  0  0  0  0  0  0  0  0  0  0  0
  1  2  1  0
  1 20  1  0
  1 21  1  0
  1 22  1  0
  2  3  1  0
  2  4  1  0
  2 23  1  6
  3 24  1  0
  3 25  1  0
  3 26  1  0
  4  5  1  0
  4 27  1  0
  4 28  1  0
  5  6  2  0
  5 18  1  0
  6  7  1  0
  7  8  1  0
  7 17  2  0
  8  9  1  0
  8 16  1  0
  9 10  1  0
  9 29  1  0
  9 30  1  0
 10 11  1  0
 10 31  1  0
 10 32  1  0
 11 12  1  0
 11 15  1  0
 11 33  1  6
 12 13  1  0
 12 14  1  0
 12 34  1  1
 13 35  1  0
 13 36  1  0
 13 37  1  0
 14 38  1  0
 14 39  1  0
 15 16  1  0
 15 40  1  0
 15 41  1  0
 16 42  1  0
 16 43  1  0
 17 18  1  0
 18 19  1  0
M  END

