
     RDKit          3D

 37 38  0  0  0  0  0  0  0  0999 V2000
   10.3508    2.7428    4.6798 C   0  0  0  0  0  0  0  0  0  0  0  0
    9.3466    2.2113    3.7029 C   0  0  0  0  0  0  0  0  0  0  0  0
    9.1389    2.5837    2.3539 C   0  0  0  0  0  0  0  0  0  0  0  0
    8.0864    1.7856    1.9198 C   0  0  0  0  0  0  0  0  0  0  0  0
    7.3540    1.6592    0.3140 S   0  0  0  0  0  0  0  0  0  0  0  0
    6.3425    3.1437    0.2121 C   0  0  0  0  0  0  0  0  0  0  0  0
    5.3351    3.3780    1.1606 C   0  0  0  0  0  0  0  0  0  0  0  0
    5.1570    2.4985    2.1581 F   0  0  0  0  0  0  0  0  0  0  0  0
    4.5098    4.4951    1.1150 C   0  0  0  0  0  0  0  0  0  0  0  0
    4.6812    5.4065    0.0717 C   0  0  0  0  0  0  0  0  0  0  0  0
    5.6634    5.1865   -0.8946 C   0  0  0  0  0  0  0  0  0  0  0  0
    6.5090    4.0640   -0.8500 C   0  0  0  0  0  0  0  0  0  0  0  0
    7.5571    3.8674   -1.9216 C   0  0  0  0  0  0  0  0  0  0  0  0
    7.1951    2.8648   -3.0427 C   0  0  1  0  0  0  0  0  0  0  0  0
    5.9317    3.2638   -3.8183 C   0  0  0  0  0  0  0  0  0  0  0  0
    8.3800    2.6930   -3.8850 N   0  0  0  0  0  0  0  0  0  0  0  0
    7.7365    0.9946    2.9838 N   0  0  0  0  0  0  0  0  0  0  0  0
    6.6894   -0.0024    3.0736 C   0  0  0  0  0  0  0  0  0  0  0  0
    8.4927    1.2471    4.0583 N   0  0  0  0  0  0  0  0  0  0  0  0
   10.2039    3.8197    4.8658 H   0  0  0  0  0  0  0  0  0  0  0  0
   11.3820    2.6120    4.3124 H   0  0  0  0  0  0  0  0  0  0  0  0
   10.2535    2.2105    5.6364 H   0  0  0  0  0  0  0  0  0  0  0  0
    9.6754    3.3218    1.7626 H   0  0  0  0  0  0  0  0  0  0  0  0
    3.7506    4.6267    1.8883 H   0  0  0  0  0  0  0  0  0  0  0  0
    4.0453    6.2931    0.0150 H   0  0  0  0  0  0  0  0  0  0  0  0
    5.7919    5.9078   -1.7054 H   0  0  0  0  0  0  0  0  0  0  0  0
    8.4945    3.5092   -1.4718 H   0  0  0  0  0  0  0  0  0  0  0  0
    7.7709    4.8443   -2.3894 H   0  0  0  0  0  0  0  0  0  0  0  0
    7.0094    1.8879   -2.5613 H   0  0  0  0  0  0  0  0  0  0  0  0
    6.0705    4.2406   -4.3149 H   0  0  0  0  0  0  0  0  0  0  0  0
    5.0462    3.3399   -3.1672 H   0  0  0  0  0  0  0  0  0  0  0  0
    5.7098    2.5197   -4.6009 H   0  0  0  0  0  0  0  0  0  0  0  0
    8.5616    3.5527   -4.4082 H   0  0  0  0  0  0  0  0  0  0  0  0
    8.2120    1.9707   -4.5861 H   0  0  0  0  0  0  0  0  0  0  0  0
    6.2089   -0.1034    2.0938 H   0  0  0  0  0  0  0  0  0  0  0  0
    5.9386    0.3075    3.8154 H   0  0  0  0  0  0  0  0  0  0  0  0
    7.1204   -0.9666    3.3809 H   0  0  0  0  0  0  0  0  0  0  0  0
  1  2  1  0
  1 20  1  0
  1 21  1  0
  1 22  1  0
  2  3  1  0
  2 19  2  0
  3  4  2  0
  3 23  1  0
  4  5  1  0
  4 17  1  0
  5  6  1  0
  6  7  2  0
  6 12  1  0
  7  8  1  0
  7  9  1  0
  9 10  2  0
  9 24  1  0
 10 11  1  0
 10 25  1  0
 11 12  2  0
 11 26  1  0
 12 13  1  0
 13 14  1  0
 13 27  1  0
 13 28  1  0
 14 15  1  0
 14 16  1  0
 14 29  1  1
 15 30  1  0
 15 31  1  0
 15 32  1  0
 16 33  1  0
 16 34  1  0
 17 18  1  0
 17 19  1  0
 18 35  1  0
 18 36  1  0
 18 37  1  0
M  END

