
     RDKit          3D

 43 46  0  0  0  0  0  0  0  0999 V2000
    1.5741    0.6682    1.3284 C   0  0  0  0  0  0  0  0  0  0  0  0
    2.7670    0.7134    1.1319 C   0  0  0  0  0  0  0  0  0  0  0  0
    4.2107    0.7355    0.9552 C   0  0  0  0  0  0  0  0  0  0  0  0
    4.6843    0.9630   -0.3897 N   0  0  0  0  0  0  0  0  0  0  0  0
    3.7841    1.4254   -1.4390 C   0  0  0  0  0  0  0  0  0  0  0  0
    3.3275    2.7989   -1.2099 C   0  0  0  0  0  0  0  0  0  0  0  0
    2.9470    3.9329   -1.0344 C   0  0  0  0  0  0  0  0  0  0  0  0
    6.1273    0.7431   -0.6861 C   0  0  1  0  0  0  0  0  0  0  0  0
    6.2269   -0.4906   -1.6268 C   0  0  0  0  0  0  0  0  0  0  0  0
    7.6890   -0.9644   -1.8052 C   0  0  2  0  0  0  0  0  0  0  0  0
    8.3341   -1.0885   -0.3986 C   0  0  0  0  0  0  0  0  0  0  0  0
    8.1384    0.1628    0.4592 C   0  0  1  0  0  0  0  0  0  0  0  0
    8.8388    1.4402   -0.0079 C   0  0  0  0  0  0  0  0  0  0  0  0
    8.2778    1.9764   -1.3516 C   0  0  2  0  0  0  0  0  0  0  0  0
    6.7358    2.0593   -1.2329 C   0  0  0  0  0  0  0  0  0  0  0  0
    8.7786    1.2582   -2.5822 C   0  0  0  0  0  0  0  0  0  0  0  0
    9.5849    1.9207   -3.5242 C   0  0  0  0  0  0  0  0  0  0  0  0
   10.1093    1.2995   -4.6532 C   0  0  0  0  0  0  0  0  0  0  0  0
    9.8279   -0.1095   -4.8721 C   0  0  0  0  0  0  0  0  0  0  0  0
    9.0390   -0.7820   -3.9363 C   0  0  0  0  0  0  0  0  0  0  0  0
    8.4934   -0.1650   -2.8044 C   0  0  0  0  0  0  0  0  0  0  0  0
    6.7040    0.4379    0.5525 O   0  0  0  0  0  0  0  0  0  0  0  0
    0.5137    0.6361    1.5017 H   0  0  0  0  0  0  0  0  0  0  0  0
    4.6835   -0.2011    1.3029 H   0  0  0  0  0  0  0  0  0  0  0  0
    4.6855    1.4996    1.6057 H   0  0  0  0  0  0  0  0  0  0  0  0
    2.9162    0.7436   -1.4633 H   0  0  0  0  0  0  0  0  0  0  0  0
    4.3026    1.3444   -2.4014 H   0  0  0  0  0  0  0  0  0  0  0  0
    2.6107    4.9435   -0.8903 H   0  0  0  0  0  0  0  0  0  0  0  0
    5.7943   -0.2677   -2.6125 H   0  0  0  0  0  0  0  0  0  0  0  0
    5.6266   -1.2894   -1.1565 H   0  0  0  0  0  0  0  0  0  0  0  0
    7.6057   -1.9881   -2.2051 H   0  0  0  0  0  0  0  0  0  0  0  0
    7.8887   -1.9376    0.1516 H   0  0  0  0  0  0  0  0  0  0  0  0
    9.4088   -1.2943   -0.5074 H   0  0  0  0  0  0  0  0  0  0  0  0
    8.4186   -0.0548    1.5006 H   0  0  0  0  0  0  0  0  0  0  0  0
    9.9170    1.2498   -0.1112 H   0  0  0  0  0  0  0  0  0  0  0  0
    8.7102    2.1947    0.7898 H   0  0  0  0  0  0  0  0  0  0  0  0
    8.6100    3.0241   -1.4350 H   0  0  0  0  0  0  0  0  0  0  0  0
    6.3109    2.3114   -2.2139 H   0  0  0  0  0  0  0  0  0  0  0  0
    6.4513    2.8517   -0.5198 H   0  0  0  0  0  0  0  0  0  0  0  0
    9.8074    2.9835   -3.3581 H   0  0  0  0  0  0  0  0  0  0  0  0
   10.7211    1.8641   -5.3598 H   0  0  0  0  0  0  0  0  0  0  0  0
   10.2215   -0.6329   -5.7451 H   0  0  0  0  0  0  0  0  0  0  0  0
    8.8318   -1.8492   -4.0944 H   0  0  0  0  0  0  0  0  0  0  0  0
  1  2  3  0
  1 23  1  0
  2  3  1  0
  3  4  1  0
  3 24  1  0
  3 25  1  0
  4  5  1  0
  8  4  1  1
  5  6  1  0
  5 26  1  0
  5 27  1  0
  6  7  3  0
  7 28  1  0
  8  9  1  0
  8 15  1  0
  8 22  1  0
  9 10  1  0
  9 29  1  0
  9 30  1  0
 10 11  1  0
 10 21  1  0
 10 31  1  6
 11 12  1  0
 11 32  1  0
 11 33  1  0
 12 13  1  0
 12 22  1  0
 12 34  1  1
 13 14  1  0
 13 35  1  0
 13 36  1  0
 14 15  1  0
 14 16  1  0
 14 37  1  6
 15 38  1  0
 15 39  1  0
 16 17  1  0
 16 21  2  0
 17 18  2  0
 17 40  1  0
 18 19  1  0
 18 41  1  0
 19 20  2  0
 19 42  1  0
 20 21  1  0
 20 43  1  0
M  END

