
     RDKit          3D

 72 78  0  0  0  0  0  0  0  0999 V2000
   13.2163   -1.1090   -2.5481 N   0  0  0  0  0  0  0  0  0  0  0  0
   12.7235   -1.9576   -1.9274 C   0  0  0  0  0  0  0  0  0  0  0  0
   12.1130   -3.0070   -1.1572 C   0  0  0  0  0  0  0  0  0  0  0  0
   12.8907   -4.0802   -0.6855 C   0  0  0  0  0  0  0  0  0  0  0  0
   12.2772   -5.0913    0.0529 C   0  0  0  0  0  0  0  0  0  0  0  0
   10.9080   -5.0411    0.3230 C   0  0  0  0  0  0  0  0  0  0  0  0
   10.1128   -3.9750   -0.1396 C   0  0  0  0  0  0  0  0  0  0  0  0
    8.6539   -3.9219    0.1507 C   0  0  0  0  0  0  0  0  0  0  0  0
    8.0160   -2.7002    0.4388 C   0  0  0  0  0  0  0  0  0  0  0  0
    6.6475   -2.6560    0.7140 C   0  0  0  0  0  0  0  0  0  0  0  0
    5.8883   -3.8256    0.7082 C   0  0  0  0  0  0  0  0  0  0  0  0
    6.5027   -5.0559    0.4206 C   0  0  0  0  0  0  0  0  0  0  0  0
    5.7046   -6.3098    0.4000 C   0  0  0  0  0  0  0  0  0  0  0  0
    6.3142   -7.4428    0.0305 N   0  0  0  0  0  0  0  0  0  0  0  0
    5.5645   -8.5526    0.0371 C   0  0  0  0  0  0  0  0  0  0  0  0
    6.2145   -9.8364   -0.3332 C   0  0  0  0  0  0  0  0  0  0  0  0
    7.4851   -9.8389   -0.9329 C   0  0  0  0  0  0  0  0  0  0  0  0
    8.0890  -11.0493   -1.2697 C   0  0  0  0  0  0  0  0  0  0  0  0
    7.4483  -12.2592   -0.9948 C   0  0  0  0  0  0  0  0  0  0  0  0
    6.1820  -12.2843   -0.3785 C   0  0  0  0  0  0  0  0  0  0  0  0
    5.5167  -13.5756   -0.0497 C   0  0  0  0  0  0  0  0  0  0  0  0
    4.1178  -13.7218   -0.1202 C   0  0  0  0  0  0  0  0  0  0  0  0
    3.4947  -14.9301    0.2022 C   0  0  0  0  0  0  0  0  0  0  0  0
    4.2572  -16.0286    0.5984 C   0  0  0  0  0  0  0  0  0  0  0  0
    5.6565  -15.9062    0.6730 C   0  0  0  0  0  0  0  0  0  0  0  0
    6.4599  -17.0244    1.0869 C   0  0  0  0  0  0  0  0  0  0  0  0
    7.1110  -17.9267    1.4191 N   0  0  0  0  0  0  0  0  0  0  0  0
    6.2760  -14.6857    0.3531 C   0  0  0  0  0  0  0  0  0  0  0  0
    5.5739  -11.0572   -0.0680 C   0  0  0  0  0  0  0  0  0  0  0  0
    4.2654   -8.5678    0.3655 N   0  0  0  0  0  0  0  0  0  0  0  0
    3.7289   -7.3909    0.7117 C   0  0  0  0  0  0  0  0  0  0  0  0
    2.2850   -7.3545    1.0663 C   0  0  0  0  0  0  0  0  0  0  0  0
    1.7262   -6.2142    1.6664 C   0  0  0  0  0  0  0  0  0  0  0  0
    0.3702   -6.1974    1.9920 C   0  0  0  0  0  0  0  0  0  0  0  0
   -0.4393   -7.2992    1.7078 C   0  0  0  0  0  0  0  0  0  0  0  0
    0.0947   -8.4467    1.0908 C   0  0  0  0  0  0  0  0  0  0  0  0
   -0.7668   -9.6131    0.7545 C   0  0  0  0  0  0  0  0  0  0  0  0
   -2.1171   -9.4470    0.3894 C   0  0  0  0  0  0  0  0  0  0  0  0
   -2.9194  -10.5410    0.0576 C   0  0  0  0  0  0  0  0  0  0  0  0
   -2.3964  -11.8333    0.0694 C   0  0  0  0  0  0  0  0  0  0  0  0
   -1.0491  -12.0193    0.4273 C   0  0  0  0  0  0  0  0  0  0  0  0
   -0.4686  -13.3337    0.4279 C   0  0  0  0  0  0  0  0  0  0  0  0
    0.0278  -14.3832    0.4158 N   0  0  0  0  0  0  0  0  0  0  0  0
   -0.2487  -10.9175    0.7740 C   0  0  0  0  0  0  0  0  0  0  0  0
    1.4656   -8.4579    0.7874 C   0  0  0  0  0  0  0  0  0  0  0  0
    4.4145   -6.2426    0.7540 N   0  0  0  0  0  0  0  0  0  0  0  0
    7.8784   -5.0914    0.1452 C   0  0  0  0  0  0  0  0  0  0  0  0
   10.7350   -2.9603   -0.8838 C   0  0  0  0  0  0  0  0  0  0  0  0
   13.9604   -4.1120   -0.8999 H   0  0  0  0  0  0  0  0  0  0  0  0
   12.8738   -5.9251    0.4303 H   0  0  0  0  0  0  0  0  0  0  0  0
   10.4506   -5.8311    0.9225 H   0  0  0  0  0  0  0  0  0  0  0  0
    8.6009   -1.7780    0.4717 H   0  0  0  0  0  0  0  0  0  0  0  0
    6.1723   -1.6990    0.9425 H   0  0  0  0  0  0  0  0  0  0  0  0
    4.8193   -3.8046    0.9202 H   0  0  0  0  0  0  0  0  0  0  0  0
    7.9785   -8.8881   -1.1355 H   0  0  0  0  0  0  0  0  0  0  0  0
    9.0677  -11.0536   -1.7556 H   0  0  0  0  0  0  0  0  0  0  0  0
    7.9303  -13.1971   -1.2796 H   0  0  0  0  0  0  0  0  0  0  0  0
    3.5056  -12.8804   -0.4524 H   0  0  0  0  0  0  0  0  0  0  0  0
    2.4066  -15.0124    0.1468 H   0  0  0  0  0  0  0  0  0  0  0  0
    3.7795  -16.9766    0.8518 H   0  0  0  0  0  0  0  0  0  0  0  0
    7.3600  -14.6050    0.4468 H   0  0  0  0  0  0  0  0  0  0  0  0
    4.6006  -11.0317    0.4223 H   0  0  0  0  0  0  0  0  0  0  0  0
    2.3670   -5.3577    1.8768 H   0  0  0  0  0  0  0  0  0  0  0  0
   -0.0624   -5.3194    2.4777 H   0  0  0  0  0  0  0  0  0  0  0  0
   -1.4950   -7.2738    1.9871 H   0  0  0  0  0  0  0  0  0  0  0  0
   -2.5416   -8.4421    0.3394 H   0  0  0  0  0  0  0  0  0  0  0  0
   -3.9618  -10.3811   -0.2273 H   0  0  0  0  0  0  0  0  0  0  0  0
   -3.0141  -12.6922   -0.1983 H   0  0  0  0  0  0  0  0  0  0  0  0
    0.7856  -11.0913    1.0739 H   0  0  0  0  0  0  0  0  0  0  0  0
    1.9196   -9.3175    0.2944 H   0  0  0  0  0  0  0  0  0  0  0  0
    8.3296   -6.0546   -0.0932 H   0  0  0  0  0  0  0  0  0  0  0  0
   10.1460   -2.1312   -1.2794 H   0  0  0  0  0  0  0  0  0  0  0  0
  1  2  3  0
  2  3  1  0
  3  4  2  0
  3 48  1  0
  4  5  1  0
  4 49  1  0
  5  6  2  0
  5 50  1  0
  6  7  1  0
  6 51  1  0
  7  8  1  0
  7 48  2  0
  8  9  2  0
  8 47  1  0
  9 10  1  0
  9 52  1  0
 10 11  2  0
 10 53  1  0
 11 12  1  0
 11 54  1  0
 12 13  1  0
 12 47  2  0
 13 14  2  0
 13 46  1  0
 14 15  1  0
 15 16  1  0
 15 30  2  0
 16 17  2  0
 16 29  1  0
 17 18  1  0
 17 55  1  0
 18 19  2  0
 18 56  1  0
 19 20  1  0
 19 57  1  0
 20 21  1  0
 20 29  2  0
 21 22  2  0
 21 28  1  0
 22 23  1  0
 22 58  1  0
 23 24  2  0
 23 59  1  0
 24 25  1  0
 24 60  1  0
 25 26  1  0
 25 28  2  0
 26 27  3  0
 28 61  1  0
 29 62  1  0
 30 31  1  0
 31 32  1  0
 31 46  2  0
 32 33  2  0
 32 45  1  0
 33 34  1  0
 33 63  1  0
 34 35  2  0
 34 64  1  0
 35 36  1  0
 35 65  1  0
 36 37  1  0
 36 45  2  0
 37 38  2  0
 37 44  1  0
 38 39  1  0
 38 66  1  0
 39 40  2  0
 39 67  1  0
 40 41  1  0
 40 68  1  0
 41 42  1  0
 41 44  2  0
 42 43  3  0
 44 69  1  0
 45 70  1  0
 47 71  1  0
 48 72  1  0
M  END

