
     RDKit          3D

 32 33  0  0  0  0  0  0  0  0999 V2000
    1.4637   -0.6537    1.2718 C   0  0  0  0  0  0  0  0  0  0  0  0
    2.8517   -0.4278    0.7632 C   0  0  0  0  0  0  0  0  0  0  0  0
    3.3897    0.8916    0.6946 C   0  0  0  0  0  0  0  0  0  0  0  0
    4.6610    1.1375    0.2449 C   0  0  0  0  0  0  0  0  0  0  0  0
    5.5181    0.0582   -0.1812 C   0  0  0  0  0  0  0  0  0  0  0  0
    6.7634    0.2536   -0.6309 N   0  0  0  0  0  0  0  0  0  0  0  0
    7.5006    1.5338   -0.7943 C   0  0  0  0  0  0  0  0  0  0  0  0
    6.9619    2.5733   -0.5124 O   0  0  0  0  0  0  0  0  0  0  0  0
    8.9199    1.3334   -1.2489 C   0  0  0  0  0  0  0  0  0  0  0  0
    9.7529    0.6626   -0.1819 C   0  0  0  0  0  0  0  0  0  0  0  0
   10.4525    1.3752    0.8431 C   0  0  0  0  0  0  0  0  0  0  0  0
   11.0194    0.7266    1.9223 C   0  0  0  0  0  0  0  0  0  0  0  0
   10.9089   -0.6951    2.0906 C   0  0  0  0  0  0  0  0  0  0  0  0
   10.2236   -1.4069    1.0831 C   0  0  0  0  0  0  0  0  0  0  0  0
   10.1293   -2.7547    1.1607 F   0  0  0  0  0  0  0  0  0  0  0  0
    9.6716   -0.7599    0.0037 C   0  0  0  0  0  0  0  0  0  0  0  0
    9.0303   -1.4931   -0.9868 F   0  0  0  0  0  0  0  0  0  0  0  0
    4.9564   -1.2876   -0.1103 C   0  0  0  0  0  0  0  0  0  0  0  0
    5.9791   -2.7658   -0.6489 Br  0  0  0  0  0  0  0  0  0  0  0  0
    3.6664   -1.4968    0.3484 C   0  0  0  0  0  0  0  0  0  0  0  0
    0.7349   -0.0603    0.6934 H   0  0  0  0  0  0  0  0  0  0  0  0
    1.3775   -0.3135    2.3189 H   0  0  0  0  0  0  0  0  0  0  0  0
    1.1708   -1.7109    1.2264 H   0  0  0  0  0  0  0  0  0  0  0  0
    2.7707    1.7324    1.0160 H   0  0  0  0  0  0  0  0  0  0  0  0
    5.0673    2.1440    0.2026 H   0  0  0  0  0  0  0  0  0  0  0  0
    7.3237   -0.5786   -0.8515 H   0  0  0  0  0  0  0  0  0  0  0  0
    9.3051    2.3373   -1.4798 H   0  0  0  0  0  0  0  0  0  0  0  0
    8.9154    0.7416   -2.1863 H   0  0  0  0  0  0  0  0  0  0  0  0
   10.5584    2.4608    0.7489 H   0  0  0  0  0  0  0  0  0  0  0  0
   11.5797    1.3058    2.6608 H   0  0  0  0  0  0  0  0  0  0  0  0
   11.3047   -1.2248    2.9550 H   0  0  0  0  0  0  0  0  0  0  0  0
    3.2806   -2.5164    0.3875 H   0  0  0  0  0  0  0  0  0  0  0  0
  1  2  1  0
  1 21  1  0
  1 22  1  0
  1 23  1  0
  2  3  2  0
  2 20  1  0
  3  4  1  0
  3 24  1  0
  4  5  2  0
  4 25  1  0
  5  6  1  0
  5 18  1  0
  6  7  1  0
  6 26  1  0
  7  8  2  0
  7  9  1  0
  9 10  1  0
  9 27  1  0
  9 28  1  0
 10 11  2  0
 10 16  1  0
 11 12  1  0
 11 29  1  0
 12 13  2  0
 12 30  1  0
 13 14  1  0
 13 31  1  0
 14 15  1  0
 14 16  2  0
 16 17  1  0
 18 19  1  0
 18 20  2  0
 20 32  1  0
M  END

