
     RDKit          3D

 45 50  0  0  0  0  0  0  0  0999 V2000
    1.5832    0.3350   -1.1669 O   0  0  0  0  0  0  0  0  0  0  0  0
    2.4785    0.4159   -0.3781 C   0  0  0  0  0  0  0  0  0  0  0  0
    3.3717    1.6166   -0.1613 C   0  0  0  0  0  0  0  0  0  0  0  0
    3.7971    1.7997    1.3000 C   0  0  1  0  0  0  0  0  0  0  0  0
    2.6755    2.2167    2.2595 C   0  0  0  0  0  0  0  0  0  0  0  0
    1.3074    2.1501    1.9266 C   0  0  0  0  0  0  0  0  0  0  0  0
    0.3278    2.5585    2.8295 C   0  0  0  0  0  0  0  0  0  0  0  0
    0.7065    3.0310    4.0934 C   0  0  0  0  0  0  0  0  0  0  0  0
   -0.5141    3.5342    5.2228 Cl  0  0  0  0  0  0  0  0  0  0  0  0
    2.0598    3.0992    4.4528 C   0  0  0  0  0  0  0  0  0  0  0  0
    3.0282    2.6868    3.5454 C   0  0  0  0  0  0  0  0  0  0  0  0
    4.3451    0.4912    1.8111 C   0  0  0  0  0  0  0  0  0  0  0  0
    3.7617   -0.7031    1.3390 C   0  0  0  0  0  0  0  0  0  0  0  0
    4.2007   -1.9748    1.7690 C   0  0  0  0  0  0  0  0  0  0  0  0
    3.6012   -3.1833    1.2989 C   0  0  0  0  0  0  0  0  0  0  0  0
    4.0486   -4.4044    1.7542 C   0  0  0  0  0  0  0  0  0  0  0  0
    5.1144   -4.4574    2.6896 C   0  0  0  0  0  0  0  0  0  0  0  0
    5.7191   -3.2973    3.1561 C   0  0  0  0  0  0  0  0  0  0  0  0
    5.2898   -2.0292    2.7133 C   0  0  0  0  0  0  0  0  0  0  0  0
    5.9379   -0.8197    3.1785 C   0  0  0  0  0  0  0  0  0  0  0  0
    6.9877   -0.9181    4.0241 N   0  0  0  0  0  0  0  0  0  0  0  0
    7.5747    0.2408    4.4118 C   0  0  0  0  0  0  0  0  0  0  0  0
    8.6781    0.2179    5.2983 C   0  0  0  0  0  0  0  0  0  0  0  0
    9.3048    1.3987    5.6999 C   0  0  0  0  0  0  0  0  0  0  0  0
    8.8501    2.6429    5.2322 C   0  0  0  0  0  0  0  0  0  0  0  0
    7.7597    2.7035    4.3627 C   0  0  0  0  0  0  0  0  0  0  0  0
    7.0997    1.5271    3.9398 C   0  0  0  0  0  0  0  0  0  0  0  0
    6.0243    1.6075    3.1052 N   0  0  0  0  0  0  0  0  0  0  0  0
    5.4638    0.4447    2.7316 C   0  0  0  0  0  0  0  0  0  0  0  0
    2.7476   -0.6772    0.4205 O   0  0  0  0  0  0  0  0  0  0  0  0
    2.8551    2.4947   -0.5715 H   0  0  0  0  0  0  0  0  0  0  0  0
    4.2772    1.4580   -0.7734 H   0  0  0  0  0  0  0  0  0  0  0  0
    4.6003    2.5454    1.3684 H   0  0  0  0  0  0  0  0  0  0  0  0
    0.9770    1.8031    0.9471 H   0  0  0  0  0  0  0  0  0  0  0  0
   -0.7283    2.5188    2.5583 H   0  0  0  0  0  0  0  0  0  0  0  0
    2.3422    3.4710    5.4390 H   0  0  0  0  0  0  0  0  0  0  0  0
    4.0864    2.7258    3.8127 H   0  0  0  0  0  0  0  0  0  0  0  0
    2.7815   -3.1155    0.5826 H   0  0  0  0  0  0  0  0  0  0  0  0
    3.5873   -5.3279    1.3979 H   0  0  0  0  0  0  0  0  0  0  0  0
    5.4681   -5.4290    3.0452 H   0  0  0  0  0  0  0  0  0  0  0  0
    6.5436   -3.3271    3.8691 H   0  0  0  0  0  0  0  0  0  0  0  0
    9.0195   -0.7572    5.6520 H   0  0  0  0  0  0  0  0  0  0  0  0
   10.1578    1.3527    6.3821 H   0  0  0  0  0  0  0  0  0  0  0  0
    9.3489    3.5624    5.5478 H   0  0  0  0  0  0  0  0  0  0  0  0
    7.3901    3.6585    3.9817 H   0  0  0  0  0  0  0  0  0  0  0  0
  1  2  2  0
  2  3  1  0
  2 30  1  0
  3  4  1  0
  3 31  1  0
  3 32  1  0
  4  5  1  0
  4 12  1  0
  4 33  1  6
  5  6  2  0
  5 11  1  0
  6  7  1  0
  6 34  1  0
  7  8  2  0
  7 35  1  0
  8  9  1  0
  8 10  1  0
 10 11  2  0
 10 36  1  0
 11 37  1  0
 12 13  2  0
 12 29  1  0
 13 14  1  0
 13 30  1  0
 14 15  2  0
 14 19  1  0
 15 16  1  0
 15 38  1  0
 16 17  2  0
 16 39  1  0
 17 18  1  0
 17 40  1  0
 18 19  2  0
 18 41  1  0
 19 20  1  0
 20 21  1  0
 20 29  2  0
 21 22  2  0
 22 23  1  0
 22 27  1  0
 23 24  2  0
 23 42  1  0
 24 25  1  0
 24 43  1  0
 25 26  2  0
 25 44  1  0
 26 27  1  0
 26 45  1  0
 27 28  2  0
 28 29  1  0
M  END

