
     RDKit          3D

 57 59  0  0  0  0  0  0  0  0999 V2000
    2.2873    2.9879    1.9180 C   0  0  0  0  0  0  0  0  0  0  0  0
    3.4480    2.0454    1.5934 C   0  0  0  0  0  0  0  0  0  0  0  0
    3.0390    0.6728    1.0285 C   0  0  1  0  0  0  0  0  0  0  0  0
    2.5150    0.7621   -0.4197 C   0  0  0  0  0  0  0  0  0  0  0  0
    1.6974   -0.4432   -0.8935 C   0  0  0  0  0  0  0  0  0  0  0  0
    4.2181   -0.3201    1.1255 C   0  0  0  0  0  0  0  0  0  0  0  0
    4.6143   -0.6223    2.4990 N   0  0  0  0  0  0  0  0  0  0  0  0
    3.8108   -1.6409    3.1647 C   0  0  0  0  0  0  0  0  0  0  0  0
    4.1866   -3.0894    2.7847 C   0  0  0  0  0  0  0  0  0  0  0  0
    5.6925   -3.3931    2.9764 C   0  0  1  0  0  0  0  0  0  0  0  0
    6.4981   -2.2702    2.3004 C   0  0  0  0  0  0  0  0  0  0  0  0
    6.0354   -0.8642    2.7189 C   0  0  0  0  0  0  0  0  0  0  0  0
    6.0856   -3.5538    4.4638 C   0  0  0  0  0  0  0  0  0  0  0  0
    5.5818   -4.8629    5.0946 C   0  0  2  0  0  0  0  0  0  0  0  0
    6.0812   -4.9937    6.5422 C   0  0  0  0  0  0  0  0  0  0  0  0
    5.4665   -6.1283    7.2939 C   0  0  0  0  0  0  0  0  0  0  0  0
    4.2737   -6.6337    7.1810 N   0  0  0  0  0  0  0  0  0  0  0  0
    4.2639   -7.6130    8.1513 C   0  0  0  0  0  0  0  0  0  0  0  0
    3.0905   -8.4920    8.4207 C   0  0  0  0  0  0  0  0  0  0  0  0
    5.3847   -7.7071    8.8218 N   0  0  0  0  0  0  0  0  0  0  0  0
    6.1897   -6.7221    8.2531 O   0  0  0  0  0  0  0  0  0  0  0  0
    6.0030   -6.0446    4.2105 C   0  0  0  0  0  0  0  0  0  0  0  0
    5.5704   -5.8036    2.7662 C   0  0  0  0  0  0  0  0  0  0  0  0
    6.0670   -4.5795    2.2611 O   0  0  0  0  0  0  0  0  0  0  0  0
    2.6544    3.9420    2.3296 H   0  0  0  0  0  0  0  0  0  0  0  0
    1.6117    2.5435    2.6684 H   0  0  0  0  0  0  0  0  0  0  0  0
    1.6794    3.2304    1.0308 H   0  0  0  0  0  0  0  0  0  0  0  0
    4.0329    1.8650    2.5097 H   0  0  0  0  0  0  0  0  0  0  0  0
    4.1354    2.5337    0.8765 H   0  0  0  0  0  0  0  0  0  0  0  0
    2.2161    0.2835    1.6591 H   0  0  0  0  0  0  0  0  0  0  0  0
    3.3739    0.9206   -1.0988 H   0  0  0  0  0  0  0  0  0  0  0  0
    1.8905    1.6653   -0.5198 H   0  0  0  0  0  0  0  0  0  0  0  0
    2.2747   -1.3811   -0.8616 H   0  0  0  0  0  0  0  0  0  0  0  0
    1.3545   -0.3078   -1.9320 H   0  0  0  0  0  0  0  0  0  0  0  0
    0.8015   -0.5861   -0.2660 H   0  0  0  0  0  0  0  0  0  0  0  0
    5.0840    0.1360    0.6157 H   0  0  0  0  0  0  0  0  0  0  0  0
    3.9776   -1.2346    0.5458 H   0  0  0  0  0  0  0  0  0  0  0  0
    2.7466   -1.4679    2.9416 H   0  0  0  0  0  0  0  0  0  0  0  0
    3.9145   -1.5058    4.2572 H   0  0  0  0  0  0  0  0  0  0  0  0
    3.9578   -3.2681    1.7208 H   0  0  0  0  0  0  0  0  0  0  0  0
    3.5553   -3.7843    3.3614 H   0  0  0  0  0  0  0  0  0  0  0  0
    6.3763   -2.3970    1.2120 H   0  0  0  0  0  0  0  0  0  0  0  0
    7.5707   -2.4090    2.5158 H   0  0  0  0  0  0  0  0  0  0  0  0
    6.6171   -0.1012    2.1780 H   0  0  0  0  0  0  0  0  0  0  0  0
    6.2493   -0.7074    3.7925 H   0  0  0  0  0  0  0  0  0  0  0  0
    5.7247   -2.6927    5.0495 H   0  0  0  0  0  0  0  0  0  0  0  0
    7.1883   -3.5358    4.5250 H   0  0  0  0  0  0  0  0  0  0  0  0
    4.4790   -4.8457    5.1369 H   0  0  0  0  0  0  0  0  0  0  0  0
    5.8521   -4.0641    7.0951 H   0  0  0  0  0  0  0  0  0  0  0  0
    7.1770   -5.1070    6.5763 H   0  0  0  0  0  0  0  0  0  0  0  0
    2.2150   -7.8843    8.6977 H   0  0  0  0  0  0  0  0  0  0  0  0
    3.3176   -9.1932    9.2341 H   0  0  0  0  0  0  0  0  0  0  0  0
    2.8232   -9.0589    7.5153 H   0  0  0  0  0  0  0  0  0  0  0  0
    5.5649   -6.9873    4.5773 H   0  0  0  0  0  0  0  0  0  0  0  0
    7.1024   -6.1527    4.2422 H   0  0  0  0  0  0  0  0  0  0  0  0
    4.4651   -5.8472    2.6930 H   0  0  0  0  0  0  0  0  0  0  0  0
    5.9680   -6.5870    2.1024 H   0  0  0  0  0  0  0  0  0  0  0  0
  1  2  1  0
  1 25  1  0
  1 26  1  0
  1 27  1  0
  2  3  1  0
  2 28  1  0
  2 29  1  0
  3  4  1  0
  3  6  1  0
  3 30  1  1
  4  5  1  0
  4 31  1  0
  4 32  1  0
  5 33  1  0
  5 34  1  0
  5 35  1  0
  6  7  1  0
  6 36  1  0
  6 37  1  0
  7  8  1  0
  7 12  1  0
  8  9  1  0
  8 38  1  0
  8 39  1  0
  9 10  1  0
  9 40  1  0
  9 41  1  0
 10 11  1  0
 10 13  1  0
 10 24  1  6
 11 12  1  0
 11 42  1  0
 11 43  1  0
 12 44  1  0
 12 45  1  0
 13 14  1  0
 13 46  1  0
 13 47  1  0
 14 15  1  0
 14 22  1  0
 14 48  1  1
 15 16  1  0
 15 49  1  0
 15 50  1  0
 16 17  2  0
 16 21  1  0
 17 18  1  0
 18 19  1  0
 18 20  2  0
 19 51  1  0
 19 52  1  0
 19 53  1  0
 20 21  1  0
 22 23  1  0
 22 54  1  0
 22 55  1  0
 23 24  1  0
 23 56  1  0
 23 57  1  0
M  END

