
     RDKit          3D

 61 63  0  0  0  0  0  0  0  0999 V2000
    4.1753   -2.6789    0.9553 C   0  0  0  0  0  0  0  0  0  0  0  0
    4.4980   -1.3206    0.5578 N   0  0  0  0  0  0  0  0  0  0  0  0
    4.6930   -0.4003    1.6592 C   0  0  0  0  0  0  0  0  0  0  0  0
    5.2543    0.9298    1.1497 C   0  0  0  0  0  0  0  0  0  0  0  0
    5.5165    1.8729    2.2241 N   0  0  0  0  0  0  0  0  0  0  0  0
    4.8828    3.0468    2.4840 C   0  0  0  0  0  0  0  0  0  0  0  0
    5.4651    3.5875    3.6279 C   0  0  0  0  0  0  0  0  0  0  0  0
    5.1478    4.8535    4.3285 C   0  0  0  0  0  0  0  0  0  0  0  0
    5.0823    6.0883    3.6292 C   0  0  0  0  0  0  0  0  0  0  0  0
    5.3171    6.1815    2.1421 C   0  0  0  0  0  0  0  0  0  0  0  0
    4.8220    7.2460    4.3830 C   0  0  0  0  0  0  0  0  0  0  0  0
    4.6872    8.8105    3.5913 Cl  0  0  0  0  0  0  0  0  0  0  0  0
    4.6867    7.2189    5.7692 C   0  0  0  0  0  0  0  0  0  0  0  0
    4.7581    6.0134    6.4718 C   0  0  0  0  0  0  0  0  0  0  0  0
    4.6105    6.0371    7.9911 C   0  0  1  0  0  0  0  0  0  0  0  0
    3.2007    5.6483    8.4722 C   0  0  0  0  0  0  0  0  0  0  0  0
    5.6525    5.2414    8.6318 N   0  0  0  0  0  0  0  0  0  0  0  0
    6.2301    5.5697    9.8217 C   0  0  0  0  0  0  0  0  0  0  0  0
    5.8275    6.7147   10.4099 N   0  0  0  0  0  0  0  0  0  0  0  0
    6.3744    7.0073   11.5842 C   0  0  0  0  0  0  0  0  0  0  0  0
    7.2525    6.2915   12.2718 N   0  0  0  0  0  0  0  0  0  0  0  0
    7.6676    5.1426   11.6975 C   0  0  0  0  0  0  0  0  0  0  0  0
    8.5594    4.4105   12.4248 N   0  0  0  0  0  0  0  0  0  0  0  0
    7.2076    4.7313   10.4234 C   0  0  0  0  0  0  0  0  0  0  0  0
    7.7577    3.5029    9.7682 C   0  0  0  0  0  0  0  0  0  0  0  0
    8.5327    3.6868    8.4818 C   0  0  0  0  0  0  0  0  0  0  0  0
    7.6833    2.3275   10.2751 N   0  0  0  0  0  0  0  0  0  0  0  0
    4.9545    4.8338    5.7310 C   0  0  0  0  0  0  0  0  0  0  0  0
    5.0317    3.6434    6.4299 O   0  0  0  0  0  0  0  0  0  0  0  0
    3.9575    2.7190    6.2813 C   0  0  0  0  0  0  0  0  0  0  0  0
    6.4567    2.6249    3.9740 C   0  0  0  0  0  0  0  0  0  0  0  0
    6.4785    1.6073    3.1226 N   0  0  0  0  0  0  0  0  0  0  0  0
    4.0163   -3.3026    0.0618 H   0  0  0  0  0  0  0  0  0  0  0  0
    3.2725   -2.7706    1.6000 H   0  0  0  0  0  0  0  0  0  0  0  0
    5.0196   -3.1152    1.5147 H   0  0  0  0  0  0  0  0  0  0  0  0
    3.7824   -0.9659   -0.0760 H   0  0  0  0  0  0  0  0  0  0  0  0
    5.4285   -0.8312    2.3580 H   0  0  0  0  0  0  0  0  0  0  0  0
    3.7724   -0.2044    2.2572 H   0  0  0  0  0  0  0  0  0  0  0  0
    4.5483    1.4116    0.4547 H   0  0  0  0  0  0  0  0  0  0  0  0
    6.1887    0.7395    0.6004 H   0  0  0  0  0  0  0  0  0  0  0  0
    4.0715    3.4071    1.8553 H   0  0  0  0  0  0  0  0  0  0  0  0
    5.9609    5.3670    1.7868 H   0  0  0  0  0  0  0  0  0  0  0  0
    5.7832    7.1412    1.8825 H   0  0  0  0  0  0  0  0  0  0  0  0
    4.3689    6.1294    1.5785 H   0  0  0  0  0  0  0  0  0  0  0  0
    4.5276    8.1554    6.3069 H   0  0  0  0  0  0  0  0  0  0  0  0
    4.7834    7.0703    8.3199 H   0  0  0  0  0  0  0  0  0  0  0  0
    2.9754    4.5925    8.2596 H   0  0  0  0  0  0  0  0  0  0  0  0
    2.4361    6.2701    7.9804 H   0  0  0  0  0  0  0  0  0  0  0  0
    3.1302    5.8069    9.5589 H   0  0  0  0  0  0  0  0  0  0  0  0
    5.7895    4.3121    8.2497 H   0  0  0  0  0  0  0  0  0  0  0  0
    6.0541    7.9522   12.0436 H   0  0  0  0  0  0  0  0  0  0  0  0
    8.9496    4.8569   13.2445 H   0  0  0  0  0  0  0  0  0  0  0  0
    9.0351    3.6154   12.0209 H   0  0  0  0  0  0  0  0  0  0  0  0
    9.4696    4.2299    8.6951 H   0  0  0  0  0  0  0  0  0  0  0  0
    7.9788    4.2961    7.7523 H   0  0  0  0  0  0  0  0  0  0  0  0
    8.7761    2.7075    8.0479 H   0  0  0  0  0  0  0  0  0  0  0  0
    7.1396    2.3585   11.1474 H   0  0  0  0  0  0  0  0  0  0  0  0
    4.1686    1.8815    6.9605 H   0  0  0  0  0  0  0  0  0  0  0  0
    3.8898    2.3374    5.2511 H   0  0  0  0  0  0  0  0  0  0  0  0
    2.9949    3.1803    6.5604 H   0  0  0  0  0  0  0  0  0  0  0  0
    7.1494    2.6551    4.8137 H   0  0  0  0  0  0  0  0  0  0  0  0
  1  2  1  0
  1 33  1  0
  1 34  1  0
  1 35  1  0
  2  3  1  0
  2 36  1  0
  3  4  1  0
  3 37  1  0
  3 38  1  0
  4  5  1  0
  4 39  1  0
  4 40  1  0
  5  6  1  0
  5 32  1  0
  6  7  2  0
  6 41  1  0
  7  8  1  0
  7 31  1  0
  8  9  2  0
  8 28  1  0
  9 10  1  0
  9 11  1  0
 10 42  1  0
 10 43  1  0
 10 44  1  0
 11 12  1  0
 11 13  2  0
 13 14  1  0
 13 45  1  0
 14 15  1  0
 14 28  2  0
 15 16  1  0
 15 17  1  0
 15 46  1  1
 16 47  1  0
 16 48  1  0
 16 49  1  0
 17 18  1  0
 17 50  1  0
 18 19  2  0
 18 24  1  0
 19 20  1  0
 20 21  2  0
 20 51  1  0
 21 22  1  0
 22 23  1  0
 22 24  2  0
 23 52  1  0
 23 53  1  0
 24 25  1  0
 25 26  1  0
 25 27  2  0
 26 54  1  0
 26 55  1  0
 26 56  1  0
 27 57  1  0
 28 29  1  0
 29 30  1  0
 30 58  1  0
 30 59  1  0
 30 60  1  0
 31 32  2  0
 31 61  1  0
M  END

