
     RDKit          3D

 27 30  0  0  0  0  0  0  0  0999 V2000
    1.0901    0.2309   -0.0625 O   0  0  0  0  0  0  0  0  0  0  0  0
    2.3200   -0.0098   -0.0628 C   0  0  0  0  0  0  0  0  0  0  0  0
    3.1390   -1.1896   -0.0630 C   0  0  0  0  0  0  0  0  0  0  0  0
    2.7924   -2.5563   -0.0628 C   0  0  0  0  0  0  0  0  0  0  0  0
    3.8141   -3.4939   -0.0630 C   0  0  0  0  0  0  0  0  0  0  0  0
    5.1787   -3.0965   -0.0634 C   0  0  0  0  0  0  0  0  0  0  0  0
    5.5385   -1.7542   -0.0636 C   0  0  0  0  0  0  0  0  0  0  0  0
    4.5232   -0.7845   -0.0634 C   0  0  0  0  0  0  0  0  0  0  0  0
    4.5812    0.6513   -0.0635 C   0  0  0  0  0  0  0  0  0  0  0  0
    5.5558    1.5226   -0.0638 N   0  0  0  0  0  0  0  0  0  0  0  0
    5.2182    2.8429   -0.0638 C   0  0  0  0  0  0  0  0  0  0  0  0
    6.2511    3.8190   -0.0642 C   0  0  0  0  0  0  0  0  0  0  0  0
    5.9586    5.1698   -0.0642 C   0  0  0  0  0  0  0  0  0  0  0  0
    4.6197    5.6305   -0.0639 C   0  0  0  0  0  0  0  0  0  0  0  0
    3.5824    4.7167   -0.0635 C   0  0  0  0  0  0  0  0  0  0  0  0
    3.8600    3.3304   -0.0635 C   0  0  0  0  0  0  0  0  0  0  0  0
    2.7931    2.3521   -0.0631 C   0  0  0  0  0  0  0  0  0  0  0  0
    1.5642    2.5741   -0.0628 O   0  0  0  0  0  0  0  0  0  0  0  0
    3.2259    1.0620   -0.0631 N   0  0  0  0  0  0  0  0  0  0  0  0
    1.7443   -2.8626   -0.0625 H   0  0  0  0  0  0  0  0  0  0  0  0
    3.5691   -4.5586   -0.0629 H   0  0  0  0  0  0  0  0  0  0  0  0
    5.9564   -3.8637   -0.0636 H   0  0  0  0  0  0  0  0  0  0  0  0
    6.5866   -1.4473   -0.0639 H   0  0  0  0  0  0  0  0  0  0  0  0
    7.2803    3.4559   -0.0644 H   0  0  0  0  0  0  0  0  0  0  0  0
    6.7760    5.8958   -0.0645 H   0  0  0  0  0  0  0  0  0  0  0  0
    4.4089    6.7018   -0.0639 H   0  0  0  0  0  0  0  0  0  0  0  0
    2.5422    5.0481   -0.0632 H   0  0  0  0  0  0  0  0  0  0  0  0
  1  2  2  0
  2  3  1  0
  2 19  1  0
  3  4  2  0
  3  8  1  0
  4  5  1  0
  4 20  1  0
  5  6  2  0
  5 21  1  0
  6  7  1  0
  6 22  1  0
  7  8  2  0
  7 23  1  0
  8  9  1  0
  9 10  2  0
  9 19  1  0
 10 11  1  0
 11 12  2  0
 11 16  1  0
 12 13  1  0
 12 24  1  0
 13 14  2  0
 13 25  1  0
 14 15  1  0
 14 26  1  0
 15 16  2  0
 15 27  1  0
 16 17  1  0
 17 18  2  0
 17 19  1  0
M  END

