
     RDKit          3D

 37 39  0  0  0  0  0  0  0  0999 V2000
    3.0381    2.1391   -3.1994 N   0  0  0  0  0  0  0  0  0  0  0  0
    2.3712    2.0425   -1.9056 C   0  0  0  0  0  0  0  0  0  0  0  0
    2.9156    0.8656   -1.0858 C   0  0  0  0  0  0  0  0  0  0  0  0
    4.4309    0.9315   -0.8064 C   0  0  1  0  0  0  0  0  0  0  0  0
    4.8242    2.0174    0.2123 C   0  0  0  0  0  0  0  0  0  0  0  0
    4.4566    1.6326    1.6648 C   0  0  0  0  0  0  0  0  0  0  0  0
    4.9785    0.3263    1.9868 N   0  0  0  0  0  0  0  0  0  0  0  0
    5.8884    0.1555    3.0446 C   0  0  0  0  0  0  0  0  0  0  0  0
    6.4224   -1.0540    3.2836 N   0  0  0  0  0  0  0  0  0  0  0  0
    7.2265   -0.8089    4.3525 C   0  0  0  0  0  0  0  0  0  0  0  0
    8.0678   -1.6496    5.0958 C   0  0  0  0  0  0  0  0  0  0  0  0
    8.7844   -1.0611    6.1807 C   0  0  0  0  0  0  0  0  0  0  0  0
    8.6228    0.3109    6.4582 C   0  0  0  0  0  0  0  0  0  0  0  0
    9.5875    1.0755    7.9144 Br  0  0  0  0  0  0  0  0  0  0  0  0
    7.7965    1.1534    5.7323 C   0  0  0  0  0  0  0  0  0  0  0  0
    7.1112    0.5283    4.6700 N   0  0  0  0  0  0  0  0  0  0  0  0
    6.2358    1.1691    3.8177 N   0  0  0  0  0  0  0  0  0  0  0  0
    4.6394   -0.7668    1.1079 C   0  0  0  0  0  0  0  0  0  0  0  0
    5.0161   -0.4164   -0.3509 C   0  0  0  0  0  0  0  0  0  0  0  0
    2.7817    3.0006   -3.6799 H   0  0  0  0  0  0  0  0  0  0  0  0
    2.7530    1.3719   -3.8098 H   0  0  0  0  0  0  0  0  0  0  0  0
    1.2670    1.9375   -1.9698 H   0  0  0  0  0  0  0  0  0  0  0  0
    2.5484    2.9871   -1.3628 H   0  0  0  0  0  0  0  0  0  0  0  0
    2.7015   -0.0678   -1.6383 H   0  0  0  0  0  0  0  0  0  0  0  0
    2.3333    0.7937   -0.1497 H   0  0  0  0  0  0  0  0  0  0  0  0
    4.8990    1.1967   -1.7692 H   0  0  0  0  0  0  0  0  0  0  0  0
    4.3471    2.9825   -0.0179 H   0  0  0  0  0  0  0  0  0  0  0  0
    5.9125    2.1860    0.1724 H   0  0  0  0  0  0  0  0  0  0  0  0
    3.3547    1.5992    1.7713 H   0  0  0  0  0  0  0  0  0  0  0  0
    4.8533    2.3490    2.3927 H   0  0  0  0  0  0  0  0  0  0  0  0
    8.1521   -2.7026    4.8367 H   0  0  0  0  0  0  0  0  0  0  0  0
    9.4541   -1.6597    6.7966 H   0  0  0  0  0  0  0  0  0  0  0  0
    7.6226    2.2112    5.8945 H   0  0  0  0  0  0  0  0  0  0  0  0
    3.5472   -0.9394    1.1740 H   0  0  0  0  0  0  0  0  0  0  0  0
    5.1601   -1.6613    1.4679 H   0  0  0  0  0  0  0  0  0  0  0  0
    4.6756   -1.2376   -1.0018 H   0  0  0  0  0  0  0  0  0  0  0  0
    6.1162   -0.3878   -0.4157 H   0  0  0  0  0  0  0  0  0  0  0  0
  1  2  1  0
  1 20  1  0
  1 21  1  0
  2  3  1  0
  2 22  1  0
  2 23  1  0
  3  4  1  0
  3 24  1  0
  3 25  1  0
  4  5  1  0
  4 19  1  0
  4 26  1  6
  5  6  1  0
  5 27  1  0
  5 28  1  0
  6  7  1  0
  6 29  1  0
  6 30  1  0
  7  8  1  0
  7 18  1  0
  8  9  1  0
  8 17  2  0
  9 10  2  0
 10 11  1  0
 10 16  1  0
 11 12  2  0
 11 31  1  0
 12 13  1  0
 12 32  1  0
 13 14  1  0
 13 15  2  0
 15 16  1  0
 15 33  1  0
 16 17  1  0
 18 19  1  0
 18 34  1  0
 18 35  1  0
 19 36  1  0
 19 37  1  0
M  END

