
     RDKit          3D

 87 98  0  0  0  0  0  0  0  0999 V2000
    1.2059    0.0057    0.1257 F   0  0  0  0  0  0  0  0  0  0  0  0
    2.5238    0.0743   -0.0197 C   0  0  0  0  0  0  0  0  0  0  0  0
    3.1275    1.3394   -0.0849 C   0  0  0  0  0  0  0  0  0  0  0  0
    2.3731    2.5204   -0.0246 N   0  0  0  0  0  0  0  0  0  0  0  0
    2.5167    3.5358    0.9358 C   0  0  0  0  0  0  0  0  0  0  0  0
    3.3841    3.6099    2.0293 C   0  0  0  0  0  0  0  0  0  0  0  0
    3.3020    4.7375    2.8482 C   0  0  0  0  0  0  0  0  0  0  0  0
    2.3771    5.7649    2.5886 C   0  0  0  0  0  0  0  0  0  0  0  0
    1.5092    5.6806    1.5004 C   0  0  0  0  0  0  0  0  0  0  0  0
    1.5727    4.5585    0.6625 C   0  0  0  0  0  0  0  0  0  0  0  0
    0.8309    4.1472   -0.5160 C   0  0  0  0  0  0  0  0  0  0  0  0
   -0.1997    4.7351   -1.2625 C   0  0  0  0  0  0  0  0  0  0  0  0
   -0.6946    4.0657   -2.3814 C   0  0  0  0  0  0  0  0  0  0  0  0
   -0.1661    2.8190   -2.7619 C   0  0  0  0  0  0  0  0  0  0  0  0
    0.8606    2.2132   -2.0355 C   0  0  0  0  0  0  0  0  0  0  0  0
    1.3468    2.8861   -0.9108 C   0  0  0  0  0  0  0  0  0  0  0  0
    4.5257    1.3635   -0.2125 C   0  0  0  0  0  0  0  0  0  0  0  0
    5.1303    2.5405   -0.3110 F   0  0  0  0  0  0  0  0  0  0  0  0
    5.3066    0.1999   -0.2531 C   0  0  0  0  0  0  0  0  0  0  0  0
    6.6998    0.3336   -0.4256 N   0  0  0  0  0  0  0  0  0  0  0  0
    7.6038    0.7769    0.5445 C   0  0  0  0  0  0  0  0  0  0  0  0
    7.3695    1.1371    1.8742 C   0  0  0  0  0  0  0  0  0  0  0  0
    8.4639    1.5450    2.6385 C   0  0  0  0  0  0  0  0  0  0  0  0
    9.7606    1.5888    2.0937 C   0  0  0  0  0  0  0  0  0  0  0  0
    9.9875    1.2205    0.7679 C   0  0  0  0  0  0  0  0  0  0  0  0
    8.9045    0.8094   -0.0218 C   0  0  0  0  0  0  0  0  0  0  0  0
    8.7750    0.3637   -1.3974 C   0  0  0  0  0  0  0  0  0  0  0  0
    9.6821    0.1887   -2.4516 C   0  0  0  0  0  0  0  0  0  0  0  0
    9.2126   -0.2593   -3.6866 C   0  0  0  0  0  0  0  0  0  0  0  0
    7.8458   -0.5308   -3.8790 C   0  0  0  0  0  0  0  0  0  0  0  0
    6.9206   -0.3643   -2.8460 C   0  0  0  0  0  0  0  0  0  0  0  0
    7.3999    0.0804   -1.6100 C   0  0  0  0  0  0  0  0  0  0  0  0
    4.6649   -1.0597   -0.1944 C   0  0  0  0  0  0  0  0  0  0  0  0
    5.4644   -2.2909   -0.2246 C   0  0  0  0  0  0  0  0  0  0  0  0
    6.5749   -2.5441    0.4003 N   0  0  0  0  0  0  0  0  0  0  0  0
    6.9312   -3.8277    0.0699 N   0  0  0  0  0  0  0  0  0  0  0  0
    6.0158   -4.2814   -0.7400 C   0  0  0  0  0  0  0  0  0  0  0  0
    5.9348   -5.5901   -1.3796 C   0  0  0  0  0  0  0  0  0  0  0  0
    6.9647   -6.5230   -1.1560 C   0  0  0  0  0  0  0  0  0  0  0  0
    6.9066   -7.7787   -1.7572 C   0  0  0  0  0  0  0  0  0  0  0  0
    5.8272   -8.1155   -2.5830 C   0  0  0  0  0  0  0  0  0  0  0  0
    4.8024   -7.1903   -2.8056 C   0  0  0  0  0  0  0  0  0  0  0  0
    4.8510   -5.9299   -2.2081 C   0  0  0  0  0  0  0  0  0  0  0  0
    5.0516   -3.3507   -0.9688 O   0  0  0  0  0  0  0  0  0  0  0  0
    3.2559   -1.1190   -0.0870 C   0  0  0  0  0  0  0  0  0  0  0  0
    2.5590   -2.3423    0.0239 N   0  0  0  0  0  0  0  0  0  0  0  0
    1.7351   -2.8995   -0.9579 C   0  0  0  0  0  0  0  0  0  0  0  0
    1.4517   -2.4329   -2.2454 C   0  0  0  0  0  0  0  0  0  0  0  0
    0.5949   -3.1977   -3.0394 C   0  0  0  0  0  0  0  0  0  0  0  0
    0.0365   -4.3993   -2.5649 C   0  0  0  0  0  0  0  0  0  0  0  0
    0.3298   -4.8624   -1.2820 C   0  0  0  0  0  0  0  0  0  0  0  0
    1.1871   -4.1127   -0.4639 C   0  0  0  0  0  0  0  0  0  0  0  0
    1.7049   -4.2901    0.8811 C   0  0  0  0  0  0  0  0  0  0  0  0
    1.5299   -5.2713    1.8673 C   0  0  0  0  0  0  0  0  0  0  0  0
    2.1898   -5.1321    3.0881 C   0  0  0  0  0  0  0  0  0  0  0  0
    3.0201   -4.0230    3.3333 C   0  0  0  0  0  0  0  0  0  0  0  0
    3.2105   -3.0305    2.3698 C   0  0  0  0  0  0  0  0  0  0  0  0
    2.5473   -3.1785    1.1475 C   0  0  0  0  0  0  0  0  0  0  0  0
    4.1060    2.8205    2.2433 H   0  0  0  0  0  0  0  0  0  0  0  0
    3.9722    4.8206    3.7073 H   0  0  0  0  0  0  0  0  0  0  0  0
    2.3387    6.6346    3.2485 H   0  0  0  0  0  0  0  0  0  0  0  0
    0.7865    6.4764    1.3041 H   0  0  0  0  0  0  0  0  0  0  0  0
   -0.6070    5.7068   -0.9727 H   0  0  0  0  0  0  0  0  0  0  0  0
   -1.4986    4.5126   -2.9707 H   0  0  0  0  0  0  0  0  0  0  0  0
   -0.5655    2.3111   -3.6432 H   0  0  0  0  0  0  0  0  0  0  0  0
    1.2610    1.2458   -2.3414 H   0  0  0  0  0  0  0  0  0  0  0  0
    6.3686    1.0906    2.3082 H   0  0  0  0  0  0  0  0  0  0  0  0
    8.3091    1.8309    3.6819 H   0  0  0  0  0  0  0  0  0  0  0  0
   10.5966    1.9106    2.7190 H   0  0  0  0  0  0  0  0  0  0  0  0
   10.9970    1.2494    0.3501 H   0  0  0  0  0  0  0  0  0  0  0  0
   10.7442    0.4017   -2.3073 H   0  0  0  0  0  0  0  0  0  0  0  0
    9.9111   -0.4003   -4.5146 H   0  0  0  0  0  0  0  0  0  0  0  0
    7.4981   -0.8779   -4.8553 H   0  0  0  0  0  0  0  0  0  0  0  0
    5.8607   -0.5742   -3.0040 H   0  0  0  0  0  0  0  0  0  0  0  0
    7.7988   -6.2443   -0.5096 H   0  0  0  0  0  0  0  0  0  0  0  0
    7.7079   -8.5006   -1.5816 H   0  0  0  0  0  0  0  0  0  0  0  0
    5.7853   -9.1015   -3.0528 H   0  0  0  0  0  0  0  0  0  0  0  0
    3.9576   -7.4512   -3.4476 H   0  0  0  0  0  0  0  0  0  0  0  0
    4.0494   -5.2091   -2.3788 H   0  0  0  0  0  0  0  0  0  0  0  0
    1.8881   -1.5061   -2.6232 H   0  0  0  0  0  0  0  0  0  0  0  0
    0.3551   -2.8547   -4.0490 H   0  0  0  0  0  0  0  0  0  0  0  0
   -0.6323   -4.9736   -3.2102 H   0  0  0  0  0  0  0  0  0  0  0  0
   -0.1027   -5.7980   -0.9190 H   0  0  0  0  0  0  0  0  0  0  0  0
    0.8840   -6.1331    1.6820 H   0  0  0  0  0  0  0  0  0  0  0  0
    2.0627   -5.8908    3.8637 H   0  0  0  0  0  0  0  0  0  0  0  0
    3.5292   -3.9339    4.2961 H   0  0  0  0  0  0  0  0  0  0  0  0
    3.8581   -2.1744    2.5677 H   0  0  0  0  0  0  0  0  0  0  0  0
  1  2  1  0
  2  3  2  0
  2 45  1  0
  3  4  1  0
  3 17  1  0
  4  5  1  0
  4 16  1  0
  5  6  2  0
  5 10  1  0
  6  7  1  0
  6 59  1  0
  7  8  2  0
  7 60  1  0
  8  9  1  0
  8 61  1  0
  9 10  2  0
  9 62  1  0
 10 11  1  0
 11 12  1  0
 11 16  2  0
 12 13  2  0
 12 63  1  0
 13 14  1  0
 13 64  1  0
 14 15  2  0
 14 65  1  0
 15 16  1  0
 15 66  1  0
 17 18  1  0
 17 19  2  0
 19 20  1  0
 19 33  1  0
 20 21  1  0
 20 32  1  0
 21 22  2  0
 21 26  1  0
 22 23  1  0
 22 67  1  0
 23 24  2  0
 23 68  1  0
 24 25  1  0
 24 69  1  0
 25 26  2  0
 25 70  1  0
 26 27  1  0
 27 28  1  0
 27 32  2  0
 28 29  2  0
 28 71  1  0
 29 30  1  0
 29 72  1  0
 30 31  2  0
 30 73  1  0
 31 32  1  0
 31 74  1  0
 33 34  1  0
 33 45  2  0
 34 35  2  0
 34 44  1  0
 35 36  1  0
 36 37  2  0
 37 38  1  0
 37 44  1  0
 38 39  2  0
 38 43  1  0
 39 40  1  0
 39 75  1  0
 40 41  2  0
 40 76  1  0
 41 42  1  0
 41 77  1  0
 42 43  2  0
 42 78  1  0
 43 79  1  0
 45 46  1  0
 46 47  1  0
 46 58  1  0
 47 48  2  0
 47 52  1  0
 48 49  1  0
 48 80  1  0
 49 50  2  0
 49 81  1  0
 50 51  1  0
 50 82  1  0
 51 52  2  0
 51 83  1  0
 52 53  1  0
 53 54  1  0
 53 58  2  0
 54 55  2  0
 54 84  1  0
 55 56  1  0
 55 85  1  0
 56 57  2  0
 56 86  1  0
 57 58  1  0
 57 87  1  0
M  END

