
     RDKit          3D

 39 41  0  0  0  0  0  0  0  0999 V2000
    2.1417    0.2317    0.5502 O   0  0  0  0  0  0  0  0  0  0  0  0
    3.2347    0.0832    0.0326 C   0  0  0  0  0  0  0  0  0  0  0  0
    4.0530   -1.0026    0.4237 N   0  0  0  0  0  0  0  0  0  0  0  0
    3.6054   -1.8591    1.4753 C   0  0  0  0  0  0  0  0  0  0  0  0
    3.7919   -3.3315    1.2119 C   0  0  0  0  0  0  0  0  0  0  0  0
    3.7092   -3.8273   -0.1404 C   0  0  0  0  0  0  0  0  0  0  0  0
    3.8262   -5.1571   -0.4697 C   0  0  0  0  0  0  0  0  0  0  0  0
    3.9541   -6.0173    0.6151 C   0  0  0  0  0  0  0  0  0  0  0  0
    4.0323   -5.5402    1.9635 C   0  0  0  0  0  0  0  0  0  0  0  0
    3.9855   -4.1981    2.2827 C   0  0  0  0  0  0  0  0  0  0  0  0
    3.9637   -6.5841    2.7836 O   0  0  0  0  0  0  0  0  0  0  0  0
    4.0320   -7.7583    1.9826 C   0  0  0  0  0  0  0  0  0  0  0  0
    3.8434   -7.3364    0.6313 O   0  0  0  0  0  0  0  0  0  0  0  0
    3.7935    0.8857   -0.9122 N   0  0  0  0  0  0  0  0  0  0  0  0
    3.0801    1.9341   -1.5250 N   0  0  0  0  0  0  0  0  0  0  0  0
    3.1043    3.2178   -0.7814 C   0  0  0  0  0  0  0  0  0  0  0  0
    2.3956    4.3042   -1.5370 C   0  0  0  0  0  0  0  0  0  0  0  0
    2.5732    4.4907   -2.9698 C   0  0  0  0  0  0  0  0  0  0  0  0
    1.9473    5.5197   -3.6307 C   0  0  0  0  0  0  0  0  0  0  0  0
    1.0961    6.4580   -2.9459 C   0  0  0  0  0  0  0  0  0  0  0  0
    0.9276    6.2618   -1.5280 C   0  0  0  0  0  0  0  0  0  0  0  0
   -0.1182    7.3904   -0.6431 Cl  0  0  0  0  0  0  0  0  0  0  0  0
    1.5341    5.2410   -0.8469 C   0  0  0  0  0  0  0  0  0  0  0  0
    5.0195   -1.0467    0.1224 H   0  0  0  0  0  0  0  0  0  0  0  0
    2.5314   -1.6295    1.6206 H   0  0  0  0  0  0  0  0  0  0  0  0
    4.0935   -1.6124    2.4384 H   0  0  0  0  0  0  0  0  0  0  0  0
    3.5220   -3.0932   -0.9241 H   0  0  0  0  0  0  0  0  0  0  0  0
    3.7837   -5.5272   -1.4934 H   0  0  0  0  0  0  0  0  0  0  0  0
    4.1851   -3.8425    3.2924 H   0  0  0  0  0  0  0  0  0  0  0  0
    3.2489   -8.4707    2.2730 H   0  0  0  0  0  0  0  0  0  0  0  0
    5.0259   -8.2237    2.0832 H   0  0  0  0  0  0  0  0  0  0  0  0
    4.5007    0.4705   -1.5134 H   0  0  0  0  0  0  0  0  0  0  0  0
    2.1076    1.6427   -1.6413 H   0  0  0  0  0  0  0  0  0  0  0  0
    4.1857    3.4553   -0.6313 H   0  0  0  0  0  0  0  0  0  0  0  0
    2.6541    3.1177    0.2251 H   0  0  0  0  0  0  0  0  0  0  0  0
    3.2075    3.7927   -3.5222 H   0  0  0  0  0  0  0  0  0  0  0  0
    2.0982    5.6343   -4.7097 H   0  0  0  0  0  0  0  0  0  0  0  0
    0.5974    7.2761   -3.4618 H   0  0  0  0  0  0  0  0  0  0  0  0
    1.3575    5.1399    0.2275 H   0  0  0  0  0  0  0  0  0  0  0  0
  1  2  2  0
  2  3  1  0
  2 14  1  0
  3  4  1  0
  3 24  1  0
  4  5  1  0
  4 25  1  0
  4 26  1  0
  5  6  2  0
  5 10  1  0
  6  7  1  0
  6 27  1  0
  7  8  2  0
  7 28  1  0
  8  9  1  0
  8 13  1  0
  9 10  2  0
  9 11  1  0
 10 29  1  0
 11 12  1  0
 12 13  1  0
 12 30  1  0
 12 31  1  0
 14 15  1  0
 14 32  1  0
 15 16  1  0
 15 33  1  0
 16 17  1  0
 16 34  1  0
 16 35  1  0
 17 18  2  0
 17 23  1  0
 18 19  1  0
 18 36  1  0
 19 20  2  0
 19 37  1  0
 20 21  1  0
 20 38  1  0
 21 22  1  0
 21 23  2  0
 23 39  1  0
M  END

