
     RDKit          3D

 50 53  0  0  0  0  0  0  0  0999 V2000
    4.2880   -2.6402   -3.4799 C   0  0  0  0  0  0  0  0  0  0  0  0
    4.8735   -2.3368   -2.1156 C   0  0  0  0  0  0  0  0  0  0  0  0
    4.4142   -1.0449   -1.7167 O   0  0  0  0  0  0  0  0  0  0  0  0
    4.8171   -0.6086   -0.4926 C   0  0  0  0  0  0  0  0  0  0  0  0
    4.1143   -0.8965    0.6824 C   0  0  0  0  0  0  0  0  0  0  0  0
    2.6805   -1.9218    0.5568 Cl  0  0  0  0  0  0  0  0  0  0  0  0
    4.4313   -0.4536    1.8907 N   0  0  0  0  0  0  0  0  0  0  0  0
    5.5134    0.3413    2.0324 C   0  0  0  0  0  0  0  0  0  0  0  0
    5.8600    0.8316    3.3230 C   0  0  0  0  0  0  0  0  0  0  0  0
    6.9638    1.6680    3.5253 C   0  0  0  0  0  0  0  0  0  0  0  0
    7.7764    2.0351    2.4500 C   0  0  0  0  0  0  0  0  0  0  0  0
    8.9372    3.0200    2.5656 C   0  0  1  0  0  0  0  0  0  0  0  0
    8.7693    4.0766    1.6203 O   0  0  0  0  0  0  0  0  0  0  0  0
    9.1069    3.6314    3.9672 C   0  0  0  0  0  0  0  0  0  0  0  0
    8.6195    4.9141    4.2313 C   0  0  0  0  0  0  0  0  0  0  0  0
    8.7565    5.4452    5.5155 C   0  0  0  0  0  0  0  0  0  0  0  0
    9.4017    4.6693    6.4821 C   0  0  0  0  0  0  0  0  0  0  0  0
    9.6349    5.1905    7.8920 C   0  0  1  0  0  0  0  0  0  0  0  0
    9.0505    6.3894    8.0679 F   0  0  0  0  0  0  0  0  0  0  0  0
    9.1428    4.3557    8.8110 F   0  0  0  0  0  0  0  0  0  0  0  0
   10.9459    5.3413    8.1334 F   0  0  0  0  0  0  0  0  0  0  0  0
    9.8743    3.4477    6.2437 N   0  0  0  0  0  0  0  0  0  0  0  0
    9.7218    2.9397    5.0245 C   0  0  0  0  0  0  0  0  0  0  0  0
   10.2625    2.3480    2.2099 C   0  0  0  0  0  0  0  0  0  0  0  0
   10.6606    0.9527    2.3541 C   0  0  0  0  0  0  0  0  0  0  0  0
   11.9079    0.7720    1.9284 N   0  0  0  0  0  0  0  0  0  0  0  0
   12.3135    1.9703    1.5256 C   0  0  0  0  0  0  0  0  0  0  0  0
   11.3410    2.9520    1.6770 N   0  0  0  0  0  0  0  0  0  0  0  0
   11.5358    4.3641    1.3272 C   0  0  0  0  0  0  0  0  0  0  0  0
    7.4680    1.5600    1.1428 C   0  0  0  0  0  0  0  0  0  0  0  0
    6.3490    0.7239    0.9117 C   0  0  0  0  0  0  0  0  0  0  0  0
    5.9654    0.2079   -0.3538 C   0  0  0  0  0  0  0  0  0  0  0  0
    6.8948    0.6032   -1.7906 Cl  0  0  0  0  0  0  0  0  0  0  0  0
    4.6193   -3.6304   -3.8309 H   0  0  0  0  0  0  0  0  0  0  0  0
    4.6056   -1.8827   -4.2133 H   0  0  0  0  0  0  0  0  0  0  0  0
    3.1881   -2.6341   -3.4335 H   0  0  0  0  0  0  0  0  0  0  0  0
    5.9790   -2.3424   -2.1503 H   0  0  0  0  0  0  0  0  0  0  0  0
    4.5516   -3.0889   -1.3734 H   0  0  0  0  0  0  0  0  0  0  0  0
    5.2151    0.5425    4.1537 H   0  0  0  0  0  0  0  0  0  0  0  0
    7.1614    2.0393    4.5316 H   0  0  0  0  0  0  0  0  0  0  0  0
    7.9756    3.8396    1.1117 H   0  0  0  0  0  0  0  0  0  0  0  0
    8.1379    5.4802    3.4337 H   0  0  0  0  0  0  0  0  0  0  0  0
    8.3774    6.4376    5.7600 H   0  0  0  0  0  0  0  0  0  0  0  0
   10.0977    1.9187    4.8881 H   0  0  0  0  0  0  0  0  0  0  0  0
   10.0270    0.1552    2.7344 H   0  0  0  0  0  0  0  0  0  0  0  0
   13.2990    2.2039    1.1220 H   0  0  0  0  0  0  0  0  0  0  0  0
   12.6078    4.5260    1.1583 H   0  0  0  0  0  0  0  0  0  0  0  0
   11.1884    4.9985    2.1496 H   0  0  0  0  0  0  0  0  0  0  0  0
   10.9613    4.6074    0.4276 H   0  0  0  0  0  0  0  0  0  0  0  0
    8.0947    1.8029    0.2821 H   0  0  0  0  0  0  0  0  0  0  0  0
  1  2  1  0
  1 34  1  0
  1 35  1  0
  1 36  1  0
  2  3  1  0
  2 37  1  0
  2 38  1  0
  3  4  1  0
  4  5  2  0
  4 32  1  0
  5  6  1  0
  5  7  1  0
  7  8  2  0
  8  9  1  0
  8 31  1  0
  9 10  2  0
  9 39  1  0
 10 11  1  0
 10 40  1  0
 11 12  1  0
 11 30  2  0
 12 13  1  6
 12 14  1  0
 12 24  1  0
 13 41  1  0
 14 15  2  0
 14 23  1  0
 15 16  1  0
 15 42  1  0
 16 17  2  0
 16 43  1  0
 17 18  1  0
 17 22  1  0
 18 19  1  6
 18 20  1  0
 18 21  1  0
 22 23  2  0
 23 44  1  0
 24 25  2  0
 24 28  1  0
 25 26  1  0
 25 45  1  0
 26 27  2  0
 27 28  1  0
 27 46  1  0
 28 29  1  0
 29 47  1  0
 29 48  1  0
 29 49  1  0
 30 31  1  0
 30 50  1  0
 31 32  2  0
 32 33  1  0
M  END

