
     RDKit          3D

 36 38  0  0  0  0  0  0  0  0999 V2000
    2.3716   -1.0598   -1.7903 C   0  0  0  0  0  0  0  0  0  0  0  0
    3.4123   -0.5446   -0.8761 C   0  0  0  0  0  0  0  0  0  0  0  0
    3.7261    0.7610   -0.8345 N   0  0  0  0  0  0  0  0  0  0  0  0
    3.2758    1.4629   -1.4123 H   0  0  0  0  0  0  0  0  0  0  0  0
    4.7562    1.0100    0.0805 C   0  0  0  0  0  0  0  0  0  0  0  0
    5.3749    2.1919    0.4337 C   0  0  0  0  0  0  0  0  0  0  0  0
    6.3933    2.1135    1.4089 C   0  0  0  0  0  0  0  0  0  0  0  0
    6.7619    0.8917    1.9940 C   0  0  0  0  0  0  0  0  0  0  0  0
    6.1293   -0.2947    1.6257 C   0  0  0  0  0  0  0  0  0  0  0  0
    5.1056   -0.2461    0.6514 C   0  0  0  0  0  0  0  0  0  0  0  0
    4.2757   -1.2431    0.0680 C   0  0  0  0  0  0  0  0  0  0  0  0
    4.2870   -2.6961    0.4234 C   0  0  0  0  0  0  0  0  0  0  0  0
    3.7181   -3.6552   -0.6540 C   0  0  0  0  0  0  0  0  0  0  0  0
    2.5051   -3.7721   -0.7371 O   0  0  0  0  0  0  0  0  0  0  0  0
    4.6502   -4.2334   -1.4346 N   0  0  0  0  0  0  0  0  0  0  0  0
    4.3911   -5.0435   -2.5877 C   0  0  0  0  0  0  0  0  0  0  0  0
    4.7242   -6.4607   -2.5833 C   0  0  0  0  0  0  0  0  0  0  0  0
    4.8704   -7.1320   -3.7930 C   0  0  0  0  0  0  0  0  0  0  0  0
    4.6718   -6.4781   -5.0137 C   0  0  0  0  0  0  0  0  0  0  0  0
    5.0967   -7.2798   -6.5366 Cl  0  0  0  0  0  0  0  0  0  0  0  0
    4.3233   -5.0720   -5.0509 C   0  0  0  0  0  0  0  0  0  0  0  0
    4.2364   -4.4273   -3.8399 C   0  0  0  0  0  0  0  0  0  0  0  0
    3.9534   -3.0755   -3.8433 F   0  0  0  0  0  0  0  0  0  0  0  0
    2.8426   -1.6837   -2.5687 H   0  0  0  0  0  0  0  0  0  0  0  0
    1.8147   -0.2382   -2.2618 H   0  0  0  0  0  0  0  0  0  0  0  0
    1.7022   -1.7484   -1.2562 H   0  0  0  0  0  0  0  0  0  0  0  0
    5.0994    3.1488   -0.0126 H   0  0  0  0  0  0  0  0  0  0  0  0
    6.9049    3.0292    1.7111 H   0  0  0  0  0  0  0  0  0  0  0  0
    7.5545    0.8737    2.7433 H   0  0  0  0  0  0  0  0  0  0  0  0
    6.4194   -1.2432    2.0795 H   0  0  0  0  0  0  0  0  0  0  0  0
    3.6348   -2.8262    1.3052 H   0  0  0  0  0  0  0  0  0  0  0  0
    5.3046   -2.9727    0.7408 H   0  0  0  0  0  0  0  0  0  0  0  0
    5.6248   -4.0616   -1.1802 H   0  0  0  0  0  0  0  0  0  0  0  0
    4.7661   -7.0033   -1.6368 H   0  0  0  0  0  0  0  0  0  0  0  0
    5.1294   -8.1944   -3.8006 H   0  0  0  0  0  0  0  0  0  0  0  0
    4.0453   -4.5713   -5.9772 H   0  0  0  0  0  0  0  0  0  0  0  0
  1  2  1  0
  1 24  1  0
  1 25  1  0
  1 26  1  0
  2  3  1  0
  2 11  2  0
  3  4  1  0
  3  5  1  0
  5  6  2  0
  5 10  1  0
  6  7  1  0
  6 27  1  0
  7  8  2  0
  7 28  1  0
  8  9  1  0
  8 29  1  0
  9 10  2  0
  9 30  1  0
 10 11  1  0
 11 12  1  0
 12 13  1  0
 12 31  1  0
 12 32  1  0
 13 14  2  0
 13 15  1  0
 15 16  1  0
 15 33  1  0
 16 17  2  0
 16 22  1  0
 17 18  1  0
 17 34  1  0
 18 19  2  0
 18 35  1  0
 19 20  1  0
 19 21  1  0
 21 22  2  0
 21 36  1  0
 22 23  1  0
M  END

