
     RDKit          3D

 44 45  0  0  0  0  0  0  0  0999 V2000
    1.2741    8.8352    3.4335 C   0  0  0  0  0  0  0  0  0  0  0  0
    1.2500    7.4262    3.4048 O   0  0  0  0  0  0  0  0  0  0  0  0
    2.2503    6.7553    2.7796 C   0  0  0  0  0  0  0  0  0  0  0  0
    3.3405    7.3669    2.1390 C   0  0  0  0  0  0  0  0  0  0  0  0
    4.3177    6.5784    1.5242 C   0  0  0  0  0  0  0  0  0  0  0  0
    4.2390    5.1787    1.5322 C   0  0  0  0  0  0  0  0  0  0  0  0
    5.3257    4.3421    0.8857 C   0  0  0  0  0  0  0  0  0  0  0  0
    6.5659    4.2856    1.6549 N   0  0  0  0  0  0  0  0  0  0  0  0
    7.5984    5.1463    1.4399 C   0  0  0  0  0  0  0  0  0  0  0  0
    7.6181    5.9725    0.5422 O   0  0  0  0  0  0  0  0  0  0  0  0
    8.7519    5.0735    2.4504 C   0  0  0  0  0  0  0  0  0  0  0  0
    9.0072    3.7492    3.0255 N   0  0  0  0  0  0  0  0  0  0  0  0
    9.4856    2.8422    1.9782 C   0  0  1  0  0  0  0  0  0  0  0  0
   10.8633    2.9369    1.3618 C   0  0  0  0  0  0  0  0  0  0  0  0
   10.4770    1.7317    2.1868 C   0  0  0  0  0  0  0  0  0  0  0  0
    9.7808    3.7072    4.2838 C   0  0  1  0  0  0  0  0  0  0  0  0
    9.5042    4.8707    5.2455 C   0  0  0  0  0  0  0  0  0  0  0  0
    9.4518    2.4043    5.0478 C   0  0  0  0  0  0  0  0  0  0  0  0
   10.1761    1.9405    5.8875 O   0  0  0  0  0  0  0  0  0  0  0  0
    8.2617    1.8824    4.7321 O   0  0  0  0  0  0  0  0  0  0  0  0
    3.1408    4.5830    2.1741 C   0  0  0  0  0  0  0  0  0  0  0  0
    2.1577    5.3533    2.7894 C   0  0  0  0  0  0  0  0  0  0  0  0
    0.3803    9.1524    3.9875 H   0  0  0  0  0  0  0  0  0  0  0  0
    1.2369    9.2697    2.4180 H   0  0  0  0  0  0  0  0  0  0  0  0
    2.1707    9.2220    3.9511 H   0  0  0  0  0  0  0  0  0  0  0  0
    3.4364    8.4525    2.1078 H   0  0  0  0  0  0  0  0  0  0  0  0
    5.1636    7.0606    1.0268 H   0  0  0  0  0  0  0  0  0  0  0  0
    5.5952    4.7598   -0.0946 H   0  0  0  0  0  0  0  0  0  0  0  0
    4.9662    3.3129    0.7283 H   0  0  0  0  0  0  0  0  0  0  0  0
    6.5924    3.7309    2.5026 H   0  0  0  0  0  0  0  0  0  0  0  0
    8.4800    5.7792    3.2477 H   0  0  0  0  0  0  0  0  0  0  0  0
    9.6328    5.4900    1.9289 H   0  0  0  0  0  0  0  0  0  0  0  0
    8.6810    2.6140    1.2726 H   0  0  0  0  0  0  0  0  0  0  0  0
   11.5810    3.6306    1.8105 H   0  0  0  0  0  0  0  0  0  0  0  0
   10.9524    2.8443    0.2760 H   0  0  0  0  0  0  0  0  0  0  0  0
   10.9685    1.6065    3.1546 H   0  0  0  0  0  0  0  0  0  0  0  0
   10.2712    0.7842    1.6813 H   0  0  0  0  0  0  0  0  0  0  0  0
   10.8705    3.6880    4.1011 H   0  0  0  0  0  0  0  0  0  0  0  0
    8.4282    4.9701    5.4602 H   0  0  0  0  0  0  0  0  0  0  0  0
    9.8822    5.8282    4.8601 H   0  0  0  0  0  0  0  0  0  0  0  0
   10.0232    4.6605    6.1912 H   0  0  0  0  0  0  0  0  0  0  0  0
    7.9409    2.4401    3.9891 H   0  0  0  0  0  0  0  0  0  0  0  0
    3.0483    3.4925    2.1891 H   0  0  0  0  0  0  0  0  0  0  0  0
    1.3010    4.8932    3.2862 H   0  0  0  0  0  0  0  0  0  0  0  0
  1  2  1  0
  1 23  1  0
  1 24  1  0
  1 25  1  0
  2  3  1  0
  3  4  2  0
  3 22  1  0
  4  5  1  0
  4 26  1  0
  5  6  2  0
  5 27  1  0
  6  7  1  0
  6 21  1  0
  7  8  1  0
  7 28  1  0
  7 29  1  0
  8  9  1  0
  8 30  1  0
  9 10  2  0
  9 11  1  0
 11 12  1  0
 11 31  1  0
 11 32  1  0
 12 13  1  0
 12 16  1  0
 13 14  1  0
 13 15  1  0
 13 33  1  6
 14 15  1  0
 14 34  1  0
 14 35  1  0
 15 36  1  0
 15 37  1  0
 16 17  1  0
 16 18  1  0
 16 38  1  6
 17 39  1  0
 17 40  1  0
 17 41  1  0
 18 19  2  0
 18 20  1  0
 20 42  1  0
 21 22  2  0
 21 43  1  0
 22 44  1  0
M  END

