
     RDKit          3D

 42 44  0  0  0  0  0  0  0  0999 V2000
    1.0741    1.8371    1.6423 C   0  0  0  0  0  0  0  0  0  0  0  0
    1.5387    0.3986    1.4022 C   0  0  1  0  0  0  0  0  0  0  0  0
    1.8199    0.1933   -0.0129 N   0  0  0  0  0  0  0  0  0  0  0  0
    2.7388   -0.0279    2.3089 C   0  0  1  0  0  0  0  0  0  0  0  0
    3.0977   -1.5095    2.2040 C   0  0  0  0  0  0  0  0  0  0  0  0
    3.7279   -2.0751    1.0714 C   0  0  0  0  0  0  0  0  0  0  0  0
    3.9429   -3.5172    1.0393 C   0  0  0  0  0  0  0  0  0  0  0  0
    3.4930   -4.2721    2.1075 C   0  0  0  0  0  0  0  0  0  0  0  0
    3.6886   -5.6131    2.0671 F   0  0  0  0  0  0  0  0  0  0  0  0
    2.8501   -3.7458    3.2301 C   0  0  0  0  0  0  0  0  0  0  0  0
    2.6648   -2.3073    3.2642 C   0  0  0  0  0  0  0  0  0  0  0  0
    3.8885    0.9205    2.2001 N   0  0  0  0  0  0  0  0  0  0  0  0
    4.5409    1.1255    0.8893 C   0  0  0  0  0  0  0  0  0  0  0  0
    5.2422    2.4367    0.7003 C   0  0  0  0  0  0  0  0  0  0  0  0
    4.6921    3.6503    0.3514 C   0  0  0  0  0  0  0  0  0  0  0  0
    5.6573    4.6936    0.2260 C   0  0  0  0  0  0  0  0  0  0  0  0
    6.9357    4.2613    0.4753 C   0  0  0  0  0  0  0  0  0  0  0  0
    6.9751    2.5788    0.8630 S   0  0  0  0  0  0  0  0  0  0  0  0
    4.4596    1.4954    3.3278 C   0  0  1  0  0  0  0  0  0  0  0  0
    3.6898    1.8302    4.6190 C   0  0  0  0  0  0  0  0  0  0  0  0
    4.6232    0.6875    4.6522 C   0  0  0  0  0  0  0  0  0  0  0  0
    0.1625    2.0448    1.0590 H   0  0  0  0  0  0  0  0  0  0  0  0
    1.8329    2.5745    1.3376 H   0  0  0  0  0  0  0  0  0  0  0  0
    0.8273    2.0089    2.7017 H   0  0  0  0  0  0  0  0  0  0  0  0
    0.7401   -0.2754    1.7685 H   0  0  0  0  0  0  0  0  0  0  0  0
    2.0427   -0.7926   -0.1752 H   0  0  0  0  0  0  0  0  0  0  0  0
    1.0096    0.4369   -0.5821 H   0  0  0  0  0  0  0  0  0  0  0  0
    2.3578    0.1158    3.3250 H   0  0  0  0  0  0  0  0  0  0  0  0
    4.0996   -1.4787    0.2423 H   0  0  0  0  0  0  0  0  0  0  0  0
    4.4304   -4.0061    0.1965 H   0  0  0  0  0  0  0  0  0  0  0  0
    2.5332   -4.3963    4.0429 H   0  0  0  0  0  0  0  0  0  0  0  0
    2.1412   -1.8605    4.1137 H   0  0  0  0  0  0  0  0  0  0  0  0
    3.7368    0.9978    0.1424 H   0  0  0  0  0  0  0  0  0  0  0  0
    5.2283    0.2775    0.7556 H   0  0  0  0  0  0  0  0  0  0  0  0
    3.6240    3.7864    0.1725 H   0  0  0  0  0  0  0  0  0  0  0  0
    5.4140    5.7205   -0.0505 H   0  0  0  0  0  0  0  0  0  0  0  0
    7.8606    4.8353    0.4363 H   0  0  0  0  0  0  0  0  0  0  0  0
    5.2774    2.1743    3.0899 H   0  0  0  0  0  0  0  0  0  0  0  0
    2.6168    1.6333    4.6294 H   0  0  0  0  0  0  0  0  0  0  0  0
    3.9854    2.7818    5.0685 H   0  0  0  0  0  0  0  0  0  0  0  0
    4.2236   -0.3280    4.6363 H   0  0  0  0  0  0  0  0  0  0  0  0
    5.6068    0.8048    5.1134 H   0  0  0  0  0  0  0  0  0  0  0  0
  1  2  1  0
  1 22  1  0
  1 23  1  0
  1 24  1  0
  2  3  1  0
  2  4  1  0
  2 25  1  1
  3 26  1  0
  3 27  1  0
  4  5  1  0
  4 12  1  0
  4 28  1  1
  5  6  2  0
  5 11  1  0
  6  7  1  0
  6 29  1  0
  7  8  2  0
  7 30  1  0
  8  9  1  0
  8 10  1  0
 10 11  2  0
 10 31  1  0
 11 32  1  0
 12 13  1  0
 12 19  1  0
 13 14  1  0
 13 33  1  0
 13 34  1  0
 14 15  2  0
 14 18  1  0
 15 16  1  0
 15 35  1  0
 16 17  2  0
 16 36  1  0
 17 18  1  0
 17 37  1  0
 19 20  1  0
 19 21  1  0
 19 38  1  1
 20 21  1  0
 20 39  1  0
 20 40  1  0
 21 41  1  0
 21 42  1  0
M  END

