
     RDKit          3D

 35 35  0  0  0  0  0  0  0  0999 V2000
    0.8568    0.2608   -0.0234 C   0  0  0  0  0  0  0  0  0  0  0  0
    2.3656    0.0154   -0.0674 C   0  0  0  0  0  0  0  0  0  0  0  0
    2.9230   -0.5696    1.2342 C   0  0  0  0  0  0  0  0  0  0  0  0
    4.4373   -0.7988    1.1912 C   0  0  0  0  0  0  0  0  0  0  0  0
    5.0206   -1.4299    2.4773 C   0  0  1  0  0  0  0  0  0  0  0  0
    4.5102   -2.8707    2.6492 C   0  0  0  0  0  0  0  0  0  0  0  0
    3.5210   -3.1282    3.2870 O   0  0  0  0  0  0  0  0  0  0  0  0
    5.1989   -3.8256    2.0080 O   0  0  0  0  0  0  0  0  0  0  0  0
    6.5781   -1.3498    2.5217 C   0  0  1  0  0  0  0  0  0  0  0  0
    7.1366   -2.0910    1.4330 O   0  0  0  0  0  0  0  0  0  0  0  0
    7.1201    0.0560    2.6144 C   0  0  0  0  0  0  0  0  0  0  0  0
    6.5542    0.9678    3.5604 C   0  0  0  0  0  0  0  0  0  0  0  0
    7.0756    2.2928    3.6634 C   0  0  0  0  0  0  0  0  0  0  0  0
    8.1522    2.6626    2.8102 C   0  0  0  0  0  0  0  0  0  0  0  0
    8.6777    3.8995    2.8682 O   0  0  0  0  0  0  0  0  0  0  0  0
    8.7385    1.7686    1.8746 C   0  0  0  0  0  0  0  0  0  0  0  0
    8.2140    0.4463    1.7880 C   0  0  0  0  0  0  0  0  0  0  0  0
    0.4867    0.6773   -0.9738 H   0  0  0  0  0  0  0  0  0  0  0  0
    0.5895    0.9701    0.7778 H   0  0  0  0  0  0  0  0  0  0  0  0
    0.3054   -0.6745    0.1688 H   0  0  0  0  0  0  0  0  0  0  0  0
    2.8880    0.9624   -0.2969 H   0  0  0  0  0  0  0  0  0  0  0  0
    2.6034   -0.6681   -0.9031 H   0  0  0  0  0  0  0  0  0  0  0  0
    2.4069   -1.5160    1.4668 H   0  0  0  0  0  0  0  0  0  0  0  0
    2.6888    0.1112    2.0730 H   0  0  0  0  0  0  0  0  0  0  0  0
    4.9445    0.1670    1.0190 H   0  0  0  0  0  0  0  0  0  0  0  0
    4.6818   -1.4410    0.3257 H   0  0  0  0  0  0  0  0  0  0  0  0
    4.6198   -0.8892    3.3445 H   0  0  0  0  0  0  0  0  0  0  0  0
    5.9932   -3.4290    1.5859 H   0  0  0  0  0  0  0  0  0  0  0  0
    6.9087   -1.8938    3.4281 H   0  0  0  0  0  0  0  0  0  0  0  0
    7.0704   -1.5460    0.6329 H   0  0  0  0  0  0  0  0  0  0  0  0
    5.7281    0.6622    4.2004 H   0  0  0  0  0  0  0  0  0  0  0  0
    6.6484    3.0189    4.3591 H   0  0  0  0  0  0  0  0  0  0  0  0
    8.2242    4.4150    3.5536 H   0  0  0  0  0  0  0  0  0  0  0  0
    9.5899    2.1008    1.2815 H   0  0  0  0  0  0  0  0  0  0  0  0
    8.7015   -0.2883    1.1489 H   0  0  0  0  0  0  0  0  0  0  0  0
  1  2  1  0
  1 18  1  0
  1 19  1  0
  1 20  1  0
  2  3  1  0
  2 21  1  0
  2 22  1  0
  3  4  1  0
  3 23  1  0
  3 24  1  0
  4  5  1  0
  4 25  1  0
  4 26  1  0
  5  6  1  0
  5  9  1  0
  5 27  1  1
  6  7  2  0
  6  8  1  0
  8 28  1  0
  9 10  1  0
  9 11  1  0
  9 29  1  1
 10 30  1  0
 11 12  2  0
 11 17  1  0
 12 13  1  0
 12 31  1  0
 13 14  2  0
 13 32  1  0
 14 15  1  0
 14 16  1  0
 15 33  1  0
 16 17  2  0
 16 34  1  0
 17 35  1  0
M  END

