
     RDKit          3D

 37 39  0  0  0  0  0  0  0  0999 V2000
    2.7704    0.2269    2.7068 O   0  0  0  0  0  0  0  0  0  0  0  0
    2.2811   -0.3841    1.7864 C   0  0  0  0  0  0  0  0  0  0  0  0
    3.0203   -0.8985    0.7712 O   0  0  0  0  0  0  0  0  0  0  0  0
    4.4223   -0.7958    0.8998 C   0  0  0  0  0  0  0  0  0  0  0  0
    4.9763   -1.8889    1.8168 C   0  0  0  0  0  0  0  0  0  0  0  0
    4.2592   -2.6832    2.3865 O   0  0  0  0  0  0  0  0  0  0  0  0
    6.4409   -1.9252    1.9739 C   0  0  0  0  0  0  0  0  0  0  0  0
    7.2300   -2.7590    2.7193 C   0  0  0  0  0  0  0  0  0  0  0  0
    8.5845   -2.3403    2.4900 C   0  0  0  0  0  0  0  0  0  0  0  0
    9.8559   -2.7543    2.9341 C   0  0  0  0  0  0  0  0  0  0  0  0
   10.9734   -2.0696    2.4678 C   0  0  0  0  0  0  0  0  0  0  0  0
   10.8486   -0.9845    1.5714 C   0  0  0  0  0  0  0  0  0  0  0  0
    9.6031   -0.5538    1.1163 C   0  0  0  0  0  0  0  0  0  0  0  0
    8.4935   -1.2510    1.5926 C   0  0  0  0  0  0  0  0  0  0  0  0
    7.1937   -1.0036    1.2823 O   0  0  0  0  0  0  0  0  0  0  0  0
    0.8232   -0.6308    1.6076 C   0  0  0  0  0  0  0  0  0  0  0  0
   -0.0585   -0.0863    2.5550 C   0  0  0  0  0  0  0  0  0  0  0  0
   -1.4316   -0.2823    2.4291 C   0  0  0  0  0  0  0  0  0  0  0  0
   -1.9537   -1.0326    1.3632 C   0  0  0  0  0  0  0  0  0  0  0  0
   -3.4462   -1.2796    1.2474 C   0  0  0  0  0  0  0  0  0  0  0  0
   -3.8884   -1.5355   -0.0658 O   0  0  0  0  0  0  0  0  0  0  0  0
   -1.0683   -1.5766    0.4206 C   0  0  0  0  0  0  0  0  0  0  0  0
    0.3075   -1.3783    0.5375 C   0  0  0  0  0  0  0  0  0  0  0  0
    4.7182    0.1887    1.2966 H   0  0  0  0  0  0  0  0  0  0  0  0
    4.8491   -0.9062   -0.1085 H   0  0  0  0  0  0  0  0  0  0  0  0
    6.8629   -3.5658    3.3493 H   0  0  0  0  0  0  0  0  0  0  0  0
    9.9593   -3.5922    3.6273 H   0  0  0  0  0  0  0  0  0  0  0  0
   11.9694   -2.3727    2.7988 H   0  0  0  0  0  0  0  0  0  0  0  0
   11.7494   -0.4704    1.2275 H   0  0  0  0  0  0  0  0  0  0  0  0
    9.4930    0.2835    0.4253 H   0  0  0  0  0  0  0  0  0  0  0  0
    0.3563    0.4941    3.3813 H   0  0  0  0  0  0  0  0  0  0  0  0
   -2.1104    0.1556    3.1671 H   0  0  0  0  0  0  0  0  0  0  0  0
   -3.9941   -0.4363    1.7145 H   0  0  0  0  0  0  0  0  0  0  0  0
   -3.7100   -2.1785    1.8324 H   0  0  0  0  0  0  0  0  0  0  0  0
   -3.6780   -0.7629   -0.6081 H   0  0  0  0  0  0  0  0  0  0  0  0
   -1.4748   -2.1582   -0.4095 H   0  0  0  0  0  0  0  0  0  0  0  0
    0.9917   -1.8070   -0.1956 H   0  0  0  0  0  0  0  0  0  0  0  0
  1  2  2  0
  2  3  1  0
  2 16  1  0
  3  4  1  0
  4  5  1  0
  4 24  1  0
  4 25  1  0
  5  6  2  0
  5  7  1  0
  7  8  2  0
  7 15  1  0
  8  9  1  0
  8 26  1  0
  9 10  2  0
  9 14  1  0
 10 11  1  0
 10 27  1  0
 11 12  2  0
 11 28  1  0
 12 13  1  0
 12 29  1  0
 13 14  2  0
 13 30  1  0
 14 15  1  0
 16 17  2  0
 16 23  1  0
 17 18  1  0
 17 31  1  0
 18 19  2  0
 18 32  1  0
 19 20  1  0
 19 22  1  0
 20 21  1  0
 20 33  1  0
 20 34  1  0
 21 35  1  0
 22 23  2  0
 22 36  1  0
 23 37  1  0
M  END

