
     RDKit          3D

 74 77  0  0  0  0  0  0  0  0999 V2000
    5.8266    1.6065    1.6480 C   0  0  0  0  0  0  0  0  0  0  0  0
    7.3149    1.4086    1.4188 C   0  0  0  0  0  0  0  0  0  0  0  0
    7.5774    0.7604    0.1556 O   0  0  0  0  0  0  0  0  0  0  0  0
    7.5433   -0.5753    0.1208 C   0  0  0  0  0  0  0  0  0  0  0  0
    7.3219   -1.2860    1.0725 O   0  0  0  0  0  0  0  0  0  0  0  0
    7.8156   -1.0884   -1.2827 C   0  0  0  0  0  0  0  0  0  0  0  0
    7.8607   -2.5182   -1.2711 N   0  0  0  0  0  0  0  0  0  0  0  0
    7.9570   -3.3157   -2.3900 C   0  0  0  0  0  0  0  0  0  0  0  0
    8.1893   -2.7486   -3.6796 C   0  0  0  0  0  0  0  0  0  0  0  0
    8.3075   -3.5379   -4.8146 C   0  0  0  0  0  0  0  0  0  0  0  0
    8.1998   -4.9375   -4.7015 C   0  0  0  0  0  0  0  0  0  0  0  0
    8.2676   -6.0386   -5.6353 C   0  0  0  0  0  0  0  0  0  0  0  0
    8.3683   -5.8189   -7.0938 C   0  0  0  0  0  0  0  0  0  0  0  0
    8.7550   -4.7385   -7.5205 O   0  0  0  0  0  0  0  0  0  0  0  0
    7.9375   -6.9006   -8.0871 C   0  0  0  0  0  0  0  0  0  0  0  0
    7.4219   -6.3266   -9.4210 C   0  0  0  0  0  0  0  0  0  0  0  0
    6.0434   -5.7052   -9.3414 C   0  0  0  0  0  0  0  0  0  0  0  0
    5.8706   -4.3423   -9.0439 C   0  0  0  0  0  0  0  0  0  0  0  0
    4.5960   -3.7833   -8.9555 C   0  0  0  0  0  0  0  0  0  0  0  0
    3.4474   -4.5655   -9.1569 C   0  0  0  0  0  0  0  0  0  0  0  0
    2.0851   -3.9438   -9.0814 C   0  0  0  0  0  0  0  0  0  0  0  0
    1.7859   -2.7510   -9.4481 N   0  0  0  0  0  0  0  0  0  0  0  0
    1.0882   -4.7822   -8.6128 N   0  0  0  0  0  0  0  0  0  0  0  0
    3.6151   -5.9294   -9.4489 C   0  0  0  0  0  0  0  0  0  0  0  0
    4.8927   -6.4840   -9.5438 C   0  0  0  0  0  0  0  0  0  0  0  0
    8.0750   -7.2071   -4.8764 C   0  0  0  0  0  0  0  0  0  0  0  0
    8.1256   -8.6479   -5.2562 C   0  0  0  0  0  0  0  0  0  0  0  0
    7.2874   -9.4361   -4.8451 O   0  0  0  0  0  0  0  0  0  0  0  0
    9.2202   -9.1436   -6.1660 C   0  0  0  0  0  0  0  0  0  0  0  0
    8.8734  -10.1677   -7.0606 C   0  0  0  0  0  0  0  0  0  0  0  0
    9.7930  -10.6544   -7.9887 C   0  0  0  0  0  0  0  0  0  0  0  0
   11.0853  -10.1217   -8.0300 C   0  0  0  0  0  0  0  0  0  0  0  0
   11.4576   -9.1296   -7.1215 C   0  0  0  0  0  0  0  0  0  0  0  0
   10.5447   -8.6496   -6.1693 C   0  0  0  0  0  0  0  0  0  0  0  0
   11.0420   -7.7322   -5.0916 C   0  0  0  0  0  0  0  0  0  0  0  0
   10.7005   -7.7943   -3.9322 O   0  0  0  0  0  0  0  0  0  0  0  0
   11.9587   -6.8684   -5.5489 O   0  0  0  0  0  0  0  0  0  0  0  0
   12.5091   -5.9592   -4.5912 C   0  0  0  0  0  0  0  0  0  0  0  0
    7.8486   -6.8632   -3.5559 N   0  0  0  0  0  0  0  0  0  0  0  0
    7.7802   -7.7651   -2.4177 C   0  0  0  0  0  0  0  0  0  0  0  0
    7.9494   -5.4923   -3.4198 C   0  0  0  0  0  0  0  0  0  0  0  0
    7.8379   -4.7109   -2.2641 C   0  0  0  0  0  0  0  0  0  0  0  0
    5.6656    2.1730    2.5791 H   0  0  0  0  0  0  0  0  0  0  0  0
    5.3121    0.6390    1.7449 H   0  0  0  0  0  0  0  0  0  0  0  0
    5.3713    2.1708    0.8194 H   0  0  0  0  0  0  0  0  0  0  0  0
    7.7644    0.8094    2.2241 H   0  0  0  0  0  0  0  0  0  0  0  0
    7.8420    2.3706    1.3488 H   0  0  0  0  0  0  0  0  0  0  0  0
    8.7585   -0.6243   -1.6324 H   0  0  0  0  0  0  0  0  0  0  0  0
    7.0215   -0.6783   -1.9412 H   0  0  0  0  0  0  0  0  0  0  0  0
    7.6141   -2.9436   -0.3840 H   0  0  0  0  0  0  0  0  0  0  0  0
    8.2881   -1.6669   -3.7800 H   0  0  0  0  0  0  0  0  0  0  0  0
    8.5012   -3.0898   -5.7884 H   0  0  0  0  0  0  0  0  0  0  0  0
    7.1892   -7.5693   -7.6365 H   0  0  0  0  0  0  0  0  0  0  0  0
    8.8284   -7.5166   -8.2951 H   0  0  0  0  0  0  0  0  0  0  0  0
    7.4052   -7.1439  -10.1596 H   0  0  0  0  0  0  0  0  0  0  0  0
    8.1492   -5.5804   -9.7724 H   0  0  0  0  0  0  0  0  0  0  0  0
    6.7519   -3.7217   -8.8676 H   0  0  0  0  0  0  0  0  0  0  0  0
    4.4861   -2.7241   -8.7087 H   0  0  0  0  0  0  0  0  0  0  0  0
    2.5951   -2.2972   -9.8765 H   0  0  0  0  0  0  0  0  0  0  0  0
    1.3441   -5.4563   -7.9003 H   0  0  0  0  0  0  0  0  0  0  0  0
    0.1988   -4.3160   -8.4615 H   0  0  0  0  0  0  0  0  0  0  0  0
    2.7354   -6.5509   -9.6303 H   0  0  0  0  0  0  0  0  0  0  0  0
    4.9978   -7.5444   -9.7933 H   0  0  0  0  0  0  0  0  0  0  0  0
    7.8542  -10.5574   -7.0238 H   0  0  0  0  0  0  0  0  0  0  0  0
    9.5002  -11.4433   -8.6859 H   0  0  0  0  0  0  0  0  0  0  0  0
   11.8100  -10.4890   -8.7608 H   0  0  0  0  0  0  0  0  0  0  0  0
   12.4739   -8.7329   -7.1241 H   0  0  0  0  0  0  0  0  0  0  0  0
   13.2496   -5.3596   -5.1339 H   0  0  0  0  0  0  0  0  0  0  0  0
   12.9855   -6.5052   -3.7633 H   0  0  0  0  0  0  0  0  0  0  0  0
   11.7195   -5.3118   -4.1821 H   0  0  0  0  0  0  0  0  0  0  0  0
    7.3967   -8.7374   -2.7395 H   0  0  0  0  0  0  0  0  0  0  0  0
    7.0868   -7.3496   -1.6728 H   0  0  0  0  0  0  0  0  0  0  0  0
    8.7763   -7.8888   -1.9632 H   0  0  0  0  0  0  0  0  0  0  0  0
    7.6618   -5.1584   -1.2843 H   0  0  0  0  0  0  0  0  0  0  0  0
  1  2  1  0
  1 43  1  0
  1 44  1  0
  1 45  1  0
  2  3  1  0
  2 46  1  0
  2 47  1  0
  3  4  1  0
  4  5  2  0
  4  6  1  0
  6  7  1  0
  6 48  1  0
  6 49  1  0
  7  8  1  0
  7 50  1  0
  8  9  2  0
  8 42  1  0
  9 10  1  0
  9 51  1  0
 10 11  2  0
 10 52  1  0
 11 12  1  0
 11 41  1  0
 12 13  1  0
 12 26  2  0
 13 14  2  0
 13 15  1  0
 15 16  1  0
 15 53  1  0
 15 54  1  0
 16 17  1  0
 16 55  1  0
 16 56  1  0
 17 18  2  0
 17 25  1  0
 18 19  1  0
 18 57  1  0
 19 20  2  0
 19 58  1  0
 20 21  1  0
 20 24  1  0
 21 22  2  0
 21 23  1  0
 22 59  1  0
 23 60  1  0
 23 61  1  0
 24 25  2  0
 24 62  1  0
 25 63  1  0
 26 27  1  0
 26 39  1  0
 27 28  2  0
 27 29  1  0
 29 30  2  0
 29 34  1  0
 30 31  1  0
 30 64  1  0
 31 32  2  0
 31 65  1  0
 32 33  1  0
 32 66  1  0
 33 34  2  0
 33 67  1  0
 34 35  1  0
 35 36  2  0
 35 37  1  0
 37 38  1  0
 38 68  1  0
 38 69  1  0
 38 70  1  0
 39 40  1  0
 39 41  1  0
 40 71  1  0
 40 72  1  0
 40 73  1  0
 41 42  2  0
 42 74  1  0
M  END

