
     RDKit          3D

 51 53  0  0  0  0  0  0  0  0999 V2000
    4.6724    1.0996    2.4063 C   0  0  0  0  0  0  0  0  0  0  0  0
    6.0023    0.4828    2.8417 C   0  0  0  0  0  0  0  0  0  0  0  0
    7.0672    0.4913    1.7417 C   0  0  0  0  0  0  0  0  0  0  0  0
    8.4084   -0.1316    2.1504 C   0  0  0  0  0  0  0  0  0  0  0  0
    8.3327   -1.5487    2.4771 N   0  0  0  0  0  0  0  0  0  0  0  0
    8.5478   -2.5183    1.5374 C   0  0  0  0  0  0  0  0  0  0  0  0
    8.8273   -2.2527    0.3767 O   0  0  0  0  0  0  0  0  0  0  0  0
    8.4431   -3.9474    2.0098 C   0  0  0  0  0  0  0  0  0  0  0  0
    7.7620   -4.3473    3.1689 C   0  0  0  0  0  0  0  0  0  0  0  0
    7.6973   -5.6943    3.5338 C   0  0  0  0  0  0  0  0  0  0  0  0
    8.3173   -6.6715    2.7460 C   0  0  0  0  0  0  0  0  0  0  0  0
    8.2366   -8.1401    3.0916 C   0  0  0  0  0  0  0  0  0  0  0  0
    7.9138   -8.2985    4.4593 O   0  0  0  0  0  0  0  0  0  0  0  0
    7.7787   -9.5433    4.9822 C   0  0  0  0  0  0  0  0  0  0  0  0
    7.9373  -10.7328    4.2524 C   0  0  0  0  0  0  0  0  0  0  0  0
    7.7746  -11.9620    4.9035 C   0  0  0  0  0  0  0  0  0  0  0  0
    7.4599  -12.0200    6.2559 C   0  0  0  0  0  0  0  0  0  0  0  0
    7.2964  -10.8293    7.0040 C   0  0  0  0  0  0  0  0  0  0  0  0
    6.9656  -10.9596    8.4170 C   0  0  0  0  0  0  0  0  0  0  0  0
    6.7373  -10.0325    9.3791 C   0  0  0  0  0  0  0  0  0  0  0  0
    6.7517   -8.2643    9.2931 S   0  0  0  0  0  0  0  0  0  0  0  0
    6.3461   -8.0899   11.0177 C   0  0  0  0  0  0  0  0  0  0  0  0
    6.1617   -6.6572   11.7873 S   0  0  0  0  0  0  0  0  0  0  0  0
    6.2206   -9.3382   11.5685 N   0  0  0  0  0  0  0  0  0  0  0  0
    6.4113  -10.4702   10.7712 C   0  0  0  0  0  0  0  0  0  0  0  0
    6.3196  -11.6060   11.1768 O   0  0  0  0  0  0  0  0  0  0  0  0
    7.4612   -9.5977    6.3469 C   0  0  0  0  0  0  0  0  0  0  0  0
    8.9933   -6.2741    1.5816 C   0  0  0  0  0  0  0  0  0  0  0  0
    9.0456   -4.9326    1.2120 C   0  0  0  0  0  0  0  0  0  0  0  0
    3.9298    1.0774    3.2198 H   0  0  0  0  0  0  0  0  0  0  0  0
    4.2428    0.5571    1.5477 H   0  0  0  0  0  0  0  0  0  0  0  0
    4.7994    2.1515    2.1001 H   0  0  0  0  0  0  0  0  0  0  0  0
    5.8313   -0.5576    3.1715 H   0  0  0  0  0  0  0  0  0  0  0  0
    6.3879    1.0238    3.7263 H   0  0  0  0  0  0  0  0  0  0  0  0
    7.2594    1.5317    1.4220 H   0  0  0  0  0  0  0  0  0  0  0  0
    6.6936   -0.0408    0.8497 H   0  0  0  0  0  0  0  0  0  0  0  0
    8.8223    0.3988    3.0247 H   0  0  0  0  0  0  0  0  0  0  0  0
    9.1255   -0.0281    1.3230 H   0  0  0  0  0  0  0  0  0  0  0  0
    8.2031   -1.8215    3.4417 H   0  0  0  0  0  0  0  0  0  0  0  0
    7.2452   -3.6139    3.7934 H   0  0  0  0  0  0  0  0  0  0  0  0
    7.1630   -5.9929    4.4363 H   0  0  0  0  0  0  0  0  0  0  0  0
    9.2004   -8.6327    2.8628 H   0  0  0  0  0  0  0  0  0  0  0  0
    7.4653   -8.6297    2.4638 H   0  0  0  0  0  0  0  0  0  0  0  0
    8.1853  -10.7156    3.1914 H   0  0  0  0  0  0  0  0  0  0  0  0
    7.8988  -12.8862    4.3340 H   0  0  0  0  0  0  0  0  0  0  0  0
    7.3364  -12.9856    6.7511 H   0  0  0  0  0  0  0  0  0  0  0  0
    6.8794  -11.9865    8.7898 H   0  0  0  0  0  0  0  0  0  0  0  0
    5.9891   -9.4364   12.5538 H   0  0  0  0  0  0  0  0  0  0  0  0
    7.3544   -8.6453    6.8654 H   0  0  0  0  0  0  0  0  0  0  0  0
    9.4853   -7.0247    0.9555 H   0  0  0  0  0  0  0  0  0  0  0  0
    9.5568   -4.6151    0.3014 H   0  0  0  0  0  0  0  0  0  0  0  0
  1  2  1  0
  1 30  1  0
  1 31  1  0
  1 32  1  0
  2  3  1  0
  2 33  1  0
  2 34  1  0
  3  4  1  0
  3 35  1  0
  3 36  1  0
  4  5  1  0
  4 37  1  0
  4 38  1  0
  5  6  1  0
  5 39  1  0
  6  7  2  0
  6  8  1  0
  8  9  2  0
  8 29  1  0
  9 10  1  0
  9 40  1  0
 10 11  2  0
 10 41  1  0
 11 12  1  0
 11 28  1  0
 12 13  1  0
 12 42  1  0
 12 43  1  0
 13 14  1  0
 14 15  2  0
 14 27  1  0
 15 16  1  0
 15 44  1  0
 16 17  2  0
 16 45  1  0
 17 18  1  0
 17 46  1  0
 18 19  1  0
 18 27  2  0
 19 20  2  0
 19 47  1  0
 20 21  1  0
 20 25  1  0
 21 22  1  0
 22 23  2  0
 22 24  1  0
 24 25  1  0
 24 48  1  0
 25 26  2  0
 27 49  1  0
 28 29  2  0
 28 50  1  0
 29 51  1  0
M  END

