
     RDKit          3D

 54 54  0  0  0  0  0  0  0  0999 V2000
    1.2627    0.7474   -0.4551 C   0  0  0  0  0  0  0  0  0  0  0  0
    2.7507    0.4031   -0.5331 C   0  0  0  0  0  0  0  0  0  0  0  0
    3.2079   -0.5894    0.5406 C   0  0  0  0  0  0  0  0  0  0  0  0
    4.6978   -0.9369    0.4710 C   0  0  0  0  0  0  0  0  0  0  0  0
    5.1531   -1.9240    1.5496 C   0  0  0  0  0  0  0  0  0  0  0  0
    6.6558   -2.2562    1.4821 C   0  0  0  0  0  0  0  0  0  0  0  0
    7.1020   -3.2877    2.5031 C   0  0  0  0  0  0  0  0  0  0  0  0
    7.5545   -2.9779    3.7422 C   0  0  0  0  0  0  0  0  0  0  0  0
    7.6484   -1.5544    4.2434 C   0  0  0  0  0  0  0  0  0  0  0  0
    7.9499   -4.0792    4.7498 C   0  0  2  0  0  0  0  0  0  0  0  0
    6.7366   -4.4204    5.6431 C   0  0  0  0  0  0  0  0  0  0  0  0
    9.1249   -3.6508    5.6543 C   0  0  0  0  0  0  0  0  0  0  0  0
    8.3962   -5.3404    3.9602 C   0  0  2  0  0  0  0  0  0  0  0  0
    9.6047   -5.1150    3.2468 O   0  0  0  0  0  0  0  0  0  0  0  0
    7.3115   -5.7799    3.0021 C   0  0  0  0  0  0  0  0  0  0  0  0
    6.7990   -7.0261    3.0645 C   0  0  0  0  0  0  0  0  0  0  0  0
    5.7457   -7.5709    2.1824 C   0  0  0  0  0  0  0  0  0  0  0  0
    5.2112   -7.0072    1.2482 O   0  0  0  0  0  0  0  0  0  0  0  0
    5.4352   -8.8348    2.5515 O   0  0  0  0  0  0  0  0  0  0  0  0
    4.4301   -9.5213    1.7896 C   0  0  0  0  0  0  0  0  0  0  0  0
    3.0291   -9.2146    2.2945 C   0  0  0  0  0  0  0  0  0  0  0  0
    6.9277   -4.7154    2.0130 C   0  0  0  0  0  0  0  0  0  0  0  0
    0.9703    1.4636   -1.2397 H   0  0  0  0  0  0  0  0  0  0  0  0
    1.0056    1.1977    0.5185 H   0  0  0  0  0  0  0  0  0  0  0  0
    0.6360   -0.1522   -0.5761 H   0  0  0  0  0  0  0  0  0  0  0  0
    3.3486    1.3291   -0.4483 H   0  0  0  0  0  0  0  0  0  0  0  0
    2.9819   -0.0109   -1.5315 H   0  0  0  0  0  0  0  0  0  0  0  0
    2.6127   -1.5178    0.4563 H   0  0  0  0  0  0  0  0  0  0  0  0
    2.9759   -0.1764    1.5403 H   0  0  0  0  0  0  0  0  0  0  0  0
    5.2931   -0.0079    0.5514 H   0  0  0  0  0  0  0  0  0  0  0  0
    4.9295   -1.3540   -0.5267 H   0  0  0  0  0  0  0  0  0  0  0  0
    4.5675   -2.8564    1.4638 H   0  0  0  0  0  0  0  0  0  0  0  0
    4.9191   -1.5141    2.5484 H   0  0  0  0  0  0  0  0  0  0  0  0
    7.2347   -1.3248    1.5816 H   0  0  0  0  0  0  0  0  0  0  0  0
    6.8819   -2.6413    0.4719 H   0  0  0  0  0  0  0  0  0  0  0  0
    7.1757   -0.8316    3.5678 H   0  0  0  0  0  0  0  0  0  0  0  0
    8.6954   -1.2388    4.3897 H   0  0  0  0  0  0  0  0  0  0  0  0
    7.1551   -1.4510    5.2245 H   0  0  0  0  0  0  0  0  0  0  0  0
    6.4078   -3.5353    6.2097 H   0  0  0  0  0  0  0  0  0  0  0  0
    6.9981   -5.2042    6.3741 H   0  0  0  0  0  0  0  0  0  0  0  0
    5.8812   -4.7779    5.0518 H   0  0  0  0  0  0  0  0  0  0  0  0
    8.8533   -2.8077    6.3058 H   0  0  0  0  0  0  0  0  0  0  0  0
   10.0107   -3.3704    5.0676 H   0  0  0  0  0  0  0  0  0  0  0  0
    9.4161   -4.4896    6.3068 H   0  0  0  0  0  0  0  0  0  0  0  0
    8.6169   -6.1503    4.6731 H   0  0  0  0  0  0  0  0  0  0  0  0
    9.5031   -4.2792    2.7669 H   0  0  0  0  0  0  0  0  0  0  0  0
    7.1699   -7.7204    3.8228 H   0  0  0  0  0  0  0  0  0  0  0  0
    4.6694  -10.5886    1.9074 H   0  0  0  0  0  0  0  0  0  0  0  0
    4.5321   -9.2453    0.7293 H   0  0  0  0  0  0  0  0  0  0  0  0
    2.9372   -9.4483    3.3668 H   0  0  0  0  0  0  0  0  0  0  0  0
    2.2907   -9.8210    1.7454 H   0  0  0  0  0  0  0  0  0  0  0  0
    2.7826   -8.1537    2.1404 H   0  0  0  0  0  0  0  0  0  0  0  0
    5.8980   -4.8803    1.6616 H   0  0  0  0  0  0  0  0  0  0  0  0
    7.5390   -4.8554    1.0988 H   0  0  0  0  0  0  0  0  0  0  0  0
  1  2  1  0
  1 23  1  0
  1 24  1  0
  1 25  1  0
  2  3  1  0
  2 26  1  0
  2 27  1  0
  3  4  1  0
  3 28  1  0
  3 29  1  0
  4  5  1  0
  4 30  1  0
  4 31  1  0
  5  6  1  0
  5 32  1  0
  5 33  1  0
  6  7  1  0
  6 34  1  0
  6 35  1  0
  7  8  2  0
  7 22  1  0
  8  9  1  0
  8 10  1  0
  9 36  1  0
  9 37  1  0
  9 38  1  0
 10 11  1  1
 10 12  1  0
 10 13  1  0
 11 39  1  0
 11 40  1  0
 11 41  1  0
 12 42  1  0
 12 43  1  0
 12 44  1  0
 13 14  1  0
 13 15  1  0
 13 45  1  1
 14 46  1  0
 15 16  2  0
 15 22  1  0
 16 17  1  0
 16 47  1  0
 17 18  2  0
 17 19  1  0
 19 20  1  0
 20 21  1  0
 20 48  1  0
 20 49  1  0
 21 50  1  0
 21 51  1  0
 21 52  1  0
 22 53  1  0
 22 54  1  0
M  END

