
     RDKit          3D

 79 88  0  0  0  0  0  0  0  0999 V2000
   13.6447   -5.5894   -7.4404 C   0  0  0  0  0  0  0  0  0  0  0  0
   14.4706   -5.1107   -6.4189 C   0  0  0  0  0  0  0  0  0  0  0  0
   14.0007   -5.0461   -5.1048 C   0  0  0  0  0  0  0  0  0  0  0  0
   12.6946   -5.4589   -4.7910 C   0  0  0  0  0  0  0  0  0  0  0  0
   12.1944   -5.3863   -3.3854 C   0  0  0  0  0  0  0  0  0  0  0  0
   13.0553   -4.9228   -2.4485 N   0  0  0  0  0  0  0  0  0  0  0  0
   12.5525   -4.8725   -1.1923 C   0  0  0  0  0  0  0  0  0  0  0  0
   13.4590   -4.3688   -0.1173 C   0  0  0  0  0  0  0  0  0  0  0  0
   14.7670   -3.9565   -0.4236 C   0  0  0  0  0  0  0  0  0  0  0  0
   15.6173   -3.4856    0.5800 C   0  0  0  0  0  0  0  0  0  0  0  0
   15.1754   -3.4198    1.9048 C   0  0  0  0  0  0  0  0  0  0  0  0
   13.8739   -3.8297    2.2194 C   0  0  0  0  0  0  0  0  0  0  0  0
   13.0240   -4.2995    1.2178 C   0  0  0  0  0  0  0  0  0  0  0  0
   11.3281   -5.2321   -0.8495 N   0  0  0  0  0  0  0  0  0  0  0  0
   10.5227   -5.6921   -1.8549 C   0  0  0  0  0  0  0  0  0  0  0  0
    9.1731   -6.0944   -1.5400 C   0  0  0  0  0  0  0  0  0  0  0  0
    8.6610   -6.0113   -0.2100 C   0  0  0  0  0  0  0  0  0  0  0  0
    7.3568   -6.3742    0.0849 C   0  0  0  0  0  0  0  0  0  0  0  0
    6.4936   -6.8088   -0.9409 C   0  0  0  0  0  0  0  0  0  0  0  0
    5.1858   -7.3222   -0.5940 N   0  0  0  0  0  0  0  0  0  0  0  0
    4.9987   -8.6846   -0.3115 C   0  0  0  0  0  0  0  0  0  0  0  0
    5.9206   -9.7266   -0.4506 C   0  0  0  0  0  0  0  0  0  0  0  0
    5.4901  -11.0081   -0.1002 C   0  0  0  0  0  0  0  0  0  0  0  0
    4.1875  -11.2372    0.3776 C   0  0  0  0  0  0  0  0  0  0  0  0
    3.2776  -10.1843    0.5236 C   0  0  0  0  0  0  0  0  0  0  0  0
    3.6903   -8.8952    0.1751 C   0  0  0  0  0  0  0  0  0  0  0  0
    3.0652   -7.5858    0.2188 C   0  0  0  0  0  0  0  0  0  0  0  0
    1.8504   -7.1755    0.7445 C   0  0  0  0  0  0  0  0  0  0  0  0
    1.5296   -5.8000    0.7763 C   0  0  0  0  0  0  0  0  0  0  0  0
    2.4118   -4.8743    0.2371 C   0  0  0  0  0  0  0  0  0  0  0  0
    2.3047   -3.4342    0.0988 C   0  0  0  0  0  0  0  0  0  0  0  0
    1.3572   -2.4880    0.5016 C   0  0  0  0  0  0  0  0  0  0  0  0
    1.5686   -1.1468    0.1686 C   0  0  0  0  0  0  0  0  0  0  0  0
    2.7024   -0.7541   -0.5641 C   0  0  0  0  0  0  0  0  0  0  0  0
    3.6564   -1.6854   -0.9796 C   0  0  0  0  0  0  0  0  0  0  0  0
    3.4430   -3.0215   -0.6262 C   0  0  0  0  0  0  0  0  0  0  0  0
    4.2397   -4.1443   -0.9227 N   0  0  0  0  0  0  0  0  0  0  0  0
    5.2918   -4.0122   -1.9054 C   0  0  0  0  0  0  0  0  0  0  0  0
    6.5179   -3.4501   -1.5433 C   0  0  0  0  0  0  0  0  0  0  0  0
    7.4590   -3.1722   -2.5373 C   0  0  0  0  0  0  0  0  0  0  0  0
    7.1680   -3.4379   -3.8781 C   0  0  0  0  0  0  0  0  0  0  0  0
    5.9369   -3.9984   -4.2300 C   0  0  0  0  0  0  0  0  0  0  0  0
    4.9902   -4.2850   -3.2444 C   0  0  0  0  0  0  0  0  0  0  0  0
    3.6560   -5.2641   -0.3805 C   0  0  0  0  0  0  0  0  0  0  0  0
    4.0327   -6.6495   -0.3128 C   0  0  0  0  0  0  0  0  0  0  0  0
    6.9820   -6.9365   -2.2565 C   0  0  0  0  0  0  0  0  0  0  0  0
    8.2888   -6.5877   -2.5477 C   0  0  0  0  0  0  0  0  0  0  0  0
   10.9527   -5.7724   -3.1510 N   0  0  0  0  0  0  0  0  0  0  0  0
   11.8720   -5.9398   -5.8248 C   0  0  0  0  0  0  0  0  0  0  0  0
   12.3422   -6.0045   -7.1367 C   0  0  0  0  0  0  0  0  0  0  0  0
   14.0133   -5.6409   -8.4687 H   0  0  0  0  0  0  0  0  0  0  0  0
   15.4897   -4.7859   -6.6471 H   0  0  0  0  0  0  0  0  0  0  0  0
   14.6325   -4.6768   -4.2968 H   0  0  0  0  0  0  0  0  0  0  0  0
   15.0965   -4.0159   -1.4611 H   0  0  0  0  0  0  0  0  0  0  0  0
   16.6327   -3.1685    0.3262 H   0  0  0  0  0  0  0  0  0  0  0  0
   15.8417   -3.0522    2.6902 H   0  0  0  0  0  0  0  0  0  0  0  0
   13.5217   -3.7832    3.2538 H   0  0  0  0  0  0  0  0  0  0  0  0
   12.0084   -4.6245    1.4471 H   0  0  0  0  0  0  0  0  0  0  0  0
    9.3274   -5.6565    0.5764 H   0  0  0  0  0  0  0  0  0  0  0  0
    6.9940   -6.3236    1.1154 H   0  0  0  0  0  0  0  0  0  0  0  0
    6.9294   -9.5370   -0.8167 H   0  0  0  0  0  0  0  0  0  0  0  0
    6.1812  -11.8480   -0.1982 H   0  0  0  0  0  0  0  0  0  0  0  0
    3.8833  -12.2523    0.6420 H   0  0  0  0  0  0  0  0  0  0  0  0
    2.2699  -10.3718    0.9020 H   0  0  0  0  0  0  0  0  0  0  0  0
    1.1584   -7.9072    1.1656 H   0  0  0  0  0  0  0  0  0  0  0  0
    0.5843   -5.4686    1.2102 H   0  0  0  0  0  0  0  0  0  0  0  0
    0.4692   -2.7861    1.0636 H   0  0  0  0  0  0  0  0  0  0  0  0
    0.8415   -0.3930    0.4782 H   0  0  0  0  0  0  0  0  0  0  0  0
    2.8415    0.2995   -0.8159 H   0  0  0  0  0  0  0  0  0  0  0  0
    4.5328   -1.3832   -1.5527 H   0  0  0  0  0  0  0  0  0  0  0  0
    6.7383   -3.2453   -0.4949 H   0  0  0  0  0  0  0  0  0  0  0  0
    8.4303   -2.7601   -2.2585 H   0  0  0  0  0  0  0  0  0  0  0  0
    7.9133   -3.2245   -4.6471 H   0  0  0  0  0  0  0  0  0  0  0  0
    5.7085   -4.2123   -5.2767 H   0  0  0  0  0  0  0  0  0  0  0  0
    4.0158   -4.7014   -3.5098 H   0  0  0  0  0  0  0  0  0  0  0  0
    6.3261   -7.3149   -3.0446 H   0  0  0  0  0  0  0  0  0  0  0  0
    8.6698   -6.6764   -3.5649 H   0  0  0  0  0  0  0  0  0  0  0  0
   10.8610   -6.2618   -5.5721 H   0  0  0  0  0  0  0  0  0  0  0  0
   11.6909   -6.3828   -7.9298 H   0  0  0  0  0  0  0  0  0  0  0  0
  1  2  2  0
  1 50  1  0
  1 51  1  0
  2  3  1  0
  2 52  1  0
  3  4  2  0
  3 53  1  0
  4  5  1  0
  4 49  1  0
  5  6  2  0
  5 48  1  0
  6  7  1  0
  7  8  1  0
  7 14  2  0
  8  9  2  0
  8 13  1  0
  9 10  1  0
  9 54  1  0
 10 11  2  0
 10 55  1  0
 11 12  1  0
 11 56  1  0
 12 13  2  0
 12 57  1  0
 13 58  1  0
 14 15  1  0
 15 16  1  0
 15 48  2  0
 16 17  2  0
 16 47  1  0
 17 18  1  0
 17 59  1  0
 18 19  2  0
 18 60  1  0
 19 20  1  0
 19 46  1  0
 20 21  1  0
 20 45  1  0
 21 22  2  0
 21 26  1  0
 22 23  1  0
 22 61  1  0
 23 24  2  0
 23 62  1  0
 24 25  1  0
 24 63  1  0
 25 26  2  0
 25 64  1  0
 26 27  1  0
 27 28  1  0
 27 45  2  0
 28 29  2  0
 28 65  1  0
 29 30  1  0
 29 66  1  0
 30 31  1  0
 30 44  2  0
 31 32  2  0
 31 36  1  0
 32 33  1  0
 32 67  1  0
 33 34  2  0
 33 68  1  0
 34 35  1  0
 34 69  1  0
 35 36  2  0
 35 70  1  0
 36 37  1  0
 37 38  1  0
 37 44  1  0
 38 39  2  0
 38 43  1  0
 39 40  1  0
 39 71  1  0
 40 41  2  0
 40 72  1  0
 41 42  1  0
 41 73  1  0
 42 43  2  0
 42 74  1  0
 43 75  1  0
 44 45  1  0
 46 47  2  0
 46 76  1  0
 47 77  1  0
 49 50  2  0
 49 78  1  0
 50 79  1  0
M  END

