
     RDKit          3D

 87 88  0  0  0  0  0  0  0  0999 V2000
   -0.1132    2.0847   -1.2918 C   0  0  0  0  0  0  0  0  0  0  0  0
    1.3473    1.6921   -1.0555 C   0  0  0  0  0  0  0  0  0  0  0  0
    1.6958    0.2327   -1.4189 C   0  0  1  0  0  0  0  0  0  0  0  0
    1.5370   -0.0291   -2.9216 C   0  0  0  0  0  0  0  0  0  0  0  0
    3.1228   -0.1244   -0.9124 C   0  0  1  0  0  0  0  0  0  0  0  0
    3.8262    0.5854   -1.3791 H   0  0  0  0  0  0  0  0  0  0  0  0
    3.2026    0.0646    0.6138 C   0  0  0  0  0  0  0  0  0  0  0  0
    2.4233   -0.5124    1.3761 O   0  0  0  0  0  0  0  0  0  0  0  0
    4.1835    0.8800    1.0729 N   0  0  0  0  0  0  0  0  0  0  0  0
    4.5070    1.0577    2.4873 C   0  0  1  0  0  0  0  0  0  0  0  0
    4.3148    0.0857    2.9728 H   0  0  0  0  0  0  0  0  0  0  0  0
    6.0015    1.4082    2.6673 C   0  0  0  0  0  0  0  0  0  0  0  0
    6.5728    2.4219    1.6917 C   0  0  0  0  0  0  0  0  0  0  0  0
    7.3799    2.0012    0.6176 C   0  0  0  0  0  0  0  0  0  0  0  0
    7.9121    2.9090   -0.2967 C   0  0  0  0  0  0  0  0  0  0  0  0
    7.6535    4.2813   -0.1584 C   0  0  0  0  0  0  0  0  0  0  0  0
    8.2080    5.0906   -1.1051 O   0  0  0  0  0  0  0  0  0  0  0  0
    7.9268    6.4785   -1.1142 C   0  0  0  0  0  0  0  0  0  0  0  0
    8.7146    7.2864   -0.0995 C   0  0  0  0  0  0  0  0  0  0  0  0
    9.9879    6.8722    0.3161 C   0  0  0  0  0  0  0  0  0  0  0  0
   10.7286    7.6503    1.2095 C   0  0  0  0  0  0  0  0  0  0  0  0
   10.2097    8.8553    1.6934 C   0  0  0  0  0  0  0  0  0  0  0  0
    8.9415    9.2757    1.2824 C   0  0  0  0  0  0  0  0  0  0  0  0
    8.1979    8.4925    0.3949 C   0  0  0  0  0  0  0  0  0  0  0  0
    6.8620    4.7232    0.9127 C   0  0  0  0  0  0  0  0  0  0  0  0
    6.3292    3.7991    1.8169 C   0  0  0  0  0  0  0  0  0  0  0  0
    3.5691    2.0722    3.2108 C   0  0  0  0  0  0  0  0  0  0  0  0
    4.0127    3.0516    3.8008 O   0  0  0  0  0  0  0  0  0  0  0  0
    2.2591    1.7332    3.1589 N   0  0  0  0  0  0  0  0  0  0  0  0
    1.1497    2.4756    3.7974 C   0  0  1  0  0  0  0  0  0  0  0  0
    1.0774    3.9083    3.2378 C   0  0  0  0  0  0  0  0  0  0  0  0
   -0.1385    1.7140    3.4501 C   0  0  0  0  0  0  0  0  0  0  0  0
    1.3446    2.5068    5.3256 C   0  0  0  0  0  0  0  0  0  0  0  0
    3.6222   -1.4669   -1.2163 N   0  0  0  0  0  0  0  0  0  0  0  0
    2.7403   -2.5882   -0.9486 C   0  0  0  0  0  0  0  0  0  0  0  0
    4.5181   -1.5961   -2.3626 C   0  0  0  0  0  0  0  0  0  0  0  0
    5.9787   -1.1840   -2.1046 C   0  0  0  0  0  0  0  0  0  0  0  0
    6.8772   -2.1455   -1.2934 C   0  0  1  0  0  0  0  0  0  0  0  0
    6.4181   -2.3640    0.1549 C   0  0  0  0  0  0  0  0  0  0  0  0
    7.0999   -3.4850   -2.0103 C   0  0  0  0  0  0  0  0  0  0  0  0
   -0.3026    3.1158   -0.9529 H   0  0  0  0  0  0  0  0  0  0  0  0
   -0.7978    1.4218   -0.7364 H   0  0  0  0  0  0  0  0  0  0  0  0
   -0.3939    2.0355   -2.3554 H   0  0  0  0  0  0  0  0  0  0  0  0
    1.5823    1.8690    0.0072 H   0  0  0  0  0  0  0  0  0  0  0  0
    2.0085    2.3708   -1.6269 H   0  0  0  0  0  0  0  0  0  0  0  0
    0.9933   -0.4197   -0.8713 H   0  0  0  0  0  0  0  0  0  0  0  0
    2.2027    0.6225   -3.5137 H   0  0  0  0  0  0  0  0  0  0  0  0
    0.5056    0.1668   -3.2519 H   0  0  0  0  0  0  0  0  0  0  0  0
    1.7662   -1.0708   -3.1855 H   0  0  0  0  0  0  0  0  0  0  0  0
    4.7605    1.3874    0.4092 H   0  0  0  0  0  0  0  0  0  0  0  0
    6.5759    0.4736    2.5751 H   0  0  0  0  0  0  0  0  0  0  0  0
    6.1221    1.7692    3.6983 H   0  0  0  0  0  0  0  0  0  0  0  0
    7.6094    0.9378    0.4999 H   0  0  0  0  0  0  0  0  0  0  0  0
    8.5376    2.5771   -1.1280 H   0  0  0  0  0  0  0  0  0  0  0  0
    6.8434    6.6602   -0.9950 H   0  0  0  0  0  0  0  0  0  0  0  0
    8.1969    6.8059   -2.1322 H   0  0  0  0  0  0  0  0  0  0  0  0
   10.3924    5.9303   -0.0607 H   0  0  0  0  0  0  0  0  0  0  0  0
   11.7180    7.3132    1.5299 H   0  0  0  0  0  0  0  0  0  0  0  0
   10.7900    9.4627    2.3927 H   0  0  0  0  0  0  0  0  0  0  0  0
    8.5247   10.2129    1.6604 H   0  0  0  0  0  0  0  0  0  0  0  0
    7.2014    8.8236    0.0856 H   0  0  0  0  0  0  0  0  0  0  0  0
    6.6697    5.7849    1.0664 H   0  0  0  0  0  0  0  0  0  0  0  0
    5.7091    4.1474    2.6448 H   0  0  0  0  0  0  0  0  0  0  0  0
    2.0416    0.8489    2.6907 H   0  0  0  0  0  0  0  0  0  0  0  0
    0.9258    3.8908    2.1466 H   0  0  0  0  0  0  0  0  0  0  0  0
    2.0056    4.4546    3.4524 H   0  0  0  0  0  0  0  0  0  0  0  0
    0.2348    4.4531    3.6928 H   0  0  0  0  0  0  0  0  0  0  0  0
   -0.2923    1.6675    2.3600 H   0  0  0  0  0  0  0  0  0  0  0  0
   -1.0099    2.2159    3.8968 H   0  0  0  0  0  0  0  0  0  0  0  0
   -0.1064    0.6820    3.8355 H   0  0  0  0  0  0  0  0  0  0  0  0
    2.2825    3.0172    5.5832 H   0  0  0  0  0  0  0  0  0  0  0  0
    1.3796    1.4834    5.7321 H   0  0  0  0  0  0  0  0  0  0  0  0
    0.5094    3.0393    5.8080 H   0  0  0  0  0  0  0  0  0  0  0  0
    2.2164   -2.4276    0.0031 H   0  0  0  0  0  0  0  0  0  0  0  0
    3.3338   -3.5121   -0.8464 H   0  0  0  0  0  0  0  0  0  0  0  0
    1.9786   -2.7732   -1.7371 H   0  0  0  0  0  0  0  0  0  0  0  0
    4.1514   -1.0151   -3.2326 H   0  0  0  0  0  0  0  0  0  0  0  0
    4.4902   -2.6479   -2.6889 H   0  0  0  0  0  0  0  0  0  0  0  0
    5.9894   -0.1914   -1.6203 H   0  0  0  0  0  0  0  0  0  0  0  0
    6.4539   -1.0322   -3.0909 H   0  0  0  0  0  0  0  0  0  0  0  0
    7.8635   -1.6457   -1.2455 H   0  0  0  0  0  0  0  0  0  0  0  0
    5.4787   -2.9346    0.2056 H   0  0  0  0  0  0  0  0  0  0  0  0
    6.2412   -1.4075    0.6708 H   0  0  0  0  0  0  0  0  0  0  0  0
    7.1814   -2.9217    0.7229 H   0  0  0  0  0  0  0  0  0  0  0  0
    6.1723   -4.0789   -2.0693 H   0  0  0  0  0  0  0  0  0  0  0  0
    7.8409   -4.0994   -1.4736 H   0  0  0  0  0  0  0  0  0  0  0  0
    7.4695   -3.3390   -3.0388 H   0  0  0  0  0  0  0  0  0  0  0  0
  1  2  1  0
  1 41  1  0
  1 42  1  0
  1 43  1  0
  2  3  1  0
  2 44  1  0
  2 45  1  0
  3  4  1  0
  3  5  1  0
  3 46  1  1
  4 47  1  0
  4 48  1  0
  4 49  1  0
  5  6  1  6
  5  7  1  0
  5 34  1  0
  7  8  2  0
  7  9  1  0
  9 10  1  0
  9 50  1  0
 10 11  1  1
 10 12  1  0
 10 27  1  0
 12 13  1  0
 12 51  1  0
 12 52  1  0
 13 14  2  0
 13 26  1  0
 14 15  1  0
 14 53  1  0
 15 16  2  0
 15 54  1  0
 16 17  1  0
 16 25  1  0
 17 18  1  0
 18 19  1  0
 18 55  1  0
 18 56  1  0
 19 20  2  0
 19 24  1  0
 20 21  1  0
 20 57  1  0
 21 22  2  0
 21 58  1  0
 22 23  1  0
 22 59  1  0
 23 24  2  0
 23 60  1  0
 24 61  1  0
 25 26  2  0
 25 62  1  0
 26 63  1  0
 27 28  2  0
 27 29  1  0
 30 29  1  6
 29 64  1  0
 30 31  1  0
 30 32  1  0
 30 33  1  0
 31 65  1  0
 31 66  1  0
 31 67  1  0
 32 68  1  0
 32 69  1  0
 32 70  1  0
 33 71  1  0
 33 72  1  0
 33 73  1  0
 34 35  1  0
 34 36  1  0
 35 74  1  0
 35 75  1  0
 35 76  1  0
 36 37  1  0
 36 77  1  0
 36 78  1  0
 37 38  1  0
 37 79  1  0
 37 80  1  0
 38 39  1  0
 38 40  1  0
 38 81  1  1
 39 82  1  0
 39 83  1  0
 39 84  1  0
 40 85  1  0
 40 86  1  0
 40 87  1  0
M  END

