
     RDKit          3D

 38 40  0  0  0  0  0  0  0  0999 V2000
    1.3528    1.0885   -0.6611 O   0  0  0  0  0  0  0  0  0  0  0  0
    2.2931    0.4724   -0.1747 C   0  0  0  0  0  0  0  0  0  0  0  0
    2.9162    0.8472    0.9736 N   0  0  0  0  0  0  0  0  0  0  0  0
    2.4953    1.9888    1.7540 C   0  0  0  0  0  0  0  0  0  0  0  0
    2.0895    1.6224    3.1847 C   0  0  0  0  0  0  0  0  0  0  0  0
    3.5653    1.0478    4.1114 S   0  0  0  0  0  0  0  0  0  0  0  0
    2.8926    0.2189    5.5357 C   0  0  0  0  0  0  0  0  0  0  0  0
    3.7796   -0.5936    6.2665 C   0  0  0  0  0  0  0  0  0  0  0  0
    3.3466   -1.2533    7.4163 C   0  0  0  0  0  0  0  0  0  0  0  0
    2.0232   -1.1238    7.8530 C   0  0  0  0  0  0  0  0  0  0  0  0
    1.1412   -0.3197    7.1285 C   0  0  0  0  0  0  0  0  0  0  0  0
    1.5677    0.3555    5.9798 C   0  0  0  0  0  0  0  0  0  0  0  0
    2.8699   -0.7812   -0.8138 C   0  0  0  0  0  0  0  0  0  0  0  0
    3.8400   -1.3375   -0.1450 N   0  0  0  0  0  0  0  0  0  0  0  0
    4.4149   -2.4433   -0.6100 N   0  0  0  0  0  0  0  0  0  0  0  0
    5.1634   -2.8273   -0.0372 H   0  0  0  0  0  0  0  0  0  0  0  0
    4.1127   -3.1388   -1.7817 C   0  0  0  0  0  0  0  0  0  0  0  0
    4.7272   -4.1467   -2.0802 O   0  0  0  0  0  0  0  0  0  0  0  0
    3.0199   -2.5176   -2.5510 C   0  0  0  0  0  0  0  0  0  0  0  0
    2.6217   -3.1158   -3.7571 C   0  0  0  0  0  0  0  0  0  0  0  0
    1.5969   -2.5505   -4.5044 C   0  0  0  0  0  0  0  0  0  0  0  0
    0.9641   -1.3817   -4.0470 C   0  0  0  0  0  0  0  0  0  0  0  0
    1.3455   -0.7777   -2.8545 C   0  0  0  0  0  0  0  0  0  0  0  0
    2.3876   -1.3364   -2.0779 C   0  0  0  0  0  0  0  0  0  0  0  0
    3.6616    0.2473    1.3152 H   0  0  0  0  0  0  0  0  0  0  0  0
    1.6326    2.4302    1.2342 H   0  0  0  0  0  0  0  0  0  0  0  0
    3.2912    2.7560    1.7778 H   0  0  0  0  0  0  0  0  0  0  0  0
    1.3384    0.8183    3.1680 H   0  0  0  0  0  0  0  0  0  0  0  0
    1.6568    2.5036    3.6839 H   0  0  0  0  0  0  0  0  0  0  0  0
    4.8115   -0.7110    5.9249 H   0  0  0  0  0  0  0  0  0  0  0  0
    4.0488   -1.8810    7.9712 H   0  0  0  0  0  0  0  0  0  0  0  0
    1.6842   -1.6463    8.7505 H   0  0  0  0  0  0  0  0  0  0  0  0
    0.1054   -0.2062    7.4595 H   0  0  0  0  0  0  0  0  0  0  0  0
    0.8607    0.9903    5.4443 H   0  0  0  0  0  0  0  0  0  0  0  0
    3.1394   -4.0222   -4.0767 H   0  0  0  0  0  0  0  0  0  0  0  0
    1.2833   -3.0114   -5.4442 H   0  0  0  0  0  0  0  0  0  0  0  0
    0.1577   -0.9370   -4.6358 H   0  0  0  0  0  0  0  0  0  0  0  0
    0.8563    0.1252   -2.4957 H   0  0  0  0  0  0  0  0  0  0  0  0
  1  2  2  0
  2  3  1  0
  2 13  1  0
  3  4  1  0
  3 25  1  0
  4  5  1  0
  4 26  1  0
  4 27  1  0
  5  6  1  0
  5 28  1  0
  5 29  1  0
  6  7  1  0
  7  8  2  0
  7 12  1  0
  8  9  1  0
  8 30  1  0
  9 10  2  0
  9 31  1  0
 10 11  1  0
 10 32  1  0
 11 12  2  0
 11 33  1  0
 12 34  1  0
 13 14  2  0
 13 24  1  0
 14 15  1  0
 15 16  1  0
 15 17  1  0
 17 18  2  0
 17 19  1  0
 19 20  1  0
 19 24  2  0
 20 21  2  0
 20 35  1  0
 21 22  1  0
 21 36  1  0
 22 23  2  0
 22 37  1  0
 23 24  1  0
 23 38  1  0
M  END

