
     RDKit          3D

 49 51  0  0  0  0  0  0  0  0999 V2000
    0.9439   -4.4947   -1.1643 C   0  0  0  0  0  0  0  0  0  0  0  0
    2.4289   -4.8237   -1.1875 C   0  0  0  0  0  0  0  0  0  0  0  0
    3.1330   -4.7409    0.0810 N   0  0  0  0  0  0  0  0  0  0  0  0
    2.4650   -4.9270    1.3553 C   0  0  0  0  0  0  0  0  0  0  0  0
    2.2358   -6.4146    1.6748 C   0  0  0  0  0  0  0  0  0  0  0  0
    4.5826   -4.5721    0.0558 C   0  0  0  0  0  0  0  0  0  0  0  0
    5.0130   -3.0877    0.1743 C   0  0  0  0  0  0  0  0  0  0  0  0
    6.5185   -2.9559    0.0872 C   0  0  0  0  0  0  0  0  0  0  0  0
    7.1510   -3.0174   -1.1779 C   0  0  0  0  0  0  0  0  0  0  0  0
    8.5330   -2.9276   -1.3051 C   0  0  0  0  0  0  0  0  0  0  0  0
    9.3139   -2.7746   -0.1467 C   0  0  0  0  0  0  0  0  0  0  0  0
   10.7264   -2.6313    0.0852 C   0  0  0  0  0  0  0  0  0  0  0  0
   12.0839   -2.7799   -1.1307 S   0  0  1  0  0  0  0  0  0  0  0  0
   11.4403   -2.3098   -2.3835 O   0  0  0  0  0  0  0  0  0  0  0  0
   13.1548   -1.9904   -0.4805 O   0  0  0  0  0  0  0  0  0  0  0  0
   12.5721   -4.4075   -1.2976 C   0  0  0  0  0  0  0  0  0  0  0  0
   11.9371   -5.2742   -2.2601 C   0  0  0  0  0  0  0  0  0  0  0  0
   12.1756   -6.6315   -2.2275 C   0  0  0  0  0  0  0  0  0  0  0  0
   13.0242   -7.2186   -1.2465 C   0  0  0  0  0  0  0  0  0  0  0  0
   13.6476   -6.3630   -0.2996 C   0  0  0  0  0  0  0  0  0  0  0  0
   13.4383   -4.9994   -0.3034 C   0  0  0  0  0  0  0  0  0  0  0  0
   10.8826   -2.4487    1.4365 C   0  0  0  0  0  0  0  0  0  0  0  0
    9.6461   -2.4901    2.0681 N   0  0  0  0  0  0  0  0  0  0  0  0
    9.4959   -2.3795    3.0612 H   0  0  0  0  0  0  0  0  0  0  0  0
    8.6674   -2.6862    1.1246 C   0  0  0  0  0  0  0  0  0  0  0  0
    7.2754   -2.7887    1.2512 C   0  0  0  0  0  0  0  0  0  0  0  0
    0.5642   -4.5464   -2.1940 H   0  0  0  0  0  0  0  0  0  0  0  0
    0.7588   -3.4756   -0.7935 H   0  0  0  0  0  0  0  0  0  0  0  0
    0.3591   -5.2056   -0.5635 H   0  0  0  0  0  0  0  0  0  0  0  0
    2.9710   -4.1712   -1.8890 H   0  0  0  0  0  0  0  0  0  0  0  0
    2.5979   -5.8537   -1.5621 H   0  0  0  0  0  0  0  0  0  0  0  0
    1.5079   -4.3890    1.3327 H   0  0  0  0  0  0  0  0  0  0  0  0
    3.0968   -4.4669    2.1262 H   0  0  0  0  0  0  0  0  0  0  0  0
    1.5756   -6.8925    0.9368 H   0  0  0  0  0  0  0  0  0  0  0  0
    1.7605   -6.4895    2.6616 H   0  0  0  0  0  0  0  0  0  0  0  0
    3.1868   -6.9651    1.7066 H   0  0  0  0  0  0  0  0  0  0  0  0
    4.9594   -4.9919   -0.8853 H   0  0  0  0  0  0  0  0  0  0  0  0
    5.0078   -5.1504    0.8870 H   0  0  0  0  0  0  0  0  0  0  0  0
    4.6393   -2.6795    1.1271 H   0  0  0  0  0  0  0  0  0  0  0  0
    4.5252   -2.5163   -0.6333 H   0  0  0  0  0  0  0  0  0  0  0  0
    6.5388   -3.1188   -2.0801 H   0  0  0  0  0  0  0  0  0  0  0  0
    9.0321   -2.9487   -2.2748 H   0  0  0  0  0  0  0  0  0  0  0  0
   11.3097   -4.8306   -3.0341 H   0  0  0  0  0  0  0  0  0  0  0  0
   11.7150   -7.2685   -2.9898 H   0  0  0  0  0  0  0  0  0  0  0  0
   13.2081   -8.2936   -1.2359 H   0  0  0  0  0  0  0  0  0  0  0  0
   14.3299   -6.7906    0.4427 H   0  0  0  0  0  0  0  0  0  0  0  0
   13.9508   -4.3488    0.4065 H   0  0  0  0  0  0  0  0  0  0  0  0
   11.8008   -2.2788    1.9940 H   0  0  0  0  0  0  0  0  0  0  0  0
    6.7930   -2.7272    2.2319 H   0  0  0  0  0  0  0  0  0  0  0  0
  1  2  1  0
  1 27  1  0
  1 28  1  0
  1 29  1  0
  2  3  1  0
  2 30  1  0
  2 31  1  0
  3  4  1  0
  3  6  1  0
  4  5  1  0
  4 32  1  0
  4 33  1  0
  5 34  1  0
  5 35  1  0
  5 36  1  0
  6  7  1  0
  6 37  1  0
  6 38  1  0
  7  8  1  0
  7 39  1  0
  7 40  1  0
  8  9  2  0
  8 26  1  0
  9 10  1  0
  9 41  1  0
 10 11  2  0
 10 42  1  0
 11 12  1  0
 11 25  1  0
 13 12  1  1
 12 22  2  0
 13 14  2  0
 13 15  2  0
 13 16  1  0
 16 17  2  0
 16 21  1  0
 17 18  1  0
 17 43  1  0
 18 19  2  0
 18 44  1  0
 19 20  1  0
 19 45  1  0
 20 21  2  0
 20 46  1  0
 21 47  1  0
 22 23  1  0
 22 48  1  0
 23 24  1  0
 23 25  1  0
 25 26  2  0
 26 49  1  0
M  END

