
     RDKit          3D

 47 48  0  0  0  0  0  0  0  0999 V2000
    4.2928   -0.4596    2.4784 C   0  0  0  0  0  0  0  0  0  0  0  0
    5.4233   -1.1607    1.9901 O   0  0  0  0  0  0  0  0  0  0  0  0
    5.2178   -1.9841    0.9127 C   0  0  0  0  0  0  0  0  0  0  0  0
    5.8164   -1.6864   -0.3147 C   0  0  0  0  0  0  0  0  0  0  0  0
    5.6871   -2.5248   -1.4198 C   0  0  0  0  0  0  0  0  0  0  0  0
    4.9292   -3.7128   -1.3339 C   0  0  0  0  0  0  0  0  0  0  0  0
    4.8413   -4.5538   -2.4312 N   0  0  0  0  0  0  0  0  0  0  0  0
    3.9181   -5.6700   -2.5655 C   0  0  1  0  0  0  0  0  0  0  0  0
    2.4462   -5.2349   -2.7765 C   0  0  0  0  0  0  0  0  0  0  0  0
    2.2316   -4.6428   -4.1804 C   0  0  0  0  0  0  0  0  0  0  0  0
    2.6541   -5.5271   -5.2656 N   0  0  0  0  0  0  0  0  0  0  0  0
    1.7189   -6.6017   -5.5982 C   0  0  0  0  0  0  0  0  0  0  0  0
    0.4455   -6.0672   -6.1975 C   0  0  0  0  0  0  0  0  0  0  0  0
   -0.8264   -6.3862   -5.8936 C   0  0  0  0  0  0  0  0  0  0  0  0
   -1.2391   -7.3730   -4.8291 C   0  0  0  0  0  0  0  0  0  0  0  0
   -1.9778   -5.7608   -6.6429 C   0  0  0  0  0  0  0  0  0  0  0  0
    4.0425   -5.9378   -5.1048 C   0  0  0  0  0  0  0  0  0  0  0  0
    4.3565   -6.5729   -3.7354 C   0  0  0  0  0  0  0  0  0  0  0  0
    4.3154   -4.0124   -0.0992 C   0  0  0  0  0  0  0  0  0  0  0  0
    4.4649   -3.1712    1.0105 C   0  0  0  0  0  0  0  0  0  0  0  0
    3.8956   -3.4640    2.2131 O   0  0  0  0  0  0  0  0  0  0  0  0
    4.6479    0.1924    3.2899 H   0  0  0  0  0  0  0  0  0  0  0  0
    3.5252   -1.1428    2.8784 H   0  0  0  0  0  0  0  0  0  0  0  0
    3.8373    0.1698    1.6905 H   0  0  0  0  0  0  0  0  0  0  0  0
    6.4067   -0.7693   -0.3801 H   0  0  0  0  0  0  0  0  0  0  0  0
    6.1777   -2.2646   -2.3617 H   0  0  0  0  0  0  0  0  0  0  0  0
    5.2212   -4.1769   -3.2897 H   0  0  0  0  0  0  0  0  0  0  0  0
    3.9842   -6.2638   -1.6377 H   0  0  0  0  0  0  0  0  0  0  0  0
    2.1575   -4.4987   -2.0089 H   0  0  0  0  0  0  0  0  0  0  0  0
    1.7916   -6.1129   -2.6334 H   0  0  0  0  0  0  0  0  0  0  0  0
    2.8047   -3.7010   -4.2615 H   0  0  0  0  0  0  0  0  0  0  0  0
    1.1738   -4.3778   -4.3297 H   0  0  0  0  0  0  0  0  0  0  0  0
    1.4978   -7.2814   -4.7486 H   0  0  0  0  0  0  0  0  0  0  0  0
    2.2207   -7.2298   -6.3578 H   0  0  0  0  0  0  0  0  0  0  0  0
    0.6168   -5.3307   -6.9924 H   0  0  0  0  0  0  0  0  0  0  0  0
   -0.3979   -7.7505   -4.2327 H   0  0  0  0  0  0  0  0  0  0  0  0
   -1.7458   -8.2442   -5.2819 H   0  0  0  0  0  0  0  0  0  0  0  0
   -1.9703   -6.9156   -4.1395 H   0  0  0  0  0  0  0  0  0  0  0  0
   -1.6354   -5.0509   -7.4101 H   0  0  0  0  0  0  0  0  0  0  0  0
   -2.6541   -5.2242   -5.9534 H   0  0  0  0  0  0  0  0  0  0  0  0
   -2.5929   -6.5325   -7.1402 H   0  0  0  0  0  0  0  0  0  0  0  0
    4.6837   -5.0477   -5.2585 H   0  0  0  0  0  0  0  0  0  0  0  0
    4.3070   -6.6377   -5.9141 H   0  0  0  0  0  0  0  0  0  0  0  0
    5.4333   -6.7946   -3.6493 H   0  0  0  0  0  0  0  0  0  0  0  0
    3.8235   -7.5345   -3.6515 H   0  0  0  0  0  0  0  0  0  0  0  0
    3.7193   -4.9202    0.0201 H   0  0  0  0  0  0  0  0  0  0  0  0
    3.4238   -4.3039    2.1439 H   0  0  0  0  0  0  0  0  0  0  0  0
  1  2  1  0
  1 22  1  0
  1 23  1  0
  1 24  1  0
  2  3  1  0
  3  4  2  0
  3 20  1  0
  4  5  1  0
  4 25  1  0
  5  6  2  0
  5 26  1  0
  6  7  1  0
  6 19  1  0
  7  8  1  0
  7 27  1  0
  8  9  1  0
  8 18  1  0
  8 28  1  1
  9 10  1  0
  9 29  1  0
  9 30  1  0
 10 11  1  0
 10 31  1  0
 10 32  1  0
 11 12  1  0
 11 17  1  0
 12 13  1  0
 12 33  1  0
 12 34  1  0
 13 14  2  0
 13 35  1  0
 14 15  1  0
 14 16  1  0
 15 36  1  0
 15 37  1  0
 15 38  1  0
 16 39  1  0
 16 40  1  0
 16 41  1  0
 17 18  1  0
 17 42  1  0
 17 43  1  0
 18 44  1  0
 18 45  1  0
 19 20  2  0
 19 46  1  0
 20 21  1  0
 21 47  1  0
M  END

