
     RDKit          3D

 28 29  0  0  0  0  0  0  0  0999 V2000
    1.0408    0.4488    1.6842 C   0  0  0  0  0  0  0  0  0  0  0  0
    2.4678    0.3489    1.6414 O   0  0  0  0  0  0  0  0  0  0  0  0
    3.0905    1.0059    0.6529 C   0  0  0  0  0  0  0  0  0  0  0  0
    2.5191    1.6646   -0.1821 O   0  0  0  0  0  0  0  0  0  0  0  0
    4.5921    0.7790    0.7332 C   0  0  1  0  0  0  0  0  0  0  0  0
    5.1686    1.2224    2.0990 C   0  0  0  0  0  0  0  0  0  0  0  0
    5.7030    0.4099    2.8202 O   0  0  0  0  0  0  0  0  0  0  0  0
    5.0726    2.6734    2.4580 C   0  0  0  0  0  0  0  0  0  0  0  0
    4.5790    3.6402    1.5555 C   0  0  0  0  0  0  0  0  0  0  0  0
    4.5134    4.9934    1.8758 C   0  0  0  0  0  0  0  0  0  0  0  0
    4.9505    5.3996    3.1360 C   0  0  0  0  0  0  0  0  0  0  0  0
    4.8951    6.6909    3.4629 F   0  0  0  0  0  0  0  0  0  0  0  0
    5.4428    4.4917    4.0688 C   0  0  0  0  0  0  0  0  0  0  0  0
    5.5009    3.1444    3.7204 C   0  0  0  0  0  0  0  0  0  0  0  0
    5.9720    2.3084    4.6365 F   0  0  0  0  0  0  0  0  0  0  0  0
    5.0176   -0.6518    0.3116 C   0  0  0  0  0  0  0  0  0  0  0  0
    5.7286   -0.1550   -0.8298 O   0  0  0  0  0  0  0  0  0  0  0  0
    5.3924    1.2012   -0.5275 C   0  0  0  0  0  0  0  0  0  0  0  0
    0.7221   -0.1325    2.5575 H   0  0  0  0  0  0  0  0  0  0  0  0
    0.5960    0.0371    0.7661 H   0  0  0  0  0  0  0  0  0  0  0  0
    0.7287    1.4988    1.7862 H   0  0  0  0  0  0  0  0  0  0  0  0
    4.2192    3.3313    0.5743 H   0  0  0  0  0  0  0  0  0  0  0  0
    4.1303    5.7318    1.1704 H   0  0  0  0  0  0  0  0  0  0  0  0
    5.7792    4.8192    5.0529 H   0  0  0  0  0  0  0  0  0  0  0  0
    4.1879   -1.3250    0.0346 H   0  0  0  0  0  0  0  0  0  0  0  0
    5.6667   -1.1470    1.0502 H   0  0  0  0  0  0  0  0  0  0  0  0
    4.7729    1.6776   -1.3064 H   0  0  0  0  0  0  0  0  0  0  0  0
    6.2838    1.8234   -0.3313 H   0  0  0  0  0  0  0  0  0  0  0  0
  1  2  1  0
  1 19  1  0
  1 20  1  0
  1 21  1  0
  2  3  1  0
  3  4  2  0
  5  3  1  6
  5  6  1  0
  5 16  1  0
  5 18  1  0
  6  7  2  0
  6  8  1  0
  8  9  2  0
  8 14  1  0
  9 10  1  0
  9 22  1  0
 10 11  2  0
 10 23  1  0
 11 12  1  0
 11 13  1  0
 13 14  2  0
 13 24  1  0
 14 15  1  0
 16 17  1  0
 16 25  1  0
 16 26  1  0
 17 18  1  0
 18 27  1  0
 18 28  1  0
M  END

