
     RDKit          3D

 66 69  0  0  0  0  0  0  0  0999 V2000
    3.3119    1.8634    2.5541 C   0  0  0  0  0  0  0  0  0  0  0  0
    4.5280    1.6022    1.7866 N   0  0  0  0  0  0  0  0  0  0  0  0
    5.4375    0.5613    2.2678 C   0  0  0  0  0  0  0  0  0  0  0  0
    4.7689    2.2477    0.6115 C   0  0  0  0  0  0  0  0  0  0  0  0
    3.8299    3.1891    0.0780 C   0  0  0  0  0  0  0  0  0  0  0  0
    4.0601    3.7777   -1.1457 C   0  0  0  0  0  0  0  0  0  0  0  0
    5.2117    3.4740   -1.9143 C   0  0  0  0  0  0  0  0  0  0  0  0
    5.3695    4.0440   -3.3055 C   0  0  0  0  0  0  0  0  0  0  0  0
    6.4863    3.5455   -4.0567 N   0  0  0  0  0  0  0  0  0  0  0  0
    6.1689    2.4591   -5.0343 C   0  0  0  0  0  0  0  0  0  0  0  0
    4.9117    2.3605   -5.3133 O   0  0  0  0  0  0  0  0  0  0  0  0
    6.9976    1.1887   -4.8648 C   0  0  1  0  0  0  0  0  0  0  0  0
    6.8261    0.7675   -3.8584 H   0  0  0  0  0  0  0  0  0  0  0  0
    6.6856    0.1488   -5.8381 N   0  0  0  0  0  0  0  0  0  0  0  0
    5.6090   -0.8326   -5.6858 C   0  0  1  0  0  0  0  0  0  0  0  0
    5.9884   -1.8268   -5.9863 H   0  0  0  0  0  0  0  0  0  0  0  0
    5.0967   -0.9694   -4.2364 C   0  0  0  0  0  0  0  0  0  0  0  0
    4.1497   -2.1605   -4.0037 C   0  0  0  0  0  0  0  0  0  0  0  0
    3.6566   -2.2186   -2.5744 C   0  0  0  0  0  0  0  0  0  0  0  0
    2.5021   -1.5174   -2.1841 C   0  0  0  0  0  0  0  0  0  0  0  0
    2.0539   -1.5415   -0.8602 C   0  0  0  0  0  0  0  0  0  0  0  0
    2.7561   -2.2681    0.1081 C   0  0  0  0  0  0  0  0  0  0  0  0
    3.9072   -2.9705   -0.2630 C   0  0  0  0  0  0  0  0  0  0  0  0
    4.3493   -2.9432   -1.5899 C   0  0  0  0  0  0  0  0  0  0  0  0
    4.3966   -0.6241   -6.6328 C   0  0  0  0  0  0  0  0  0  0  0  0
    3.8571   -1.5912   -7.1357 O   0  0  0  0  0  0  0  0  0  0  0  0
    3.9885    0.6070   -6.8395 O   0  0  0  0  0  0  0  0  0  0  0  0
    8.5107    1.4375   -4.9461 C   0  0  0  0  0  0  0  0  0  0  0  0
    9.0022    2.3632   -3.9719 O   0  0  0  0  0  0  0  0  0  0  0  0
    8.8984    3.7010   -4.2518 C   0  0  0  0  0  0  0  0  0  0  0  0
   10.0698    4.4406   -4.4438 C   0  0  0  0  0  0  0  0  0  0  0  0
   10.0150    5.8251   -4.6243 C   0  0  0  0  0  0  0  0  0  0  0  0
    8.7739    6.4678   -4.6277 C   0  0  0  0  0  0  0  0  0  0  0  0
    7.6004    5.7269   -4.4572 C   0  0  0  0  0  0  0  0  0  0  0  0
    7.6328    4.3357   -4.2582 C   0  0  0  0  0  0  0  0  0  0  0  0
    6.1669    2.5906   -1.3607 C   0  0  0  0  0  0  0  0  0  0  0  0
    5.9593    1.9861   -0.1397 C   0  0  0  0  0  0  0  0  0  0  0  0
    3.3579    1.3149    3.5001 H   0  0  0  0  0  0  0  0  0  0  0  0
    2.4200    1.5321    1.9995 H   0  0  0  0  0  0  0  0  0  0  0  0
    3.2140    2.9359    2.7756 H   0  0  0  0  0  0  0  0  0  0  0  0
    5.0637    0.1699    3.2188 H   0  0  0  0  0  0  0  0  0  0  0  0
    6.4470    0.9669    2.4284 H   0  0  0  0  0  0  0  0  0  0  0  0
    5.4961   -0.2639    1.5420 H   0  0  0  0  0  0  0  0  0  0  0  0
    2.9142    3.4235    0.6173 H   0  0  0  0  0  0  0  0  0  0  0  0
    3.3169    4.4674   -1.5526 H   0  0  0  0  0  0  0  0  0  0  0  0
    5.3706    5.1439   -3.2143 H   0  0  0  0  0  0  0  0  0  0  0  0
    4.4426    3.7854   -3.8560 H   0  0  0  0  0  0  0  0  0  0  0  0
    6.6884    0.5366   -6.7780 H   0  0  0  0  0  0  0  0  0  0  0  0
    4.5927   -0.0322   -3.9456 H   0  0  0  0  0  0  0  0  0  0  0  0
    5.9640   -1.0841   -3.5659 H   0  0  0  0  0  0  0  0  0  0  0  0
    4.6771   -3.0963   -4.2519 H   0  0  0  0  0  0  0  0  0  0  0  0
    3.2983   -2.0979   -4.6969 H   0  0  0  0  0  0  0  0  0  0  0  0
    1.9419   -0.9548   -2.9367 H   0  0  0  0  0  0  0  0  0  0  0  0
    1.1419   -1.0024   -0.5873 H   0  0  0  0  0  0  0  0  0  0  0  0
    2.3961   -2.3051    1.1405 H   0  0  0  0  0  0  0  0  0  0  0  0
    4.4547   -3.5582    0.4800 H   0  0  0  0  0  0  0  0  0  0  0  0
    5.2441   -3.5059   -1.8728 H   0  0  0  0  0  0  0  0  0  0  0  0
    4.4365    1.3147   -6.2269 H   0  0  0  0  0  0  0  0  0  0  0  0
    8.7771    1.7875   -5.9600 H   0  0  0  0  0  0  0  0  0  0  0  0
    9.0331    0.4887   -4.7574 H   0  0  0  0  0  0  0  0  0  0  0  0
   11.0222    3.9058   -4.4230 H   0  0  0  0  0  0  0  0  0  0  0  0
   10.9365    6.3961   -4.7648 H   0  0  0  0  0  0  0  0  0  0  0  0
    8.7124    7.5479   -4.7828 H   0  0  0  0  0  0  0  0  0  0  0  0
    6.6353    6.2387   -4.4942 H   0  0  0  0  0  0  0  0  0  0  0  0
    7.0602    2.3772   -1.9481 H   0  0  0  0  0  0  0  0  0  0  0  0
    6.7077    1.2925    0.2389 H   0  0  0  0  0  0  0  0  0  0  0  0
  1  2  1  0
  1 38  1  0
  1 39  1  0
  1 40  1  0
  2  3  1  0
  2  4  1  0
  3 41  1  0
  3 42  1  0
  3 43  1  0
  4  5  2  0
  4 37  1  0
  5  6  1  0
  5 44  1  0
  6  7  2  0
  6 45  1  0
  7  8  1  0
  7 36  1  0
  8  9  1  0
  8 46  1  0
  8 47  1  0
  9 10  1  0
  9 35  1  0
 10 11  2  0
 10 12  1  0
 12 13  1  1
 12 14  1  0
 12 28  1  0
 14 15  1  0
 14 48  1  0
 15 16  1  6
 15 17  1  0
 15 25  1  0
 17 18  1  0
 17 49  1  0
 17 50  1  0
 18 19  1  0
 18 51  1  0
 18 52  1  0
 19 20  2  0
 19 24  1  0
 20 21  1  0
 20 53  1  0
 21 22  2  0
 21 54  1  0
 22 23  1  0
 22 55  1  0
 23 24  2  0
 23 56  1  0
 24 57  1  0
 25 26  2  0
 25 27  1  0
 27 58  1  0
 28 29  1  0
 28 59  1  0
 28 60  1  0
 29 30  1  0
 30 31  1  0
 30 35  2  0
 31 32  2  0
 31 61  1  0
 32 33  1  0
 32 62  1  0
 33 34  2  0
 33 63  1  0
 34 35  1  0
 34 64  1  0
 36 37  2  0
 36 65  1  0
 37 66  1  0
M  END

