
     RDKit          3D

 64 67  0  0  0  0  0  0  0  0999 V2000
    4.0877   -0.5403    4.1490 C   0  0  0  0  0  0  0  0  0  0  0  0
    4.4022   -0.5935    2.6535 C   0  0  2  0  0  0  0  0  0  0  0  0
    5.7621    0.0601    2.2887 C   0  0  0  0  0  0  0  0  0  0  0  0
    6.0476   -0.2552    0.8173 C   0  0  0  0  0  0  0  0  0  0  0  0
    6.6774   -1.2434    0.4985 O   0  0  0  0  0  0  0  0  0  0  0  0
    5.3168    0.5281   -0.1060 N   0  0  0  0  0  0  0  0  0  0  0  0
    4.1127   -0.1552   -0.5721 C   0  0  0  0  0  0  0  0  0  0  0  0
    4.0606   -0.7908   -1.8435 C   0  0  0  0  0  0  0  0  0  0  0  0
    3.1326   -1.7715   -2.1342 C   0  0  0  0  0  0  0  0  0  0  0  0
    2.2136   -2.2467   -1.1279 C   0  0  0  0  0  0  0  0  0  0  0  0
    2.3056   -1.7025    0.1650 C   0  0  0  0  0  0  0  0  0  0  0  0
    3.2038   -0.6845    0.4511 C   0  0  0  0  0  0  0  0  0  0  0  0
    3.3019   -0.0878    1.7777 N   0  0  0  0  0  0  0  0  0  0  0  0
    2.7452    1.1185    2.0177 C   0  0  0  0  0  0  0  0  0  0  0  0
    3.0351    1.8888    2.9321 O   0  0  0  0  0  0  0  0  0  0  0  0
    1.6559    1.5437    0.9978 C   0  0  0  0  0  0  0  0  0  0  0  0
    0.7598    2.5602    1.5542 N   0  0  0  0  0  0  0  0  0  0  0  0
    1.2541    3.8682    1.8213 C   0  0  0  0  0  0  0  0  0  0  0  0
    0.9341    4.8128    0.5751 C   0  0  0  0  0  0  0  0  0  0  0  0
   -0.4726    4.7692    0.2972 N   0  0  0  0  0  0  0  0  0  0  0  0
   -1.3419    5.7060    0.9803 C   0  0  0  0  0  0  0  0  0  0  0  0
   -1.0993    7.1676    0.5402 C   0  0  0  0  0  0  0  0  0  0  0  0
   -0.1061    7.4870   -0.0858 O   0  0  0  0  0  0  0  0  0  0  0  0
   -2.0412    8.0658    0.9347 N   0  0  0  0  0  0  0  0  0  0  0  0
   -3.3164    7.8268    1.6070 C   0  0  0  0  0  0  0  0  0  0  0  0
   -3.8235    9.0811    2.2904 C   0  0  0  0  0  0  0  0  0  0  0  0
   -5.0849    9.6041    1.9762 C   0  0  0  0  0  0  0  0  0  0  0  0
   -5.5587   10.7534    2.6174 C   0  0  0  0  0  0  0  0  0  0  0  0
   -4.7713   11.3948    3.5761 C   0  0  0  0  0  0  0  0  0  0  0  0
   -3.5083   10.8823    3.8934 C   0  0  0  0  0  0  0  0  0  0  0  0
   -3.0385    9.7326    3.2560 C   0  0  0  0  0  0  0  0  0  0  0  0
   -0.9627    3.4517    0.0341 C   0  0  0  0  0  0  0  0  0  0  0  0
   -0.6322    2.5019    1.2803 C   0  0  0  0  0  0  0  0  0  0  0  0
    4.8448   -1.1251    4.6951 H   0  0  0  0  0  0  0  0  0  0  0  0
    3.1034   -0.9933    4.3516 H   0  0  0  0  0  0  0  0  0  0  0  0
    4.0820    0.4858    4.5357 H   0  0  0  0  0  0  0  0  0  0  0  0
    4.4777   -1.6526    2.3664 H   0  0  0  0  0  0  0  0  0  0  0  0
    6.5504   -0.3866    2.9125 H   0  0  0  0  0  0  0  0  0  0  0  0
    5.7142    1.1434    2.4908 H   0  0  0  0  0  0  0  0  0  0  0  0
    5.0997    1.4375    0.2962 H   0  0  0  0  0  0  0  0  0  0  0  0
    4.7926   -0.4819   -2.5959 H   0  0  0  0  0  0  0  0  0  0  0  0
    3.1029   -2.2050   -3.1376 H   0  0  0  0  0  0  0  0  0  0  0  0
    1.5185   -3.0593   -1.3419 H   0  0  0  0  0  0  0  0  0  0  0  0
    1.6514   -2.0703    0.9640 H   0  0  0  0  0  0  0  0  0  0  0  0
    1.0657    0.6815    0.6756 H   0  0  0  0  0  0  0  0  0  0  0  0
    2.1604    1.9268    0.0953 H   0  0  0  0  0  0  0  0  0  0  0  0
    2.3291    3.8350    2.0174 H   0  0  0  0  0  0  0  0  0  0  0  0
    0.7469    4.2970    2.7019 H   0  0  0  0  0  0  0  0  0  0  0  0
    1.4959    4.4307   -0.2887 H   0  0  0  0  0  0  0  0  0  0  0  0
    1.2544    5.8385    0.7819 H   0  0  0  0  0  0  0  0  0  0  0  0
   -1.2056    5.6567    2.0815 H   0  0  0  0  0  0  0  0  0  0  0  0
   -2.3839    5.4208    0.7807 H   0  0  0  0  0  0  0  0  0  0  0  0
   -1.8602    9.0133    0.6117 H   0  0  0  0  0  0  0  0  0  0  0  0
   -3.1842    7.0350    2.3629 H   0  0  0  0  0  0  0  0  0  0  0  0
   -4.0814    7.4669    0.8950 H   0  0  0  0  0  0  0  0  0  0  0  0
   -5.7043    9.1097    1.2224 H   0  0  0  0  0  0  0  0  0  0  0  0
   -6.5444   11.1497    2.3620 H   0  0  0  0  0  0  0  0  0  0  0  0
   -5.1390   12.2940    4.0761 H   0  0  0  0  0  0  0  0  0  0  0  0
   -2.8881   11.3792    4.6434 H   0  0  0  0  0  0  0  0  0  0  0  0
   -2.0505    9.3379    3.5090 H   0  0  0  0  0  0  0  0  0  0  0  0
   -0.4576    3.0289   -0.8457 H   0  0  0  0  0  0  0  0  0  0  0  0
   -2.0464    3.4580   -0.1415 H   0  0  0  0  0  0  0  0  0  0  0  0
   -0.9517    1.4794    1.0502 H   0  0  0  0  0  0  0  0  0  0  0  0
   -1.2148    2.8822    2.1362 H   0  0  0  0  0  0  0  0  0  0  0  0
  1  2  1  0
  1 34  1  0
  1 35  1  0
  1 36  1  0
  2  3  1  0
  2 13  1  0
  2 37  1  6
  3  4  1  0
  3 38  1  0
  3 39  1  0
  4  5  2  0
  4  6  1  0
  6  7  1  0
  6 40  1  0
  7  8  2  0
  7 12  1  0
  8  9  1  0
  8 41  1  0
  9 10  2  0
  9 42  1  0
 10 11  1  0
 10 43  1  0
 11 12  2  0
 11 44  1  0
 12 13  1  0
 13 14  1  0
 14 15  2  0
 14 16  1  0
 16 17  1  0
 16 45  1  0
 16 46  1  0
 17 18  1  0
 17 33  1  0
 18 19  1  0
 18 47  1  0
 18 48  1  0
 19 20  1  0
 19 49  1  0
 19 50  1  0
 20 21  1  0
 20 32  1  0
 21 22  1  0
 21 51  1  0
 21 52  1  0
 22 23  2  0
 22 24  1  0
 24 25  1  0
 24 53  1  0
 25 26  1  0
 25 54  1  0
 25 55  1  0
 26 27  2  0
 26 31  1  0
 27 28  1  0
 27 56  1  0
 28 29  2  0
 28 57  1  0
 29 30  1  0
 29 58  1  0
 30 31  2  0
 30 59  1  0
 31 60  1  0
 32 33  1  0
 32 61  1  0
 32 62  1  0
 33 63  1  0
 33 64  1  0
M  END

