
     RDKit          3D

 50 51  0  0  0  0  0  0  0  0999 V2000
    0.8886   -0.7734    0.7407 C   0  0  0  0  0  0  0  0  0  0  0  0
    2.4057   -0.7661    0.7238 C   0  0  0  0  0  0  0  0  0  0  0  0
    2.8447    0.5655    0.9168 O   0  0  0  0  0  0  0  0  0  0  0  0
    4.1789    0.8424    0.8963 C   0  0  0  0  0  0  0  0  0  0  0  0
    5.1971   -0.1147    0.7590 C   0  0  0  0  0  0  0  0  0  0  0  0
    6.5383    0.2593    0.7243 C   0  0  0  0  0  0  0  0  0  0  0  0
    6.9357    1.6230    0.8246 C   0  0  0  0  0  0  0  0  0  0  0  0
    8.2885    2.0614    0.7849 C   0  0  0  0  0  0  0  0  0  0  0  0
    9.4370    1.2438    0.6385 C   0  0  0  0  0  0  0  0  0  0  0  0
   10.7280    1.7626    0.6195 C   0  0  0  0  0  0  0  0  0  0  0  0
   10.9552    3.0672    0.7219 O   0  0  0  0  0  0  0  0  0  0  0  0
   11.8682    1.0340    0.4825 N   0  0  0  0  0  0  0  0  0  0  0  0
   11.8032   -0.3903    0.2111 C   0  0  0  0  0  0  0  0  0  0  0  0
   13.1585    1.7215    0.3618 C   0  0  0  0  0  0  0  0  0  0  0  0
   13.6589    1.8817   -1.0632 C   0  0  0  0  0  0  0  0  0  0  0  0
   12.9804    2.7168   -1.9674 C   0  0  0  0  0  0  0  0  0  0  0  0
   13.4293    2.8481   -3.2822 C   0  0  0  0  0  0  0  0  0  0  0  0
   14.5660    2.1524   -3.7116 C   0  0  0  0  0  0  0  0  0  0  0  0
   15.2516    1.3261   -2.8184 C   0  0  0  0  0  0  0  0  0  0  0  0
   14.7985    1.1927   -1.5016 C   0  0  0  0  0  0  0  0  0  0  0  0
    5.8813    2.5752    0.9763 C   0  0  0  0  0  0  0  0  0  0  0  0
    4.5461    2.2123    1.0118 C   0  0  0  0  0  0  0  0  0  0  0  0
    3.5888    3.1881    1.0980 O   0  0  0  0  0  0  0  0  0  0  0  0
    2.8578    3.2716    2.3194 C   0  0  0  0  0  0  0  0  0  0  0  0
    1.8488    4.3958    2.1882 C   0  0  0  0  0  0  0  0  0  0  0  0
    0.5105   -1.7945    0.5766 H   0  0  0  0  0  0  0  0  0  0  0  0
    0.4894   -0.1213   -0.0511 H   0  0  0  0  0  0  0  0  0  0  0  0
    0.5058   -0.4130    1.7081 H   0  0  0  0  0  0  0  0  0  0  0  0
    2.7870   -1.1530   -0.2407 H   0  0  0  0  0  0  0  0  0  0  0  0
    2.8081   -1.4214    1.5207 H   0  0  0  0  0  0  0  0  0  0  0  0
    4.9442   -1.1720    0.6705 H   0  0  0  0  0  0  0  0  0  0  0  0
    7.2917   -0.5225    0.6132 H   0  0  0  0  0  0  0  0  0  0  0  0
    8.4362    3.1401    0.8746 H   0  0  0  0  0  0  0  0  0  0  0  0
    9.3431    0.1653    0.5404 H   0  0  0  0  0  0  0  0  0  0  0  0
   11.3033   -0.6072   -0.7481 H   0  0  0  0  0  0  0  0  0  0  0  0
   11.2650   -0.9175    1.0143 H   0  0  0  0  0  0  0  0  0  0  0  0
   12.8270   -0.7834    0.1621 H   0  0  0  0  0  0  0  0  0  0  0  0
   13.9010    1.1662    0.9569 H   0  0  0  0  0  0  0  0  0  0  0  0
   13.0404    2.7117    0.8326 H   0  0  0  0  0  0  0  0  0  0  0  0
   12.1003    3.2710   -1.6299 H   0  0  0  0  0  0  0  0  0  0  0  0
   12.8943    3.5025   -3.9750 H   0  0  0  0  0  0  0  0  0  0  0  0
   14.9180    2.2596   -4.7408 H   0  0  0  0  0  0  0  0  0  0  0  0
   16.1421    0.7830   -3.1451 H   0  0  0  0  0  0  0  0  0  0  0  0
   15.3415    0.5468   -0.8048 H   0  0  0  0  0  0  0  0  0  0  0  0
    6.1135    3.6399    1.0568 H   0  0  0  0  0  0  0  0  0  0  0  0
    3.5581    3.4682    3.1547 H   0  0  0  0  0  0  0  0  0  0  0  0
    2.3499    2.3141    2.5254 H   0  0  0  0  0  0  0  0  0  0  0  0
    2.3542    5.3516    1.9795 H   0  0  0  0  0  0  0  0  0  0  0  0
    1.2683    4.5026    3.1183 H   0  0  0  0  0  0  0  0  0  0  0  0
    1.1506    4.1908    1.3619 H   0  0  0  0  0  0  0  0  0  0  0  0
  1  2  1  0
  1 26  1  0
  1 27  1  0
  1 28  1  0
  2  3  1  0
  2 29  1  0
  2 30  1  0
  3  4  1  0
  4  5  2  0
  4 22  1  0
  5  6  1  0
  5 31  1  0
  6  7  2  0
  6 32  1  0
  7  8  1  0
  7 21  1  0
  8  9  2  0
  8 33  1  0
  9 10  1  0
  9 34  1  0
 10 11  2  0
 10 12  1  0
 12 13  1  0
 12 14  1  0
 13 35  1  0
 13 36  1  0
 13 37  1  0
 14 15  1  0
 14 38  1  0
 14 39  1  0
 15 16  2  0
 15 20  1  0
 16 17  1  0
 16 40  1  0
 17 18  2  0
 17 41  1  0
 18 19  1  0
 18 42  1  0
 19 20  2  0
 19 43  1  0
 20 44  1  0
 21 22  2  0
 21 45  1  0
 22 23  1  0
 23 24  1  0
 24 25  1  0
 24 46  1  0
 24 47  1  0
 25 48  1  0
 25 49  1  0
 25 50  1  0
M  END

