
     RDKit          3D

 37 38  0  0  0  0  0  0  0  0999 V2000
    1.3683   -0.1699   -0.5704 C   0  0  0  0  0  0  0  0  0  0  0  0
    2.7003   -0.3400   -0.1596 O   0  0  0  0  0  0  0  0  0  0  0  0
    2.9054   -0.4231    1.2346 C   0  0  1  0  0  0  0  0  0  0  0  0
    2.2236   -1.6301    1.8501 C   0  0  0  0  0  0  0  0  0  0  0  0
    2.1882   -2.8099    1.2430 N   0  0  0  0  0  0  0  0  0  0  0  0
    1.4719   -3.6205    2.1429 O   0  0  0  0  0  0  0  0  0  0  0  0
    1.1553   -2.8198    3.2111 C   0  0  0  0  0  0  0  0  0  0  0  0
    0.4225   -3.3679    4.3037 C   0  0  0  0  0  0  0  0  0  0  0  0
    0.0015   -4.7425    4.3214 C   0  0  0  0  0  0  0  0  0  0  0  0
   -0.7268   -5.2990    5.3966 C   0  0  0  0  0  0  0  0  0  0  0  0
   -1.0769   -4.5359    6.5074 C   0  0  0  0  0  0  0  0  0  0  0  0
   -0.6624   -3.1738    6.4993 C   0  0  0  0  0  0  0  0  0  0  0  0
   -0.9487   -2.3612    7.5194 O   0  0  0  0  0  0  0  0  0  0  0  0
    0.0719   -2.5899    5.4278 C   0  0  0  0  0  0  0  0  0  0  0  0
    1.6057   -1.5730    3.0500 N   0  0  0  0  0  0  0  0  0  0  0  0
    4.4436   -0.3513    1.4891 C   0  0  1  0  0  0  0  0  0  0  0  0
    4.9443    1.0119    0.9736 C   0  0  0  0  0  0  0  0  0  0  0  0
    4.7279   -0.4541    2.9981 C   0  0  0  0  0  0  0  0  0  0  0  0
    5.1666   -1.4842    0.7395 C   0  0  0  0  0  0  0  0  0  0  0  0
    1.3794   -0.0182   -1.6602 H   0  0  0  0  0  0  0  0  0  0  0  0
    0.9004    0.7172   -0.0963 H   0  0  0  0  0  0  0  0  0  0  0  0
    0.7461   -1.0558   -0.3468 H   0  0  0  0  0  0  0  0  0  0  0  0
    2.4452    0.4528    1.7367 H   0  0  0  0  0  0  0  0  0  0  0  0
    0.2599   -5.3708    3.4671 H   0  0  0  0  0  0  0  0  0  0  0  0
   -1.0157   -6.3511    5.3446 H   0  0  0  0  0  0  0  0  0  0  0  0
   -1.6399   -4.9477    7.3479 H   0  0  0  0  0  0  0  0  0  0  0  0
   -1.4467   -2.8371    8.2041 H   0  0  0  0  0  0  0  0  0  0  0  0
    0.3578   -1.5397    5.4900 H   0  0  0  0  0  0  0  0  0  0  0  0
    4.4664    1.8437    1.5183 H   0  0  0  0  0  0  0  0  0  0  0  0
    4.7213    1.1328   -0.0957 H   0  0  0  0  0  0  0  0  0  0  0  0
    6.0338    1.1009    1.1149 H   0  0  0  0  0  0  0  0  0  0  0  0
    4.1770    0.3118    3.5681 H   0  0  0  0  0  0  0  0  0  0  0  0
    5.8039   -0.3074    3.1869 H   0  0  0  0  0  0  0  0  0  0  0  0
    4.4460   -1.4365    3.4052 H   0  0  0  0  0  0  0  0  0  0  0  0
    4.9906   -1.4100   -0.3430 H   0  0  0  0  0  0  0  0  0  0  0  0
    4.8100   -2.4724    1.0663 H   0  0  0  0  0  0  0  0  0  0  0  0
    6.2527   -1.4274    0.9217 H   0  0  0  0  0  0  0  0  0  0  0  0
  1  2  1  0
  1 20  1  0
  1 21  1  0
  1 22  1  0
  2  3  1  0
  3  4  1  0
  3 16  1  0
  3 23  1  1
  4  5  2  0
  4 15  1  0
  5  6  1  0
  6  7  1  0
  7  8  1  0
  7 15  2  0
  8  9  2  0
  8 14  1  0
  9 10  1  0
  9 24  1  0
 10 11  2  0
 10 25  1  0
 11 12  1  0
 11 26  1  0
 12 13  1  0
 12 14  2  0
 13 27  1  0
 14 28  1  0
 16 17  1  6
 16 18  1  0
 16 19  1  0
 17 29  1  0
 17 30  1  0
 17 31  1  0
 18 32  1  0
 18 33  1  0
 18 34  1  0
 19 35  1  0
 19 36  1  0
 19 37  1  0
M  END

