
     RDKit          3D

186191  0  0  0  0  0  0  0  0999 V2000
    2.7136   -1.6555    2.9798 C   0  0  0  0  0  0  0  0  0  0  0  0
    4.1559   -1.3008    3.3444 C   0  0  0  0  0  0  0  0  0  0  0  0
    4.5443    0.1362    2.9824 C   0  0  0  0  0  0  0  0  0  0  0  0
    5.9884    0.4990    3.3411 C   0  0  0  0  0  0  0  0  0  0  0  0
    6.3760    1.9363    2.9808 C   0  0  0  0  0  0  0  0  0  0  0  0
    7.8225    2.2953    3.3340 C   0  0  0  0  0  0  0  0  0  0  0  0
    8.2107    3.7334    2.9779 C   0  0  0  0  0  0  0  0  0  0  0  0
    9.6610    4.0860    3.3219 C   0  0  0  0  0  0  0  0  0  0  0  0
   10.0501    5.5251    2.9722 C   0  0  0  0  0  0  0  0  0  0  0  0
   11.5063    5.8666    3.3037 C   0  0  0  0  0  0  0  0  0  0  0  0
   11.8908    7.3081    2.9604 C   0  0  0  0  0  0  0  0  0  0  0  0
   13.3457    7.6181    3.2751 C   0  0  0  0  0  0  0  0  0  0  0  0
   13.6005    8.9709    2.9299 O   0  0  0  0  0  0  0  0  0  0  0  0
   14.8354    9.4827    3.0942 C   0  0  0  0  0  0  0  0  0  0  0  0
   15.9303    8.7889    3.5972 C   0  0  0  0  0  0  0  0  0  0  0  0
   17.1937    9.4056    3.7289 C   0  0  0  0  0  0  0  0  0  0  0  0
   17.3376   10.7840    3.3308 C   0  0  0  0  0  0  0  0  0  0  0  0
   16.2123   11.4907    2.8200 C   0  0  0  0  0  0  0  0  0  0  0  0
   14.9843   10.8648    2.7012 C   0  0  0  0  0  0  0  0  0  0  0  0
   13.8672   11.4474    2.2327 O   0  0  0  0  0  0  0  0  0  0  0  0
   13.9140   12.8091    1.8170 C   0  0  0  0  0  0  0  0  0  0  0  0
   12.5245   13.2126    1.3519 C   0  0  0  0  0  0  0  0  0  0  0  0
   12.4622   14.6637    0.8674 C   0  0  0  0  0  0  0  0  0  0  0  0
   11.0657   15.0964    0.4106 C   0  0  0  0  0  0  0  0  0  0  0  0
   11.0000   16.5439   -0.0849 C   0  0  0  0  0  0  0  0  0  0  0  0
    9.6035   16.9841   -0.5341 C   0  0  0  0  0  0  0  0  0  0  0  0
    9.5411   18.4294   -1.0369 C   0  0  0  0  0  0  0  0  0  0  0  0
    8.1446   18.8734   -1.4821 C   0  0  0  0  0  0  0  0  0  0  0  0
    8.0850   20.3168   -1.9907 C   0  0  0  0  0  0  0  0  0  0  0  0
    6.6888   20.7632   -2.4344 C   0  0  0  0  0  0  0  0  0  0  0  0
    6.6308   22.2053   -2.9478 C   0  0  0  0  0  0  0  0  0  0  0  0
    5.2336   22.6436   -3.3890 C   0  0  0  0  0  0  0  0  0  0  0  0
   18.6053   11.3867    3.4629 C   0  0  0  0  0  0  0  0  0  0  0  0
   19.1345   12.6805    3.1872 C   0  0  0  0  0  0  0  0  0  0  0  0
   18.7269   13.9784    2.6781 C   0  0  0  0  0  0  0  0  0  0  0  0
   17.6625   14.4261    2.2710 O   0  0  0  0  0  0  0  0  0  0  0  0
   19.9360   14.7522    2.7396 N   0  0  0  0  0  0  0  0  0  0  0  0
   20.0549   16.0689    2.3604 C   0  0  0  0  0  0  0  0  0  0  0  0
   21.2554   16.7011    2.4664 C   0  0  0  0  0  0  0  0  0  0  0  0
   22.4178   16.0102    2.9715 C   0  0  0  0  0  0  0  0  0  0  0  0
   23.6715   16.6371    3.0882 C   0  0  0  0  0  0  0  0  0  0  0  0
   24.7850   15.9470    3.5743 C   0  0  0  0  0  0  0  0  0  0  0  0
   26.0256   16.4758    3.6949 O   0  0  0  0  0  0  0  0  0  0  0  0
   26.2749   17.8035    3.2539 C   0  0  0  0  0  0  0  0  0  0  0  0
   27.7526   18.1122    3.4402 C   0  0  0  0  0  0  0  0  0  0  0  0
   28.6832   17.2267    2.6037 C   0  0  0  0  0  0  0  0  0  0  0  0
   30.1728   17.5808    2.7132 C   0  0  0  0  0  0  0  0  0  0  0  0
   30.8044   17.3342    4.0885 C   0  0  0  0  0  0  0  0  0  0  0  0
   32.3028   17.6488    4.1381 C   0  0  0  0  0  0  0  0  0  0  0  0
   32.9422   17.4102    5.5093 C   0  0  0  0  0  0  0  0  0  0  0  0
   34.4381   17.7349    5.5618 C   0  0  0  0  0  0  0  0  0  0  0  0
   35.0770   17.4992    6.9337 C   0  0  0  0  0  0  0  0  0  0  0  0
   36.5712   17.8302    6.9882 C   0  0  0  0  0  0  0  0  0  0  0  0
   37.2109   17.5958    8.3604 C   0  0  0  0  0  0  0  0  0  0  0  0
   38.7023   17.9317    8.4063 C   0  0  0  0  0  0  0  0  0  0  0  0
   24.6483   14.5750    3.9692 C   0  0  0  0  0  0  0  0  0  0  0  0
   25.7331   13.8666    4.3891 O   0  0  0  0  0  0  0  0  0  0  0  0
   26.2653   14.1621    5.6845 C   0  0  0  0  0  0  0  0  0  0  0  0
   27.3428   13.1380    6.0027 C   0  0  0  0  0  0  0  0  0  0  0  0
   28.5399   13.1736    5.0486 C   0  0  0  0  0  0  0  0  0  0  0  0
   29.5831   12.0904    5.3356 C   0  0  0  0  0  0  0  0  0  0  0  0
   30.7868   12.1257    4.3892 C   0  0  0  0  0  0  0  0  0  0  0  0
   31.8111   11.0162    4.6451 C   0  0  0  0  0  0  0  0  0  0  0  0
   33.0187   11.0555    3.7039 C   0  0  0  0  0  0  0  0  0  0  0  0
   34.0307    9.9315    3.9450 C   0  0  0  0  0  0  0  0  0  0  0  0
   35.2410    9.9727    3.0073 C   0  0  0  0  0  0  0  0  0  0  0  0
   36.2465    8.8414    3.2404 C   0  0  0  0  0  0  0  0  0  0  0  0
   37.4588    8.8834    2.3047 C   0  0  0  0  0  0  0  0  0  0  0  0
   38.4556    7.7480    2.5416 C   0  0  0  0  0  0  0  0  0  0  0  0
   23.4258   13.9413    3.8641 C   0  0  0  0  0  0  0  0  0  0  0  0
   22.2836   14.6307    3.3639 C   0  0  0  0  0  0  0  0  0  0  0  0
   21.0210   14.0132    3.2421 C   0  0  0  0  0  0  0  0  0  0  0  0
   20.5090   12.7143    3.5226 C   0  0  0  0  0  0  0  0  0  0  0  0
   20.9117   11.4271    4.0350 C   0  0  0  0  0  0  0  0  0  0  0  0
   21.9570   10.9515    4.4538 O   0  0  0  0  0  0  0  0  0  0  0  0
   19.6779   10.6498    3.9685 N   0  0  0  0  0  0  0  0  0  0  0  0
   19.5524    9.3445    4.3506 C   0  0  0  0  0  0  0  0  0  0  0  0
   18.3411    8.7155    4.2412 C   0  0  0  0  0  0  0  0  0  0  0  0
    2.4692   -2.6944    3.2538 H   0  0  0  0  0  0  0  0  0  0  0  0
    2.5355   -1.5467    1.8966 H   0  0  0  0  0  0  0  0  0  0  0  0
    1.9956   -0.9974    3.4977 H   0  0  0  0  0  0  0  0  0  0  0  0
    4.8469   -2.0008    2.8400 H   0  0  0  0  0  0  0  0  0  0  0  0
    4.3117   -1.4565    4.4276 H   0  0  0  0  0  0  0  0  0  0  0  0
    3.8549    0.8380    3.4884 H   0  0  0  0  0  0  0  0  0  0  0  0
    4.3869    0.2936    1.8988 H   0  0  0  0  0  0  0  0  0  0  0  0
    6.6770   -0.2021    2.8336 H   0  0  0  0  0  0  0  0  0  0  0  0
    6.1461    0.3398    4.4242 H   0  0  0  0  0  0  0  0  0  0  0  0
    5.6906    2.6380    3.4919 H   0  0  0  0  0  0  0  0  0  0  0  0
    6.2145    2.0972    1.8986 H   0  0  0  0  0  0  0  0  0  0  0  0
    8.5074    1.5953    2.8200 H   0  0  0  0  0  0  0  0  0  0  0  0
    7.9855    2.1312    4.4155 H   0  0  0  0  0  0  0  0  0  0  0  0
    7.5312    4.4343    3.4977 H   0  0  0  0  0  0  0  0  0  0  0  0
    8.0416    3.9002    1.8977 H   0  0  0  0  0  0  0  0  0  0  0  0
   10.3396    3.3874    2.7976 H   0  0  0  0  0  0  0  0  0  0  0  0
    9.8321    3.9142    4.4010 H   0  0  0  0  0  0  0  0  0  0  0  0
    9.3809    6.2256    3.5051 H   0  0  0  0  0  0  0  0  0  0  0  0
    9.8716    5.7016    1.8955 H   0  0  0  0  0  0  0  0  0  0  0  0
   12.1733    5.1684    2.7643 H   0  0  0  0  0  0  0  0  0  0  0  0
   11.6865    5.6830    4.3792 H   0  0  0  0  0  0  0  0  0  0  0  0
   11.2525    8.0167    3.5155 H   0  0  0  0  0  0  0  0  0  0  0  0
   11.7149    7.5059    1.8891 H   0  0  0  0  0  0  0  0  0  0  0  0
   14.0189    6.9507    2.7034 H   0  0  0  0  0  0  0  0  0  0  0  0
   13.5572    7.4577    4.3499 H   0  0  0  0  0  0  0  0  0  0  0  0
   15.8286    7.7466    3.8992 H   0  0  0  0  0  0  0  0  0  0  0  0
   16.3455   12.5329    2.5265 H   0  0  0  0  0  0  0  0  0  0  0  0
   14.6547   12.9266    1.0045 H   0  0  0  0  0  0  0  0  0  0  0  0
   14.2510   13.4456    2.6558 H   0  0  0  0  0  0  0  0  0  0  0  0
   11.8162   13.0578    2.1841 H   0  0  0  0  0  0  0  0  0  0  0  0
   12.2099   12.5275    0.5458 H   0  0  0  0  0  0  0  0  0  0  0  0
   13.1773   14.8056    0.0361 H   0  0  0  0  0  0  0  0  0  0  0  0
   12.8055   15.3371    1.6744 H   0  0  0  0  0  0  0  0  0  0  0  0
   10.3522   14.9620    1.2447 H   0  0  0  0  0  0  0  0  0  0  0  0
   10.7183   14.4190   -0.3915 H   0  0  0  0  0  0  0  0  0  0  0  0
   11.7105   16.6749   -0.9223 H   0  0  0  0  0  0  0  0  0  0  0  0
   11.3554   17.2196    0.7154 H   0  0  0  0  0  0  0  0  0  0  0  0
    8.8943   16.8586    0.3053 H   0  0  0  0  0  0  0  0  0  0  0  0
    9.2455   16.3052   -1.3305 H   0  0  0  0  0  0  0  0  0  0  0  0
   10.2482   18.5531   -1.8784 H   0  0  0  0  0  0  0  0  0  0  0  0
    9.9032   19.1078   -0.2420 H   0  0  0  0  0  0  0  0  0  0  0  0
    7.4383   18.7539   -0.6393 H   0  0  0  0  0  0  0  0  0  0  0  0
    7.7807   18.1925   -2.2742 H   0  0  0  0  0  0  0  0  0  0  0  0
    8.7903   20.4349   -2.8345 H   0  0  0  0  0  0  0  0  0  0  0  0
    8.4509   20.9975   -1.1994 H   0  0  0  0  0  0  0  0  0  0  0  0
    5.9834   20.6487   -1.5900 H   0  0  0  0  0  0  0  0  0  0  0  0
    6.3211   20.0811   -3.2240 H   0  0  0  0  0  0  0  0  0  0  0  0
    7.3360   22.3180   -3.7916 H   0  0  0  0  0  0  0  0  0  0  0  0
    6.9991   22.8862   -2.1586 H   0  0  0  0  0  0  0  0  0  0  0  0
    4.8517   22.0050   -4.2033 H   0  0  0  0  0  0  0  0  0  0  0  0
    5.2305   23.6834   -3.7534 H   0  0  0  0  0  0  0  0  0  0  0  0
    4.5118   22.5808   -2.5572 H   0  0  0  0  0  0  0  0  0  0  0  0
   19.1365   16.5245    1.9878 H   0  0  0  0  0  0  0  0  0  0  0  0
   21.3377   17.7462    2.1625 H   0  0  0  0  0  0  0  0  0  0  0  0
   23.7591   17.6797    2.7819 H   0  0  0  0  0  0  0  0  0  0  0  0
   25.6542   18.5129    3.8329 H   0  0  0  0  0  0  0  0  0  0  0  0
   25.9884   17.8995    2.1891 H   0  0  0  0  0  0  0  0  0  0  0  0
   27.9927   18.0251    4.5131 H   0  0  0  0  0  0  0  0  0  0  0  0
   27.9041   19.1737    3.1729 H   0  0  0  0  0  0  0  0  0  0  0  0
   28.3780   17.3008    1.5441 H   0  0  0  0  0  0  0  0  0  0  0  0
   28.5272   16.1730    2.8903 H   0  0  0  0  0  0  0  0  0  0  0  0
   30.3189   18.6406    2.4306 H   0  0  0  0  0  0  0  0  0  0  0  0
   30.7281   16.9931    1.9607 H   0  0  0  0  0  0  0  0  0  0  0  0
   30.6421   16.2790    4.3775 H   0  0  0  0  0  0  0  0  0  0  0  0
   30.2885   17.9383    4.8564 H   0  0  0  0  0  0  0  0  0  0  0  0
   32.4633   18.7016    3.8395 H   0  0  0  0  0  0  0  0  0  0  0  0
   32.8290   17.0406    3.3790 H   0  0  0  0  0  0  0  0  0  0  0  0
   32.7870   16.3562    5.8060 H   0  0  0  0  0  0  0  0  0  0  0  0
   32.4117   18.0145    6.2688 H   0  0  0  0  0  0  0  0  0  0  0  0
   34.5924   18.7888    5.2639 H   0  0  0  0  0  0  0  0  0  0  0  0
   34.9695   17.1303    4.8032 H   0  0  0  0  0  0  0  0  0  0  0  0
   34.9261   16.4443    7.2300 H   0  0  0  0  0  0  0  0  0  0  0  0
   34.5426   18.1009    7.6925 H   0  0  0  0  0  0  0  0  0  0  0  0
   36.7221   18.8853    6.6918 H   0  0  0  0  0  0  0  0  0  0  0  0
   37.1065   17.2286    6.2297 H   0  0  0  0  0  0  0  0  0  0  0  0
   37.0609   16.5410    8.6548 H   0  0  0  0  0  0  0  0  0  0  0  0
   36.6740   18.1960    9.1177 H   0  0  0  0  0  0  0  0  0  0  0  0
   39.2733   17.3199    7.6876 H   0  0  0  0  0  0  0  0  0  0  0  0
   39.1283   17.7530    9.4066 H   0  0  0  0  0  0  0  0  0  0  0  0
   38.8826   18.9898    8.1519 H   0  0  0  0  0  0  0  0  0  0  0  0
   25.4511   14.1093    6.4308 H   0  0  0  0  0  0  0  0  0  0  0  0
   26.6781   15.1859    5.6972 H   0  0  0  0  0  0  0  0  0  0  0  0
   26.8838   12.1338    5.9875 H   0  0  0  0  0  0  0  0  0  0  0  0
   27.6799   13.3135    7.0403 H   0  0  0  0  0  0  0  0  0  0  0  0
   29.0180   14.1699    5.1002 H   0  0  0  0  0  0  0  0  0  0  0  0
   28.1701   13.0668    4.0149 H   0  0  0  0  0  0  0  0  0  0  0  0
   29.0999   11.0977    5.2727 H   0  0  0  0  0  0  0  0  0  0  0  0
   29.9370   12.1840    6.3797 H   0  0  0  0  0  0  0  0  0  0  0  0
   31.2861   13.1096    4.4697 H   0  0  0  0  0  0  0  0  0  0  0  0
   30.4290   12.0578    3.3451 H   0  0  0  0  0  0  0  0  0  0  0  0
   31.3113   10.0337    4.5556 H   0  0  0  0  0  0  0  0  0  0  0  0
   32.1627   11.0769    5.6921 H   0  0  0  0  0  0  0  0  0  0  0  0
   33.5277   12.0325    3.8035 H   0  0  0  0  0  0  0  0  0  0  0  0
   32.6657   11.0093    2.6567 H   0  0  0  0  0  0  0  0  0  0  0  0
   33.5214    8.9553    3.8400 H   0  0  0  0  0  0  0  0  0  0  0  0
   34.3803    9.9733    4.9936 H   0  0  0  0  0  0  0  0  0  0  0  0
   35.7551   10.9459    3.1179 H   0  0  0  0  0  0  0  0  0  0  0  0
   34.8907    9.9386    1.9588 H   0  0  0  0  0  0  0  0  0  0  0  0
   35.7329    7.8682    3.1270 H   0  0  0  0  0  0  0  0  0  0  0  0
   36.5957    8.8730    4.2897 H   0  0  0  0  0  0  0  0  0  0  0  0
   37.9725    9.8554    2.4203 H   0  0  0  0  0  0  0  0  0  0  0  0
   37.1086    8.8543    1.2566 H   0  0  0  0  0  0  0  0  0  0  0  0
   38.8536    7.7717    3.5701 H   0  0  0  0  0  0  0  0  0  0  0  0
   39.3130    7.8098    1.8523 H   0  0  0  0  0  0  0  0  0  0  0  0
   37.9824    6.7622    2.3961 H   0  0  0  0  0  0  0  0  0  0  0  0
   23.3474   12.8924    4.1619 H   0  0  0  0  0  0  0  0  0  0  0  0
   20.4672    8.8854    4.7287 H   0  0  0  0  0  0  0  0  0  0  0  0
   18.2530    7.6719    4.5491 H   0  0  0  0  0  0  0  0  0  0  0  0
  1  2  1  0
  1 79  1  0
  1 80  1  0
  1 81  1  0
  2  3  1  0
  2 82  1  0
  2 83  1  0
  3  4  1  0
  3 84  1  0
  3 85  1  0
  4  5  1  0
  4 86  1  0
  4 87  1  0
  5  6  1  0
  5 88  1  0
  5 89  1  0
  6  7  1  0
  6 90  1  0
  6 91  1  0
  7  8  1  0
  7 92  1  0
  7 93  1  0
  8  9  1  0
  8 94  1  0
  8 95  1  0
  9 10  1  0
  9 96  1  0
  9 97  1  0
 10 11  1  0
 10 98  1  0
 10 99  1  0
 11 12  1  0
 11100  1  0
 11101  1  0
 12 13  1  0
 12102  1  0
 12103  1  0
 13 14  1  0
 14 15  2  0
 14 19  1  0
 15 16  1  0
 15104  1  0
 16 17  2  0
 16 78  1  0
 17 18  1  0
 17 33  1  0
 18 19  2  0
 18105  1  0
 19 20  1  0
 20 21  1  0
 21 22  1  0
 21106  1  0
 21107  1  0
 22 23  1  0
 22108  1  0
 22109  1  0
 23 24  1  0
 23110  1  0
 23111  1  0
 24 25  1  0
 24112  1  0
 24113  1  0
 25 26  1  0
 25114  1  0
 25115  1  0
 26 27  1  0
 26116  1  0
 26117  1  0
 27 28  1  0
 27118  1  0
 27119  1  0
 28 29  1  0
 28120  1  0
 28121  1  0
 29 30  1  0
 29122  1  0
 29123  1  0
 30 31  1  0
 30124  1  0
 30125  1  0
 31 32  1  0
 31126  1  0
 31127  1  0
 32128  1  0
 32129  1  0
 32130  1  0
 33 34  2  0
 33 76  1  0
 34 35  1  0
 34 73  1  0
 35 36  2  0
 35 37  1  0
 37 38  1  0
 37 72  1  0
 38 39  2  0
 38131  1  0
 39 40  1  0
 39132  1  0
 40 41  2  0
 40 71  1  0
 41 42  1  0
 41133  1  0
 42 43  1  0
 42 56  2  0
 43 44  1  0
 44 45  1  0
 44134  1  0
 44135  1  0
 45 46  1  0
 45136  1  0
 45137  1  0
 46 47  1  0
 46138  1  0
 46139  1  0
 47 48  1  0
 47140  1  0
 47141  1  0
 48 49  1  0
 48142  1  0
 48143  1  0
 49 50  1  0
 49144  1  0
 49145  1  0
 50 51  1  0
 50146  1  0
 50147  1  0
 51 52  1  0
 51148  1  0
 51149  1  0
 52 53  1  0
 52150  1  0
 52151  1  0
 53 54  1  0
 53152  1  0
 53153  1  0
 54 55  1  0
 54154  1  0
 54155  1  0
 55156  1  0
 55157  1  0
 55158  1  0
 56 57  1  0
 56 70  1  0
 57 58  1  0
 58 59  1  0
 58159  1  0
 58160  1  0
 59 60  1  0
 59161  1  0
 59162  1  0
 60 61  1  0
 60163  1  0
 60164  1  0
 61 62  1  0
 61165  1  0
 61166  1  0
 62 63  1  0
 62167  1  0
 62168  1  0
 63 64  1  0
 63169  1  0
 63170  1  0
 64 65  1  0
 64171  1  0
 64172  1  0
 65 66  1  0
 65173  1  0
 65174  1  0
 66 67  1  0
 66175  1  0
 66176  1  0
 67 68  1  0
 67177  1  0
 67178  1  0
 68 69  1  0
 68179  1  0
 68180  1  0
 69181  1  0
 69182  1  0
 69183  1  0
 70 71  2  0
 70184  1  0
 71 72  1  0
 72 73  2  0
 73 74  1  0
 74 75  2  0
 74 76  1  0
 76 77  1  0
 77 78  2  0
 77185  1  0
 78186  1  0
M  END

