
     RDKit          3D

 51 54  0  0  0  0  0  0  0  0999 V2000
    9.3596   -5.2854   -1.5847 C   0  0  0  0  0  0  0  0  0  0  0  0
    8.7341   -3.9326   -1.3588 C   0  0  0  0  0  0  0  0  0  0  0  0
    9.4403   -2.7471   -1.5960 C   0  0  0  0  0  0  0  0  0  0  0  0
    8.8291   -1.5133   -1.3903 C   0  0  0  0  0  0  0  0  0  0  0  0
    7.4978   -1.3996   -0.9430 C   0  0  0  0  0  0  0  0  0  0  0  0
    6.8758   -0.0539   -0.7249 C   0  0  0  0  0  0  0  0  0  0  0  0
    5.7048    0.0693   -0.4120 O   0  0  0  0  0  0  0  0  0  0  0  0
    7.7515    1.2121   -0.8278 C   0  0  2  0  0  0  0  0  0  0  0  0
    8.4744    1.3938    0.5384 C   0  0  0  0  0  0  0  0  0  0  0  0
    9.1704    2.7369    0.7637 C   0  0  0  0  0  0  0  0  0  0  0  0
   10.1963    2.8565    1.3992 O   0  0  0  0  0  0  0  0  0  0  0  0
    8.5012    3.8335    0.2469 N   0  0  0  0  0  0  0  0  0  0  0  0
    7.4112    3.6729   -0.5979 C   0  0  0  0  0  0  0  0  0  0  0  0
    6.9820    2.4722   -1.1264 C   0  0  0  0  0  0  0  0  0  0  0  0
    5.8910    2.8407   -1.9740 C   0  0  0  0  0  0  0  0  0  0  0  0
    5.0201    1.9668   -2.8216 C   0  0  0  0  0  0  0  0  0  0  0  0
    5.6844    4.1524   -1.9444 N   0  0  0  0  0  0  0  0  0  0  0  0
    6.6219    4.6677   -1.0945 N   0  0  0  0  0  0  0  0  0  0  0  0
    6.6428    6.0513   -0.7648 C   0  0  0  0  0  0  0  0  0  0  0  0
    6.5913    6.4099    0.5893 C   0  0  0  0  0  0  0  0  0  0  0  0
    6.6151    7.7544    0.9580 C   0  0  0  0  0  0  0  0  0  0  0  0
    6.6595    8.7404   -0.0257 C   0  0  0  0  0  0  0  0  0  0  0  0
    6.6990    8.3672   -1.3727 C   0  0  0  0  0  0  0  0  0  0  0  0
    6.7409    9.6550   -2.5637 Cl  0  0  0  0  0  0  0  0  0  0  0  0
    6.7142    7.0226   -1.7911 C   0  0  0  0  0  0  0  0  0  0  0  0
    6.8040    6.6404   -3.2440 C   0  0  0  0  0  0  0  0  0  0  0  0
    6.7646   -2.5993   -0.6946 C   0  0  0  0  0  0  0  0  0  0  0  0
    5.3368   -2.6284   -0.2077 C   0  0  0  0  0  0  0  0  0  0  0  0
    7.4094   -3.8241   -0.9099 C   0  0  0  0  0  0  0  0  0  0  0  0
   10.4375   -5.2063   -1.7881 H   0  0  0  0  0  0  0  0  0  0  0  0
    8.8925   -5.7973   -2.4434 H   0  0  0  0  0  0  0  0  0  0  0  0
    9.2227   -5.9403   -0.7090 H   0  0  0  0  0  0  0  0  0  0  0  0
   10.4759   -2.7866   -1.9440 H   0  0  0  0  0  0  0  0  0  0  0  0
    9.4157   -0.6166   -1.5901 H   0  0  0  0  0  0  0  0  0  0  0  0
    8.5146    1.0711   -1.6112 H   0  0  0  0  0  0  0  0  0  0  0  0
    9.2265    0.6149    0.7174 H   0  0  0  0  0  0  0  0  0  0  0  0
    7.7170    1.3096    1.3393 H   0  0  0  0  0  0  0  0  0  0  0  0
    8.9118    4.7475    0.4143 H   0  0  0  0  0  0  0  0  0  0  0  0
    5.6186    1.3283   -3.4926 H   0  0  0  0  0  0  0  0  0  0  0  0
    4.3554    2.5917   -3.4337 H   0  0  0  0  0  0  0  0  0  0  0  0
    4.4128    1.2971   -2.1941 H   0  0  0  0  0  0  0  0  0  0  0  0
    6.5119    5.6278    1.3464 H   0  0  0  0  0  0  0  0  0  0  0  0
    6.5750    8.0357    2.0126 H   0  0  0  0  0  0  0  0  0  0  0  0
    6.6595    9.7994    0.2360 H   0  0  0  0  0  0  0  0  0  0  0  0
    7.3494    7.4045   -3.8129 H   0  0  0  0  0  0  0  0  0  0  0  0
    5.7989    6.5399   -3.6842 H   0  0  0  0  0  0  0  0  0  0  0  0
    7.2979    5.6687   -3.3687 H   0  0  0  0  0  0  0  0  0  0  0  0
    5.2124   -2.0661    0.7292 H   0  0  0  0  0  0  0  0  0  0  0  0
    5.0133   -3.6675   -0.0466 H   0  0  0  0  0  0  0  0  0  0  0  0
    4.6544   -2.1502   -0.9256 H   0  0  0  0  0  0  0  0  0  0  0  0
    6.8467   -4.7422   -0.7150 H   0  0  0  0  0  0  0  0  0  0  0  0
  1  2  1  0
  1 30  1  0
  1 31  1  0
  1 32  1  0
  2  3  2  0
  2 29  1  0
  3  4  1  0
  3 33  1  0
  4  5  2  0
  4 34  1  0
  5  6  1  0
  5 27  1  0
  6  7  2  0
  6  8  1  0
  8  9  1  0
  8 14  1  0
  8 35  1  6
  9 10  1  0
  9 36  1  0
  9 37  1  0
 10 11  2  0
 10 12  1  0
 12 13  1  0
 12 38  1  0
 13 14  2  0
 13 18  1  0
 14 15  1  0
 15 16  1  0
 15 17  2  0
 16 39  1  0
 16 40  1  0
 16 41  1  0
 17 18  1  0
 18 19  1  0
 19 20  2  0
 19 25  1  0
 20 21  1  0
 20 42  1  0
 21 22  2  0
 21 43  1  0
 22 23  1  0
 22 44  1  0
 23 24  1  0
 23 25  2  0
 25 26  1  0
 26 45  1  0
 26 46  1  0
 26 47  1  0
 27 28  1  0
 27 29  2  0
 28 48  1  0
 28 49  1  0
 28 50  1  0
 29 51  1  0
M  END

