
     RDKit          3D

 55 56  0  0  0  0  0  0  0  0999 V2000
    1.0042   -3.5749   -2.9709 C   0  0  0  0  0  0  0  0  0  0  0  0
    1.6435   -2.3068   -2.6776 N   0  0  0  0  0  0  0  0  0  0  0  0
    2.6406   -2.3480   -1.6124 C   0  0  0  0  0  0  0  0  0  0  0  0
    4.0073   -2.9084   -2.0548 C   0  0  0  0  0  0  0  0  0  0  0  0
    4.5727   -2.1769   -3.2934 C   0  0  2  0  0  0  0  0  0  0  0  0
    5.1591   -0.8038   -2.9206 C   0  0  0  0  0  0  0  0  0  0  0  0
    5.8313   -0.1525   -4.0395 N   0  0  0  0  0  0  0  0  0  0  0  0
    6.4909    1.1042   -3.6843 C   0  0  0  0  0  0  0  0  0  0  0  0
    7.2139    1.7248   -4.8472 C   0  0  0  0  0  0  0  0  0  0  0  0
    7.6275    3.0695   -5.0044 C   0  0  0  0  0  0  0  0  0  0  0  0
    8.3430    3.2487   -6.1076 N   0  0  0  0  0  0  0  0  0  0  0  0
    8.4243    2.0356   -6.6865 N   0  0  0  0  0  0  0  0  0  0  0  0
    9.2028    1.8782   -7.9004 C   0  0  0  0  0  0  0  0  0  0  0  0
    7.7408    1.0921   -5.9751 C   0  0  0  0  0  0  0  0  0  0  0  0
    7.6702   -0.2679   -6.3046 N   0  0  0  0  0  0  0  0  0  0  0  0
    7.2408   -0.7530   -7.5275 C   0  0  0  0  0  0  0  0  0  0  0  0
    7.1319   -0.0989   -8.5421 O   0  0  0  0  0  0  0  0  0  0  0  0
    6.9840   -2.0693   -7.3988 O   0  0  0  0  0  0  0  0  0  0  0  0
    6.5519   -2.8918   -8.5339 C   0  0  1  0  0  0  0  0  0  0  0  0
    7.6329   -2.8936   -9.6197 C   0  0  0  0  0  0  0  0  0  0  0  0
    6.4071   -4.2812   -7.9102 C   0  0  0  0  0  0  0  0  0  0  0  0
    5.2038   -2.3905   -9.0624 C   0  0  0  0  0  0  0  0  0  0  0  0
    3.4783   -2.1213   -4.3838 C   0  0  0  0  0  0  0  0  0  0  0  0
    2.1405   -1.5824   -3.8434 C   0  0  0  0  0  0  0  0  0  0  0  0
    0.5565   -3.9852   -2.0509 H   0  0  0  0  0  0  0  0  0  0  0  0
    1.6676   -4.3637   -3.3924 H   0  0  0  0  0  0  0  0  0  0  0  0
    0.1860   -3.4189   -3.6931 H   0  0  0  0  0  0  0  0  0  0  0  0
    2.2404   -2.9424   -0.7747 H   0  0  0  0  0  0  0  0  0  0  0  0
    2.7707   -1.3206   -1.2258 H   0  0  0  0  0  0  0  0  0  0  0  0
    3.8979   -3.9795   -2.2975 H   0  0  0  0  0  0  0  0  0  0  0  0
    4.7228   -2.8551   -1.2157 H   0  0  0  0  0  0  0  0  0  0  0  0
    5.4177   -2.7648   -3.6916 H   0  0  0  0  0  0  0  0  0  0  0  0
    5.9111   -0.9576   -2.1269 H   0  0  0  0  0  0  0  0  0  0  0  0
    4.3811   -0.1494   -2.4709 H   0  0  0  0  0  0  0  0  0  0  0  0
    5.1600    0.0325   -4.7854 H   0  0  0  0  0  0  0  0  0  0  0  0
    7.2101    0.8745   -2.8746 H   0  0  0  0  0  0  0  0  0  0  0  0
    5.7887    1.8495   -3.2486 H   0  0  0  0  0  0  0  0  0  0  0  0
    7.4263    3.9138   -4.3436 H   0  0  0  0  0  0  0  0  0  0  0  0
    9.9199    2.7076   -7.9302 H   0  0  0  0  0  0  0  0  0  0  0  0
    8.5628    1.8878   -8.7926 H   0  0  0  0  0  0  0  0  0  0  0  0
    9.7430    0.9212   -7.8728 H   0  0  0  0  0  0  0  0  0  0  0  0
    7.3826   -0.8372   -5.5063 H   0  0  0  0  0  0  0  0  0  0  0  0
    8.5985   -3.2142   -9.1981 H   0  0  0  0  0  0  0  0  0  0  0  0
    7.7517   -1.8960  -10.0612 H   0  0  0  0  0  0  0  0  0  0  0  0
    7.3571   -3.6016  -10.4168 H   0  0  0  0  0  0  0  0  0  0  0  0
    7.3666   -4.6193   -7.4906 H   0  0  0  0  0  0  0  0  0  0  0  0
    6.0817   -5.0079   -8.6699 H   0  0  0  0  0  0  0  0  0  0  0  0
    5.6624   -4.2660   -7.1000 H   0  0  0  0  0  0  0  0  0  0  0  0
    5.2944   -1.3824   -9.4862 H   0  0  0  0  0  0  0  0  0  0  0  0
    4.4579   -2.3707   -8.2520 H   0  0  0  0  0  0  0  0  0  0  0  0
    4.8362   -3.0718   -9.8456 H   0  0  0  0  0  0  0  0  0  0  0  0
    3.3253   -3.1423   -4.7744 H   0  0  0  0  0  0  0  0  0  0  0  0
    3.8092   -1.5235   -5.2509 H   0  0  0  0  0  0  0  0  0  0  0  0
    1.3719   -1.6090   -4.6332 H   0  0  0  0  0  0  0  0  0  0  0  0
    2.2561   -0.5188   -3.5623 H   0  0  0  0  0  0  0  0  0  0  0  0
  1  2  1  0
  1 25  1  0
  1 26  1  0
  1 27  1  0
  2  3  1  0
  2 24  1  0
  3  4  1  0
  3 28  1  0
  3 29  1  0
  4  5  1  0
  4 30  1  0
  4 31  1  0
  5  6  1  0
  5 23  1  0
  5 32  1  6
  6  7  1  0
  6 33  1  0
  6 34  1  0
  7  8  1  0
  7 35  1  0
  8  9  1  0
  8 36  1  0
  8 37  1  0
  9 10  1  0
  9 14  2  0
 10 11  2  0
 10 38  1  0
 11 12  1  0
 12 13  1  0
 12 14  1  0
 13 39  1  0
 13 40  1  0
 13 41  1  0
 14 15  1  0
 15 16  1  0
 15 42  1  0
 16 17  2  0
 16 18  1  0
 19 18  1  1
 19 20  1  0
 19 21  1  0
 19 22  1  0
 20 43  1  0
 20 44  1  0
 20 45  1  0
 21 46  1  0
 21 47  1  0
 21 48  1  0
 22 49  1  0
 22 50  1  0
 22 51  1  0
 23 24  1  0
 23 52  1  0
 23 53  1  0
 24 54  1  0
 24 55  1  0
M  END

