
     RDKit          3D

 49 49  0  0  0  0  0  0  0  0999 V2000
    1.5131   -0.3307    3.2162 C   0  0  0  0  0  0  0  0  0  0  0  0
    2.0284   -1.3365    2.1859 C   0  0  0  0  0  0  0  0  0  0  0  0
    3.0107   -0.7745    1.2482 N   0  0  0  0  0  0  0  0  0  0  0  0
    2.4513   -0.1923    0.0308 C   0  0  0  0  0  0  0  0  0  0  0  0
    4.3501   -0.8111    1.4734 C   0  0  0  0  0  0  0  0  0  0  0  0
    5.2387   -0.3132    0.3646 C   0  0  0  0  0  0  0  0  0  0  0  0
    4.8744   -1.2792    2.6931 C   0  0  0  0  0  0  0  0  0  0  0  0
    6.2393   -1.3678    3.0171 C   0  0  0  0  0  0  0  0  0  0  0  0
    6.7835   -1.8179    4.2275 C   0  0  0  0  0  0  0  0  0  0  0  0
    5.9195   -2.3576    5.3323 C   0  0  0  0  0  0  0  0  0  0  0  0
    8.2250   -1.8036    4.4600 C   0  0  0  0  0  0  0  0  0  0  0  0
    8.8027   -2.6689    5.5543 C   0  0  0  0  0  0  0  0  0  0  0  0
    9.0230   -0.9095    3.8019 C   0  0  0  0  0  0  0  0  0  0  0  0
   10.5097   -0.7643    3.9710 C   0  0  0  0  0  0  0  0  0  0  0  0
   11.3540   -1.4710    3.2350 N   0  0  0  0  0  0  0  0  0  0  0  0
   10.8720   -2.3900    2.2429 C   0  0  0  0  0  0  0  0  0  0  0  0
   10.9016    0.2071    4.9360 C   0  0  0  0  0  0  0  0  0  0  0  0
   12.2770    0.5143    5.2074 C   0  0  0  0  0  0  0  0  0  0  0  0
   12.5786    1.4684    6.1529 C   0  0  0  0  0  0  0  0  0  0  0  0
   11.5294    2.1344    6.8429 C   0  0  0  0  0  0  0  0  0  0  0  0
   10.2134    1.7705    6.5103 C   0  0  0  0  0  0  0  0  0  0  0  0
    9.8842    0.8586    5.6094 N   0  0  0  0  0  0  0  0  0  0  0  0
    0.7615   -0.8082    3.8633 H   0  0  0  0  0  0  0  0  0  0  0  0
    1.0363    0.5344    2.7292 H   0  0  0  0  0  0  0  0  0  0  0  0
    2.3255    0.0471    3.8551 H   0  0  0  0  0  0  0  0  0  0  0  0
    1.1924   -1.7192    1.5806 H   0  0  0  0  0  0  0  0  0  0  0  0
    2.4679   -2.2145    2.6784 H   0  0  0  0  0  0  0  0  0  0  0  0
    1.4077    0.0923    0.2168 H   0  0  0  0  0  0  0  0  0  0  0  0
    2.4667   -0.9092   -0.8092 H   0  0  0  0  0  0  0  0  0  0  0  0
    2.9928    0.7119   -0.2730 H   0  0  0  0  0  0  0  0  0  0  0  0
    4.9675   -0.7669   -0.6004 H   0  0  0  0  0  0  0  0  0  0  0  0
    6.2906   -0.5417    0.5558 H   0  0  0  0  0  0  0  0  0  0  0  0
    5.1557    0.7806    0.2516 H   0  0  0  0  0  0  0  0  0  0  0  0
    4.1623   -1.5750    3.4597 H   0  0  0  0  0  0  0  0  0  0  0  0
    6.9627   -1.0739    2.2586 H   0  0  0  0  0  0  0  0  0  0  0  0
    4.8451   -2.2148    5.1671 H   0  0  0  0  0  0  0  0  0  0  0  0
    6.1881   -1.8867    6.2902 H   0  0  0  0  0  0  0  0  0  0  0  0
    6.0999   -3.4378    5.4608 H   0  0  0  0  0  0  0  0  0  0  0  0
    8.5968   -2.2357    6.5480 H   0  0  0  0  0  0  0  0  0  0  0  0
    9.8922   -2.7266    5.4476 H   0  0  0  0  0  0  0  0  0  0  0  0
    8.3925   -3.6913    5.5405 H   0  0  0  0  0  0  0  0  0  0  0  0
    8.5544   -0.2403    3.0708 H   0  0  0  0  0  0  0  0  0  0  0  0
   10.3353   -1.9037    1.3936 H   0  0  0  0  0  0  0  0  0  0  0  0
   10.1804   -3.1762    2.6238 H   0  0  0  0  0  0  0  0  0  0  0  0
   11.7232   -2.9268    1.7886 H   0  0  0  0  0  0  0  0  0  0  0  0
   13.0453   -0.0232    4.6493 H   0  0  0  0  0  0  0  0  0  0  0  0
   13.6229    1.7141    6.3715 H   0  0  0  0  0  0  0  0  0  0  0  0
   11.7270    2.8968    7.5983 H   0  0  0  0  0  0  0  0  0  0  0  0
    9.3761    2.2677    7.0236 H   0  0  0  0  0  0  0  0  0  0  0  0
  1  2  1  0
  1 23  1  0
  1 24  1  0
  1 25  1  0
  2  3  1  0
  2 26  1  0
  2 27  1  0
  3  4  1  0
  3  5  1  0
  4 28  1  0
  4 29  1  0
  4 30  1  0
  5  6  1  0
  5  7  2  0
  6 31  1  0
  6 32  1  0
  6 33  1  0
  7  8  1  0
  7 34  1  0
  8  9  2  0
  8 35  1  0
  9 10  1  0
  9 11  1  0
 10 36  1  0
 10 37  1  0
 10 38  1  0
 11 12  1  0
 11 13  2  0
 12 39  1  0
 12 40  1  0
 12 41  1  0
 13 14  1  0
 13 42  1  0
 14 15  2  0
 14 17  1  0
 15 16  1  0
 16 43  1  0
 16 44  1  0
 16 45  1  0
 17 18  2  0
 17 22  1  0
 18 19  1  0
 18 46  1  0
 19 20  2  0
 19 47  1  0
 20 21  1  0
 20 48  1  0
 21 22  2  0
 21 49  1  0
M  END

