
     RDKit          3D

 42 44  0  0  0  0  0  0  0  0999 V2000
    3.2424   -3.0301    3.4733 C   0  0  0  0  0  0  0  0  0  0  0  0
    4.1612   -2.2995    2.5377 C   0  0  0  0  0  0  0  0  0  0  0  0
    5.0791   -1.3544    3.0028 C   0  0  0  0  0  0  0  0  0  0  0  0
    5.9713   -0.6189    2.1514 C   0  0  0  0  0  0  0  0  0  0  0  0
    5.9561   -0.8631    0.7605 C   0  0  0  0  0  0  0  0  0  0  0  0
    6.6647   -0.4051   -0.3856 C   0  0  0  0  0  0  0  0  0  0  0  0
    7.8154    0.5432   -0.4450 C   0  0  0  0  0  0  0  0  0  0  0  0
    7.5034    1.9662    0.0472 C   0  0  0  0  0  0  0  0  0  0  0  0
    6.4683    2.2355    0.6481 O   0  0  0  0  0  0  0  0  0  0  0  0
    8.4618    2.9384   -0.2119 N   0  0  0  0  0  0  0  0  0  0  0  0
    9.8433    2.6839   -0.5900 C   0  0  0  0  0  0  0  0  0  0  0  0
   10.3150    3.7547   -1.5660 C   0  0  0  0  0  0  0  0  0  0  0  0
   10.1360    5.0703   -1.0440 O   0  0  0  0  0  0  0  0  0  0  0  0
    8.8042    5.3411   -0.6030 C   0  0  1  0  0  0  0  0  0  0  0  0
    8.8745    6.2891   -0.0424 H   0  0  0  0  0  0  0  0  0  0  0  0
    7.8817    5.6375   -1.8074 C   0  0  0  0  0  0  0  0  0  0  0  0
    6.6855    5.5766   -1.7624 O   0  0  0  0  0  0  0  0  0  0  0  0
    8.5528    6.0391   -2.8998 O   0  0  0  0  0  0  0  0  0  0  0  0
    8.2490    4.2729    0.3345 C   0  0  0  0  0  0  0  0  0  0  0  0
    6.1022   -1.0669   -1.4880 C   0  0  0  0  0  0  0  0  0  0  0  0
    5.0806   -1.9260   -1.0475 O   0  0  0  0  0  0  0  0  0  0  0  0
    4.9993   -1.8153    0.2904 C   0  0  0  0  0  0  0  0  0  0  0  0
    4.1106   -2.5518    1.1037 C   0  0  0  0  0  0  0  0  0  0  0  0
    3.1720   -3.5440    0.5034 C   0  0  0  0  0  0  0  0  0  0  0  0
    3.4105   -2.7191    4.5148 H   0  0  0  0  0  0  0  0  0  0  0  0
    3.3785   -4.1277    3.4303 H   0  0  0  0  0  0  0  0  0  0  0  0
    2.1750   -2.8492    3.2428 H   0  0  0  0  0  0  0  0  0  0  0  0
    5.1160   -1.1465    4.0758 H   0  0  0  0  0  0  0  0  0  0  0  0
    6.6127    0.1512    2.5820 H   0  0  0  0  0  0  0  0  0  0  0  0
    8.2072    0.5760   -1.4743 H   0  0  0  0  0  0  0  0  0  0  0  0
    8.6460    0.1635    0.1839 H   0  0  0  0  0  0  0  0  0  0  0  0
    9.9473    1.7022   -1.0672 H   0  0  0  0  0  0  0  0  0  0  0  0
   10.4962    2.6912    0.3068 H   0  0  0  0  0  0  0  0  0  0  0  0
    9.7677    3.6441   -2.5222 H   0  0  0  0  0  0  0  0  0  0  0  0
   11.3916    3.6500   -1.7661 H   0  0  0  0  0  0  0  0  0  0  0  0
    9.5022    6.0181   -2.6747 H   0  0  0  0  0  0  0  0  0  0  0  0
    7.1724    4.4259    0.4729 H   0  0  0  0  0  0  0  0  0  0  0  0
    8.7459    4.3665    1.3195 H   0  0  0  0  0  0  0  0  0  0  0  0
    6.2496   -1.0169   -2.5606 H   0  0  0  0  0  0  0  0  0  0  0  0
    3.2972   -3.6085   -0.5853 H   0  0  0  0  0  0  0  0  0  0  0  0
    2.1176   -3.2813    0.7132 H   0  0  0  0  0  0  0  0  0  0  0  0
    3.3213   -4.5536    0.9302 H   0  0  0  0  0  0  0  0  0  0  0  0
  1  2  1  0
  1 25  1  0
  1 26  1  0
  1 27  1  0
  2  3  2  0
  2 23  1  0
  3  4  1  0
  3 28  1  0
  4  5  2  0
  4 29  1  0
  5  6  1  0
  5 22  1  0
  6  7  1  0
  6 20  2  0
  7  8  1  0
  7 30  1  0
  7 31  1  0
  8  9  2  0
  8 10  1  0
 10 11  1  0
 10 19  1  0
 11 12  1  0
 11 32  1  0
 11 33  1  0
 12 13  1  0
 12 34  1  0
 12 35  1  0
 13 14  1  0
 14 15  1  1
 14 16  1  0
 14 19  1  0
 16 17  2  0
 16 18  1  0
 18 36  1  0
 19 37  1  0
 19 38  1  0
 20 21  1  0
 20 39  1  0
 21 22  1  0
 22 23  2  0
 23 24  1  0
 24 40  1  0
 24 41  1  0
 24 42  1  0
M  END

