
     RDKit          3D

 84 88  0  0  0  0  0  0  0  0999 V2000
   -6.2530    0.3410    7.3464 C   0  0  0  0  0  0  0  0  0  0  0  0
   -7.7246    0.4278    7.0465 C   0  0  0  0  0  0  0  0  0  0  0  0
   -8.5753   -0.0379    7.9705 N   0  0  0  0  0  0  0  0  0  0  0  0
   -9.8762    0.0802    7.7132 C   0  0  0  0  0  0  0  0  0  0  0  0
  -10.4288    0.6315    6.6346 N   0  0  0  0  0  0  0  0  0  0  0  0
   -9.5986    1.0998    5.6933 C   0  0  0  0  0  0  0  0  0  0  0  0
  -10.2153    1.7574    4.4865 C   0  0  0  0  0  0  0  0  0  0  0  0
   -8.2029    0.9935    5.8489 C   0  0  0  0  0  0  0  0  0  0  0  0
   -7.2548    1.5864    4.8331 C   0  0  0  0  0  0  0  0  0  0  0  0
   -6.7907    2.7116    4.9890 O   0  0  0  0  0  0  0  0  0  0  0  0
   -6.9513    0.8259    3.7470 N   0  0  0  0  0  0  0  0  0  0  0  0
   -6.0759    1.3532    2.7007 C   0  0  0  0  0  0  0  0  0  0  0  0
   -5.6303    0.1313    1.8658 C   0  0  1  0  0  0  0  0  0  0  0  0
   -4.1283   -0.1499    1.9620 C   0  0  0  0  0  0  0  0  0  0  0  0
   -3.9991   -0.8180    3.2494 N   0  0  0  0  0  0  0  0  0  0  0  0
   -2.6761   -1.3455    3.5567 C   0  0  0  0  0  0  0  0  0  0  0  0
   -1.6880   -0.2665    4.0162 C   0  0  0  0  0  0  0  0  0  0  0  0
   -1.9248    0.2259    5.4658 C   0  0  1  0  0  0  0  0  0  0  0  0
   -1.5038   -0.8474    6.4636 C   0  0  0  0  0  0  0  0  0  0  0  0
   -0.1675   -1.2775    6.5580 C   0  0  0  0  0  0  0  0  0  0  0  0
    0.2120   -2.2659    7.4688 C   0  0  0  0  0  0  0  0  0  0  0  0
   -0.7404   -2.8548    8.3077 C   0  0  0  0  0  0  0  0  0  0  0  0
   -2.0720   -2.4431    8.2258 C   0  0  0  0  0  0  0  0  0  0  0  0
   -2.4450   -1.4497    7.3132 C   0  0  0  0  0  0  0  0  0  0  0  0
   -1.2433    1.6145    5.7032 C   0  0  1  0  0  0  0  0  0  0  0  0
   -2.0267    2.7591    5.0187 C   0  0  0  0  0  0  0  0  0  0  0  0
   -3.3027    3.1550    5.7794 C   0  0  0  0  0  0  0  0  0  0  0  0
   -3.0104    3.5025    7.1654 N   0  0  0  0  0  0  0  0  0  0  0  0
   -3.2718    4.6749    7.8505 C   0  0  0  0  0  0  0  0  0  0  0  0
   -2.9325    4.7825    9.0224 O   0  0  0  0  0  0  0  0  0  0  0  0
   -4.0088    5.8674    7.1645 C   0  0  1  0  0  0  0  0  0  0  0  0
   -5.4488    5.4714    6.7651 C   0  0  0  0  0  0  0  0  0  0  0  0
   -4.1060    6.9948    8.2124 C   0  0  0  0  0  0  0  0  0  0  0  0
   -3.2107    6.4284    5.9640 C   0  0  0  0  0  0  0  0  0  0  0  0
   -2.3378    2.4166    7.8834 C   0  0  0  0  0  0  0  0  0  0  0  0
   -1.0401    2.0061    7.1824 C   0  0  0  0  0  0  0  0  0  0  0  0
   -5.0861   -1.7930    3.2835 C   0  0  0  0  0  0  0  0  0  0  0  0
   -6.2768   -1.1117    2.5612 C   0  0  1  0  0  0  0  0  0  0  0  0
   -7.3834   -0.5392    3.4612 C   0  0  0  0  0  0  0  0  0  0  0  0
   -5.8525    1.3452    7.5610 H   0  0  0  0  0  0  0  0  0  0  0  0
   -5.6871   -0.0509    6.4866 H   0  0  0  0  0  0  0  0  0  0  0  0
   -6.0914   -0.2993    8.2228 H   0  0  0  0  0  0  0  0  0  0  0  0
  -10.5649   -0.3124    8.4720 H   0  0  0  0  0  0  0  0  0  0  0  0
  -11.3012    1.8305    4.6270 H   0  0  0  0  0  0  0  0  0  0  0  0
  -10.0175    1.1793    3.5687 H   0  0  0  0  0  0  0  0  0  0  0  0
   -9.7954    2.7641    4.3338 H   0  0  0  0  0  0  0  0  0  0  0  0
   -5.2314    1.8782    3.1696 H   0  0  0  0  0  0  0  0  0  0  0  0
   -6.6149    2.0974    2.0881 H   0  0  0  0  0  0  0  0  0  0  0  0
   -5.9531    0.2371    0.8203 H   0  0  0  0  0  0  0  0  0  0  0  0
   -3.5189    0.7659    1.9108 H   0  0  0  0  0  0  0  0  0  0  0  0
   -3.8043   -0.8077    1.1205 H   0  0  0  0  0  0  0  0  0  0  0  0
   -2.2577   -1.8869    2.6774 H   0  0  0  0  0  0  0  0  0  0  0  0
   -2.7822   -2.0967    4.3559 H   0  0  0  0  0  0  0  0  0  0  0  0
   -1.7341    0.5833    3.3167 H   0  0  0  0  0  0  0  0  0  0  0  0
   -0.6635   -0.6647    3.9306 H   0  0  0  0  0  0  0  0  0  0  0  0
   -3.0127    0.3574    5.5778 H   0  0  0  0  0  0  0  0  0  0  0  0
    0.5942   -0.8281    5.9147 H   0  0  0  0  0  0  0  0  0  0  0  0
    1.2582   -2.5784    7.5251 H   0  0  0  0  0  0  0  0  0  0  0  0
   -0.4443   -3.6287    9.0204 H   0  0  0  0  0  0  0  0  0  0  0  0
   -2.8270   -2.8941    8.8752 H   0  0  0  0  0  0  0  0  0  0  0  0
   -3.4902   -1.1332    7.2614 H   0  0  0  0  0  0  0  0  0  0  0  0
   -0.2433    1.5619    5.2357 H   0  0  0  0  0  0  0  0  0  0  0  0
   -2.3002    2.4919    3.9850 H   0  0  0  0  0  0  0  0  0  0  0  0
   -1.3736    3.6461    4.9515 H   0  0  0  0  0  0  0  0  0  0  0  0
   -4.0272    2.3206    5.7664 H   0  0  0  0  0  0  0  0  0  0  0  0
   -3.8012    3.9789    5.2677 H   0  0  0  0  0  0  0  0  0  0  0  0
   -6.0123    5.1427    7.6531 H   0  0  0  0  0  0  0  0  0  0  0  0
   -5.5208    4.6667    6.0221 H   0  0  0  0  0  0  0  0  0  0  0  0
   -5.9715    6.3505    6.3529 H   0  0  0  0  0  0  0  0  0  0  0  0
   -4.6460    6.6600    9.1082 H   0  0  0  0  0  0  0  0  0  0  0  0
   -4.6400    7.8554    7.7782 H   0  0  0  0  0  0  0  0  0  0  0  0
   -3.1103    7.3263    8.5392 H   0  0  0  0  0  0  0  0  0  0  0  0
   -3.1622    5.7534    5.0989 H   0  0  0  0  0  0  0  0  0  0  0  0
   -2.1771    6.6700    6.2604 H   0  0  0  0  0  0  0  0  0  0  0  0
   -3.6807    7.3629    5.6164 H   0  0  0  0  0  0  0  0  0  0  0  0
   -3.0250    1.5523    7.9526 H   0  0  0  0  0  0  0  0  0  0  0  0
   -2.1410    2.7682    8.9020 H   0  0  0  0  0  0  0  0  0  0  0  0
   -0.5636    1.1905    7.7458 H   0  0  0  0  0  0  0  0  0  0  0  0
   -0.3454    2.8629    7.2208 H   0  0  0  0  0  0  0  0  0  0  0  0
   -5.3181   -2.0859    4.3211 H   0  0  0  0  0  0  0  0  0  0  0  0
   -4.8146   -2.7243    2.7369 H   0  0  0  0  0  0  0  0  0  0  0  0
   -6.7154   -1.8076    1.8324 H   0  0  0  0  0  0  0  0  0  0  0  0
   -7.5231   -1.1136    4.3878 H   0  0  0  0  0  0  0  0  0  0  0  0
   -8.3509   -0.5444    2.9232 H   0  0  0  0  0  0  0  0  0  0  0  0
  1  2  1  0
  1 40  1  0
  1 41  1  0
  1 42  1  0
  2  3  2  0
  2  8  1  0
  3  4  1  0
  4  5  2  0
  4 43  1  0
  5  6  1  0
  6  7  1  0
  6  8  2  0
  7 44  1  0
  7 45  1  0
  7 46  1  0
  8  9  1  0
  9 10  2  0
  9 11  1  0
 11 12  1  0
 11 39  1  0
 12 13  1  0
 12 47  1  0
 12 48  1  0
 13 14  1  0
 13 38  1  0
 13 49  1  6
 14 15  1  0
 14 50  1  0
 14 51  1  0
 15 16  1  0
 15 37  1  0
 16 17  1  0
 16 52  1  0
 16 53  1  0
 17 18  1  0
 17 54  1  0
 17 55  1  0
 18 19  1  0
 18 25  1  0
 18 56  1  6
 19 20  2  0
 19 24  1  0
 20 21  1  0
 20 57  1  0
 21 22  2  0
 21 58  1  0
 22 23  1  0
 22 59  1  0
 23 24  2  0
 23 60  1  0
 24 61  1  0
 25 26  1  0
 25 36  1  0
 25 62  1  6
 26 27  1  0
 26 63  1  0
 26 64  1  0
 27 28  1  0
 27 65  1  0
 27 66  1  0
 28 29  1  0
 28 35  1  0
 29 30  2  0
 31 29  1  1
 31 32  1  0
 31 33  1  0
 31 34  1  0
 32 67  1  0
 32 68  1  0
 32 69  1  0
 33 70  1  0
 33 71  1  0
 33 72  1  0
 34 73  1  0
 34 74  1  0
 34 75  1  0
 35 36  1  0
 35 76  1  0
 35 77  1  0
 36 78  1  0
 36 79  1  0
 37 38  1  0
 37 80  1  0
 37 81  1  0
 38 39  1  0
 38 82  1  6
 39 83  1  0
 39 84  1  0
M  END

