
     RDKit          3D

 20 22  0  0  0  0  0  0  0  0999 V2000
    1.0260    0.2665   -0.3290 Cl  0  0  0  0  0  0  0  0  0  0  0  0
    2.7287    0.0277   -0.1696 C   0  0  0  0  0  0  0  0  0  0  0  0
    3.5694    1.1695   -0.1098 C   0  0  0  0  0  0  0  0  0  0  0  0
    4.8947    1.0970    0.0135 N   0  0  0  0  0  0  0  0  0  0  0  0
    5.4736   -0.1304    0.0868 C   0  0  0  0  0  0  0  0  0  0  0  0
    6.8808   -0.1830    0.2198 C   0  0  0  0  0  0  0  0  0  0  0  0
    7.4803   -1.4448    0.2971 C   0  0  0  0  0  0  0  0  0  0  0  0
    6.7441   -2.6436    0.2487 C   0  0  0  0  0  0  0  0  0  0  0  0
    5.3603   -2.6514    0.1171 C   0  0  0  0  0  0  0  0  0  0  0  0
    4.7037   -1.3972    0.0355 C   0  0  0  0  0  0  0  0  0  0  0  0
    3.2826   -1.2677   -0.0984 C   0  0  0  0  0  0  0  0  0  0  0  0
    2.2770   -2.6803   -0.1693 Cl  0  0  0  0  0  0  0  0  0  0  0  0
    7.6146   -3.7005    0.3295 O   0  0  0  0  0  0  0  0  0  0  0  0
    8.9064   -3.1520    0.4825 C   0  0  0  0  0  0  0  0  0  0  0  0
    8.7981   -1.7308    0.4144 O   0  0  0  0  0  0  0  0  0  0  0  0
    3.1109    2.1614   -0.1673 H   0  0  0  0  0  0  0  0  0  0  0  0
    7.4521    0.7434    0.2596 H   0  0  0  0  0  0  0  0  0  0  0  0
    4.7938   -3.5802    0.0776 H   0  0  0  0  0  0  0  0  0  0  0  0
    9.5705   -3.5040   -0.3278 H   0  0  0  0  0  0  0  0  0  0  0  0
    9.3283   -3.4326    1.4669 H   0  0  0  0  0  0  0  0  0  0  0  0
  1  2  1  0
  2  3  2  0
  2 11  1  0
  3  4  1  0
  3 16  1  0
  4  5  2  0
  5  6  1  0
  5 10  1  0
  6  7  2  0
  6 17  1  0
  7  8  1  0
  7 15  1  0
  8  9  2  0
  8 13  1  0
  9 10  1  0
  9 18  1  0
 10 11  2  0
 11 12  1  0
 13 14  1  0
 14 15  1  0
 14 19  1  0
 14 20  1  0
M  END

