
     RDKit          3D

 49 52  0  0  0  0  0  0  0  0999 V2000
    0.0981    8.2324   -0.9481 O   0  0  0  0  0  0  0  0  0  0  0  0
    1.2899    8.4856   -1.0753 C   0  0  0  0  0  0  0  0  0  0  0  0
    1.6693    9.8175   -1.1210 O   0  0  0  0  0  0  0  0  0  0  0  0
    2.3447    7.4973   -1.1868 C   0  0  0  0  0  0  0  0  0  0  0  0
    1.9736    6.1083   -1.2245 C   0  0  0  0  0  0  0  0  0  0  0  0
    2.9100    5.1119   -1.3717 C   0  0  0  0  0  0  0  0  0  0  0  0
    4.3069    5.4117   -1.4856 C   0  0  0  0  0  0  0  0  0  0  0  0
    5.3086    4.3336   -1.7387 C   0  0  0  0  0  0  0  0  0  0  0  0
    5.5124    3.9576   -3.1585 N   0  0  0  0  0  0  0  0  0  0  0  0
    4.8106    4.5531   -4.2658 C   0  0  0  0  0  0  0  0  0  0  0  0
    5.1286    3.7039   -5.5098 C   0  0  2  0  0  0  0  0  0  0  0  0
    5.5161    4.3359   -6.3194 H   0  0  0  0  0  0  0  0  0  0  0  0
    3.9291    2.8593   -5.9760 C   0  0  0  0  0  0  0  0  0  0  0  0
    4.0201    1.6806   -5.1311 N   0  0  0  0  0  0  0  0  0  0  0  0
    3.0404    0.6312   -5.3729 C   0  0  0  0  0  0  0  0  0  0  0  0
    3.0223   -0.4220   -4.2817 C   0  0  0  0  0  0  0  0  0  0  0  0
    2.8618   -0.0446   -2.9380 C   0  0  0  0  0  0  0  0  0  0  0  0
    2.8213   -1.0074   -1.9279 C   0  0  0  0  0  0  0  0  0  0  0  0
    2.9387   -2.3656   -2.2459 C   0  0  0  0  0  0  0  0  0  0  0  0
    3.0972   -2.7518   -3.5786 C   0  0  0  0  0  0  0  0  0  0  0  0
    3.1411   -1.7840   -4.5887 C   0  0  0  0  0  0  0  0  0  0  0  0
    5.4185    1.2897   -5.1971 C   0  0  0  0  0  0  0  0  0  0  0  0
    6.1724    2.6253   -5.0343 C   0  0  2  0  0  0  0  0  0  0  0  0
    7.0896    2.6345   -5.6373 H   0  0  0  0  0  0  0  0  0  0  0  0
    6.4942    2.9879   -3.5746 C   0  0  0  0  0  0  0  0  0  0  0  0
    4.6918    6.7753   -1.3880 C   0  0  0  0  0  0  0  0  0  0  0  0
    3.7578    7.7826   -1.2336 C   0  0  0  0  0  0  0  0  0  0  0  0
    2.6030    9.8705   -1.3586 H   0  0  0  0  0  0  0  0  0  0  0  0
    0.9120    5.8763   -1.1222 H   0  0  0  0  0  0  0  0  0  0  0  0
    2.5789    4.0667   -1.3809 H   0  0  0  0  0  0  0  0  0  0  0  0
    5.0429    3.3784   -1.2494 H   0  0  0  0  0  0  0  0  0  0  0  0
    6.3192    4.5844   -1.3692 H   0  0  0  0  0  0  0  0  0  0  0  0
    5.1450    5.6038   -4.3413 H   0  0  0  0  0  0  0  0  0  0  0  0
    3.7447    4.6186   -4.0066 H   0  0  0  0  0  0  0  0  0  0  0  0
    4.0386    2.6127   -7.0567 H   0  0  0  0  0  0  0  0  0  0  0  0
    2.9625    3.3722   -5.8511 H   0  0  0  0  0  0  0  0  0  0  0  0
    3.2047    0.1410   -6.3583 H   0  0  0  0  0  0  0  0  0  0  0  0
    2.0503    1.1158   -5.4277 H   0  0  0  0  0  0  0  0  0  0  0  0
    2.7651    1.0155   -2.6897 H   0  0  0  0  0  0  0  0  0  0  0  0
    2.6889   -0.6986   -0.8876 H   0  0  0  0  0  0  0  0  0  0  0  0
    2.9034   -3.1195   -1.4555 H   0  0  0  0  0  0  0  0  0  0  0  0
    3.1890   -3.8101   -3.8361 H   0  0  0  0  0  0  0  0  0  0  0  0
    3.2666   -2.0934   -5.6305 H   0  0  0  0  0  0  0  0  0  0  0  0
    5.6743    0.8369   -6.1822 H   0  0  0  0  0  0  0  0  0  0  0  0
    5.6675    0.5474   -4.4233 H   0  0  0  0  0  0  0  0  0  0  0  0
    7.4924    3.4569   -3.4684 H   0  0  0  0  0  0  0  0  0  0  0  0
    6.4818    2.1329   -2.8801 H   0  0  0  0  0  0  0  0  0  0  0  0
    5.7554    7.0407   -1.4078 H   0  0  0  0  0  0  0  0  0  0  0  0
    4.1265    8.8054   -1.1046 H   0  0  0  0  0  0  0  0  0  0  0  0
  1  2  2  0
  2  3  1  0
  2  4  1  0
  3 28  1  0
  4  5  2  0
  4 27  1  0
  5  6  1  0
  5 29  1  0
  6  7  2  0
  6 30  1  0
  7  8  1  0
  7 26  1  0
  8  9  1  0
  8 31  1  0
  8 32  1  0
  9 10  1  0
  9 25  1  0
 10 11  1  0
 10 33  1  0
 10 34  1  0
 11 12  1  6
 11 13  1  0
 11 23  1  0
 13 14  1  0
 13 35  1  0
 13 36  1  0
 14 15  1  0
 14 22  1  0
 15 16  1  0
 15 37  1  0
 15 38  1  0
 16 17  2  0
 16 21  1  0
 17 18  1  0
 17 39  1  0
 18 19  2  0
 18 40  1  0
 19 20  1  0
 19 41  1  0
 20 21  2  0
 20 42  1  0
 21 43  1  0
 22 23  1  0
 22 44  1  0
 22 45  1  0
 23 24  1  6
 23 25  1  0
 25 46  1  0
 25 47  1  0
 26 27  2  0
 26 48  1  0
 27 49  1  0
M  END

