
     RDKit          3D

 38 40  0  0  0  0  0  0  0  0999 V2000
    5.0605   -2.1584   -0.6857 C   0  0  0  0  0  0  0  0  0  0  0  0
    4.3412   -0.8830   -0.3302 C   0  0  0  0  0  0  0  0  0  0  0  0
    5.0401    0.3034   -0.1111 C   0  0  0  0  0  0  0  0  0  0  0  0
    4.3867    1.5005    0.2230 C   0  0  0  0  0  0  0  0  0  0  0  0
    2.9913    1.5114    0.3384 C   0  0  0  0  0  0  0  0  0  0  0  0
    2.2550    0.3509    0.1276 C   0  0  0  0  0  0  0  0  0  0  0  0
    2.9167   -0.8602   -0.2054 C   0  0  0  0  0  0  0  0  0  0  0  0
    2.2107   -2.0300   -0.4129 N   0  0  0  0  0  0  0  0  0  0  0  0
    0.8742   -2.2489   -0.3203 C   0  0  0  0  0  0  0  0  0  0  0  0
    0.3308   -3.5571   -0.5834 C   0  0  0  0  0  0  0  0  0  0  0  0
    1.1958   -4.6260   -0.9110 C   0  0  0  0  0  0  0  0  0  0  0  0
    1.9737   -5.4576   -1.1814 N   0  0  0  0  0  0  0  0  0  0  0  0
   -1.0713   -3.7292   -0.5092 C   0  0  0  0  0  0  0  0  0  0  0  0
   -1.9415   -2.7676   -0.2262 N   0  0  0  0  0  0  0  0  0  0  0  0
   -3.2295   -3.2144   -0.2042 C   0  0  0  0  0  0  0  0  0  0  0  0
   -4.3011   -2.2435    0.0400 C   0  0  0  0  0  0  0  0  0  0  0  0
   -3.9531   -0.8705   -0.0730 C   0  0  0  0  0  0  0  0  0  0  0  0
   -4.8664    0.1555    0.1105 C   0  0  0  0  0  0  0  0  0  0  0  0
   -6.1909   -0.1641    0.4350 C   0  0  0  0  0  0  0  0  0  0  0  0
   -7.3605    1.0995    0.6727 Cl  0  0  0  0  0  0  0  0  0  0  0  0
   -6.5822   -1.4984    0.5779 C   0  0  0  0  0  0  0  0  0  0  0  0
   -5.6518   -2.5197    0.3857 C   0  0  0  0  0  0  0  0  0  0  0  0
   -6.2575   -4.1415    0.6503 Cl  0  0  0  0  0  0  0  0  0  0  0  0
   -3.3756   -4.5839   -0.4881 C   0  0  0  0  0  0  0  0  0  0  0  0
   -1.8645   -5.3310   -0.7833 S   0  0  0  0  0  0  0  0  0  0  0  0
    6.1456   -1.9953   -0.7405 H   0  0  0  0  0  0  0  0  0  0  0  0
    4.7391   -2.5583   -1.6648 H   0  0  0  0  0  0  0  0  0  0  0  0
    4.8845   -2.9562    0.0588 H   0  0  0  0  0  0  0  0  0  0  0  0
    6.1298    0.2920   -0.2035 H   0  0  0  0  0  0  0  0  0  0  0  0
    4.9640    2.4126    0.3891 H   0  0  0  0  0  0  0  0  0  0  0  0
    2.4698    2.4377    0.5937 H   0  0  0  0  0  0  0  0  0  0  0  0
    1.1686    0.3776    0.2118 H   0  0  0  0  0  0  0  0  0  0  0  0
    2.7655   -2.8445   -0.6733 H   0  0  0  0  0  0  0  0  0  0  0  0
    0.2132   -1.4493   -0.0025 H   0  0  0  0  0  0  0  0  0  0  0  0
   -2.9176   -0.6458   -0.3270 H   0  0  0  0  0  0  0  0  0  0  0  0
   -4.5658    1.1987    0.0042 H   0  0  0  0  0  0  0  0  0  0  0  0
   -7.6082   -1.7456    0.8485 H   0  0  0  0  0  0  0  0  0  0  0  0
   -4.2983   -5.1507   -0.5545 H   0  0  0  0  0  0  0  0  0  0  0  0
  1  2  1  0
  1 26  1  0
  1 27  1  0
  1 28  1  0
  2  3  2  0
  2  7  1  0
  3  4  1  0
  3 29  1  0
  4  5  2  0
  4 30  1  0
  5  6  1  0
  5 31  1  0
  6  7  2  0
  6 32  1  0
  7  8  1  0
  8  9  1  0
  8 33  1  0
  9 10  2  0
  9 34  1  0
 10 11  1  0
 10 13  1  0
 11 12  3  0
 13 14  2  0
 13 25  1  0
 14 15  1  0
 15 16  1  0
 15 24  2  0
 16 17  2  0
 16 22  1  0
 17 18  1  0
 17 35  1  0
 18 19  2  0
 18 36  1  0
 19 20  1  0
 19 21  1  0
 21 22  2  0
 21 37  1  0
 22 23  1  0
 24 25  1  0
 24 38  1  0
M  END

