
     RDKit          3D

 71 75  0  0  0  0  0  0  0  0999 V2000
   14.7038    1.8338    2.3227 C   0  0  0  0  0  0  0  0  0  0  0  0
   15.2434    1.4614    0.9358 C   0  0  1  0  0  0  0  0  0  0  0  0
   16.7701    1.3082    0.9691 C   0  0  0  0  0  0  0  0  0  0  0  0
   14.5283    0.2078    0.4022 C   0  0  0  0  0  0  0  0  0  0  0  0
   14.8608   -0.1715   -1.0439 C   0  0  0  0  0  0  0  0  0  0  0  0
   13.9181   -1.2448   -1.5862 C   0  0  0  0  0  0  0  0  0  0  0  0
   12.7207   -1.2496   -1.3423 O   0  0  0  0  0  0  0  0  0  0  0  0
   14.5055   -2.2021   -2.3626 N   0  0  0  0  0  0  0  0  0  0  0  0
   13.7361   -3.1817   -3.0962 C   0  0  2  0  0  0  0  0  0  0  0  0
   12.9135   -4.1998   -2.2670 C   0  0  0  0  0  0  0  0  0  0  0  0
   12.4463   -6.7598   -2.4594 C   0  0  2  0  0  0  0  0  0  0  0  0
   13.1227   -7.9332   -2.9073 O   0  0  0  0  0  0  0  0  0  0  0  0
   11.9614   -6.8750   -0.9599 C   0  0  2  0  0  0  0  0  0  0  0  0
   10.5646   -6.2176   -0.9250 C   0  0  0  0  0  0  0  0  0  0  0  0
   10.0520   -6.3963   -2.3199 C   0  0  0  0  0  0  0  0  0  0  0  0
   11.1213   -6.6384   -3.1994 C   0  0  0  0  0  0  0  0  0  0  0  0
   10.9121   -6.5023   -4.6640 C   0  0  0  0  0  0  0  0  0  0  0  0
   10.4527   -5.0193   -5.0662 C   0  0  0  0  0  0  0  0  0  0  0  0
   11.3250   -4.2086   -5.3499 O   0  0  0  0  0  0  0  0  0  0  0  0
    8.9700   -4.6686   -4.9039 C   0  0  0  0  0  0  0  0  0  0  0  0
    8.7380   -4.7678   -3.4105 C   0  0  0  0  0  0  0  0  0  0  0  0
    8.7675   -6.1041   -2.8950 C   0  0  0  0  0  0  0  0  0  0  0  0
   13.4883   -5.6142   -2.6081 C   0  0  2  0  0  0  0  0  0  0  0  0
   14.6808   -5.9516   -1.6622 C   0  0  0  0  0  0  0  0  0  0  0  0
   14.2725   -6.6699   -0.3675 C   0  0  0  0  0  0  0  0  0  0  0  0
   12.9025   -6.3375    0.0037 N   0  0  0  0  0  0  0  0  0  0  0  0
   12.5497   -6.6802    1.3806 C   0  0  0  0  0  0  0  0  0  0  0  0
   13.3353   -5.9294    2.4366 C   0  0  1  0  0  0  0  0  0  0  0  0
   13.0592   -4.4692    2.6854 C   0  0  0  0  0  0  0  0  0  0  0  0
   12.6473   -5.4952    3.7093 C   0  0  0  0  0  0  0  0  0  0  0  0
   14.0594   -5.4188   -4.0382 C   0  0  0  0  0  0  0  0  0  0  0  0
   14.6869   -4.0476   -3.9306 C   0  0  0  0  0  0  0  0  0  0  0  0
   15.7655   -3.6826   -4.3340 O   0  0  0  0  0  0  0  0  0  0  0  0
   15.1662    2.7606    2.6995 H   0  0  0  0  0  0  0  0  0  0  0  0
   14.9155    1.0356    3.0554 H   0  0  0  0  0  0  0  0  0  0  0  0
   13.6125    1.9844    2.3025 H   0  0  0  0  0  0  0  0  0  0  0  0
   15.0036    2.2954    0.2479 H   0  0  0  0  0  0  0  0  0  0  0  0
   17.0671    0.4693    1.6231 H   0  0  0  0  0  0  0  0  0  0  0  0
   17.2526    2.2188    1.3601 H   0  0  0  0  0  0  0  0  0  0  0  0
   17.1924    1.1177   -0.0301 H   0  0  0  0  0  0  0  0  0  0  0  0
   13.4378    0.3542    0.4585 H   0  0  0  0  0  0  0  0  0  0  0  0
   14.7547   -0.6486    1.0651 H   0  0  0  0  0  0  0  0  0  0  0  0
   15.9089   -0.4930   -1.1535 H   0  0  0  0  0  0  0  0  0  0  0  0
   14.7331    0.7147   -1.6933 H   0  0  0  0  0  0  0  0  0  0  0  0
   15.4651   -2.0850   -2.6792 H   0  0  0  0  0  0  0  0  0  0  0  0
   13.0561   -2.6849   -3.8146 H   0  0  0  0  0  0  0  0  0  0  0  0
   11.8586   -4.1176   -2.5582 H   0  0  0  0  0  0  0  0  0  0  0  0
   12.9718   -3.9899   -1.1944 H   0  0  0  0  0  0  0  0  0  0  0  0
   12.5626   -8.7008   -2.7230 H   0  0  0  0  0  0  0  0  0  0  0  0
   11.8165   -7.9723   -0.7920 H   0  0  0  0  0  0  0  0  0  0  0  0
   10.6382   -5.1463   -0.6631 H   0  0  0  0  0  0  0  0  0  0  0  0
    9.8669   -6.6700   -0.2033 H   0  0  0  0  0  0  0  0  0  0  0  0
   10.1051   -7.1772   -4.9933 H   0  0  0  0  0  0  0  0  0  0  0  0
   11.8181   -6.7351   -5.2340 H   0  0  0  0  0  0  0  0  0  0  0  0
    8.3214   -5.3736   -5.4558 H   0  0  0  0  0  0  0  0  0  0  0  0
    8.8376   -3.6510   -5.3001 H   0  0  0  0  0  0  0  0  0  0  0  0
    9.1082   -3.9317   -2.8070 H   0  0  0  0  0  0  0  0  0  0  0  0
    8.4875   -6.8423   -3.6604 H   0  0  0  0  0  0  0  0  0  0  0  0
   15.1949   -5.0083   -1.4177 H   0  0  0  0  0  0  0  0  0  0  0  0
   15.4091   -6.5791   -2.1961 H   0  0  0  0  0  0  0  0  0  0  0  0
   14.9447   -6.3681    0.4463 H   0  0  0  0  0  0  0  0  0  0  0  0
   14.3914   -7.7698   -0.4893 H   0  0  0  0  0  0  0  0  0  0  0  0
   12.6524   -7.7778    1.5565 H   0  0  0  0  0  0  0  0  0  0  0  0
   11.4818   -6.4494    1.5188 H   0  0  0  0  0  0  0  0  0  0  0  0
   14.3755   -6.2495    2.5590 H   0  0  0  0  0  0  0  0  0  0  0  0
   12.2776   -3.9937    2.0855 H   0  0  0  0  0  0  0  0  0  0  0  0
   13.9028   -3.8122    2.9143 H   0  0  0  0  0  0  0  0  0  0  0  0
   11.5806   -5.7156    3.8179 H   0  0  0  0  0  0  0  0  0  0  0  0
   13.2090   -5.5557    4.6456 H   0  0  0  0  0  0  0  0  0  0  0  0
   13.2492   -5.3101   -4.7756 H   0  0  0  0  0  0  0  0  0  0  0  0
   14.7674   -6.1883   -4.3684 H   0  0  0  0  0  0  0  0  0  0  0  0
  1  2  1  0
  1 34  1  0
  1 35  1  0
  1 36  1  0
  2  3  1  0
  2  4  1  0
  2 37  1  6
  3 38  1  0
  3 39  1  0
  3 40  1  0
  4  5  1  0
  4 41  1  0
  4 42  1  0
  5  6  1  0
  5 43  1  0
  5 44  1  0
  6  7  2  0
  6  8  1  0
  8  9  1  0
  8 45  1  0
  9 10  1  0
  9 32  1  0
  9 46  1  6
 23 10  1  1
 10 47  1  0
 10 48  1  0
 11 12  1  6
 11 13  1  0
 11 16  1  0
 11 23  1  0
 12 49  1  0
 13 14  1  0
 13 26  1  0
 13 50  1  6
 14 15  1  0
 14 51  1  0
 14 52  1  0
 15 16  2  0
 15 22  1  0
 16 17  1  0
 17 18  1  0
 17 53  1  0
 17 54  1  0
 18 19  2  0
 18 20  1  0
 20 21  1  0
 20 55  1  0
 20 56  1  0
 21 22  2  0
 21 57  1  0
 22 58  1  0
 23 24  1  0
 23 31  1  0
 24 25  1  0
 24 59  1  0
 24 60  1  0
 25 26  1  0
 25 61  1  0
 25 62  1  0
 26 27  1  0
 27 28  1  0
 27 63  1  0
 27 64  1  0
 28 29  1  0
 28 30  1  0
 28 65  1  1
 29 30  1  0
 29 66  1  0
 29 67  1  0
 30 68  1  0
 30 69  1  0
 31 32  1  0
 31 70  1  0
 31 71  1  0
 32 33  2  0
M  END

