
     RDKit          3D

 67 71  0  0  0  0  0  0  0  0999 V2000
   -0.5621    2.3556   -1.9381 C   0  0  0  0  0  0  0  0  0  0  0  0
    0.0726    1.2754   -1.0707 C   0  0  1  0  0  0  0  0  0  0  0  0
    1.5698    1.0243   -1.3579 C   0  0  0  0  0  0  0  0  0  0  0  0
    1.8222    0.3812   -2.7049 C   0  0  0  0  0  0  0  0  0  0  0  0
    1.7268   -1.0038   -2.8506 C   0  0  0  0  0  0  0  0  0  0  0  0
    1.9283   -1.6295   -4.1039 C   0  0  0  0  0  0  0  0  0  0  0  0
    1.9374   -3.0906   -4.2769 C   0  0  0  0  0  0  0  0  0  0  0  0
    1.5251   -3.6694   -5.5209 C   0  0  0  0  0  0  0  0  0  0  0  0
    1.7331   -5.0366   -5.7810 C   0  0  0  0  0  0  0  0  0  0  0  0
    2.2319   -5.8700   -4.7951 C   0  0  0  0  0  0  0  0  0  0  0  0
    2.5533   -5.3495   -3.5055 C   0  0  0  0  0  0  0  0  0  0  0  0
    3.0723   -6.2336   -2.4490 C   0  0  0  0  0  0  0  0  0  0  0  0
    2.8533   -7.6351   -2.4973 C   0  0  0  0  0  0  0  0  0  0  0  0
    3.3378   -8.4661   -1.4930 C   0  0  0  0  0  0  0  0  0  0  0  0
    4.0553   -7.9309   -0.4206 C   0  0  0  0  0  0  0  0  0  0  0  0
    4.2894   -6.5415   -0.3291 C   0  0  0  0  0  0  0  0  0  0  0  0
    5.0329   -6.0269    0.8273 C   0  0  0  0  0  0  0  0  0  0  0  0
    5.2121   -4.7446    1.1909 C   0  0  0  0  0  0  0  0  0  0  0  0
    5.9947   -4.4272    2.4280 C   0  0  0  0  0  0  0  0  0  0  0  0
    6.5060   -5.2889    3.1257 O   0  0  0  0  0  0  0  0  0  0  0  0
    6.0770   -3.0898    2.7179 N   0  0  0  0  0  0  0  0  0  0  0  0
    6.8316   -2.5914    3.8288 C   0  0  1  0  0  0  0  0  0  0  0  0
    6.3257   -1.3624    4.5361 C   0  0  0  0  0  0  0  0  0  0  0  0
    6.2636   -2.7043    5.2191 C   0  0  0  0  0  0  0  0  0  0  0  0
    3.7958   -5.7190   -1.3523 C   0  0  0  0  0  0  0  0  0  0  0  0
    2.3984   -3.9594   -3.2874 C   0  0  0  0  0  0  0  0  0  0  0  0
    2.2449   -0.8386   -5.2466 C   0  0  0  0  0  0  0  0  0  0  0  0
    2.4628   -1.4298   -6.4399 N   0  0  0  0  0  0  0  0  0  0  0  0
    2.8514   -0.7361   -7.5245 C   0  0  0  0  0  0  0  0  0  0  0  0
    3.0497    0.6402   -7.4642 C   0  0  0  0  0  0  0  0  0  0  0  0
    2.7963    1.3195   -6.2596 C   0  0  0  0  0  0  0  0  0  0  0  0
    2.3867    0.5930   -5.1057 C   0  0  0  0  0  0  0  0  0  0  0  0
    2.1672    1.1619   -3.8291 C   0  0  0  0  0  0  0  0  0  0  0  0
   -0.0447    1.7066    0.7194 S   0  0  1  0  0  0  0  0  0  0  0  0
   -1.8127    1.7551    1.1024 C   0  0  0  0  0  0  0  0  0  0  0  0
    0.5178    0.5810    1.4875 O   0  0  0  0  0  0  0  0  0  0  0  0
    0.4860    3.0685    0.9018 O   0  0  0  0  0  0  0  0  0  0  0  0
   -0.4044    2.1121   -2.9996 H   0  0  0  0  0  0  0  0  0  0  0  0
   -0.0989    3.3323   -1.7314 H   0  0  0  0  0  0  0  0  0  0  0  0
   -1.6473    2.4413   -1.7733 H   0  0  0  0  0  0  0  0  0  0  0  0
   -0.4743    0.3208   -1.1453 H   0  0  0  0  0  0  0  0  0  0  0  0
    1.9581    0.3760   -0.5581 H   0  0  0  0  0  0  0  0  0  0  0  0
    2.1035    1.9850   -1.2819 H   0  0  0  0  0  0  0  0  0  0  0  0
    1.4769   -1.6162   -1.9794 H   0  0  0  0  0  0  0  0  0  0  0  0
    0.9457   -3.0725   -6.2204 H   0  0  0  0  0  0  0  0  0  0  0  0
    1.4489   -5.4489   -6.7519 H   0  0  0  0  0  0  0  0  0  0  0  0
    2.3802   -6.9281   -5.0116 H   0  0  0  0  0  0  0  0  0  0  0  0
    2.2744   -8.0700   -3.3123 H   0  0  0  0  0  0  0  0  0  0  0  0
    3.1521   -9.5414   -1.5414 H   0  0  0  0  0  0  0  0  0  0  0  0
    4.4378   -8.5883    0.3641 H   0  0  0  0  0  0  0  0  0  0  0  0
    5.4842   -6.7732    1.4910 H   0  0  0  0  0  0  0  0  0  0  0  0
    4.7855   -3.9156    0.6168 H   0  0  0  0  0  0  0  0  0  0  0  0
    5.7190   -2.4205    2.0458 H   0  0  0  0  0  0  0  0  0  0  0  0
    7.9184   -2.7108    3.7351 H   0  0  0  0  0  0  0  0  0  0  0  0
    5.3846   -0.9274    4.1853 H   0  0  0  0  0  0  0  0  0  0  0  0
    7.0622   -0.6280    4.8726 H   0  0  0  0  0  0  0  0  0  0  0  0
    5.2861   -3.1825    5.3173 H   0  0  0  0  0  0  0  0  0  0  0  0
    6.9602   -2.9175    6.0339 H   0  0  0  0  0  0  0  0  0  0  0  0
    4.0118   -4.6521   -1.3138 H   0  0  0  0  0  0  0  0  0  0  0  0
    2.6759   -3.5362   -2.3229 H   0  0  0  0  0  0  0  0  0  0  0  0
    2.9669   -1.2933   -8.4597 H   0  0  0  0  0  0  0  0  0  0  0  0
    3.3604    1.1800   -8.3617 H   0  0  0  0  0  0  0  0  0  0  0  0
    2.9200    2.4028   -6.1939 H   0  0  0  0  0  0  0  0  0  0  0  0
    2.3249    2.2379   -3.7084 H   0  0  0  0  0  0  0  0  0  0  0  0
   -2.2620    0.7776    0.8836 H   0  0  0  0  0  0  0  0  0  0  0  0
   -2.2990    2.5659    0.5463 H   0  0  0  0  0  0  0  0  0  0  0  0
   -1.8488    1.9574    2.1817 H   0  0  0  0  0  0  0  0  0  0  0  0
  1  2  1  0
  1 38  1  0
  1 39  1  0
  1 40  1  0
  2  3  1  0
  2 34  1  0
  2 41  1  6
  3  4  1  0
  3 42  1  0
  3 43  1  0
  4  5  2  0
  4 33  1  0
  5  6  1  0
  5 44  1  0
  6  7  1  0
  6 27  2  0
  7  8  2  0
  7 26  1  0
  8  9  1  0
  8 45  1  0
  9 10  2  0
  9 46  1  0
 10 11  1  0
 10 47  1  0
 11 12  1  0
 11 26  2  0
 12 13  2  0
 12 25  1  0
 13 14  1  0
 13 48  1  0
 14 15  2  0
 14 49  1  0
 15 16  1  0
 15 50  1  0
 16 17  1  0
 16 25  2  0
 17 18  2  0
 17 51  1  0
 18 19  1  0
 18 52  1  0
 19 20  2  0
 19 21  1  0
 21 22  1  0
 21 53  1  0
 22 23  1  0
 22 24  1  0
 22 54  1  1
 23 24  1  0
 23 55  1  0
 23 56  1  0
 24 57  1  0
 24 58  1  0
 25 59  1  0
 26 60  1  0
 27 28  1  0
 27 32  1  0
 28 29  2  0
 29 30  1  0
 29 61  1  0
 30 31  2  0
 30 62  1  0
 31 32  1  0
 31 63  1  0
 32 33  2  0
 33 64  1  0
 34 35  1  6
 34 36  2  0
 34 37  2  0
 35 65  1  0
 35 66  1  0
 35 67  1  0
M  END

