
     RDKit          3D

 52 54  0  0  0  0  0  0  0  0999 V2000
    1.8571   -0.8314    4.8131 O   0  0  0  0  0  0  0  0  0  0  0  0
    1.9233   -1.7737    4.0695 C   0  0  0  0  0  0  0  0  0  0  0  0
    0.7859   -2.3777    3.6499 O   0  0  0  0  0  0  0  0  0  0  0  0
    3.2275   -2.3957    3.5536 C   0  0  1  0  0  0  0  0  0  0  0  0
    3.2699   -2.5405    2.0152 C   0  0  0  0  0  0  0  0  0  0  0  0
    3.4480   -1.1930    1.3018 C   0  0  0  0  0  0  0  0  0  0  0  0
    4.6470   -0.3659    1.8130 C   0  0  2  0  0  0  0  0  0  0  0  0
    5.9844   -0.9419    1.3290 C   0  0  0  0  0  0  0  0  0  0  0  0
    6.0953   -2.1222    1.0216 O   0  0  0  0  0  0  0  0  0  0  0  0
    7.0757   -0.0968    1.2759 N   0  0  0  0  0  0  0  0  0  0  0  0
    8.3792   -0.6378    0.8889 C   0  0  0  0  0  0  0  0  0  0  0  0
    8.9764    0.1635   -0.2666 C   0  0  0  0  0  0  0  0  0  0  0  0
    9.0049    1.5898    0.0564 N   0  0  0  0  0  0  0  0  0  0  0  0
   10.1723    2.2929   -0.0888 C   0  0  0  0  0  0  0  0  0  0  0  0
   11.2133    1.7782   -0.4560 O   0  0  0  0  0  0  0  0  0  0  0  0
   10.1244    3.8025    0.2374 C   0  0  0  0  0  0  0  0  0  0  0  0
   11.4285    4.3827    0.0651 N   0  0  0  0  0  0  0  0  0  0  0  0
   11.8948    4.8332   -1.1706 C   0  0  0  0  0  0  0  0  0  0  0  0
   11.2142    4.9260   -2.1622 O   0  0  0  0  0  0  0  0  0  0  0  0
   13.3683    5.1876   -1.0026 C   0  0  0  0  0  0  0  0  0  0  0  0
   13.7003    4.8648    0.4609 C   0  0  0  0  0  0  0  0  0  0  0  0
   12.4018    4.3408    1.0632 C   0  0  0  0  0  0  0  0  0  0  0  0
   12.2020    3.9644    2.1922 O   0  0  0  0  0  0  0  0  0  0  0  0
    7.7168    2.1353    0.4577 C   0  0  0  0  0  0  0  0  0  0  0  0
    7.1167    1.3181    1.6132 C   0  0  0  0  0  0  0  0  0  0  0  0
    4.6109   -0.2586    3.3596 C   0  0  0  0  0  0  0  0  0  0  0  0
    4.4588   -1.6209    4.0500 C   0  0  0  0  0  0  0  0  0  0  0  0
    0.9954   -3.1178    3.0624 H   0  0  0  0  0  0  0  0  0  0  0  0
    3.2515   -3.4122    3.9906 H   0  0  0  0  0  0  0  0  0  0  0  0
    2.3614   -3.0380    1.6303 H   0  0  0  0  0  0  0  0  0  0  0  0
    4.1146   -3.1912    1.7530 H   0  0  0  0  0  0  0  0  0  0  0  0
    2.5392   -0.5810    1.4419 H   0  0  0  0  0  0  0  0  0  0  0  0
    3.5476   -1.3646    0.2187 H   0  0  0  0  0  0  0  0  0  0  0  0
    4.5345    0.6483    1.3990 H   0  0  0  0  0  0  0  0  0  0  0  0
    8.2352   -1.6874    0.6068 H   0  0  0  0  0  0  0  0  0  0  0  0
    9.0636   -0.5975    1.7569 H   0  0  0  0  0  0  0  0  0  0  0  0
    8.3688    0.0077   -1.1775 H   0  0  0  0  0  0  0  0  0  0  0  0
   10.0055   -0.1515   -0.4781 H   0  0  0  0  0  0  0  0  0  0  0  0
    9.8136    3.9618    1.2805 H   0  0  0  0  0  0  0  0  0  0  0  0
    9.4257    4.3156   -0.4404 H   0  0  0  0  0  0  0  0  0  0  0  0
   13.5118    6.2456   -1.2703 H   0  0  0  0  0  0  0  0  0  0  0  0
   13.9465    4.5939   -1.7267 H   0  0  0  0  0  0  0  0  0  0  0  0
   14.0373    5.7350    1.0447 H   0  0  0  0  0  0  0  0  0  0  0  0
   14.4689    4.0858    0.5767 H   0  0  0  0  0  0  0  0  0  0  0  0
    7.0179    2.1087   -0.4006 H   0  0  0  0  0  0  0  0  0  0  0  0
    7.8159    3.1816    0.7703 H   0  0  0  0  0  0  0  0  0  0  0  0
    6.1146    1.6966    1.8410 H   0  0  0  0  0  0  0  0  0  0  0  0
    7.7421    1.4661    2.5147 H   0  0  0  0  0  0  0  0  0  0  0  0
    3.7594    0.3773    3.6472 H   0  0  0  0  0  0  0  0  0  0  0  0
    5.5179    0.2431    3.7345 H   0  0  0  0  0  0  0  0  0  0  0  0
    4.3863   -1.4699    5.1372 H   0  0  0  0  0  0  0  0  0  0  0  0
    5.3512   -2.2406    3.8630 H   0  0  0  0  0  0  0  0  0  0  0  0
  1  2  2  0
  2  3  1  0
  2  4  1  0
  3 28  1  0
  4  5  1  0
  4 27  1  0
  4 29  1  1
  5  6  1  0
  5 30  1  0
  5 31  1  0
  6  7  1  0
  6 32  1  0
  6 33  1  0
  7  8  1  0
  7 26  1  0
  7 34  1  6
  8  9  2  0
  8 10  1  0
 10 11  1  0
 10 25  1  0
 11 12  1  0
 11 35  1  0
 11 36  1  0
 12 13  1  0
 12 37  1  0
 12 38  1  0
 13 14  1  0
 13 24  1  0
 14 15  2  0
 14 16  1  0
 16 17  1  0
 16 39  1  0
 16 40  1  0
 17 18  1  0
 17 22  1  0
 18 19  2  0
 18 20  1  0
 20 21  1  0
 20 41  1  0
 20 42  1  0
 21 22  1  0
 21 43  1  0
 21 44  1  0
 22 23  2  0
 24 25  1  0
 24 45  1  0
 24 46  1  0
 25 47  1  0
 25 48  1  0
 26 27  1  0
 26 49  1  0
 26 50  1  0
 27 51  1  0
 27 52  1  0
M  END

