
     RDKit          3D

 33 34  0  0  0  0  0  0  0  0999 V2000
    1.1666    0.1371    0.0670 C   0  0  0  0  0  0  0  0  0  0  0  0
    2.3779    0.0638    0.0119 C   0  0  0  0  0  0  0  0  0  0  0  0
    3.8456    0.0058   -0.0636 C   0  0  1  0  0  0  0  0  0  0  0  0
    4.3692    1.3971   -0.3440 C   0  0  0  0  0  0  0  0  0  0  0  0
    4.0767    2.4765    0.5518 C   0  0  0  0  0  0  0  0  0  0  0  0
    4.6108    3.7803    0.3101 C   0  0  0  0  0  0  0  0  0  0  0  0
    5.4068    4.0163   -0.8475 C   0  0  0  0  0  0  0  0  0  0  0  0
    5.6838    2.9586   -1.7580 C   0  0  0  0  0  0  0  0  0  0  0  0
    5.1592    1.6528   -1.5136 C   0  0  0  0  0  0  0  0  0  0  0  0
    4.4655   -0.6568    1.2239 C   0  0  1  0  0  0  0  0  0  0  0  0
    3.9244   -2.0793    1.4699 C   0  0  0  0  0  0  0  0  0  0  0  0
    4.4928   -3.1225    0.4966 C   0  0  0  0  0  0  0  0  0  0  0  0
    6.0272   -3.1165    0.4915 C   0  0  0  0  0  0  0  0  0  0  0  0
    6.5833   -1.7139    0.2141 C   0  0  0  0  0  0  0  0  0  0  0  0
    6.0071   -0.6736    1.1856 C   0  0  0  0  0  0  0  0  0  0  0  0
    0.0958    0.2014    0.1086 H   0  0  0  0  0  0  0  0  0  0  0  0
    4.1027   -0.6252   -0.9308 H   0  0  0  0  0  0  0  0  0  0  0  0
    3.4337    2.3011    1.4157 H   0  0  0  0  0  0  0  0  0  0  0  0
    4.4072    4.5921    1.0103 H   0  0  0  0  0  0  0  0  0  0  0  0
    5.8041    5.0153   -1.0395 H   0  0  0  0  0  0  0  0  0  0  0  0
    6.2970    3.1430   -2.6418 H   0  0  0  0  0  0  0  0  0  0  0  0
    5.3541    0.8427   -2.2189 H   0  0  0  0  0  0  0  0  0  0  0  0
    4.1518   -0.0214    2.0687 H   0  0  0  0  0  0  0  0  0  0  0  0
    2.8233   -2.0778    1.4349 H   0  0  0  0  0  0  0  0  0  0  0  0
    4.1996   -2.3702    2.5002 H   0  0  0  0  0  0  0  0  0  0  0  0
    4.1212   -2.9265   -0.5257 H   0  0  0  0  0  0  0  0  0  0  0  0
    4.1147   -4.1234    0.7645 H   0  0  0  0  0  0  0  0  0  0  0  0
    6.4132   -3.8378   -0.2487 H   0  0  0  0  0  0  0  0  0  0  0  0
    6.3920   -3.4602    1.4777 H   0  0  0  0  0  0  0  0  0  0  0  0
    6.3512   -1.4241   -0.8268 H   0  0  0  0  0  0  0  0  0  0  0  0
    7.6841   -1.7170    0.2846 H   0  0  0  0  0  0  0  0  0  0  0  0
    6.3925    0.3306    0.9463 H   0  0  0  0  0  0  0  0  0  0  0  0
    6.3640   -0.9082    2.2047 H   0  0  0  0  0  0  0  0  0  0  0  0
  1  2  3  0
  1 16  1  0
  2  3  1  0
  3  4  1  0
  3 10  1  0
  3 17  1  6
  4  5  2  0
  4  9  1  0
  5  6  1  0
  5 18  1  0
  6  7  2  0
  6 19  1  0
  7  8  1  0
  7 20  1  0
  8  9  2  0
  8 21  1  0
  9 22  1  0
 10 11  1  0
 10 15  1  0
 10 23  1  1
 11 12  1  0
 11 24  1  0
 11 25  1  0
 12 13  1  0
 12 26  1  0
 12 27  1  0
 13 14  1  0
 13 28  1  0
 13 29  1  0
 14 15  1  0
 14 30  1  0
 14 31  1  0
 15 32  1  0
 15 33  1  0
M  END

