
     RDKit          3D

 64 68  0  0  0  0  0  0  0  0999 V2000
    3.5856   -2.2512   -0.1220 C   0  0  0  0  0  0  0  0  0  0  0  0
    4.7898   -2.7331    0.4342 O   0  0  0  0  0  0  0  0  0  0  0  0
    5.4927   -1.9454    1.2851 C   0  0  0  0  0  0  0  0  0  0  0  0
    5.1165   -0.6539    1.6632 C   0  0  0  0  0  0  0  0  0  0  0  0
    5.8770    0.0969    2.5772 C   0  0  0  0  0  0  0  0  0  0  0  0
    7.0417   -0.4608    3.1197 C   0  0  0  0  0  0  0  0  0  0  0  0
    7.4232   -1.7568    2.7365 C   0  0  0  0  0  0  0  0  0  0  0  0
    6.6782   -2.5067    1.8321 C   0  0  0  0  0  0  0  0  0  0  0  0
    7.0733   -3.7789    1.5522 O   0  0  0  0  0  0  0  0  0  0  0  0
    7.4388   -4.0855    0.2125 C   0  0  0  0  0  0  0  0  0  0  0  0
    7.9054    0.2935    4.1157 C   0  0  0  0  0  0  0  0  0  0  0  0
    7.5438    1.7053    4.2082 N   0  0  0  0  0  0  0  0  0  0  0  0
    8.4520    2.7069    4.1694 C   0  0  0  0  0  0  0  0  0  0  0  0
   10.1489    2.2046    4.2636 S   0  0  0  0  0  0  0  0  0  0  0  0
    8.1050    4.0647    4.0763 C   0  0  0  0  0  0  0  0  0  0  0  0
    9.0479    5.1036    4.1485 C   0  0  0  0  0  0  0  0  0  0  0  0
    8.8223    6.4875    4.0585 C   0  0  0  0  0  0  0  0  0  0  0  0
    9.8394    7.5042    4.1919 C   0  0  0  0  0  0  0  0  0  0  0  0
   11.2749    7.3428    4.2723 C   0  0  0  0  0  0  0  0  0  0  0  0
   11.9519    6.3646    3.4861 C   0  0  0  0  0  0  0  0  0  0  0  0
   13.3223    6.1906    3.5669 C   0  0  0  0  0  0  0  0  0  0  0  0
   14.1098    6.9594    4.4522 C   0  0  0  0  0  0  0  0  0  0  0  0
   15.5758    6.7084    4.4827 C   0  0  0  0  0  0  0  0  0  0  0  0
   16.1539    6.0190    3.6767 O   0  0  0  0  0  0  0  0  0  0  0  0
   16.2803    7.2962    5.4876 O   0  0  0  0  0  0  0  0  0  0  0  0
   13.4532    7.9424    5.2243 C   0  0  0  0  0  0  0  0  0  0  0  0
   12.0824    8.1340    5.1387 C   0  0  0  0  0  0  0  0  0  0  0  0
    9.2153    8.7461    4.2450 N   0  0  0  0  0  0  0  0  0  0  0  0
    9.8319   10.0592    4.1998 C   0  0  0  0  0  0  0  0  0  0  0  0
    7.8469    8.5831    4.1109 C   0  0  0  0  0  0  0  0  0  0  0  0
    6.9830    9.5880    4.0836 N   0  0  0  0  0  0  0  0  0  0  0  0
    5.6994    9.2442    3.9275 C   0  0  0  0  0  0  0  0  0  0  0  0
    5.2645    7.9190    3.7973 C   0  0  0  0  0  0  0  0  0  0  0  0
    6.1997    6.8743    3.8179 C   0  0  0  0  0  0  0  0  0  0  0  0
    7.5516    7.1976    3.9789 C   0  0  0  0  0  0  0  0  0  0  0  0
    6.0980    1.9136    4.2865 C   0  0  0  0  0  0  0  0  0  0  0  0
    5.4396    1.4924    2.9740 C   0  0  0  0  0  0  0  0  0  0  0  0
    3.1963   -3.0520   -0.7643 H   0  0  0  0  0  0  0  0  0  0  0  0
    3.7492   -1.3467   -0.7350 H   0  0  0  0  0  0  0  0  0  0  0  0
    2.8386   -2.0232    0.6590 H   0  0  0  0  0  0  0  0  0  0  0  0
    4.2048   -0.2118    1.2590 H   0  0  0  0  0  0  0  0  0  0  0  0
    8.3260   -2.2201    3.1432 H   0  0  0  0  0  0  0  0  0  0  0  0
    7.7942   -5.1252    0.2171 H   0  0  0  0  0  0  0  0  0  0  0  0
    8.2585   -3.4302   -0.1340 H   0  0  0  0  0  0  0  0  0  0  0  0
    6.5855   -3.9958   -0.4769 H   0  0  0  0  0  0  0  0  0  0  0  0
    8.9612    0.2224    3.8057 H   0  0  0  0  0  0  0  0  0  0  0  0
    7.8361   -0.1751    5.1167 H   0  0  0  0  0  0  0  0  0  0  0  0
    7.0592    4.3052    3.9183 H   0  0  0  0  0  0  0  0  0  0  0  0
   10.0857    4.8191    4.3372 H   0  0  0  0  0  0  0  0  0  0  0  0
   11.3826    5.7742    2.7665 H   0  0  0  0  0  0  0  0  0  0  0  0
   13.8310    5.4600    2.9351 H   0  0  0  0  0  0  0  0  0  0  0  0
   15.6785    7.7048    6.1237 H   0  0  0  0  0  0  0  0  0  0  0  0
   14.0146    8.5901    5.9060 H   0  0  0  0  0  0  0  0  0  0  0  0
   11.6176    8.8793    5.7841 H   0  0  0  0  0  0  0  0  0  0  0  0
   10.7313   10.0353    3.5691 H   0  0  0  0  0  0  0  0  0  0  0  0
   10.1132   10.4200    5.2024 H   0  0  0  0  0  0  0  0  0  0  0  0
    9.0950   10.7580    3.7837 H   0  0  0  0  0  0  0  0  0  0  0  0
    4.9746   10.0656    3.9030 H   0  0  0  0  0  0  0  0  0  0  0  0
    4.2002    7.7084    3.6727 H   0  0  0  0  0  0  0  0  0  0  0  0
    5.8597    5.8462    3.6939 H   0  0  0  0  0  0  0  0  0  0  0  0
    5.8789    2.9528    4.5489 H   0  0  0  0  0  0  0  0  0  0  0  0
    5.7190    1.2866    5.1132 H   0  0  0  0  0  0  0  0  0  0  0  0
    5.7070    2.2166    2.1834 H   0  0  0  0  0  0  0  0  0  0  0  0
    4.3431    1.5343    3.0813 H   0  0  0  0  0  0  0  0  0  0  0  0
  1  2  1  0
  1 38  1  0
  1 39  1  0
  1 40  1  0
  2  3  1  0
  3  4  2  0
  3  8  1  0
  4  5  1  0
  4 41  1  0
  5  6  2  0
  5 37  1  0
  6  7  1  0
  6 11  1  0
  7  8  2  0
  7 42  1  0
  8  9  1  0
  9 10  1  0
 10 43  1  0
 10 44  1  0
 10 45  1  0
 11 12  1  0
 11 46  1  0
 11 47  1  0
 12 13  1  0
 12 36  1  0
 13 14  2  0
 13 15  1  0
 15 16  2  0
 15 48  1  0
 16 17  1  0
 16 49  1  0
 17 18  2  0
 17 35  1  0
 18 19  1  0
 18 28  1  0
 19 20  2  0
 19 27  1  0
 20 21  1  0
 20 50  1  0
 21 22  2  0
 21 51  1  0
 22 23  1  0
 22 26  1  0
 23 24  2  0
 23 25  1  0
 25 52  1  0
 26 27  2  0
 26 53  1  0
 27 54  1  0
 28 29  1  0
 28 30  1  0
 29 55  1  0
 29 56  1  0
 29 57  1  0
 30 31  2  0
 30 35  1  0
 31 32  1  0
 32 33  2  0
 32 58  1  0
 33 34  1  0
 33 59  1  0
 34 35  2  0
 34 60  1  0
 36 37  1  0
 36 61  1  0
 36 62  1  0
 37 63  1  0
 37 64  1  0
M  END

