
     RDKit          3D

 43 46  0  0  0  0  0  0  0  0999 V2000
    1.4873   -0.0913    0.9155 C   0  0  0  0  0  0  0  0  0  0  0  0
    2.9742   -0.0344    0.7164 C   0  0  0  0  0  0  0  0  0  0  0  0
    3.7077    1.1350    1.0286 C   0  0  0  0  0  0  0  0  0  0  0  0
    5.0447    1.1349    0.8377 N   0  0  0  0  0  0  0  0  0  0  0  0
    5.8519    2.1825    1.1302 N   0  0  0  0  0  0  0  0  0  0  0  0
    7.1049    1.7691    0.8259 C   0  0  0  0  0  0  0  0  0  0  0  0
    8.3091    2.5697    0.9642 C   0  0  0  0  0  0  0  0  0  0  0  0
    9.4267    2.1224    0.6339 O   0  0  0  0  0  0  0  0  0  0  0  0
    8.1360    3.8428    1.5145 N   0  0  0  0  0  0  0  0  0  0  0  0
    9.1829    4.8342    1.3379 C   0  0  0  0  0  0  0  0  0  0  0  0
    9.0516    5.6627    0.0858 C   0  0  0  0  0  0  0  0  0  0  0  0
    8.7054    6.9923   -0.0246 C   0  0  0  0  0  0  0  0  0  0  0  0
    8.6247    7.4505   -1.3743 C   0  0  0  0  0  0  0  0  0  0  0  0
    8.9051    6.4596   -2.2823 C   0  0  0  0  0  0  0  0  0  0  0  0
    9.2790    4.9597   -1.4975 S   0  0  0  0  0  0  0  0  0  0  0  0
    7.0805    0.4079    0.3306 C   0  0  0  0  0  0  0  0  0  0  0  0
    5.7522    0.0282    0.3414 C   0  0  0  0  0  0  0  0  0  0  0  0
    4.9239   -1.1176    0.0235 C   0  0  0  0  0  0  0  0  0  0  0  0
    5.4461   -2.2582   -0.5006 N   0  0  0  0  0  0  0  0  0  0  0  0
    6.8374   -2.4579   -0.9144 C   0  0  0  0  0  0  0  0  0  0  0  0
    6.7958   -3.7650   -1.7154 C   0  0  0  0  0  0  0  0  0  0  0  0
    5.6433   -4.5394   -1.0634 C   0  0  0  0  0  0  0  0  0  0  0  0
    4.6176   -3.4449   -0.7539 C   0  0  0  0  0  0  0  0  0  0  0  0
    3.5925   -1.1150    0.2302 N   0  0  0  0  0  0  0  0  0  0  0  0
    1.0967    0.8406    1.3483 H   0  0  0  0  0  0  0  0  0  0  0  0
    1.2172   -0.9269    1.5827 H   0  0  0  0  0  0  0  0  0  0  0  0
    0.9721   -0.2715   -0.0436 H   0  0  0  0  0  0  0  0  0  0  0  0
    3.2778    2.0531    1.4273 H   0  0  0  0  0  0  0  0  0  0  0  0
    7.1811    4.1890    1.5186 H   0  0  0  0  0  0  0  0  0  0  0  0
   10.1308    4.2767    1.3355 H   0  0  0  0  0  0  0  0  0  0  0  0
    9.1922    5.5220    2.2002 H   0  0  0  0  0  0  0  0  0  0  0  0
    8.5184    7.6246    0.8465 H   0  0  0  0  0  0  0  0  0  0  0  0
    8.3697    8.4733   -1.6583 H   0  0  0  0  0  0  0  0  0  0  0  0
    8.9155    6.5274   -3.3696 H   0  0  0  0  0  0  0  0  0  0  0  0
    7.9677   -0.1383    0.0342 H   0  0  0  0  0  0  0  0  0  0  0  0
    7.4912   -2.5464   -0.0267 H   0  0  0  0  0  0  0  0  0  0  0  0
    7.1966   -1.6014   -1.5030 H   0  0  0  0  0  0  0  0  0  0  0  0
    7.7570   -4.2978   -1.6878 H   0  0  0  0  0  0  0  0  0  0  0  0
    6.5632   -3.5504   -2.7715 H   0  0  0  0  0  0  0  0  0  0  0  0
    5.9825   -5.0156   -0.1284 H   0  0  0  0  0  0  0  0  0  0  0  0
    5.2287   -5.3284   -1.7072 H   0  0  0  0  0  0  0  0  0  0  0  0
    3.9752   -3.6539    0.1131 H   0  0  0  0  0  0  0  0  0  0  0  0
    3.9415   -3.2524   -1.6073 H   0  0  0  0  0  0  0  0  0  0  0  0
  1  2  1  0
  1 25  1  0
  1 26  1  0
  1 27  1  0
  2  3  2  0
  2 24  1  0
  3  4  1  0
  3 28  1  0
  4  5  1  0
  4 17  1  0
  5  6  2  0
  6  7  1  0
  6 16  1  0
  7  8  2  0
  7  9  1  0
  9 10  1  0
  9 29  1  0
 10 11  1  0
 10 30  1  0
 10 31  1  0
 11 12  2  0
 11 15  1  0
 12 13  1  0
 12 32  1  0
 13 14  2  0
 13 33  1  0
 14 15  1  0
 14 34  1  0
 16 17  2  0
 16 35  1  0
 17 18  1  0
 18 19  1  0
 18 24  2  0
 19 20  1  0
 19 23  1  0
 20 21  1  0
 20 36  1  0
 20 37  1  0
 21 22  1  0
 21 38  1  0
 21 39  1  0
 22 23  1  0
 22 40  1  0
 22 41  1  0
 23 42  1  0
 23 43  1  0
M  END

