
     RDKit          3D

 48 49  0  0  0  0  0  0  0  0999 V2000
    1.4357   -0.2514   -0.0558 C   0  0  0  0  0  0  0  0  0  0  0  0
    2.7765   -0.1853    0.3821 O   0  0  0  0  0  0  0  0  0  0  0  0
    3.2032    0.9295    1.2105 C   0  0  1  0  0  0  0  0  0  0  0  0
    2.5904    0.6725    2.6213 C   0  0  1  0  0  0  0  0  0  0  0  0
    2.8425   -0.6687    2.9910 O   0  0  0  0  0  0  0  0  0  0  0  0
    3.0951    1.5840    3.7502 C   0  0  0  0  0  0  0  0  0  0  0  0
    2.3118    1.4434    5.0403 C   0  0  0  0  0  0  0  0  0  0  0  0
    1.4038    2.4365    5.4408 C   0  0  0  0  0  0  0  0  0  0  0  0
    0.6795    2.2977    6.6268 C   0  0  0  0  0  0  0  0  0  0  0  0
    0.8513    1.1655    7.4273 C   0  0  0  0  0  0  0  0  0  0  0  0
    1.7498    0.1559    7.0506 C   0  0  0  0  0  0  0  0  0  0  0  0
    1.9403   -1.0814    7.8958 C   0  0  0  0  0  0  0  0  0  0  0  0
    2.4701    0.3138    5.8567 C   0  0  0  0  0  0  0  0  0  0  0  0
    4.7369    0.8247    1.2150 C   0  0  0  0  0  0  0  0  0  0  0  0
    5.3456    1.0499   -0.1731 C   0  0  0  0  0  0  0  0  0  0  0  0
    4.9458    2.3996   -0.8193 C   0  0  2  0  0  0  0  0  0  0  0  0
    5.4207    2.4239   -2.2816 C   0  0  0  0  0  0  0  0  0  0  0  0
    5.5982    3.5823   -0.0758 C   0  0  0  0  0  0  0  0  0  0  0  0
    3.4012    2.5147   -0.7850 C   0  0  0  0  0  0  0  0  0  0  0  0
    2.7851    2.2784    0.6018 C   0  0  0  0  0  0  0  0  0  0  0  0
    1.3190   -1.2226   -0.5597 H   0  0  0  0  0  0  0  0  0  0  0  0
    1.1859    0.5414   -0.7832 H   0  0  0  0  0  0  0  0  0  0  0  0
    0.7052   -0.2042    0.7726 H   0  0  0  0  0  0  0  0  0  0  0  0
    1.4962    0.8428    2.5326 H   0  0  0  0  0  0  0  0  0  0  0  0
    2.8028   -1.1769    2.1648 H   0  0  0  0  0  0  0  0  0  0  0  0
    3.0461    2.6317    3.4165 H   0  0  0  0  0  0  0  0  0  0  0  0
    4.1550    1.3471    3.9347 H   0  0  0  0  0  0  0  0  0  0  0  0
    1.2688    3.3292    4.8226 H   0  0  0  0  0  0  0  0  0  0  0  0
   -0.0207    3.0798    6.9327 H   0  0  0  0  0  0  0  0  0  0  0  0
    0.2836    1.0649    8.3570 H   0  0  0  0  0  0  0  0  0  0  0  0
    1.3928   -1.0119    8.8476 H   0  0  0  0  0  0  0  0  0  0  0  0
    3.0048   -1.2493    8.1287 H   0  0  0  0  0  0  0  0  0  0  0  0
    1.5831   -1.9827    7.3689 H   0  0  0  0  0  0  0  0  0  0  0  0
    3.1649   -0.4674    5.5399 H   0  0  0  0  0  0  0  0  0  0  0  0
    5.0183   -0.1657    1.6034 H   0  0  0  0  0  0  0  0  0  0  0  0
    5.1350    1.5634    1.9277 H   0  0  0  0  0  0  0  0  0  0  0  0
    5.0147    0.2326   -0.8338 H   0  0  0  0  0  0  0  0  0  0  0  0
    6.4456    0.9814   -0.1107 H   0  0  0  0  0  0  0  0  0  0  0  0
    6.5179    2.3338   -2.3443 H   0  0  0  0  0  0  0  0  0  0  0  0
    5.1333    3.3650   -2.7796 H   0  0  0  0  0  0  0  0  0  0  0  0
    4.9833    1.5915   -2.8569 H   0  0  0  0  0  0  0  0  0  0  0  0
    6.6973    3.5004   -0.1023 H   0  0  0  0  0  0  0  0  0  0  0  0
    5.3004    3.6422    0.9822 H   0  0  0  0  0  0  0  0  0  0  0  0
    5.3246    4.5404   -0.5481 H   0  0  0  0  0  0  0  0  0  0  0  0
    2.9872    1.7755   -1.4911 H   0  0  0  0  0  0  0  0  0  0  0  0
    3.0947    3.5066   -1.1603 H   0  0  0  0  0  0  0  0  0  0  0  0
    1.6863    2.3530    0.5471 H   0  0  0  0  0  0  0  0  0  0  0  0
    3.0997    3.0775    1.2909 H   0  0  0  0  0  0  0  0  0  0  0  0
  1  2  1  0
  1 21  1  0
  1 22  1  0
  1 23  1  0
  3  2  1  6
  3  4  1  0
  3 14  1  0
  3 20  1  0
  4  5  1  0
  4  6  1  0
  4 24  1  6
  5 25  1  0
  6  7  1  0
  6 26  1  0
  6 27  1  0
  7  8  2  0
  7 13  1  0
  8  9  1  0
  8 28  1  0
  9 10  2  0
  9 29  1  0
 10 11  1  0
 10 30  1  0
 11 12  1  0
 11 13  2  0
 12 31  1  0
 12 32  1  0
 12 33  1  0
 13 34  1  0
 14 15  1  0
 14 35  1  0
 14 36  1  0
 15 16  1  0
 15 37  1  0
 15 38  1  0
 16 17  1  6
 16 18  1  0
 16 19  1  0
 17 39  1  0
 17 40  1  0
 17 41  1  0
 18 42  1  0
 18 43  1  0
 18 44  1  0
 19 20  1  0
 19 45  1  0
 19 46  1  0
 20 47  1  0
 20 48  1  0
M  END

