
     RDKit          3D

 32 33  0  0  0  0  0  0  0  0999 V2000
    2.4337    1.3174    0.0813 C   0  0  0  0  0  0  0  0  0  0  0  0
    2.3949   -0.0982    0.0145 O   0  0  0  0  0  0  0  0  0  0  0  0
    2.9645   -0.7864   -0.9906 C   0  0  0  0  0  0  0  0  0  0  0  0
    3.6569   -0.1368   -2.0341 C   0  0  0  0  0  0  0  0  0  0  0  0
    4.2367   -0.8540   -3.0830 C   0  0  0  0  0  0  0  0  0  0  0  0
    4.0995   -2.2634   -3.0604 C   0  0  0  0  0  0  0  0  0  0  0  0
    4.6403   -3.0158   -4.0616 N   0  0  0  0  0  0  0  0  0  0  0  0
    3.4064   -2.9202   -2.0122 C   0  0  0  0  0  0  0  0  0  0  0  0
    2.8200   -2.2279   -0.9387 C   0  0  0  0  0  0  0  0  0  0  0  0
    2.1397   -3.0755    0.0651 C   0  0  0  0  0  0  0  0  0  0  0  0
    2.1063   -4.3124   -0.1052 O   0  0  0  0  0  0  0  0  0  0  0  0
    1.5696   -2.4467    1.1729 N   0  0  0  0  0  0  0  0  0  0  0  0
    0.8787   -3.0082    2.2265 C   0  0  0  0  0  0  0  0  0  0  0  0
    0.6019   -4.3963    2.3490 C   0  0  0  0  0  0  0  0  0  0  0  0
   -0.1083   -4.8918    3.4368 C   0  0  0  0  0  0  0  0  0  0  0  0
   -0.5776   -4.0465    4.4527 C   0  0  0  0  0  0  0  0  0  0  0  0
   -0.3169   -2.6750    4.3595 C   0  0  0  0  0  0  0  0  0  0  0  0
    0.3937   -2.1741    3.2747 C   0  0  0  0  0  0  0  0  0  0  0  0
    0.7024   -0.4301    3.2138 Cl  0  0  0  0  0  0  0  0  0  0  0  0
    1.8725    1.5896    0.9832 H   0  0  0  0  0  0  0  0  0  0  0  0
    1.9545    1.7688   -0.8032 H   0  0  0  0  0  0  0  0  0  0  0  0
    3.4706    1.6829    0.1662 H   0  0  0  0  0  0  0  0  0  0  0  0
    3.7416    0.9493   -2.0253 H   0  0  0  0  0  0  0  0  0  0  0  0
    4.7717   -0.3482   -3.8885 H   0  0  0  0  0  0  0  0  0  0  0  0
    5.1427   -2.5863   -4.8288 H   0  0  0  0  0  0  0  0  0  0  0  0
    4.5494   -4.0250   -4.0546 H   0  0  0  0  0  0  0  0  0  0  0  0
    3.3010   -4.0069   -2.0003 H   0  0  0  0  0  0  0  0  0  0  0  0
    1.6701   -1.4387    1.2139 H   0  0  0  0  0  0  0  0  0  0  0  0
    0.9692   -5.0481    1.5596 H   0  0  0  0  0  0  0  0  0  0  0  0
   -0.3005   -5.9669    3.4924 H   0  0  0  0  0  0  0  0  0  0  0  0
   -1.1352   -4.4418    5.3043 H   0  0  0  0  0  0  0  0  0  0  0  0
   -0.6619   -1.9821    5.1294 H   0  0  0  0  0  0  0  0  0  0  0  0
  1  2  1  0
  1 20  1  0
  1 21  1  0
  1 22  1  0
  2  3  1  0
  3  4  2  0
  3  9  1  0
  4  5  1  0
  4 23  1  0
  5  6  2  0
  5 24  1  0
  6  7  1  0
  6  8  1  0
  7 25  1  0
  7 26  1  0
  8  9  2  0
  8 27  1  0
  9 10  1  0
 10 11  2  0
 10 12  1  0
 12 13  1  0
 12 28  1  0
 13 14  2  0
 13 18  1  0
 14 15  1  0
 14 29  1  0
 15 16  2  0
 15 30  1  0
 16 17  1  0
 16 31  1  0
 17 18  2  0
 17 32  1  0
 18 19  1  0
M  END

