
     RDKit          3D

 51 52  0  0  0  0  0  0  0  0999 V2000
   10.9078    3.3537    0.8847 C   0  0  0  0  0  0  0  0  0  0  0  0
    9.8400    2.6128    1.6894 C   0  0  0  0  0  0  0  0  0  0  0  0
    8.4358    3.2261    1.5944 C   0  0  0  0  0  0  0  0  0  0  0  0
    7.8919    3.2847    0.2442 N   0  0  0  0  0  0  0  0  0  0  0  0
    7.3479    2.1958   -0.3599 C   0  0  0  0  0  0  0  0  0  0  0  0
    7.2016    1.1192    0.1940 O   0  0  0  0  0  0  0  0  0  0  0  0
    6.7939    2.4282   -1.7823 C   0  0  2  0  0  0  0  0  0  0  0  0
    5.7691    2.8087   -1.6375 H   0  0  0  0  0  0  0  0  0  0  0  0
    6.7318    1.1485   -2.6038 C   0  0  0  0  0  0  0  0  0  0  0  0
    7.4321    3.5263   -2.4711 O   0  0  0  0  0  0  0  0  0  0  0  0
    8.7383    3.4224   -2.8312 C   0  0  0  0  0  0  0  0  0  0  0  0
    9.4488    2.4946   -2.5099 O   0  0  0  0  0  0  0  0  0  0  0  0
    9.1504    4.5928   -3.6310 C   0  0  0  0  0  0  0  0  0  0  0  0
   10.4164    4.6999   -4.0841 C   0  0  0  0  0  0  0  0  0  0  0  0
   10.9217    5.7993   -4.8885 C   0  0  0  0  0  0  0  0  0  0  0  0
   12.2156    5.8992   -5.3508 C   0  0  0  0  0  0  0  0  0  0  0  0
   12.4383    7.3451   -6.2768 S   0  0  0  0  0  0  0  0  0  0  0  0
   10.7387    7.7199   -5.9738 C   0  0  0  0  0  0  0  0  0  0  0  0
   10.1080    8.8716   -6.4690 N   0  0  0  0  0  0  0  0  0  0  0  0
   10.8182    9.8221   -7.2146 C   0  0  0  0  0  0  0  0  0  0  0  0
   10.0608   11.0525   -7.6589 C   0  0  0  0  0  0  0  0  0  0  0  0
   11.9923    9.6455   -7.4745 O   0  0  0  0  0  0  0  0  0  0  0  0
    8.7289    9.0576   -6.1157 C   0  0  0  0  0  0  0  0  0  0  0  0
    7.7049    8.3750   -6.7806 C   0  0  0  0  0  0  0  0  0  0  0  0
    6.3731    8.5636   -6.4075 C   0  0  0  0  0  0  0  0  0  0  0  0
    6.0577    9.4358   -5.3597 C   0  0  0  0  0  0  0  0  0  0  0  0
    7.0696   10.1211   -4.6834 C   0  0  0  0  0  0  0  0  0  0  0  0
    8.3924    9.9185   -5.0657 C   0  0  0  0  0  0  0  0  0  0  0  0
    9.3714   10.5791   -4.4337 F   0  0  0  0  0  0  0  0  0  0  0  0
   10.1024    6.8472   -5.2566 N   0  0  0  0  0  0  0  0  0  0  0  0
   11.9000    2.8976    1.0299 H   0  0  0  0  0  0  0  0  0  0  0  0
   10.9838    4.4128    1.1885 H   0  0  0  0  0  0  0  0  0  0  0  0
   10.6871    3.3188   -0.1936 H   0  0  0  0  0  0  0  0  0  0  0  0
   10.1184    2.5887    2.7582 H   0  0  0  0  0  0  0  0  0  0  0  0
    9.7792    1.5627    1.3601 H   0  0  0  0  0  0  0  0  0  0  0  0
    8.4406    4.2543    1.9937 H   0  0  0  0  0  0  0  0  0  0  0  0
    7.7402    2.6332    2.2082 H   0  0  0  0  0  0  0  0  0  0  0  0
    8.0090    4.1273   -0.3039 H   0  0  0  0  0  0  0  0  0  0  0  0
    6.2494    1.3461   -3.5730 H   0  0  0  0  0  0  0  0  0  0  0  0
    6.1393    0.4073   -2.0509 H   0  0  0  0  0  0  0  0  0  0  0  0
    7.7337    0.7334   -2.7699 H   0  0  0  0  0  0  0  0  0  0  0  0
    8.4047    5.3579   -3.8528 H   0  0  0  0  0  0  0  0  0  0  0  0
   11.1222    3.9012   -3.8354 H   0  0  0  0  0  0  0  0  0  0  0  0
   13.0348    5.2000   -5.1890 H   0  0  0  0  0  0  0  0  0  0  0  0
    9.8200   11.6838   -6.7897 H   0  0  0  0  0  0  0  0  0  0  0  0
    9.1163   10.7993   -8.1616 H   0  0  0  0  0  0  0  0  0  0  0  0
   10.7112   11.6136   -8.3405 H   0  0  0  0  0  0  0  0  0  0  0  0
    7.9696    7.6889   -7.5874 H   0  0  0  0  0  0  0  0  0  0  0  0
    5.5806    8.0264   -6.9325 H   0  0  0  0  0  0  0  0  0  0  0  0
    5.0165    9.5850   -5.0644 H   0  0  0  0  0  0  0  0  0  0  0  0
    6.8553   10.8080   -3.8624 H   0  0  0  0  0  0  0  0  0  0  0  0
  1  2  1  0
  1 31  1  0
  1 32  1  0
  1 33  1  0
  2  3  1  0
  2 34  1  0
  2 35  1  0
  3  4  1  0
  3 36  1  0
  3 37  1  0
  4  5  1  0
  4 38  1  0
  5  6  2  0
  5  7  1  0
  7  8  1  1
  7  9  1  0
  7 10  1  0
  9 39  1  0
  9 40  1  0
  9 41  1  0
 10 11  1  0
 11 12  2  0
 11 13  1  0
 13 14  2  0
 13 42  1  0
 14 15  1  0
 14 43  1  0
 15 16  2  0
 15 30  1  0
 16 17  1  0
 16 44  1  0
 17 18  1  0
 18 19  1  0
 18 30  2  0
 19 20  1  0
 19 23  1  0
 20 21  1  0
 20 22  2  0
 21 45  1  0
 21 46  1  0
 21 47  1  0
 23 24  2  0
 23 28  1  0
 24 25  1  0
 24 48  1  0
 25 26  2  0
 25 49  1  0
 26 27  1  0
 26 50  1  0
 27 28  2  0
 27 51  1  0
 28 29  1  0
M  END

