
     RDKit          3D

 51 52  0  0  0  0  0  0  0  0999 V2000
   -1.1536    1.2353    7.6985 C   0  0  0  0  0  0  0  0  0  0  0  0
    0.0829    0.8718    8.5239 C   0  0  1  0  0  0  0  0  0  0  0  0
   -0.2564   -0.1029    9.6685 C   0  0  0  0  0  0  0  0  0  0  0  0
    1.1481    0.2318    7.6232 C   0  0  0  0  0  0  0  0  0  0  0  0
    0.8917   -0.4797    6.6867 O   0  0  0  0  0  0  0  0  0  0  0  0
    2.4622    0.5261    8.0354 N   0  0  0  0  0  0  0  0  0  0  0  0
    3.6430    0.0624    7.4937 C   0  0  0  0  0  0  0  0  0  0  0  0
    3.7645   -0.6980    6.4408 N   0  0  0  0  0  0  0  0  0  0  0  0
    5.0584   -0.9817    6.1562 N   0  0  0  0  0  0  0  0  0  0  0  0
    5.9067   -0.4562    6.9774 C   0  0  0  0  0  0  0  0  0  0  0  0
    7.7040   -0.5879    6.7919 S   0  0  1  0  0  0  0  0  0  0  0  0
    8.0989    0.4315    5.8283 O   0  0  0  0  0  0  0  0  0  0  0  0
    8.2086   -0.6134    8.1618 O   0  0  0  0  0  0  0  0  0  0  0  0
    7.9865   -2.0451    6.0878 N   0  0  0  0  0  0  0  0  0  0  0  0
    7.8435   -3.3184    6.7935 C   0  0  0  0  0  0  0  0  0  0  0  0
    6.6615   -4.1624    6.3114 C   0  0  0  0  0  0  0  0  0  0  0  0
    6.4799   -5.4302    7.1356 C   0  0  0  0  0  0  0  0  0  0  0  0
    6.2280   -5.0666    8.4735 O   0  0  0  0  0  0  0  0  0  0  0  0
    6.1493   -6.1341    9.4153 C   0  0  1  0  0  0  0  0  0  0  0  0
    6.3395   -5.5219   10.8070 C   0  0  0  0  0  0  0  0  0  0  0  0
    5.1627   -4.6218   11.2078 C   0  0  0  0  0  0  0  0  0  0  0  0
    3.8247   -5.3674   11.1093 C   0  0  0  0  0  0  0  0  0  0  0  0
    3.6258   -5.9831    9.7174 C   0  0  0  0  0  0  0  0  0  0  0  0
    4.8067   -6.8816    9.3267 C   0  0  0  0  0  0  0  0  0  0  0  0
    5.1819    0.4899    8.2581 S   0  0  0  0  0  0  0  0  0  0  0  0
   -1.9392    1.6558    8.3449 H   0  0  0  0  0  0  0  0  0  0  0  0
   -1.5500    0.3407    7.1962 H   0  0  0  0  0  0  0  0  0  0  0  0
   -0.9150    1.9758    6.9197 H   0  0  0  0  0  0  0  0  0  0  0  0
    0.5037    1.7937    8.9660 H   0  0  0  0  0  0  0  0  0  0  0  0
   -0.6643   -1.0418    9.2626 H   0  0  0  0  0  0  0  0  0  0  0  0
   -1.0106    0.3384   10.3385 H   0  0  0  0  0  0  0  0  0  0  0  0
    0.6297   -0.3529   10.2739 H   0  0  0  0  0  0  0  0  0  0  0  0
    2.5528    1.1454    8.8319 H   0  0  0  0  0  0  0  0  0  0  0  0
    7.8483   -2.0202    5.0796 H   0  0  0  0  0  0  0  0  0  0  0  0
    7.7371   -3.0948    7.8640 H   0  0  0  0  0  0  0  0  0  0  0  0
    8.7857   -3.8850    6.6866 H   0  0  0  0  0  0  0  0  0  0  0  0
    6.8091   -4.4515    5.2556 H   0  0  0  0  0  0  0  0  0  0  0  0
    5.7387   -3.5629    6.3497 H   0  0  0  0  0  0  0  0  0  0  0  0
    7.3911   -6.0648    7.0789 H   0  0  0  0  0  0  0  0  0  0  0  0
    5.6487   -6.0262    6.7114 H   0  0  0  0  0  0  0  0  0  0  0  0
    6.9763   -6.8454    9.2131 H   0  0  0  0  0  0  0  0  0  0  0  0
    7.2863   -4.9583   10.8241 H   0  0  0  0  0  0  0  0  0  0  0  0
    6.4421   -6.3479   11.5330 H   0  0  0  0  0  0  0  0  0  0  0  0
    5.1443   -3.7441   10.5397 H   0  0  0  0  0  0  0  0  0  0  0  0
    5.3158   -4.2376   12.2303 H   0  0  0  0  0  0  0  0  0  0  0  0
    2.9892   -4.6880   11.3492 H   0  0  0  0  0  0  0  0  0  0  0  0
    3.7978   -6.1710   11.8695 H   0  0  0  0  0  0  0  0  0  0  0  0
    3.5308   -5.1747    8.9722 H   0  0  0  0  0  0  0  0  0  0  0  0
    2.6854   -6.5581    9.6801 H   0  0  0  0  0  0  0  0  0  0  0  0
    4.6634   -7.2942    8.3141 H   0  0  0  0  0  0  0  0  0  0  0  0
    4.8583   -7.7524   10.0048 H   0  0  0  0  0  0  0  0  0  0  0  0
  1  2  1  0
  1 26  1  0
  1 27  1  0
  1 28  1  0
  2  3  1  0
  2  4  1  0
  2 29  1  1
  3 30  1  0
  3 31  1  0
  3 32  1  0
  4  5  2  0
  4  6  1  0
  6  7  1  0
  6 33  1  0
  7  8  2  0
  7 25  1  0
  8  9  1  0
  9 10  2  0
 10 11  1  0
 10 25  1  0
 11 12  2  0
 11 13  2  0
 11 14  1  6
 14 15  1  0
 14 34  1  0
 15 16  1  0
 15 35  1  0
 15 36  1  0
 16 17  1  0
 16 37  1  0
 16 38  1  0
 17 18  1  0
 17 39  1  0
 17 40  1  0
 18 19  1  0
 19 20  1  0
 19 24  1  0
 19 41  1  6
 20 21  1  0
 20 42  1  0
 20 43  1  0
 21 22  1  0
 21 44  1  0
 21 45  1  0
 22 23  1  0
 22 46  1  0
 22 47  1  0
 23 24  1  0
 23 48  1  0
 23 49  1  0
 24 50  1  0
 24 51  1  0
M  END

