
     RDKit          3D

 51 53  0  0  0  0  0  0  0  0999 V2000
    2.2292    1.4631   -2.3668 O   0  0  0  0  0  0  0  0  0  0  0  0
    3.0735    1.2285   -1.3724 C   0  0  0  0  0  0  0  0  0  0  0  0
    2.5606    1.5500   -0.1501 N   0  0  0  0  0  0  0  0  0  0  0  0
    1.1926    2.0216    0.0771 C   0  0  1  0  0  0  0  0  0  0  0  0
    0.8029    1.7902    1.5454 C   0  0  0  0  0  0  0  0  0  0  0  0
    1.4950    2.7724    2.4953 C   0  0  0  0  0  0  0  0  0  0  0  0
    1.2592    4.1512    2.0812 N   0  0  0  0  0  0  0  0  0  0  0  0
    1.1273    5.1008    3.0963 C   0  0  0  0  0  0  0  0  0  0  0  0
    1.1644    4.7862    4.2769 O   0  0  0  0  0  0  0  0  0  0  0  0
    0.9373    6.4036    2.6877 N   0  0  0  0  0  0  0  0  0  0  0  0
    0.7480    7.4769    3.6442 C   0  0  0  0  0  0  0  0  0  0  0  0
    1.6290    8.7064    3.3541 C   0  0  0  0  0  0  0  0  0  0  0  0
    3.1165    8.4409    3.4308 C   0  0  0  0  0  0  0  0  0  0  0  0
    3.8895    8.2768    2.2714 C   0  0  0  0  0  0  0  0  0  0  0  0
    5.2590    8.0042    2.3391 C   0  0  0  0  0  0  0  0  0  0  0  0
    5.8593    7.8927    3.5900 C   0  0  0  0  0  0  0  0  0  0  0  0
    7.1735    7.6333    3.6673 F   0  0  0  0  0  0  0  0  0  0  0  0
    5.1257    8.0496    4.7643 C   0  0  0  0  0  0  0  0  0  0  0  0
    3.7597    8.3219    4.6744 C   0  0  0  0  0  0  0  0  0  0  0  0
    1.6894    4.4393    0.7168 C   0  0  0  0  0  0  0  0  0  0  0  0
    0.9952    3.5100   -0.2826 C   0  0  0  0  0  0  0  0  0  0  0  0
    4.3746    0.7353   -1.5858 C   0  0  0  0  0  0  0  0  0  0  0  0
    5.2407    0.3817   -0.4870 C   0  0  0  0  0  0  0  0  0  0  0  0
    6.5321   -0.0505   -0.7262 C   0  0  0  0  0  0  0  0  0  0  0  0
    7.0365   -0.1690   -2.0379 C   0  0  0  0  0  0  0  0  0  0  0  0
    6.1926    0.1509   -3.1230 C   0  0  0  0  0  0  0  0  0  0  0  0
    4.8977    0.5901   -2.9204 C   0  0  0  0  0  0  0  0  0  0  0  0
    3.2468    1.6894    0.5827 H   0  0  0  0  0  0  0  0  0  0  0  0
    0.5441    1.4166   -0.5764 H   0  0  0  0  0  0  0  0  0  0  0  0
    1.0343    0.7534    1.8376 H   0  0  0  0  0  0  0  0  0  0  0  0
   -0.2873    1.9214    1.6354 H   0  0  0  0  0  0  0  0  0  0  0  0
    2.5876    2.5696    2.5424 H   0  0  0  0  0  0  0  0  0  0  0  0
    1.1259    2.6600    3.5212 H   0  0  0  0  0  0  0  0  0  0  0  0
    0.6735    6.5858    1.7290 H   0  0  0  0  0  0  0  0  0  0  0  0
    0.9797    7.0555    4.6318 H   0  0  0  0  0  0  0  0  0  0  0  0
   -0.3118    7.7944    3.6705 H   0  0  0  0  0  0  0  0  0  0  0  0
    1.3499    9.4901    4.0790 H   0  0  0  0  0  0  0  0  0  0  0  0
    1.3761    9.1099    2.3580 H   0  0  0  0  0  0  0  0  0  0  0  0
    3.4162    8.3728    1.2901 H   0  0  0  0  0  0  0  0  0  0  0  0
    5.8656    7.8808    1.4397 H   0  0  0  0  0  0  0  0  0  0  0  0
    5.6306    7.9588    5.7281 H   0  0  0  0  0  0  0  0  0  0  0  0
    3.1828    8.4456    5.5954 H   0  0  0  0  0  0  0  0  0  0  0  0
    2.7906    4.3225    0.6338 H   0  0  0  0  0  0  0  0  0  0  0  0
    1.4827    5.4829    0.4497 H   0  0  0  0  0  0  0  0  0  0  0  0
    1.3689    3.6980   -1.3012 H   0  0  0  0  0  0  0  0  0  0  0  0
   -0.0870    3.7237   -0.2818 H   0  0  0  0  0  0  0  0  0  0  0  0
    4.8758    0.4104    0.5429 H   0  0  0  0  0  0  0  0  0  0  0  0
    7.1668   -0.3179    0.1236 H   0  0  0  0  0  0  0  0  0  0  0  0
    8.0581   -0.5121   -2.2100 H   0  0  0  0  0  0  0  0  0  0  0  0
    6.5674    0.0540   -4.1459 H   0  0  0  0  0  0  0  0  0  0  0  0
    4.2725    0.8428   -3.7786 H   0  0  0  0  0  0  0  0  0  0  0  0
  1  2  2  0
  2  3  1  0
  2 22  1  0
  3  4  1  0
  3 28  1  0
  4  5  1  0
  4 21  1  0
  4 29  1  6
  5  6  1  0
  5 30  1  0
  5 31  1  0
  6  7  1  0
  6 32  1  0
  6 33  1  0
  7  8  1  0
  7 20  1  0
  8  9  2  0
  8 10  1  0
 10 11  1  0
 10 34  1  0
 11 12  1  0
 11 35  1  0
 11 36  1  0
 12 13  1  0
 12 37  1  0
 12 38  1  0
 13 14  2  0
 13 19  1  0
 14 15  1  0
 14 39  1  0
 15 16  2  0
 15 40  1  0
 16 17  1  0
 16 18  1  0
 18 19  2  0
 18 41  1  0
 19 42  1  0
 20 21  1  0
 20 43  1  0
 20 44  1  0
 21 45  1  0
 21 46  1  0
 22 23  2  0
 22 27  1  0
 23 24  1  0
 23 47  1  0
 24 25  2  0
 24 48  1  0
 25 26  1  0
 25 49  1  0
 26 27  2  0
 26 50  1  0
 27 51  1  0
M  END

