
     RDKit          3D

 43 45  0  0  0  0  0  0  0  0999 V2000
    6.7125    4.2533    6.7361 C   0  0  0  0  0  0  0  0  0  0  0  0
    7.2637    3.3006    5.6629 C   0  0  1  0  0  0  0  0  0  0  0  0
    8.4392    2.4610    6.1951 C   0  0  0  0  0  0  0  0  0  0  0  0
    6.1698    2.4069    5.1254 C   0  0  0  0  0  0  0  0  0  0  0  0
    5.4003    1.6481    5.8543 N   0  0  0  0  0  0  0  0  0  0  0  0
    4.5026    0.9202    5.1003 C   0  0  0  0  0  0  0  0  0  0  0  0
    3.5090    0.0161    5.7763 C   0  0  0  0  0  0  0  0  0  0  0  0
    4.0663   -1.1064    6.6679 C   0  0  0  0  0  0  0  0  0  0  0  0
    3.5193   -2.1985    6.7154 O   0  0  0  0  0  0  0  0  0  0  0  0
    5.1510   -0.7753    7.4162 N   0  0  0  0  0  0  0  0  0  0  0  0
    5.7653   -1.7155    8.3416 C   0  0  0  0  0  0  0  0  0  0  0  0
    5.2329   -1.6281    9.7578 C   0  0  0  0  0  0  0  0  0  0  0  0
    3.9233   -2.0330   10.0763 C   0  0  0  0  0  0  0  0  0  0  0  0
    3.4642   -1.9289   11.3837 C   0  0  0  0  0  0  0  0  0  0  0  0
    4.3513   -1.4153   12.3449 C   0  0  0  0  0  0  0  0  0  0  0  0
    3.9461   -1.2841   13.6947 N   0  0  0  0  0  0  0  0  0  0  0  0
    4.7035   -0.8171   14.7361 C   0  0  0  0  0  0  0  0  0  0  0  0
    3.9007   -0.8691   15.8561 C   0  0  0  0  0  0  0  0  0  0  0  0
    2.6642   -1.3869   15.3830 C   0  0  0  0  0  0  0  0  0  0  0  0
    2.7011   -1.6332   14.0826 N   0  0  0  0  0  0  0  0  0  0  0  0
    5.5916   -1.0311   12.0693 N   0  0  0  0  0  0  0  0  0  0  0  0
    6.0151   -1.1364   10.8075 C   0  0  0  0  0  0  0  0  0  0  0  0
    4.5992    1.1293    3.7472 C   0  0  0  0  0  0  0  0  0  0  0  0
    5.8438    2.2828    3.4105 S   0  0  0  0  0  0  0  0  0  0  0  0
    7.5117    4.9101    7.1142 H   0  0  0  0  0  0  0  0  0  0  0  0
    6.3013    3.6835    7.5833 H   0  0  0  0  0  0  0  0  0  0  0  0
    5.9079    4.8877    6.3337 H   0  0  0  0  0  0  0  0  0  0  0  0
    7.6342    3.9060    4.8181 H   0  0  0  0  0  0  0  0  0  0  0  0
    8.1150    1.8290    7.0369 H   0  0  0  0  0  0  0  0  0  0  0  0
    9.2501    3.1158    6.5517 H   0  0  0  0  0  0  0  0  0  0  0  0
    8.8489    1.8029    5.4134 H   0  0  0  0  0  0  0  0  0  0  0  0
    2.8644   -0.4743    5.0361 H   0  0  0  0  0  0  0  0  0  0  0  0
    2.8504    0.6266    6.4213 H   0  0  0  0  0  0  0  0  0  0  0  0
    5.5088    0.1762    7.3343 H   0  0  0  0  0  0  0  0  0  0  0  0
    6.8534   -1.5449    8.3438 H   0  0  0  0  0  0  0  0  0  0  0  0
    5.5821   -2.7243    7.9420 H   0  0  0  0  0  0  0  0  0  0  0  0
    3.2777   -2.4296    9.2882 H   0  0  0  0  0  0  0  0  0  0  0  0
    2.4614   -2.2308   11.6820 H   0  0  0  0  0  0  0  0  0  0  0  0
    5.7284   -0.4993   14.5712 H   0  0  0  0  0  0  0  0  0  0  0  0
    4.1636   -0.5774   16.8701 H   0  0  0  0  0  0  0  0  0  0  0  0
    1.7526   -1.5867   15.9468 H   0  0  0  0  0  0  0  0  0  0  0  0
    7.0464   -0.8126   10.6170 H   0  0  0  0  0  0  0  0  0  0  0  0
    4.0051    0.6801    2.9537 H   0  0  0  0  0  0  0  0  0  0  0  0
  1  2  1  0
  1 25  1  0
  1 26  1  0
  1 27  1  0
  2  3  1  0
  2  4  1  0
  2 28  1  6
  3 29  1  0
  3 30  1  0
  3 31  1  0
  4  5  2  0
  4 24  1  0
  5  6  1  0
  6  7  1  0
  6 23  2  0
  7  8  1  0
  7 32  1  0
  7 33  1  0
  8  9  2  0
  8 10  1  0
 10 11  1  0
 10 34  1  0
 11 12  1  0
 11 35  1  0
 11 36  1  0
 12 13  2  0
 12 22  1  0
 13 14  1  0
 13 37  1  0
 14 15  2  0
 14 38  1  0
 15 16  1  0
 15 21  1  0
 16 17  1  0
 16 20  1  0
 17 18  2  0
 17 39  1  0
 18 19  1  0
 18 40  1  0
 19 20  2  0
 19 41  1  0
 21 22  2  0
 22 42  1  0
 23 24  1  0
 23 43  1  0
M  END

