
     RDKit          3D

 47 49  0  0  0  0  0  0  0  0999 V2000
    1.4798   -1.3998   -3.3646 C   0  0  0  0  0  0  0  0  0  0  0  0
    2.9560   -1.0331   -3.2171 C   0  0  0  0  0  0  0  0  0  0  0  0
    3.3854   -0.9125   -1.7511 C   0  0  0  0  0  0  0  0  0  0  0  0
    4.8081   -0.6238   -1.5947 N   0  0  0  0  0  0  0  0  0  0  0  0
    5.6202   -1.6940   -1.6751 N   0  0  0  0  0  0  0  0  0  0  0  0
    6.9655   -1.4612   -1.5656 C   0  0  0  0  0  0  0  0  0  0  0  0
    7.6766   -2.7249   -1.6625 C   0  0  0  0  0  0  0  0  0  0  0  0
    8.8543   -2.9976   -1.6205 O   0  0  0  0  0  0  0  0  0  0  0  0
    6.7671   -3.8553   -1.8443 N   0  0  0  0  0  0  0  0  0  0  0  0
    7.2871   -5.0635   -1.9456 N   0  0  0  0  0  0  0  0  0  0  0  0
    6.4607   -6.1865   -2.1138 C   0  0  0  0  0  0  0  0  0  0  0  0
    5.2543   -6.0173   -2.1613 O   0  0  0  0  0  0  0  0  0  0  0  0
    7.1313   -7.4817   -2.2185 C   0  0  0  0  0  0  0  0  0  0  0  0
    6.4538   -8.7376   -2.3781 C   0  0  0  0  0  0  0  0  0  0  0  0
    4.9850   -8.9947   -2.4673 C   0  0  0  0  0  0  0  0  0  0  0  0
    7.3250   -9.7332   -2.4447 N   0  0  0  0  0  0  0  0  0  0  0  0
    8.5557   -9.1816   -2.3360 N   0  0  0  0  0  0  0  0  0  0  0  0
    9.7415  -10.0202   -2.3703 C   0  0  0  0  0  0  0  0  0  0  0  0
    8.4859   -7.8427   -2.1990 C   0  0  0  0  0  0  0  0  0  0  0  0
    9.9149   -6.8922   -2.0413 Cl  0  0  0  0  0  0  0  0  0  0  0  0
    7.5631   -0.1903   -1.3805 C   0  0  0  0  0  0  0  0  0  0  0  0
    8.9625    0.0801   -1.2543 C   0  0  0  0  0  0  0  0  0  0  0  0
    9.4102    1.3802   -1.0794 C   0  0  0  0  0  0  0  0  0  0  0  0
    8.5220    2.4733   -1.0201 C   0  0  0  0  0  0  0  0  0  0  0  0
    7.1507    2.2300   -1.1420 C   0  0  0  0  0  0  0  0  0  0  0  0
    6.6710    0.9309   -1.3168 C   0  0  0  0  0  0  0  0  0  0  0  0
    5.2164    0.7136   -1.4423 C   0  0  0  0  0  0  0  0  0  0  0  0
    4.3796    1.6067   -1.4215 O   0  0  0  0  0  0  0  0  0  0  0  0
    1.1900   -1.4744   -4.4246 H   0  0  0  0  0  0  0  0  0  0  0  0
    0.8291   -0.6430   -2.8955 H   0  0  0  0  0  0  0  0  0  0  0  0
    1.2544   -2.3698   -2.8895 H   0  0  0  0  0  0  0  0  0  0  0  0
    3.1593   -0.0731   -3.7204 H   0  0  0  0  0  0  0  0  0  0  0  0
    3.5893   -1.7914   -3.7090 H   0  0  0  0  0  0  0  0  0  0  0  0
    3.1886   -1.8537   -1.2128 H   0  0  0  0  0  0  0  0  0  0  0  0
    2.8345   -0.0989   -1.2617 H   0  0  0  0  0  0  0  0  0  0  0  0
    5.7545   -3.6975   -1.8825 H   0  0  0  0  0  0  0  0  0  0  0  0
    8.3135   -5.0780   -1.8867 H   0  0  0  0  0  0  0  0  0  0  0  0
    4.4637   -8.6334   -1.5680 H   0  0  0  0  0  0  0  0  0  0  0  0
    4.8133  -10.0734   -2.5818 H   0  0  0  0  0  0  0  0  0  0  0  0
    4.5399   -8.4599   -3.3199 H   0  0  0  0  0  0  0  0  0  0  0  0
    9.3952  -11.0498   -2.5126 H   0  0  0  0  0  0  0  0  0  0  0  0
   10.3007   -9.9440   -1.4258 H   0  0  0  0  0  0  0  0  0  0  0  0
   10.3992   -9.7307   -3.2032 H   0  0  0  0  0  0  0  0  0  0  0  0
    9.6762   -0.7408   -1.2964 H   0  0  0  0  0  0  0  0  0  0  0  0
   10.4859    1.5577   -0.9856 H   0  0  0  0  0  0  0  0  0  0  0  0
    8.8987    3.4884   -0.8822 H   0  0  0  0  0  0  0  0  0  0  0  0
    6.4202    3.0406   -1.1039 H   0  0  0  0  0  0  0  0  0  0  0  0
  1  2  1  0
  1 29  1  0
  1 30  1  0
  1 31  1  0
  2  3  1  0
  2 32  1  0
  2 33  1  0
  3  4  1  0
  3 34  1  0
  3 35  1  0
  4  5  1  0
  4 27  1  0
  5  6  2  0
  6  7  1  0
  6 21  1  0
  7  8  2  0
  7  9  1  0
  9 10  1  0
  9 36  1  0
 10 11  1  0
 10 37  1  0
 11 12  2  0
 11 13  1  0
 13 14  1  0
 13 19  2  0
 14 15  1  0
 14 16  2  0
 15 38  1  0
 15 39  1  0
 15 40  1  0
 16 17  1  0
 17 18  1  0
 17 19  1  0
 18 41  1  0
 18 42  1  0
 18 43  1  0
 19 20  1  0
 21 22  1  0
 21 26  2  0
 22 23  2  0
 22 44  1  0
 23 24  1  0
 23 45  1  0
 24 25  2  0
 24 46  1  0
 25 26  1  0
 25 47  1  0
 26 27  1  0
 27 28  2  0
M  END

