
     RDKit          3D

 70 73  0  0  0  0  0  0  0  0999 V2000
    1.3495   -0.8129   -1.7719 C   0  0  0  0  0  0  0  0  0  0  0  0
    2.8452   -0.8738   -1.6598 C   0  0  0  0  0  0  0  0  0  0  0  0
    3.5641   -0.2964   -0.6905 C   0  0  0  0  0  0  0  0  0  0  0  0
    5.0765   -0.3259   -0.5108 C   0  0  2  0  0  0  0  0  0  0  0  0
    5.7989   -0.9154   -1.7300 C   0  0  0  0  0  0  0  0  0  0  0  0
    5.4381   -1.1670    0.7418 C   0  0  0  0  0  0  0  0  0  0  0  0
    4.6722   -0.7089    1.8420 O   0  0  0  0  0  0  0  0  0  0  0  0
    5.1611   -1.0493    3.1842 C   0  0  1  0  0  0  0  0  0  0  0  0
    6.6069   -0.8885    3.4367 C   0  0  0  0  0  0  0  0  0  0  0  0
    7.1691    0.4402    3.6186 C   0  0  0  0  0  0  0  0  0  0  0  0
    8.5255    0.6235    3.7868 C   0  0  0  0  0  0  0  0  0  0  0  0
    9.4399   -0.4687    3.7546 C   0  0  0  0  0  0  0  0  0  0  0  0
    8.9132   -1.7626    3.4607 C   0  0  0  0  0  0  0  0  0  0  0  0
    7.5612   -1.9711    3.2896 C   0  0  0  0  0  0  0  0  0  0  0  0
    4.2227   -0.2800    4.1279 C   0  0  0  0  0  0  0  0  0  0  0  0
    2.9455    0.1820    3.6939 C   0  0  0  0  0  0  0  0  0  0  0  0
    2.1130    0.8713    4.5607 C   0  0  0  0  0  0  0  0  0  0  0  0
    2.5125    1.1007    5.8910 C   0  0  0  0  0  0  0  0  0  0  0  0
    3.7634    0.6437    6.3423 C   0  0  0  0  0  0  0  0  0  0  0  0
    4.6041   -0.0448    5.4828 C   0  0  0  0  0  0  0  0  0  0  0  0
    4.5474   -2.4085    3.5913 C   0  0  0  0  0  0  0  0  0  0  0  0
    5.0099   -3.1084    4.7457 C   0  0  0  0  0  0  0  0  0  0  0  0
    4.4411   -4.3191    5.1104 C   0  0  0  0  0  0  0  0  0  0  0  0
    3.3876   -4.8602    4.3540 C   0  0  0  0  0  0  0  0  0  0  0  0
    2.9078   -4.1785    3.2198 C   0  0  0  0  0  0  0  0  0  0  0  0
    3.4644   -2.9637    2.8515 C   0  0  0  0  0  0  0  0  0  0  0  0
    5.4744    1.0789   -0.2884 N   0  0  0  0  0  0  0  0  0  0  0  0
    6.7640    1.5066   -0.1319 C   0  0  0  0  0  0  0  0  0  0  0  0
    7.7691    0.9043   -0.4484 O   0  0  0  0  0  0  0  0  0  0  0  0
    6.7616    2.7485    0.4189 O   0  0  0  0  0  0  0  0  0  0  0  0
    8.0454    3.3486    0.6764 C   0  0  0  0  0  0  0  0  0  0  0  0
    8.5198    4.2085   -0.4728 C   0  0  0  0  0  0  0  0  0  0  0  0
    8.3161    5.5963   -0.4560 C   0  0  0  0  0  0  0  0  0  0  0  0
    8.7450    6.3966   -1.5191 C   0  0  0  0  0  0  0  0  0  0  0  0
    9.3841    5.8141   -2.6171 C   0  0  0  0  0  0  0  0  0  0  0  0
    9.5918    4.4307   -2.6448 C   0  0  0  0  0  0  0  0  0  0  0  0
    9.1646    3.6327   -1.5809 C   0  0  0  0  0  0  0  0  0  0  0  0
    0.9038   -1.8235   -1.7652 H   0  0  0  0  0  0  0  0  0  0  0  0
    1.0417   -0.3475   -2.7249 H   0  0  0  0  0  0  0  0  0  0  0  0
    0.8981   -0.2347   -0.9504 H   0  0  0  0  0  0  0  0  0  0  0  0
    3.3576   -1.4350   -2.4490 H   0  0  0  0  0  0  0  0  0  0  0  0
    3.0296    0.2624    0.0884 H   0  0  0  0  0  0  0  0  0  0  0  0
    6.8831   -0.8970   -1.5721 H   0  0  0  0  0  0  0  0  0  0  0  0
    5.5706   -0.3251   -2.6295 H   0  0  0  0  0  0  0  0  0  0  0  0
    5.4791   -1.9542   -1.9005 H   0  0  0  0  0  0  0  0  0  0  0  0
    6.5136   -1.0651    0.9521 H   0  0  0  0  0  0  0  0  0  0  0  0
    5.2252   -2.2346    0.5325 H   0  0  0  0  0  0  0  0  0  0  0  0
    6.5107    1.3141    3.6115 H   0  0  0  0  0  0  0  0  0  0  0  0
    8.9076    1.6388    3.9396 H   0  0  0  0  0  0  0  0  0  0  0  0
   10.5114   -0.3112    3.8782 H   0  0  0  0  0  0  0  0  0  0  0  0
    9.5978   -2.6099    3.3505 H   0  0  0  0  0  0  0  0  0  0  0  0
    7.2164   -2.9746    3.0221 H   0  0  0  0  0  0  0  0  0  0  0  0
    2.6572    0.0105    2.6593 H   0  0  0  0  0  0  0  0  0  0  0  0
    1.1462    1.2414    4.2122 H   0  0  0  0  0  0  0  0  0  0  0  0
    1.8500    1.6393    6.5730 H   0  0  0  0  0  0  0  0  0  0  0  0
    4.0788    0.8437    7.3685 H   0  0  0  0  0  0  0  0  0  0  0  0
    5.5916   -0.3721    5.8033 H   0  0  0  0  0  0  0  0  0  0  0  0
    5.8478   -2.6953    5.3033 H   0  0  0  0  0  0  0  0  0  0  0  0
    4.8204   -4.8582    5.9810 H   0  0  0  0  0  0  0  0  0  0  0  0
    2.9411   -5.8141    4.6450 H   0  0  0  0  0  0  0  0  0  0  0  0
    2.0979   -4.6105    2.6278 H   0  0  0  0  0  0  0  0  0  0  0  0
    3.1109   -2.4276    1.9717 H   0  0  0  0  0  0  0  0  0  0  0  0
    4.7934    1.6593    0.1872 H   0  0  0  0  0  0  0  0  0  0  0  0
    8.7655    2.5507    0.9026 H   0  0  0  0  0  0  0  0  0  0  0  0
    7.8930    3.9606    1.5762 H   0  0  0  0  0  0  0  0  0  0  0  0
    7.8182    6.0562    0.4031 H   0  0  0  0  0  0  0  0  0  0  0  0
    8.5815    7.4772   -1.4889 H   0  0  0  0  0  0  0  0  0  0  0  0
    9.7225    6.4372   -3.4493 H   0  0  0  0  0  0  0  0  0  0  0  0
   10.0938    3.9705   -3.5002 H   0  0  0  0  0  0  0  0  0  0  0  0
    9.3153    2.5511   -1.5997 H   0  0  0  0  0  0  0  0  0  0  0  0
  1  2  1  0
  1 38  1  0
  1 39  1  0
  1 40  1  0
  2  3  2  0
  2 41  1  0
  4  3  1  6
  3 42  1  0
  4  5  1  0
  4  6  1  0
  4 27  1  0
  5 43  1  0
  5 44  1  0
  5 45  1  0
  6  7  1  0
  6 46  1  0
  6 47  1  0
  8  7  1  6
  8  9  1  0
  8 15  1  0
  8 21  1  0
  9 10  2  0
  9 14  1  0
 10 11  1  0
 10 48  1  0
 11 12  2  0
 11 49  1  0
 12 13  1  0
 12 50  1  0
 13 14  2  0
 13 51  1  0
 14 52  1  0
 15 16  2  0
 15 20  1  0
 16 17  1  0
 16 53  1  0
 17 18  2  0
 17 54  1  0
 18 19  1  0
 18 55  1  0
 19 20  2  0
 19 56  1  0
 20 57  1  0
 21 22  2  0
 21 26  1  0
 22 23  1  0
 22 58  1  0
 23 24  2  0
 23 59  1  0
 24 25  1  0
 24 60  1  0
 25 26  2  0
 25 61  1  0
 26 62  1  0
 27 28  1  0
 27 63  1  0
 28 29  2  0
 28 30  1  0
 30 31  1  0
 31 32  1  0
 31 64  1  0
 31 65  1  0
 32 33  2  0
 32 37  1  0
 33 34  1  0
 33 66  1  0
 34 35  2  0
 34 67  1  0
 35 36  1  0
 35 68  1  0
 36 37  2  0
 36 69  1  0
 37 70  1  0
M  END

