
     RDKit          3D

 40 42  0  0  0  0  0  0  0  0999 V2000
    0.9007    0.2473   -0.7363 O   0  0  0  0  0  0  0  0  0  0  0  0
    2.1001    0.1417   -0.4722 C   0  0  0  0  0  0  0  0  0  0  0  0
    2.8636   -1.1561   -0.3808 C   0  0  0  0  0  0  0  0  0  0  0  0
    2.9637   -1.7128    1.0506 C   0  0  1  0  0  0  0  0  0  0  0  0
    1.6225   -2.0553    1.7211 C   0  0  0  0  0  0  0  0  0  0  0  0
    2.0175   -2.9103    2.9414 C   0  0  0  0  0  0  0  0  0  0  0  0
    3.3504   -3.6148    2.5461 C   0  0  0  0  0  0  0  0  0  0  0  0
    3.7291   -3.0442    1.1590 C   0  0  0  0  0  0  0  0  0  0  0  0
    2.8383    1.3224   -0.1851 N   0  0  0  0  0  0  0  0  0  0  0  0
    2.2970    2.6013   -0.2090 C   0  0  0  0  0  0  0  0  0  0  0  0
    3.3262    3.4662    0.1154 C   0  0  0  0  0  0  0  0  0  0  0  0
    4.4552    2.6380    0.3255 C   0  0  0  0  0  0  0  0  0  0  0  0
    5.7899    3.0168    0.6883 C   0  0  0  0  0  0  0  0  0  0  0  0
    6.8278    2.1348    0.8728 C   0  0  0  0  0  0  0  0  0  0  0  0
    8.1553    2.5459    1.2398 C   0  0  0  0  0  0  0  0  0  0  0  0
    9.3025    1.7836    1.4690 C   0  0  0  0  0  0  0  0  0  0  0  0
   10.4405    2.6715    1.8223 C   0  0  0  0  0  0  0  0  0  0  0  0
    9.7909    4.0645    1.7778 C   0  0  0  0  0  0  0  0  0  0  0  0
    8.4131    3.8525    1.4075 O   0  0  0  0  0  0  0  0  0  0  0  0
    4.1424    1.3230    0.1398 N   0  0  0  0  0  0  0  0  0  0  0  0
    3.8805   -1.0274   -0.7848 H   0  0  0  0  0  0  0  0  0  0  0  0
    2.3218   -1.8773   -1.0147 H   0  0  0  0  0  0  0  0  0  0  0  0
    3.4865   -0.9603    1.6696 H   0  0  0  0  0  0  0  0  0  0  0  0
    1.0120   -2.6471    1.0157 H   0  0  0  0  0  0  0  0  0  0  0  0
    1.0272   -1.1677    1.9832 H   0  0  0  0  0  0  0  0  0  0  0  0
    1.2287   -3.6260    3.2218 H   0  0  0  0  0  0  0  0  0  0  0  0
    2.1778   -2.2631    3.8193 H   0  0  0  0  0  0  0  0  0  0  0  0
    3.2491   -4.7114    2.5189 H   0  0  0  0  0  0  0  0  0  0  0  0
    4.1368   -3.3949    3.2862 H   0  0  0  0  0  0  0  0  0  0  0  0
    3.3788   -3.7209    0.3589 H   0  0  0  0  0  0  0  0  0  0  0  0
    4.8164   -2.9256    1.0226 H   0  0  0  0  0  0  0  0  0  0  0  0
    1.2500    2.7390   -0.4565 H   0  0  0  0  0  0  0  0  0  0  0  0
    3.2761    4.5505    0.1922 H   0  0  0  0  0  0  0  0  0  0  0  0
    5.9772    4.0866    0.8235 H   0  0  0  0  0  0  0  0  0  0  0  0
    6.6533    1.0666    0.7399 H   0  0  0  0  0  0  0  0  0  0  0  0
    9.3413    0.6983    1.3938 H   0  0  0  0  0  0  0  0  0  0  0  0
   11.2881    2.5807    1.1131 H   0  0  0  0  0  0  0  0  0  0  0  0
   10.8705    2.4396    2.8175 H   0  0  0  0  0  0  0  0  0  0  0  0
   10.2300    4.7371    1.0253 H   0  0  0  0  0  0  0  0  0  0  0  0
    9.7905    4.5851    2.7477 H   0  0  0  0  0  0  0  0  0  0  0  0
  1  2  2  0
  2  3  1  0
  2  9  1  0
  3  4  1  0
  3 21  1  0
  3 22  1  0
  4  5  1  0
  4  8  1  0
  4 23  1  1
  5  6  1  0
  5 24  1  0
  5 25  1  0
  6  7  1  0
  6 26  1  0
  6 27  1  0
  7  8  1  0
  7 28  1  0
  7 29  1  0
  8 30  1  0
  8 31  1  0
  9 10  1  0
  9 20  1  0
 10 11  2  0
 10 32  1  0
 11 12  1  0
 11 33  1  0
 12 13  1  0
 12 20  2  0
 13 14  2  0
 13 34  1  0
 14 15  1  0
 14 35  1  0
 15 16  2  0
 15 19  1  0
 16 17  1  0
 16 36  1  0
 17 18  1  0
 17 37  1  0
 17 38  1  0
 18 19  1  0
 18 39  1  0
 18 40  1  0
M  END

