
     RDKit          3D

 44 47  0  0  0  0  0  0  0  0999 V2000
   -0.1146    0.0228    1.3538 C   0  0  0  0  0  0  0  0  0  0  0  0
    0.5734   -1.1911    1.0214 N   0  0  0  0  0  0  0  0  0  0  0  0
    2.0250   -1.1702    0.8571 C   0  0  0  0  0  0  0  0  0  0  0  0
    2.4663   -1.9089   -0.4070 C   0  0  0  0  0  0  0  0  0  0  0  0
    1.8238   -3.2705   -0.4711 C   0  0  0  0  0  0  0  0  0  0  0  0
    2.2844   -4.2327   -1.2573 N   0  0  0  0  0  0  0  0  0  0  0  0
    1.5428   -5.3574   -1.1526 C   0  0  0  0  0  0  0  0  0  0  0  0
    1.5045   -6.3221   -2.1740 N   0  0  0  0  0  0  0  0  0  0  0  0
    1.0728   -6.1023   -3.4601 C   0  0  0  0  0  0  0  0  0  0  0  0
    0.6141   -5.0523   -3.8652 O   0  0  0  0  0  0  0  0  0  0  0  0
    1.2735   -7.2992   -4.4171 C   0  0  0  0  0  0  0  0  0  0  0  0
    1.0855   -8.6721   -3.8432 C   0  0  0  0  0  0  0  0  0  0  0  0
    2.0436   -9.6487   -3.6797 C   0  0  0  0  0  0  0  0  0  0  0  0
    1.4925  -10.7978   -3.1368 N   0  0  0  0  0  0  0  0  0  0  0  0
    2.1976  -12.0169   -2.8201 C   0  0  0  0  0  0  0  0  0  0  0  0
    0.1443  -10.5768   -2.9366 C   0  0  0  0  0  0  0  0  0  0  0  0
   -0.8430  -11.4256   -2.4141 C   0  0  0  0  0  0  0  0  0  0  0  0
   -2.1416  -10.9277   -2.3287 C   0  0  0  0  0  0  0  0  0  0  0  0
   -2.4531   -9.6165   -2.7496 C   0  0  0  0  0  0  0  0  0  0  0  0
   -1.4713   -8.7751   -3.2658 C   0  0  0  0  0  0  0  0  0  0  0  0
   -0.1506   -9.2507   -3.3681 C   0  0  0  0  0  0  0  0  0  0  0  0
    0.0262   -5.1072   -0.1198 S   0  0  0  0  0  0  0  0  0  0  0  0
    0.6748   -3.5183    0.2919 C   0  0  0  0  0  0  0  0  0  0  0  0
   -0.1877   -2.4367    0.8560 C   0  0  0  0  0  0  0  0  0  0  0  0
    0.4120    0.5435    2.1697 H   0  0  0  0  0  0  0  0  0  0  0  0
   -1.1529   -0.1837    1.6372 H   0  0  0  0  0  0  0  0  0  0  0  0
   -0.1053    0.6953    0.4760 H   0  0  0  0  0  0  0  0  0  0  0  0
    2.4309   -1.6737    1.7534 H   0  0  0  0  0  0  0  0  0  0  0  0
    2.3529   -0.1207    0.8787 H   0  0  0  0  0  0  0  0  0  0  0  0
    3.5637   -1.9849   -0.3862 H   0  0  0  0  0  0  0  0  0  0  0  0
    2.2140   -1.3050   -1.2989 H   0  0  0  0  0  0  0  0  0  0  0  0
    1.7879   -7.2731   -1.9569 H   0  0  0  0  0  0  0  0  0  0  0  0
    2.2926   -7.2050   -4.8303 H   0  0  0  0  0  0  0  0  0  0  0  0
    0.5809   -7.1161   -5.2531 H   0  0  0  0  0  0  0  0  0  0  0  0
    3.1051   -9.6157   -3.9244 H   0  0  0  0  0  0  0  0  0  0  0  0
    3.2542  -11.9095   -3.1008 H   0  0  0  0  0  0  0  0  0  0  0  0
    1.7800  -12.8770   -3.3711 H   0  0  0  0  0  0  0  0  0  0  0  0
    2.1482  -12.2435   -1.7410 H   0  0  0  0  0  0  0  0  0  0  0  0
   -0.6086  -12.4404   -2.0842 H   0  0  0  0  0  0  0  0  0  0  0  0
   -2.9337  -11.5642   -1.9256 H   0  0  0  0  0  0  0  0  0  0  0  0
   -3.4820   -9.2582   -2.6635 H   0  0  0  0  0  0  0  0  0  0  0  0
   -1.7184   -7.7581   -3.5809 H   0  0  0  0  0  0  0  0  0  0  0  0
   -0.6023   -2.6610    1.8616 H   0  0  0  0  0  0  0  0  0  0  0  0
   -1.0757   -2.1659    0.2381 H   0  0  0  0  0  0  0  0  0  0  0  0
  1  2  1  0
  1 25  1  0
  1 26  1  0
  1 27  1  0
  2  3  1  0
  2 24  1  0
  3  4  1  0
  3 28  1  0
  3 29  1  0
  4  5  1  0
  4 30  1  0
  4 31  1  0
  5  6  1  0
  5 23  2  0
  6  7  2  0
  7  8  1  0
  7 22  1  0
  8  9  1  0
  8 32  1  0
  9 10  2  0
  9 11  1  0
 11 12  1  0
 11 33  1  0
 11 34  1  0
 12 13  2  0
 12 21  1  0
 13 14  1  0
 13 35  1  0
 14 15  1  0
 14 16  1  0
 15 36  1  0
 15 37  1  0
 15 38  1  0
 16 17  1  0
 16 21  2  0
 17 18  2  0
 17 39  1  0
 18 19  1  0
 18 40  1  0
 19 20  2  0
 19 41  1  0
 20 21  1  0
 20 42  1  0
 22 23  1  0
 23 24  1  0
 24 43  1  0
 24 44  1  0
M  END

