
     RDKit          3D

115128  0  0  0  0  0  0  0  0999 V2000
    5.8592   -0.9033   -5.7505 O   0  0  0  0  0  0  0  0  0  0  0  0
    4.8135   -1.4984   -4.9088 S   0  0  1  0  0  0  0  0  0  0  0  0
    3.8179   -2.3921   -5.5077 O   0  0  0  0  0  0  0  0  0  0  0  0
    5.5602   -2.2221   -3.4506 C   0  0  0  0  0  0  0  0  0  0  0  0
    5.2453   -1.5162   -2.3365 C   0  0  0  0  0  0  0  0  0  0  0  0
    4.3622   -0.3693   -2.5366 C   0  0  0  0  0  0  0  0  0  0  0  0
    3.8546    0.5595   -1.6222 C   0  0  0  0  0  0  0  0  0  0  0  0
    3.0151    1.5811   -2.0777 C   0  0  0  0  0  0  0  0  0  0  0  0
    2.6580    1.7188   -3.4350 C   0  0  0  0  0  0  0  0  0  0  0  0
    1.7671    2.8120   -3.8905 C   0  0  0  0  0  0  0  0  0  0  0  0
    1.7612    4.0701   -3.2562 C   0  0  0  0  0  0  0  0  0  0  0  0
    0.9223    5.0974   -3.6768 C   0  0  0  0  0  0  0  0  0  0  0  0
    0.0497    4.9155   -4.7683 C   0  0  0  0  0  0  0  0  0  0  0  0
   -0.7989    5.9566   -5.2028 N   0  0  0  0  0  0  0  0  0  0  0  0
   -0.3627    7.3103   -5.1526 C   0  0  0  0  0  0  0  0  0  0  0  0
    0.9241    7.6668   -5.5945 C   0  0  0  0  0  0  0  0  0  0  0  0
    1.3454    8.9965   -5.5395 C   0  0  0  0  0  0  0  0  0  0  0  0
    0.4890    9.9942   -5.0625 C   0  0  0  0  0  0  0  0  0  0  0  0
   -0.7952    9.6453   -4.6325 C   0  0  0  0  0  0  0  0  0  0  0  0
   -1.2185    8.3155   -4.6682 C   0  0  0  0  0  0  0  0  0  0  0  0
   -2.0989    5.6654   -5.7033 C   0  0  0  0  0  0  0  0  0  0  0  0
   -2.9412    4.7623   -5.0302 C   0  0  0  0  0  0  0  0  0  0  0  0
   -4.2143    4.4807   -5.5285 C   0  0  0  0  0  0  0  0  0  0  0  0
   -4.6764    5.1050   -6.6917 C   0  0  0  0  0  0  0  0  0  0  0  0
   -3.8458    6.0116   -7.3580 C   0  0  0  0  0  0  0  0  0  0  0  0
   -2.5649    6.2863   -6.8756 C   0  0  0  0  0  0  0  0  0  0  0  0
    0.0519    3.6627   -5.4131 C   0  0  0  0  0  0  0  0  0  0  0  0
    0.8885    2.6391   -4.9782 C   0  0  0  0  0  0  0  0  0  0  0  0
    3.1826    0.7797   -4.3578 C   0  0  0  0  0  0  0  0  0  0  0  0
    4.0085   -0.2234   -3.8942 C   0  0  0  0  0  0  0  0  0  0  0  0
    5.9762   -2.0926   -1.1294 C   0  0  1  0  0  0  0  0  0  0  0  0
    6.8466   -1.0478   -0.4405 C   0  0  0  0  0  0  0  0  0  0  0  0
    6.4825   -0.9240    0.8597 C   0  0  0  0  0  0  0  0  0  0  0  0
    5.3803   -1.8056    1.2048 C   0  0  0  0  0  0  0  0  0  0  0  0
    4.6777   -2.0197    2.3929 C   0  0  0  0  0  0  0  0  0  0  0  0
    3.6430   -2.9630    2.3896 C   0  0  0  0  0  0  0  0  0  0  0  0
    3.3222   -3.6734    1.2262 C   0  0  0  0  0  0  0  0  0  0  0  0
    4.0283   -3.4570    0.0314 C   0  0  0  0  0  0  0  0  0  0  0  0
    5.0542   -2.5213    0.0250 C   0  0  0  0  0  0  0  0  0  0  0  0
    7.4077    0.3774    1.6709 S   0  0  1  0  0  0  0  0  0  0  0  0
    6.5136    1.5033    1.9688 O   0  0  0  0  0  0  0  0  0  0  0  0
    8.2822   -0.1548    2.7198 O   0  0  0  0  0  0  0  0  0  0  0  0
    8.3469    0.6937    0.1468 C   0  0  0  0  0  0  0  0  0  0  0  0
    9.3408    1.6371   -0.0129 C   0  0  0  0  0  0  0  0  0  0  0  0
    9.9561    1.7787   -1.2818 C   0  0  0  0  0  0  0  0  0  0  0  0
   11.0268    2.7804   -1.4975 C   0  0  0  0  0  0  0  0  0  0  0  0
   11.9202    3.1347   -0.4673 C   0  0  0  0  0  0  0  0  0  0  0  0
   12.9256    4.0770   -0.6627 C   0  0  0  0  0  0  0  0  0  0  0  0
   13.0906    4.7072   -1.9120 C   0  0  0  0  0  0  0  0  0  0  0  0
   14.1116    5.6605   -2.1178 N   0  0  0  0  0  0  0  0  0  0  0  0
   15.3787    5.5049   -1.4893 C   0  0  0  0  0  0  0  0  0  0  0  0
   16.0248    4.2556   -1.4783 C   0  0  0  0  0  0  0  0  0  0  0  0
   17.2660    4.1089   -0.8568 C   0  0  0  0  0  0  0  0  0  0  0  0
   17.8923    5.2041   -0.2530 C   0  0  0  0  0  0  0  0  0  0  0  0
   17.2582    6.4505   -0.2716 C   0  0  0  0  0  0  0  0  0  0  0  0
   16.0091    6.6022   -0.8762 C   0  0  0  0  0  0  0  0  0  0  0  0
   13.8850    6.7874   -2.9564 C   0  0  0  0  0  0  0  0  0  0  0  0
   12.6917    7.5256   -2.8588 C   0  0  0  0  0  0  0  0  0  0  0  0
   12.4743    8.6274   -3.6878 C   0  0  0  0  0  0  0  0  0  0  0  0
   13.4457    9.0238   -4.6127 C   0  0  0  0  0  0  0  0  0  0  0  0
   14.6383    8.2992   -4.7048 C   0  0  0  0  0  0  0  0  0  0  0  0
   14.8567    7.1858   -3.8916 C   0  0  0  0  0  0  0  0  0  0  0  0
   12.2039    4.3578   -2.9498 C   0  0  0  0  0  0  0  0  0  0  0  0
   11.1962    3.4213   -2.7409 C   0  0  0  0  0  0  0  0  0  0  0  0
    9.5130    0.9425   -2.3274 C   0  0  0  0  0  0  0  0  0  0  0  0
    8.5035   -0.0091   -2.1512 C   0  0  0  0  0  0  0  0  0  0  0  0
    7.9058   -0.1494   -0.8945 C   0  0  0  0  0  0  0  0  0  0  0  0
    6.7629   -3.2446   -1.7785 C   0  0  0  0  0  0  0  0  0  0  0  0
    7.6301   -4.1580   -1.1941 C   0  0  0  0  0  0  0  0  0  0  0  0
    8.2335   -5.1297   -2.0093 C   0  0  0  0  0  0  0  0  0  0  0  0
    7.9687   -5.1807   -3.3835 C   0  0  0  0  0  0  0  0  0  0  0  0
    7.0941   -4.2648   -3.9808 C   0  0  0  0  0  0  0  0  0  0  0  0
    6.4937   -3.2993   -3.1696 C   0  0  0  0  0  0  0  0  0  0  0  0
    4.1073    0.4948   -0.5621 H   0  0  0  0  0  0  0  0  0  0  0  0
    2.6070    2.2821   -1.3473 H   0  0  0  0  0  0  0  0  0  0  0  0
    2.4384    4.2594   -2.4204 H   0  0  0  0  0  0  0  0  0  0  0  0
    0.9449    6.0575   -3.1592 H   0  0  0  0  0  0  0  0  0  0  0  0
    1.5921    6.8951   -5.9821 H   0  0  0  0  0  0  0  0  0  0  0  0
    2.3489    9.2556   -5.8869 H   0  0  0  0  0  0  0  0  0  0  0  0
    0.8194   11.0350   -5.0273 H   0  0  0  0  0  0  0  0  0  0  0  0
   -1.4733   10.4139   -4.2526 H   0  0  0  0  0  0  0  0  0  0  0  0
   -2.2177    8.0469   -4.3201 H   0  0  0  0  0  0  0  0  0  0  0  0
   -2.5920    4.2831   -4.1134 H   0  0  0  0  0  0  0  0  0  0  0  0
   -4.8561    3.7761   -4.9930 H   0  0  0  0  0  0  0  0  0  0  0  0
   -5.6760    4.8871   -7.0752 H   0  0  0  0  0  0  0  0  0  0  0  0
   -4.1919    6.5029   -8.2711 H   0  0  0  0  0  0  0  0  0  0  0  0
   -1.9156    6.9858   -7.4055 H   0  0  0  0  0  0  0  0  0  0  0  0
   -0.6131    3.4917   -6.2610 H   0  0  0  0  0  0  0  0  0  0  0  0
    0.8440    1.6764   -5.4926 H   0  0  0  0  0  0  0  0  0  0  0  0
    2.9621    0.8622   -5.4237 H   0  0  0  0  0  0  0  0  0  0  0  0
    4.9333   -1.4633    3.2970 H   0  0  0  0  0  0  0  0  0  0  0  0
    3.0794   -3.1473    3.3074 H   0  0  0  0  0  0  0  0  0  0  0  0
    2.5112   -4.4054    1.2460 H   0  0  0  0  0  0  0  0  0  0  0  0
    3.7717   -4.0148   -0.8726 H   0  0  0  0  0  0  0  0  0  0  0  0
    9.6262    2.2821    0.8202 H   0  0  0  0  0  0  0  0  0  0  0  0
   11.8403    2.6543    0.5105 H   0  0  0  0  0  0  0  0  0  0  0  0
   13.5972    4.3273    0.1599 H   0  0  0  0  0  0  0  0  0  0  0  0
   15.5480    3.4001   -1.9608 H   0  0  0  0  0  0  0  0  0  0  0  0
   17.7538    3.1306   -0.8575 H   0  0  0  0  0  0  0  0  0  0  0  0
   18.8667    5.0874    0.2271 H   0  0  0  0  0  0  0  0  0  0  0  0
   17.7337    7.3140    0.2008 H   0  0  0  0  0  0  0  0  0  0  0  0
   15.5133    7.5748   -0.8771 H   0  0  0  0  0  0  0  0  0  0  0  0
   11.9358    7.2307   -2.1285 H   0  0  0  0  0  0  0  0  0  0  0  0
   11.5410    9.1896   -3.5983 H   0  0  0  0  0  0  0  0  0  0  0  0
   13.2752    9.8908   -5.2552 H   0  0  0  0  0  0  0  0  0  0  0  0
   15.4044    8.5945   -5.4266 H   0  0  0  0  0  0  0  0  0  0  0  0
   15.7841    6.6162   -3.9766 H   0  0  0  0  0  0  0  0  0  0  0  0
   12.3052    4.8317   -3.9273 H   0  0  0  0  0  0  0  0  0  0  0  0
   10.5158    3.1951   -3.5648 H   0  0  0  0  0  0  0  0  0  0  0  0
    9.9862    1.0215   -3.3079 H   0  0  0  0  0  0  0  0  0  0  0  0
    8.1898   -0.6314   -2.9914 H   0  0  0  0  0  0  0  0  0  0  0  0
    7.8423   -4.1244   -0.1226 H   0  0  0  0  0  0  0  0  0  0  0  0
    8.9194   -5.8543   -1.5637 H   0  0  0  0  0  0  0  0  0  0  0  0
    8.4501   -5.9451   -3.9981 H   0  0  0  0  0  0  0  0  0  0  0  0
    6.8831   -4.2996   -5.0516 H   0  0  0  0  0  0  0  0  0  0  0  0
  1  2  2  0
  2  3  2  0
  2  4  1  1
  2 30  1  0
  4  5  2  0
  4 73  1  0
  5  6  1  0
 31  5  1  6
  6  7  2  0
  6 30  1  0
  7  8  1  0
  7 74  1  0
  8  9  2  0
  8 75  1  0
  9 10  1  0
  9 29  1  0
 10 11  2  0
 10 28  1  0
 11 12  1  0
 11 76  1  0
 12 13  2  0
 12 77  1  0
 13 14  1  0
 13 27  1  0
 14 15  1  0
 14 21  1  0
 15 16  2  0
 15 20  1  0
 16 17  1  0
 16 78  1  0
 17 18  2  0
 17 79  1  0
 18 19  1  0
 18 80  1  0
 19 20  2  0
 19 81  1  0
 20 82  1  0
 21 22  2  0
 21 26  1  0
 22 23  1  0
 22 83  1  0
 23 24  2  0
 23 84  1  0
 24 25  1  0
 24 85  1  0
 25 26  2  0
 25 86  1  0
 26 87  1  0
 27 28  2  0
 27 88  1  0
 28 89  1  0
 29 30  2  0
 29 90  1  0
 31 32  1  0
 31 39  1  0
 31 68  1  0
 32 33  2  0
 32 67  1  0
 33 34  1  0
 40 33  1  6
 34 35  2  0
 34 39  1  0
 35 36  1  0
 35 91  1  0
 36 37  2  0
 36 92  1  0
 37 38  1  0
 37 93  1  0
 38 39  2  0
 38 94  1  0
 40 41  2  0
 40 42  2  0
 40 43  1  0
 43 44  1  0
 43 67  2  0
 44 45  2  0
 44 95  1  0
 45 46  1  0
 45 65  1  0
 46 47  2  0
 46 64  1  0
 47 48  1  0
 47 96  1  0
 48 49  2  0
 48 97  1  0
 49 50  1  0
 49 63  1  0
 50 51  1  0
 50 57  1  0
 51 52  2  0
 51 56  1  0
 52 53  1  0
 52 98  1  0
 53 54  2  0
 53 99  1  0
 54 55  1  0
 54100  1  0
 55 56  2  0
 55101  1  0
 56102  1  0
 57 58  2  0
 57 62  1  0
 58 59  1  0
 58103  1  0
 59 60  2  0
 59104  1  0
 60 61  1  0
 60105  1  0
 61 62  2  0
 61106  1  0
 62107  1  0
 63 64  2  0
 63108  1  0
 64109  1  0
 65 66  2  0
 65110  1  0
 66 67  1  0
 66111  1  0
 68 69  2  0
 68 73  1  0
 69 70  1  0
 69112  1  0
 70 71  2  0
 70113  1  0
 71 72  1  0
 71114  1  0
 72 73  2  0
 72115  1  0
M  END

