
     RDKit          3D

 81 89  0  0  0  0  0  0  0  0999 V2000
    2.5601   -1.5618    0.8137 C   0  0  0  0  0  0  0  0  0  0  0  0
    2.1479   -0.4977   -0.0121 O   0  0  0  0  0  0  0  0  0  0  0  0
    2.7347   -0.3334   -1.2256 C   0  0  0  0  0  0  0  0  0  0  0  0
    2.2665    0.7397   -2.0036 C   0  0  0  0  0  0  0  0  0  0  0  0
    2.8057    0.9855   -3.2605 C   0  0  0  0  0  0  0  0  0  0  0  0
    3.8316    0.1781   -3.7967 C   0  0  0  0  0  0  0  0  0  0  0  0
    4.4013    0.4410   -5.1447 C   0  0  0  0  0  0  0  0  0  0  0  0
    4.5627    1.7676   -5.6159 C   0  0  0  0  0  0  0  0  0  0  0  0
    5.0929    2.0585   -6.8715 C   0  0  0  0  0  0  0  0  0  0  0  0
    5.4853    0.9898   -7.6860 C   0  0  0  0  0  0  0  0  0  0  0  0
    5.3242   -0.3513   -7.2499 C   0  0  0  0  0  0  0  0  0  0  0  0
    4.7857   -0.6153   -5.9855 C   0  0  0  0  0  0  0  0  0  0  0  0
    5.7771   -1.2019   -8.3354 C   0  0  0  0  0  0  0  0  0  0  0  0
    5.8726   -2.5894   -8.4915 C   0  0  0  0  0  0  0  0  0  0  0  0
    6.3813   -3.1347   -9.6805 C   0  0  0  0  0  0  0  0  0  0  0  0
    6.4900   -4.6061   -9.8639 C   0  0  0  0  0  0  0  0  0  0  0  0
    6.2398   -5.2123  -11.1135 C   0  0  0  0  0  0  0  0  0  0  0  0
    6.3370   -6.5875  -11.2886 C   0  0  0  0  0  0  0  0  0  0  0  0
    6.6912   -7.4190  -10.2120 C   0  0  0  0  0  0  0  0  0  0  0  0
    6.7610   -8.7491  -10.4766 O   0  0  0  0  0  0  0  0  0  0  0  0
    7.1018   -9.6408   -9.4406 C   0  0  0  0  0  0  0  0  0  0  0  0
    6.9458   -6.8393   -8.9604 C   0  0  0  0  0  0  0  0  0  0  0  0
    6.8446   -5.4534   -8.8019 C   0  0  0  0  0  0  0  0  0  0  0  0
    6.7976   -2.2468  -10.7035 C   0  0  0  0  0  0  0  0  0  0  0  0
    6.7115   -0.8619  -10.5751 C   0  0  0  0  0  0  0  0  0  0  0  0
    6.1873   -0.3407   -9.3863 C   0  0  0  0  0  0  0  0  0  0  0  0
    6.0110    0.9901   -8.9849 N   0  0  0  0  0  0  0  0  0  0  0  0
    6.3126    2.1351   -9.7596 C   0  0  0  0  0  0  0  0  0  0  0  0
    5.7953    2.2698  -11.0605 C   0  0  0  0  0  0  0  0  0  0  0  0
    6.0977    3.3951  -11.8202 C   0  0  0  0  0  0  0  0  0  0  0  0
    6.9321    4.4083  -11.3148 C   0  0  0  0  0  0  0  0  0  0  0  0
    7.1568    5.6233  -12.1721 C   0  0  0  0  0  0  0  0  0  0  0  0
    6.3091    5.9462  -12.9891 O   0  0  0  0  0  0  0  0  0  0  0  0
    8.4092    6.4398  -12.0293 C   0  0  0  0  0  0  0  0  0  0  0  0
    9.6412    5.9014  -11.5925 C   0  0  0  0  0  0  0  0  0  0  0  0
   10.7916    6.6849  -11.5428 C   0  0  0  0  0  0  0  0  0  0  0  0
   10.7089    8.0297  -11.9224 C   0  0  0  0  0  0  0  0  0  0  0  0
   12.0255    9.1933  -11.9201 S   0  0  0  0  0  0  0  0  0  0  0  0
   10.9569   10.4597  -12.5296 C   0  0  0  0  0  0  0  0  0  0  0  0
   11.3210   11.7827  -12.8045 C   0  0  0  0  0  0  0  0  0  0  0  0
   10.3441   12.6551  -13.2837 C   0  0  0  0  0  0  0  0  0  0  0  0
    9.0240   12.2155  -13.4862 C   0  0  0  0  0  0  0  0  0  0  0  0
    8.6664   10.8979  -13.2108 C   0  0  0  0  0  0  0  0  0  0  0  0
    9.6325    9.9995  -12.7266 C   0  0  0  0  0  0  0  0  0  0  0  0
    9.4872    8.5928  -12.3753 C   0  0  0  0  0  0  0  0  0  0  0  0
    8.3504    7.7798  -12.4361 C   0  0  0  0  0  0  0  0  0  0  0  0
    7.4294    4.2762  -10.0073 C   0  0  0  0  0  0  0  0  0  0  0  0
    7.1264    3.1527   -9.2373 C   0  0  0  0  0  0  0  0  0  0  0  0
    4.2874   -0.8865   -3.0028 C   0  0  0  0  0  0  0  0  0  0  0  0
    3.7544   -1.1496   -1.7367 C   0  0  0  0  0  0  0  0  0  0  0  0
    1.9522   -1.5045    1.7269 H   0  0  0  0  0  0  0  0  0  0  0  0
    3.6272   -1.4807    1.0904 H   0  0  0  0  0  0  0  0  0  0  0  0
    2.3931   -2.5440    0.3348 H   0  0  0  0  0  0  0  0  0  0  0  0
    1.4652    1.3618   -1.5994 H   0  0  0  0  0  0  0  0  0  0  0  0
    2.4033    1.8101   -3.8536 H   0  0  0  0  0  0  0  0  0  0  0  0
    4.2809    2.5982   -4.9651 H   0  0  0  0  0  0  0  0  0  0  0  0
    5.1960    3.0938   -7.1989 H   0  0  0  0  0  0  0  0  0  0  0  0
    4.6357   -1.6488   -5.6656 H   0  0  0  0  0  0  0  0  0  0  0  0
    5.5297   -3.2498   -7.6918 H   0  0  0  0  0  0  0  0  0  0  0  0
    5.9378   -4.5929  -11.9613 H   0  0  0  0  0  0  0  0  0  0  0  0
    6.1319   -7.0513  -12.2557 H   0  0  0  0  0  0  0  0  0  0  0  0
    7.0893  -10.6488   -9.8771 H   0  0  0  0  0  0  0  0  0  0  0  0
    6.3756   -9.6034   -8.6082 H   0  0  0  0  0  0  0  0  0  0  0  0
    8.1114   -9.4397   -9.0379 H   0  0  0  0  0  0  0  0  0  0  0  0
    7.2346   -7.4512   -8.1055 H   0  0  0  0  0  0  0  0  0  0  0  0
    7.0743   -5.0226   -7.8243 H   0  0  0  0  0  0  0  0  0  0  0  0
    7.2283   -2.6596  -11.6184 H   0  0  0  0  0  0  0  0  0  0  0  0
    7.0607   -0.2118  -11.3784 H   0  0  0  0  0  0  0  0  0  0  0  0
    5.1378    1.4955  -11.4597 H   0  0  0  0  0  0  0  0  0  0  0  0
    5.6766    3.5197  -12.8196 H   0  0  0  0  0  0  0  0  0  0  0  0
    9.7079    4.8476  -11.3179 H   0  0  0  0  0  0  0  0  0  0  0  0
   11.7407    6.2526  -11.2184 H   0  0  0  0  0  0  0  0  0  0  0  0
   12.3462   12.1256  -12.6481 H   0  0  0  0  0  0  0  0  0  0  0  0
   10.6106   13.6918  -13.5040 H   0  0  0  0  0  0  0  0  0  0  0  0
    8.2730   12.9137  -13.8630 H   0  0  0  0  0  0  0  0  0  0  0  0
    7.6390   10.5614  -13.3701 H   0  0  0  0  0  0  0  0  0  0  0  0
    7.3982    8.1672  -12.8041 H   0  0  0  0  0  0  0  0  0  0  0  0
    8.0503    5.0625   -9.5745 H   0  0  0  0  0  0  0  0  0  0  0  0
    7.5313    3.0542   -8.2286 H   0  0  0  0  0  0  0  0  0  0  0  0
    5.1001   -1.5193   -3.3678 H   0  0  0  0  0  0  0  0  0  0  0  0
    4.1506   -1.9839   -1.1572 H   0  0  0  0  0  0  0  0  0  0  0  0
  1  2  1  0
  1 51  1  0
  1 52  1  0
  1 53  1  0
  2  3  1  0
  3  4  2  0
  3 50  1  0
  4  5  1  0
  4 54  1  0
  5  6  2  0
  5 55  1  0
  6  7  1  0
  6 49  1  0
  7  8  2  0
  7 12  1  0
  8  9  1  0
  8 56  1  0
  9 10  2  0
  9 57  1  0
 10 11  1  0
 10 27  1  0
 11 12  2  0
 11 13  1  0
 12 58  1  0
 13 14  2  0
 13 26  1  0
 14 15  1  0
 14 59  1  0
 15 16  1  0
 15 24  2  0
 16 17  2  0
 16 23  1  0
 17 18  1  0
 17 60  1  0
 18 19  2  0
 18 61  1  0
 19 20  1  0
 19 22  1  0
 20 21  1  0
 21 62  1  0
 21 63  1  0
 21 64  1  0
 22 23  2  0
 22 65  1  0
 23 66  1  0
 24 25  1  0
 24 67  1  0
 25 26  2  0
 25 68  1  0
 26 27  1  0
 27 28  1  0
 28 29  2  0
 28 48  1  0
 29 30  1  0
 29 69  1  0
 30 31  2  0
 30 70  1  0
 31 32  1  0
 31 47  1  0
 32 33  2  0
 32 34  1  0
 34 35  2  0
 34 46  1  0
 35 36  1  0
 35 71  1  0
 36 37  2  0
 36 72  1  0
 37 38  1  0
 37 45  1  0
 38 39  1  0
 39 40  1  0
 39 44  2  0
 40 41  2  0
 40 73  1  0
 41 42  1  0
 41 74  1  0
 42 43  2  0
 42 75  1  0
 43 44  1  0
 43 76  1  0
 44 45  1  0
 45 46  2  0
 46 77  1  0
 47 48  2  0
 47 78  1  0
 48 79  1  0
 49 50  2  0
 49 80  1  0
 50 81  1  0
M  END

