
     RDKit          3D

 38 39  0  0  0  0  0  0  0  0999 V2000
    0.8207    2.9427   -0.2205 C   0  0  0  0  0  0  0  0  0  0  0  0
    2.1861    2.5383   -0.2940 O   0  0  0  0  0  0  0  0  0  0  0  0
    2.9382    3.1484   -1.2359 C   0  0  0  0  0  0  0  0  0  0  0  0
    2.4927    3.9782   -1.9926 O   0  0  0  0  0  0  0  0  0  0  0  0
    4.3742    2.6768   -1.1914 C   0  0  0  0  0  0  0  0  0  0  0  0
    5.0924    2.7865   -2.5481 C   0  0  0  0  0  0  0  0  0  0  0  0
    6.5722    2.5045   -2.4554 C   0  0  0  0  0  0  0  0  0  0  0  0
    7.0948    1.2810   -2.8897 C   0  0  0  0  0  0  0  0  0  0  0  0
    8.4751    0.9415   -2.7874 C   0  0  0  0  0  0  0  0  0  0  0  0
    9.3319    1.9176   -2.2144 C   0  0  0  0  0  0  0  0  0  0  0  0
   10.7204    1.9489   -1.9668 C   0  0  0  0  0  0  0  0  0  0  0  0
   11.8087    0.9705   -2.1652 C   0  0  0  0  0  0  0  0  0  0  0  0
   12.3244    0.3508   -0.8519 C   0  0  0  0  0  0  0  0  0  0  0  0
   13.5387   -0.5455   -1.0691 C   0  0  0  0  0  0  0  0  0  0  0  0
   14.1381   -0.6328   -2.1042 O   0  0  0  0  0  0  0  0  0  0  0  0
   13.9335   -1.2517    0.0155 O   0  0  0  0  0  0  0  0  0  0  0  0
   11.0770    3.1591   -1.3825 O   0  0  0  0  0  0  0  0  0  0  0  0
    9.9251    3.8757   -1.2843 C   0  0  0  0  0  0  0  0  0  0  0  0
   10.0370    5.1038   -0.7437 N   0  0  0  0  0  0  0  0  0  0  0  0
    8.8126    3.1685   -1.7691 C   0  0  0  0  0  0  0  0  0  0  0  0
    7.4249    3.4919   -1.8760 C   0  0  0  0  0  0  0  0  0  0  0  0
    0.3698    2.3580    0.5913 H   0  0  0  0  0  0  0  0  0  0  0  0
    0.2990    2.7416   -1.1689 H   0  0  0  0  0  0  0  0  0  0  0  0
    0.7380    4.0194   -0.0053 H   0  0  0  0  0  0  0  0  0  0  0  0
    4.4088    1.6502   -0.7967 H   0  0  0  0  0  0  0  0  0  0  0  0
    4.8970    3.3032   -0.4453 H   0  0  0  0  0  0  0  0  0  0  0  0
    4.9205    3.8042   -2.9382 H   0  0  0  0  0  0  0  0  0  0  0  0
    4.6191    2.0952   -3.2637 H   0  0  0  0  0  0  0  0  0  0  0  0
    6.4080    0.5507   -3.3276 H   0  0  0  0  0  0  0  0  0  0  0  0
    8.8538   -0.0152   -3.1468 H   0  0  0  0  0  0  0  0  0  0  0  0
   12.6650    1.4474   -2.6738 H   0  0  0  0  0  0  0  0  0  0  0  0
   11.4514    0.1742   -2.8335 H   0  0  0  0  0  0  0  0  0  0  0  0
   11.5236   -0.2256   -0.3565 H   0  0  0  0  0  0  0  0  0  0  0  0
   12.6143    1.1486   -0.1446 H   0  0  0  0  0  0  0  0  0  0  0  0
   13.3446   -1.0865    0.7657 H   0  0  0  0  0  0  0  0  0  0  0  0
   10.9565    5.5053   -0.6025 H   0  0  0  0  0  0  0  0  0  0  0  0
    9.2409    5.7277   -0.7736 H   0  0  0  0  0  0  0  0  0  0  0  0
    7.0317    4.4612   -1.5634 H   0  0  0  0  0  0  0  0  0  0  0  0
  1  2  1  0
  1 22  1  0
  1 23  1  0
  1 24  1  0
  2  3  1  0
  3  4  2  0
  3  5  1  0
  5  6  1  0
  5 25  1  0
  5 26  1  0
  6  7  1  0
  6 27  1  0
  6 28  1  0
  7  8  1  0
  7 21  2  0
  8  9  2  0
  8 29  1  0
  9 10  1  0
  9 30  1  0
 10 11  2  0
 10 20  1  0
 11 12  1  0
 11 17  1  0
 12 13  1  0
 12 31  1  0
 12 32  1  0
 13 14  1  0
 13 33  1  0
 13 34  1  0
 14 15  2  0
 14 16  1  0
 16 35  1  0
 17 18  1  0
 18 19  1  0
 18 20  2  0
 19 36  1  0
 19 37  1  0
 20 21  1  0
 21 38  1  0
M  END

