
     RDKit          3D

 45 47  0  0  0  0  0  0  0  0999 V2000
    1.4347   -0.0455    0.9249 C   0  0  0  0  0  0  0  0  0  0  0  0
    2.8949    0.1009    0.4448 C   0  0  1  0  0  0  0  0  0  0  0  0
    3.7533    0.6661    1.5836 C   0  0  0  0  0  0  0  0  0  0  0  0
    3.4676   -1.2663    0.0145 C   0  0  0  0  0  0  0  0  0  0  0  0
    2.8893   -1.7477   -1.2392 N   0  0  0  0  0  0  0  0  0  0  0  0
    3.1830   -3.1349   -1.5249 C   0  0  0  0  0  0  0  0  0  0  0  0
    2.1233   -4.1205   -1.0047 C   0  0  1  0  0  0  0  0  0  0  0  0
    2.6396   -5.3792   -1.1936 F   0  0  0  0  0  0  0  0  0  0  0  0
    1.9835   -3.9615    0.3520 F   0  0  0  0  0  0  0  0  0  0  0  0
    0.7647   -4.0313   -1.6679 C   0  0  0  0  0  0  0  0  0  0  0  0
    0.5023   -4.7744   -2.8273 C   0  0  0  0  0  0  0  0  0  0  0  0
   -0.7372   -4.6694   -3.4634 C   0  0  0  0  0  0  0  0  0  0  0  0
   -1.7226   -3.8234   -2.9454 C   0  0  0  0  0  0  0  0  0  0  0  0
   -1.4651   -3.0863   -1.7857 C   0  0  0  0  0  0  0  0  0  0  0  0
   -0.2258   -3.1888   -1.1479 C   0  0  0  0  0  0  0  0  0  0  0  0
    3.0363   -0.8069   -2.3625 C   0  0  2  0  0  0  0  0  0  0  0  0
    4.4658   -0.6060   -2.8653 C   0  0  1  0  0  0  0  0  0  0  0  0
    5.0913   -1.5237   -3.8878 C   0  0  0  0  0  0  0  0  0  0  0  0
    4.7016   -0.1194   -4.2728 C   0  0  0  0  0  0  0  0  0  0  0  0
    2.4044    0.5268   -1.9363 C   0  0  0  0  0  0  0  0  0  0  0  0
    3.0330    1.0008   -0.7116 N   0  0  0  0  0  0  0  0  0  0  0  0
    1.3734   -0.6840    1.8207 H   0  0  0  0  0  0  0  0  0  0  0  0
    0.8006   -0.4975    0.1500 H   0  0  0  0  0  0  0  0  0  0  0  0
    1.0145    0.9407    1.1846 H   0  0  0  0  0  0  0  0  0  0  0  0
    3.7492   -0.0057    2.4566 H   0  0  0  0  0  0  0  0  0  0  0  0
    3.3649    1.6440    1.9147 H   0  0  0  0  0  0  0  0  0  0  0  0
    4.7920    0.8094    1.2502 H   0  0  0  0  0  0  0  0  0  0  0  0
    3.2570   -2.0061    0.7985 H   0  0  0  0  0  0  0  0  0  0  0  0
    4.5733   -1.1763   -0.0580 H   0  0  0  0  0  0  0  0  0  0  0  0
    4.1512   -3.4705   -1.1013 H   0  0  0  0  0  0  0  0  0  0  0  0
    3.2456   -3.2965   -2.6094 H   0  0  0  0  0  0  0  0  0  0  0  0
    1.2667   -5.4467   -3.2224 H   0  0  0  0  0  0  0  0  0  0  0  0
   -0.9360   -5.2567   -4.3635 H   0  0  0  0  0  0  0  0  0  0  0  0
   -2.6930   -3.7434   -3.4423 H   0  0  0  0  0  0  0  0  0  0  0  0
   -2.2351   -2.4306   -1.3712 H   0  0  0  0  0  0  0  0  0  0  0  0
   -0.0257   -2.6269   -0.2356 H   0  0  0  0  0  0  0  0  0  0  0  0
    2.4327   -1.2049   -3.1974 H   0  0  0  0  0  0  0  0  0  0  0  0
    5.1416   -0.1894   -2.1131 H   0  0  0  0  0  0  0  0  0  0  0  0
    4.4898   -2.3406   -4.2984 H   0  0  0  0  0  0  0  0  0  0  0  0
    6.1536   -1.7660   -3.7889 H   0  0  0  0  0  0  0  0  0  0  0  0
    3.8302    0.0020   -4.9254 H   0  0  0  0  0  0  0  0  0  0  0  0
    5.4900    0.6186   -4.4450 H   0  0  0  0  0  0  0  0  0  0  0  0
    1.3074    0.3783   -1.8499 H   0  0  0  0  0  0  0  0  0  0  0  0
    2.5710    1.2741   -2.7279 H   0  0  0  0  0  0  0  0  0  0  0  0
    2.7090    1.9368   -0.4738 H   0  0  0  0  0  0  0  0  0  0  0  0
  2  1  1  1
  1 22  1  0
  1 23  1  0
  1 24  1  0
  2  3  1  0
  2  4  1  0
  2 21  1  0
  3 25  1  0
  3 26  1  0
  3 27  1  0
  4  5  1  0
  4 28  1  0
  4 29  1  0
  5  6  1  0
  5 16  1  0
  6  7  1  0
  6 30  1  0
  6 31  1  0
  7  8  1  1
  7  9  1  0
  7 10  1  0
 10 11  2  0
 10 15  1  0
 11 12  1  0
 11 32  1  0
 12 13  2  0
 12 33  1  0
 13 14  1  0
 13 34  1  0
 14 15  2  0
 14 35  1  0
 15 36  1  0
 16 17  1  0
 16 20  1  0
 16 37  1  6
 17 18  1  0
 17 19  1  0
 17 38  1  1
 18 19  1  0
 18 39  1  0
 18 40  1  0
 19 41  1  0
 19 42  1  0
 20 21  1  0
 20 43  1  0
 20 44  1  0
 21 45  1  0
M  END

