
     RDKit          3D

 41 41  0  0  0  0  0  0  0  0999 V2000
    1.7169    1.1464    0.7548 C   0  0  0  0  0  0  0  0  0  0  0  0
    2.8059    0.2082    0.2486 C   0  0  1  0  0  0  0  0  0  0  0  0
    2.2464   -1.1451   -0.1975 C   0  0  0  0  0  0  0  0  0  0  0  0
    3.4646    0.8842   -0.8160 O   0  0  0  0  0  0  0  0  0  0  0  0
    4.7547    0.4284   -1.1407 C   0  0  0  0  0  0  0  0  0  0  0  0
    5.3408    1.3462   -2.2054 C   0  0  0  0  0  0  0  0  0  0  0  0
    6.7450    0.9189   -2.6428 C   0  0  0  0  0  0  0  0  0  0  0  0
    7.3208    1.7859   -3.6552 N   0  0  0  0  0  0  0  0  0  0  0  0
    8.3489    2.6501   -3.3973 C   0  0  0  0  0  0  0  0  0  0  0  0
    8.9117    2.7097   -2.3161 O   0  0  0  0  0  0  0  0  0  0  0  0
    8.7335    3.5608   -4.5641 C   0  0  0  0  0  0  0  0  0  0  0  0
   10.2179    3.9546   -4.5259 C   0  0  0  0  0  0  0  0  0  0  0  0
   10.5844    4.9835   -5.5720 C   0  0  0  0  0  0  0  0  0  0  0  0
   10.4595    6.3571   -5.3072 C   0  0  0  0  0  0  0  0  0  0  0  0
   10.7662    7.3046   -6.2868 C   0  0  0  0  0  0  0  0  0  0  0  0
   11.2049    6.9051   -7.5519 C   0  0  0  0  0  0  0  0  0  0  0  0
   11.3313    5.5390   -7.8150 C   0  0  0  0  0  0  0  0  0  0  0  0
   11.8862    5.0115   -9.3910 Cl  0  0  0  0  0  0  0  0  0  0  0  0
   11.0271    4.5835   -6.8421 C   0  0  0  0  0  0  0  0  0  0  0  0
    1.1783    0.7024    1.6063 H   0  0  0  0  0  0  0  0  0  0  0  0
    0.9905    1.3538   -0.0474 H   0  0  0  0  0  0  0  0  0  0  0  0
    2.1542    2.1041    1.0743 H   0  0  0  0  0  0  0  0  0  0  0  0
    3.5376    0.0369    1.0668 H   0  0  0  0  0  0  0  0  0  0  0  0
    1.5238   -1.0060   -1.0180 H   0  0  0  0  0  0  0  0  0  0  0  0
    1.7321   -1.6482    0.6368 H   0  0  0  0  0  0  0  0  0  0  0  0
    3.0404   -1.8210   -0.5512 H   0  0  0  0  0  0  0  0  0  0  0  0
    4.7351   -0.6163   -1.5161 H   0  0  0  0  0  0  0  0  0  0  0  0
    5.4053    0.4268   -0.2398 H   0  0  0  0  0  0  0  0  0  0  0  0
    5.3715    2.3757   -1.8128 H   0  0  0  0  0  0  0  0  0  0  0  0
    4.6553    1.3563   -3.0713 H   0  0  0  0  0  0  0  0  0  0  0  0
    6.7256   -0.1201   -3.0193 H   0  0  0  0  0  0  0  0  0  0  0  0
    7.4388    0.9465   -1.7898 H   0  0  0  0  0  0  0  0  0  0  0  0
    6.8821    1.8177   -4.5678 H   0  0  0  0  0  0  0  0  0  0  0  0
    8.1101    4.4700   -4.4873 H   0  0  0  0  0  0  0  0  0  0  0  0
    8.4765    3.0925   -5.5292 H   0  0  0  0  0  0  0  0  0  0  0  0
   10.8339    3.0502   -4.6578 H   0  0  0  0  0  0  0  0  0  0  0  0
   10.4384    4.3337   -3.5171 H   0  0  0  0  0  0  0  0  0  0  0  0
   10.1257    6.6860   -4.3191 H   0  0  0  0  0  0  0  0  0  0  0  0
   10.6693    8.3704   -6.0642 H   0  0  0  0  0  0  0  0  0  0  0  0
   11.4514    7.6355   -8.3240 H   0  0  0  0  0  0  0  0  0  0  0  0
   11.1439    3.5236   -7.0787 H   0  0  0  0  0  0  0  0  0  0  0  0
  1  2  1  0
  1 20  1  0
  1 21  1  0
  1 22  1  0
  2  3  1  0
  2  4  1  0
  2 23  1  1
  3 24  1  0
  3 25  1  0
  3 26  1  0
  4  5  1  0
  5  6  1  0
  5 27  1  0
  5 28  1  0
  6  7  1  0
  6 29  1  0
  6 30  1  0
  7  8  1  0
  7 31  1  0
  7 32  1  0
  8  9  1  0
  8 33  1  0
  9 10  2  0
  9 11  1  0
 11 12  1  0
 11 34  1  0
 11 35  1  0
 12 13  1  0
 12 36  1  0
 12 37  1  0
 13 14  2  0
 13 19  1  0
 14 15  1  0
 14 38  1  0
 15 16  2  0
 15 39  1  0
 16 17  1  0
 16 40  1  0
 17 18  1  0
 17 19  2  0
 19 41  1  0
M  END

