
     RDKit          3D

 76 81  0  0  0  0  0  0  0  0999 V2000
   -0.1112    0.0780   -0.2089 C   0  0  0  0  0  0  0  0  0  0  0  0
   -0.8065   -0.7338   -1.3195 C   0  0  0  0  0  0  0  0  0  0  0  0
   -0.0902   -0.6860   -2.6470 C   0  0  0  0  0  0  0  0  0  0  0  0
   -0.5026    0.2201   -3.6399 C   0  0  0  0  0  0  0  0  0  0  0  0
    0.1663    0.3145   -4.8490 C   0  0  0  0  0  0  0  0  0  0  0  0
    1.3054   -0.5111   -5.1335 C   0  0  0  0  0  0  0  0  0  0  0  0
    2.0047   -0.4225   -6.3553 C   0  0  0  0  0  0  0  0  0  0  0  0
    3.1118   -1.2196   -6.6249 C   0  0  0  0  0  0  0  0  0  0  0  0
    3.5540   -2.1603   -5.6759 C   0  0  0  0  0  0  0  0  0  0  0  0
    4.6744   -2.9981   -5.8881 N   0  0  0  0  0  0  0  0  0  0  0  0
    5.0518   -3.7256   -4.7822 N   0  0  0  0  0  0  0  0  0  0  0  0
    6.0383   -4.5031   -5.1976 C   0  0  0  0  0  0  0  0  0  0  0  0
    6.7256   -5.4093   -4.2216 C   0  0  1  0  0  0  0  0  0  0  0  0
    7.4317   -4.7257   -3.3000 F   0  0  0  0  0  0  0  0  0  0  0  0
    5.8527   -6.1788   -3.5431 F   0  0  0  0  0  0  0  0  0  0  0  0
    7.5841   -6.2314   -4.8502 F   0  0  0  0  0  0  0  0  0  0  0  0
    6.3308   -4.3395   -6.5562 C   0  0  0  0  0  0  0  0  0  0  0  0
    5.4444   -3.3551   -7.0302 C   0  0  0  0  0  0  0  0  0  0  0  0
    5.3927   -2.8293   -8.3765 C   0  0  0  0  0  0  0  0  0  0  0  0
    4.9174   -1.7330   -8.7462 O   0  0  0  0  0  0  0  0  0  0  0  0
    6.0924   -3.5881   -9.3507 N   0  0  0  0  0  0  0  0  0  0  0  0
    6.0885   -4.9521   -9.6248 C   0  0  0  0  0  0  0  0  0  0  0  0
    7.1496   -5.5185  -10.3587 C   0  0  0  0  0  0  0  0  0  0  0  0
    7.1937   -6.8776  -10.6869 C   0  0  0  0  0  0  0  0  0  0  0  0
    8.3891   -7.4490  -11.4561 C   0  0  1  0  0  0  0  0  0  0  0  0
    8.6931   -6.6582  -12.6415 N   0  0  0  0  0  0  0  0  0  0  0  0
    7.6662   -6.6454  -13.6747 C   0  0  0  0  0  0  0  0  0  0  0  0
    8.1086   -5.8217  -14.8624 C   0  0  1  0  0  0  0  0  0  0  0  0
    8.9656   -6.4385  -15.9444 C   0  0  0  0  0  0  0  0  0  0  0  0
    7.5287   -6.0762  -16.2279 C   0  0  0  0  0  0  0  0  0  0  0  0
    9.6184   -7.5412  -10.5496 C   0  0  0  0  0  0  0  0  0  0  0  0
    9.7410   -8.6045   -9.6408 C   0  0  0  0  0  0  0  0  0  0  0  0
   10.8350   -8.6933   -8.7778 C   0  0  0  0  0  0  0  0  0  0  0  0
   11.8370   -7.7233   -8.8072 C   0  0  0  0  0  0  0  0  0  0  0  0
   11.7313   -6.6557   -9.7157 C   0  0  0  0  0  0  0  0  0  0  0  0
   12.7590   -5.6518   -9.7699 C   0  0  0  0  0  0  0  0  0  0  0  0
   13.5918   -4.8438   -9.8173 N   0  0  0  0  0  0  0  0  0  0  0  0
   10.6226   -6.5677  -10.5791 C   0  0  0  0  0  0  0  0  0  0  0  0
    6.1584   -7.7175  -10.2576 C   0  0  0  0  0  0  0  0  0  0  0  0
    5.0917   -7.1858   -9.5247 C   0  0  0  0  0  0  0  0  0  0  0  0
    5.0532   -5.8303   -9.2328 C   0  0  0  0  0  0  0  0  0  0  0  0
    3.9783   -5.3428   -8.5877 F   0  0  0  0  0  0  0  0  0  0  0  0
    2.8763   -2.2578   -4.4502 C   0  0  0  0  0  0  0  0  0  0  0  0
    1.7591   -1.4430   -4.1664 C   0  0  0  0  0  0  0  0  0  0  0  0
    1.0452   -1.5226   -2.9076 C   0  0  0  0  0  0  0  0  0  0  0  0
    1.4564   -2.4017   -1.9713 N   0  0  0  0  0  0  0  0  0  0  0  0
   -0.6823    0.0154    0.7301 H   0  0  0  0  0  0  0  0  0  0  0  0
   -0.0335    1.1389   -0.4908 H   0  0  0  0  0  0  0  0  0  0  0  0
    0.9099   -0.2844   -0.0107 H   0  0  0  0  0  0  0  0  0  0  0  0
   -1.8270   -0.3462   -1.4615 H   0  0  0  0  0  0  0  0  0  0  0  0
   -0.9378   -1.7806   -0.9905 H   0  0  0  0  0  0  0  0  0  0  0  0
   -1.3684    0.8567   -3.4452 H   0  0  0  0  0  0  0  0  0  0  0  0
   -0.1678    1.0263   -5.6073 H   0  0  0  0  0  0  0  0  0  0  0  0
    1.6728    0.2974   -7.1078 H   0  0  0  0  0  0  0  0  0  0  0  0
    3.6659   -1.1318   -7.5659 H   0  0  0  0  0  0  0  0  0  0  0  0
    7.1009   -4.8449   -7.1285 H   0  0  0  0  0  0  0  0  0  0  0  0
    6.4360   -2.9928  -10.0995 H   0  0  0  0  0  0  0  0  0  0  0  0
    7.9631   -4.8632  -10.6781 H   0  0  0  0  0  0  0  0  0  0  0  0
    8.1131   -8.4945  -11.7195 H   0  0  0  0  0  0  0  0  0  0  0  0
    9.5732   -6.9754  -13.0474 H   0  0  0  0  0  0  0  0  0  0  0  0
    6.7455   -6.2167  -13.2455 H   0  0  0  0  0  0  0  0  0  0  0  0
    7.3965   -7.6702  -14.0212 H   0  0  0  0  0  0  0  0  0  0  0  0
    8.3299   -4.7786  -14.6109 H   0  0  0  0  0  0  0  0  0  0  0  0
    9.2133   -7.5021  -15.8603 H   0  0  0  0  0  0  0  0  0  0  0  0
    9.7563   -5.8311  -16.3938 H   0  0  0  0  0  0  0  0  0  0  0  0
    6.8075   -6.8927  -16.3344 H   0  0  0  0  0  0  0  0  0  0  0  0
    7.3249   -5.2164  -16.8721 H   0  0  0  0  0  0  0  0  0  0  0  0
    8.9627   -9.3717   -9.6058 H   0  0  0  0  0  0  0  0  0  0  0  0
   10.9087   -9.5280   -8.0766 H   0  0  0  0  0  0  0  0  0  0  0  0
   12.6972   -7.7855   -8.1382 H   0  0  0  0  0  0  0  0  0  0  0  0
   10.5439   -5.7349  -11.2787 H   0  0  0  0  0  0  0  0  0  0  0  0
    6.1721   -8.7824  -10.5024 H   0  0  0  0  0  0  0  0  0  0  0  0
    4.2566   -7.8077   -9.1956 H   0  0  0  0  0  0  0  0  0  0  0  0
    3.2782   -2.9800   -3.7436 H   0  0  0  0  0  0  0  0  0  0  0  0
    2.2508   -3.0052   -2.1426 H   0  0  0  0  0  0  0  0  0  0  0  0
    0.9723   -2.5008   -1.0896 H   0  0  0  0  0  0  0  0  0  0  0  0
  1  2  1  0
  1 47  1  0
  1 48  1  0
  1 49  1  0
  2  3  1  0
  2 50  1  0
  2 51  1  0
  3  4  2  0
  3 45  1  0
  4  5  1  0
  4 52  1  0
  5  6  2  0
  5 53  1  0
  6  7  1  0
  6 44  1  0
  7  8  2  0
  7 54  1  0
  8  9  1  0
  8 55  1  0
  9 10  1  0
  9 43  2  0
 10 11  1  0
 10 18  1  0
 11 12  2  0
 12 13  1  0
 12 17  1  0
 13 14  1  1
 13 15  1  0
 13 16  1  0
 17 18  2  0
 17 56  1  0
 18 19  1  0
 19 20  2  0
 19 21  1  0
 21 22  1  0
 21 57  1  0
 22 23  2  0
 22 41  1  0
 23 24  1  0
 23 58  1  0
 24 25  1  0
 24 39  2  0
 25 26  1  0
 25 31  1  0
 25 59  1  6
 26 27  1  0
 26 60  1  0
 27 28  1  0
 27 61  1  0
 27 62  1  0
 28 29  1  0
 28 30  1  0
 28 63  1  1
 29 30  1  0
 29 64  1  0
 29 65  1  0
 30 66  1  0
 30 67  1  0
 31 32  2  0
 31 38  1  0
 32 33  1  0
 32 68  1  0
 33 34  2  0
 33 69  1  0
 34 35  1  0
 34 70  1  0
 35 36  1  0
 35 38  2  0
 36 37  3  0
 38 71  1  0
 39 40  1  0
 39 72  1  0
 40 41  2  0
 40 73  1  0
 41 42  1  0
 43 44  1  0
 43 74  1  0
 44 45  2  0
 45 46  1  0
 46 75  1  0
 46 76  1  0
M  END

