
     RDKit          3D

 51 56  0  0  0  0  0  0  0  0999 V2000
    0.8931   -0.0745    0.0080 C   0  0  0  0  0  0  0  0  0  0  0  0
    2.4301   -0.0462   -0.1484 C   0  0  2  0  0  0  0  0  0  0  0  0
    2.8086    0.0582   -1.6422 C   0  0  0  0  0  0  0  0  0  0  0  0
    3.0805   -1.2662    0.5100 C   0  0  0  0  0  0  0  0  0  0  0  0
    2.9178   -2.6101    0.2059 C   0  0  0  0  0  0  0  0  0  0  0  0
    3.6223   -3.5768    0.9496 C   0  0  0  0  0  0  0  0  0  0  0  0
    4.4808   -3.1843    1.9893 C   0  0  0  0  0  0  0  0  0  0  0  0
    4.6534   -1.8372    2.3068 C   0  0  0  0  0  0  0  0  0  0  0  0
    3.9499   -0.8650    1.5641 C   0  0  0  0  0  0  0  0  0  0  0  0
    3.9257    0.5733    1.6635 C   0  0  0  0  0  0  0  0  0  0  0  0
    4.5904    1.4605    2.5324 C   0  0  0  0  0  0  0  0  0  0  0  0
    4.3865    2.8540    2.4419 C   0  0  0  0  0  0  0  0  0  0  0  0
    5.0279    3.7775    3.3401 C   0  0  0  0  0  0  0  0  0  0  0  0
    5.7810    3.3476    4.5361 C   0  0  0  0  0  0  0  0  0  0  0  0
    7.0256    3.9410    4.8492 C   0  0  0  0  0  0  0  0  0  0  0  0
    7.7322    3.5737    5.9935 C   0  0  0  0  0  0  0  0  0  0  0  0
    7.2078    2.6176    6.8707 C   0  0  0  0  0  0  0  0  0  0  0  0
    5.9678    2.0326    6.5887 C   0  0  0  0  0  0  0  0  0  0  0  0
    5.2653    2.3879    5.4379 C   0  0  0  0  0  0  0  0  0  0  0  0
    4.9217    5.1654    3.0962 C   0  0  0  0  0  0  0  0  0  0  0  0
    4.1387    5.7100    2.0592 C   0  0  0  0  0  0  0  0  0  0  0  0
    4.0345    7.1125    1.8769 C   0  0  0  0  0  0  0  0  0  0  0  0
    3.2478    7.6552    0.8609 C   0  0  0  0  0  0  0  0  0  0  0  0
    2.5435    6.7886    0.0039 C   0  0  0  0  0  0  0  0  0  0  0  0
    2.6243    5.4017    0.1601 C   0  0  0  0  0  0  0  0  0  0  0  0
    3.4122    4.8087    1.1811 C   0  0  0  0  0  0  0  0  0  0  0  0
    3.5365    3.3880    1.3723 C   0  0  0  0  0  0  0  0  0  0  0  0
    2.8649    2.4547    0.5221 C   0  0  0  0  0  0  0  0  0  0  0  0
    3.0468    1.0908    0.6646 C   0  0  0  0  0  0  0  0  0  0  0  0
    0.4642   -0.9371   -0.5273 H   0  0  0  0  0  0  0  0  0  0  0  0
    0.4395    0.8406   -0.4064 H   0  0  0  0  0  0  0  0  0  0  0  0
    0.6040   -0.1507    1.0670 H   0  0  0  0  0  0  0  0  0  0  0  0
    2.4131   -0.8035   -2.2041 H   0  0  0  0  0  0  0  0  0  0  0  0
    3.9008    0.0804   -1.7735 H   0  0  0  0  0  0  0  0  0  0  0  0
    2.3900    0.9740   -2.0903 H   0  0  0  0  0  0  0  0  0  0  0  0
    2.2514   -2.9255   -0.6022 H   0  0  0  0  0  0  0  0  0  0  0  0
    3.5006   -4.6373    0.7161 H   0  0  0  0  0  0  0  0  0  0  0  0
    5.0210   -3.9466    2.5574 H   0  0  0  0  0  0  0  0  0  0  0  0
    5.3236   -1.5418    3.1180 H   0  0  0  0  0  0  0  0  0  0  0  0
    5.2894    1.0680    3.2700 H   0  0  0  0  0  0  0  0  0  0  0  0
    7.4542    4.6768    4.1648 H   0  0  0  0  0  0  0  0  0  0  0  0
    8.7018    4.0337    6.2011 H   0  0  0  0  0  0  0  0  0  0  0  0
    7.7588    2.3344    7.7709 H   0  0  0  0  0  0  0  0  0  0  0  0
    5.5392    1.3000    7.2775 H   0  0  0  0  0  0  0  0  0  0  0  0
    4.2863    1.9455    5.2451 H   0  0  0  0  0  0  0  0  0  0  0  0
    5.4244    5.8547    3.7784 H   0  0  0  0  0  0  0  0  0  0  0  0
    4.5877    7.7683    2.5546 H   0  0  0  0  0  0  0  0  0  0  0  0
    3.1786    8.7374    0.7327 H   0  0  0  0  0  0  0  0  0  0  0  0
    1.9229    7.2003   -0.7960 H   0  0  0  0  0  0  0  0  0  0  0  0
    2.0628    4.7723   -0.5300 H   0  0  0  0  0  0  0  0  0  0  0  0
    2.2024    2.8238   -0.2612 H   0  0  0  0  0  0  0  0  0  0  0  0
  2  1  1  6
  1 30  1  0
  1 31  1  0
  1 32  1  0
  2  3  1  0
  2  4  1  0
  2 29  1  0
  3 33  1  0
  3 34  1  0
  3 35  1  0
  4  5  2  0
  4  9  1  0
  5  6  1  0
  5 36  1  0
  6  7  2  0
  6 37  1  0
  7  8  1  0
  7 38  1  0
  8  9  2  0
  8 39  1  0
  9 10  1  0
 10 11  2  0
 10 29  1  0
 11 12  1  0
 11 40  1  0
 12 13  2  0
 12 27  1  0
 13 14  1  0
 13 20  1  0
 14 15  2  0
 14 19  1  0
 15 16  1  0
 15 41  1  0
 16 17  2  0
 16 42  1  0
 17 18  1  0
 17 43  1  0
 18 19  2  0
 18 44  1  0
 19 45  1  0
 20 21  2  0
 20 46  1  0
 21 22  1  0
 21 26  1  0
 22 23  2  0
 22 47  1  0
 23 24  1  0
 23 48  1  0
 24 25  2  0
 24 49  1  0
 25 26  1  0
 25 50  1  0
 26 27  2  0
 27 28  1  0
 28 29  2  0
 28 51  1  0
M  END

