
     RDKit          3D

 31 31  0  0  0  0  0  0  0  0999 V2000
    1.0762    0.2385   -0.0407 C   0  0  0  0  0  0  0  0  0  0  0  0
    2.5622    0.2091    0.0973 C   0  0  0  0  0  0  0  0  0  0  0  0
    3.4532    1.2554    0.1799 C   0  0  0  0  0  0  0  0  0  0  0  0
    4.7661    0.6942    0.2781 C   0  0  0  0  0  0  0  0  0  0  0  0
    6.0043    1.4550    0.3732 C   0  0  0  0  0  0  0  0  0  0  0  0
    7.0966    0.7775    0.1535 O   0  0  0  0  0  0  0  0  0  0  0  0
    6.0412    2.8845    0.5229 C   0  0  1  0  0  0  0  0  0  0  0  0
    7.3621    3.5244    0.8822 C   0  0  0  0  0  0  0  0  0  0  0  0
    5.5537    3.7203   -1.3717 Cl  0  0  0  0  0  0  0  0  0  0  0  0
    4.6407   -0.7077    0.2444 C   0  0  0  0  0  0  0  0  0  0  0  0
    5.6697   -1.7845    0.3424 C   0  0  0  0  0  0  0  0  0  0  0  0
    3.2946   -0.9800    0.1414 N   0  0  0  0  0  0  0  0  0  0  0  0
    2.7345   -2.3063   -0.0229 C   0  0  0  0  0  0  0  0  0  0  0  0
    2.6282   -2.8316   -1.4683 C   0  0  0  0  0  0  0  0  0  0  0  0
    3.0369   -1.9820   -2.4466 N   0  0  0  0  0  0  0  0  0  0  0  0
    2.1898   -3.9457   -1.6659 O   0  0  0  0  0  0  0  0  0  0  0  0
    0.7299    1.2802   -0.0719 H   0  0  0  0  0  0  0  0  0  0  0  0
    0.5677   -0.2571    0.8044 H   0  0  0  0  0  0  0  0  0  0  0  0
    0.7366   -0.2578   -0.9661 H   0  0  0  0  0  0  0  0  0  0  0  0
    3.2014    2.3122    0.1348 H   0  0  0  0  0  0  0  0  0  0  0  0
    5.1781    3.2821    1.0633 H   0  0  0  0  0  0  0  0  0  0  0  0
    8.1340    3.2709    0.1424 H   0  0  0  0  0  0  0  0  0  0  0  0
    7.7091    3.1816    1.8734 H   0  0  0  0  0  0  0  0  0  0  0  0
    7.2556    4.6167    0.9038 H   0  0  0  0  0  0  0  0  0  0  0  0
    6.6604   -1.3333    0.4863 H   0  0  0  0  0  0  0  0  0  0  0  0
    5.7144   -2.4036   -0.5703 H   0  0  0  0  0  0  0  0  0  0  0  0
    5.4702   -2.4652    1.1889 H   0  0  0  0  0  0  0  0  0  0  0  0
    1.7188   -2.3411    0.3922 H   0  0  0  0  0  0  0  0  0  0  0  0
    3.3259   -3.0389    0.5448 H   0  0  0  0  0  0  0  0  0  0  0  0
    3.4146   -1.0625   -2.2551 H   0  0  0  0  0  0  0  0  0  0  0  0
    2.9885   -2.3023   -3.4073 H   0  0  0  0  0  0  0  0  0  0  0  0
  1  2  1  0
  1 17  1  0
  1 18  1  0
  1 19  1  0
  2  3  2  0
  2 12  1  0
  3  4  1  0
  3 20  1  0
  4  5  1  0
  4 10  2  0
  5  6  2  0
  5  7  1  0
  7  8  1  0
  7  9  1  0
  7 21  1  1
  8 22  1  0
  8 23  1  0
  8 24  1  0
 10 11  1  0
 10 12  1  0
 11 25  1  0
 11 26  1  0
 11 27  1  0
 12 13  1  0
 13 14  1  0
 13 28  1  0
 13 29  1  0
 14 15  1  0
 14 16  2  0
 15 30  1  0
 15 31  1  0
M  END

