
     RDKit          3D

 40 41  0  0  0  0  0  0  0  0999 V2000
    4.1652    1.8310   -2.7781 C   0  0  0  0  0  0  0  0  0  0  0  0
    3.2867    2.3469   -1.6502 C   0  0  0  0  0  0  0  0  0  0  0  0
    4.0411    3.1166   -0.6971 O   0  0  0  0  0  0  0  0  0  0  0  0
    4.6486    2.4500    0.3039 C   0  0  0  0  0  0  0  0  0  0  0  0
    4.6110    1.2481    0.4267 O   0  0  0  0  0  0  0  0  0  0  0  0
    5.3375    3.4054    1.2526 C   0  0  0  0  0  0  0  0  0  0  0  0
    6.3852    2.7319    2.1302 C   0  0  0  0  0  0  0  0  0  0  0  0
    6.7138    3.5634    3.3686 C   0  0  0  0  0  0  0  0  0  0  0  0
    5.8986    4.3214    3.8765 O   0  0  0  0  0  0  0  0  0  0  0  0
    7.9668    3.3713    3.8698 N   0  0  0  0  0  0  0  0  0  0  0  0
    8.4129    3.9651    5.1105 C   0  0  0  0  0  0  0  0  0  0  0  0
    8.6987    2.9198    6.2054 C   0  0  0  0  0  0  0  0  0  0  0  0
    9.7618    1.9519    5.8320 C   0  0  0  0  0  0  0  0  0  0  0  0
   10.0975    1.5579    4.6091 N   0  0  0  0  0  0  0  0  0  0  0  0
   11.0435    0.5826    4.7409 C   0  0  0  0  0  0  0  0  0  0  0  0
   11.7606   -0.1451    3.7669 C   0  0  0  0  0  0  0  0  0  0  0  0
   12.7080   -1.1029    4.2413 C   0  0  0  0  0  0  0  0  0  0  0  0
   12.9492   -1.3402    5.6269 C   0  0  0  0  0  0  0  0  0  0  0  0
   12.2449   -0.6276    6.6247 C   0  0  0  0  0  0  0  0  0  0  0  0
   11.3069    0.3328    6.1575 C   0  0  0  0  0  0  0  0  0  0  0  0
   10.4940    1.2106    6.8043 N   0  0  0  0  0  0  0  0  0  0  0  0
   10.4148    1.3218    7.8078 H   0  0  0  0  0  0  0  0  0  0  0  0
    3.5464    1.3178   -3.5318 H   0  0  0  0  0  0  0  0  0  0  0  0
    4.9060    1.1123   -2.3976 H   0  0  0  0  0  0  0  0  0  0  0  0
    4.6954    2.6589   -3.2743 H   0  0  0  0  0  0  0  0  0  0  0  0
    2.7912    1.5150   -1.1278 H   0  0  0  0  0  0  0  0  0  0  0  0
    2.5213    3.0410   -2.0274 H   0  0  0  0  0  0  0  0  0  0  0  0
    4.5634    3.8456    1.9053 H   0  0  0  0  0  0  0  0  0  0  0  0
    5.7506    4.2476    0.6767 H   0  0  0  0  0  0  0  0  0  0  0  0
    7.3007    2.5015    1.5616 H   0  0  0  0  0  0  0  0  0  0  0  0
    5.9867    1.7618    2.4741 H   0  0  0  0  0  0  0  0  0  0  0  0
    8.5893    2.6706    3.4703 H   0  0  0  0  0  0  0  0  0  0  0  0
    7.6182    4.6454    5.4451 H   0  0  0  0  0  0  0  0  0  0  0  0
    9.3276    4.5588    4.9375 H   0  0  0  0  0  0  0  0  0  0  0  0
    7.7460    2.3922    6.4359 H   0  0  0  0  0  0  0  0  0  0  0  0
    8.9827    3.4396    7.1399 H   0  0  0  0  0  0  0  0  0  0  0  0
   11.5971    0.0208    2.7026 H   0  0  0  0  0  0  0  0  0  0  0  0
   13.2757   -1.6835    3.5099 H   0  0  0  0  0  0  0  0  0  0  0  0
   13.6906   -2.0877    5.9142 H   0  0  0  0  0  0  0  0  0  0  0  0
   12.4097   -0.8037    7.6883 H   0  0  0  0  0  0  0  0  0  0  0  0
  1  2  1  0
  1 23  1  0
  1 24  1  0
  1 25  1  0
  2  3  1  0
  2 26  1  0
  2 27  1  0
  3  4  1  0
  4  5  2  0
  4  6  1  0
  6  7  1  0
  6 28  1  0
  6 29  1  0
  7  8  1  0
  7 30  1  0
  7 31  1  0
  8  9  2  0
  8 10  1  0
 10 11  1  0
 10 32  1  0
 11 12  1  0
 11 33  1  0
 11 34  1  0
 12 13  1  0
 12 35  1  0
 12 36  1  0
 13 14  2  0
 13 21  1  0
 14 15  1  0
 15 16  2  0
 15 20  1  0
 16 17  1  0
 16 37  1  0
 17 18  2  0
 17 38  1  0
 18 19  1  0
 18 39  1  0
 19 20  2  0
 19 40  1  0
 20 21  1  0
 21 22  1  0
M  END

