
     RDKit          3D

136145  0  0  0  0  0  0  0  0999 V2000
    3.1906   -3.0970   -2.5602 C   0  0  0  0  0  0  0  0  0  0  0  0
    4.7112   -2.9528   -2.4804 C   0  0  0  0  0  0  0  0  0  0  0  0
    5.2315   -1.6249   -3.0398 C   0  0  0  0  0  0  0  0  0  0  0  0
    6.7535   -1.4720   -2.9666 C   0  0  0  0  0  0  0  0  0  0  0  0
    7.2712   -0.1431   -3.5249 C   0  0  0  0  0  0  0  0  0  0  0  0
    8.7938    0.0094   -3.4574 C   0  0  0  0  0  0  0  0  0  0  0  0
    9.3078    1.3410   -4.0125 C   0  0  0  0  0  0  0  0  0  0  0  0
   10.8306    1.4938   -3.9528 C   0  0  0  0  0  0  0  0  0  0  0  0
   11.3395    2.8298   -4.5032 C   0  0  0  0  0  0  0  0  0  0  0  0
   12.8648    2.9746   -4.4459 C   0  0  0  0  0  0  0  0  0  0  0  0
   13.4194    4.2688   -5.0597 C   0  0  0  0  0  0  0  0  0  0  0  0
   13.0145    5.5554   -4.3269 C   0  0  0  0  0  0  0  0  0  0  0  0
   13.6399    6.8468   -4.8955 C   0  0  1  0  0  0  0  0  0  0  0  0
   12.8183    8.0987   -4.5159 C   0  0  0  0  0  0  0  0  0  0  0  0
   13.0024    9.3215   -5.4312 C   0  0  0  0  0  0  0  0  0  0  0  0
   12.3151    9.2027   -6.7969 C   0  0  0  0  0  0  0  0  0  0  0  0
   12.4801   10.4412   -7.6834 C   0  0  0  0  0  0  0  0  0  0  0  0
   11.7865   10.3217   -9.0435 C   0  0  0  0  0  0  0  0  0  0  0  0
   11.9218   11.5671   -9.9247 C   0  0  0  0  0  0  0  0  0  0  0  0
   11.2355   11.4373  -11.2876 C   0  0  0  0  0  0  0  0  0  0  0  0
   11.3517   12.6870  -12.1652 C   0  0  0  0  0  0  0  0  0  0  0  0
   10.6687   12.5536  -13.5298 C   0  0  0  0  0  0  0  0  0  0  0  0
   10.7832   13.8075  -14.3980 C   0  0  0  0  0  0  0  0  0  0  0  0
   15.1455    6.9953   -4.5554 C   0  0  0  0  0  0  0  0  0  0  0  0
   15.4915    7.1286   -3.1425 N   0  0  0  0  0  0  0  0  0  0  0  0
   15.8659    6.0723   -2.2813 C   0  0  0  0  0  0  0  0  0  0  0  0
   15.9954    4.6888   -2.3660 C   0  0  0  0  0  0  0  0  0  0  0  0
   16.4212    3.9297   -1.2160 C   0  0  0  0  0  0  0  0  0  0  0  0
   16.3596    2.5040   -1.3947 C   0  0  0  0  0  0  0  0  0  0  0  0
   16.3217    1.4857   -0.4720 C   0  0  0  0  0  0  0  0  0  0  0  0
   16.2301    0.1073   -0.8688 C   0  0  0  0  0  0  0  0  0  0  0  0
   16.2393   -0.3478   -2.0980 N   0  0  0  0  0  0  0  0  0  0  0  0
   16.1319   -1.7086   -2.1438 C   0  0  0  0  0  0  0  0  0  0  0  0
   16.1110   -2.4914   -3.3180 C   0  0  0  0  0  0  0  0  0  0  0  0
   15.9965   -3.8723   -3.2137 C   0  0  0  0  0  0  0  0  0  0  0  0
   15.9014   -4.5005   -1.9549 C   0  0  0  0  0  0  0  0  0  0  0  0
   15.9196   -3.7521   -0.7770 C   0  0  0  0  0  0  0  0  0  0  0  0
   16.0348   -2.3619   -0.8764 C   0  0  0  0  0  0  0  0  0  0  0  0
   16.0845   -1.1603    0.3882 S   0  0  0  0  0  0  0  0  0  0  0  0
   16.8492    4.5974    0.0248 C   0  0  0  0  0  0  0  0  0  0  0  0
   17.4546    4.0024    1.1548 C   0  0  0  0  0  0  0  0  0  0  0  0
   17.8193    4.7827    2.2626 C   0  0  0  0  0  0  0  0  0  0  0  0
   17.6377    6.1691    2.3064 C   0  0  0  0  0  0  0  0  0  0  0  0
   17.0896    6.8469    1.1966 C   0  0  0  0  0  0  0  0  0  0  0  0
   16.9353    8.3163    1.0966 C   0  0  0  0  0  0  0  0  0  0  0  0
   17.2733    9.2384    2.1111 C   0  0  0  0  0  0  0  0  0  0  0  0
   17.1245   10.6132    1.8904 C   0  0  0  0  0  0  0  0  0  0  0  0
   16.6567   11.1424    0.6786 C   0  0  0  0  0  0  0  0  0  0  0  0
   16.2998   10.2838   -0.3855 C   0  0  0  0  0  0  0  0  0  0  0  0
   15.8234   10.6833   -1.7199 C   0  0  0  0  0  0  0  0  0  0  0  0
   15.6677   12.0786   -2.0096 C   0  0  0  0  0  0  0  0  0  0  0  0
   15.2089   12.6471   -3.1776 C   0  0  0  0  0  0  0  0  0  0  0  0
   15.1013   14.0654   -3.3495 C   0  0  0  0  0  0  0  0  0  0  0  0
   15.4191   14.9808   -2.4639 N   0  0  0  0  0  0  0  0  0  0  0  0
   15.2038   16.2448   -2.9303 C   0  0  0  0  0  0  0  0  0  0  0  0
   15.4495   17.4374   -2.2154 C   0  0  0  0  0  0  0  0  0  0  0  0
   15.1829   18.6605   -2.8185 C   0  0  0  0  0  0  0  0  0  0  0  0
   14.6712   18.7281   -4.1307 C   0  0  0  0  0  0  0  0  0  0  0  0
   14.4185   17.5661   -4.8619 C   0  0  0  0  0  0  0  0  0  0  0  0
   14.6853   16.3326   -4.2602 C   0  0  0  0  0  0  0  0  0  0  0  0
   14.4818   14.7213   -4.8989 S   0  0  0  0  0  0  0  0  0  0  0  0
   15.5204    9.7028   -2.7342 C   0  0  0  0  0  0  0  0  0  0  0  0
   15.6501    8.3474   -2.4437 C   0  0  0  0  0  0  0  0  0  0  0  0
   16.0890    8.0172   -1.1438 C   0  0  0  0  0  0  0  0  0  0  0  0
   16.4385    8.8914   -0.1172 C   0  0  0  0  0  0  0  0  0  0  0  0
   16.2117    6.6560   -1.0438 C   0  0  0  0  0  0  0  0  0  0  0  0
   16.7096    6.0164    0.0905 C   0  0  0  0  0  0  0  0  0  0  0  0
    2.8519   -4.0622   -2.1506 H   0  0  0  0  0  0  0  0  0  0  0  0
    2.8365   -3.0355   -3.6030 H   0  0  0  0  0  0  0  0  0  0  0  0
    2.6820   -2.2987   -1.9938 H   0  0  0  0  0  0  0  0  0  0  0  0
    5.1900   -3.7876   -3.0242 H   0  0  0  0  0  0  0  0  0  0  0  0
    5.0371   -3.0558   -1.4292 H   0  0  0  0  0  0  0  0  0  0  0  0
    4.7539   -0.7887   -2.4951 H   0  0  0  0  0  0  0  0  0  0  0  0
    4.9045   -1.5201   -4.0915 H   0  0  0  0  0  0  0  0  0  0  0  0
    7.2305   -2.3074   -3.5125 H   0  0  0  0  0  0  0  0  0  0  0  0
    7.0807   -1.5781   -1.9154 H   0  0  0  0  0  0  0  0  0  0  0  0
    6.7966    0.6921   -2.9765 H   0  0  0  0  0  0  0  0  0  0  0  0
    6.9407   -0.0354   -4.5750 H   0  0  0  0  0  0  0  0  0  0  0  0
    9.2687   -0.8235   -4.0087 H   0  0  0  0  0  0  0  0  0  0  0  0
    9.1257   -0.1009   -2.4082 H   0  0  0  0  0  0  0  0  0  0  0  0
    8.8357    2.1732   -3.4574 H   0  0  0  0  0  0  0  0  0  0  0  0
    8.9711    1.4535   -5.0601 H   0  0  0  0  0  0  0  0  0  0  0  0
   11.3035    0.6645   -4.5110 H   0  0  0  0  0  0  0  0  0  0  0  0
   11.1691    1.3784   -2.9065 H   0  0  0  0  0  0  0  0  0  0  0  0
   10.8596    3.6515   -3.9422 H   0  0  0  0  0  0  0  0  0  0  0  0
   11.0034    2.9448   -5.5512 H   0  0  0  0  0  0  0  0  0  0  0  0
   13.3206    2.1144   -4.9679 H   0  0  0  0  0  0  0  0  0  0  0  0
   13.1995    2.8955   -3.3952 H   0  0  0  0  0  0  0  0  0  0  0  0
   13.0913    4.3407   -6.1134 H   0  0  0  0  0  0  0  0  0  0  0  0
   14.5198    4.1894   -5.1038 H   0  0  0  0  0  0  0  0  0  0  0  0
   13.2477    5.4675   -3.2505 H   0  0  0  0  0  0  0  0  0  0  0  0
   11.9189    5.6597   -4.3814 H   0  0  0  0  0  0  0  0  0  0  0  0
   13.6147    6.7538   -5.9975 H   0  0  0  0  0  0  0  0  0  0  0  0
   13.0394    8.3754   -3.4715 H   0  0  0  0  0  0  0  0  0  0  0  0
   11.7486    7.8276   -4.5242 H   0  0  0  0  0  0  0  0  0  0  0  0
   14.0771    9.5280   -5.5898 H   0  0  0  0  0  0  0  0  0  0  0  0
   12.6055   10.2123   -4.9130 H   0  0  0  0  0  0  0  0  0  0  0  0
   11.2378    9.0094   -6.6396 H   0  0  0  0  0  0  0  0  0  0  0  0
   12.7002    8.3198   -7.3392 H   0  0  0  0  0  0  0  0  0  0  0  0
   13.5570   10.6402   -7.8395 H   0  0  0  0  0  0  0  0  0  0  0  0
   12.0882   11.3265   -7.1491 H   0  0  0  0  0  0  0  0  0  0  0  0
   10.7139   10.1025   -8.8862 H   0  0  0  0  0  0  0  0  0  0  0  0
   12.1927    9.4463   -9.5839 H   0  0  0  0  0  0  0  0  0  0  0  0
   12.9938   11.7938  -10.0759 H   0  0  0  0  0  0  0  0  0  0  0  0
   11.5056   12.4397   -9.3877 H   0  0  0  0  0  0  0  0  0  0  0  0
   10.1664   11.1977  -11.1352 H   0  0  0  0  0  0  0  0  0  0  0  0
   11.6604   10.5711  -11.8285 H   0  0  0  0  0  0  0  0  0  0  0  0
   12.4203   12.9305  -12.3156 H   0  0  0  0  0  0  0  0  0  0  0  0
   10.9222   13.5524  -11.6263 H   0  0  0  0  0  0  0  0  0  0  0  0
    9.6020   12.3060  -13.3784 H   0  0  0  0  0  0  0  0  0  0  0  0
   11.1013   11.6909  -14.0689 H   0  0  0  0  0  0  0  0  0  0  0  0
   10.3278   14.6814  -13.9021 H   0  0  0  0  0  0  0  0  0  0  0  0
   10.2789   13.6765  -15.3688 H   0  0  0  0  0  0  0  0  0  0  0  0
   11.8375   14.0592  -14.6026 H   0  0  0  0  0  0  0  0  0  0  0  0
   15.5549    7.8755   -5.0759 H   0  0  0  0  0  0  0  0  0  0  0  0
   15.6998    6.1283   -4.9469 H   0  0  0  0  0  0  0  0  0  0  0  0
   15.7427    4.1341   -3.2695 H   0  0  0  0  0  0  0  0  0  0  0  0
   16.2610    2.1714   -2.4337 H   0  0  0  0  0  0  0  0  0  0  0  0
   16.2973    1.6840    0.5995 H   0  0  0  0  0  0  0  0  0  0  0  0
   16.1861   -1.9923   -4.2861 H   0  0  0  0  0  0  0  0  0  0  0  0
   15.9799   -4.4834   -4.1198 H   0  0  0  0  0  0  0  0  0  0  0  0
   15.8123   -5.5882   -1.8988 H   0  0  0  0  0  0  0  0  0  0  0  0
   15.8454   -4.2426    0.1960 H   0  0  0  0  0  0  0  0  0  0  0  0
   17.6886    2.9397    1.1717 H   0  0  0  0  0  0  0  0  0  0  0  0
   18.2818    4.2859    3.1194 H   0  0  0  0  0  0  0  0  0  0  0  0
   17.9519    6.7181    3.1960 H   0  0  0  0  0  0  0  0  0  0  0  0
   17.6553    8.8943    3.0741 H   0  0  0  0  0  0  0  0  0  0  0  0
   17.3914   11.3056    2.6928 H   0  0  0  0  0  0  0  0  0  0  0  0
   16.5815   12.2259    0.5788 H   0  0  0  0  0  0  0  0  0  0  0  0
   15.9343   12.7924   -1.2285 H   0  0  0  0  0  0  0  0  0  0  0  0
   14.9009   12.0324   -4.0263 H   0  0  0  0  0  0  0  0  0  0  0  0
   15.8455   17.3715   -1.2002 H   0  0  0  0  0  0  0  0  0  0  0  0
   15.3718   19.5863   -2.2691 H   0  0  0  0  0  0  0  0  0  0  0  0
   14.4693   19.7022   -4.5831 H   0  0  0  0  0  0  0  0  0  0  0  0
   14.0226   17.6225   -5.8783 H   0  0  0  0  0  0  0  0  0  0  0  0
   15.1992   10.0482   -3.7143 H   0  0  0  0  0  0  0  0  0  0  0  0
  1  2  1  0
  1 68  1  0
  1 69  1  0
  1 70  1  0
  2  3  1  0
  2 71  1  0
  2 72  1  0
  3  4  1  0
  3 73  1  0
  3 74  1  0
  4  5  1  0
  4 75  1  0
  4 76  1  0
  5  6  1  0
  5 77  1  0
  5 78  1  0
  6  7  1  0
  6 79  1  0
  6 80  1  0
  7  8  1  0
  7 81  1  0
  7 82  1  0
  8  9  1  0
  8 83  1  0
  8 84  1  0
  9 10  1  0
  9 85  1  0
  9 86  1  0
 10 11  1  0
 10 87  1  0
 10 88  1  0
 11 12  1  0
 11 89  1  0
 11 90  1  0
 12 13  1  0
 12 91  1  0
 12 92  1  0
 13 14  1  0
 13 24  1  0
 13 93  1  6
 14 15  1  0
 14 94  1  0
 14 95  1  0
 15 16  1  0
 15 96  1  0
 15 97  1  0
 16 17  1  0
 16 98  1  0
 16 99  1  0
 17 18  1  0
 17100  1  0
 17101  1  0
 18 19  1  0
 18102  1  0
 18103  1  0
 19 20  1  0
 19104  1  0
 19105  1  0
 20 21  1  0
 20106  1  0
 20107  1  0
 21 22  1  0
 21108  1  0
 21109  1  0
 22 23  1  0
 22110  1  0
 22111  1  0
 23112  1  0
 23113  1  0
 23114  1  0
 24 25  1  0
 24115  1  0
 24116  1  0
 25 26  1  0
 25 63  1  0
 26 27  2  0
 26 66  1  0
 27 28  1  0
 27117  1  0
 28 29  1  0
 28 40  2  0
 29 30  2  0
 29118  1  0
 30 31  1  0
 30119  1  0
 31 32  2  0
 31 39  1  0
 32 33  1  0
 33 34  2  0
 33 38  1  0
 34 35  1  0
 34120  1  0
 35 36  2  0
 35121  1  0
 36 37  1  0
 36122  1  0
 37 38  2  0
 37123  1  0
 38 39  1  0
 40 41  1  0
 40 67  1  0
 41 42  2  0
 41124  1  0
 42 43  1  0
 42125  1  0
 43 44  2  0
 43126  1  0
 44 45  1  0
 44 67  1  0
 45 46  2  0
 45 65  1  0
 46 47  1  0
 46127  1  0
 47 48  2  0
 47128  1  0
 48 49  1  0
 48129  1  0
 49 50  2  0
 49 65  1  0
 50 51  1  0
 50 62  1  0
 51 52  2  0
 51130  1  0
 52 53  1  0
 52131  1  0
 53 54  2  0
 53 61  1  0
 54 55  1  0
 55 56  2  0
 55 60  1  0
 56 57  1  0
 56132  1  0
 57 58  2  0
 57133  1  0
 58 59  1  0
 58134  1  0
 59 60  2  0
 59135  1  0
 60 61  1  0
 62 63  2  0
 62136  1  0
 63 64  1  0
 64 65  2  0
 64 66  1  0
 66 67  2  0
M  END

