
     RDKit          3D

 39 40  0  0  0  0  0  0  0  0999 V2000
    3.1512   -1.8847    1.1406 O   0  0  0  0  0  0  0  0  0  0  0  0
    3.2044   -0.6865    1.1483 C   0  0  0  0  0  0  0  0  0  0  0  0
    2.1350    0.0979    1.3172 O   0  0  0  0  0  0  0  0  0  0  0  0
    4.5290    0.0579    0.9606 C   0  0  0  0  0  0  0  0  0  0  0  0
    4.2901    1.4492    1.0180 O   0  0  0  0  0  0  0  0  0  0  0  0
    5.3256    2.3365    0.8667 C   0  0  0  0  0  0  0  0  0  0  0  0
    6.6565    1.9604    0.6600 C   0  0  0  0  0  0  0  0  0  0  0  0
    7.6554    2.9296    0.5151 C   0  0  0  0  0  0  0  0  0  0  0  0
    7.3334    4.2944    0.5744 C   0  0  0  0  0  0  0  0  0  0  0  0
    8.2819    5.3272    0.4364 N   0  0  0  0  0  0  0  0  0  0  0  0
    9.6390    5.2385    0.2049 C   0  0  0  0  0  0  0  0  0  0  0  0
   10.2309    4.1751    0.1128 O   0  0  0  0  0  0  0  0  0  0  0  0
   10.3215    6.5998    0.0317 C   0  0  1  0  0  0  0  0  0  0  0  0
   11.7540    6.6255    0.6077 C   0  0  0  0  0  0  0  0  0  0  0  0
   12.7885    5.8859   -0.2542 C   0  0  0  0  0  0  0  0  0  0  0  0
   12.7484    6.3472   -1.7165 C   0  0  0  0  0  0  0  0  0  0  0  0
   11.3348    6.2300   -2.3006 C   0  0  0  0  0  0  0  0  0  0  0  0
   10.3225    7.0202   -1.4622 C   0  0  0  0  0  0  0  0  0  0  0  0
    5.9891    4.6601    0.7843 C   0  0  0  0  0  0  0  0  0  0  0  0
    4.9969    3.6980    0.9287 C   0  0  0  0  0  0  0  0  0  0  0  0
    2.4375    1.0245    1.2848 H   0  0  0  0  0  0  0  0  0  0  0  0
    4.9568   -0.2462   -0.0114 H   0  0  0  0  0  0  0  0  0  0  0  0
    5.2227   -0.2739    1.7536 H   0  0  0  0  0  0  0  0  0  0  0  0
    6.9427    0.9095    0.6083 H   0  0  0  0  0  0  0  0  0  0  0  0
    8.6898    2.6349    0.3560 H   0  0  0  0  0  0  0  0  0  0  0  0
    7.9054    6.2645    0.5093 H   0  0  0  0  0  0  0  0  0  0  0  0
    9.7208    7.3418    0.5872 H   0  0  0  0  0  0  0  0  0  0  0  0
   11.7513    6.2194    1.6325 H   0  0  0  0  0  0  0  0  0  0  0  0
   12.0498    7.6869    0.6936 H   0  0  0  0  0  0  0  0  0  0  0  0
   12.5856    4.8057   -0.2059 H   0  0  0  0  0  0  0  0  0  0  0  0
   13.7948    6.0474    0.1684 H   0  0  0  0  0  0  0  0  0  0  0  0
   13.4601    5.7594   -2.3199 H   0  0  0  0  0  0  0  0  0  0  0  0
   13.0809    7.4008   -1.7837 H   0  0  0  0  0  0  0  0  0  0  0  0
   11.0388    5.1676   -2.3348 H   0  0  0  0  0  0  0  0  0  0  0  0
   11.3153    6.5971   -3.3407 H   0  0  0  0  0  0  0  0  0  0  0  0
    9.3069    6.9229   -1.8827 H   0  0  0  0  0  0  0  0  0  0  0  0
   10.5759    8.0948   -1.5078 H   0  0  0  0  0  0  0  0  0  0  0  0
    5.7158    5.7184    0.8344 H   0  0  0  0  0  0  0  0  0  0  0  0
    3.9572    3.9890    1.0906 H   0  0  0  0  0  0  0  0  0  0  0  0
  1  2  2  0
  2  3  1  0
  2  4  1  0
  3 21  1  0
  4  5  1  0
  4 22  1  0
  4 23  1  0
  5  6  1  0
  6  7  2  0
  6 20  1  0
  7  8  1  0
  7 24  1  0
  8  9  2  0
  8 25  1  0
  9 10  1  0
  9 19  1  0
 10 11  1  0
 10 26  1  0
 11 12  2  0
 11 13  1  0
 13 14  1  0
 13 18  1  0
 13 27  1  1
 14 15  1  0
 14 28  1  0
 14 29  1  0
 15 16  1  0
 15 30  1  0
 15 31  1  0
 16 17  1  0
 16 32  1  0
 16 33  1  0
 17 18  1  0
 17 34  1  0
 17 35  1  0
 18 36  1  0
 18 37  1  0
 19 20  2  0
 19 38  1  0
 20 39  1  0
M  END

