
     RDKit          3D

 45 45  0  0  0  0  0  0  0  0999 V2000
    0.8132   -3.4752   -0.5504 C   0  0  0  0  0  0  0  0  0  0  0  0
    2.3473   -3.5002   -0.5577 C   0  0  1  0  0  0  0  0  0  0  0  0
    2.8642   -4.9318   -0.7548 C   0  0  0  0  0  0  0  0  0  0  0  0
    2.8955   -2.5162   -1.6113 C   0  0  0  0  0  0  0  0  0  0  0  0
    4.4101   -2.2897   -1.5574 C   0  0  0  0  0  0  0  0  0  0  0  0
    4.9594   -1.3627   -2.6625 C   0  0  1  0  0  0  0  0  0  0  0  0
    4.4472    0.0750   -2.5837 C   0  0  0  0  0  0  0  0  0  0  0  0
    6.4257   -1.3293   -2.6478 N   0  0  0  0  0  0  0  0  0  0  0  0
    7.2238   -2.2269   -3.2612 C   0  0  0  0  0  0  0  0  0  0  0  0
    6.5993   -3.1356   -3.9918 O   0  0  0  0  0  0  0  0  0  0  0  0
    8.6127   -2.1966   -3.1194 C   0  0  0  0  0  0  0  0  0  0  0  0
    9.6843   -2.9296   -3.6877 C   0  0  0  0  0  0  0  0  0  0  0  0
   10.8597   -2.3536   -3.1940 C   0  0  0  0  0  0  0  0  0  0  0  0
   10.4876   -1.3004   -2.3649 C   0  0  0  0  0  0  0  0  0  0  0  0
   11.4474   -0.2362   -1.3646 S   0  0  1  0  0  0  0  0  0  0  0  0
   12.8273   -0.4145   -1.8192 O   0  0  0  0  0  0  0  0  0  0  0  0
   10.7843    1.0672   -1.3229 O   0  0  0  0  0  0  0  0  0  0  0  0
   11.4066   -0.8101    0.2321 N   0  0  0  0  0  0  0  0  0  0  0  0
   10.1822   -0.5901    0.9856 C   0  0  0  0  0  0  0  0  0  0  0  0
   12.1122   -2.0534    0.4982 C   0  0  0  0  0  0  0  0  0  0  0  0
    9.1149   -1.1991   -2.2897 O   0  0  0  0  0  0  0  0  0  0  0  0
    0.4054   -4.1459    0.2227 H   0  0  0  0  0  0  0  0  0  0  0  0
    0.4080   -3.8050   -1.5227 H   0  0  0  0  0  0  0  0  0  0  0  0
    0.4249   -2.4624   -0.3544 H   0  0  0  0  0  0  0  0  0  0  0  0
    2.6928   -3.1487    0.4336 H   0  0  0  0  0  0  0  0  0  0  0  0
    2.5610   -5.3271   -1.7399 H   0  0  0  0  0  0  0  0  0  0  0  0
    2.4539   -5.6069    0.0131 H   0  0  0  0  0  0  0  0  0  0  0  0
    3.9616   -4.9966   -0.6922 H   0  0  0  0  0  0  0  0  0  0  0  0
    2.3758   -1.5518   -1.4819 H   0  0  0  0  0  0  0  0  0  0  0  0
    2.6150   -2.8801   -2.6184 H   0  0  0  0  0  0  0  0  0  0  0  0
    4.9322   -3.2549   -1.6516 H   0  0  0  0  0  0  0  0  0  0  0  0
    4.6933   -1.8732   -0.5730 H   0  0  0  0  0  0  0  0  0  0  0  0
    4.6722   -1.7908   -3.6393 H   0  0  0  0  0  0  0  0  0  0  0  0
    4.7257    0.5374   -1.6208 H   0  0  0  0  0  0  0  0  0  0  0  0
    3.3517    0.1097   -2.6640 H   0  0  0  0  0  0  0  0  0  0  0  0
    4.8696    0.6862   -3.3949 H   0  0  0  0  0  0  0  0  0  0  0  0
    6.9049   -0.6905   -2.0198 H   0  0  0  0  0  0  0  0  0  0  0  0
    9.5987   -3.7582   -4.3859 H   0  0  0  0  0  0  0  0  0  0  0  0
   11.8862   -2.6355   -3.4150 H   0  0  0  0  0  0  0  0  0  0  0  0
    9.7682    0.3915    0.7252 H   0  0  0  0  0  0  0  0  0  0  0  0
   10.4214   -0.5922    2.0618 H   0  0  0  0  0  0  0  0  0  0  0  0
    9.4160   -1.3712    0.8028 H   0  0  0  0  0  0  0  0  0  0  0  0
   13.0510   -2.0677   -0.0690 H   0  0  0  0  0  0  0  0  0  0  0  0
   11.5165   -2.9531    0.2405 H   0  0  0  0  0  0  0  0  0  0  0  0
   12.3564   -2.0988    1.5718 H   0  0  0  0  0  0  0  0  0  0  0  0
  1  2  1  0
  1 22  1  0
  1 23  1  0
  1 24  1  0
  2  3  1  0
  2  4  1  0
  2 25  1  1
  3 26  1  0
  3 27  1  0
  3 28  1  0
  4  5  1  0
  4 29  1  0
  4 30  1  0
  5  6  1  0
  5 31  1  0
  5 32  1  0
  6  7  1  0
  6  8  1  0
  6 33  1  6
  7 34  1  0
  7 35  1  0
  7 36  1  0
  8  9  1  0
  8 37  1  0
  9 10  2  0
  9 11  1  0
 11 12  2  0
 11 21  1  0
 12 13  1  0
 12 38  1  0
 13 14  2  0
 13 39  1  0
 14 15  1  0
 14 21  1  0
 15 16  2  0
 15 17  2  0
 15 18  1  1
 18 19  1  0
 18 20  1  0
 19 40  1  0
 19 41  1  0
 19 42  1  0
 20 43  1  0
 20 44  1  0
 20 45  1  0
M  END

