
     RDKit          3D

 74 76  0  0  0  0  0  0  0  0999 V2000
    5.9750    3.1671    0.5724 C   0  0  0  0  0  0  0  0  0  0  0  0
    5.8628    1.6906    0.9403 C   0  0  0  0  0  0  0  0  0  0  0  0
    4.2139    1.3537    1.6727 S   0  0  0  0  0  0  0  0  0  0  0  0
    4.3486   -0.4422    1.9880 C   0  0  0  0  0  0  0  0  0  0  0  0
    5.1647   -0.8439    3.2087 C   0  0  1  0  0  0  0  0  0  0  0  0
    4.5342   -0.3431    4.3889 O   0  0  0  0  0  0  0  0  0  0  0  0
    4.8648   -1.1577    5.4872 C   0  0  2  0  0  0  0  0  0  0  0  0
    6.1021   -0.7935    6.1489 N   0  0  0  0  0  0  0  0  0  0  0  0
    7.4468   -1.0300    5.7483 C   0  0  0  0  0  0  0  0  0  0  0  0
    8.2930   -0.4543    6.5871 N   0  0  0  0  0  0  0  0  0  0  0  0
    7.5581    0.1665    7.5151 C   0  0  0  0  0  0  0  0  0  0  0  0
    7.8751    0.9652    8.6959 C   0  0  0  0  0  0  0  0  0  0  0  0
    9.1824    1.2344    9.0298 N   0  0  0  0  0  0  0  0  0  0  0  0
    9.8000    2.1799   10.4035 Si  0  0  1  0  0  4  0  0  0  0  0  0
   11.6719    2.1511   10.1894 C   0  0  0  0  0  0  0  0  0  0  0  0
    9.1277    3.9374   10.3246 C   0  0  0  0  0  0  0  0  0  0  0  0
    9.2879    1.3616   12.0219 C   0  0  0  0  0  0  0  0  0  0  0  0
    6.8477    1.4056    9.3897 N   0  0  0  0  0  0  0  0  0  0  0  0
    5.5364    1.2410    9.1571 C   0  0  0  0  0  0  0  0  0  0  0  0
    5.2173    0.4809    8.0477 N   0  0  0  0  0  0  0  0  0  0  0  0
    6.1697   -0.0097    7.2782 C   0  0  0  0  0  0  0  0  0  0  0  0
    4.8353   -2.5891    4.8803 C   0  0  2  0  0  0  0  0  0  0  0  0
    5.5440   -3.5815    5.5498 O   0  0  0  0  0  0  0  0  0  0  0  0
    5.0849   -4.4119    6.9634 Si  0  0  1  0  0  4  0  0  0  0  0  0
    6.1748   -5.9394    7.0004 C   0  0  0  0  0  0  0  0  0  0  0  0
    5.3899   -3.3521    8.4855 C   0  0  0  0  0  0  0  0  0  0  0  0
    3.2599   -4.8764    6.8379 C   0  0  0  0  0  0  0  0  0  0  0  0
    5.3098   -2.3789    3.4033 C   0  0  2  0  0  0  0  0  0  0  0  0
    6.6307   -2.7661    3.1588 O   0  0  0  0  0  0  0  0  0  0  0  0
    7.2677   -4.2527    2.6470 Si  0  0  1  0  0  4  0  0  0  0  0  0
    7.9616   -3.9785    0.9167 C   0  0  0  0  0  0  0  0  0  0  0  0
    8.6466   -4.7012    3.8379 C   0  0  0  0  0  0  0  0  0  0  0  0
    5.9160   -5.5659    2.6018 C   0  0  0  0  0  0  0  0  0  0  0  0
    6.9611    3.3781    0.1286 H   0  0  0  0  0  0  0  0  0  0  0  0
    5.8582    3.8082    1.4604 H   0  0  0  0  0  0  0  0  0  0  0  0
    5.2036    3.4567   -0.1588 H   0  0  0  0  0  0  0  0  0  0  0  0
    6.6472    1.4171    1.6643 H   0  0  0  0  0  0  0  0  0  0  0  0
    5.9927    1.0555    0.0476 H   0  0  0  0  0  0  0  0  0  0  0  0
    4.7642   -0.9342    1.0929 H   0  0  0  0  0  0  0  0  0  0  0  0
    3.3122   -0.7945    2.1137 H   0  0  0  0  0  0  0  0  0  0  0  0
    6.1901   -0.4412    3.1301 H   0  0  0  0  0  0  0  0  0  0  0  0
    4.0736   -1.0101    6.2350 H   0  0  0  0  0  0  0  0  0  0  0  0
    7.6787   -1.6524    4.8903 H   0  0  0  0  0  0  0  0  0  0  0  0
    9.8314    0.8108    8.3729 H   0  0  0  0  0  0  0  0  0  0  0  0
   11.9774    2.6147    9.2369 H   0  0  0  0  0  0  0  0  0  0  0  0
   12.0666    1.1218   10.2110 H   0  0  0  0  0  0  0  0  0  0  0  0
   12.1616    2.7108   11.0033 H   0  0  0  0  0  0  0  0  0  0  0  0
    9.4259    4.4361    9.3882 H   0  0  0  0  0  0  0  0  0  0  0  0
    9.4998    4.5422   11.1688 H   0  0  0  0  0  0  0  0  0  0  0  0
    8.0269    3.9350   10.3699 H   0  0  0  0  0  0  0  0  0  0  0  0
    9.6950    0.3401   12.0960 H   0  0  0  0  0  0  0  0  0  0  0  0
    8.1907    1.2942   12.0958 H   0  0  0  0  0  0  0  0  0  0  0  0
    9.6501    1.9383   12.8897 H   0  0  0  0  0  0  0  0  0  0  0  0
    4.7711    1.6627    9.8005 H   0  0  0  0  0  0  0  0  0  0  0  0
    3.7597   -2.8403    4.8237 H   0  0  0  0  0  0  0  0  0  0  0  0
    7.2402   -5.6593    7.0304 H   0  0  0  0  0  0  0  0  0  0  0  0
    6.0153   -6.5768    6.1161 H   0  0  0  0  0  0  0  0  0  0  0  0
    5.9629   -6.5449    7.8974 H   0  0  0  0  0  0  0  0  0  0  0  0
    6.4458   -3.0414    8.5388 H   0  0  0  0  0  0  0  0  0  0  0  0
    5.1579   -3.9232    9.4008 H   0  0  0  0  0  0  0  0  0  0  0  0
    4.7748   -2.4382    8.4987 H   0  0  0  0  0  0  0  0  0  0  0  0
    3.0476   -5.4580    5.9257 H   0  0  0  0  0  0  0  0  0  0  0  0
    2.6031   -3.9908    6.8379 H   0  0  0  0  0  0  0  0  0  0  0  0
    2.9682   -5.4956    7.7029 H   0  0  0  0  0  0  0  0  0  0  0  0
    4.6194   -2.9206    2.7319 H   0  0  0  0  0  0  0  0  0  0  0  0
    8.7064   -3.1658    0.9177 H   0  0  0  0  0  0  0  0  0  0  0  0
    7.1662   -3.7042    0.2039 H   0  0  0  0  0  0  0  0  0  0  0  0
    8.4561   -4.8876    0.5348 H   0  0  0  0  0  0  0  0  0  0  0  0
    9.4172   -3.9132    3.8564 H   0  0  0  0  0  0  0  0  0  0  0  0
    9.1369   -5.6451    3.5467 H   0  0  0  0  0  0  0  0  0  0  0  0
    8.2529   -4.8112    4.8595 H   0  0  0  0  0  0  0  0  0  0  0  0
    5.1282   -5.3204    1.8704 H   0  0  0  0  0  0  0  0  0  0  0  0
    5.4449   -5.6809    3.5901 H   0  0  0  0  0  0  0  0  0  0  0  0
    6.3408   -6.5410    2.3094 H   0  0  0  0  0  0  0  0  0  0  0  0
  1  2  1  0
  1 34  1  0
  1 35  1  0
  1 36  1  0
  2  3  1  0
  2 37  1  0
  2 38  1  0
  3  4  1  0
  4  5  1  0
  4 39  1  0
  4 40  1  0
  5  6  1  0
  5 28  1  0
  5 41  1  6
  6  7  1  0
  7  8  1  0
  7 22  1  0
  7 42  1  1
  8  9  1  0
  8 21  1  0
  9 10  2  0
  9 43  1  0
 10 11  1  0
 11 12  1  0
 11 21  2  0
 12 13  1  0
 12 18  2  0
 14 13  1  6
 13 44  1  0
 14 15  1  0
 14 16  1  0
 14 17  1  0
 15 45  1  0
 15 46  1  0
 15 47  1  0
 16 48  1  0
 16 49  1  0
 16 50  1  0
 17 51  1  0
 17 52  1  0
 17 53  1  0
 18 19  1  0
 19 20  2  0
 19 54  1  0
 20 21  1  0
 22 23  1  0
 22 28  1  0
 22 55  1  6
 24 23  1  6
 24 25  1  0
 24 26  1  0
 24 27  1  0
 25 56  1  0
 25 57  1  0
 25 58  1  0
 26 59  1  0
 26 60  1  0
 26 61  1  0
 27 62  1  0
 27 63  1  0
 27 64  1  0
 28 29  1  0
 28 65  1  6
 30 29  1  1
 30 31  1  0
 30 32  1  0
 30 33  1  0
 31 66  1  0
 31 67  1  0
 31 68  1  0
 32 69  1  0
 32 70  1  0
 32 71  1  0
 33 72  1  0
 33 73  1  0
 33 74  1  0
M  END

