
     RDKit          3D

 31 33  0  0  0  0  0  0  0  0999 V2000
    2.8742    1.6671   -1.4884 O   0  0  0  0  0  0  0  0  0  0  0  0
    2.5133    0.5571   -1.8032 C   0  0  0  0  0  0  0  0  0  0  0  0
    1.1872    0.2429   -2.0463 N   0  0  0  0  0  0  0  0  0  0  0  0
    0.5796   -0.9911   -2.2540 C   0  0  0  0  0  0  0  0  0  0  0  0
    1.0583   -2.1546   -1.9406 N   0  0  0  0  0  0  0  0  0  0  0  0
    0.1838   -3.1529   -2.2900 C   0  0  0  0  0  0  0  0  0  0  0  0
   -0.9906   -2.7576   -2.8660 C   0  0  0  0  0  0  0  0  0  0  0  0
   -1.0121   -1.0268   -3.0213 S   0  0  0  0  0  0  0  0  0  0  0  0
    3.3233   -0.4948   -2.0191 O   0  0  0  0  0  0  0  0  0  0  0  0
    4.6498   -0.4766   -1.6726 C   0  0  0  0  0  0  0  0  0  0  0  0
    5.2700   -1.6904   -1.2750 C   0  0  0  0  0  0  0  0  0  0  0  0
    6.5369   -1.7407   -1.0075 N   0  0  0  0  0  0  0  0  0  0  0  0
    7.4379   -0.7006   -1.0463 C   0  0  0  0  0  0  0  0  0  0  0  0
    8.8171   -0.8054   -0.7349 C   0  0  0  0  0  0  0  0  0  0  0  0
    9.3884   -2.0507   -0.3359 C   0  0  0  0  0  0  0  0  0  0  0  0
   10.7399   -2.1431   -0.0357 C   0  0  0  0  0  0  0  0  0  0  0  0
   11.5773   -1.0170   -0.1154 C   0  0  0  0  0  0  0  0  0  0  0  0
   11.0264    0.2155   -0.5062 C   0  0  0  0  0  0  0  0  0  0  0  0
    9.6777    0.3302   -0.8119 C   0  0  0  0  0  0  0  0  0  0  0  0
    6.7995    0.4563   -1.4309 N   0  0  0  0  0  0  0  0  0  0  0  0
    5.5514    0.6221   -1.7338 C   0  0  0  0  0  0  0  0  0  0  0  0
    0.5873    1.0604   -2.0143 H   0  0  0  0  0  0  0  0  0  0  0  0
    0.4489   -4.1916   -2.0838 H   0  0  0  0  0  0  0  0  0  0  0  0
   -1.8319   -3.3647   -3.1944 H   0  0  0  0  0  0  0  0  0  0  0  0
    4.6737   -2.6075   -1.1881 H   0  0  0  0  0  0  0  0  0  0  0  0
    8.7484   -2.9328   -0.2681 H   0  0  0  0  0  0  0  0  0  0  0  0
   11.1556   -3.1081    0.2678 H   0  0  0  0  0  0  0  0  0  0  0  0
   12.6400   -1.0984    0.1231 H   0  0  0  0  0  0  0  0  0  0  0  0
   11.6666    1.0998   -0.5723 H   0  0  0  0  0  0  0  0  0  0  0  0
    9.2631    1.2937   -1.1155 H   0  0  0  0  0  0  0  0  0  0  0  0
    5.2069    1.6223   -2.0183 H   0  0  0  0  0  0  0  0  0  0  0  0
  1  2  2  0
  2  3  1  0
  2  9  1  0
  3  4  1  0
  3 22  1  0
  4  5  2  0
  4  8  1  0
  5  6  1  0
  6  7  2  0
  6 23  1  0
  7  8  1  0
  7 24  1  0
  9 10  1  0
 10 11  2  0
 10 21  1  0
 11 12  1  0
 11 25  1  0
 12 13  2  0
 13 14  1  0
 13 20  1  0
 14 15  2  0
 14 19  1  0
 15 16  1  0
 15 26  1  0
 16 17  2  0
 16 27  1  0
 17 18  1  0
 17 28  1  0
 18 19  2  0
 18 29  1  0
 19 30  1  0
 20 21  2  0
 21 31  1  0
M  END

