
     RDKit          3D

 75 78  0  0  0  0  0  0  0  0999 V2000
    2.8430   -0.8117    1.1230 C   0  0  0  0  0  0  0  0  0  0  0  0
    3.6890    0.2411    0.7150 O   0  0  0  0  0  0  0  0  0  0  0  0
    3.7485    0.5772   -0.5971 C   0  0  0  0  0  0  0  0  0  0  0  0
    3.0388   -0.0730   -1.6180 C   0  0  0  0  0  0  0  0  0  0  0  0
    3.1456    0.3538   -2.9417 C   0  0  0  0  0  0  0  0  0  0  0  0
    3.9603    1.4449   -3.2903 C   0  0  0  0  0  0  0  0  0  0  0  0
    4.0391    1.9249   -4.6770 C   0  0  0  0  0  0  0  0  0  0  0  0
    4.0017    1.2567   -5.8702 C   0  0  0  0  0  0  0  0  0  0  0  0
    4.0793   -0.1765   -6.1806 C   0  0  0  0  0  0  0  0  0  0  0  0
    4.8413   -1.0524   -5.3939 C   0  0  0  0  0  0  0  0  0  0  0  0
    4.9349   -2.4090   -5.7181 C   0  0  0  0  0  0  0  0  0  0  0  0
    4.2682   -2.9280   -6.8330 C   0  0  0  0  0  0  0  0  0  0  0  0
    4.2952   -4.2217   -7.2210 O   0  0  0  0  0  0  0  0  0  0  0  0
    5.0423   -5.1503   -6.4697 C   0  0  0  0  0  0  0  0  0  0  0  0
    3.5009   -2.0496   -7.6487 C   0  0  0  0  0  0  0  0  0  0  0  0
    2.8955   -2.6200   -8.7169 O   0  0  0  0  0  0  0  0  0  0  0  0
    2.1533   -1.8035   -9.5952 C   0  0  0  0  0  0  0  0  0  0  0  0
    3.4200   -0.6991   -7.3197 C   0  0  0  0  0  0  0  0  0  0  0  0
    3.9599    2.2925   -6.9761 C   0  0  0  0  0  0  0  0  0  0  0  0
    3.8933    2.1176   -8.1733 O   0  0  0  0  0  0  0  0  0  0  0  0
    4.0304    3.5399   -6.3627 N   0  0  0  0  0  0  0  0  0  0  0  0
    3.9839    4.8170   -7.0683 C   0  0  0  0  0  0  0  0  0  0  0  0
    2.6142    5.4421   -7.0753 C   0  0  0  0  0  0  0  0  0  0  0  0
    1.8922    5.6386   -8.1912 C   0  0  0  0  0  0  0  0  0  0  0  0
    0.5579    6.2499   -8.3051 C   0  0  0  0  0  0  0  0  0  0  0  0
   -0.1264    6.7837   -7.1974 C   0  0  0  0  0  0  0  0  0  0  0  0
   -1.3964    7.3479   -7.3576 C   0  0  0  0  0  0  0  0  0  0  0  0
   -2.1276    7.8905   -6.3507 O   0  0  0  0  0  0  0  0  0  0  0  0
   -1.6150    7.8686   -5.0379 C   0  0  0  0  0  0  0  0  0  0  0  0
   -2.0110    7.3800   -8.6296 C   0  0  0  0  0  0  0  0  0  0  0  0
   -3.2725    7.8692   -8.7832 O   0  0  0  0  0  0  0  0  0  0  0  0
   -3.3872    9.2798   -8.8746 C   0  0  0  0  0  0  0  0  0  0  0  0
   -1.3167    6.8655   -9.7421 C   0  0  0  0  0  0  0  0  0  0  0  0
   -1.9629    6.9619  -10.9309 O   0  0  0  0  0  0  0  0  0  0  0  0
   -1.3558    6.4349  -12.0870 C   0  0  0  0  0  0  0  0  0  0  0  0
   -0.0454    6.2966   -9.5737 C   0  0  0  0  0  0  0  0  0  0  0  0
    4.0806    3.4059   -4.9778 C   0  0  0  0  0  0  0  0  0  0  0  0
    4.1359    4.3348   -4.2018 O   0  0  0  0  0  0  0  0  0  0  0  0
    4.6640    2.0988   -2.2564 C   0  0  0  0  0  0  0  0  0  0  0  0
    4.5777    1.6773   -0.9321 C   0  0  0  0  0  0  0  0  0  0  0  0
    5.2445    2.3842    0.0266 O   0  0  0  0  0  0  0  0  0  0  0  0
    6.2975    1.7253    0.7127 C   0  0  0  0  0  0  0  0  0  0  0  0
    2.9456   -0.8894    2.2136 H   0  0  0  0  0  0  0  0  0  0  0  0
    3.1342   -1.7746    0.6660 H   0  0  0  0  0  0  0  0  0  0  0  0
    1.7863   -0.6056    0.8763 H   0  0  0  0  0  0  0  0  0  0  0  0
    2.3827   -0.9117   -1.3842 H   0  0  0  0  0  0  0  0  0  0  0  0
    2.5713   -0.1622   -3.7124 H   0  0  0  0  0  0  0  0  0  0  0  0
    5.3831   -0.6754   -4.5260 H   0  0  0  0  0  0  0  0  0  0  0  0
    5.5433   -3.0620   -5.0923 H   0  0  0  0  0  0  0  0  0  0  0  0
    4.9171   -6.1235   -6.9629 H   0  0  0  0  0  0  0  0  0  0  0  0
    4.6777   -5.2265   -5.4291 H   0  0  0  0  0  0  0  0  0  0  0  0
    6.1173   -4.8946   -6.4503 H   0  0  0  0  0  0  0  0  0  0  0  0
    1.7823   -2.4614  -10.3926 H   0  0  0  0  0  0  0  0  0  0  0  0
    2.7761   -1.0084  -10.0424 H   0  0  0  0  0  0  0  0  0  0  0  0
    1.2906   -1.3326   -9.0896 H   0  0  0  0  0  0  0  0  0  0  0  0
    2.8547   -0.0212   -7.9535 H   0  0  0  0  0  0  0  0  0  0  0  0
    4.3311    4.6267   -8.0935 H   0  0  0  0  0  0  0  0  0  0  0  0
    4.7035    5.4850   -6.5676 H   0  0  0  0  0  0  0  0  0  0  0  0
    2.2277    5.7342   -6.0931 H   0  0  0  0  0  0  0  0  0  0  0  0
    2.3276    5.3088   -9.1425 H   0  0  0  0  0  0  0  0  0  0  0  0
    0.3405    6.7606   -6.2146 H   0  0  0  0  0  0  0  0  0  0  0  0
   -2.3747    8.3380   -4.3984 H   0  0  0  0  0  0  0  0  0  0  0  0
   -0.6730    8.4400   -4.9518 H   0  0  0  0  0  0  0  0  0  0  0  0
   -1.4369    6.8376   -4.6834 H   0  0  0  0  0  0  0  0  0  0  0  0
   -4.4547    9.5056   -9.0103 H   0  0  0  0  0  0  0  0  0  0  0  0
   -2.8265    9.6736   -9.7413 H   0  0  0  0  0  0  0  0  0  0  0  0
   -3.0304    9.7748   -7.9551 H   0  0  0  0  0  0  0  0  0  0  0  0
   -2.0562    6.6099  -12.9150 H   0  0  0  0  0  0  0  0  0  0  0  0
   -1.1729    5.3486  -11.9982 H   0  0  0  0  0  0  0  0  0  0  0  0
   -0.3982    6.9366  -12.3183 H   0  0  0  0  0  0  0  0  0  0  0  0
    0.4937    5.8871  -10.4276 H   0  0  0  0  0  0  0  0  0  0  0  0
    5.2864    2.9676   -2.4669 H   0  0  0  0  0  0  0  0  0  0  0  0
    6.7458    2.4676    1.3881 H   0  0  0  0  0  0  0  0  0  0  0  0
    7.0733    1.3723    0.0082 H   0  0  0  0  0  0  0  0  0  0  0  0
    5.9326    0.8717    1.3058 H   0  0  0  0  0  0  0  0  0  0  0  0
  1  2  1  0
  1 43  1  0
  1 44  1  0
  1 45  1  0
  2  3  1  0
  3  4  2  0
  3 40  1  0
  4  5  1  0
  4 46  1  0
  5  6  2  0
  5 47  1  0
  6  7  1  0
  6 39  1  0
  7  8  2  0
  7 37  1  0
  8  9  1  0
  8 19  1  0
  9 10  2  0
  9 18  1  0
 10 11  1  0
 10 48  1  0
 11 12  2  0
 11 49  1  0
 12 13  1  0
 12 15  1  0
 13 14  1  0
 14 50  1  0
 14 51  1  0
 14 52  1  0
 15 16  1  0
 15 18  2  0
 16 17  1  0
 17 53  1  0
 17 54  1  0
 17 55  1  0
 18 56  1  0
 19 20  2  0
 19 21  1  0
 21 22  1  0
 21 37  1  0
 22 23  1  0
 22 57  1  0
 22 58  1  0
 23 24  2  0
 23 59  1  0
 24 25  1  0
 24 60  1  0
 25 26  2  0
 25 36  1  0
 26 27  1  0
 26 61  1  0
 27 28  1  0
 27 30  2  0
 28 29  1  0
 29 62  1  0
 29 63  1  0
 29 64  1  0
 30 31  1  0
 30 33  1  0
 31 32  1  0
 32 65  1  0
 32 66  1  0
 32 67  1  0
 33 34  1  0
 33 36  2  0
 34 35  1  0
 35 68  1  0
 35 69  1  0
 35 70  1  0
 36 71  1  0
 37 38  2  0
 39 40  2  0
 39 72  1  0
 40 41  1  0
 41 42  1  0
 42 73  1  0
 42 74  1  0
 42 75  1  0
M  END

