
     RDKit          3D

 24 24  0  0  0  0  0  0  0  0999 V2000
    0.9095    0.1826   -0.6743 C   0  0  0  0  0  0  0  0  0  0  0  0
    2.2921    0.1276   -0.0500 C   0  0  1  0  0  0  0  0  0  0  0  0
    2.3009    0.2259    1.4648 C   0  0  0  0  0  0  0  0  0  0  0  0
    3.3412   -0.7343   -0.7219 C   0  0  0  0  0  0  0  0  0  0  0  0
    3.4244    0.7668   -0.8377 C   0  0  2  0  0  0  0  0  0  0  0  0
    4.4915    1.4339   -0.1531 N   0  0  0  0  0  0  0  0  0  0  0  0
    4.3974    2.7547    0.2935 C   0  0  0  0  0  0  0  0  0  0  0  0
    3.1798    3.2870    0.2418 O   0  0  0  0  0  0  0  0  0  0  0  0
    5.5351    3.6735   -0.1339 C   0  0  0  0  0  0  0  0  0  0  0  0
    6.7947    2.9607   -0.0020 N   0  0  0  0  0  0  0  0  0  0  0  0
    0.2866   -0.6589   -0.3260 H   0  0  0  0  0  0  0  0  0  0  0  0
    0.9555    0.1306   -1.7737 H   0  0  0  0  0  0  0  0  0  0  0  0
    0.3944    1.1191   -0.4026 H   0  0  0  0  0  0  0  0  0  0  0  0
    1.7356   -0.6109    1.9090 H   0  0  0  0  0  0  0  0  0  0  0  0
    1.8334    1.1679    1.7949 H   0  0  0  0  0  0  0  0  0  0  0  0
    3.3237    0.2033    1.8652 H   0  0  0  0  0  0  0  0  0  0  0  0
    3.0688   -1.3063   -1.6137 H   0  0  0  0  0  0  0  0  0  0  0  0
    4.0801   -1.2186   -0.0763 H   0  0  0  0  0  0  0  0  0  0  0  0
    3.1277    1.1993   -1.8058 H   0  0  0  0  0  0  0  0  0  0  0  0
    5.4519    1.2333   -0.4411 H   0  0  0  0  0  0  0  0  0  0  0  0
    5.4618    4.6146    0.4432 H   0  0  0  0  0  0  0  0  0  0  0  0
    5.4103    3.9505   -1.2080 H   0  0  0  0  0  0  0  0  0  0  0  0
    7.1057    2.9288    0.9681 H   0  0  0  0  0  0  0  0  0  0  0  0
    7.5275    3.3857   -0.5664 H   0  0  0  0  0  0  0  0  0  0  0  0
  2  1  1  6
  1 11  1  0
  1 12  1  0
  1 13  1  0
  2  3  1  0
  2  4  1  0
  2  5  1  0
  3 14  1  0
  3 15  1  0
  3 16  1  0
  4  5  1  0
  4 17  1  0
  4 18  1  0
  5  6  1  0
  5 19  1  6
  6  7  1  0
  6 20  1  0
  7  8  2  0
  7  9  1  0
  9 10  1  0
  9 21  1  0
  9 22  1  0
 10 23  1  0
 10 24  1  0
M  END

