
     RDKit          3D

 29 30  0  0  0  0  0  0  0  0999 V2000
    3.7171   -2.9833    5.1329 O   0  0  0  0  0  0  0  0  0  0  0  0
    4.0015   -1.6475    4.7780 C   0  0  0  0  0  0  0  0  0  0  0  0
    4.8549   -1.6836    3.5224 C   0  0  0  0  0  0  0  0  0  0  0  0
    5.1387   -0.3571    3.1460 O   0  0  0  0  0  0  0  0  0  0  0  0
    5.9208   -0.2376    1.9873 C   0  0  0  0  0  0  0  0  0  0  0  0
    6.2639    1.2197    1.7557 C   0  0  0  0  0  0  0  0  0  0  0  0
    7.2525    2.0156    3.1434 S   0  0  0  0  0  0  0  0  0  0  0  0
    8.5824    1.0059    3.4311 C   0  0  0  0  0  0  0  0  0  0  0  0
    9.7796    0.9111    2.7151 N   0  0  0  0  0  0  0  0  0  0  0  0
   10.5244   -0.0070    3.0944 N   0  0  0  0  0  0  0  0  0  0  0  0
   10.1614   -0.8468    4.0529 C   0  0  0  0  0  0  0  0  0  0  0  0
   10.9022   -1.9942    4.5929 C   0  0  1  0  0  0  0  0  0  0  0  0
   10.6459   -3.4062    4.0765 C   0  0  0  0  0  0  0  0  0  0  0  0
   11.9222   -2.6975    3.7290 C   0  0  0  0  0  0  0  0  0  0  0  0
    8.5112   -0.3571    4.6001 S   0  0  0  0  0  0  0  0  0  0  0  0
    3.1903   -2.9801    5.9406 H   0  0  0  0  0  0  0  0  0  0  0  0
    4.5609   -1.1085    5.5683 H   0  0  0  0  0  0  0  0  0  0  0  0
    3.0848   -1.0610    4.5665 H   0  0  0  0  0  0  0  0  0  0  0  0
    4.3080   -2.2231    2.7219 H   0  0  0  0  0  0  0  0  0  0  0  0
    5.7869   -2.2476    3.7259 H   0  0  0  0  0  0  0  0  0  0  0  0
    5.3741   -0.6220    1.0985 H   0  0  0  0  0  0  0  0  0  0  0  0
    6.8505   -0.8357    2.0732 H   0  0  0  0  0  0  0  0  0  0  0  0
    5.3550    1.8388    1.6867 H   0  0  0  0  0  0  0  0  0  0  0  0
    6.8513    1.3382    0.8322 H   0  0  0  0  0  0  0  0  0  0  0  0
   11.1409   -1.9303    5.6636 H   0  0  0  0  0  0  0  0  0  0  0  0
    9.8922   -3.5229    3.2930 H   0  0  0  0  0  0  0  0  0  0  0  0
   10.6800   -4.2226    4.8036 H   0  0  0  0  0  0  0  0  0  0  0  0
   12.0483   -2.3280    2.7082 H   0  0  0  0  0  0  0  0  0  0  0  0
   12.8492   -3.0192    4.2107 H   0  0  0  0  0  0  0  0  0  0  0  0
  1  2  1  0
  1 16  1  0
  2  3  1  0
  2 17  1  0
  2 18  1  0
  3  4  1  0
  3 19  1  0
  3 20  1  0
  4  5  1  0
  5  6  1  0
  5 21  1  0
  5 22  1  0
  6  7  1  0
  6 23  1  0
  6 24  1  0
  7  8  1  0
  8  9  2  0
  8 15  1  0
  9 10  1  0
 10 11  2  0
 11 12  1  0
 11 15  1  0
 12 13  1  0
 12 14  1  0
 12 25  1  1
 13 14  1  0
 13 26  1  0
 13 27  1  0
 14 28  1  0
 14 29  1  0
M  END

