
     RDKit          3D

 39 40  0  0  0  0  0  0  0  0999 V2000
    1.4272   -0.0769    0.7481 C   0  0  0  0  0  0  0  0  0  0  0  0
    2.7946    0.0283    0.0488 C   0  0  1  0  0  0  0  0  0  0  0  0
    3.4936    0.4170    0.8032 H   0  0  0  0  0  0  0  0  0  0  0  0
    3.3445   -1.3659   -0.3283 C   0  0  0  0  0  0  0  0  0  0  0  0
    2.7729   -1.9191   -1.6329 C   0  0  0  0  0  0  0  0  0  0  0  0
    2.9619   -0.9088   -2.7632 C   0  0  0  0  0  0  0  0  0  0  0  0
    2.2945    0.4756   -2.5142 C   0  0  2  0  0  0  0  0  0  0  0  0
    0.7620    0.2577   -2.4973 C   0  0  0  0  0  0  0  0  0  0  0  0
    2.6369    1.3484   -3.7491 C   0  0  0  0  0  0  0  0  0  0  0  0
    2.8840    1.0589   -1.1452 C   0  0  2  0  0  0  0  0  0  0  0  0
    4.3797    1.3909   -1.3858 C   0  0  0  0  0  0  0  0  0  0  0  0
    5.3090    0.9624   -0.7491 O   0  0  0  0  0  0  0  0  0  0  0  0
    2.3636    2.4462   -0.6743 C   0  0  0  0  0  0  0  0  0  0  0  0
    1.3992    3.2292   -1.3296 C   0  0  0  0  0  0  0  0  0  0  0  0
    1.0242    4.4746   -0.8294 C   0  0  0  0  0  0  0  0  0  0  0  0
    0.0994    5.1940   -1.4701 F   0  0  0  0  0  0  0  0  0  0  0  0
    1.5930    4.9999    0.3294 C   0  0  0  0  0  0  0  0  0  0  0  0
    1.2287    6.1893    0.7984 F   0  0  0  0  0  0  0  0  0  0  0  0
    2.5653    4.2346    0.9770 C   0  0  0  0  0  0  0  0  0  0  0  0
    3.1315    4.7254    2.0808 F   0  0  0  0  0  0  0  0  0  0  0  0
    2.9485    2.9922    0.4884 C   0  0  0  0  0  0  0  0  0  0  0  0
    1.5620   -0.5578    1.7303 H   0  0  0  0  0  0  0  0  0  0  0  0
    0.7024   -0.6901    0.1941 H   0  0  0  0  0  0  0  0  0  0  0  0
    0.9638    0.9048    0.9257 H   0  0  0  0  0  0  0  0  0  0  0  0
    3.1461   -2.0593    0.5065 H   0  0  0  0  0  0  0  0  0  0  0  0
    4.4381   -1.2968   -0.4218 H   0  0  0  0  0  0  0  0  0  0  0  0
    1.7061   -2.1758   -1.5204 H   0  0  0  0  0  0  0  0  0  0  0  0
    3.2809   -2.8629   -1.8925 H   0  0  0  0  0  0  0  0  0  0  0  0
    2.5659   -1.3114   -3.7112 H   0  0  0  0  0  0  0  0  0  0  0  0
    4.0445   -0.7616   -2.9281 H   0  0  0  0  0  0  0  0  0  0  0  0
    0.4581   -0.1717   -3.4657 H   0  0  0  0  0  0  0  0  0  0  0  0
    0.1823    1.1779   -2.3599 H   0  0  0  0  0  0  0  0  0  0  0  0
    0.4376   -0.4427   -1.7208 H   0  0  0  0  0  0  0  0  0  0  0  0
    2.1124    0.9432   -4.6289 H   0  0  0  0  0  0  0  0  0  0  0  0
    3.7099    1.3299   -3.9894 H   0  0  0  0  0  0  0  0  0  0  0  0
    2.3402    2.4009   -3.6472 H   0  0  0  0  0  0  0  0  0  0  0  0
    4.5539    2.1453   -2.1901 H   0  0  0  0  0  0  0  0  0  0  0  0
    0.8999    2.9159   -2.2405 H   0  0  0  0  0  0  0  0  0  0  0  0
    3.7257    2.4652    1.0425 H   0  0  0  0  0  0  0  0  0  0  0  0
  1  2  1  0
  1 22  1  0
  1 23  1  0
  1 24  1  0
  2  3  1  1
  2  4  1  0
  2 10  1  0
  4  5  1  0
  4 25  1  0
  4 26  1  0
  5  6  1  0
  5 27  1  0
  5 28  1  0
  6  7  1  0
  6 29  1  0
  6 30  1  0
  7  8  1  1
  7  9  1  0
  7 10  1  0
  8 31  1  0
  8 32  1  0
  8 33  1  0
  9 34  1  0
  9 35  1  0
  9 36  1  0
 10 11  1  6
 10 13  1  0
 11 12  2  0
 11 37  1  0
 13 14  2  0
 13 21  1  0
 14 15  1  0
 14 38  1  0
 15 16  1  0
 15 17  2  0
 17 18  1  0
 17 19  1  0
 19 20  1  0
 19 21  2  0
 21 39  1  0
M  END

