
     RDKit          3D

 33 34  0  0  0  0  0  0  0  0999 V2000
    1.3342    0.8083    1.0502 C   0  0  0  0  0  0  0  0  0  0  0  0
    2.7654    0.6426    0.6142 C   0  0  0  0  0  0  0  0  0  0  0  0
    3.8289    0.4611    1.5097 C   0  0  0  0  0  0  0  0  0  0  0  0
    5.1472    0.3144    1.0712 C   0  0  0  0  0  0  0  0  0  0  0  0
    5.4611    0.3439   -0.2972 C   0  0  0  0  0  0  0  0  0  0  0  0
    6.9200    0.1548   -0.7559 C   0  0  1  0  0  0  0  0  0  0  0  0
    7.1581    0.8106   -2.1410 C   0  0  0  0  0  0  0  0  0  0  0  0
    7.7769    0.7503    0.2860 N   0  0  0  0  0  0  0  0  0  0  0  0
    7.2705   -1.3505   -0.8590 C   0  0  0  0  0  0  0  0  0  0  0  0
    6.3129   -2.3723   -0.7585 C   0  0  0  0  0  0  0  0  0  0  0  0
    6.6393   -3.7262   -0.8782 C   0  0  0  0  0  0  0  0  0  0  0  0
    7.9650   -4.0793   -1.1044 C   0  0  0  0  0  0  0  0  0  0  0  0
    8.3000   -5.3705   -1.2187 F   0  0  0  0  0  0  0  0  0  0  0  0
    8.9596   -3.1119   -1.2162 C   0  0  0  0  0  0  0  0  0  0  0  0
    8.5873   -1.7772   -1.0960 C   0  0  0  0  0  0  0  0  0  0  0  0
    9.5764   -0.8618   -1.2204 F   0  0  0  0  0  0  0  0  0  0  0  0
    4.4084    0.5254   -1.2074 C   0  0  0  0  0  0  0  0  0  0  0  0
    3.1051    0.6673   -0.7422 C   0  0  0  0  0  0  0  0  0  0  0  0
    2.1190    0.8418   -1.6445 F   0  0  0  0  0  0  0  0  0  0  0  0
    1.2462    0.7522    2.1447 H   0  0  0  0  0  0  0  0  0  0  0  0
    0.6885    0.0295    0.6122 H   0  0  0  0  0  0  0  0  0  0  0  0
    0.9245    1.7777    0.7214 H   0  0  0  0  0  0  0  0  0  0  0  0
    3.6142    0.4358    2.5820 H   0  0  0  0  0  0  0  0  0  0  0  0
    5.9572    0.1803    1.7883 H   0  0  0  0  0  0  0  0  0  0  0  0
    6.8702    1.8737   -2.1144 H   0  0  0  0  0  0  0  0  0  0  0  0
    6.5907    0.3198   -2.9461 H   0  0  0  0  0  0  0  0  0  0  0  0
    8.2235    0.7463   -2.4022 H   0  0  0  0  0  0  0  0  0  0  0  0
    7.5773    1.7491    0.3555 H   0  0  0  0  0  0  0  0  0  0  0  0
    8.7571    0.6600    0.0258 H   0  0  0  0  0  0  0  0  0  0  0  0
    5.2728   -2.1023   -0.5766 H   0  0  0  0  0  0  0  0  0  0  0  0
    5.8794   -4.5047   -0.7948 H   0  0  0  0  0  0  0  0  0  0  0  0
   10.0003   -3.3836   -1.3949 H   0  0  0  0  0  0  0  0  0  0  0  0
    4.5663    0.5578   -2.2852 H   0  0  0  0  0  0  0  0  0  0  0  0
  1  2  1  0
  1 20  1  0
  1 21  1  0
  1 22  1  0
  2  3  2  0
  2 18  1  0
  3  4  1  0
  3 23  1  0
  4  5  2  0
  4 24  1  0
  5  6  1  0
  5 17  1  0
  6  7  1  0
  6  8  1  1
  6  9  1  0
  7 25  1  0
  7 26  1  0
  7 27  1  0
  8 28  1  0
  8 29  1  0
  9 10  2  0
  9 15  1  0
 10 11  1  0
 10 30  1  0
 11 12  2  0
 11 31  1  0
 12 13  1  0
 12 14  1  0
 14 15  2  0
 14 32  1  0
 15 16  1  0
 17 18  2  0
 17 33  1  0
 18 19  1  0
M  END

