
     RDKit          3D

 45 46  0  0  0  0  0  0  0  0999 V2000
    6.1861    1.1683   -2.0366 C   0  0  0  0  0  0  0  0  0  0  0  0
    5.9174   -0.0073   -2.9919 C   0  0  1  0  0  0  0  0  0  0  0  0
    5.1520    0.4913   -4.2392 C   0  0  0  0  0  0  0  0  0  0  0  0
    7.2552   -0.6482   -3.4277 C   0  0  0  0  0  0  0  0  0  0  0  0
    5.0837   -1.0385   -2.2794 C   0  0  0  0  0  0  0  0  0  0  0  0
    4.5316   -1.1559   -1.0299 C   0  0  0  0  0  0  0  0  0  0  0  0
    3.8546   -2.3550   -0.9426 N   0  0  0  0  0  0  0  0  0  0  0  0
    4.0128   -2.9108   -2.1075 C   0  0  0  0  0  0  0  0  0  0  0  0
    3.4862   -4.2308   -2.5729 C   0  0  0  0  0  0  0  0  0  0  0  0
    3.6805   -4.6524   -3.6985 O   0  0  0  0  0  0  0  0  0  0  0  0
    2.7808   -4.8708   -1.5965 N   0  0  0  0  0  0  0  0  0  0  0  0
    2.1622   -6.1609   -1.7933 C   0  0  0  0  0  0  0  0  0  0  0  0
    0.6488   -6.1614   -1.6652 C   0  0  0  0  0  0  0  0  0  0  0  0
   -0.1047   -4.9927   -1.5485 C   0  0  0  0  0  0  0  0  0  0  0  0
   -1.5004   -5.0315   -1.4339 C   0  0  0  0  0  0  0  0  0  0  0  0
   -2.1542   -6.2613   -1.4369 C   0  0  0  0  0  0  0  0  0  0  0  0
   -1.4243   -7.4508   -1.5562 C   0  0  0  0  0  0  0  0  0  0  0  0
   -0.0300   -7.4020   -1.6721 C   0  0  0  0  0  0  0  0  0  0  0  0
    0.7622   -8.5049   -1.8043 O   0  0  0  0  0  0  0  0  0  0  0  0
    0.1846   -9.8027   -1.8340 C   0  0  0  0  0  0  0  0  0  0  0  0
    1.3294  -10.7937   -1.9509 C   0  0  0  0  0  0  0  0  0  0  0  0
    2.1901  -10.7443   -0.8402 O   0  0  0  0  0  0  0  0  0  0  0  0
    4.7453   -2.1693   -2.9646 O   0  0  0  0  0  0  0  0  0  0  0  0
    6.7973    1.9318   -2.5424 H   0  0  0  0  0  0  0  0  0  0  0  0
    6.7332    0.8416   -1.1382 H   0  0  0  0  0  0  0  0  0  0  0  0
    5.2493    1.6486   -1.7130 H   0  0  0  0  0  0  0  0  0  0  0  0
    5.7568    1.2336   -4.7845 H   0  0  0  0  0  0  0  0  0  0  0  0
    4.1993    0.9663   -3.9566 H   0  0  0  0  0  0  0  0  0  0  0  0
    4.9283   -0.3396   -4.9249 H   0  0  0  0  0  0  0  0  0  0  0  0
    7.8733    0.0903   -3.9630 H   0  0  0  0  0  0  0  0  0  0  0  0
    7.0840   -1.5035   -4.0985 H   0  0  0  0  0  0  0  0  0  0  0  0
    7.8260   -1.0065   -2.5567 H   0  0  0  0  0  0  0  0  0  0  0  0
    4.5811   -0.4569   -0.1983 H   0  0  0  0  0  0  0  0  0  0  0  0
    2.7210   -4.4060   -0.6952 H   0  0  0  0  0  0  0  0  0  0  0  0
    2.5830   -6.8949   -1.0833 H   0  0  0  0  0  0  0  0  0  0  0  0
    2.4573   -6.5035   -2.7975 H   0  0  0  0  0  0  0  0  0  0  0  0
    0.4138   -4.0315   -1.5529 H   0  0  0  0  0  0  0  0  0  0  0  0
   -2.0676   -4.1022   -1.3451 H   0  0  0  0  0  0  0  0  0  0  0  0
   -3.2426   -6.3088   -1.3486 H   0  0  0  0  0  0  0  0  0  0  0  0
   -1.9502   -8.4055   -1.5610 H   0  0  0  0  0  0  0  0  0  0  0  0
   -0.5078   -9.8999   -2.6913 H   0  0  0  0  0  0  0  0  0  0  0  0
   -0.3795   -9.9884   -0.9018 H   0  0  0  0  0  0  0  0  0  0  0  0
    1.8666  -10.6090   -2.9037 H   0  0  0  0  0  0  0  0  0  0  0  0
    0.9122  -11.8126   -2.0006 H   0  0  0  0  0  0  0  0  0  0  0  0
    2.5021   -9.8315   -0.7681 H   0  0  0  0  0  0  0  0  0  0  0  0
  2  1  1  1
  1 24  1  0
  1 25  1  0
  1 26  1  0
  2  3  1  0
  2  4  1  0
  2  5  1  0
  3 27  1  0
  3 28  1  0
  3 29  1  0
  4 30  1  0
  4 31  1  0
  4 32  1  0
  5  6  2  0
  5 23  1  0
  6  7  1  0
  6 33  1  0
  7  8  2  0
  8  9  1  0
  8 23  1  0
  9 10  2  0
  9 11  1  0
 11 12  1  0
 11 34  1  0
 12 13  1  0
 12 35  1  0
 12 36  1  0
 13 14  2  0
 13 18  1  0
 14 15  1  0
 14 37  1  0
 15 16  2  0
 15 38  1  0
 16 17  1  0
 16 39  1  0
 17 18  2  0
 17 40  1  0
 18 19  1  0
 19 20  1  0
 20 21  1  0
 20 41  1  0
 20 42  1  0
 21 22  1  0
 21 43  1  0
 21 44  1  0
 22 45  1  0
M  END

