
     RDKit          3D

 27 27  0  0  0  0  0  0  0  0999 V2000
    1.2930    2.4487    0.5316 C   0  0  0  0  0  0  0  0  0  0  0  0
    2.7252    2.4290    0.4759 O   0  0  0  0  0  0  0  0  0  0  0  0
    3.2840    1.3282   -0.0429 C   0  0  0  0  0  0  0  0  0  0  0  0
    2.6670    0.3743   -0.4473 O   0  0  0  0  0  0  0  0  0  0  0  0
    4.7829    1.4117   -0.0627 C   0  0  0  0  0  0  0  0  0  0  0  0
    5.4715    2.5303    0.5023 C   0  0  0  0  0  0  0  0  0  0  0  0
    6.8428    2.5663    0.4791 C   0  0  0  0  0  0  0  0  0  0  0  0
    7.5604    1.4802   -0.0982 C   0  0  0  0  0  0  0  0  0  0  0  0
    8.8689    1.4291   -0.0723 O   0  0  0  0  0  0  0  0  0  0  0  0
    6.8824    0.3585   -0.7242 C   0  0  0  0  0  0  0  0  0  0  0  0
    7.6691   -0.6388   -1.4915 C   0  0  0  0  0  0  0  0  0  0  0  0
    8.1285   -0.0571   -2.8610 C   0  0  0  0  0  0  0  0  0  0  0  0
    8.6534    1.0973   -2.9364 O   0  0  0  0  0  0  0  0  0  0  0  0
    7.9386   -0.9248   -4.0005 C   0  0  0  0  0  0  0  0  0  0  0  0
    7.4231   -2.0442   -3.9876 O   0  0  0  0  0  0  0  0  0  0  0  0
    8.3990   -0.3617   -5.1583 O   0  0  0  0  0  0  0  0  0  0  0  0
    5.4924    0.3610   -0.6614 C   0  0  0  0  0  0  0  0  0  0  0  0
    1.0199    3.4141    0.9728 H   0  0  0  0  0  0  0  0  0  0  0  0
    0.9215    1.6202    1.1522 H   0  0  0  0  0  0  0  0  0  0  0  0
    0.8689    2.3510   -0.4784 H   0  0  0  0  0  0  0  0  0  0  0  0
    4.8943    3.3382    0.9506 H   0  0  0  0  0  0  0  0  0  0  0  0
    7.3946    3.4029    0.9153 H   0  0  0  0  0  0  0  0  0  0  0  0
    9.2663    2.2543    0.2517 H   0  0  0  0  0  0  0  0  0  0  0  0
    7.0711   -1.5355   -1.6975 H   0  0  0  0  0  0  0  0  0  0  0  0
    8.5651   -0.9301   -0.9202 H   0  0  0  0  0  0  0  0  0  0  0  0
    8.7481    0.5049   -4.8733 H   0  0  0  0  0  0  0  0  0  0  0  0
    4.9288   -0.4585   -1.1093 H   0  0  0  0  0  0  0  0  0  0  0  0
  1  2  1  0
  1 18  1  0
  1 19  1  0
  1 20  1  0
  2  3  1  0
  3  4  2  0
  3  5  1  0
  5  6  2  0
  5 17  1  0
  6  7  1  0
  6 21  1  0
  7  8  2  0
  7 22  1  0
  8  9  1  0
  8 10  1  0
  9 23  1  0
 10 11  1  0
 10 17  2  0
 11 12  1  0
 11 24  1  0
 11 25  1  0
 12 13  2  0
 12 14  1  0
 14 15  2  0
 14 16  1  0
 16 26  1  0
 17 27  1  0
M  END

