
     RDKit          3D

 28 29  0  0  0  0  0  0  0  0999 V2000
    1.6943   -0.8796    1.2643 C   0  0  0  0  0  0  0  0  0  0  0  0
    2.4891   -0.1589    0.1723 C   0  0  0  0  0  0  0  0  0  0  0  0
    3.2485    0.9828    0.6471 N   0  0  0  0  0  0  0  0  0  0  0  0
    4.4851    0.8991    1.2122 C   0  0  0  0  0  0  0  0  0  0  0  0
    4.9887    2.0779    1.6811 N   0  0  0  0  0  0  0  0  0  0  0  0
    6.1874    2.0660    2.2173 C   0  0  0  0  0  0  0  0  0  0  0  0
    6.7277    3.1998    2.6950 O   0  0  0  0  0  0  0  0  0  0  0  0
    5.9613    4.3904    2.6067 C   0  0  0  0  0  0  0  0  0  0  0  0
    6.7832    5.4958    3.2348 C   0  0  1  0  0  0  0  0  0  0  0  0
    6.1299    6.6729    3.0414 F   0  0  0  0  0  0  0  0  0  0  0  0
    6.9058    5.2959    4.5699 F   0  0  0  0  0  0  0  0  0  0  0  0
    6.9379    0.8776    2.3050 C   0  0  0  0  0  0  0  0  0  0  0  0
    8.5265    0.5754    2.9552 S   0  0  0  0  0  0  0  0  0  0  0  0
    8.3752   -1.1112    2.5424 C   0  0  0  0  0  0  0  0  0  0  0  0
    7.1896   -1.4345    1.9472 C   0  0  0  0  0  0  0  0  0  0  0  0
    6.3273   -0.2900    1.7949 C   0  0  0  0  0  0  0  0  0  0  0  0
    5.0958   -0.2841    1.2514 N   0  0  0  0  0  0  0  0  0  0  0  0
    1.1282   -1.7235    0.8373 H   0  0  0  0  0  0  0  0  0  0  0  0
    0.9761   -0.2005    1.7525 H   0  0  0  0  0  0  0  0  0  0  0  0
    2.3731   -1.2776    2.0339 H   0  0  0  0  0  0  0  0  0  0  0  0
    1.8111    0.1975   -0.6211 H   0  0  0  0  0  0  0  0  0  0  0  0
    3.1973   -0.8601   -0.2928 H   0  0  0  0  0  0  0  0  0  0  0  0
    2.8011    1.8876    0.7211 H   0  0  0  0  0  0  0  0  0  0  0  0
    5.0047    4.2928    3.1444 H   0  0  0  0  0  0  0  0  0  0  0  0
    5.7393    4.6418    1.5575 H   0  0  0  0  0  0  0  0  0  0  0  0
    7.7958    5.5718    2.8004 H   0  0  0  0  0  0  0  0  0  0  0  0
    9.2008   -1.7843    2.7734 H   0  0  0  0  0  0  0  0  0  0  0  0
    6.9127   -2.4362    1.6192 H   0  0  0  0  0  0  0  0  0  0  0  0
  1  2  1  0
  1 18  1  0
  1 19  1  0
  1 20  1  0
  2  3  1  0
  2 21  1  0
  2 22  1  0
  3  4  1  0
  3 23  1  0
  4  5  2  0
  4 17  1  0
  5  6  1  0
  6  7  1  0
  6 12  2  0
  7  8  1  0
  8  9  1  0
  8 24  1  0
  8 25  1  0
  9 10  1  0
  9 11  1  0
  9 26  1  6
 12 13  1  0
 12 16  1  0
 13 14  1  0
 14 15  2  0
 14 27  1  0
 15 16  1  0
 15 28  1  0
 16 17  2  0
M  END

