
     RDKit          3D

 39 40  0  0  0  0  0  0  0  0999 V2000
    1.1518   -0.4272    0.4510 C   0  0  0  0  0  0  0  0  0  0  0  0
    2.6182   -0.0776    0.1233 C   0  0  1  0  0  0  0  0  0  0  0  0
    3.3768    0.1391    1.4460 C   0  0  0  0  0  0  0  0  0  0  0  0
    3.2060   -1.2719   -0.6739 C   0  0  0  0  0  0  0  0  0  0  0  0
    4.6527   -1.1701   -1.1679 C   0  0  0  0  0  0  0  0  0  0  0  0
    4.9694    0.0652   -2.0250 C   0  0  0  0  0  0  0  0  0  0  0  0
    5.0973    1.3152   -1.2762 N   0  0  0  0  0  0  0  0  0  0  0  0
    6.3131    1.6008   -0.6507 C   0  0  0  0  0  0  0  0  0  0  0  0
    7.2147    0.6162   -0.7454 O   0  0  0  0  0  0  0  0  0  0  0  0
    6.9924    2.9771   -0.8248 C   0  0  1  0  0  0  0  0  0  0  0  0
    7.1300    3.4401   -2.3062 C   0  0  0  0  0  0  0  0  0  0  0  0
    6.9401    4.9632   -2.2631 C   0  0  0  0  0  0  0  0  0  0  0  0
    6.1819    5.2258   -0.9609 C   0  0  0  0  0  0  0  0  0  0  0  0
    5.6593    6.2601   -0.6052 O   0  0  0  0  0  0  0  0  0  0  0  0
    6.2350    4.0629   -0.2308 N   0  0  0  0  0  0  0  0  0  0  0  0
    3.8944    2.0404   -0.8561 C   0  0  0  0  0  0  0  0  0  0  0  0
    2.6076    1.2100   -0.7461 C   0  0  0  0  0  0  0  0  0  0  0  0
    1.0865   -1.3686    1.0203 H   0  0  0  0  0  0  0  0  0  0  0  0
    0.5539   -0.5504   -0.4673 H   0  0  0  0  0  0  0  0  0  0  0  0
    0.6791    0.3642    1.0553 H   0  0  0  0  0  0  0  0  0  0  0  0
    3.3146   -0.7626    2.0773 H   0  0  0  0  0  0  0  0  0  0  0  0
    2.9363    0.9719    2.0197 H   0  0  0  0  0  0  0  0  0  0  0  0
    4.4429    0.3669    1.2958 H   0  0  0  0  0  0  0  0  0  0  0  0
    2.5519   -1.4387   -1.5500 H   0  0  0  0  0  0  0  0  0  0  0  0
    3.1122   -2.1816   -0.0551 H   0  0  0  0  0  0  0  0  0  0  0  0
    4.8734   -2.0688   -1.7705 H   0  0  0  0  0  0  0  0  0  0  0  0
    5.3656   -1.1939   -0.3262 H   0  0  0  0  0  0  0  0  0  0  0  0
    4.1962    0.2004   -2.8006 H   0  0  0  0  0  0  0  0  0  0  0  0
    5.9236   -0.0949   -2.5485 H   0  0  0  0  0  0  0  0  0  0  0  0
    7.9864    2.8871   -0.3513 H   0  0  0  0  0  0  0  0  0  0  0  0
    6.3218    2.9717   -2.8900 H   0  0  0  0  0  0  0  0  0  0  0  0
    8.0869    3.1204   -2.7402 H   0  0  0  0  0  0  0  0  0  0  0  0
    6.3900    5.3844   -3.1174 H   0  0  0  0  0  0  0  0  0  0  0  0
    7.8992    5.5053   -2.1976 H   0  0  0  0  0  0  0  0  0  0  0  0
    5.9215    4.0421    0.7338 H   0  0  0  0  0  0  0  0  0  0  0  0
    3.6909    2.8828   -1.5445 H   0  0  0  0  0  0  0  0  0  0  0  0
    4.1113    2.4939    0.1216 H   0  0  0  0  0  0  0  0  0  0  0  0
    2.2358    0.9496   -1.7520 H   0  0  0  0  0  0  0  0  0  0  0  0
    1.8561    1.9065   -0.3345 H   0  0  0  0  0  0  0  0  0  0  0  0
  2  1  1  1
  1 18  1  0
  1 19  1  0
  1 20  1  0
  2  3  1  0
  2  4  1  0
  2 17  1  0
  3 21  1  0
  3 22  1  0
  3 23  1  0
  4  5  1  0
  4 24  1  0
  4 25  1  0
  5  6  1  0
  5 26  1  0
  5 27  1  0
  6  7  1  0
  6 28  1  0
  6 29  1  0
  7  8  1  0
  7 16  1  0
  8  9  2  0
  8 10  1  0
 10 11  1  0
 10 15  1  0
 10 30  1  1
 11 12  1  0
 11 31  1  0
 11 32  1  0
 12 13  1  0
 12 33  1  0
 12 34  1  0
 13 14  2  0
 13 15  1  0
 15 35  1  0
 16 17  1  0
 16 36  1  0
 16 37  1  0
 17 38  1  0
 17 39  1  0
M  END

