
     RDKit          3D

218221  0  0  0  0  0  0  0  0999 V2000
    1.8891    0.7862    0.5042 C   0  0  0  0  0  0  0  0  0  0  0  0
    3.3643    0.3482    0.5106 C   0  0  1  0  0  0  0  0  0  0  0  0
    4.1362    1.0605    1.6344 C   0  0  0  0  0  0  0  0  0  0  0  0
    3.5565   -1.5628    0.5161 Si  0  0  1  0  0  4  0  0  0  0  0  0
    2.8071   -2.2281    2.0783 C   0  0  0  0  0  0  0  0  0  0  0  0
    2.3576   -2.6721    3.1349 C   0  0  0  0  0  0  0  0  0  0  0  0
    1.8718   -3.1831    4.3634 C   0  0  0  0  0  0  0  0  0  0  0  0
    1.3112   -2.3095    5.3285 C   0  0  0  0  0  0  0  0  0  0  0  0
    0.8801   -2.7830    6.5757 C   0  0  0  0  0  0  0  0  0  0  0  0
    0.3290   -1.8887    7.5722 C   0  0  0  0  0  0  0  0  0  0  0  0
    0.1032   -0.5298    7.2286 C   0  0  0  0  0  0  0  0  0  0  0  0
   -0.1200    0.6200    6.8582 C   0  0  0  0  0  0  0  0  0  0  0  0
   -0.4682    2.3181    6.1987 Si  0  0  1  0  0  4  0  0  0  0  0  0
   -1.4542    2.1223    4.5636 C   0  0  1  0  0  0  0  0  0  0  0  0
   -0.6312    1.4292    3.4652 C   0  0  0  0  0  0  0  0  0  0  0  0
   -2.8094    1.4191    4.7524 C   0  0  0  0  0  0  0  0  0  0  0  0
   -1.4449    3.3187    7.5155 C   0  0  1  0  0  0  0  0  0  0  0  0
   -2.0908    4.5918    6.9371 C   0  0  0  0  0  0  0  0  0  0  0  0
   -2.4759    2.4886    8.2989 C   0  0  0  0  0  0  0  0  0  0  0  0
    1.2509    3.0994    5.8382 C   0  0  1  0  0  0  0  0  0  0  0  0
    1.1966    4.4407    5.0868 C   0  0  0  0  0  0  0  0  0  0  0  0
    2.1281    3.2041    7.0972 C   0  0  0  0  0  0  0  0  0  0  0  0
    0.0049   -2.3737    8.8607 C   0  0  0  0  0  0  0  0  0  0  0  0
   -0.4112   -1.4897    9.8907 C   0  0  0  0  0  0  0  0  0  0  0  0
   -0.7296   -0.7744   10.8372 C   0  0  0  0  0  0  0  0  0  0  0  0
   -1.1976    0.2443   12.3146 Si  0  0  1  0  0  4  0  0  0  0  0  0
   -0.1674   -0.3745   13.8105 C   0  0  1  0  0  0  0  0  0  0  0  0
   -0.5139   -1.8191   14.2082 C   0  0  0  0  0  0  0  0  0  0  0  0
    1.3494   -0.2168   13.6057 C   0  0  0  0  0  0  0  0  0  0  0  0
   -0.8651    2.0959   11.9257 C   0  0  1  0  0  0  0  0  0  0  0  0
   -0.8228    2.9749   13.1902 C   0  0  0  0  0  0  0  0  0  0  0  0
    0.3714    2.3421   11.0433 C   0  0  0  0  0  0  0  0  0  0  0  0
   -3.0639   -0.1001   12.6155 C   0  0  1  0  0  0  0  0  0  0  0  0
   -3.6215    0.5201   13.9085 C   0  0  0  0  0  0  0  0  0  0  0  0
   -3.9388    0.2640   11.4046 C   0  0  0  0  0  0  0  0  0  0  0  0
    0.1102   -3.7871    9.1538 C   0  0  0  0  0  0  0  0  0  0  0  0
   -0.2798   -4.3047   10.3967 C   0  0  0  0  0  0  0  0  0  0  0  0
   -0.1927   -5.6908   10.6766 C   0  0  0  0  0  0  0  0  0  0  0  0
   -0.6113   -6.1938   11.9323 C   0  0  0  0  0  0  0  0  0  0  0  0
   -0.9807   -6.6366   13.0197 C   0  0  0  0  0  0  0  0  0  0  0  0
   -1.4967   -7.3357   14.6586 Si  0  0  1  0  0  4  0  0  0  0  0  0
   -3.1235   -6.4750   15.2155 C   0  0  1  0  0  0  0  0  0  0  0  0
   -3.3734   -6.6052   16.7304 C   0  0  0  0  0  0  0  0  0  0  0  0
   -3.2634   -5.0131   14.7574 C   0  0  0  0  0  0  0  0  0  0  0  0
   -1.7660   -9.2142   14.3729 C   0  0  1  0  0  0  0  0  0  0  0  0
   -2.0241  -10.0103   15.6641 C   0  0  0  0  0  0  0  0  0  0  0  0
   -2.8496   -9.4992   13.3192 C   0  0  0  0  0  0  0  0  0  0  0  0
   -0.0521   -7.0459   15.8885 C   0  0  1  0  0  0  0  0  0  0  0  0
    1.2068   -7.8417   15.5044 C   0  0  0  0  0  0  0  0  0  0  0  0
    0.2779   -5.5569   16.0881 C   0  0  0  0  0  0  0  0  0  0  0  0
    0.3100   -6.5737    9.6891 C   0  0  0  0  0  0  0  0  0  0  0  0
    0.7167   -6.1042    8.4328 C   0  0  0  0  0  0  0  0  0  0  0  0
    1.2316   -7.0048    7.4243 C   0  0  0  0  0  0  0  0  0  0  0  0
    1.3234   -8.3908    7.7184 C   0  0  0  0  0  0  0  0  0  0  0  0
    1.3879   -9.5803    8.0174 C   0  0  0  0  0  0  0  0  0  0  0  0
    1.4770  -11.3772    8.4635 Si  0  0  1  0  0  4  0  0  0  0  0  0
    0.8425  -12.3674    6.9402 C   0  0  1  0  0  0  0  0  0  0  0  0
    0.6427  -13.8670    7.2248 C   0  0  0  0  0  0  0  0  0  0  0  0
   -0.3972  -11.7691    6.2527 C   0  0  0  0  0  0  0  0  0  0  0  0
    3.3278  -11.8320    8.7651 C   0  0  1  0  0  0  0  0  0  0  0  0
    4.1809  -10.6791    9.3239 C   0  0  0  0  0  0  0  0  0  0  0  0
    3.5187  -13.1082    9.6065 C   0  0  0  0  0  0  0  0  0  0  0  0
    0.4179  -11.6612   10.0381 C   0  0  1  0  0  0  0  0  0  0  0  0
    0.9376  -10.8650   11.2479 C   0  0  0  0  0  0  0  0  0  0  0  0
   -1.0822  -11.3993    9.8208 C   0  0  0  0  0  0  0  0  0  0  0  0
    1.6386   -6.5064    6.1648 C   0  0  0  0  0  0  0  0  0  0  0  0
    2.1397   -7.3899    5.1730 C   0  0  0  0  0  0  0  0  0  0  0  0
    2.5692   -8.1347    4.2963 C   0  0  0  0  0  0  0  0  0  0  0  0
    3.2123   -9.2813    2.9895 Si  0  0  1  0  0  4  0  0  0  0  0  0
    3.6436   -8.2384    1.4397 C   0  0  1  0  0  0  0  0  0  0  0  0
    2.4277   -7.5105    0.8422 C   0  0  0  0  0  0  0  0  0  0  0  0
    4.7955   -7.2535    1.7057 C   0  0  0  0  0  0  0  0  0  0  0  0
    4.8106  -10.0697    3.7084 C   0  0  1  0  0  0  0  0  0  0  0  0
    4.5460  -10.8717    4.9927 C   0  0  0  0  0  0  0  0  0  0  0  0
    5.6221  -10.8936    2.6941 C   0  0  0  0  0  0  0  0  0  0  0  0
    1.8638  -10.6068    2.6342 C   0  0  1  0  0  0  0  0  0  0  0  0
    0.4210  -10.0749    2.6899 C   0  0  0  0  0  0  0  0  0  0  0  0
    2.1149  -11.3802    1.3260 C   0  0  0  0  0  0  0  0  0  0  0  0
    1.5441   -5.0919    5.8752 C   0  0  0  0  0  0  0  0  0  0  0  0
    1.9679   -4.5688    4.6456 C   0  0  0  0  0  0  0  0  0  0  0  0
    1.0081   -4.1950    6.8810 C   0  0  0  0  0  0  0  0  0  0  0  0
    0.6147   -4.6887    8.1363 C   0  0  0  0  0  0  0  0  0  0  0  0
    2.5266   -2.2626   -0.9480 C   0  0  1  0  0  0  0  0  0  0  0  0
    3.0385   -1.7806   -2.3176 C   0  0  0  0  0  0  0  0  0  0  0  0
    2.3056   -3.7840   -0.9256 C   0  0  0  0  0  0  0  0  0  0  0  0
    5.4255   -2.0385    0.4953 C   0  0  1  0  0  0  0  0  0  0  0  0
    6.0709   -1.9907    1.8935 C   0  0  0  0  0  0  0  0  0  0  0  0
    5.7429   -3.3852   -0.1762 C   0  0  0  0  0  0  0  0  0  0  0  0
    1.8074    1.8871    0.4839 H   0  0  0  0  0  0  0  0  0  0  0  0
    1.3620    0.4366    1.4069 H   0  0  0  0  0  0  0  0  0  0  0  0
    1.3375    0.4046   -0.3690 H   0  0  0  0  0  0  0  0  0  0  0  0
    3.8136    0.6641   -0.4515 H   0  0  0  0  0  0  0  0  0  0  0  0
    3.7953    0.7338    2.6313 H   0  0  0  0  0  0  0  0  0  0  0  0
    3.9846    2.1528    1.5789 H   0  0  0  0  0  0  0  0  0  0  0  0
    5.2205    0.8812    1.5775 H   0  0  0  0  0  0  0  0  0  0  0  0
    1.2347   -1.2465    5.1045 H   0  0  0  0  0  0  0  0  0  0  0  0
   -1.6552    3.1586    4.2302 H   0  0  0  0  0  0  0  0  0  0  0  0
   -0.3699    0.3963    3.7508 H   0  0  0  0  0  0  0  0  0  0  0  0
    0.3075    1.9592    3.2418 H   0  0  0  0  0  0  0  0  0  0  0  0
   -1.2040    1.3689    2.5231 H   0  0  0  0  0  0  0  0  0  0  0  0
   -2.6817    0.4024    5.1595 H   0  0  0  0  0  0  0  0  0  0  0  0
   -3.3390    1.3232    3.7881 H   0  0  0  0  0  0  0  0  0  0  0  0
   -3.4751    1.9672    5.4364 H   0  0  0  0  0  0  0  0  0  0  0  0
   -0.6685    3.6365    8.2362 H   0  0  0  0  0  0  0  0  0  0  0  0
   -2.8876    4.3501    6.2142 H   0  0  0  0  0  0  0  0  0  0  0  0
   -1.3669    5.2422    6.4219 H   0  0  0  0  0  0  0  0  0  0  0  0
   -2.5563    5.1923    7.7383 H   0  0  0  0  0  0  0  0  0  0  0  0
   -3.2964    2.1360    7.6533 H   0  0  0  0  0  0  0  0  0  0  0  0
   -2.9353    3.0959    9.0990 H   0  0  0  0  0  0  0  0  0  0  0  0
   -2.0241    1.6012    8.7658 H   0  0  0  0  0  0  0  0  0  0  0  0
    1.7295    2.3612    5.1670 H   0  0  0  0  0  0  0  0  0  0  0  0
    0.7650    5.2403    5.7114 H   0  0  0  0  0  0  0  0  0  0  0  0
    0.5997    4.3857    4.1621 H   0  0  0  0  0  0  0  0  0  0  0  0
    2.2109    4.7718    4.8023 H   0  0  0  0  0  0  0  0  0  0  0  0
    1.7217    3.9348    7.8171 H   0  0  0  0  0  0  0  0  0  0  0  0
    3.1484    3.5394    6.8407 H   0  0  0  0  0  0  0  0  0  0  0  0
    2.2165    2.2386    7.6196 H   0  0  0  0  0  0  0  0  0  0  0  0
   -0.4652    0.2850   14.6484 H   0  0  0  0  0  0  0  0  0  0  0  0
   -0.2669   -2.5287   13.4010 H   0  0  0  0  0  0  0  0  0  0  0  0
   -1.5814   -1.9480   14.4459 H   0  0  0  0  0  0  0  0  0  0  0  0
    0.0604   -2.1309   15.0983 H   0  0  0  0  0  0  0  0  0  0  0  0
    1.7010   -0.8027   12.7402 H   0  0  0  0  0  0  0  0  0  0  0  0
    1.9041   -0.5736   14.4914 H   0  0  0  0  0  0  0  0  0  0  0  0
    1.6437    0.8303   13.4362 H   0  0  0  0  0  0  0  0  0  0  0  0
   -1.7488    2.4035   11.3367 H   0  0  0  0  0  0  0  0  0  0  0  0
    0.0508    2.7395   13.8210 H   0  0  0  0  0  0  0  0  0  0  0  0
   -1.7205    2.8623   13.8183 H   0  0  0  0  0  0  0  0  0  0  0  0
   -0.7447    4.0427   12.9206 H   0  0  0  0  0  0  0  0  0  0  0  0
    1.3059    2.0686   11.5598 H   0  0  0  0  0  0  0  0  0  0  0  0
    0.4519    3.4112   10.7774 H   0  0  0  0  0  0  0  0  0  0  0  0
    0.3345    1.7637   10.1082 H   0  0  0  0  0  0  0  0  0  0  0  0
   -3.1038   -1.1999   12.7286 H   0  0  0  0  0  0  0  0  0  0  0  0
   -3.6483    1.6211   13.8522 H   0  0  0  0  0  0  0  0  0  0  0  0
   -3.0318    0.2491   14.7993 H   0  0  0  0  0  0  0  0  0  0  0  0
   -4.6582    0.1853   14.0887 H   0  0  0  0  0  0  0  0  0  0  0  0
   -3.9583    1.3528   11.2283 H   0  0  0  0  0  0  0  0  0  0  0  0
   -4.9841   -0.0542   11.5645 H   0  0  0  0  0  0  0  0  0  0  0  0
   -3.5824   -0.2151   10.4795 H   0  0  0  0  0  0  0  0  0  0  0  0
   -0.6693   -3.6307   11.1579 H   0  0  0  0  0  0  0  0  0  0  0  0
   -3.9138   -7.0527   14.7002 H   0  0  0  0  0  0  0  0  0  0  0  0
   -2.6318   -6.0371   17.3160 H   0  0  0  0  0  0  0  0  0  0  0  0
   -3.3379   -7.6488   17.0809 H   0  0  0  0  0  0  0  0  0  0  0  0
   -4.3674   -6.2051   16.9962 H   0  0  0  0  0  0  0  0  0  0  0  0
   -2.4977   -4.3641   15.2131 H   0  0  0  0  0  0  0  0  0  0  0  0
   -4.2484   -4.6080   15.0492 H   0  0  0  0  0  0  0  0  0  0  0  0
   -3.1691   -4.9123   13.6657 H   0  0  0  0  0  0  0  0  0  0  0  0
   -0.8011   -9.5567   13.9537 H   0  0  0  0  0  0  0  0  0  0  0  0
   -2.9906   -9.7408   16.1216 H   0  0  0  0  0  0  0  0  0  0  0  0
   -1.2424   -9.8511   16.4243 H   0  0  0  0  0  0  0  0  0  0  0  0
   -2.0619  -11.0940   15.4557 H   0  0  0  0  0  0  0  0  0  0  0  0
   -3.8499   -9.1928   13.6698 H   0  0  0  0  0  0  0  0  0  0  0  0
   -2.9062  -10.5785   13.0937 H   0  0  0  0  0  0  0  0  0  0  0  0
   -2.6541   -8.9723   12.3720 H   0  0  0  0  0  0  0  0  0  0  0  0
   -0.4239   -7.4416   16.8531 H   0  0  0  0  0  0  0  0  0  0  0  0
    1.6058   -7.5151   14.5295 H   0  0  0  0  0  0  0  0  0  0  0  0
    1.0151   -8.9240   15.4376 H   0  0  0  0  0  0  0  0  0  0  0  0
    2.0066   -7.6950   16.2513 H   0  0  0  0  0  0  0  0  0  0  0  0
    0.6156   -5.0902   15.1481 H   0  0  0  0  0  0  0  0  0  0  0  0
    1.0889   -5.4312   16.8269 H   0  0  0  0  0  0  0  0  0  0  0  0
   -0.5868   -4.9797   16.4503 H   0  0  0  0  0  0  0  0  0  0  0  0
    0.3793   -7.6374    9.9104 H   0  0  0  0  0  0  0  0  0  0  0  0
    1.6830  -12.2737    6.2255 H   0  0  0  0  0  0  0  0  0  0  0  0
   -0.1608  -14.0396    7.9609 H   0  0  0  0  0  0  0  0  0  0  0  0
    1.5531  -14.3505    7.6115 H   0  0  0  0  0  0  0  0  0  0  0  0
    0.3552  -14.4054    6.3045 H   0  0  0  0  0  0  0  0  0  0  0  0
   -1.2997  -11.8596    6.8783 H   0  0  0  0  0  0  0  0  0  0  0  0
   -0.6084  -12.2981    5.3065 H   0  0  0  0  0  0  0  0  0  0  0  0
   -0.2646  -10.7027    6.0168 H   0  0  0  0  0  0  0  0  0  0  0  0
    3.7050  -12.0482    7.7475 H   0  0  0  0  0  0  0  0  0  0  0  0
    3.8710  -10.3928   10.3426 H   0  0  0  0  0  0  0  0  0  0  0  0
    4.1159   -9.7764    8.6982 H   0  0  0  0  0  0  0  0  0  0  0  0
    5.2434  -10.9750    9.3808 H   0  0  0  0  0  0  0  0  0  0  0  0
    3.1794  -12.9667   10.6460 H   0  0  0  0  0  0  0  0  0  0  0  0
    4.5860  -13.3873    9.6534 H   0  0  0  0  0  0  0  0  0  0  0  0
    2.9748  -13.9754    9.2004 H   0  0  0  0  0  0  0  0  0  0  0  0
    0.5419  -12.7370   10.2673 H   0  0  0  0  0  0  0  0  0  0  0  0
    0.8743   -9.7783   11.0730 H   0  0  0  0  0  0  0  0  0  0  0  0
    1.9859  -11.0977   11.4878 H   0  0  0  0  0  0  0  0  0  0  0  0
    0.3377  -11.0847   12.1486 H   0  0  0  0  0  0  0  0  0  0  0  0
   -1.2707  -10.3585    9.5082 H   0  0  0  0  0  0  0  0  0  0  0  0
   -1.6486  -11.5676   10.7536 H   0  0  0  0  0  0  0  0  0  0  0  0
   -1.5144  -12.0576    9.0524 H   0  0  0  0  0  0  0  0  0  0  0  0
    3.9964   -8.9733    0.6911 H   0  0  0  0  0  0  0  0  0  0  0  0
    1.9835   -6.8068    1.5658 H   0  0  0  0  0  0  0  0  0  0  0  0
    1.6340   -8.2071    0.5327 H   0  0  0  0  0  0  0  0  0  0  0  0
    2.7170   -6.9253   -0.0479 H   0  0  0  0  0  0  0  0  0  0  0  0
    4.5199   -6.5096    2.4719 H   0  0  0  0  0  0  0  0  0  0  0  0
    5.0566   -6.6976    0.7883 H   0  0  0  0  0  0  0  0  0  0  0  0
    5.7110   -7.7579    2.0525 H   0  0  0  0  0  0  0  0  0  0  0  0
    5.4207   -9.1913    3.9914 H   0  0  0  0  0  0  0  0  0  0  0  0
    3.9615  -11.7850    4.7874 H   0  0  0  0  0  0  0  0  0  0  0  0
    3.9915  -10.2820    5.7394 H   0  0  0  0  0  0  0  0  0  0  0  0
    5.4930  -11.1956    5.4591 H   0  0  0  0  0  0  0  0  0  0  0  0
    5.0801  -11.8012    2.3808 H   0  0  0  0  0  0  0  0  0  0  0  0
    6.5774  -11.2286    3.1352 H   0  0  0  0  0  0  0  0  0  0  0  0
    5.8658  -10.3235    1.7831 H   0  0  0  0  0  0  0  0  0  0  0  0
    1.9753  -11.3226    3.4707 H   0  0  0  0  0  0  0  0  0  0  0  0
    0.2127   -9.3665    1.8717 H   0  0  0  0  0  0  0  0  0  0  0  0
    0.2098   -9.5548    3.6359 H   0  0  0  0  0  0  0  0  0  0  0  0
   -0.3024  -10.9034    2.5921 H   0  0  0  0  0  0  0  0  0  0  0  0
    2.0101  -10.7286    0.4423 H   0  0  0  0  0  0  0  0  0  0  0  0
    1.3830  -12.1986    1.2090 H   0  0  0  0  0  0  0  0  0  0  0  0
    3.1180  -11.8325    1.2826 H   0  0  0  0  0  0  0  0  0  0  0  0
    2.3884   -5.2381    3.8964 H   0  0  0  0  0  0  0  0  0  0  0  0
    1.5371   -1.7972   -0.7840 H   0  0  0  0  0  0  0  0  0  0  0  0
    4.0357   -2.1892   -2.5509 H   0  0  0  0  0  0  0  0  0  0  0  0
    3.1107   -0.6826   -2.3777 H   0  0  0  0  0  0  0  0  0  0  0  0
    2.3608   -2.1066   -3.1260 H   0  0  0  0  0  0  0  0  0  0  0  0
    3.2356   -4.3405   -1.1184 H   0  0  0  0  0  0  0  0  0  0  0  0
    1.5827   -4.0821   -1.7053 H   0  0  0  0  0  0  0  0  0  0  0  0
    1.9092   -4.1271    0.0424 H   0  0  0  0  0  0  0  0  0  0  0  0
    5.8887   -1.2412   -0.1190 H   0  0  0  0  0  0  0  0  0  0  0  0
    5.6641   -2.7825    2.5430 H   0  0  0  0  0  0  0  0  0  0  0  0
    5.9113   -1.0335    2.4109 H   0  0  0  0  0  0  0  0  0  0  0  0
    7.1610   -2.1502    1.8210 H   0  0  0  0  0  0  0  0  0  0  0  0
    5.2780   -4.2257    0.3647 H   0  0  0  0  0  0  0  0  0  0  0  0
    6.8321   -3.5667   -0.1783 H   0  0  0  0  0  0  0  0  0  0  0  0
    5.4032   -3.4311   -1.2217 H   0  0  0  0  0  0  0  0  0  0  0  0
  1  2  1  0
  1 89  1  0
  1 90  1  0
  1 91  1  0
  2  3  1  0
  2  4  1  0
  2 92  1  6
  3 93  1  0
  3 94  1  0
  3 95  1  0
  4  5  1  1
  4 83  1  0
  4 86  1  0
  5  6  3  0
  6  7  1  0
  7  8  2  0
  7 80  1  0
  8  9  1  0
  8 96  1  0
  9 10  2  0
  9 81  1  0
 10 11  1  0
 10 23  1  0
 11 12  3  0
 13 12  1  1
 13 14  1  0
 13 17  1  0
 13 20  1  0
 14 15  1  0
 14 16  1  0
 14 97  1  6
 15 98  1  0
 15 99  1  0
 15100  1  0
 16101  1  0
 16102  1  0
 16103  1  0
 17 18  1  0
 17 19  1  0
 17104  1  1
 18105  1  0
 18106  1  0
 18107  1  0
 19108  1  0
 19109  1  0
 19110  1  0
 20 21  1  0
 20 22  1  0
 20111  1  6
 21112  1  0
 21113  1  0
 21114  1  0
 22115  1  0
 22116  1  0
 22117  1  0
 23 24  1  0
 23 36  2  0
 24 25  3  0
 26 25  1  6
 26 27  1  0
 26 30  1  0
 26 33  1  0
 27 28  1  0
 27 29  1  0
 27118  1  1
 28119  1  0
 28120  1  0
 28121  1  0
 29122  1  0
 29123  1  0
 29124  1  0
 30 31  1  0
 30 32  1  0
 30125  1  6
 31126  1  0
 31127  1  0
 31128  1  0
 32129  1  0
 32130  1  0
 32131  1  0
 33 34  1  0
 33 35  1  0
 33132  1  1
 34133  1  0
 34134  1  0
 34135  1  0
 35136  1  0
 35137  1  0
 35138  1  0
 36 37  1  0
 36 82  1  0
 37 38  2  0
 37139  1  0
 38 39  1  0
 38 51  1  0
 39 40  3  0
 41 40  1  6
 41 42  1  0
 41 45  1  0
 41 48  1  0
 42 43  1  0
 42 44  1  0
 42140  1  6
 43141  1  0
 43142  1  0
 43143  1  0
 44144  1  0
 44145  1  0
 44146  1  0
 45 46  1  0
 45 47  1  0
 45147  1  6
 46148  1  0
 46149  1  0
 46150  1  0
 47151  1  0
 47152  1  0
 47153  1  0
 48 49  1  0
 48 50  1  0
 48154  1  1
 49155  1  0
 49156  1  0
 49157  1  0
 50158  1  0
 50159  1  0
 50160  1  0
 51 52  2  0
 51161  1  0
 52 53  1  0
 52 82  1  0
 53 54  1  0
 53 66  2  0
 54 55  3  0
 56 55  1  6
 56 57  1  0
 56 60  1  0
 56 63  1  0
 57 58  1  0
 57 59  1  0
 57162  1  6
 58163  1  0
 58164  1  0
 58165  1  0
 59166  1  0
 59167  1  0
 59168  1  0
 60 61  1  0
 60 62  1  0
 60169  1  6
 61170  1  0
 61171  1  0
 61172  1  0
 62173  1  0
 62174  1  0
 62175  1  0
 63 64  1  0
 63 65  1  0
 63176  1  1
 64177  1  0
 64178  1  0
 64179  1  0
 65180  1  0
 65181  1  0
 65182  1  0
 66 67  1  0
 66 79  1  0
 67 68  3  0
 69 68  1  1
 69 70  1  0
 69 73  1  0
 69 76  1  0
 70 71  1  0
 70 72  1  0
 70183  1  6
 71184  1  0
 71185  1  0
 71186  1  0
 72187  1  0
 72188  1  0
 72189  1  0
 73 74  1  0
 73 75  1  0
 73190  1  1
 74191  1  0
 74192  1  0
 74193  1  0
 75194  1  0
 75195  1  0
 75196  1  0
 76 77  1  0
 76 78  1  0
 76197  1  1
 77198  1  0
 77199  1  0
 77200  1  0
 78201  1  0
 78202  1  0
 78203  1  0
 79 80  2  0
 79 81  1  0
 80204  1  0
 81 82  2  0
 83 84  1  0
 83 85  1  0
 83205  1  1
 84206  1  0
 84207  1  0
 84208  1  0
 85209  1  0
 85210  1  0
 85211  1  0
 86 87  1  0
 86 88  1  0
 86212  1  6
 87213  1  0
 87214  1  0
 87215  1  0
 88216  1  0
 88217  1  0
 88218  1  0
M  END

