
     RDKit          3D

 68 70  0  0  0  0  0  0  0  0999 V2000
    5.3926   -0.6315   -0.0697 C   0  0  0  0  0  0  0  0  0  0  0  0
    4.3811    0.5127   -0.0375 C   0  0  0  0  0  0  0  0  0  0  0  0
    4.6278    1.5616   -1.0285 N   0  0  0  0  0  0  0  0  0  0  0  0
    4.5623    1.1364   -2.4270 C   0  0  0  0  0  0  0  0  0  0  0  0
    3.1948    0.6657   -2.9454 C   0  0  0  0  0  0  0  0  0  0  0  0
    3.9195    2.8075   -0.7470 C   0  0  0  0  0  0  0  0  0  0  0  0
    4.5600    3.5999    0.3991 C   0  0  0  0  0  0  0  0  0  0  0  0
    5.9836    3.7122    0.1728 N   0  0  0  0  0  0  0  0  0  0  0  0
    6.7593    4.6873    0.7278 C   0  0  0  0  0  0  0  0  0  0  0  0
    6.2815    5.6182    1.3669 O   0  0  0  0  0  0  0  0  0  0  0  0
    8.2450    4.4988    0.5450 C   0  0  0  0  0  0  0  0  0  0  0  0
    8.7371    3.2184    0.8488 C   0  0  0  0  0  0  0  0  0  0  0  0
   10.1069    2.9407    0.9095 C   0  0  0  0  0  0  0  0  0  0  0  0
   10.6430    1.6707    1.2191 N   0  0  0  0  0  0  0  0  0  0  0  0
    9.9754    0.4657    1.3376 C   0  0  0  0  0  0  0  0  0  0  0  0
    8.7635    0.3432    1.2410 O   0  0  0  0  0  0  0  0  0  0  0  0
   10.8401   -0.5890    1.5869 N   0  0  0  0  0  0  0  0  0  0  0  0
   10.5262   -1.9382    1.7982 C   0  0  0  0  0  0  0  0  0  0  0  0
    9.2320   -2.4676    1.8755 C   0  0  0  0  0  0  0  0  0  0  0  0
    9.0447   -3.8377    2.0982 C   0  0  0  0  0  0  0  0  0  0  0  0
   10.1358   -4.6901    2.2459 C   0  0  0  0  0  0  0  0  0  0  0  0
   11.4382   -4.1758    2.1726 C   0  0  0  0  0  0  0  0  0  0  0  0
   11.6356   -2.8133    1.9505 C   0  0  0  0  0  0  0  0  0  0  0  0
   12.8607   -2.2061    1.8630 O   0  0  0  0  0  0  0  0  0  0  0  0
   14.0294   -2.9827    2.0008 C   0  0  0  0  0  0  0  0  0  0  0  0
   10.9942    4.0017    0.6763 C   0  0  0  0  0  0  0  0  0  0  0  0
   10.5292    5.2706    0.3549 C   0  0  0  0  0  0  0  0  0  0  0  0
    9.1452    5.5655    0.2415 C   0  0  0  0  0  0  0  0  0  0  0  0
    8.7510    6.8211   -0.1742 N   0  0  0  0  0  0  0  0  0  0  0  0
    7.4556    7.1479   -0.7825 C   0  0  0  0  0  0  0  0  0  0  0  0
    7.7456    8.4005   -1.6171 C   0  0  0  0  0  0  0  0  0  0  0  0
    8.8546    9.0882   -0.8136 C   0  0  0  0  0  0  0  0  0  0  0  0
    9.7128    7.9047   -0.3585 C   0  0  0  0  0  0  0  0  0  0  0  0
    5.1869   -1.3303    0.7567 H   0  0  0  0  0  0  0  0  0  0  0  0
    6.4216   -0.2578    0.0499 H   0  0  0  0  0  0  0  0  0  0  0  0
    5.3396   -1.2133   -1.0035 H   0  0  0  0  0  0  0  0  0  0  0  0
    4.4281    0.9832    0.9570 H   0  0  0  0  0  0  0  0  0  0  0  0
    3.3487    0.1040   -0.1236 H   0  0  0  0  0  0  0  0  0  0  0  0
    5.3026    0.3347   -2.5790 H   0  0  0  0  0  0  0  0  0  0  0  0
    4.9109    1.9826   -3.0433 H   0  0  0  0  0  0  0  0  0  0  0  0
    2.8314   -0.2236   -2.4063 H   0  0  0  0  0  0  0  0  0  0  0  0
    3.2658    0.3971   -4.0120 H   0  0  0  0  0  0  0  0  0  0  0  0
    2.4279    1.4518   -2.8523 H   0  0  0  0  0  0  0  0  0  0  0  0
    2.8430    2.6548   -0.5139 H   0  0  0  0  0  0  0  0  0  0  0  0
    3.9616    3.4279   -1.6570 H   0  0  0  0  0  0  0  0  0  0  0  0
    4.3509    3.1212    1.3752 H   0  0  0  0  0  0  0  0  0  0  0  0
    4.1224    4.6081    0.4575 H   0  0  0  0  0  0  0  0  0  0  0  0
    6.4012    2.9339   -0.3297 H   0  0  0  0  0  0  0  0  0  0  0  0
    8.0402    2.4211    1.0925 H   0  0  0  0  0  0  0  0  0  0  0  0
   11.6500    1.6564    1.3231 H   0  0  0  0  0  0  0  0  0  0  0  0
   11.8388   -0.4139    1.5951 H   0  0  0  0  0  0  0  0  0  0  0  0
    8.3861   -1.7944    1.7598 H   0  0  0  0  0  0  0  0  0  0  0  0
    8.0275   -4.2324    2.1556 H   0  0  0  0  0  0  0  0  0  0  0  0
    9.9882   -5.7586    2.4193 H   0  0  0  0  0  0  0  0  0  0  0  0
   12.2913   -4.8446    2.2895 H   0  0  0  0  0  0  0  0  0  0  0  0
   14.8797   -2.2957    1.8938 H   0  0  0  0  0  0  0  0  0  0  0  0
   14.0964   -3.7608    1.2196 H   0  0  0  0  0  0  0  0  0  0  0  0
   14.0827   -3.4679    2.9917 H   0  0  0  0  0  0  0  0  0  0  0  0
   12.0748    3.8346    0.7350 H   0  0  0  0  0  0  0  0  0  0  0  0
   11.2660    6.0489    0.1624 H   0  0  0  0  0  0  0  0  0  0  0  0
    6.6926    7.3379   -0.0114 H   0  0  0  0  0  0  0  0  0  0  0  0
    7.0913    6.3042   -1.3933 H   0  0  0  0  0  0  0  0  0  0  0  0
    6.8515    9.0264   -1.7571 H   0  0  0  0  0  0  0  0  0  0  0  0
    8.1215    8.1234   -2.6170 H   0  0  0  0  0  0  0  0  0  0  0  0
    8.4260    9.6043    0.0615 H   0  0  0  0  0  0  0  0  0  0  0  0
    9.4301    9.8268   -1.3918 H   0  0  0  0  0  0  0  0  0  0  0  0
   10.2672    8.1124    0.5733 H   0  0  0  0  0  0  0  0  0  0  0  0
   10.4664    7.6534   -1.1343 H   0  0  0  0  0  0  0  0  0  0  0  0
  1  2  1  0
  1 34  1  0
  1 35  1  0
  1 36  1  0
  2  3  1  0
  2 37  1  0
  2 38  1  0
  3  4  1  0
  3  6  1  0
  4  5  1  0
  4 39  1  0
  4 40  1  0
  5 41  1  0
  5 42  1  0
  5 43  1  0
  6  7  1  0
  6 44  1  0
  6 45  1  0
  7  8  1  0
  7 46  1  0
  7 47  1  0
  8  9  1  0
  8 48  1  0
  9 10  2  0
  9 11  1  0
 11 12  2  0
 11 28  1  0
 12 13  1  0
 12 49  1  0
 13 14  1  0
 13 26  2  0
 14 15  1  0
 14 50  1  0
 15 16  2  0
 15 17  1  0
 17 18  1  0
 17 51  1  0
 18 19  2  0
 18 23  1  0
 19 20  1  0
 19 52  1  0
 20 21  2  0
 20 53  1  0
 21 22  1  0
 21 54  1  0
 22 23  2  0
 22 55  1  0
 23 24  1  0
 24 25  1  0
 25 56  1  0
 25 57  1  0
 25 58  1  0
 26 27  1  0
 26 59  1  0
 27 28  2  0
 27 60  1  0
 28 29  1  0
 29 30  1  0
 29 33  1  0
 30 31  1  0
 30 61  1  0
 30 62  1  0
 31 32  1  0
 31 63  1  0
 31 64  1  0
 32 33  1  0
 32 65  1  0
 32 66  1  0
 33 67  1  0
 33 68  1  0
M  END

