
     RDKit          3D

 31 32  0  0  0  0  0  0  0  0999 V2000
    1.0203   -0.1931    0.2961 C   0  0  0  0  0  0  0  0  0  0  0  0
    2.3623    0.2332    0.3839 O   0  0  0  0  0  0  0  0  0  0  0  0
    2.8318    0.9339   -0.7351 C   0  0  1  0  0  0  0  0  0  0  0  0
    2.3622    2.3923   -0.8791 C   0  0  0  0  0  0  0  0  0  0  0  0
    3.5163    3.1535   -1.6071 C   0  0  2  0  0  0  0  0  0  0  0  0
    3.3894    3.5428   -3.0450 C   0  0  0  0  0  0  0  0  0  0  0  0
    3.0189    2.5546   -4.0402 C   0  0  0  0  0  0  0  0  0  0  0  0
    2.4774    2.9230   -5.2539 C   0  0  0  0  0  0  0  0  0  0  0  0
    2.2016    4.2868   -5.5723 C   0  0  0  0  0  0  0  0  0  0  0  0
    2.4996    5.2405   -4.5695 C   0  0  0  0  0  0  0  0  0  0  0  0
    2.2392    6.5444   -4.8446 F   0  0  0  0  0  0  0  0  0  0  0  0
    3.0452    4.9252   -3.3502 C   0  0  0  0  0  0  0  0  0  0  0  0
    4.6925    2.2382   -1.3438 N   0  0  0  0  0  0  0  0  0  0  0  0
    6.0086    2.5282   -1.8149 C   0  0  0  0  0  0  0  0  0  0  0  0
    4.3553    1.0704   -0.5876 C   0  0  0  0  0  0  0  0  0  0  0  0
    0.8004   -0.7693    1.2056 H   0  0  0  0  0  0  0  0  0  0  0  0
    0.8562   -0.8424   -0.5856 H   0  0  0  0  0  0  0  0  0  0  0  0
    0.3155    0.6566    0.2370 H   0  0  0  0  0  0  0  0  0  0  0  0
    2.6036    0.3734   -1.6633 H   0  0  0  0  0  0  0  0  0  0  0  0
    2.2017    2.7914    0.1359 H   0  0  0  0  0  0  0  0  0  0  0  0
    1.4324    2.4941   -1.4503 H   0  0  0  0  0  0  0  0  0  0  0  0
    3.7671    4.0602   -1.0273 H   0  0  0  0  0  0  0  0  0  0  0  0
    3.2096    1.4902   -3.8611 H   0  0  0  0  0  0  0  0  0  0  0  0
    2.2645    2.1512   -6.0003 H   0  0  0  0  0  0  0  0  0  0  0  0
    1.7506    4.5964   -6.5133 H   0  0  0  0  0  0  0  0  0  0  0  0
    3.2499    5.7372   -2.6472 H   0  0  0  0  0  0  0  0  0  0  0  0
    5.9306    3.2954   -2.5954 H   0  0  0  0  0  0  0  0  0  0  0  0
    6.4836    1.6161   -2.2075 H   0  0  0  0  0  0  0  0  0  0  0  0
    6.6301    2.8918   -0.9732 H   0  0  0  0  0  0  0  0  0  0  0  0
    4.5853    1.2379    0.4865 H   0  0  0  0  0  0  0  0  0  0  0  0
    4.9457    0.2010   -0.9145 H   0  0  0  0  0  0  0  0  0  0  0  0
  1  2  1  0
  1 16  1  0
  1 17  1  0
  1 18  1  0
  2  3  1  0
  3  4  1  0
  3 15  1  0
  3 19  1  6
  4  5  1  0
  4 20  1  0
  4 21  1  0
  5  6  1  0
  5 13  1  0
  5 22  1  1
  6  7  2  0
  6 12  1  0
  7  8  1  0
  7 23  1  0
  8  9  2  0
  8 24  1  0
  9 10  1  0
  9 25  1  0
 10 11  1  0
 10 12  2  0
 12 26  1  0
 13 14  1  0
 13 15  1  0
 14 27  1  0
 14 28  1  0
 14 29  1  0
 15 30  1  0
 15 31  1  0
M  END

