
     RDKit          3D

 59 63  0  0  0  0  0  0  0  0999 V2000
    1.2725   -9.2181    6.3921 C   0  0  0  0  0  0  0  0  0  0  0  0
    0.6562   -8.9301    5.1438 O   0  0  0  0  0  0  0  0  0  0  0  0
    0.8443   -7.7357    4.5304 C   0  0  0  0  0  0  0  0  0  0  0  0
   -0.2448   -7.1854    3.8408 C   0  0  0  0  0  0  0  0  0  0  0  0
   -0.1159   -5.9736    3.1623 C   0  0  0  0  0  0  0  0  0  0  0  0
    1.0965   -5.2868    3.1661 C   0  0  0  0  0  0  0  0  0  0  0  0
    2.2176   -5.8101    3.8362 C   0  0  0  0  0  0  0  0  0  0  0  0
    3.5029   -5.0566    3.8255 C   0  0  0  0  0  0  0  0  0  0  0  0
    4.7855   -5.6921    3.8608 C   0  0  0  0  0  0  0  0  0  0  0  0
    5.9549   -4.9627    3.8123 C   0  0  0  0  0  0  0  0  0  0  0  0
    7.2732   -5.5727    3.8359 C   0  0  0  0  0  0  0  0  0  0  0  0
    7.6376   -6.9162    3.9012 C   0  0  0  0  0  0  0  0  0  0  0  0
    9.0617   -6.9672    3.8943 C   0  0  0  0  0  0  0  0  0  0  0  0
   10.0185   -8.0052    3.9462 C   0  0  0  0  0  0  0  0  0  0  0  0
   11.3658   -7.6790    3.9297 C   0  0  0  0  0  0  0  0  0  0  0  0
   11.8149   -6.3317    3.8530 C   0  0  0  0  0  0  0  0  0  0  0  0
   13.3075   -6.0434    3.7712 C   0  0  0  0  0  0  0  0  0  0  0  0
   13.6863   -4.7653    4.3571 N   0  0  0  0  0  0  0  0  0  0  0  0
   13.6482   -4.7200    5.8228 C   0  0  0  0  0  0  0  0  0  0  0  0
   14.9199   -5.3058    6.4654 C   0  0  0  0  0  0  0  0  0  0  0  0
   16.1518   -4.7041    5.9559 N   0  0  0  0  0  0  0  0  0  0  0  0
   16.5001   -3.4235    6.5412 C   0  0  0  0  0  0  0  0  0  0  0  0
   16.1877   -4.7499    4.4952 C   0  0  0  0  0  0  0  0  0  0  0  0
   14.9187   -4.1647    3.8462 C   0  0  0  0  0  0  0  0  0  0  0  0
   10.8902   -5.2922    3.8017 C   0  0  0  0  0  0  0  0  0  0  0  0
    9.5242   -5.6145    3.8244 C   0  0  0  0  0  0  0  0  0  0  0  0
    8.4244   -4.8037    3.7907 N   0  0  0  0  0  0  0  0  0  0  0  0
    8.3725   -3.7873    3.7383 H   0  0  0  0  0  0  0  0  0  0  0  0
    5.8407   -3.4976    3.7238 C   0  0  0  0  0  0  0  0  0  0  0  0
    6.7635   -2.6838    3.6798 O   0  0  0  0  0  0  0  0  0  0  0  0
    4.5284   -3.0519    3.6851 N   0  0  0  0  0  0  0  0  0  0  0  0
    4.4170   -2.0413    3.6209 H   0  0  0  0  0  0  0  0  0  0  0  0
    3.3958   -3.7481    3.7331 N   0  0  0  0  0  0  0  0  0  0  0  0
    2.0636   -7.0348    4.5038 C   0  0  0  0  0  0  0  0  0  0  0  0
    3.1207   -7.5716    5.1564 F   0  0  0  0  0  0  0  0  0  0  0  0
    0.7107  -10.0592    6.8219 H   0  0  0  0  0  0  0  0  0  0  0  0
    1.2100   -8.3576    7.0802 H   0  0  0  0  0  0  0  0  0  0  0  0
    2.3275   -9.5085    6.2771 H   0  0  0  0  0  0  0  0  0  0  0  0
   -1.1853   -7.7393    3.8582 H   0  0  0  0  0  0  0  0  0  0  0  0
   -0.9742   -5.5588    2.6288 H   0  0  0  0  0  0  0  0  0  0  0  0
    1.2039   -4.3340    2.6476 H   0  0  0  0  0  0  0  0  0  0  0  0
    4.8320   -6.7775    3.9209 H   0  0  0  0  0  0  0  0  0  0  0  0
    6.9584   -7.7646    3.9477 H   0  0  0  0  0  0  0  0  0  0  0  0
    9.7009   -9.0494    4.0074 H   0  0  0  0  0  0  0  0  0  0  0  0
   12.1121   -8.4775    3.9782 H   0  0  0  0  0  0  0  0  0  0  0  0
   13.5948   -6.0102    2.7044 H   0  0  0  0  0  0  0  0  0  0  0  0
   13.8533   -6.9148    4.1941 H   0  0  0  0  0  0  0  0  0  0  0  0
   12.7516   -5.2531    6.1765 H   0  0  0  0  0  0  0  0  0  0  0  0
   13.5306   -3.6651    6.1317 H   0  0  0  0  0  0  0  0  0  0  0  0
   14.9621   -6.3930    6.2671 H   0  0  0  0  0  0  0  0  0  0  0  0
   14.8858   -5.1873    7.5615 H   0  0  0  0  0  0  0  0  0  0  0  0
   16.5604   -3.5237    7.6376 H   0  0  0  0  0  0  0  0  0  0  0  0
   15.7996   -2.5853    6.3276 H   0  0  0  0  0  0  0  0  0  0  0  0
   17.4959   -3.1128    6.1839 H   0  0  0  0  0  0  0  0  0  0  0  0
   16.3010   -5.8061    4.1850 H   0  0  0  0  0  0  0  0  0  0  0  0
   17.0852   -4.2168    4.1381 H   0  0  0  0  0  0  0  0  0  0  0  0
   14.9528   -4.2839    2.7505 H   0  0  0  0  0  0  0  0  0  0  0  0
   14.8762   -3.0777    4.0448 H   0  0  0  0  0  0  0  0  0  0  0  0
   11.2410   -4.2594    3.7553 H   0  0  0  0  0  0  0  0  0  0  0  0
  1  2  1  0
  1 36  1  0
  1 37  1  0
  1 38  1  0
  2  3  1  0
  3  4  2  0
  3 34  1  0
  4  5  1  0
  4 39  1  0
  5  6  2  0
  5 40  1  0
  6  7  1  0
  6 41  1  0
  7  8  1  0
  7 34  2  0
  8  9  1  0
  8 33  2  0
  9 10  2  0
  9 42  1  0
 10 11  1  0
 10 29  1  0
 11 12  2  0
 11 27  1  0
 12 13  1  0
 12 43  1  0
 13 14  2  0
 13 26  1  0
 14 15  1  0
 14 44  1  0
 15 16  2  0
 15 45  1  0
 16 17  1  0
 16 25  1  0
 17 18  1  0
 17 46  1  0
 17 47  1  0
 18 19  1  0
 18 24  1  0
 19 20  1  0
 19 48  1  0
 19 49  1  0
 20 21  1  0
 20 50  1  0
 20 51  1  0
 21 22  1  0
 21 23  1  0
 22 52  1  0
 22 53  1  0
 22 54  1  0
 23 24  1  0
 23 55  1  0
 23 56  1  0
 24 57  1  0
 24 58  1  0
 25 26  2  0
 25 59  1  0
 26 27  1  0
 27 28  1  0
 29 30  2  0
 29 31  1  0
 31 32  1  0
 31 33  1  0
 34 35  1  0
M  END

