
     RDKit          3D

 43 43  0  0  0  0  0  0  0  0999 V2000
    3.8792   -3.5637    3.5885 C   0  0  0  0  0  0  0  0  0  0  0  0
    4.5764   -2.3409    2.9876 C   0  0  0  0  0  0  0  0  0  0  0  0
    4.2550   -2.0865    1.5017 C   0  0  1  0  0  0  0  0  0  0  0  0
    2.8035   -1.6527    1.2710 C   0  0  0  0  0  0  0  0  0  0  0  0
    5.2432   -1.1029    0.8336 C   0  0  1  0  0  0  0  0  0  0  0  0
    5.3118    0.1996    1.4580 N   0  0  0  0  0  0  0  0  0  0  0  0
    4.8465    1.3521    0.8230 C   0  0  0  0  0  0  0  0  0  0  0  0
    4.5165    1.3385   -0.3522 O   0  0  0  0  0  0  0  0  0  0  0  0
    4.7912    2.4972    1.5973 N   0  0  0  0  0  0  0  0  0  0  0  0
    4.3929    3.7482    0.9555 C   0  0  0  0  0  0  0  0  0  0  0  0
    3.2747    4.4337    1.7429 C   0  0  0  0  0  0  0  0  0  0  0  0
    3.6565    4.6237    3.2172 C   0  0  0  0  0  0  0  0  0  0  0  0
    4.1108    3.2921    3.8377 C   0  0  2  0  0  0  0  0  0  0  0  0
    4.5872    3.3447    5.2978 C   0  0  0  0  0  0  0  0  0  0  0  0
    4.0205    4.2935    6.0921 N   0  0  0  0  0  0  0  0  0  0  0  0
    5.4113    2.5510    5.7211 O   0  0  0  0  0  0  0  0  0  0  0  0
    5.2149    2.6440    2.9808 C   0  0  0  0  0  0  0  0  0  0  0  0
    6.6748   -1.6871    0.7772 C   0  0  0  0  0  0  0  0  0  0  0  0
    6.7419   -2.9001    0.2658 O   0  0  0  0  0  0  0  0  0  0  0  0
    7.6242   -0.8393    0.2835 O   0  0  0  0  0  0  0  0  0  0  0  0
    4.1820   -3.7131    4.6369 H   0  0  0  0  0  0  0  0  0  0  0  0
    4.1413   -4.4797    3.0336 H   0  0  0  0  0  0  0  0  0  0  0  0
    2.7817   -3.4687    3.5754 H   0  0  0  0  0  0  0  0  0  0  0  0
    5.6682   -2.4619    3.0915 H   0  0  0  0  0  0  0  0  0  0  0  0
    4.3052   -1.4458    3.5798 H   0  0  0  0  0  0  0  0  0  0  0  0
    4.4276   -3.0363    0.9582 H   0  0  0  0  0  0  0  0  0  0  0  0
    2.5832   -0.7040    1.7891 H   0  0  0  0  0  0  0  0  0  0  0  0
    2.0954   -2.4062    1.6481 H   0  0  0  0  0  0  0  0  0  0  0  0
    2.5957   -1.5015    0.2007 H   0  0  0  0  0  0  0  0  0  0  0  0
    4.9187   -0.9225   -0.2079 H   0  0  0  0  0  0  0  0  0  0  0  0
    5.4795    0.2088    2.4565 H   0  0  0  0  0  0  0  0  0  0  0  0
    4.0818    3.5127   -0.0686 H   0  0  0  0  0  0  0  0  0  0  0  0
    5.2726    4.4203    0.8963 H   0  0  0  0  0  0  0  0  0  0  0  0
    2.3610    3.8184    1.6743 H   0  0  0  0  0  0  0  0  0  0  0  0
    3.0434    5.4069    1.2801 H   0  0  0  0  0  0  0  0  0  0  0  0
    2.7938    5.0415    3.7639 H   0  0  0  0  0  0  0  0  0  0  0  0
    4.4753    5.3618    3.2982 H   0  0  0  0  0  0  0  0  0  0  0  0
    3.2466    2.5999    3.8308 H   0  0  0  0  0  0  0  0  0  0  0  0
    3.3420    4.9610    5.7550 H   0  0  0  0  0  0  0  0  0  0  0  0
    4.2957    4.3219    7.0672 H   0  0  0  0  0  0  0  0  0  0  0  0
    5.4892    1.6923    3.4459 H   0  0  0  0  0  0  0  0  0  0  0  0
    6.1237    3.2758    3.0292 H   0  0  0  0  0  0  0  0  0  0  0  0
    7.3658    0.0417    0.6052 H   0  0  0  0  0  0  0  0  0  0  0  0
  1  2  1  0
  1 21  1  0
  1 22  1  0
  1 23  1  0
  2  3  1  0
  2 24  1  0
  2 25  1  0
  3  4  1  0
  3  5  1  0
  3 26  1  6
  4 27  1  0
  4 28  1  0
  4 29  1  0
  5  6  1  0
  5 18  1  0
  5 30  1  6
  6  7  1  0
  6 31  1  0
  7  8  2  0
  7  9  1  0
  9 10  1  0
  9 17  1  0
 10 11  1  0
 10 32  1  0
 10 33  1  0
 11 12  1  0
 11 34  1  0
 11 35  1  0
 12 13  1  0
 12 36  1  0
 12 37  1  0
 13 14  1  0
 13 17  1  0
 13 38  1  1
 14 15  1  0
 14 16  2  0
 15 39  1  0
 15 40  1  0
 17 41  1  0
 17 42  1  0
 18 19  2  0
 18 20  1  0
 20 43  1  0
M  END

