
     RDKit          3D

 61 62  0  0  0  0  0  0  0  0999 V2000
    6.6855   -2.5388    0.0813 C   0  0  0  0  0  0  0  0  0  0  0  0
    6.0480   -1.3431    0.7854 C   0  0  0  0  0  0  0  0  0  0  0  0
    4.6319   -1.1184    0.4595 N   0  0  0  0  0  0  0  0  0  0  0  0
    3.7778   -2.2787    0.7568 C   0  0  0  0  0  0  0  0  0  0  0  0
    3.7148   -2.7403    2.2200 C   0  0  0  0  0  0  0  0  0  0  0  0
    4.1832    0.2205    0.9187 C   0  0  1  0  0  0  0  0  0  0  0  0
    4.8483    1.3068    0.0213 C   0  0  0  0  0  0  0  0  0  0  0  0
    4.8862    0.8697   -1.3583 N   0  0  0  0  0  0  0  0  0  0  0  0
    4.5923    1.6720   -2.4143 C   0  0  0  0  0  0  0  0  0  0  0  0
    4.3442    2.8665   -2.3130 O   0  0  0  0  0  0  0  0  0  0  0  0
    4.5528    0.9765   -3.7578 C   0  0  0  0  0  0  0  0  0  0  0  0
    3.8618    1.6050   -4.8051 C   0  0  0  0  0  0  0  0  0  0  0  0
    3.7621    0.9986   -6.0590 C   0  0  0  0  0  0  0  0  0  0  0  0
    4.3491   -0.2497   -6.2897 C   0  0  0  0  0  0  0  0  0  0  0  0
    5.0530   -0.8626   -5.2486 C   0  0  0  0  0  0  0  0  0  0  0  0
    5.7889   -2.4844   -5.4969 S   0  0  1  0  0  0  0  0  0  0  0  0
    5.8279   -2.7493   -6.9354 O   0  0  0  0  0  0  0  0  0  0  0  0
    6.9765   -2.5610   -4.6474 O   0  0  0  0  0  0  0  0  0  0  0  0
    4.6953   -3.5978   -4.8470 N   0  0  0  0  0  0  0  0  0  0  0  0
    3.5186   -3.9864   -5.6116 C   0  0  0  0  0  0  0  0  0  0  0  0
    3.1936   -5.4344   -5.2640 C   0  0  0  0  0  0  0  0  0  0  0  0
    3.1107   -5.5979   -3.8190 N   0  0  0  0  0  0  0  0  0  0  0  0
    3.7632   -4.8468   -2.8886 C   0  0  0  0  0  0  0  0  0  0  0  0
    3.7084   -5.0761   -1.6923 O   0  0  0  0  0  0  0  0  0  0  0  0
    4.5393   -3.6326   -3.3987 C   0  0  0  0  0  0  0  0  0  0  0  0
    5.1789   -0.2539   -3.9962 C   0  0  0  0  0  0  0  0  0  0  0  0
    2.6416    0.4070    1.0032 C   0  0  1  0  0  0  0  0  0  0  0  0
    2.2900    1.6453    1.8440 C   0  0  0  0  0  0  0  0  0  0  0  0
    1.9140    0.4547   -0.3492 C   0  0  0  0  0  0  0  0  0  0  0  0
    7.7623   -2.5703    0.3099 H   0  0  0  0  0  0  0  0  0  0  0  0
    6.5789   -2.4602   -1.0126 H   0  0  0  0  0  0  0  0  0  0  0  0
    6.2541   -3.5016    0.3921 H   0  0  0  0  0  0  0  0  0  0  0  0
    6.6091   -0.4428    0.4943 H   0  0  0  0  0  0  0  0  0  0  0  0
    6.1965   -1.4397    1.8834 H   0  0  0  0  0  0  0  0  0  0  0  0
    4.1173   -3.1177    0.1305 H   0  0  0  0  0  0  0  0  0  0  0  0
    2.7630   -2.0648    0.3966 H   0  0  0  0  0  0  0  0  0  0  0  0
    4.6946   -3.0792    2.5918 H   0  0  0  0  0  0  0  0  0  0  0  0
    3.0214   -3.5919    2.3111 H   0  0  0  0  0  0  0  0  0  0  0  0
    3.3592   -1.9466    2.8974 H   0  0  0  0  0  0  0  0  0  0  0  0
    4.5590    0.4021    1.9482 H   0  0  0  0  0  0  0  0  0  0  0  0
    5.8688    1.5279    0.3805 H   0  0  0  0  0  0  0  0  0  0  0  0
    4.2986    2.2566    0.0726 H   0  0  0  0  0  0  0  0  0  0  0  0
    4.8588   -0.1452   -1.4458 H   0  0  0  0  0  0  0  0  0  0  0  0
    3.4118    2.5798   -4.6064 H   0  0  0  0  0  0  0  0  0  0  0  0
    3.2258    1.5016   -6.8674 H   0  0  0  0  0  0  0  0  0  0  0  0
    4.2912   -0.7368   -7.2646 H   0  0  0  0  0  0  0  0  0  0  0  0
    3.7485   -3.9038   -6.6814 H   0  0  0  0  0  0  0  0  0  0  0  0
    2.6498   -3.3351   -5.3834 H   0  0  0  0  0  0  0  0  0  0  0  0
    3.9702   -6.0928   -5.6944 H   0  0  0  0  0  0  0  0  0  0  0  0
    2.2271   -5.7151   -5.7129 H   0  0  0  0  0  0  0  0  0  0  0  0
    2.6373   -6.4139   -3.4417 H   0  0  0  0  0  0  0  0  0  0  0  0
    5.5287   -3.6618   -2.9241 H   0  0  0  0  0  0  0  0  0  0  0  0
    4.0039   -2.7436   -3.0047 H   0  0  0  0  0  0  0  0  0  0  0  0
    5.7972   -0.7301   -3.2345 H   0  0  0  0  0  0  0  0  0  0  0  0
    2.2479   -0.4541    1.5644 H   0  0  0  0  0  0  0  0  0  0  0  0
    2.6230    2.5814    1.3671 H   0  0  0  0  0  0  0  0  0  0  0  0
    2.7451    1.5979    2.8466 H   0  0  0  0  0  0  0  0  0  0  0  0
    1.1989    1.7208    1.9758 H   0  0  0  0  0  0  0  0  0  0  0  0
    2.1521    1.3745   -0.9065 H   0  0  0  0  0  0  0  0  0  0  0  0
    0.8232    0.4445   -0.1907 H   0  0  0  0  0  0  0  0  0  0  0  0
    2.1641   -0.4028   -0.9919 H   0  0  0  0  0  0  0  0  0  0  0  0
  1  2  1  0
  1 30  1  0
  1 31  1  0
  1 32  1  0
  2  3  1  0
  2 33  1  0
  2 34  1  0
  3  4  1  0
  3  6  1  0
  4  5  1  0
  4 35  1  0
  4 36  1  0
  5 37  1  0
  5 38  1  0
  5 39  1  0
  6  7  1  0
  6 27  1  0
  6 40  1  1
  7  8  1  0
  7 41  1  0
  7 42  1  0
  8  9  1  0
  8 43  1  0
  9 10  2  0
  9 11  1  0
 11 12  2  0
 11 26  1  0
 12 13  1  0
 12 44  1  0
 13 14  2  0
 13 45  1  0
 14 15  1  0
 14 46  1  0
 16 15  1  6
 15 26  2  0
 16 17  2  0
 16 18  2  0
 16 19  1  0
 19 20  1  0
 19 25  1  0
 20 21  1  0
 20 47  1  0
 20 48  1  0
 21 22  1  0
 21 49  1  0
 21 50  1  0
 22 23  1  0
 22 51  1  0
 23 24  2  0
 23 25  1  0
 25 52  1  0
 25 53  1  0
 26 54  1  0
 27 28  1  0
 27 29  1  0
 27 55  1  1
 28 56  1  0
 28 57  1  0
 28 58  1  0
 29 59  1  0
 29 60  1  0
 29 61  1  0
M  END

