
     RDKit          3D

 49 50  0  0  0  0  0  0  0  0999 V2000
    4.2467    2.3274   -0.9189 C   0  0  0  0  0  0  0  0  0  0  0  0
    3.6270    1.1425   -1.6663 C   0  0  1  0  0  0  0  0  0  0  0  0
    2.9241    0.1649   -0.7192 C   0  0  0  0  0  0  0  0  0  0  0  0
    2.6694    1.6270   -2.7560 C   0  0  0  0  0  0  0  0  0  0  0  0
    4.6630    0.4385   -2.4336 O   0  0  0  0  0  0  0  0  0  0  0  0
    5.7154   -0.1502   -1.8374 C   0  0  0  0  0  0  0  0  0  0  0  0
    5.9421   -0.1923   -0.6448 O   0  0  0  0  0  0  0  0  0  0  0  0
    6.5235   -0.7158   -2.7921 N   0  0  0  0  0  0  0  0  0  0  0  0
    7.7308   -1.4349   -2.4511 C   0  0  0  0  0  0  0  0  0  0  0  0
    7.6299   -2.9091   -2.7410 C   0  0  0  0  0  0  0  0  0  0  0  0
    8.5087   -3.6076   -3.4692 C   0  0  0  0  0  0  0  0  0  0  0  0
    8.3909   -5.0858   -3.7195 C   0  0  0  0  0  0  0  0  0  0  0  0
    8.1184   -5.4032   -5.1001 N   0  0  0  0  0  0  0  0  0  0  0  0
    7.5056   -6.6442   -5.6665 C   0  0  2  0  0  0  0  0  0  0  0  0
    8.0781   -7.8930   -4.9640 C   0  0  0  0  0  0  0  0  0  0  0  0
    9.5050   -8.2318   -5.4073 C   0  0  0  0  0  0  0  0  0  0  0  0
    9.5976   -8.6415   -7.1885 S   0  0  0  0  0  0  0  0  0  0  0  0
    8.7907   -7.1773   -7.8159 C   0  0  0  0  0  0  0  0  0  0  0  0
    9.1019   -6.7237   -9.0907 C   0  0  0  0  0  0  0  0  0  0  0  0
   10.1832   -7.2446   -9.7149 F   0  0  0  0  0  0  0  0  0  0  0  0
    8.3323   -5.7895   -9.7960 C   0  0  0  0  0  0  0  0  0  0  0  0
    7.1217   -5.3273   -9.1855 C   0  0  0  0  0  0  0  0  0  0  0  0
    6.7816   -5.7333   -7.9100 C   0  0  0  0  0  0  0  0  0  0  0  0
    7.5934   -6.6422   -7.1599 C   0  0  0  0  0  0  0  0  0  0  0  0
    3.4525    2.9157   -0.4336 H   0  0  0  0  0  0  0  0  0  0  0  0
    4.7785    2.9882   -1.6214 H   0  0  0  0  0  0  0  0  0  0  0  0
    4.9517    1.9867   -0.1499 H   0  0  0  0  0  0  0  0  0  0  0  0
    2.0787    0.6695   -0.2259 H   0  0  0  0  0  0  0  0  0  0  0  0
    3.6126   -0.2034    0.0518 H   0  0  0  0  0  0  0  0  0  0  0  0
    2.5258   -0.6943   -1.2815 H   0  0  0  0  0  0  0  0  0  0  0  0
    1.8329    2.1842   -2.3079 H   0  0  0  0  0  0  0  0  0  0  0  0
    2.2590    0.7751   -3.3191 H   0  0  0  0  0  0  0  0  0  0  0  0
    3.1903    2.2897   -3.4635 H   0  0  0  0  0  0  0  0  0  0  0  0
    6.2366   -0.6316   -3.7602 H   0  0  0  0  0  0  0  0  0  0  0  0
    7.8767   -1.2833   -1.3692 H   0  0  0  0  0  0  0  0  0  0  0  0
    8.6067   -1.0044   -2.9676 H   0  0  0  0  0  0  0  0  0  0  0  0
    6.7636   -3.4169   -2.2973 H   0  0  0  0  0  0  0  0  0  0  0  0
    9.3755   -3.1027   -3.9143 H   0  0  0  0  0  0  0  0  0  0  0  0
    7.6078   -5.5516   -3.0983 H   0  0  0  0  0  0  0  0  0  0  0  0
    9.3328   -5.6096   -3.4534 H   0  0  0  0  0  0  0  0  0  0  0  0
    8.3263   -4.6909   -5.8034 H   0  0  0  0  0  0  0  0  0  0  0  0
    6.4502   -6.5344   -5.3362 H   0  0  0  0  0  0  0  0  0  0  0  0
    7.4122   -8.7241   -5.2391 H   0  0  0  0  0  0  0  0  0  0  0  0
    8.0291   -7.7916   -3.8653 H   0  0  0  0  0  0  0  0  0  0  0  0
    9.8588   -9.1268   -4.8731 H   0  0  0  0  0  0  0  0  0  0  0  0
   10.2060   -7.4108   -5.1699 H   0  0  0  0  0  0  0  0  0  0  0  0
    8.6599   -5.4571  -10.7804 H   0  0  0  0  0  0  0  0  0  0  0  0
    6.4505   -4.6722   -9.7475 H   0  0  0  0  0  0  0  0  0  0  0  0
    5.8473   -5.3652   -7.4652 H   0  0  0  0  0  0  0  0  0  0  0  0
  1  2  1  0
  1 25  1  0
  1 26  1  0
  1 27  1  0
  2  3  1  0
  2  4  1  0
  2  5  1  6
  3 28  1  0
  3 29  1  0
  3 30  1  0
  4 31  1  0
  4 32  1  0
  4 33  1  0
  5  6  1  0
  6  7  2  0
  6  8  1  0
  8  9  1  0
  8 34  1  0
  9 10  1  0
  9 35  1  0
  9 36  1  0
 10 11  2  0
 10 37  1  0
 11 12  1  0
 11 38  1  0
 12 13  1  0
 12 39  1  0
 12 40  1  0
 13 14  1  0
 13 41  1  0
 14 15  1  0
 14 24  1  0
 14 42  1  1
 15 16  1  0
 15 43  1  0
 15 44  1  0
 16 17  1  0
 16 45  1  0
 16 46  1  0
 17 18  1  0
 18 19  1  0
 18 24  2  0
 19 20  1  0
 19 21  2  0
 21 22  1  0
 21 47  1  0
 22 23  2  0
 22 48  1  0
 23 24  1  0
 23 49  1  0
M  END

