
     RDKit          3D

 34 34  0  0  0  0  0  0  0  0999 V2000
    5.3709   -2.1380    0.3436 C   0  0  0  0  0  0  0  0  0  0  0  0
    4.3127   -1.0623    0.2992 C   0  0  0  0  0  0  0  0  0  0  0  0
    4.6527    0.1687    0.4539 N   0  0  0  0  0  0  0  0  0  0  0  0
    4.0045    1.3422    0.4762 C   0  0  0  0  0  0  0  0  0  0  0  0
    2.5999    1.1755    0.2897 C   0  0  0  0  0  0  0  0  0  0  0  0
    2.0741   -0.0833    0.1051 C   0  0  0  0  0  0  0  0  0  0  0  0
    2.8804   -1.2795    0.0775 C   0  0  0  0  0  0  0  0  0  0  0  0
    2.3636   -2.6236   -0.1254 C   0  0  0  0  0  0  0  0  0  0  0  0
    3.0211   -3.6687    0.0377 O   0  0  0  0  0  0  0  0  0  0  0  0
    1.0284   -2.7067   -0.5016 N   0  0  0  0  0  0  0  0  0  0  0  0
    0.4776   -3.9959   -0.8388 C   0  0  1  0  0  0  0  0  0  0  0  0
    1.2279   -4.5781   -1.4016 H   0  0  0  0  0  0  0  0  0  0  0  0
    0.1421   -4.7676    0.4611 C   0  0  0  0  0  0  0  0  0  0  0  0
   -0.2520   -6.2595    0.3107 C   0  0  0  0  0  0  0  0  0  0  0  0
    0.6153   -6.9582   -0.7182 C   0  0  0  0  0  0  0  0  0  0  0  0
    1.7083   -7.6037   -0.2628 N   0  0  0  0  0  0  0  0  0  0  0  0
    0.3537   -6.9050   -1.9242 O   0  0  0  0  0  0  0  0  0  0  0  0
   -0.7480   -3.7698   -1.7517 C   0  0  0  0  0  0  0  0  0  0  0  0
   -1.2128   -2.6641   -1.9160 O   0  0  0  0  0  0  0  0  0  0  0  0
   -1.2704   -4.8440   -2.3321 O   0  0  0  0  0  0  0  0  0  0  0  0
    6.3621   -1.6916    0.5013 H   0  0  0  0  0  0  0  0  0  0  0  0
    5.3580   -2.7080   -0.5950 H   0  0  0  0  0  0  0  0  0  0  0  0
    5.1371   -2.8570    1.1384 H   0  0  0  0  0  0  0  0  0  0  0  0
    4.5458    2.2737    0.6181 H   0  0  0  0  0  0  0  0  0  0  0  0
    1.9691    2.0667    0.3097 H   0  0  0  0  0  0  0  0  0  0  0  0
    0.9909   -0.1819    0.0117 H   0  0  0  0  0  0  0  0  0  0  0  0
    0.5596   -1.9329   -0.9641 H   0  0  0  0  0  0  0  0  0  0  0  0
   -0.6641   -4.2346    0.9879 H   0  0  0  0  0  0  0  0  0  0  0  0
    1.0490   -4.6924    1.0796 H   0  0  0  0  0  0  0  0  0  0  0  0
   -1.2873   -6.3514   -0.0474 H   0  0  0  0  0  0  0  0  0  0  0  0
   -0.1922   -6.7595    1.2891 H   0  0  0  0  0  0  0  0  0  0  0  0
    1.9746   -7.5752    0.7115 H   0  0  0  0  0  0  0  0  0  0  0  0
    2.3832   -7.9465   -0.9378 H   0  0  0  0  0  0  0  0  0  0  0  0
   -0.6943   -5.6586   -2.2552 H   0  0  0  0  0  0  0  0  0  0  0  0
  1  2  1  0
  1 21  1  0
  1 22  1  0
  1 23  1  0
  2  3  2  0
  2  7  1  0
  3  4  1  0
  4  5  2  0
  4 24  1  0
  5  6  1  0
  5 25  1  0
  6  7  2  0
  6 26  1  0
  7  8  1  0
  8  9  2  0
  8 10  1  0
 10 11  1  0
 10 27  1  0
 11 12  1  6
 11 13  1  0
 11 18  1  0
 13 14  1  0
 13 28  1  0
 13 29  1  0
 14 15  1  0
 14 30  1  0
 14 31  1  0
 15 16  1  0
 15 17  2  0
 16 32  1  0
 16 33  1  0
 18 19  2  0
 18 20  1  0
 20 34  1  0
M  END

