
     RDKit          3D

 48 52  0  0  0  0  0  0  0  0999 V2000
    1.8084    0.3826    1.1170 O   0  0  0  0  0  0  0  0  0  0  0  0
    2.7908    0.2153    0.3541 C   0  0  0  0  0  0  0  0  0  0  0  0
    3.2404    1.3127   -0.4803 C   0  0  0  0  0  0  0  0  0  0  0  0
    4.1280    1.5111   -1.5849 C   0  0  0  0  0  0  0  0  0  0  0  0
    4.0389    2.8827   -1.9727 C   0  0  0  0  0  0  0  0  0  0  0  0
    4.6436    3.6723   -2.9634 C   0  0  0  0  0  0  0  0  0  0  0  0
    4.2989    5.0554   -3.0722 C   0  0  0  0  0  0  0  0  0  0  0  0
    3.3786    5.6359   -2.2182 C   0  0  0  0  0  0  0  0  0  0  0  0
    2.7461    4.8482   -1.1991 C   0  0  0  0  0  0  0  0  0  0  0  0
    3.0906    3.5069   -1.1015 C   0  0  0  0  0  0  0  0  0  0  0  0
    2.6507    2.5305   -0.2347 N   0  0  0  0  0  0  0  0  0  0  0  0
    1.9384    2.5895    0.4931 H   0  0  0  0  0  0  0  0  0  0  0  0
    3.4216   -1.0427    0.1909 N   0  0  0  0  0  0  0  0  0  0  0  0
    2.7321   -2.1757    0.7960 C   0  0  0  0  0  0  0  0  0  0  0  0
    3.2285   -3.4839    0.1854 C   0  0  0  0  0  0  0  0  0  0  0  0
    4.6840   -3.5893    0.2890 N   0  0  0  0  0  0  0  0  0  0  0  0
    5.2341   -4.7512    0.7867 C   0  0  0  0  0  0  0  0  0  0  0  0
    4.5259   -5.6795    1.1598 O   0  0  0  0  0  0  0  0  0  0  0  0
    6.7311   -4.8734    0.8752 C   0  0  1  0  0  0  0  0  0  0  0  0
    7.2782   -5.7468    1.9909 C   0  0  0  0  0  0  0  0  0  0  0  0
    7.3156   -6.2485    0.5833 C   0  0  2  0  0  0  0  0  0  0  0  0
    8.6043   -6.4418   -0.1664 C   0  0  1  0  0  0  0  0  0  0  0  0
    8.7669   -5.9883   -1.5964 C   0  0  0  0  0  0  0  0  0  0  0  0
    9.5584   -5.3215   -0.4983 C   0  0  0  0  0  0  0  0  0  0  0  0
    5.3839   -2.4462   -0.2773 C   0  0  0  0  0  0  0  0  0  0  0  0
    4.8682   -1.1362    0.3260 C   0  0  0  0  0  0  0  0  0  0  0  0
    4.7190    0.7389   -2.0705 H   0  0  0  0  0  0  0  0  0  0  0  0
    5.3745    3.2400   -3.6511 H   0  0  0  0  0  0  0  0  0  0  0  0
    4.7761    5.6573   -3.8489 H   0  0  0  0  0  0  0  0  0  0  0  0
    3.1224    6.6926   -2.3119 H   0  0  0  0  0  0  0  0  0  0  0  0
    2.0122    5.2961   -0.5256 H   0  0  0  0  0  0  0  0  0  0  0  0
    1.6525   -2.0541    0.6359 H   0  0  0  0  0  0  0  0  0  0  0  0
    2.8907   -2.1954    1.8941 H   0  0  0  0  0  0  0  0  0  0  0  0
    2.9340   -3.5258   -0.8806 H   0  0  0  0  0  0  0  0  0  0  0  0
    2.7952   -4.3502    0.6988 H   0  0  0  0  0  0  0  0  0  0  0  0
    7.3455   -4.0158    0.6061 H   0  0  0  0  0  0  0  0  0  0  0  0
    6.5380   -6.1835    2.6652 H   0  0  0  0  0  0  0  0  0  0  0  0
    8.2169   -5.4223    2.4492 H   0  0  0  0  0  0  0  0  0  0  0  0
    6.5461   -6.9938    0.3538 H   0  0  0  0  0  0  0  0  0  0  0  0
    9.0851   -7.3976    0.0760 H   0  0  0  0  0  0  0  0  0  0  0  0
    7.9418   -5.4225   -2.0403 H   0  0  0  0  0  0  0  0  0  0  0  0
    9.2911   -6.6422   -2.2991 H   0  0  0  0  0  0  0  0  0  0  0  0
    9.2912   -4.2965   -0.2248 H   0  0  0  0  0  0  0  0  0  0  0  0
   10.6306   -5.5262   -0.4297 H   0  0  0  0  0  0  0  0  0  0  0  0
    5.2214   -2.4192   -1.3730 H   0  0  0  0  0  0  0  0  0  0  0  0
    6.4626   -2.5226   -0.1041 H   0  0  0  0  0  0  0  0  0  0  0  0
    5.3521   -0.2867   -0.1803 H   0  0  0  0  0  0  0  0  0  0  0  0
    5.1691   -1.0873    1.3957 H   0  0  0  0  0  0  0  0  0  0  0  0
  1  2  2  0
  2  3  1  0
  2 13  1  0
  3  4  2  0
  3 11  1  0
  4  5  1  0
  4 27  1  0
  5  6  2  0
  5 10  1  0
  6  7  1  0
  6 28  1  0
  7  8  2  0
  7 29  1  0
  8  9  1  0
  8 30  1  0
  9 10  2  0
  9 31  1  0
 10 11  1  0
 11 12  1  0
 13 14  1  0
 13 26  1  0
 14 15  1  0
 14 32  1  0
 14 33  1  0
 15 16  1  0
 15 34  1  0
 15 35  1  0
 16 17  1  0
 16 25  1  0
 17 18  2  0
 17 19  1  0
 19 20  1  0
 19 21  1  0
 19 36  1  6
 20 21  1  0
 20 37  1  0
 20 38  1  0
 21 22  1  0
 21 39  1  1
 22 23  1  0
 22 24  1  0
 22 40  1  6
 23 24  1  0
 23 41  1  0
 23 42  1  0
 24 43  1  0
 24 44  1  0
 25 26  1  0
 25 45  1  0
 25 46  1  0
 26 47  1  0
 26 48  1  0
M  END

