
     RDKit          3D

 64 67  0  0  0  0  0  0  0  0999 V2000
    0.6337   -2.4095   -3.6693 C   0  0  0  0  0  0  0  0  0  0  0  0
    2.1070   -2.7886   -3.5102 C   0  0  0  0  0  0  0  0  0  0  0  0
    2.9736   -1.7309   -2.8034 C   0  0  1  0  0  0  0  0  0  0  0  0
    2.4801   -1.3389   -1.3857 C   0  0  0  0  0  0  0  0  0  0  0  0
    2.3560   -2.4904   -0.3843 C   0  0  0  0  0  0  0  0  0  0  0  0
    4.4320   -2.2156   -2.7345 C   0  0  0  0  0  0  0  0  0  0  0  0
    4.7040   -3.3806   -2.4550 O   0  0  0  0  0  0  0  0  0  0  0  0
    5.3461   -1.2348   -2.9714 N   0  0  0  0  0  0  0  0  0  0  0  0
    6.7433   -1.2568   -2.9576 C   0  0  0  0  0  0  0  0  0  0  0  0
    7.4450   -0.0727   -3.3365 C   0  0  0  0  0  0  0  0  0  0  0  0
    6.9087    1.1558   -3.7410 C   0  0  0  0  0  0  0  0  0  0  0  0
    5.6696    1.4062   -3.7617 O   0  0  0  0  0  0  0  0  0  0  0  0
    7.8167    2.2337   -4.1241 N   0  0  0  0  0  0  0  0  0  0  0  0
    7.1555    3.4852   -4.3993 C   0  0  0  0  0  0  0  0  0  0  0  0
    8.1697    4.6265   -4.3562 C   0  0  0  0  0  0  0  0  0  0  0  0
    9.2805    4.3940   -5.3107 N   0  0  0  0  0  0  0  0  0  0  0  0
    9.6913    5.2827   -6.2312 C   0  0  0  0  0  0  0  0  0  0  0  0
   10.8196    5.0225   -7.0960 C   0  0  0  0  0  0  0  0  0  0  0  0
   11.2330    5.9354   -8.0293 C   0  0  0  0  0  0  0  0  0  0  0  0
   10.5650    7.1807   -8.1850 C   0  0  0  0  0  0  0  0  0  0  0  0
   11.0435    7.9896   -9.1208 O   0  0  0  0  0  0  0  0  0  0  0  0
   10.4488    9.2627   -9.3675 C   0  0  0  0  0  0  0  0  0  0  0  0
    9.4583    7.4697   -7.3495 C   0  0  0  0  0  0  0  0  0  0  0  0
    9.0389    6.5572   -6.4074 C   0  0  0  0  0  0  0  0  0  0  0  0
    9.8908    3.0592   -5.1040 C   0  0  0  0  0  0  0  0  0  0  0  0
    8.8302    1.9560   -5.1139 C   0  0  0  0  0  0  0  0  0  0  0  0
    8.8245   -0.3032   -3.2282 O   0  0  0  0  0  0  0  0  0  0  0  0
    8.9805   -1.5902   -2.7933 C   0  0  0  0  0  0  0  0  0  0  0  0
   10.1989   -2.2019   -2.5572 C   0  0  0  0  0  0  0  0  0  0  0  0
   10.1823   -3.5377   -2.1040 C   0  0  0  0  0  0  0  0  0  0  0  0
    8.9585   -4.1986   -1.9094 C   0  0  0  0  0  0  0  0  0  0  0  0
    7.7315   -3.5772   -2.1493 C   0  0  0  0  0  0  0  0  0  0  0  0
    7.7192   -2.2327   -2.6058 C   0  0  0  0  0  0  0  0  0  0  0  0
    0.0922   -3.1712   -4.2539 H   0  0  0  0  0  0  0  0  0  0  0  0
    0.5168   -1.4457   -4.1949 H   0  0  0  0  0  0  0  0  0  0  0  0
    0.1190   -2.3185   -2.6993 H   0  0  0  0  0  0  0  0  0  0  0  0
    2.5424   -2.9722   -4.5078 H   0  0  0  0  0  0  0  0  0  0  0  0
    2.2060   -3.7438   -2.9713 H   0  0  0  0  0  0  0  0  0  0  0  0
    2.9465   -0.8079   -3.4100 H   0  0  0  0  0  0  0  0  0  0  0  0
    1.5079   -0.8239   -1.4805 H   0  0  0  0  0  0  0  0  0  0  0  0
    3.1779   -0.5820   -0.9874 H   0  0  0  0  0  0  0  0  0  0  0  0
    1.5761   -3.2095   -0.6831 H   0  0  0  0  0  0  0  0  0  0  0  0
    2.0858   -2.1090    0.6141 H   0  0  0  0  0  0  0  0  0  0  0  0
    3.2993   -3.0496   -0.2989 H   0  0  0  0  0  0  0  0  0  0  0  0
    5.0081   -0.2983   -3.2278 H   0  0  0  0  0  0  0  0  0  0  0  0
    6.3781    3.6631   -3.6459 H   0  0  0  0  0  0  0  0  0  0  0  0
    6.6368    3.4960   -5.3840 H   0  0  0  0  0  0  0  0  0  0  0  0
    8.6267    4.6798   -3.3553 H   0  0  0  0  0  0  0  0  0  0  0  0
    7.6788    5.5806   -4.5600 H   0  0  0  0  0  0  0  0  0  0  0  0
   11.3698    4.0905   -7.0149 H   0  0  0  0  0  0  0  0  0  0  0  0
   12.0872    5.7288   -8.6752 H   0  0  0  0  0  0  0  0  0  0  0  0
   11.0298    9.7144  -10.1792 H   0  0  0  0  0  0  0  0  0  0  0  0
   10.5065    9.9028   -8.4734 H   0  0  0  0  0  0  0  0  0  0  0  0
    9.4001    9.1508   -9.6836 H   0  0  0  0  0  0  0  0  0  0  0  0
    8.9230    8.4137   -7.4418 H   0  0  0  0  0  0  0  0  0  0  0  0
    8.1842    6.8227   -5.7937 H   0  0  0  0  0  0  0  0  0  0  0  0
   10.3815    3.0838   -4.1186 H   0  0  0  0  0  0  0  0  0  0  0  0
   10.6489    2.8594   -5.8644 H   0  0  0  0  0  0  0  0  0  0  0  0
    9.3360    1.0127   -4.8780 H   0  0  0  0  0  0  0  0  0  0  0  0
    8.4127    1.8694   -6.1444 H   0  0  0  0  0  0  0  0  0  0  0  0
   11.1326   -1.6579   -2.7151 H   0  0  0  0  0  0  0  0  0  0  0  0
   11.1241   -4.0542   -1.9047 H   0  0  0  0  0  0  0  0  0  0  0  0
    8.9638   -5.2349   -1.5589 H   0  0  0  0  0  0  0  0  0  0  0  0
    6.7843   -4.0933   -2.0060 H   0  0  0  0  0  0  0  0  0  0  0  0
  1  2  1  0
  1 34  1  0
  1 35  1  0
  1 36  1  0
  2  3  1  0
  2 37  1  0
  2 38  1  0
  3  4  1  0
  3  6  1  0
  3 39  1  6
  4  5  1  0
  4 40  1  0
  4 41  1  0
  5 42  1  0
  5 43  1  0
  5 44  1  0
  6  7  2  0
  6  8  1  0
  8  9  1  0
  8 45  1  0
  9 10  2  0
  9 33  1  0
 10 11  1  0
 10 27  1  0
 11 12  2  0
 11 13  1  0
 13 14  1  0
 13 26  1  0
 14 15  1  0
 14 46  1  0
 14 47  1  0
 15 16  1  0
 15 48  1  0
 15 49  1  0
 16 17  1  0
 16 25  1  0
 17 18  2  0
 17 24  1  0
 18 19  1  0
 18 50  1  0
 19 20  2  0
 19 51  1  0
 20 21  1  0
 20 23  1  0
 21 22  1  0
 22 52  1  0
 22 53  1  0
 22 54  1  0
 23 24  2  0
 23 55  1  0
 24 56  1  0
 25 26  1  0
 25 57  1  0
 25 58  1  0
 26 59  1  0
 26 60  1  0
 27 28  1  0
 28 29  1  0
 28 33  2  0
 29 30  2  0
 29 61  1  0
 30 31  1  0
 30 62  1  0
 31 32  2  0
 31 63  1  0
 32 33  1  0
 32 64  1  0
M  END

