
     RDKit          3D

 35 36  0  0  0  0  0  0  0  0999 V2000
    1.0776    3.7133   -0.0654 C   0  0  0  0  0  0  0  0  0  0  0  0
    2.4383    3.5517    0.2325 O   0  0  0  0  0  0  0  0  0  0  0  0
    2.7827    2.2579    0.6640 C   0  0  0  0  0  0  0  0  0  0  0  0
    4.2726    2.2187    0.9714 C   0  0  0  0  0  0  0  0  0  0  0  0
    4.6687    3.2075    2.0707 C   0  0  0  0  0  0  0  0  0  0  0  0
    6.0940    3.1597    2.3643 N   0  0  0  0  0  0  0  0  0  0  0  0
    6.8762    4.2535    2.3794 C   0  0  0  0  0  0  0  0  0  0  0  0
    6.5410    5.3945    2.1182 O   0  0  0  0  0  0  0  0  0  0  0  0
    8.3688    3.9679    2.7380 C   0  0  0  0  0  0  0  0  0  0  0  0
    8.7163    3.8335    4.5139 S   0  0  0  0  0  0  0  0  0  0  0  0
    8.2627    2.1980    4.8319 C   0  0  0  0  0  0  0  0  0  0  0  0
    7.7205    1.3390    3.9679 N   0  0  0  0  0  0  0  0  0  0  0  0
    7.5187    0.1818    4.6032 N   0  0  0  0  0  0  0  0  0  0  0  0
    7.9509    0.3220    5.8841 C   0  0  0  0  0  0  0  0  0  0  0  0
    7.9766   -0.6040    6.9734 C   0  0  0  0  0  0  0  0  0  0  0  0
    7.4015   -2.2217    6.7449 Cl  0  0  0  0  0  0  0  0  0  0  0  0
    8.4944   -0.1468    8.2196 C   0  0  0  0  0  0  0  0  0  0  0  0
    8.9578    1.1506    8.3499 C   0  0  0  0  0  0  0  0  0  0  0  0
    9.5900    1.7242    9.8712 Cl  0  0  0  0  0  0  0  0  0  0  0  0
    8.9452    2.0745    7.2713 C   0  0  0  0  0  0  0  0  0  0  0  0
    8.4243    1.5902    6.0750 N   0  0  0  0  0  0  0  0  0  0  0  0
    0.9248    4.7523   -0.3916 H   0  0  0  0  0  0  0  0  0  0  0  0
    0.4328    3.5220    0.8167 H   0  0  0  0  0  0  0  0  0  0  0  0
    0.7475    3.0359   -0.8794 H   0  0  0  0  0  0  0  0  0  0  0  0
    2.5385    1.5057   -0.1153 H   0  0  0  0  0  0  0  0  0  0  0  0
    2.1959    1.9811    1.5675 H   0  0  0  0  0  0  0  0  0  0  0  0
    4.8375    2.4501    0.0530 H   0  0  0  0  0  0  0  0  0  0  0  0
    4.5417    1.1902    1.2686 H   0  0  0  0  0  0  0  0  0  0  0  0
    4.0953    2.9925    2.9914 H   0  0  0  0  0  0  0  0  0  0  0  0
    4.4244    4.2322    1.7631 H   0  0  0  0  0  0  0  0  0  0  0  0
    6.5136    2.2790    2.6852 H   0  0  0  0  0  0  0  0  0  0  0  0
    8.9498    4.8385    2.4115 H   0  0  0  0  0  0  0  0  0  0  0  0
    8.7269    3.0498    2.2520 H   0  0  0  0  0  0  0  0  0  0  0  0
    8.5232   -0.8272    9.0705 H   0  0  0  0  0  0  0  0  0  0  0  0
    9.2764    3.1058    7.3245 H   0  0  0  0  0  0  0  0  0  0  0  0
  1  2  1  0
  1 22  1  0
  1 23  1  0
  1 24  1  0
  2  3  1  0
  3  4  1  0
  3 25  1  0
  3 26  1  0
  4  5  1  0
  4 27  1  0
  4 28  1  0
  5  6  1  0
  5 29  1  0
  5 30  1  0
  6  7  1  0
  6 31  1  0
  7  8  2  0
  7  9  1  0
  9 10  1  0
  9 32  1  0
  9 33  1  0
 10 11  1  0
 11 12  2  0
 11 21  1  0
 12 13  1  0
 13 14  2  0
 14 15  1  0
 14 21  1  0
 15 16  1  0
 15 17  2  0
 17 18  1  0
 17 34  1  0
 18 19  1  0
 18 20  2  0
 20 21  1  0
 20 35  1  0
M  END

