
     RDKit          3D

 47 49  0  0  0  0  0  0  0  0999 V2000
    2.6731   -0.6153   -1.1564 C   0  0  0  0  0  0  0  0  0  0  0  0
    2.5229   -0.0906    0.2692 C   0  0  2  0  0  0  0  0  0  0  0  0
    1.4510   -0.0326    0.5119 H   0  0  0  0  0  0  0  0  0  0  0  0
    3.1579    1.2798    0.5162 C   0  0  0  0  0  0  0  0  0  0  0  0
    4.6616    1.1755    0.5039 C   0  0  0  0  0  0  0  0  0  0  0  0
    5.4728    2.2313    0.0518 C   0  0  0  0  0  0  0  0  0  0  0  0
    4.9760    3.4248   -0.3734 O   0  0  0  0  0  0  0  0  0  0  0  0
    6.8553    2.0652    0.0222 C   0  0  0  0  0  0  0  0  0  0  0  0
    7.4558    0.8789    0.4602 C   0  0  0  0  0  0  0  0  0  0  0  0
    8.9495    0.8282    0.3929 C   0  0  0  0  0  0  0  0  0  0  0  0
    9.5808    1.5040   -0.4213 O   0  0  0  0  0  0  0  0  0  0  0  0
    9.5902   -0.0085    1.2736 N   0  0  0  0  0  0  0  0  0  0  0  0
   11.0515    0.0380    1.4607 C   0  0  1  0  0  0  0  0  0  0  0  0
   11.3588    1.1006    1.4636 H   0  0  0  0  0  0  0  0  0  0  0  0
   11.4287   -0.6212    2.7970 C   0  0  0  0  0  0  0  0  0  0  0  0
   10.7363   -0.0099    3.9958 C   0  0  0  0  0  0  0  0  0  0  0  0
    9.6312   -0.6412    4.5911 C   0  0  0  0  0  0  0  0  0  0  0  0
    8.9679   -0.0587    5.6776 C   0  0  0  0  0  0  0  0  0  0  0  0
    9.4056    1.1642    6.1901 C   0  0  0  0  0  0  0  0  0  0  0  0
   10.5097    1.8008    5.6117 C   0  0  0  0  0  0  0  0  0  0  0  0
   11.1661    1.2194    4.5254 C   0  0  0  0  0  0  0  0  0  0  0  0
   11.8060   -0.6450    0.2868 C   0  0  0  0  0  0  0  0  0  0  0  0
   12.5259   -1.5944    0.4574 O   0  0  0  0  0  0  0  0  0  0  0  0
   11.6299   -0.0854   -0.9059 O   0  0  0  0  0  0  0  0  0  0  0  0
    6.6503   -0.2005    0.9028 C   0  0  0  0  0  0  0  0  0  0  0  0
    7.1710   -1.3948    1.2564 O   0  0  0  0  0  0  0  0  0  0  0  0
    5.2458   -0.0294    0.9484 C   0  0  0  0  0  0  0  0  0  0  0  0
    4.3656   -1.1028    1.5207 C   0  0  0  0  0  0  0  0  0  0  0  0
    4.7434   -1.9760    2.2536 O   0  0  0  0  0  0  0  0  0  0  0  0
    3.0395   -1.0341    1.2191 O   0  0  0  0  0  0  0  0  0  0  0  0
    3.7278   -0.6688   -1.4668 H   0  0  0  0  0  0  0  0  0  0  0  0
    2.1377    0.0378   -1.8637 H   0  0  0  0  0  0  0  0  0  0  0  0
    2.2422   -1.6249   -1.2256 H   0  0  0  0  0  0  0  0  0  0  0  0
    2.8052    1.6678    1.4894 H   0  0  0  0  0  0  0  0  0  0  0  0
    2.7980    1.9789   -0.2579 H   0  0  0  0  0  0  0  0  0  0  0  0
    4.0251    3.4690   -0.2158 H   0  0  0  0  0  0  0  0  0  0  0  0
    7.4856    2.8768   -0.3432 H   0  0  0  0  0  0  0  0  0  0  0  0
    9.0747   -0.2338    2.1243 H   0  0  0  0  0  0  0  0  0  0  0  0
   12.5210   -0.5441    2.8957 H   0  0  0  0  0  0  0  0  0  0  0  0
   11.2109   -1.6977    2.7272 H   0  0  0  0  0  0  0  0  0  0  0  0
    9.2905   -1.6102    4.2124 H   0  0  0  0  0  0  0  0  0  0  0  0
    8.1112   -0.5686    6.1252 H   0  0  0  0  0  0  0  0  0  0  0  0
    8.8926    1.6189    7.0412 H   0  0  0  0  0  0  0  0  0  0  0  0
   10.8636    2.7541    6.0131 H   0  0  0  0  0  0  0  0  0  0  0  0
   12.0329    1.7227    4.0864 H   0  0  0  0  0  0  0  0  0  0  0  0
   10.9796    0.6608   -0.8490 H   0  0  0  0  0  0  0  0  0  0  0  0
    8.0947   -1.4492    0.9638 H   0  0  0  0  0  0  0  0  0  0  0  0
  1  2  1  0
  1 31  1  0
  1 32  1  0
  1 33  1  0
  2  3  1  1
  2  4  1  0
  2 30  1  0
  4  5  1  0
  4 34  1  0
  4 35  1  0
  5  6  1  0
  5 27  2  0
  6  7  1  0
  6  8  2  0
  7 36  1  0
  8  9  1  0
  8 37  1  0
  9 10  1  0
  9 25  2  0
 10 11  2  0
 10 12  1  0
 12 13  1  0
 12 38  1  0
 13 14  1  1
 13 15  1  0
 13 22  1  0
 15 16  1  0
 15 39  1  0
 15 40  1  0
 16 17  2  0
 16 21  1  0
 17 18  1  0
 17 41  1  0
 18 19  2  0
 18 42  1  0
 19 20  1  0
 19 43  1  0
 20 21  2  0
 20 44  1  0
 21 45  1  0
 22 23  2  0
 22 24  1  0
 24 46  1  0
 25 26  1  0
 25 27  1  0
 26 47  1  0
 27 28  1  0
 28 29  2  0
 28 30  1  0
M  END

