
     RDKit          3D

 37 38  0  0  0  0  0  0  0  0999 V2000
    1.7740   -0.4048    2.0842 C   0  0  0  0  0  0  0  0  0  0  0  0
    2.9409   -0.1112    1.1751 C   0  0  0  0  0  0  0  0  0  0  0  0
    3.6500    1.0917    1.2551 C   0  0  0  0  0  0  0  0  0  0  0  0
    4.7259    1.2866    0.3756 C   0  0  0  0  0  0  0  0  0  0  0  0
    5.0548    0.3019   -0.5410 C   0  0  0  0  0  0  0  0  0  0  0  0
    4.2776   -0.8866   -0.5526 C   0  0  0  0  0  0  0  0  0  0  0  0
    4.5422   -1.8830   -1.4580 N   0  0  0  0  0  0  0  0  0  0  0  0
    3.8408   -3.1505   -1.4933 C   0  0  0  0  0  0  0  0  0  0  0  0
    4.3202   -4.1674   -0.4466 C   0  0  0  0  0  0  0  0  0  0  0  0
    3.5890   -5.4975   -0.5319 C   0  0  0  0  0  0  0  0  0  0  0  0
    3.8421   -6.0868   -1.7951 O   0  0  0  0  0  0  0  0  0  0  0  0
    3.1414   -7.2749   -2.0579 C   0  0  1  0  0  0  0  0  0  0  0  0
    3.2949   -7.6850   -3.5235 C   0  0  0  0  0  0  0  0  0  0  0  0
    3.0037   -9.1877   -3.4818 C   0  0  0  0  0  0  0  0  0  0  0  0
    3.3069   -9.6251   -2.1553 O   0  0  0  0  0  0  0  0  0  0  0  0
    3.6885   -8.5286   -1.3469 C   0  0  0  0  0  0  0  0  0  0  0  0
    3.2572   -1.0729    0.2938 N   0  0  0  0  0  0  0  0  0  0  0  0
    1.5639    0.4291    2.7690 H   0  0  0  0  0  0  0  0  0  0  0  0
    1.9733   -1.3101    2.6807 H   0  0  0  0  0  0  0  0  0  0  0  0
    0.8699   -0.6110    1.4886 H   0  0  0  0  0  0  0  0  0  0  0  0
    3.3726    1.8544    1.9849 H   0  0  0  0  0  0  0  0  0  0  0  0
    5.3043    2.2141    0.4103 H   0  0  0  0  0  0  0  0  0  0  0  0
    5.8837    0.4310   -1.2416 H   0  0  0  0  0  0  0  0  0  0  0  0
    5.3755   -1.7838   -2.0216 H   0  0  0  0  0  0  0  0  0  0  0  0
    3.9568   -3.5812   -2.4991 H   0  0  0  0  0  0  0  0  0  0  0  0
    2.7688   -2.9532   -1.3367 H   0  0  0  0  0  0  0  0  0  0  0  0
    4.1667   -3.7441    0.5588 H   0  0  0  0  0  0  0  0  0  0  0  0
    5.4030   -4.3445   -0.5690 H   0  0  0  0  0  0  0  0  0  0  0  0
    2.4968   -5.3465   -0.3983 H   0  0  0  0  0  0  0  0  0  0  0  0
    3.9238   -6.1647    0.2870 H   0  0  0  0  0  0  0  0  0  0  0  0
    2.0678   -7.1470   -1.8065 H   0  0  0  0  0  0  0  0  0  0  0  0
    4.3367   -7.4825   -3.8207 H   0  0  0  0  0  0  0  0  0  0  0  0
    2.6315   -7.1290   -4.2018 H   0  0  0  0  0  0  0  0  0  0  0  0
    3.6091   -9.7569   -4.2086 H   0  0  0  0  0  0  0  0  0  0  0  0
    1.9400   -9.4032   -3.6959 H   0  0  0  0  0  0  0  0  0  0  0  0
    4.7920   -8.4354   -1.2702 H   0  0  0  0  0  0  0  0  0  0  0  0
    3.2842   -8.6817   -0.3331 H   0  0  0  0  0  0  0  0  0  0  0  0
  1  2  1  0
  1 18  1  0
  1 19  1  0
  1 20  1  0
  2  3  2  0
  2 17  1  0
  3  4  1  0
  3 21  1  0
  4  5  2  0
  4 22  1  0
  5  6  1  0
  5 23  1  0
  6  7  1  0
  6 17  2  0
  7  8  1  0
  7 24  1  0
  8  9  1  0
  8 25  1  0
  8 26  1  0
  9 10  1  0
  9 27  1  0
  9 28  1  0
 10 11  1  0
 10 29  1  0
 10 30  1  0
 11 12  1  0
 12 13  1  0
 12 16  1  0
 12 31  1  1
 13 14  1  0
 13 32  1  0
 13 33  1  0
 14 15  1  0
 14 34  1  0
 14 35  1  0
 15 16  1  0
 16 36  1  0
 16 37  1  0
M  END

