
     RDKit          3D

 39 40  0  0  0  0  0  0  0  0999 V2000
    5.4767    2.4243    1.4060 C   0  0  0  0  0  0  0  0  0  0  0  0
    4.4630    1.0010    0.8899 S   0  0  0  0  0  0  0  0  0  0  0  0
    5.5132   -0.4037    1.4972 C   0  0  1  0  0  0  0  0  0  0  0  0
    5.2543   -0.6103    2.9957 C   0  0  0  0  0  0  0  0  0  0  0  0
    3.9169   -0.9553    3.2665 O   0  0  0  0  0  0  0  0  0  0  0  0
    5.1809   -1.6657    0.6547 C   0  0  1  0  0  0  0  0  0  0  0  0
    5.5293   -1.5280   -0.8327 C   0  0  0  0  0  0  0  0  0  0  0  0
    5.8074   -2.8591    1.2341 N   0  0  0  0  0  0  0  0  0  0  0  0
    7.1404   -3.0578    1.3325 C   0  0  0  0  0  0  0  0  0  0  0  0
    8.0061   -2.2735    0.9673 O   0  0  0  0  0  0  0  0  0  0  0  0
    7.5582   -4.3943    1.9567 C   0  0  2  0  0  0  0  0  0  0  0  0
    8.4553   -5.1792    1.0031 C   0  0  0  0  0  0  0  0  0  0  0  0
    8.8789   -6.3881    1.6078 O   0  0  0  0  0  0  0  0  0  0  0  0
    7.8913   -7.0921    2.2355 C   0  0  0  0  0  0  0  0  0  0  0  0
    8.1146   -8.4354    2.5557 C   0  0  0  0  0  0  0  0  0  0  0  0
    7.1234   -9.1806    3.1958 C   0  0  0  0  0  0  0  0  0  0  0  0
    5.8967   -8.5873    3.5172 C   0  0  0  0  0  0  0  0  0  0  0  0
    5.6704   -7.2441    3.2115 C   0  0  0  0  0  0  0  0  0  0  0  0
    6.6630   -6.4929    2.5767 C   0  0  0  0  0  0  0  0  0  0  0  0
    6.4165   -5.1697    2.3003 O   0  0  0  0  0  0  0  0  0  0  0  0
    4.9280    3.3263    1.0997 H   0  0  0  0  0  0  0  0  0  0  0  0
    6.4542    2.4125    0.9012 H   0  0  0  0  0  0  0  0  0  0  0  0
    5.6220    2.4548    2.4959 H   0  0  0  0  0  0  0  0  0  0  0  0
    6.5682   -0.1353    1.3332 H   0  0  0  0  0  0  0  0  0  0  0  0
    5.5669    0.2998    3.5466 H   0  0  0  0  0  0  0  0  0  0  0  0
    5.8799   -1.4347    3.3714 H   0  0  0  0  0  0  0  0  0  0  0  0
    3.3738   -0.2467    2.8831 H   0  0  0  0  0  0  0  0  0  0  0  0
    4.0986   -1.8400    0.7575 H   0  0  0  0  0  0  0  0  0  0  0  0
    6.6112   -1.3834   -0.9619 H   0  0  0  0  0  0  0  0  0  0  0  0
    5.0033   -0.6722   -1.2769 H   0  0  0  0  0  0  0  0  0  0  0  0
    5.2320   -2.4406   -1.3723 H   0  0  0  0  0  0  0  0  0  0  0  0
    5.2139   -3.5838    1.6239 H   0  0  0  0  0  0  0  0  0  0  0  0
    8.1357   -4.1612    2.8714 H   0  0  0  0  0  0  0  0  0  0  0  0
    9.3493   -4.5916    0.7612 H   0  0  0  0  0  0  0  0  0  0  0  0
    7.9000   -5.3920    0.0699 H   0  0  0  0  0  0  0  0  0  0  0  0
    9.0775   -8.8733    2.2842 H   0  0  0  0  0  0  0  0  0  0  0  0
    7.3081  -10.2294    3.4393 H   0  0  0  0  0  0  0  0  0  0  0  0
    5.1161   -9.1680    4.0137 H   0  0  0  0  0  0  0  0  0  0  0  0
    4.7292   -6.7509    3.4641 H   0  0  0  0  0  0  0  0  0  0  0  0
  1  2  1  0
  1 21  1  0
  1 22  1  0
  1 23  1  0
  2  3  1  0
  3  4  1  0
  3  6  1  0
  3 24  1  1
  4  5  1  0
  4 25  1  0
  4 26  1  0
  5 27  1  0
  6  7  1  0
  6  8  1  0
  6 28  1  6
  7 29  1  0
  7 30  1  0
  7 31  1  0
  8  9  1  0
  8 32  1  0
  9 10  2  0
  9 11  1  0
 11 12  1  0
 11 20  1  0
 11 33  1  1
 12 13  1  0
 12 34  1  0
 12 35  1  0
 13 14  1  0
 14 15  1  0
 14 19  2  0
 15 16  2  0
 15 36  1  0
 16 17  1  0
 16 37  1  0
 17 18  2  0
 17 38  1  0
 18 19  1  0
 18 39  1  0
 19 20  1  0
M  END

