
     RDKit          3D

 30 31  0  0  0  0  0  0  0  0999 V2000
    1.2758   -2.3048    1.3407 C   0  0  0  0  0  0  0  0  0  0  0  0
    3.0494   -2.7376    1.3427 S   0  0  0  0  0  0  0  0  0  0  0  0
    3.7661   -1.3245    0.2866 C   0  0  0  0  0  0  0  0  0  0  0  0
    5.2497   -1.2709    0.3521 C   0  0  0  0  0  0  0  0  0  0  0  0
    6.0943   -1.6400   -0.7894 C   0  0  0  0  0  0  0  0  0  0  0  0
    7.4731   -1.5831   -0.6200 C   0  0  0  0  0  0  0  0  0  0  0  0
    8.0456   -1.1885    0.5891 C   0  0  0  0  0  0  0  0  0  0  0  0
    7.2540   -0.8707    1.6981 N   0  0  0  0  0  0  0  0  0  0  0  0
    5.9634   -0.9297    1.5050 C   0  0  0  0  0  0  0  0  0  0  0  0
    5.1342   -0.6776    2.7047 N   0  0  0  0  0  0  0  0  0  0  0  0
    5.2532    0.2767    3.6133 C   0  0  0  0  0  0  0  0  0  0  0  0
    6.2937    1.2787    3.5602 C   0  0  0  0  0  0  0  0  0  0  0  0
    6.3477    2.2546    4.5327 C   0  0  0  0  0  0  0  0  0  0  0  0
    5.4064    2.2917    5.5819 C   0  0  0  0  0  0  0  0  0  0  0  0
    4.3861    1.3154    5.6542 C   0  0  0  0  0  0  0  0  0  0  0  0
    4.3013    0.3273    4.7015 C   0  0  0  0  0  0  0  0  0  0  0  0
    0.7611   -2.9987    2.0210 H   0  0  0  0  0  0  0  0  0  0  0  0
    0.8443   -2.4168    0.3341 H   0  0  0  0  0  0  0  0  0  0  0  0
    1.1087   -1.2734    1.6906 H   0  0  0  0  0  0  0  0  0  0  0  0
    3.2590   -0.4179    0.6596 H   0  0  0  0  0  0  0  0  0  0  0  0
    3.4288   -1.4917   -0.7465 H   0  0  0  0  0  0  0  0  0  0  0  0
    5.6406   -1.9436   -1.7333 H   0  0  0  0  0  0  0  0  0  0  0  0
    8.1336   -1.8536   -1.4508 H   0  0  0  0  0  0  0  0  0  0  0  0
    9.1255   -1.1409    0.7336 H   0  0  0  0  0  0  0  0  0  0  0  0
    4.3553   -1.3451    2.8035 H   0  0  0  0  0  0  0  0  0  0  0  0
    7.0302    1.2020    2.7649 H   0  0  0  0  0  0  0  0  0  0  0  0
    7.1366    3.0084    4.4915 H   0  0  0  0  0  0  0  0  0  0  0  0
    5.4661    3.0721    6.3427 H   0  0  0  0  0  0  0  0  0  0  0  0
    3.6631    1.3465    6.4719 H   0  0  0  0  0  0  0  0  0  0  0  0
    3.5204   -0.4343    4.7466 H   0  0  0  0  0  0  0  0  0  0  0  0
  1  2  1  0
  1 17  1  0
  1 18  1  0
  1 19  1  0
  2  3  1  0
  3  4  1  0
  3 20  1  0
  3 21  1  0
  4  5  2  0
  4  9  1  0
  5  6  1  0
  5 22  1  0
  6  7  2  0
  6 23  1  0
  7  8  1  0
  7 24  1  0
  8  9  2  0
  9 10  1  0
 10 11  1  0
 10 25  1  0
 11 12  2  0
 11 16  1  0
 12 13  1  0
 12 26  1  0
 13 14  2  0
 13 27  1  0
 14 15  1  0
 14 28  1  0
 15 16  2  0
 15 29  1  0
 16 30  1  0
M  END

