
     RDKit          3D

 53 56  0  0  0  0  0  0  0  0999 V2000
    1.9148    0.2126    0.9317 C   0  0  0  0  0  0  0  0  0  0  0  0
    3.2287    0.2783    0.1226 C   0  0  1  0  0  0  0  0  0  0  0  0
    3.6394   -1.1007   -0.3979 C   0  0  0  0  0  0  0  0  0  0  0  0
    4.2920   -2.0242    0.3826 C   0  0  0  0  0  0  0  0  0  0  0  0
    4.7156   -1.7673    1.7428 C   0  0  0  0  0  0  0  0  0  0  0  0
    5.3784   -2.6805    2.4985 C   0  0  0  0  0  0  0  0  0  0  0  0
    5.7168   -4.0091    1.9791 C   0  0  0  0  0  0  0  0  0  0  0  0
    6.4580   -4.9669    2.8451 C   0  0  0  0  0  0  0  0  0  0  0  0
    7.4317   -5.8318    2.3097 C   0  0  0  0  0  0  0  0  0  0  0  0
    8.1081   -6.7463    3.1190 C   0  0  0  0  0  0  0  0  0  0  0  0
    7.8327   -6.8146    4.4884 C   0  0  0  0  0  0  0  0  0  0  0  0
    6.8757   -5.9571    5.0382 C   0  0  0  0  0  0  0  0  0  0  0  0
    6.2000   -5.0420    4.2273 C   0  0  0  0  0  0  0  0  0  0  0  0
    5.3370   -4.3352    0.7208 C   0  0  0  0  0  0  0  0  0  0  0  0
    4.5734   -3.4108   -0.1877 C   0  0  0  0  0  0  0  0  0  0  0  0
    3.1947   -1.4282   -1.6693 N   0  0  0  0  0  0  0  0  0  0  0  0
    3.0963   -0.4193   -2.7171 C   0  0  0  0  0  0  0  0  0  0  0  0
    2.4492    0.8365   -2.1637 C   0  0  0  0  0  0  0  0  0  0  0  0
    3.1549    1.2628   -0.9630 N   0  0  0  0  0  0  0  0  0  0  0  0
    3.5238    2.6025   -0.8759 C   0  0  0  0  0  0  0  0  0  0  0  0
    3.4324    3.3540   -1.8352 O   0  0  0  0  0  0  0  0  0  0  0  0
    3.9965    3.0121    0.3604 N   0  0  0  0  0  0  0  0  0  0  0  0
    4.5177    4.2698    0.7230 C   0  0  0  0  0  0  0  0  0  0  0  0
    4.6579    5.3513   -0.1659 C   0  0  0  0  0  0  0  0  0  0  0  0
    5.1928    6.5571    0.2954 C   0  0  0  0  0  0  0  0  0  0  0  0
    5.5922    6.7173    1.6247 C   0  0  0  0  0  0  0  0  0  0  0  0
    5.4511    5.6423    2.5074 C   0  0  0  0  0  0  0  0  0  0  0  0
    4.9211    4.4321    2.0627 C   0  0  0  0  0  0  0  0  0  0  0  0
    2.0181   -0.4692    1.7882 H   0  0  0  0  0  0  0  0  0  0  0  0
    1.0885   -0.1587    0.3076 H   0  0  0  0  0  0  0  0  0  0  0  0
    1.6404    1.2123    1.3058 H   0  0  0  0  0  0  0  0  0  0  0  0
    4.0426    0.5885    0.7890 H   0  0  0  0  0  0  0  0  0  0  0  0
    4.5185   -0.7878    2.1838 H   0  0  0  0  0  0  0  0  0  0  0  0
    5.7090   -2.4110    3.5031 H   0  0  0  0  0  0  0  0  0  0  0  0
    7.6755   -5.7680    1.2467 H   0  0  0  0  0  0  0  0  0  0  0  0
    8.8642   -7.4020    2.6791 H   0  0  0  0  0  0  0  0  0  0  0  0
    8.3650   -7.5273    5.1234 H   0  0  0  0  0  0  0  0  0  0  0  0
    6.6492   -6.0024    6.1069 H   0  0  0  0  0  0  0  0  0  0  0  0
    5.4423   -4.3914    4.6705 H   0  0  0  0  0  0  0  0  0  0  0  0
    5.5508   -5.3336    0.3286 H   0  0  0  0  0  0  0  0  0  0  0  0
    3.6174   -3.9077   -0.4668 H   0  0  0  0  0  0  0  0  0  0  0  0
    5.1221   -3.3273   -1.1519 H   0  0  0  0  0  0  0  0  0  0  0  0
    3.5017   -2.3350   -1.9998 H   0  0  0  0  0  0  0  0  0  0  0  0
    2.4861   -0.8235   -3.5404 H   0  0  0  0  0  0  0  0  0  0  0  0
    4.0925   -0.1613   -3.1301 H   0  0  0  0  0  0  0  0  0  0  0  0
    1.3847    0.6378   -1.9361 H   0  0  0  0  0  0  0  0  0  0  0  0
    2.4978    1.6567   -2.8887 H   0  0  0  0  0  0  0  0  0  0  0  0
    3.9401    2.3558    1.1260 H   0  0  0  0  0  0  0  0  0  0  0  0
    4.3419    5.2338   -1.1991 H   0  0  0  0  0  0  0  0  0  0  0  0
    5.2952    7.3885   -0.4074 H   0  0  0  0  0  0  0  0  0  0  0  0
    6.0077    7.6669    1.9698 H   0  0  0  0  0  0  0  0  0  0  0  0
    5.7567    5.7421    3.5522 H   0  0  0  0  0  0  0  0  0  0  0  0
    4.8191    3.5964    2.7627 H   0  0  0  0  0  0  0  0  0  0  0  0
  1  2  1  0
  1 29  1  0
  1 30  1  0
  1 31  1  0
  2  3  1  0
  2 19  1  0
  2 32  1  1
  3  4  2  0
  3 16  1  0
  4  5  1  0
  4 15  1  0
  5  6  2  0
  5 33  1  0
  6  7  1  0
  6 34  1  0
  7  8  1  0
  7 14  2  0
  8  9  2  0
  8 13  1  0
  9 10  1  0
  9 35  1  0
 10 11  2  0
 10 36  1  0
 11 12  1  0
 11 37  1  0
 12 13  2  0
 12 38  1  0
 13 39  1  0
 14 15  1  0
 14 40  1  0
 15 41  1  0
 15 42  1  0
 16 17  1  0
 16 43  1  0
 17 18  1  0
 17 44  1  0
 17 45  1  0
 18 19  1  0
 18 46  1  0
 18 47  1  0
 19 20  1  0
 20 21  2  0
 20 22  1  0
 22 23  1  0
 22 48  1  0
 23 24  2  0
 23 28  1  0
 24 25  1  0
 24 49  1  0
 25 26  2  0
 25 50  1  0
 26 27  1  0
 26 51  1  0
 27 28  2  0
 27 52  1  0
 28 53  1  0
M  END

