
     RDKit          3D

 41 42  0  0  0  0  0  0  0  0999 V2000
    4.0003    2.1323   -0.5415 C   0  0  0  0  0  0  0  0  0  0  0  0
    3.9692    0.7089   -0.4837 O   0  0  0  0  0  0  0  0  0  0  0  0
    4.5562    0.1535    0.6016 C   0  0  0  0  0  0  0  0  0  0  0  0
    5.0827    0.7855    1.4944 O   0  0  0  0  0  0  0  0  0  0  0  0
    4.4715   -1.2057    0.5544 N   0  0  0  0  0  0  0  0  0  0  0  0
    5.0341   -2.0241    1.6083 C   0  0  0  0  0  0  0  0  0  0  0  0
    6.5694   -2.0954    1.5377 C   0  0  0  0  0  0  0  0  0  0  0  0
    7.1475   -2.8875    2.6233 N   0  0  0  0  0  0  0  0  0  0  0  0
    7.1873   -4.2544    2.4526 C   0  0  0  0  0  0  0  0  0  0  0  0
    6.7572   -4.8034    1.4530 O   0  0  0  0  0  0  0  0  0  0  0  0
    7.7575   -5.0483    3.6330 C   0  0  1  0  0  0  0  0  0  0  0  0
    6.9218   -5.1994    4.3488 H   0  0  0  0  0  0  0  0  0  0  0  0
    8.3182   -6.3900    3.2060 C   0  0  0  0  0  0  0  0  0  0  0  0
    8.7935   -4.3226    4.2989 O   0  0  0  0  0  0  0  0  0  0  0  0
    8.4895   -3.0434    4.6329 C   0  0  0  0  0  0  0  0  0  0  0  0
    9.0673   -2.4824    5.7730 C   0  0  0  0  0  0  0  0  0  0  0  0
    8.7875   -1.1627    6.1202 C   0  0  0  0  0  0  0  0  0  0  0  0
    7.9136   -0.4035    5.3282 C   0  0  0  0  0  0  0  0  0  0  0  0
    7.5586    1.0052    5.6653 C   0  0  0  0  0  0  0  0  0  0  0  0
    6.8001    1.6968    5.0269 O   0  0  0  0  0  0  0  0  0  0  0  0
    8.1857    1.4425    6.7790 O   0  0  0  0  0  0  0  0  0  0  0  0
    7.8997    2.7822    7.1716 C   0  0  0  0  0  0  0  0  0  0  0  0
    7.3367   -0.9638    4.1751 C   0  0  0  0  0  0  0  0  0  0  0  0
    7.6286   -2.2819    3.8102 C   0  0  0  0  0  0  0  0  0  0  0  0
    3.4948    2.4099   -1.4752 H   0  0  0  0  0  0  0  0  0  0  0  0
    5.0358    2.5060   -0.5454 H   0  0  0  0  0  0  0  0  0  0  0  0
    3.4762    2.5747    0.3194 H   0  0  0  0  0  0  0  0  0  0  0  0
    4.0516   -1.6320   -0.2620 H   0  0  0  0  0  0  0  0  0  0  0  0
    4.6206   -3.0383    1.5177 H   0  0  0  0  0  0  0  0  0  0  0  0
    4.7279   -1.6161    2.5846 H   0  0  0  0  0  0  0  0  0  0  0  0
    6.9920   -1.0837    1.5736 H   0  0  0  0  0  0  0  0  0  0  0  0
    6.8634   -2.5686    0.5907 H   0  0  0  0  0  0  0  0  0  0  0  0
    7.5433   -6.9666    2.6847 H   0  0  0  0  0  0  0  0  0  0  0  0
    8.6636   -6.9490    4.0873 H   0  0  0  0  0  0  0  0  0  0  0  0
    9.1664   -6.2479    2.5199 H   0  0  0  0  0  0  0  0  0  0  0  0
    9.7353   -3.1048    6.3713 H   0  0  0  0  0  0  0  0  0  0  0  0
    9.2326   -0.7184    7.0103 H   0  0  0  0  0  0  0  0  0  0  0  0
    8.4843    2.9671    8.0816 H   0  0  0  0  0  0  0  0  0  0  0  0
    6.8255    2.9114    7.3754 H   0  0  0  0  0  0  0  0  0  0  0  0
    8.1876    3.4933    6.3821 H   0  0  0  0  0  0  0  0  0  0  0  0
    6.6695   -0.3362    3.5802 H   0  0  0  0  0  0  0  0  0  0  0  0
  1  2  1  0
  1 25  1  0
  1 26  1  0
  1 27  1  0
  2  3  1  0
  3  4  2  0
  3  5  1  0
  5  6  1  0
  5 28  1  0
  6  7  1  0
  6 29  1  0
  6 30  1  0
  7  8  1  0
  7 31  1  0
  7 32  1  0
  8  9  1  0
  8 24  1  0
  9 10  2  0
  9 11  1  0
 11 12  1  1
 11 13  1  0
 11 14  1  0
 13 33  1  0
 13 34  1  0
 13 35  1  0
 14 15  1  0
 15 16  1  0
 15 24  2  0
 16 17  2  0
 16 36  1  0
 17 18  1  0
 17 37  1  0
 18 19  1  0
 18 23  2  0
 19 20  2  0
 19 21  1  0
 21 22  1  0
 22 38  1  0
 22 39  1  0
 22 40  1  0
 23 24  1  0
 23 41  1  0
M  END

