
     RDKit          3D

 42 42  0  0  0  0  0  0  0  0999 V2000
    1.8966   -0.8032   -2.7846 C   0  0  0  0  0  0  0  0  0  0  0  0
    2.0013   -0.4641   -1.2957 C   0  0  0  0  0  0  0  0  0  0  0  0
    3.0300    0.6222   -0.8726 C   0  0  1  0  0  0  0  0  0  0  0  0
    2.7773    1.9499   -1.6290 C   0  0  0  0  0  0  0  0  0  0  0  0
    3.6687    3.1284   -1.2332 C   0  0  0  0  0  0  0  0  0  0  0  0
    2.9463    0.8200    0.6686 C   0  0  0  0  0  0  0  0  0  0  0  0
    1.6571    1.4226    1.2285 C   0  0  0  0  0  0  0  0  0  0  0  0
    4.4085    0.1254   -1.0986 N   0  0  0  0  0  0  0  0  0  0  0  0
    5.1580    0.1303   -2.2338 C   0  0  0  0  0  0  0  0  0  0  0  0
    4.8040    0.5734   -3.3155 O   0  0  0  0  0  0  0  0  0  0  0  0
    6.5551   -0.5220   -2.1040 C   0  0  0  0  0  0  0  0  0  0  0  0
    7.1413   -0.6638   -0.7196 C   0  0  0  0  0  0  0  0  0  0  0  0
    6.9520   -1.8403    0.0261 C   0  0  0  0  0  0  0  0  0  0  0  0
    7.4729   -1.9327    1.3214 C   0  0  0  0  0  0  0  0  0  0  0  0
    8.1803   -0.8745    1.8871 C   0  0  0  0  0  0  0  0  0  0  0  0
    8.3859    0.3143    1.1552 C   0  0  0  0  0  0  0  0  0  0  0  0
    9.1338    1.3532    1.6837 N   0  0  0  0  0  0  0  0  0  0  0  0
    7.8535    0.3982   -0.1466 C   0  0  0  0  0  0  0  0  0  0  0  0
    1.1781   -1.6262   -2.9311 H   0  0  0  0  0  0  0  0  0  0  0  0
    2.8608   -1.1116   -3.2114 H   0  0  0  0  0  0  0  0  0  0  0  0
    1.5409    0.0523   -3.3783 H   0  0  0  0  0  0  0  0  0  0  0  0
    2.2507   -1.3813   -0.7326 H   0  0  0  0  0  0  0  0  0  0  0  0
    1.0065   -0.1506   -0.9365 H   0  0  0  0  0  0  0  0  0  0  0  0
    1.7180    2.2175   -1.4762 H   0  0  0  0  0  0  0  0  0  0  0  0
    2.9083    1.7607   -2.7010 H   0  0  0  0  0  0  0  0  0  0  0  0
    3.5174    3.4486   -0.1896 H   0  0  0  0  0  0  0  0  0  0  0  0
    3.4558    3.9978   -1.8752 H   0  0  0  0  0  0  0  0  0  0  0  0
    4.7350    2.8851   -1.3590 H   0  0  0  0  0  0  0  0  0  0  0  0
    3.7993    1.4479    0.9749 H   0  0  0  0  0  0  0  0  0  0  0  0
    3.1139   -0.1655    1.1413 H   0  0  0  0  0  0  0  0  0  0  0  0
    1.4745    2.4384    0.8452 H   0  0  0  0  0  0  0  0  0  0  0  0
    1.7195    1.4943    2.3260 H   0  0  0  0  0  0  0  0  0  0  0  0
    0.7714    0.8127    0.9932 H   0  0  0  0  0  0  0  0  0  0  0  0
    4.8509   -0.3023   -0.2912 H   0  0  0  0  0  0  0  0  0  0  0  0
    7.2076    0.0764   -2.7565 H   0  0  0  0  0  0  0  0  0  0  0  0
    6.4667   -1.5109   -2.5844 H   0  0  0  0  0  0  0  0  0  0  0  0
    6.4109   -2.6835   -0.4112 H   0  0  0  0  0  0  0  0  0  0  0  0
    7.3303   -2.8497    1.8997 H   0  0  0  0  0  0  0  0  0  0  0  0
    8.5884   -0.9634    2.8979 H   0  0  0  0  0  0  0  0  0  0  0  0
    9.2421    1.3774    2.6903 H   0  0  0  0  0  0  0  0  0  0  0  0
    9.0128    2.2679    1.2659 H   0  0  0  0  0  0  0  0  0  0  0  0
    8.0092    1.3132   -0.7269 H   0  0  0  0  0  0  0  0  0  0  0  0
  1  2  1  0
  1 19  1  0
  1 20  1  0
  1 21  1  0
  2  3  1  0
  2 22  1  0
  2 23  1  0
  3  4  1  0
  3  6  1  0
  3  8  1  1
  4  5  1  0
  4 24  1  0
  4 25  1  0
  5 26  1  0
  5 27  1  0
  5 28  1  0
  6  7  1  0
  6 29  1  0
  6 30  1  0
  7 31  1  0
  7 32  1  0
  7 33  1  0
  8  9  1  0
  8 34  1  0
  9 10  2  0
  9 11  1  0
 11 12  1  0
 11 35  1  0
 11 36  1  0
 12 13  2  0
 12 18  1  0
 13 14  1  0
 13 37  1  0
 14 15  2  0
 14 38  1  0
 15 16  1  0
 15 39  1  0
 16 17  1  0
 16 18  2  0
 17 40  1  0
 17 41  1  0
 18 42  1  0
M  END

