
     RDKit          3D

281300  0  0  0  0  0  0  0  0999 V2000
   23.3622   18.5595   18.0568 C   0  0  0  0  0  0  0  0  0  0  0  0
   22.3192   18.0927   19.0733 C   0  0  0  0  0  0  0  0  0  0  0  0
   22.6340   16.7280   19.6938 C   0  0  0  0  0  0  0  0  0  0  0  0
   21.5939   16.2544   20.7130 C   0  0  0  0  0  0  0  0  0  0  0  0
   21.9091   14.8907   21.3349 C   0  0  0  0  0  0  0  0  0  0  0  0
   20.8636   14.4205   22.3501 C   0  0  0  0  0  0  0  0  0  0  0  0
   21.1848   13.0581   22.9712 C   0  0  0  0  0  0  0  0  0  0  0  0
   20.1396   12.5752   23.9878 C   0  0  0  0  0  0  0  0  0  0  0  0
   18.8077   12.3911   23.4124 N   0  0  0  0  0  0  0  0  0  0  0  0
   17.6727   12.9177   24.0684 C   0  0  0  0  0  0  0  0  0  0  0  0
   17.6326   13.1235   25.4598 C   0  0  0  0  0  0  0  0  0  0  0  0
   16.5033   13.6740   26.0728 C   0  0  0  0  0  0  0  0  0  0  0  0
   15.3726   13.9936   25.3191 C   0  0  0  0  0  0  0  0  0  0  0  0
   15.3796   13.7548   23.9419 C   0  0  0  0  0  0  0  0  0  0  0  0
   16.5188   13.2383   23.3184 C   0  0  0  0  0  0  0  0  0  0  0  0
   16.5656   13.0567   21.5478 S   0  0  0  0  0  0  0  0  0  0  0  0
   17.5595   11.5783   21.4704 C   0  0  0  0  0  0  0  0  0  0  0  0
   17.3274   10.6329   20.4761 C   0  0  0  0  0  0  0  0  0  0  0  0
   18.1648    9.5067   20.3214 C   0  0  0  0  0  0  0  0  0  0  0  0
   17.9743    8.4910   19.2840 C   0  0  0  0  0  0  0  0  0  0  0  0
   16.9903    8.4471   18.3556 C   0  0  0  0  0  0  0  0  0  0  0  0
   16.7826    7.4321   17.3239 C   0  0  0  0  0  0  0  0  0  0  0  0
   15.6600    7.5297   16.4753 C   0  0  0  0  0  0  0  0  0  0  0  0
   15.3954    6.5866   15.4875 C   0  0  0  0  0  0  0  0  0  0  0  0
   16.2613    5.4930   15.2884 C   0  0  0  0  0  0  0  0  0  0  0  0
   16.0026    4.5161   14.3044 N   0  0  0  0  0  0  0  0  0  0  0  0
   15.4021    4.8498   13.0715 C   0  0  0  0  0  0  0  0  0  0  0  0
   15.7055    6.0549   12.4078 C   0  0  0  0  0  0  0  0  0  0  0  0
   15.1057    6.3644   11.1913 C   0  0  0  0  0  0  0  0  0  0  0  0
   14.1906    5.4933   10.5636 C   0  0  0  0  0  0  0  0  0  0  0  0
   13.5997    5.8753    9.2816 C   0  0  0  0  0  0  0  0  0  0  0  0
   12.7495    5.1504    8.5177 C   0  0  0  0  0  0  0  0  0  0  0  0
   12.1556    5.5480    7.2393 C   0  0  0  0  0  0  0  0  0  0  0  0
   12.3436    6.8109    6.6413 C   0  0  0  0  0  0  0  0  0  0  0  0
   11.7506    7.1377    5.4249 C   0  0  0  0  0  0  0  0  0  0  0  0
   10.9589    6.2084    4.7233 C   0  0  0  0  0  0  0  0  0  0  0  0
   10.7664    4.9431    5.3141 C   0  0  0  0  0  0  0  0  0  0  0  0
   11.3347    4.6326    6.5488 C   0  0  0  0  0  0  0  0  0  0  0  0
    9.8464    3.7100    4.4136 S   0  0  0  0  0  0  0  0  0  0  0  0
    8.6335    4.7862    3.6762 C   0  0  0  0  0  0  0  0  0  0  0  0
    7.3295    4.3304    3.4639 C   0  0  0  0  0  0  0  0  0  0  0  0
    6.3991    5.1311    2.7949 C   0  0  0  0  0  0  0  0  0  0  0  0
    6.7747    6.4083    2.3755 C   0  0  0  0  0  0  0  0  0  0  0  0
    8.0669    6.8834    2.6182 C   0  0  0  0  0  0  0  0  0  0  0  0
    9.0289    6.0742    3.2502 C   0  0  0  0  0  0  0  0  0  0  0  0
   10.3513    6.5125    3.4841 N   0  0  0  0  0  0  0  0  0  0  0  0
   10.9581    7.5201    2.6151 C   0  0  0  0  0  0  0  0  0  0  0  0
   12.3709    7.1459    2.1429 C   0  0  0  0  0  0  0  0  0  0  0  0
   12.4220    5.8678    1.3004 C   0  0  0  0  0  0  0  0  0  0  0  0
   13.8366    5.4804    0.8606 C   0  0  0  0  0  0  0  0  0  0  0  0
   13.8884    4.2103    0.0060 C   0  0  0  0  0  0  0  0  0  0  0  0
   15.3020    3.8064   -0.4221 C   0  0  0  0  0  0  0  0  0  0  0  0
   15.3526    2.5377   -1.2795 C   0  0  0  0  0  0  0  0  0  0  0  0
   16.7678    2.1387   -1.7000 C   0  0  0  0  0  0  0  0  0  0  0  0
   13.9037    4.2838   11.2341 C   0  0  0  0  0  0  0  0  0  0  0  0
   14.4883    3.9684   12.4537 C   0  0  0  0  0  0  0  0  0  0  0  0
   16.3192    3.1462   14.5769 C   0  0  0  0  0  0  0  0  0  0  0  0
   15.8541    2.5184   15.7424 C   0  0  0  0  0  0  0  0  0  0  0  0
   16.1679    1.1861   15.9987 C   0  0  0  0  0  0  0  0  0  0  0  0
   16.9379    0.4096   15.1016 C   0  0  0  0  0  0  0  0  0  0  0  0
   17.2135   -0.9881   15.4125 C   0  0  0  0  0  0  0  0  0  0  0  0
   17.8656   -1.8830   14.6157 C   0  0  0  0  0  0  0  0  0  0  0  0
   18.1417   -3.2705   14.8928 C   0  0  0  0  0  0  0  0  0  0  0  0
   17.8056   -3.9319   16.1012 C   0  0  0  0  0  0  0  0  0  0  0  0
   18.0718   -5.2775   16.3250 C   0  0  0  0  0  0  0  0  0  0  0  0
   18.7007   -6.1095   15.3645 C   0  0  0  0  0  0  0  0  0  0  0  0
   18.9712   -7.5104   15.5515 C   0  0  0  0  0  0  0  0  0  0  0  0
   18.7520   -8.2786   16.6587 C   0  0  0  0  0  0  0  0  0  0  0  0
   19.0256   -9.7067   16.7684 C   0  0  0  0  0  0  0  0  0  0  0  0
   19.4504  -10.5106   15.6809 C   0  0  0  0  0  0  0  0  0  0  0  0
   19.6906  -11.8736   15.8290 C   0  0  0  0  0  0  0  0  0  0  0  0
   19.5238  -12.4913   17.0756 C   0  0  0  0  0  0  0  0  0  0  0  0
   19.7577  -13.9172   17.2221 N   0  0  0  0  0  0  0  0  0  0  0  0
   21.0348  -14.4127   17.2176 C   0  0  0  0  0  0  0  0  0  0  0  0
   22.1524  -13.5395   17.4013 C   0  0  0  0  0  0  0  0  0  0  0  0
   23.4403  -14.0234   17.3916 C   0  0  0  0  0  0  0  0  0  0  0  0
   23.7247  -15.4025   17.1781 C   0  0  0  0  0  0  0  0  0  0  0  0
   25.0482  -15.9518   17.1413 C   0  0  0  0  0  0  0  0  0  0  0  0
   26.2330  -15.2777   17.3169 C   0  0  0  0  0  0  0  0  0  0  0  0
   27.5559  -15.8425   17.2674 C   0  0  0  0  0  0  0  0  0  0  0  0
   27.8240  -17.2106   16.9915 C   0  0  0  0  0  0  0  0  0  0  0  0
   29.1140  -17.7043   16.9620 C   0  0  0  0  0  0  0  0  0  0  0  0
   30.2345  -16.8673   17.2025 C   0  0  0  0  0  0  0  0  0  0  0  0
   29.9754  -15.4908   17.4642 C   0  0  0  0  0  0  0  0  0  0  0  0
   28.6754  -15.0083   17.5067 C   0  0  0  0  0  0  0  0  0  0  0  0
   31.3204  -14.3442   17.5645 S   0  0  0  0  0  0  0  0  0  0  0  0
   32.5470  -15.4078   18.2752 C   0  0  0  0  0  0  0  0  0  0  0  0
   33.5478  -14.8435   19.0749 C   0  0  0  0  0  0  0  0  0  0  0  0
   34.5637  -15.6399   19.6020 C   0  0  0  0  0  0  0  0  0  0  0  0
   34.5553  -17.0152   19.3542 C   0  0  0  0  0  0  0  0  0  0  0  0
   33.5511  -17.5856   18.5725 C   0  0  0  0  0  0  0  0  0  0  0  0
   32.5433  -16.7907   17.9938 C   0  0  0  0  0  0  0  0  0  0  0  0
   31.5294  -17.3655   17.1843 N   0  0  0  0  0  0  0  0  0  0  0  0
   31.8212  -18.5814   16.4018 C   0  0  0  0  0  0  0  0  0  0  0  0
   31.5866  -18.4112   14.8940 C   0  0  0  0  0  0  0  0  0  0  0  0
   32.4869  -17.3634   14.2322 C   0  0  0  0  0  0  0  0  0  0  0  0
   32.2430  -17.2188   12.7270 C   0  0  0  0  0  0  0  0  0  0  0  0
   33.1491  -16.1843   12.0529 C   0  0  0  0  0  0  0  0  0  0  0  0
   32.8954  -16.0249   10.5512 C   0  0  0  0  0  0  0  0  0  0  0  0
   33.8066  -14.9964    9.8738 C   0  0  0  0  0  0  0  0  0  0  0  0
   33.5435  -14.8395    8.3756 C   0  0  0  0  0  0  0  0  0  0  0  0
   22.6086  -16.2597   16.9749 C   0  0  0  0  0  0  0  0  0  0  0  0
   21.3108  -15.7958   16.9966 C   0  0  0  0  0  0  0  0  0  0  0  0
   18.6070  -14.7475   17.3699 C   0  0  0  0  0  0  0  0  0  0  0  0
   17.4822  -14.5502   16.5530 C   0  0  0  0  0  0  0  0  0  0  0  0
   16.3450  -15.3311   16.7281 C   0  0  0  0  0  0  0  0  0  0  0  0
   16.2699  -16.3317   17.7220 C   0  0  0  0  0  0  0  0  0  0  0  0
   15.0419  -17.1137   17.8552 C   0  0  0  0  0  0  0  0  0  0  0  0
   14.8245  -18.1510   18.6983 C   0  0  0  0  0  0  0  0  0  0  0  0
   13.5940  -18.9257   18.8478 C   0  0  0  0  0  0  0  0  0  0  0  0
   12.3891  -18.6230   18.1812 C   0  0  0  0  0  0  0  0  0  0  0  0
   11.2436  -19.3893   18.3677 C   0  0  0  0  0  0  0  0  0  0  0  0
   11.2470  -20.5200   19.2104 C   0  0  0  0  0  0  0  0  0  0  0  0
   12.4528  -20.8327   19.8760 C   0  0  0  0  0  0  0  0  0  0  0  0
   13.5862  -20.0393   19.7131 C   0  0  0  0  0  0  0  0  0  0  0  0
   12.5337  -22.3211   20.8503 S   0  0  0  0  0  0  0  0  0  0  0  0
   10.8856  -22.2698   21.5244 C   0  0  0  0  0  0  0  0  0  0  0  0
   10.6421  -22.7463   22.8154 C   0  0  0  0  0  0  0  0  0  0  0  0
    9.3388  -22.7928   23.3177 C   0  0  0  0  0  0  0  0  0  0  0  0
    8.2866  -22.3214   22.5308 C   0  0  0  0  0  0  0  0  0  0  0  0
    8.5298  -21.8118   21.2523 C   0  0  0  0  0  0  0  0  0  0  0  0
    9.8293  -21.8001   20.7142 C   0  0  0  0  0  0  0  0  0  0  0  0
   10.1024  -21.3121   19.4130 N   0  0  0  0  0  0  0  0  0  0  0  0
    9.0608  -21.3512   18.3833 C   0  0  0  0  0  0  0  0  0  0  0  0
    9.5461  -21.9130   17.0392 C   0  0  0  0  0  0  0  0  0  0  0  0
   10.0287  -23.3649   17.1079 C   0  0  0  0  0  0  0  0  0  0  0  0
   10.5263  -23.9056   15.7644 C   0  0  0  0  0  0  0  0  0  0  0  0
   11.0108  -25.3573   15.8250 C   0  0  0  0  0  0  0  0  0  0  0  0
   11.5219  -25.8971   14.4862 C   0  0  0  0  0  0  0  0  0  0  0  0
   12.0086  -27.3485   14.5458 C   0  0  0  0  0  0  0  0  0  0  0  0
   12.5211  -27.8781   13.2057 C   0  0  0  0  0  0  0  0  0  0  0  0
   17.4026  -16.5002   18.5493 C   0  0  0  0  0  0  0  0  0  0  0  0
   18.5436  -15.7252   18.3823 C   0  0  0  0  0  0  0  0  0  0  0  0
   19.1031  -11.7274   18.1688 C   0  0  0  0  0  0  0  0  0  0  0  0
   18.8594  -10.3645   18.0124 C   0  0  0  0  0  0  0  0  0  0  0  0
   19.0701   -5.4864   14.1217 C   0  0  0  0  0  0  0  0  0  0  0  0
   19.6729   -6.0917   13.0949 N   0  0  0  0  0  0  0  0  0  0  0  0
   19.8750   -4.9383   11.9054 S   0  0  0  0  0  0  0  0  0  0  0  0
   19.1921   -3.6367   12.6893 N   0  0  0  0  0  0  0  0  0  0  0  0
   18.7931   -4.0697   13.8881 C   0  0  0  0  0  0  0  0  0  0  0  0
   17.3956    1.0628   13.9312 C   0  0  0  0  0  0  0  0  0  0  0  0
   17.1009    2.3983   13.6791 C   0  0  0  0  0  0  0  0  0  0  0  0
   17.3931    5.3873   16.1268 C   0  0  0  0  0  0  0  0  0  0  0  0
   17.6410    6.3297   17.1161 C   0  0  0  0  0  0  0  0  0  0  0  0
   19.2267    9.3740   21.2363 C   0  0  0  0  0  0  0  0  0  0  0  0
   19.4427   10.3001   22.2568 C   0  0  0  0  0  0  0  0  0  0  0  0
   18.6196   11.4302   22.3934 C   0  0  0  0  0  0  0  0  0  0  0  0
   23.1034   19.5426   17.6316 H   0  0  0  0  0  0  0  0  0  0  0  0
   23.4516   17.8480   17.2186 H   0  0  0  0  0  0  0  0  0  0  0  0
   24.3602   18.6492   18.5184 H   0  0  0  0  0  0  0  0  0  0  0  0
   21.3260   18.0503   18.5901 H   0  0  0  0  0  0  0  0  0  0  0  0
   22.2268   18.8444   19.8787 H   0  0  0  0  0  0  0  0  0  0  0  0
   23.6282   16.7692   20.1776 H   0  0  0  0  0  0  0  0  0  0  0  0
   22.7257   15.9748   18.8888 H   0  0  0  0  0  0  0  0  0  0  0  0
   20.6007   16.2114   20.2291 H   0  0  0  0  0  0  0  0  0  0  0  0
   21.5014   17.0089   21.5167 H   0  0  0  0  0  0  0  0  0  0  0  0
   22.9026   14.9320   21.8201 H   0  0  0  0  0  0  0  0  0  0  0  0
   22.0003   14.1364   20.5314 H   0  0  0  0  0  0  0  0  0  0  0  0
   19.8738   14.3720   21.8645 H   0  0  0  0  0  0  0  0  0  0  0  0
   20.7684   15.1748   23.1539 H   0  0  0  0  0  0  0  0  0  0  0  0
   22.1551   13.1052   23.4980 H   0  0  0  0  0  0  0  0  0  0  0  0
   21.3116   12.3085   22.1725 H   0  0  0  0  0  0  0  0  0  0  0  0
   20.0487   13.3387   24.7714 H   0  0  0  0  0  0  0  0  0  0  0  0
   20.4955   11.6565   24.4922 H   0  0  0  0  0  0  0  0  0  0  0  0
   18.4890   12.8457   26.0755 H   0  0  0  0  0  0  0  0  0  0  0  0
   16.5075   13.8347   27.1539 H   0  0  0  0  0  0  0  0  0  0  0  0
   14.4856   14.4154   25.7972 H   0  0  0  0  0  0  0  0  0  0  0  0
   14.4998   13.9815   23.3346 H   0  0  0  0  0  0  0  0  0  0  0  0
   16.4827   10.7892   19.8025 H   0  0  0  0  0  0  0  0  0  0  0  0
   18.7207    7.6900   19.2968 H   0  0  0  0  0  0  0  0  0  0  0  0
   16.2396    9.2449   18.3543 H   0  0  0  0  0  0  0  0  0  0  0  0
   14.9646    8.3635   16.6103 H   0  0  0  0  0  0  0  0  0  0  0  0
   14.5043    6.6894   14.8666 H   0  0  0  0  0  0  0  0  0  0  0  0
   16.4217    6.7489   12.8506 H   0  0  0  0  0  0  0  0  0  0  0  0
   15.3651    7.3062   10.6986 H   0  0  0  0  0  0  0  0  0  0  0  0
   13.9043    6.8655    8.9253 H   0  0  0  0  0  0  0  0  0  0  0  0
   12.4571    4.1525    8.8608 H   0  0  0  0  0  0  0  0  0  0  0  0
   12.9526    7.5665    7.1414 H   0  0  0  0  0  0  0  0  0  0  0  0
   11.9084    8.1357    5.0145 H   0  0  0  0  0  0  0  0  0  0  0  0
   11.1483    3.6457    6.9804 H   0  0  0  0  0  0  0  0  0  0  0  0
    7.0526    3.3338    3.8164 H   0  0  0  0  0  0  0  0  0  0  0  0
    5.3874    4.7606    2.6145 H   0  0  0  0  0  0  0  0  0  0  0  0
    6.0540    7.0556    1.8694 H   0  0  0  0  0  0  0  0  0  0  0  0
    8.3251    7.8991    2.3158 H   0  0  0  0  0  0  0  0  0  0  0  0
   10.9677    8.5183    3.0935 H   0  0  0  0  0  0  0  0  0  0  0  0
   10.3151    7.6115    1.7299 H   0  0  0  0  0  0  0  0  0  0  0  0
   13.0444    7.0450    3.0099 H   0  0  0  0  0  0  0  0  0  0  0  0
   12.7583    7.9986    1.5563 H   0  0  0  0  0  0  0  0  0  0  0  0
   11.7818    5.9950    0.4071 H   0  0  0  0  0  0  0  0  0  0  0  0
   11.9755    5.0385    1.8757 H   0  0  0  0  0  0  0  0  0  0  0  0
   14.4703    5.3426    1.7562 H   0  0  0  0  0  0  0  0  0  0  0  0
   14.2916    6.3176    0.2981 H   0  0  0  0  0  0  0  0  0  0  0  0
   13.2606    4.3510   -0.8938 H   0  0  0  0  0  0  0  0  0  0  0  0
   13.4244    3.3776    0.5661 H   0  0  0  0  0  0  0  0  0  0  0  0
   15.9286    3.6619    0.4779 H   0  0  0  0  0  0  0  0  0  0  0  0
   15.7685    4.6408   -0.9793 H   0  0  0  0  0  0  0  0  0  0  0  0
   14.7269    2.6831   -2.1791 H   0  0  0  0  0  0  0  0  0  0  0  0
   14.8849    1.7056   -0.7222 H   0  0  0  0  0  0  0  0  0  0  0  0
   17.2496    2.9345   -2.2929 H   0  0  0  0  0  0  0  0  0  0  0  0
   16.7669    1.2225   -2.3122 H   0  0  0  0  0  0  0  0  0  0  0  0
   17.4084    1.9509   -0.8218 H   0  0  0  0  0  0  0  0  0  0  0  0
   13.1948    3.5753   10.8001 H   0  0  0  0  0  0  0  0  0  0  0  0
   14.2381    3.0278   12.9467 H   0  0  0  0  0  0  0  0  0  0  0  0
   15.2434    3.0834   16.4504 H   0  0  0  0  0  0  0  0  0  0  0  0
   15.7943    0.7177   16.9138 H   0  0  0  0  0  0  0  0  0  0  0  0
   16.8312   -1.3233   16.3822 H   0  0  0  0  0  0  0  0  0  0  0  0
   18.2255   -1.5534   13.6366 H   0  0  0  0  0  0  0  0  0  0  0  0
   17.3140   -3.3623   16.8929 H   0  0  0  0  0  0  0  0  0  0  0  0
   17.7727   -5.7120   17.2819 H   0  0  0  0  0  0  0  0  0  0  0  0
   19.4135   -7.9806   14.6673 H   0  0  0  0  0  0  0  0  0  0  0  0
   18.3435   -7.8149   17.5617 H   0  0  0  0  0  0  0  0  0  0  0  0
   19.5841  -10.0591   14.6966 H   0  0  0  0  0  0  0  0  0  0  0  0
   20.0121  -12.4671   14.9689 H   0  0  0  0  0  0  0  0  0  0  0  0
   21.9715  -12.4781   17.5618 H   0  0  0  0  0  0  0  0  0  0  0  0
   24.2572  -13.3177   17.5537 H   0  0  0  0  0  0  0  0  0  0  0  0
   25.0909  -17.0287   16.9504 H   0  0  0  0  0  0  0  0  0  0  0  0
   26.1956  -14.2036   17.5185 H   0  0  0  0  0  0  0  0  0  0  0  0
   27.0009  -17.9025   16.8083 H   0  0  0  0  0  0  0  0  0  0  0  0
   29.2639  -18.7650   16.7674 H   0  0  0  0  0  0  0  0  0  0  0  0
   28.5139  -13.9477   17.7140 H   0  0  0  0  0  0  0  0  0  0  0  0
   33.5225  -13.7707   19.2791 H   0  0  0  0  0  0  0  0  0  0  0  0
   35.3466  -15.1906   20.2162 H   0  0  0  0  0  0  0  0  0  0  0  0
   35.3266  -17.6574   19.7846 H   0  0  0  0  0  0  0  0  0  0  0  0
   33.5460  -18.6658   18.4277 H   0  0  0  0  0  0  0  0  0  0  0  0
   31.2451  -19.4363   16.7939 H   0  0  0  0  0  0  0  0  0  0  0  0
   32.8774  -18.8222   16.5600 H   0  0  0  0  0  0  0  0  0  0  0  0
   30.5287  -18.1714   14.6961 H   0  0  0  0  0  0  0  0  0  0  0  0
   31.7618  -19.3988   14.4318 H   0  0  0  0  0  0  0  0  0  0  0  0
   33.5459  -17.6278   14.4091 H   0  0  0  0  0  0  0  0  0  0  0  0
   32.3342  -16.3849   14.7208 H   0  0  0  0  0  0  0  0  0  0  0  0
   31.1854  -16.9451   12.5554 H   0  0  0  0  0  0  0  0  0  0  0  0
   32.3811  -18.2005   12.2370 H   0  0  0  0  0  0  0  0  0  0  0  0
   34.2063  -16.4643   12.2171 H   0  0  0  0  0  0  0  0  0  0  0  0
   33.0183  -15.2060   12.5515 H   0  0  0  0  0  0  0  0  0  0  0  0
   31.8394  -15.7391   10.3881 H   0  0  0  0  0  0  0  0  0  0  0  0
   33.0195  -17.0049   10.0534 H   0  0  0  0  0  0  0  0  0  0  0  0
   34.8613  -15.2850   10.0353 H   0  0  0  0  0  0  0  0  0  0  0  0
   33.6845  -14.0187   10.3746 H   0  0  0  0  0  0  0  0  0  0  0  0
   33.6928  -15.7920    7.8400 H   0  0  0  0  0  0  0  0  0  0  0  0
   34.2167  -14.0946    7.9225 H   0  0  0  0  0  0  0  0  0  0  0  0
   32.5081  -14.5124    8.1822 H   0  0  0  0  0  0  0  0  0  0  0  0
   22.7875  -17.3205   16.7785 H   0  0  0  0  0  0  0  0  0  0  0  0
   20.4891  -16.4856   16.8103 H   0  0  0  0  0  0  0  0  0  0  0  0
   17.5030  -13.7769   15.7843 H   0  0  0  0  0  0  0  0  0  0  0  0
   15.4836  -15.1649   16.0760 H   0  0  0  0  0  0  0  0  0  0  0  0
   14.2352  -16.8057   17.1825 H   0  0  0  0  0  0  0  0  0  0  0  0
   15.6416  -18.4750   19.3517 H   0  0  0  0  0  0  0  0  0  0  0  0
   12.3321  -17.7570   17.5189 H   0  0  0  0  0  0  0  0  0  0  0  0
   10.3281  -19.0994   17.8519 H   0  0  0  0  0  0  0  0  0  0  0  0
   14.4958  -20.3046   20.2585 H   0  0  0  0  0  0  0  0  0  0  0  0
   11.4831  -23.0928   23.4209 H   0  0  0  0  0  0  0  0  0  0  0  0
    9.1522  -23.1839   24.3202 H   0  0  0  0  0  0  0  0  0  0  0  0
    7.2642  -22.3303   22.9164 H   0  0  0  0  0  0  0  0  0  0  0  0
    7.6963  -21.4135   20.6726 H   0  0  0  0  0  0  0  0  0  0  0  0
    8.5997  -20.3560   18.2377 H   0  0  0  0  0  0  0  0  0  0  0  0
    8.2642  -22.0060   18.7587 H   0  0  0  0  0  0  0  0  0  0  0  0
   10.3467  -21.2764   16.6276 H   0  0  0  0  0  0  0  0  0  0  0  0
    8.7027  -21.8317   16.3302 H   0  0  0  0  0  0  0  0  0  0  0  0
    9.2070  -24.0052   17.4797 H   0  0  0  0  0  0  0  0  0  0  0  0
   10.8348  -23.4441   17.8576 H   0  0  0  0  0  0  0  0  0  0  0  0
   11.3476  -23.2630   15.3961 H   0  0  0  0  0  0  0  0  0  0  0  0
    9.7204  -23.8210   15.0113 H   0  0  0  0  0  0  0  0  0  0  0  0
   10.1883  -26.0014   16.1882 H   0  0  0  0  0  0  0  0  0  0  0  0
   11.8118  -25.4410   16.5827 H   0  0  0  0  0  0  0  0  0  0  0  0
   12.3444  -25.2526   14.1230 H   0  0  0  0  0  0  0  0  0  0  0  0
   10.7208  -25.8130   13.7280 H   0  0  0  0  0  0  0  0  0  0  0  0
   11.1858  -27.9923   14.9068 H   0  0  0  0  0  0  0  0  0  0  0  0
   12.8073  -27.4318   15.3054 H   0  0  0  0  0  0  0  0  0  0  0  0
   11.7341  -27.8441   12.4334 H   0  0  0  0  0  0  0  0  0  0  0  0
   12.8625  -28.9226   13.2857 H   0  0  0  0  0  0  0  0  0  0  0  0
   13.3697  -27.2783   12.8357 H   0  0  0  0  0  0  0  0  0  0  0  0
   17.3842  -17.2332   19.3581 H   0  0  0  0  0  0  0  0  0  0  0  0
   19.3897  -15.8579   19.0594 H   0  0  0  0  0  0  0  0  0  0  0  0
   18.9617  -12.2038   19.1422 H   0  0  0  0  0  0  0  0  0  0  0  0
   18.5281   -9.7810   18.8755 H   0  0  0  0  0  0  0  0  0  0  0  0
   18.0065    0.5153   13.2109 H   0  0  0  0  0  0  0  0  0  0  0  0
   17.4763    2.8767   12.7714 H   0  0  0  0  0  0  0  0  0  0  0  0
   18.0797    4.5502   15.9911 H   0  0  0  0  0  0  0  0  0  0  0  0
   18.5330    6.2096   17.7351 H   0  0  0  0  0  0  0  0  0  0  0  0
   19.8932    8.5111   21.1553 H   0  0  0  0  0  0  0  0  0  0  0  0
   20.2656   10.1360   22.9532 H   0  0  0  0  0  0  0  0  0  0  0  0
  1  2  1  0
  1148  1  0
  1149  1  0
  1150  1  0
  2  3  1  0
  2151  1  0
  2152  1  0
  3  4  1  0
  3153  1  0
  3154  1  0
  4  5  1  0
  4155  1  0
  4156  1  0
  5  6  1  0
  5157  1  0
  5158  1  0
  6  7  1  0
  6159  1  0
  6160  1  0
  7  8  1  0
  7161  1  0
  7162  1  0
  8  9  1  0
  8163  1  0
  8164  1  0
  9 10  1  0
  9147  1  0
 10 11  1  0
 10 15  2  0
 11 12  2  0
 11165  1  0
 12 13  1  0
 12166  1  0
 13 14  2  0
 13167  1  0
 14 15  1  0
 14168  1  0
 15 16  1  0
 16 17  1  0
 17 18  1  0
 17147  2  0
 18 19  2  0
 18169  1  0
 19 20  1  0
 19145  1  0
 20 21  2  0
 20170  1  0
 21 22  1  0
 21171  1  0
 22 23  2  0
 22144  1  0
 23 24  1  0
 23172  1  0
 24 25  2  0
 24173  1  0
 25 26  1  0
 25143  1  0
 26 27  1  0
 26 57  1  0
 27 28  2  0
 27 56  1  0
 28 29  1  0
 28174  1  0
 29 30  2  0
 29175  1  0
 30 31  1  0
 30 55  1  0
 31 32  2  0
 31176  1  0
 32 33  1  0
 32177  1  0
 33 34  2  0
 33 38  1  0
 34 35  1  0
 34178  1  0
 35 36  2  0
 35179  1  0
 36 37  1  0
 36 46  1  0
 37 38  2  0
 37 39  1  0
 38180  1  0
 39 40  1  0
 40 41  2  0
 40 45  1  0
 41 42  1  0
 41181  1  0
 42 43  2  0
 42182  1  0
 43 44  1  0
 43183  1  0
 44 45  2  0
 44184  1  0
 45 46  1  0
 46 47  1  0
 47 48  1  0
 47185  1  0
 47186  1  0
 48 49  1  0
 48187  1  0
 48188  1  0
 49 50  1  0
 49189  1  0
 49190  1  0
 50 51  1  0
 50191  1  0
 50192  1  0
 51 52  1  0
 51193  1  0
 51194  1  0
 52 53  1  0
 52195  1  0
 52196  1  0
 53 54  1  0
 53197  1  0
 53198  1  0
 54199  1  0
 54200  1  0
 54201  1  0
 55 56  2  0
 55202  1  0
 56203  1  0
 57 58  2  0
 57142  1  0
 58 59  1  0
 58204  1  0
 59 60  2  0
 59205  1  0
 60 61  1  0
 60141  1  0
 61 62  2  0
 61206  1  0
 62 63  1  0
 62207  1  0
 63 64  2  0
 63140  1  0
 64 65  1  0
 64208  1  0
 65 66  2  0
 65209  1  0
 66 67  1  0
 66136  1  0
 67 68  2  0
 67210  1  0
 68 69  1  0
 68211  1  0
 69 70  2  0
 69135  1  0
 70 71  1  0
 70212  1  0
 71 72  2  0
 71213  1  0
 72 73  1  0
 72134  1  0
 73 74  1  0
 73104  1  0
 74 75  2  0
 74103  1  0
 75 76  1  0
 75214  1  0
 76 77  2  0
 76215  1  0
 77 78  1  0
 77102  1  0
 78 79  2  0
 78216  1  0
 79 80  1  0
 79217  1  0
 80 81  2  0
 80 85  1  0
 81 82  1  0
 81218  1  0
 82 83  2  0
 82219  1  0
 83 84  1  0
 83 93  1  0
 84 85  2  0
 84 86  1  0
 85220  1  0
 86 87  1  0
 87 88  2  0
 87 92  1  0
 88 89  1  0
 88221  1  0
 89 90  2  0
 89222  1  0
 90 91  1  0
 90223  1  0
 91 92  2  0
 91224  1  0
 92 93  1  0
 93 94  1  0
 94 95  1  0
 94225  1  0
 94226  1  0
 95 96  1  0
 95227  1  0
 95228  1  0
 96 97  1  0
 96229  1  0
 96230  1  0
 97 98  1  0
 97231  1  0
 97232  1  0
 98 99  1  0
 98233  1  0
 98234  1  0
 99100  1  0
 99235  1  0
 99236  1  0
100101  1  0
100237  1  0
100238  1  0
101239  1  0
101240  1  0
101241  1  0
102103  2  0
102242  1  0
103243  1  0
104105  2  0
104133  1  0
105106  1  0
105244  1  0
106107  2  0
106245  1  0
107108  1  0
107132  1  0
108109  2  0
108246  1  0
109110  1  0
109247  1  0
110111  2  0
110115  1  0
111112  1  0
111248  1  0
112113  2  0
112249  1  0
113114  1  0
113123  1  0
114115  2  0
114116  1  0
115250  1  0
116117  1  0
117118  2  0
117122  1  0
118119  1  0
118251  1  0
119120  2  0
119252  1  0
120121  1  0
120253  1  0
121122  2  0
121254  1  0
122123  1  0
123124  1  0
124125  1  0
124255  1  0
124256  1  0
125126  1  0
125257  1  0
125258  1  0
126127  1  0
126259  1  0
126260  1  0
127128  1  0
127261  1  0
127262  1  0
128129  1  0
128263  1  0
128264  1  0
129130  1  0
129265  1  0
129266  1  0
130131  1  0
130267  1  0
130268  1  0
131269  1  0
131270  1  0
131271  1  0
132133  2  0
132272  1  0
133273  1  0
134135  2  0
134274  1  0
135275  1  0
136137  2  0
136140  1  0
137138  1  0
138139  1  0
139140  2  0
141142  2  0
141276  1  0
142277  1  0
143144  2  0
143278  1  0
144279  1  0
145146  2  0
145280  1  0
146147  1  0
146281  1  0
M  END

