
     RDKit          3D

 47 50  0  0  0  0  0  0  0  0999 V2000
    0.9563    0.4583    0.3942 C   0  0  0  0  0  0  0  0  0  0  0  0
    2.4275    0.3365    0.1076 C   0  0  0  0  0  0  0  0  0  0  0  0
    2.8616   -0.9114   -0.2221 N   0  0  0  0  0  0  0  0  0  0  0  0
    4.1405   -1.0921   -0.4842 C   0  0  0  0  0  0  0  0  0  0  0  0
    4.6130   -2.3403   -0.8103 N   0  0  0  0  0  0  0  0  0  0  0  0
    3.9691   -3.5766   -0.9520 C   0  0  0  0  0  0  0  0  0  0  0  0
    2.5882   -3.7830   -0.7800 C   0  0  0  0  0  0  0  0  0  0  0  0
    2.0517   -5.0603   -0.9505 C   0  0  0  0  0  0  0  0  0  0  0  0
    2.8614   -6.1472   -1.2886 C   0  0  0  0  0  0  0  0  0  0  0  0
    2.2913   -7.5263   -1.4812 C   0  0  1  0  0  0  0  0  0  0  0  0
    0.9746   -7.5763   -1.2191 F   0  0  0  0  0  0  0  0  0  0  0  0
    2.4631   -7.9650   -2.7452 F   0  0  0  0  0  0  0  0  0  0  0  0
    2.8946   -8.4292   -0.6818 F   0  0  0  0  0  0  0  0  0  0  0  0
    4.2387   -5.9451   -1.4587 C   0  0  0  0  0  0  0  0  0  0  0  0
    4.7833   -4.6790   -1.2935 C   0  0  0  0  0  0  0  0  0  0  0  0
    5.0762    0.0144   -0.4337 C   0  0  0  0  0  0  0  0  0  0  0  0
    6.4641   -0.0507   -0.7077 C   0  0  0  0  0  0  0  0  0  0  0  0
    7.2604    1.0743   -0.6210 C   0  0  0  0  0  0  0  0  0  0  0  0
    6.7056    2.3319   -0.2562 C   0  0  0  0  0  0  0  0  0  0  0  0
    7.5392    3.5732   -0.2231 C   0  0  0  0  0  0  0  0  0  0  0  0
    7.1406    4.6474   -1.0389 C   0  0  0  0  0  0  0  0  0  0  0  0
    7.8566    5.8444   -1.0811 C   0  0  0  0  0  0  0  0  0  0  0  0
    8.9983    5.9980   -0.2944 C   0  0  0  0  0  0  0  0  0  0  0  0
    9.4062    4.9523    0.5339 C   0  0  0  0  0  0  0  0  0  0  0  0
    8.6924    3.7473    0.5795 C   0  0  0  0  0  0  0  0  0  0  0  0
    9.1944    2.6699    1.5198 C   0  0  1  0  0  0  0  0  0  0  0  0
    8.2004    2.0738    2.1956 F   0  0  0  0  0  0  0  0  0  0  0  0
    9.8642    1.6962    0.8599 F   0  0  0  0  0  0  0  0  0  0  0  0
   10.0501    3.1642    2.4311 F   0  0  0  0  0  0  0  0  0  0  0  0
    5.3448    2.4104    0.0033 C   0  0  0  0  0  0  0  0  0  0  0  0
    4.5059    1.2694   -0.0743 C   0  0  0  0  0  0  0  0  0  0  0  0
    3.1754    1.4126    0.1949 N   0  0  0  0  0  0  0  0  0  0  0  0
    0.6756   -0.2069    1.2270 H   0  0  0  0  0  0  0  0  0  0  0  0
    0.3701    0.1367   -0.4820 H   0  0  0  0  0  0  0  0  0  0  0  0
    0.7026    1.4946    0.6485 H   0  0  0  0  0  0  0  0  0  0  0  0
    5.6101   -2.3844   -0.9720 H   0  0  0  0  0  0  0  0  0  0  0  0
    1.9575   -2.9397   -0.5141 H   0  0  0  0  0  0  0  0  0  0  0  0
    0.9794   -5.2094   -0.8141 H   0  0  0  0  0  0  0  0  0  0  0  0
    4.8887   -6.7830   -1.7205 H   0  0  0  0  0  0  0  0  0  0  0  0
    5.8595   -4.5352   -1.4291 H   0  0  0  0  0  0  0  0  0  0  0  0
    6.9393   -0.9903   -1.0028 H   0  0  0  0  0  0  0  0  0  0  0  0
    8.3251    0.9998   -0.8414 H   0  0  0  0  0  0  0  0  0  0  0  0
    6.2535    4.5248   -1.6639 H   0  0  0  0  0  0  0  0  0  0  0  0
    7.5203    6.6549   -1.7323 H   0  0  0  0  0  0  0  0  0  0  0  0
    9.5684    6.9295   -0.3169 H   0  0  0  0  0  0  0  0  0  0  0  0
   10.2844    5.0732    1.1688 H   0  0  0  0  0  0  0  0  0  0  0  0
    4.8733    3.3520    0.2899 H   0  0  0  0  0  0  0  0  0  0  0  0
  1  2  1  0
  1 33  1  0
  1 34  1  0
  1 35  1  0
  2  3  2  0
  2 32  1  0
  3  4  1  0
  4  5  1  0
  4 16  2  0
  5  6  1  0
  5 36  1  0
  6  7  2  0
  6 15  1  0
  7  8  1  0
  7 37  1  0
  8  9  2  0
  8 38  1  0
  9 10  1  0
  9 14  1  0
 10 11  1  1
 10 12  1  0
 10 13  1  0
 14 15  2  0
 14 39  1  0
 15 40  1  0
 16 17  1  0
 16 31  1  0
 17 18  2  0
 17 41  1  0
 18 19  1  0
 18 42  1  0
 19 20  1  0
 19 30  2  0
 20 21  2  0
 20 25  1  0
 21 22  1  0
 21 43  1  0
 22 23  2  0
 22 44  1  0
 23 24  1  0
 23 45  1  0
 24 25  2  0
 24 46  1  0
 25 26  1  0
 26 27  1  1
 26 28  1  0
 26 29  1  0
 30 31  1  0
 30 47  1  0
 31 32  2  0
M  END

