
     RDKit          3D

 39 41  0  0  0  0  0  0  0  0999 V2000
    1.3308    0.0967    1.6789 Br  0  0  0  0  0  0  0  0  0  0  0  0
    3.0604   -0.1257    0.9927 C   0  0  0  0  0  0  0  0  0  0  0  0
    3.4026    0.4593   -0.2481 C   0  0  0  0  0  0  0  0  0  0  0  0
    4.6733    0.3003   -0.7486 C   0  0  0  0  0  0  0  0  0  0  0  0
    5.6651   -0.4583   -0.0269 C   0  0  0  0  0  0  0  0  0  0  0  0
    6.8787   -0.6100   -0.5327 N   0  0  0  0  0  0  0  0  0  0  0  0
    8.0956   -1.3030    0.0312 C   0  0  0  0  0  0  0  0  0  0  0  0
    9.3361   -0.9445   -0.6995 C   0  0  0  0  0  0  0  0  0  0  0  0
   10.0648    0.2724   -0.3504 C   0  0  0  0  0  0  0  0  0  0  0  0
   11.3880    0.4371   -0.7106 C   0  0  0  0  0  0  0  0  0  0  0  0
   12.0952   -0.5663   -1.4111 C   0  0  0  0  0  0  0  0  0  0  0  0
   11.4060   -1.7872   -1.7329 C   0  0  0  0  0  0  0  0  0  0  0  0
   10.0850   -1.9801   -1.3820 C   0  0  0  0  0  0  0  0  0  0  0  0
    9.3913   -3.2070   -1.6769 N   0  0  0  0  0  0  0  0  0  0  0  0
   10.1304   -4.4581   -1.7434 C   0  0  0  0  0  0  0  0  0  0  0  0
    9.0418   -5.4878   -2.0838 C   0  0  0  0  0  0  0  0  0  0  0  0
    8.0151   -4.6820   -2.9275 C   0  0  0  0  0  0  0  0  0  0  0  0
    8.5147   -3.2232   -2.8454 C   0  0  0  0  0  0  0  0  0  0  0  0
    5.2874   -1.0410    1.2354 C   0  0  0  0  0  0  0  0  0  0  0  0
    4.0119   -0.8751    1.7239 C   0  0  0  0  0  0  0  0  0  0  0  0
    2.6587    1.0346   -0.8006 H   0  0  0  0  0  0  0  0  0  0  0  0
    4.9484    0.7504   -1.7042 H   0  0  0  0  0  0  0  0  0  0  0  0
    7.0835   -0.1776   -1.4352 H   0  0  0  0  0  0  0  0  0  0  0  0
    7.9086   -2.3882   -0.0613 H   0  0  0  0  0  0  0  0  0  0  0  0
    8.1048   -1.0336    1.1049 H   0  0  0  0  0  0  0  0  0  0  0  0
    9.5564    1.0630    0.2109 H   0  0  0  0  0  0  0  0  0  0  0  0
   11.9017    1.3661   -0.4393 H   0  0  0  0  0  0  0  0  0  0  0  0
   13.1438   -0.4358   -1.6803 H   0  0  0  0  0  0  0  0  0  0  0  0
   11.9371   -2.5662   -2.2844 H   0  0  0  0  0  0  0  0  0  0  0  0
   10.6551   -4.6531   -0.7956 H   0  0  0  0  0  0  0  0  0  0  0  0
   10.8984   -4.4533   -2.5490 H   0  0  0  0  0  0  0  0  0  0  0  0
    8.5711   -5.8609   -1.1609 H   0  0  0  0  0  0  0  0  0  0  0  0
    9.4467   -6.3587   -2.6218 H   0  0  0  0  0  0  0  0  0  0  0  0
    6.9999   -4.7834   -2.5125 H   0  0  0  0  0  0  0  0  0  0  0  0
    7.9697   -5.0274   -3.9718 H   0  0  0  0  0  0  0  0  0  0  0  0
    7.7018   -2.4856   -2.7443 H   0  0  0  0  0  0  0  0  0  0  0  0
    9.0754   -2.9505   -3.7670 H   0  0  0  0  0  0  0  0  0  0  0  0
    6.0177   -1.6183    1.7983 H   0  0  0  0  0  0  0  0  0  0  0  0
    3.7284   -1.3198    2.6786 H   0  0  0  0  0  0  0  0  0  0  0  0
  1  2  1  0
  2  3  2  0
  2 20  1  0
  3  4  1  0
  3 21  1  0
  4  5  2  0
  4 22  1  0
  5  6  1  0
  5 19  1  0
  6  7  1  0
  6 23  1  0
  7  8  1  0
  7 24  1  0
  7 25  1  0
  8  9  2  0
  8 13  1  0
  9 10  1  0
  9 26  1  0
 10 11  2  0
 10 27  1  0
 11 12  1  0
 11 28  1  0
 12 13  2  0
 12 29  1  0
 13 14  1  0
 14 15  1  0
 14 18  1  0
 15 16  1  0
 15 30  1  0
 15 31  1  0
 16 17  1  0
 16 32  1  0
 16 33  1  0
 17 18  1  0
 17 34  1  0
 17 35  1  0
 18 36  1  0
 18 37  1  0
 19 20  2  0
 19 38  1  0
 20 39  1  0
M  END

