
     RDKit          3D

 37 38  0  0  0  0  0  0  0  0999 V2000
    4.0217    0.3333    4.4607 C   0  0  0  0  0  0  0  0  0  0  0  0
    4.8122    0.6112    3.4202 C   0  0  0  0  0  0  0  0  0  0  0  0
    5.2077   -0.3876    2.3632 C   0  0  0  0  0  0  0  0  0  0  0  0
    4.5997   -0.1230    0.9733 C   0  0  2  0  0  0  0  0  0  0  0  0
    3.5172    0.0533    1.1057 H   0  0  0  0  0  0  0  0  0  0  0  0
    4.7397   -1.3423    0.0071 C   0  0  0  0  0  0  0  0  0  0  0  0
    4.0219   -1.0816   -1.3188 C   0  0  0  0  0  0  0  0  0  0  0  0
    4.4692    0.2379   -1.9505 C   0  0  0  0  0  0  0  0  0  0  0  0
    4.3889    1.4015   -0.9241 C   0  0  0  0  0  0  0  0  0  0  0  0
    5.1235    1.0331    0.2587 N   0  0  0  0  0  0  0  0  0  0  0  0
    6.5212    1.5921    0.5025 C   0  0  0  0  0  0  0  0  0  0  0  0
    7.0103    2.6188   -0.4342 C   0  0  0  0  0  0  0  0  0  0  0  0
    6.7353    4.0224   -0.2347 C   0  0  0  0  0  0  0  0  0  0  0  0
    7.1116    4.9661   -1.1644 C   0  0  0  0  0  0  0  0  0  0  0  0
    7.7890    4.5903   -2.3732 C   0  0  0  0  0  0  0  0  0  0  0  0
    8.1048    3.2153   -2.5597 C   0  0  0  0  0  0  0  0  0  0  0  0
    7.7368    2.2537   -1.6402 C   0  0  0  0  0  0  0  0  0  0  0  0
    3.7635    1.0960    5.2001 H   0  0  0  0  0  0  0  0  0  0  0  0
    3.6100   -0.6693    4.6208 H   0  0  0  0  0  0  0  0  0  0  0  0
    5.2014    1.6306    3.3125 H   0  0  0  0  0  0  0  0  0  0  0  0
    4.8531   -1.3846    2.6689 H   0  0  0  0  0  0  0  0  0  0  0  0
    6.3044   -0.4605    2.2871 H   0  0  0  0  0  0  0  0  0  0  0  0
    4.3251   -2.2241    0.5188 H   0  0  0  0  0  0  0  0  0  0  0  0
    5.8126   -1.5357   -0.1594 H   0  0  0  0  0  0  0  0  0  0  0  0
    2.9316   -1.0617   -1.1435 H   0  0  0  0  0  0  0  0  0  0  0  0
    4.2111   -1.9161   -2.0141 H   0  0  0  0  0  0  0  0  0  0  0  0
    3.8445    0.5080   -2.8147 H   0  0  0  0  0  0  0  0  0  0  0  0
    5.5073    0.1747   -2.3095 H   0  0  0  0  0  0  0  0  0  0  0  0
    3.3360    1.5707   -0.6413 H   0  0  0  0  0  0  0  0  0  0  0  0
    4.8302    2.3179   -1.3288 H   0  0  0  0  0  0  0  0  0  0  0  0
    7.1569    0.6856    0.5303 H   0  0  0  0  0  0  0  0  0  0  0  0
    6.4593    1.9521    1.5446 H   0  0  0  0  0  0  0  0  0  0  0  0
    6.2357    4.3462    0.6866 H   0  0  0  0  0  0  0  0  0  0  0  0
    6.9050    6.0230   -0.9675 H   0  0  0  0  0  0  0  0  0  0  0  0
    8.0757    5.3387   -3.1125 H   0  0  0  0  0  0  0  0  0  0  0  0
    8.6700    2.9113   -3.4477 H   0  0  0  0  0  0  0  0  0  0  0  0
    8.0356    1.2110   -1.7995 H   0  0  0  0  0  0  0  0  0  0  0  0
  1  2  2  0
  1 18  1  0
  1 19  1  0
  2  3  1  0
  2 20  1  0
  3  4  1  0
  3 21  1  0
  3 22  1  0
  4  5  1  1
  4  6  1  0
  4 10  1  0
  6  7  1  0
  6 23  1  0
  6 24  1  0
  7  8  1  0
  7 25  1  0
  7 26  1  0
  8  9  1  0
  8 27  1  0
  8 28  1  0
  9 10  1  0
  9 29  1  0
  9 30  1  0
 10 11  1  0
 11 12  1  0
 11 31  1  0
 11 32  1  0
 12 13  2  0
 12 17  1  0
 13 14  1  0
 13 33  1  0
 14 15  2  0
 14 34  1  0
 15 16  1  0
 15 35  1  0
 16 17  2  0
 16 36  1  0
 17 37  1  0
M  END

