
     RDKit          3D

 48 52  0  0  0  0  0  0  0  0999 V2000
    0.3554   -3.3158   -6.0016 C   0  0  0  0  0  0  0  0  0  0  0  0
    0.4570   -2.1178   -5.0461 C   0  0  1  0  0  0  0  0  0  0  0  0
    0.8823   -2.5236   -3.6197 C   0  0  0  0  0  0  0  0  0  0  0  0
    2.3697   -2.8779   -3.5226 C   0  0  0  0  0  0  0  0  0  0  0  0
    3.2056   -1.7997   -4.0527 N   0  0  0  0  0  0  0  0  0  0  0  0
    4.2097   -1.2947   -3.2682 C   0  0  0  0  0  0  0  0  0  0  0  0
    4.4068   -1.6722   -2.1226 O   0  0  0  0  0  0  0  0  0  0  0  0
    5.1266   -0.2149   -3.8554 C   0  0  0  0  0  0  0  0  0  0  0  0
    6.3902   -0.9217   -4.9882 S   0  0  0  0  0  0  0  0  0  0  0  0
    6.2323    0.0924   -6.4293 C   0  0  0  0  0  0  0  0  0  0  0  0
    5.2827    1.0201   -6.5298 N   0  0  0  0  0  0  0  0  0  0  0  0
    5.2187    1.7597   -7.6471 C   0  0  0  0  0  0  0  0  0  0  0  0
    6.0161    1.6716   -8.7024 N   0  0  0  0  0  0  0  0  0  0  0  0
    6.9764    0.7378   -8.6211 C   0  0  0  0  0  0  0  0  0  0  0  0
    7.1369   -0.0960   -7.4946 C   0  0  0  0  0  0  0  0  0  0  0  0
    8.4732   -1.2336   -7.6311 S   0  0  0  0  0  0  0  0  0  0  0  0
    8.8566   -0.5982   -9.2545 C   0  0  0  0  0  0  0  0  0  0  0  0
    9.8409   -1.0643   -9.9706 N   0  0  0  0  0  0  0  0  0  0  0  0
   10.0414   -0.5018  -11.1944 C   0  0  0  0  0  0  0  0  0  0  0  0
   11.1072   -0.9838  -12.0043 C   0  0  0  0  0  0  0  0  0  0  0  0
   11.3426   -0.4396  -13.2485 C   0  0  0  0  0  0  0  0  0  0  0  0
   10.5278    0.6118  -13.7477 C   0  0  0  0  0  0  0  0  0  0  0  0
    9.4871    1.1028  -12.9906 C   0  0  0  0  0  0  0  0  0  0  0  0
    9.2126    0.5661  -11.6997 C   0  0  0  0  0  0  0  0  0  0  0  0
    8.1558    1.0367  -10.8833 C   0  0  0  0  0  0  0  0  0  0  0  0
    7.9654    0.4556   -9.6445 C   0  0  0  0  0  0  0  0  0  0  0  0
    2.8948   -1.4069   -5.4236 C   0  0  0  0  0  0  0  0  0  0  0  0
    1.4143   -1.0238   -5.5616 C   0  0  0  0  0  0  0  0  0  0  0  0
   -0.3656   -4.0589   -5.6240 H   0  0  0  0  0  0  0  0  0  0  0  0
    1.3173   -3.8353   -6.1383 H   0  0  0  0  0  0  0  0  0  0  0  0
    0.0121   -2.9960   -6.9990 H   0  0  0  0  0  0  0  0  0  0  0  0
   -0.5512   -1.6724   -4.9806 H   0  0  0  0  0  0  0  0  0  0  0  0
    0.2812   -3.3789   -3.2675 H   0  0  0  0  0  0  0  0  0  0  0  0
    0.6795   -1.6865   -2.9296 H   0  0  0  0  0  0  0  0  0  0  0  0
    2.5852   -3.8059   -4.0860 H   0  0  0  0  0  0  0  0  0  0  0  0
    2.6735   -3.0454   -2.4825 H   0  0  0  0  0  0  0  0  0  0  0  0
    5.6614    0.2225   -3.0041 H   0  0  0  0  0  0  0  0  0  0  0  0
    4.6126    0.5757   -4.4193 H   0  0  0  0  0  0  0  0  0  0  0  0
    4.4217    2.5114   -7.6824 H   0  0  0  0  0  0  0  0  0  0  0  0
   11.7209   -1.7919  -11.6021 H   0  0  0  0  0  0  0  0  0  0  0  0
   12.1646   -0.8184  -13.8613 H   0  0  0  0  0  0  0  0  0  0  0  0
   10.7314    1.0295  -14.7365 H   0  0  0  0  0  0  0  0  0  0  0  0
    8.8564    1.9121  -13.3681 H   0  0  0  0  0  0  0  0  0  0  0  0
    7.4989    1.8436  -11.2187 H   0  0  0  0  0  0  0  0  0  0  0  0
    3.1382   -2.2464   -6.1026 H   0  0  0  0  0  0  0  0  0  0  0  0
    3.5217   -0.5634   -5.7325 H   0  0  0  0  0  0  0  0  0  0  0  0
    1.1997   -0.7892   -6.6181 H   0  0  0  0  0  0  0  0  0  0  0  0
    1.2443   -0.0965   -4.9872 H   0  0  0  0  0  0  0  0  0  0  0  0
  1  2  1  0
  1 29  1  0
  1 30  1  0
  1 31  1  0
  2  3  1  0
  2 28  1  0
  2 32  1  1
  3  4  1  0
  3 33  1  0
  3 34  1  0
  4  5  1  0
  4 35  1  0
  4 36  1  0
  5  6  1  0
  5 27  1  0
  6  7  2  0
  6  8  1  0
  8  9  1  0
  8 37  1  0
  8 38  1  0
  9 10  1  0
 10 11  2  0
 10 15  1  0
 11 12  1  0
 12 13  2  0
 12 39  1  0
 13 14  1  0
 14 15  2  0
 14 26  1  0
 15 16  1  0
 16 17  1  0
 17 18  1  0
 17 26  2  0
 18 19  2  0
 19 20  1  0
 19 24  1  0
 20 21  2  0
 20 40  1  0
 21 22  1  0
 21 41  1  0
 22 23  2  0
 22 42  1  0
 23 24  1  0
 23 43  1  0
 24 25  2  0
 25 26  1  0
 25 44  1  0
 27 28  1  0
 27 45  1  0
 27 46  1  0
 28 47  1  0
 28 48  1  0
M  END

