
     RDKit          3D

 45 48  0  0  0  0  0  0  0  0999 V2000
    2.4831    0.2850   -1.7141 C   0  0  0  0  0  0  0  0  0  0  0  0
    2.0399   -0.1787   -0.3436 C   0  0  0  0  0  0  0  0  0  0  0  0
    0.9106   -0.5582   -0.1212 O   0  0  0  0  0  0  0  0  0  0  0  0
    3.0421   -0.0417    0.8214 C   0  0  0  0  0  0  0  0  0  0  0  0
    4.5140   -0.1410    0.5528 C   0  0  0  0  0  0  0  0  0  0  0  0
    5.3254    0.9951    0.3075 C   0  0  0  0  0  0  0  0  0  0  0  0
    6.6207    0.9332    0.2237 N   0  0  0  0  0  0  0  0  0  0  0  0
    7.4225   -0.1657    0.3458 C   0  0  0  0  0  0  0  0  0  0  0  0
    8.8349   -0.1683    0.2374 C   0  0  0  0  0  0  0  0  0  0  0  0
    9.5610    1.0348   -0.0200 C   0  0  0  0  0  0  0  0  0  0  0  0
   10.9441    1.0179   -0.1209 C   0  0  0  0  0  0  0  0  0  0  0  0
   11.6668   -0.1796    0.0269 C   0  0  0  0  0  0  0  0  0  0  0  0
   10.9642   -1.3710    0.2794 C   0  0  0  0  0  0  0  0  0  0  0  0
    9.5809   -1.3773    0.3841 C   0  0  0  0  0  0  0  0  0  0  0  0
    6.6434   -1.2722    0.5956 N   0  0  0  0  0  0  0  0  0  0  0  0
    5.3359   -1.3154    0.6962 C   0  0  0  0  0  0  0  0  0  0  0  0
    4.8226   -2.5666    1.0473 N   0  0  0  0  0  0  0  0  0  0  0  0
    3.7386   -3.1971    0.4454 C   0  0  0  0  0  0  0  0  0  0  0  0
    3.0907   -2.7179   -0.5627 N   0  0  0  0  0  0  0  0  0  0  0  0
    2.0055   -3.6429   -0.8158 C   0  0  0  0  0  0  0  0  0  0  0  0
    2.1468   -4.7772    0.1735 C   0  0  0  0  0  0  0  0  0  0  0  0
    1.2317   -5.9338    0.2030 C   0  0  1  0  0  0  0  0  0  0  0  0
    1.7777   -7.3521    0.3258 C   0  0  0  0  0  0  0  0  0  0  0  0
    1.0266   -6.7469    1.4680 C   0  0  0  0  0  0  0  0  0  0  0  0
    3.2241   -4.4807    0.9429 C   0  0  0  0  0  0  0  0  0  0  0  0
    1.6301    0.2500   -2.4046 H   0  0  0  0  0  0  0  0  0  0  0  0
    3.2871   -0.3733   -2.0744 H   0  0  0  0  0  0  0  0  0  0  0  0
    2.8843    1.3117   -1.6727 H   0  0  0  0  0  0  0  0  0  0  0  0
    2.7204   -0.7580    1.5917 H   0  0  0  0  0  0  0  0  0  0  0  0
    2.8313    0.9590    1.2470 H   0  0  0  0  0  0  0  0  0  0  0  0
    4.8811    1.9948    0.2118 H   0  0  0  0  0  0  0  0  0  0  0  0
    9.0154    1.9737   -0.1368 H   0  0  0  0  0  0  0  0  0  0  0  0
   11.4772    1.9524   -0.3180 H   0  0  0  0  0  0  0  0  0  0  0  0
   12.7559   -0.1839   -0.0535 H   0  0  0  0  0  0  0  0  0  0  0  0
   11.5136   -2.3098    0.3951 H   0  0  0  0  0  0  0  0  0  0  0  0
    9.0467   -2.3094    0.5777 H   0  0  0  0  0  0  0  0  0  0  0  0
    5.5264   -3.1909    1.4299 H   0  0  0  0  0  0  0  0  0  0  0  0
    2.0368   -4.0042   -1.8613 H   0  0  0  0  0  0  0  0  0  0  0  0
    1.0343   -3.1241   -0.6983 H   0  0  0  0  0  0  0  0  0  0  0  0
    0.3544   -5.8218   -0.4417 H   0  0  0  0  0  0  0  0  0  0  0  0
    2.8633   -7.4543    0.4103 H   0  0  0  0  0  0  0  0  0  0  0  0
    1.2933   -8.1322   -0.2684 H   0  0  0  0  0  0  0  0  0  0  0  0
    1.5848   -6.4355    2.3554 H   0  0  0  0  0  0  0  0  0  0  0  0
    0.0140   -7.1029    1.6770 H   0  0  0  0  0  0  0  0  0  0  0  0
    3.6309   -5.0418    1.7852 H   0  0  0  0  0  0  0  0  0  0  0  0
  1  2  1  0
  1 26  1  0
  1 27  1  0
  1 28  1  0
  2  3  2  0
  2  4  1  0
  4  5  1  0
  4 29  1  0
  4 30  1  0
  5  6  2  0
  5 16  1  0
  6  7  1  0
  6 31  1  0
  7  8  2  0
  8  9  1  0
  8 15  1  0
  9 10  2  0
  9 14  1  0
 10 11  1  0
 10 32  1  0
 11 12  2  0
 11 33  1  0
 12 13  1  0
 12 34  1  0
 13 14  2  0
 13 35  1  0
 14 36  1  0
 15 16  2  0
 16 17  1  0
 17 18  1  0
 17 37  1  0
 18 19  2  0
 18 25  1  0
 19 20  1  0
 20 21  1  0
 20 38  1  0
 20 39  1  0
 21 22  1  0
 21 25  2  0
 22 23  1  0
 22 24  1  0
 22 40  1  6
 23 24  1  0
 23 41  1  0
 23 42  1  0
 24 43  1  0
 24 44  1  0
 25 45  1  0
M  END

