
     RDKit          3D

 51 53  0  0  0  0  0  0  0  0999 V2000
    2.4301   -9.1934   -4.7188 C   0  0  0  0  0  0  0  0  0  0  0  0
    3.1035   -7.9654   -5.3036 C   0  0  0  0  0  0  0  0  0  0  0  0
    3.2413   -7.0060   -4.2740 O   0  0  0  0  0  0  0  0  0  0  0  0
    3.8516   -5.8091   -4.5320 C   0  0  0  0  0  0  0  0  0  0  0  0
    4.3224   -5.4373   -5.7995 C   0  0  0  0  0  0  0  0  0  0  0  0
    4.9140   -4.1805   -5.9789 C   0  0  0  0  0  0  0  0  0  0  0  0
    5.0333   -3.2977   -4.9068 C   0  0  0  0  0  0  0  0  0  0  0  0
    4.5662   -3.6808   -3.6435 C   0  0  0  0  0  0  0  0  0  0  0  0
    3.9846   -4.9345   -3.4292 C   0  0  0  0  0  0  0  0  0  0  0  0
    3.4677   -5.3362   -2.0568 C   0  0  0  0  0  0  0  0  0  0  0  0
    2.0657   -5.0338   -1.8227 N   0  0  0  0  0  0  0  0  0  0  0  0
    1.7059   -3.7268   -1.4372 C   0  0  0  0  0  0  0  0  0  0  0  0
    2.5957   -2.9048   -1.1027 O   0  0  0  0  0  0  0  0  0  0  0  0
    0.2862   -3.4169   -1.4201 C   0  0  0  0  0  0  0  0  0  0  0  0
   -0.7751   -4.3680   -1.6414 C   0  0  0  0  0  0  0  0  0  0  0  0
   -2.1021   -3.9872   -1.5955 C   0  0  0  0  0  0  0  0  0  0  0  0
   -2.4847   -2.6412   -1.3302 C   0  0  0  0  0  0  0  0  0  0  0  0
   -3.9146   -2.2565   -1.1671 C   0  0  0  0  0  0  0  0  0  0  0  0
   -4.4633   -2.3644    0.2115 N   0  0  0  0  0  0  0  0  0  0  0  0
   -3.6897   -2.7637    1.3634 C   0  0  0  0  0  0  0  0  0  0  0  0
   -4.7046   -2.9723    2.4946 C   0  0  0  0  0  0  0  0  0  0  0  0
   -5.9640   -2.1856    2.0611 C   0  0  0  0  0  0  0  0  0  0  0  0
   -5.8371   -2.0449    0.5341 C   0  0  0  0  0  0  0  0  0  0  0  0
   -1.4351   -1.6881   -1.1135 C   0  0  0  0  0  0  0  0  0  0  0  0
   -0.1119   -2.0620   -1.1523 C   0  0  0  0  0  0  0  0  0  0  0  0
    2.3046   -9.9666   -5.4930 H   0  0  0  0  0  0  0  0  0  0  0  0
    1.4372   -8.9387   -4.3169 H   0  0  0  0  0  0  0  0  0  0  0  0
    3.0332   -9.6141   -3.8996 H   0  0  0  0  0  0  0  0  0  0  0  0
    2.5020   -7.5508   -6.1356 H   0  0  0  0  0  0  0  0  0  0  0  0
    4.0964   -8.2262   -5.7177 H   0  0  0  0  0  0  0  0  0  0  0  0
    4.2297   -6.1116   -6.6512 H   0  0  0  0  0  0  0  0  0  0  0  0
    5.2760   -3.8978   -6.9714 H   0  0  0  0  0  0  0  0  0  0  0  0
    5.4840   -2.3123   -5.0494 H   0  0  0  0  0  0  0  0  0  0  0  0
    4.6217   -2.9949   -2.7950 H   0  0  0  0  0  0  0  0  0  0  0  0
    4.0364   -4.7926   -1.2919 H   0  0  0  0  0  0  0  0  0  0  0  0
    3.6243   -6.4154   -1.9099 H   0  0  0  0  0  0  0  0  0  0  0  0
    1.4199   -5.5109   -2.4416 H   0  0  0  0  0  0  0  0  0  0  0  0
   -0.5407   -5.4187   -1.8282 H   0  0  0  0  0  0  0  0  0  0  0  0
   -2.8754   -4.7448   -1.7729 H   0  0  0  0  0  0  0  0  0  0  0  0
   -4.6022   -2.8725   -1.7746 H   0  0  0  0  0  0  0  0  0  0  0  0
   -4.1192   -1.2090   -1.4561 H   0  0  0  0  0  0  0  0  0  0  0  0
   -2.9586   -1.9563    1.5570 H   0  0  0  0  0  0  0  0  0  0  0  0
   -3.0739   -3.6324    1.0936 H   0  0  0  0  0  0  0  0  0  0  0  0
   -4.3080   -2.6206    3.4559 H   0  0  0  0  0  0  0  0  0  0  0  0
   -4.9290   -4.0435    2.6094 H   0  0  0  0  0  0  0  0  0  0  0  0
   -6.0009   -1.1934    2.5346 H   0  0  0  0  0  0  0  0  0  0  0  0
   -6.8892   -2.7093    2.3364 H   0  0  0  0  0  0  0  0  0  0  0  0
   -6.0611   -1.0346    0.1514 H   0  0  0  0  0  0  0  0  0  0  0  0
   -6.4939   -2.7322   -0.0304 H   0  0  0  0  0  0  0  0  0  0  0  0
   -1.6880   -0.6371   -0.9291 H   0  0  0  0  0  0  0  0  0  0  0  0
    0.6859   -1.3339   -0.9949 H   0  0  0  0  0  0  0  0  0  0  0  0
  1  2  1  0
  1 26  1  0
  1 27  1  0
  1 28  1  0
  2  3  1  0
  2 29  1  0
  2 30  1  0
  3  4  1  0
  4  5  2  0
  4  9  1  0
  5  6  1  0
  5 31  1  0
  6  7  2  0
  6 32  1  0
  7  8  1  0
  7 33  1  0
  8  9  2  0
  8 34  1  0
  9 10  1  0
 10 11  1  0
 10 35  1  0
 10 36  1  0
 11 12  1  0
 11 37  1  0
 12 13  2  0
 12 14  1  0
 14 15  2  0
 14 25  1  0
 15 16  1  0
 15 38  1  0
 16 17  2  0
 16 39  1  0
 17 18  1  0
 17 24  1  0
 18 19  1  0
 18 40  1  0
 18 41  1  0
 19 20  1  0
 19 23  1  0
 20 21  1  0
 20 42  1  0
 20 43  1  0
 21 22  1  0
 21 44  1  0
 21 45  1  0
 22 23  1  0
 22 46  1  0
 22 47  1  0
 23 48  1  0
 23 49  1  0
 24 25  2  0
 24 50  1  0
 25 51  1  0
M  END

