
     RDKit          3D

 35 36  0  0  0  0  0  0  0  0999 V2000
    2.4861    3.8122   -0.6486 C   0  0  0  0  0  0  0  0  0  0  0  0
    2.7090    3.3900    0.7283 N   0  0  0  0  0  0  0  0  0  0  0  0
    2.8430    1.9539    0.9106 C   0  0  0  0  0  0  0  0  0  0  0  0
    4.2799    1.4338    0.7241 C   0  0  0  0  0  0  0  0  0  0  0  0
    4.5021    0.2537    0.5239 O   0  0  0  0  0  0  0  0  0  0  0  0
    5.2183    2.4232    0.8517 N   0  0  0  0  0  0  0  0  0  0  0  0
    6.6140    2.3413    0.7903 C   0  0  0  0  0  0  0  0  0  0  0  0
    7.3542    3.5287    0.9582 C   0  0  0  0  0  0  0  0  0  0  0  0
    8.7422    3.5104    0.9106 C   0  0  0  0  0  0  0  0  0  0  0  0
    9.4417    2.3142    0.6810 C   0  0  0  0  0  0  0  0  0  0  0  0
   10.9449    2.3944    0.6531 C   0  0  0  0  0  0  0  0  0  0  0  0
   11.5412    3.3785    1.0642 O   0  0  0  0  0  0  0  0  0  0  0  0
   11.6074    1.3151    0.1254 N   0  0  0  0  0  0  0  0  0  0  0  0
   13.0365    1.2266    0.1239 C   0  0  1  0  0  0  0  0  0  0  0  0
   13.7032    0.5164   -1.0244 C   0  0  0  0  0  0  0  0  0  0  0  0
   13.8321    2.0119   -0.8849 C   0  0  0  0  0  0  0  0  0  0  0  0
    8.6969    1.1344    0.5263 C   0  0  0  0  0  0  0  0  0  0  0  0
    7.3029    1.1329    0.5772 C   0  0  0  0  0  0  0  0  0  0  0  0
    2.3810    4.9070   -0.6920 H   0  0  0  0  0  0  0  0  0  0  0  0
    1.5884    3.3568   -1.1161 H   0  0  0  0  0  0  0  0  0  0  0  0
    3.3550    3.5394   -1.2695 H   0  0  0  0  0  0  0  0  0  0  0  0
    1.9864    3.7644    1.3379 H   0  0  0  0  0  0  0  0  0  0  0  0
    2.2037    1.3476    0.2392 H   0  0  0  0  0  0  0  0  0  0  0  0
    2.5542    1.6872    1.9414 H   0  0  0  0  0  0  0  0  0  0  0  0
    4.7946    3.3394    1.0104 H   0  0  0  0  0  0  0  0  0  0  0  0
    6.8270    4.4714    1.1315 H   0  0  0  0  0  0  0  0  0  0  0  0
    9.3222    4.4240    1.0531 H   0  0  0  0  0  0  0  0  0  0  0  0
   11.0801    0.5116   -0.1900 H   0  0  0  0  0  0  0  0  0  0  0  0
   13.4908    1.1141    1.1164 H   0  0  0  0  0  0  0  0  0  0  0  0
   13.0619    0.1351   -1.8254 H   0  0  0  0  0  0  0  0  0  0  0  0
   14.5676   -0.1156   -0.8035 H   0  0  0  0  0  0  0  0  0  0  0  0
   13.2682    2.6404   -1.5783 H   0  0  0  0  0  0  0  0  0  0  0  0
   14.7871    2.4333   -0.5604 H   0  0  0  0  0  0  0  0  0  0  0  0
    9.1954    0.1713    0.3858 H   0  0  0  0  0  0  0  0  0  0  0  0
    6.7355    0.2121    0.4613 H   0  0  0  0  0  0  0  0  0  0  0  0
  1  2  1  0
  1 19  1  0
  1 20  1  0
  1 21  1  0
  2  3  1  0
  2 22  1  0
  3  4  1  0
  3 23  1  0
  3 24  1  0
  4  5  2  0
  4  6  1  0
  6  7  1  0
  6 25  1  0
  7  8  2  0
  7 18  1  0
  8  9  1  0
  8 26  1  0
  9 10  2  0
  9 27  1  0
 10 11  1  0
 10 17  1  0
 11 12  2  0
 11 13  1  0
 13 14  1  0
 13 28  1  0
 14 15  1  0
 14 16  1  0
 14 29  1  1
 15 16  1  0
 15 30  1  0
 15 31  1  0
 16 32  1  0
 16 33  1  0
 17 18  2  0
 17 34  1  0
 18 35  1  0
M  END

