
     RDKit          3D

 75 78  0  0  0  0  0  0  0  0999 V2000
    1.2385    0.6420   -2.1605 C   0  0  0  0  0  0  0  0  0  0  0  0
    2.5266    0.3020   -2.0631 C   0  0  0  0  0  0  0  0  0  0  0  0
    3.6010    1.1276   -1.4104 C   0  0  0  0  0  0  0  0  0  0  0  0
    4.2917    0.4033   -0.2445 C   0  0  0  0  0  0  0  0  0  0  0  0
    5.4052    1.2305    0.3797 C   0  0  0  0  0  0  0  0  0  0  0  0
    5.9879    0.4720    1.4259 O   0  0  0  0  0  0  0  0  0  0  0  0
    7.0207    0.9882    2.1360 C   0  0  0  0  0  0  0  0  0  0  0  0
    7.5728    2.2612    1.9402 C   0  0  0  0  0  0  0  0  0  0  0  0
    8.6469    2.6838    2.7356 C   0  0  0  0  0  0  0  0  0  0  0  0
    9.2185    1.8847    3.7332 C   0  0  0  0  0  0  0  0  0  0  0  0
   10.3719    2.2879    4.6484 C   0  0  1  0  0  0  0  0  0  0  0  0
   11.6471    1.4323    4.4167 C   0  0  0  0  0  0  0  0  0  0  0  0
   12.4430    1.8619    3.1802 C   0  0  0  0  0  0  0  0  0  0  0  0
   12.8732    3.3488    3.2293 C   0  0  2  0  0  0  0  0  0  0  0  0
   13.9370    3.6107    4.2649 C   0  0  0  0  0  0  0  0  0  0  0  0
   15.1821    4.0290    3.9754 C   0  0  0  0  0  0  0  0  0  0  0  0
   16.2660    4.3045    4.9296 C   0  0  0  0  0  0  0  0  0  0  0  0
   16.1645    4.1602    6.3268 C   0  0  0  0  0  0  0  0  0  0  0  0
   17.2308    4.4443    7.1771 C   0  0  0  0  0  0  0  0  0  0  0  0
   18.4730    4.8975    6.6958 C   0  0  0  0  0  0  0  0  0  0  0  0
   19.6977    5.2068    7.5529 C   0  0  1  0  0  0  0  0  0  0  0  0
   20.1067    6.7045    7.4938 C   0  0  0  0  0  0  0  0  0  0  0  0
   19.2316    7.6008    8.3773 C   0  0  0  0  0  0  0  0  0  0  0  0
   19.2316    7.1640    9.8564 C   0  0  2  0  0  0  0  0  0  0  0  0
   20.5672    7.4420   10.5620 C   0  0  0  0  0  0  0  0  0  0  0  0
   18.8024    5.6850    9.9477 C   0  0  0  0  0  0  0  0  0  0  0  0
   19.6085    4.7506    9.0263 C   0  0  0  0  0  0  0  0  0  0  0  0
   18.5757    5.0205    5.3045 C   0  0  0  0  0  0  0  0  0  0  0  0
   19.7362    5.4070    4.7472 F   0  0  0  0  0  0  0  0  0  0  0  0
   17.5105    4.7403    4.4480 C   0  0  0  0  0  0  0  0  0  0  0  0
   17.7090    4.8917    3.1301 F   0  0  0  0  0  0  0  0  0  0  0  0
   11.6152    4.2281    3.4380 C   0  0  0  0  0  0  0  0  0  0  0  0
   10.7431    3.7876    4.6272 C   0  0  0  0  0  0  0  0  0  0  0  0
    8.6148    0.6243    3.9023 C   0  0  0  0  0  0  0  0  0  0  0  0
    9.0840   -0.1864    4.8733 F   0  0  0  0  0  0  0  0  0  0  0  0
    7.5528    0.1637    3.1417 C   0  0  0  0  0  0  0  0  0  0  0  0
    0.5095   -0.0106   -2.6491 H   0  0  0  0  0  0  0  0  0  0  0  0
    0.8630    1.5890   -1.7576 H   0  0  0  0  0  0  0  0  0  0  0  0
    2.8535   -0.6601   -2.4805 H   0  0  0  0  0  0  0  0  0  0  0  0
    3.1723    2.0832   -1.0613 H   0  0  0  0  0  0  0  0  0  0  0  0
    4.3649    1.3866   -2.1689 H   0  0  0  0  0  0  0  0  0  0  0  0
    4.7181   -0.5541   -0.5900 H   0  0  0  0  0  0  0  0  0  0  0  0
    3.5529    0.1531    0.5347 H   0  0  0  0  0  0  0  0  0  0  0  0
    5.0053    2.1837    0.7762 H   0  0  0  0  0  0  0  0  0  0  0  0
    6.1717    1.4848   -0.3778 H   0  0  0  0  0  0  0  0  0  0  0  0
    7.1806    2.9354    1.1796 H   0  0  0  0  0  0  0  0  0  0  0  0
    9.0383    3.6863    2.5619 H   0  0  0  0  0  0  0  0  0  0  0  0
   10.0253    2.0558    5.6701 H   0  0  0  0  0  0  0  0  0  0  0  0
   11.3753    0.3693    4.3440 H   0  0  0  0  0  0  0  0  0  0  0  0
   12.2848    1.5173    5.3139 H   0  0  0  0  0  0  0  0  0  0  0  0
   11.8238    1.7111    2.2778 H   0  0  0  0  0  0  0  0  0  0  0  0
   13.3309    1.2195    3.0615 H   0  0  0  0  0  0  0  0  0  0  0  0
   13.3064    3.6097    2.2489 H   0  0  0  0  0  0  0  0  0  0  0  0
   13.6593    3.4463    5.3121 H   0  0  0  0  0  0  0  0  0  0  0  0
   15.4433    4.1902    2.9250 H   0  0  0  0  0  0  0  0  0  0  0  0
   15.2245    3.8135    6.7598 H   0  0  0  0  0  0  0  0  0  0  0  0
   17.0909    4.2994    8.2477 H   0  0  0  0  0  0  0  0  0  0  0  0
   20.5230    4.6413    7.0866 H   0  0  0  0  0  0  0  0  0  0  0  0
   20.0886    7.0574    6.4526 H   0  0  0  0  0  0  0  0  0  0  0  0
   21.1588    6.7798    7.8183 H   0  0  0  0  0  0  0  0  0  0  0  0
   18.1938    7.5795    7.9992 H   0  0  0  0  0  0  0  0  0  0  0  0
   19.5678    8.6485    8.2915 H   0  0  0  0  0  0  0  0  0  0  0  0
   18.4648    7.7618   10.3806 H   0  0  0  0  0  0  0  0  0  0  0  0
   21.4054    6.8744   10.1275 H   0  0  0  0  0  0  0  0  0  0  0  0
   20.5100    7.1731   11.6295 H   0  0  0  0  0  0  0  0  0  0  0  0
   20.8301    8.5108   10.5016 H   0  0  0  0  0  0  0  0  0  0  0  0
   17.7301    5.6267    9.6990 H   0  0  0  0  0  0  0  0  0  0  0  0
   18.8904    5.3301   10.9891 H   0  0  0  0  0  0  0  0  0  0  0  0
   19.2085    3.7248    9.0854 H   0  0  0  0  0  0  0  0  0  0  0  0
   20.6416    4.6857    9.4078 H   0  0  0  0  0  0  0  0  0  0  0  0
   11.0311    4.1926    2.5041 H   0  0  0  0  0  0  0  0  0  0  0  0
   11.9136    5.2811    3.5722 H   0  0  0  0  0  0  0  0  0  0  0  0
    9.8319    4.4068    4.6720 H   0  0  0  0  0  0  0  0  0  0  0  0
   11.2890    4.0026    5.5619 H   0  0  0  0  0  0  0  0  0  0  0  0
    7.1306   -0.8248    3.3249 H   0  0  0  0  0  0  0  0  0  0  0  0
  1  2  2  0
  1 37  1  0
  1 38  1  0
  2  3  1  0
  2 39  1  0
  3  4  1  0
  3 40  1  0
  3 41  1  0
  4  5  1  0
  4 42  1  0
  4 43  1  0
  5  6  1  0
  5 44  1  0
  5 45  1  0
  6  7  1  0
  7  8  2  0
  7 36  1  0
  8  9  1  0
  8 46  1  0
  9 10  2  0
  9 47  1  0
 10 11  1  0
 10 34  1  0
 11 12  1  0
 11 33  1  0
 11 48  1  1
 12 13  1  0
 12 49  1  0
 12 50  1  0
 13 14  1  0
 13 51  1  0
 13 52  1  0
 14 15  1  0
 14 32  1  0
 14 53  1  6
 15 16  2  0
 15 54  1  0
 16 17  1  0
 16 55  1  0
 17 18  2  0
 17 30  1  0
 18 19  1  0
 18 56  1  0
 19 20  2  0
 19 57  1  0
 20 21  1  0
 20 28  1  0
 21 22  1  0
 21 27  1  0
 21 58  1  6
 22 23  1  0
 22 59  1  0
 22 60  1  0
 23 24  1  0
 23 61  1  0
 23 62  1  0
 24 25  1  0
 24 26  1  0
 24 63  1  1
 25 64  1  0
 25 65  1  0
 25 66  1  0
 26 27  1  0
 26 67  1  0
 26 68  1  0
 27 69  1  0
 27 70  1  0
 28 29  1  0
 28 30  2  0
 30 31  1  0
 32 33  1  0
 32 71  1  0
 32 72  1  0
 33 73  1  0
 33 74  1  0
 34 35  1  0
 34 36  2  0
 36 75  1  0
M  END

