
     RDKit          3D

 39 40  0  0  0  0  0  0  0  0999 V2000
    0.9915   -0.1502   -0.1780 C   0  0  0  0  0  0  0  0  0  0  0  0
    2.5216   -0.0562   -0.0693 C   0  0  1  0  0  0  0  0  0  0  0  0
    3.2237   -1.2364   -0.7341 C   0  0  0  0  0  0  0  0  0  0  0  0
    4.1126   -1.8657   -0.1474 O   0  0  0  0  0  0  0  0  0  0  0  0
    2.8628   -1.5424   -2.0032 N   0  0  0  0  0  0  0  0  0  0  0  0
    3.3593   -2.6931   -2.7600 C   0  0  1  0  0  0  0  0  0  0  0  0
    4.8371   -2.5014   -3.1953 C   0  0  0  0  0  0  0  0  0  0  0  0
    5.1899   -2.5767   -4.3446 O   0  0  0  0  0  0  0  0  0  0  0  0
    5.6941   -2.2820   -2.1997 O   0  0  0  0  0  0  0  0  0  0  0  0
    3.1383   -4.1103   -2.1335 C   0  0  0  0  0  0  0  0  0  0  0  0
    2.6343   -4.5967   -3.5151 C   0  0  0  0  0  0  0  0  0  0  0  0
    2.4640   -3.1178   -3.9463 C   0  0  0  0  0  0  0  0  0  0  0  0
    3.0873    1.2932   -0.6182 C   0  0  1  0  0  0  0  0  0  0  0  0
    2.6294    2.5103    0.2171 C   0  0  0  0  0  0  0  0  0  0  0  0
    3.3923    2.6170    1.5415 C   0  0  0  0  0  0  0  0  0  0  0  0
    4.7886    2.6536    1.3447 O   0  0  0  0  0  0  0  0  0  0  0  0
    5.2782    1.5079    0.6700 C   0  0  0  0  0  0  0  0  0  0  0  0
    4.6303    1.3442   -0.7062 C   0  0  0  0  0  0  0  0  0  0  0  0
    0.6302   -1.1437    0.1296 H   0  0  0  0  0  0  0  0  0  0  0  0
    0.6331    0.0381   -1.2048 H   0  0  0  0  0  0  0  0  0  0  0  0
    0.5019    0.5901    0.4707 H   0  0  0  0  0  0  0  0  0  0  0  0
    2.8018   -0.1601    0.9891 H   0  0  0  0  0  0  0  0  0  0  0  0
    2.1572   -0.9734   -2.4571 H   0  0  0  0  0  0  0  0  0  0  0  0
    5.2202   -2.2579   -1.3235 H   0  0  0  0  0  0  0  0  0  0  0  0
    2.3380   -4.0771   -1.3798 H   0  0  0  0  0  0  0  0  0  0  0  0
    4.0165   -4.6032   -1.6932 H   0  0  0  0  0  0  0  0  0  0  0  0
    1.7317   -5.2245   -3.5204 H   0  0  0  0  0  0  0  0  0  0  0  0
    3.4203   -5.1028   -4.0936 H   0  0  0  0  0  0  0  0  0  0  0  0
    1.4295   -2.7651   -3.8095 H   0  0  0  0  0  0  0  0  0  0  0  0
    2.8365   -2.8286   -4.9374 H   0  0  0  0  0  0  0  0  0  0  0  0
    2.6843    1.4098   -1.6411 H   0  0  0  0  0  0  0  0  0  0  0  0
    1.5450    2.4919    0.4105 H   0  0  0  0  0  0  0  0  0  0  0  0
    2.8285    3.4243   -0.3673 H   0  0  0  0  0  0  0  0  0  0  0  0
    3.1214    1.7751    2.2147 H   0  0  0  0  0  0  0  0  0  0  0  0
    3.1227    3.5471    2.0656 H   0  0  0  0  0  0  0  0  0  0  0  0
    5.1170    0.5980    1.2829 H   0  0  0  0  0  0  0  0  0  0  0  0
    6.3654    1.6463    0.5699 H   0  0  0  0  0  0  0  0  0  0  0  0
    5.0487    0.4597   -1.2107 H   0  0  0  0  0  0  0  0  0  0  0  0
    4.9071    2.2167   -1.3217 H   0  0  0  0  0  0  0  0  0  0  0  0
  1  2  1  0
  1 19  1  0
  1 20  1  0
  1 21  1  0
  2  3  1  0
  2 13  1  0
  2 22  1  1
  3  4  2  0
  3  5  1  0
  5  6  1  0
  5 23  1  0
  6  7  1  6
  6 10  1  0
  6 12  1  0
  7  8  2  0
  7  9  1  0
  9 24  1  0
 10 11  1  0
 10 25  1  0
 10 26  1  0
 11 12  1  0
 11 27  1  0
 11 28  1  0
 12 29  1  0
 12 30  1  0
 13 14  1  0
 13 18  1  0
 13 31  1  6
 14 15  1  0
 14 32  1  0
 14 33  1  0
 15 16  1  0
 15 34  1  0
 15 35  1  0
 16 17  1  0
 17 18  1  0
 17 36  1  0
 17 37  1  0
 18 38  1  0
 18 39  1  0
M  END

