
     RDKit          3D

 38 40  0  0  0  0  0  0  0  0999 V2000
    1.2264    0.1113    0.6348 O   0  0  0  0  0  0  0  0  0  0  0  0
    2.3999    0.0852    0.3354 C   0  0  0  0  0  0  0  0  0  0  0  0
    3.2622    1.3040    0.0179 C   0  0  0  0  0  0  0  0  0  0  0  0
    4.4678    0.7403   -0.7345 C   0  0  2  0  0  0  0  0  0  0  0  0
    5.3933    1.3079   -0.5543 H   0  0  0  0  0  0  0  0  0  0  0  0
    4.1443    0.6940   -2.1687 N   0  0  0  0  0  0  0  0  0  0  0  0
    5.3684    0.3341   -3.2880 S   0  0  1  0  0  0  0  0  0  0  0  0
    5.1608    1.2697   -4.3949 O   0  0  0  0  0  0  0  0  0  0  0  0
    6.6421    0.2385   -2.5653 O   0  0  0  0  0  0  0  0  0  0  0  0
    4.9647   -1.3090   -3.8846 C   0  0  0  0  0  0  0  0  0  0  0  0
    3.8303   -1.4877   -4.6840 C   0  0  0  0  0  0  0  0  0  0  0  0
    3.5311   -2.7576   -5.1722 C   0  0  0  0  0  0  0  0  0  0  0  0
    4.3786   -3.8312   -4.8659 C   0  0  0  0  0  0  0  0  0  0  0  0
    4.0023   -5.4183   -5.4783 Cl  0  0  0  0  0  0  0  0  0  0  0  0
    5.5221   -3.6473   -4.0828 C   0  0  0  0  0  0  0  0  0  0  0  0
    5.8182   -2.3741   -3.5903 C   0  0  0  0  0  0  0  0  0  0  0  0
    4.5874   -0.6759   -0.1423 C   0  0  0  0  0  0  0  0  0  0  0  0
    3.2248   -1.0316    0.2541 N   0  0  0  0  0  0  0  0  0  0  0  0
    2.8780   -2.3563    0.5974 C   0  0  0  0  0  0  0  0  0  0  0  0
    1.5429   -2.7394    0.8468 C   0  0  0  0  0  0  0  0  0  0  0  0
    1.2535   -4.0623    1.1817 C   0  0  0  0  0  0  0  0  0  0  0  0
    2.2537   -5.0342    1.2781 C   0  0  0  0  0  0  0  0  0  0  0  0
    3.5621   -4.6358    1.0302 C   0  0  0  0  0  0  0  0  0  0  0  0
    4.5531   -5.5377    1.1158 F   0  0  0  0  0  0  0  0  0  0  0  0
    3.8948   -3.3261    0.6968 C   0  0  0  0  0  0  0  0  0  0  0  0
    3.5770    1.7592    0.9723 H   0  0  0  0  0  0  0  0  0  0  0  0
    2.6822    2.0607   -0.5292 H   0  0  0  0  0  0  0  0  0  0  0  0
    3.6715    1.5296   -2.5129 H   0  0  0  0  0  0  0  0  0  0  0  0
    3.1881   -0.6394   -4.9274 H   0  0  0  0  0  0  0  0  0  0  0  0
    2.6495   -2.9227   -5.7932 H   0  0  0  0  0  0  0  0  0  0  0  0
    6.1747   -4.4943   -3.8661 H   0  0  0  0  0  0  0  0  0  0  0  0
    6.7120   -2.2006   -2.9886 H   0  0  0  0  0  0  0  0  0  0  0  0
    5.2696   -0.6736    0.7269 H   0  0  0  0  0  0  0  0  0  0  0  0
    4.9850   -1.3909   -0.8739 H   0  0  0  0  0  0  0  0  0  0  0  0
    0.7538   -1.9958    0.7833 H   0  0  0  0  0  0  0  0  0  0  0  0
    0.2144   -4.3428    1.3714 H   0  0  0  0  0  0  0  0  0  0  0  0
    2.0393   -6.0721    1.5372 H   0  0  0  0  0  0  0  0  0  0  0  0
    4.9460   -3.0969    0.5310 H   0  0  0  0  0  0  0  0  0  0  0  0
  1  2  2  0
  2  3  1  0
  2 18  1  0
  3  4  1  0
  3 26  1  0
  3 27  1  0
  4  5  1  6
  4  6  1  0
  4 17  1  0
  7  6  1  1
  6 28  1  0
  7  8  2  0
  7  9  2  0
  7 10  1  0
 10 11  2  0
 10 16  1  0
 11 12  1  0
 11 29  1  0
 12 13  2  0
 12 30  1  0
 13 14  1  0
 13 15  1  0
 15 16  2  0
 15 31  1  0
 16 32  1  0
 17 18  1  0
 17 33  1  0
 17 34  1  0
 18 19  1  0
 19 20  2  0
 19 25  1  0
 20 21  1  0
 20 35  1  0
 21 22  2  0
 21 36  1  0
 22 23  1  0
 22 37  1  0
 23 24  1  0
 23 25  2  0
 25 38  1  0
M  END

