
     RDKit          3D

 46 47  0  0  0  0  0  0  0  0999 V2000
    2.3764    2.3413    1.8547 C   0  0  0  0  0  0  0  0  0  0  0  0
    2.3982    1.0748    1.0021 C   0  0  0  0  0  0  0  0  0  0  0  0
    3.2745   -0.0848    1.5774 C   0  0  2  0  0  0  0  0  0  0  0  0
    3.1329   -0.9124    0.8426 H   0  0  0  0  0  0  0  0  0  0  0  0
    2.6955   -0.5852    2.8108 N   0  0  0  0  0  0  0  0  0  0  0  0
    1.6382   -1.4386    2.7895 C   0  0  0  0  0  0  0  0  0  0  0  0
    1.1922   -1.9018    1.7446 O   0  0  0  0  0  0  0  0  0  0  0  0
    1.0171   -1.8308    4.1395 C   0  0  1  0  0  0  0  0  0  0  0  0
   -0.0462   -1.9887    3.9044 H   0  0  0  0  0  0  0  0  0  0  0  0
    1.6030   -3.1637    4.6559 C   0  0  0  0  0  0  0  0  0  0  0  0
    3.0082   -2.9735    5.2354 C   0  0  0  0  0  0  0  0  0  0  0  0
    3.0451   -1.8295    6.2522 C   0  0  0  0  0  0  0  0  0  0  0  0
    2.4996   -0.5880    5.6967 N   0  0  0  0  0  0  0  0  0  0  0  0
    2.6472    0.5368    6.6053 C   0  0  0  0  0  0  0  0  0  0  0  0
    1.1221   -0.7600    5.2358 C   0  0  0  0  0  0  0  0  0  0  0  0
    4.7412    0.2123    1.7056 C   0  0  0  0  0  0  0  0  0  0  0  0
    5.3803    1.0759    0.7567 C   0  0  0  0  0  0  0  0  0  0  0  0
    6.7969    1.2504    0.8016 C   0  0  0  0  0  0  0  0  0  0  0  0
    7.5780    0.6298    1.8082 C   0  0  0  0  0  0  0  0  0  0  0  0
    9.0606    0.8117    1.8529 C   0  0  0  0  0  0  0  0  0  0  0  0
    6.9404   -0.2004    2.7819 C   0  0  0  0  0  0  0  0  0  0  0  0
    5.5322   -0.4318    2.6995 C   0  0  0  0  0  0  0  0  0  0  0  0
    1.6800    3.0822    1.4300 H   0  0  0  0  0  0  0  0  0  0  0  0
    3.3736    2.8042    1.9101 H   0  0  0  0  0  0  0  0  0  0  0  0
    2.0419    2.1291    2.8835 H   0  0  0  0  0  0  0  0  0  0  0  0
    2.7375    1.3030   -0.0191 H   0  0  0  0  0  0  0  0  0  0  0  0
    1.3833    0.6613    0.8927 H   0  0  0  0  0  0  0  0  0  0  0  0
    3.0232   -0.2645    3.7282 H   0  0  0  0  0  0  0  0  0  0  0  0
    1.6026   -3.9128    3.8490 H   0  0  0  0  0  0  0  0  0  0  0  0
    0.9297   -3.5445    5.4444 H   0  0  0  0  0  0  0  0  0  0  0  0
    3.7257   -2.7665    4.4243 H   0  0  0  0  0  0  0  0  0  0  0  0
    3.3479   -3.9014    5.7234 H   0  0  0  0  0  0  0  0  0  0  0  0
    4.0816   -1.6384    6.5732 H   0  0  0  0  0  0  0  0  0  0  0  0
    2.4768   -2.1253    7.1654 H   0  0  0  0  0  0  0  0  0  0  0  0
    3.7085    0.6753    6.8628 H   0  0  0  0  0  0  0  0  0  0  0  0
    2.0787    0.4022    7.5521 H   0  0  0  0  0  0  0  0  0  0  0  0
    2.2903    1.4611    6.1247 H   0  0  0  0  0  0  0  0  0  0  0  0
    0.7535    0.2099    4.8644 H   0  0  0  0  0  0  0  0  0  0  0  0
    0.4531   -1.0542    6.0771 H   0  0  0  0  0  0  0  0  0  0  0  0
    4.8021    1.5872   -0.0100 H   0  0  0  0  0  0  0  0  0  0  0  0
    7.2902    1.8742    0.0529 H   0  0  0  0  0  0  0  0  0  0  0  0
    9.4264    1.4982    1.0761 H   0  0  0  0  0  0  0  0  0  0  0  0
    9.5842   -0.1579    1.7345 H   0  0  0  0  0  0  0  0  0  0  0  0
    9.3812    1.1948    2.8415 H   0  0  0  0  0  0  0  0  0  0  0  0
    7.5369   -0.6998    3.5474 H   0  0  0  0  0  0  0  0  0  0  0  0
    5.0719   -1.1549    3.3718 H   0  0  0  0  0  0  0  0  0  0  0  0
  1  2  1  0
  1 23  1  0
  1 24  1  0
  1 25  1  0
  2  3  1  0
  2 26  1  0
  2 27  1  0
  3  4  1  6
  3  5  1  0
  3 16  1  0
  5  6  1  0
  5 28  1  0
  6  7  2  0
  6  8  1  0
  8  9  1  6
  8 10  1  0
  8 15  1  0
 10 11  1  0
 10 29  1  0
 10 30  1  0
 11 12  1  0
 11 31  1  0
 11 32  1  0
 12 13  1  0
 12 33  1  0
 12 34  1  0
 13 14  1  0
 13 15  1  0
 14 35  1  0
 14 36  1  0
 14 37  1  0
 15 38  1  0
 15 39  1  0
 16 17  2  0
 16 22  1  0
 17 18  1  0
 17 40  1  0
 18 19  2  0
 18 41  1  0
 19 20  1  0
 19 21  1  0
 20 42  1  0
 20 43  1  0
 20 44  1  0
 21 22  2  0
 21 45  1  0
 22 46  1  0
M  END

