
     RDKit          3D

 50 49  0  0  0  0  0  0  0  0999 V2000
    9.6583   -3.2440    9.1200 C   0  0  0  0  0  0  0  0  0  0  0  0
    9.0871   -1.9141    8.6260 C   0  0  0  0  0  0  0  0  0  0  0  0
    9.4976   -1.5645    7.1920 C   0  0  0  0  0  0  0  0  0  0  0  0
    8.9300   -0.2340    6.6900 C   0  0  0  0  0  0  0  0  0  0  0  0
    9.3372    0.1131    5.2548 C   0  0  0  0  0  0  0  0  0  0  0  0
    8.7708    1.4456    4.7554 C   0  0  0  0  0  0  0  0  0  0  0  0
    9.1743    1.7774    3.3150 C   0  0  0  0  0  0  0  0  0  0  0  0
    8.5902    3.0983    2.7801 C   0  0  2  0  0  0  0  0  0  0  0  0
    7.4939    3.0814    2.8958 H   0  0  0  0  0  0  0  0  0  0  0  0
    8.9204    3.3536    1.2896 C   0  0  0  0  0  0  0  0  0  0  0  0
    8.2504    2.3819    0.3161 C   0  0  0  0  0  0  0  0  0  0  0  0
    9.0427    4.2945    3.6060 C   0  0  0  0  0  0  0  0  0  0  0  0
    8.3065    5.0843    4.1468 O   0  0  0  0  0  0  0  0  0  0  0  0
   10.3900    4.3937    3.6373 O   0  0  0  0  0  0  0  0  0  0  0  0
   10.9631    5.5082    4.3429 C   0  0  0  0  0  0  0  0  0  0  0  0
   11.1925    5.1772    5.8139 C   0  0  0  0  0  0  0  0  0  0  0  0
   11.9819    6.2481    6.5901 C   0  0  1  0  0  0  0  0  0  0  0  0
   11.2493    7.5962    6.6503 C   0  0  0  0  0  0  0  0  0  0  0  0
   12.3154    5.7467    8.0011 C   0  0  0  0  0  0  0  0  0  0  0  0
    9.3432   -3.4622   10.1530 H   0  0  0  0  0  0  0  0  0  0  0  0
   10.7613   -3.2378    9.1032 H   0  0  0  0  0  0  0  0  0  0  0  0
    9.3254   -4.0835    8.4866 H   0  0  0  0  0  0  0  0  0  0  0  0
    9.4070   -1.1010    9.3031 H   0  0  0  0  0  0  0  0  0  0  0  0
    7.9840   -1.9393    8.6911 H   0  0  0  0  0  0  0  0  0  0  0  0
    9.1771   -2.3774    6.5135 H   0  0  0  0  0  0  0  0  0  0  0  0
   10.6016   -1.5392    7.1254 H   0  0  0  0  0  0  0  0  0  0  0  0
    9.2526    0.5788    7.3672 H   0  0  0  0  0  0  0  0  0  0  0  0
    7.8265   -0.2585    6.7593 H   0  0  0  0  0  0  0  0  0  0  0  0
    9.0116   -0.6985    4.5774 H   0  0  0  0  0  0  0  0  0  0  0  0
   10.4406    0.1361    5.1833 H   0  0  0  0  0  0  0  0  0  0  0  0
    9.1019    2.2537    5.4327 H   0  0  0  0  0  0  0  0  0  0  0  0
    7.6681    1.4263    4.8307 H   0  0  0  0  0  0  0  0  0  0  0  0
    8.8453    0.9566    2.6559 H   0  0  0  0  0  0  0  0  0  0  0  0
   10.2741    1.8184    3.2359 H   0  0  0  0  0  0  0  0  0  0  0  0
   10.0156    3.3290    1.1599 H   0  0  0  0  0  0  0  0  0  0  0  0
    8.6052    4.3807    1.0364 H   0  0  0  0  0  0  0  0  0  0  0  0
    8.5879    1.3439    0.4618 H   0  0  0  0  0  0  0  0  0  0  0  0
    8.4802    2.6553   -0.7261 H   0  0  0  0  0  0  0  0  0  0  0  0
    7.1534    2.3951    0.4281 H   0  0  0  0  0  0  0  0  0  0  0  0
   10.3012    6.3773    4.2246 H   0  0  0  0  0  0  0  0  0  0  0  0
   11.9183    5.7078    3.8332 H   0  0  0  0  0  0  0  0  0  0  0  0
   11.7365    4.2182    5.8649 H   0  0  0  0  0  0  0  0  0  0  0  0
   10.2138    5.0166    6.2988 H   0  0  0  0  0  0  0  0  0  0  0  0
   12.9396    6.4074    6.0574 H   0  0  0  0  0  0  0  0  0  0  0  0
   10.2666    7.4886    7.1409 H   0  0  0  0  0  0  0  0  0  0  0  0
   11.0756    8.0248    5.6509 H   0  0  0  0  0  0  0  0  0  0  0  0
   11.8308    8.3341    7.2263 H   0  0  0  0  0  0  0  0  0  0  0  0
   11.3949    5.5665    8.5826 H   0  0  0  0  0  0  0  0  0  0  0  0
   12.9195    6.4834    8.5548 H   0  0  0  0  0  0  0  0  0  0  0  0
   12.8810    4.8012    7.9718 H   0  0  0  0  0  0  0  0  0  0  0  0
  1  2  1  0
  1 20  1  0
  1 21  1  0
  1 22  1  0
  2  3  1  0
  2 23  1  0
  2 24  1  0
  3  4  1  0
  3 25  1  0
  3 26  1  0
  4  5  1  0
  4 27  1  0
  4 28  1  0
  5  6  1  0
  5 29  1  0
  5 30  1  0
  6  7  1  0
  6 31  1  0
  6 32  1  0
  7  8  1  0
  7 33  1  0
  7 34  1  0
  8  9  1  6
  8 10  1  0
  8 12  1  0
 10 11  1  0
 10 35  1  0
 10 36  1  0
 11 37  1  0
 11 38  1  0
 11 39  1  0
 12 13  2  0
 12 14  1  0
 14 15  1  0
 15 16  1  0
 15 40  1  0
 15 41  1  0
 16 17  1  0
 16 42  1  0
 16 43  1  0
 17 18  1  0
 17 19  1  0
 17 44  1  6
 18 45  1  0
 18 46  1  0
 18 47  1  0
 19 48  1  0
 19 49  1  0
 19 50  1  0
M  END

