
     RDKit          3D

 61 61  0  0  0  0  0  0  0  0999 V2000
    0.9273    0.0500    0.5589 C   0  0  0  0  0  0  0  0  0  0  0  0
    2.4480   -0.0597    0.3589 C   0  0  1  0  0  0  0  0  0  0  0  0
    2.8982   -1.4987    0.6504 C   0  0  0  0  0  0  0  0  0  0  0  0
    2.9139    0.4432   -1.0358 C   0  0  1  0  0  0  0  0  0  0  0  0
    2.3635    1.8418   -1.3903 C   0  0  0  0  0  0  0  0  0  0  0  0
    2.7943    2.9049   -0.4988 N   0  0  0  0  0  0  0  0  0  0  0  0
    3.6797    3.8759   -0.8683 C   0  0  0  0  0  0  0  0  0  0  0  0
    4.2278    3.9399   -1.9527 O   0  0  0  0  0  0  0  0  0  0  0  0
    3.8472    4.7459    0.1552 O   0  0  0  0  0  0  0  0  0  0  0  0
    4.7507    5.8927    0.0560 C   0  0  1  0  0  0  0  0  0  0  0  0
    4.2807    6.8380   -1.0551 C   0  0  0  0  0  0  0  0  0  0  0  0
    4.6095    6.5572    1.4272 C   0  0  0  0  0  0  0  0  0  0  0  0
    6.1894    5.4136   -0.1677 C   0  0  0  0  0  0  0  0  0  0  0  0
    4.4525    0.4222   -1.2156 C   0  0  0  0  0  0  0  0  0  0  0  0
    4.9457   -0.8694   -1.6760 N   0  0  0  0  0  0  0  0  0  0  0  0
    6.4008   -1.0251   -1.7413 C   0  0  1  0  0  0  0  0  0  0  0  0
    6.7595   -2.4835   -2.0798 C   0  0  0  0  0  0  0  0  0  0  0  0
    6.4992   -2.8388   -3.5512 C   0  0  0  0  0  0  0  0  0  0  0  0
    7.1938   -1.8931   -4.5648 C   0  0  2  0  0  0  0  0  0  0  0  0
    6.6714   -2.1940   -5.9796 C   0  0  0  0  0  0  0  0  0  0  0  0
    8.7201   -2.1115   -4.5551 C   0  0  0  0  0  0  0  0  0  0  0  0
    6.8478   -0.4290   -4.1913 C   0  0  0  0  0  0  0  0  0  0  0  0
    7.1289   -0.0759   -2.7248 C   0  0  0  0  0  0  0  0  0  0  0  0
    0.6347   -0.3816    1.5295 H   0  0  0  0  0  0  0  0  0  0  0  0
    0.3830   -0.5057   -0.2244 H   0  0  0  0  0  0  0  0  0  0  0  0
    0.5603    1.0881    0.5443 H   0  0  0  0  0  0  0  0  0  0  0  0
    2.9323    0.5950    1.1095 H   0  0  0  0  0  0  0  0  0  0  0  0
    2.4106   -2.2074   -0.0411 H   0  0  0  0  0  0  0  0  0  0  0  0
    2.6200   -1.7890    1.6770 H   0  0  0  0  0  0  0  0  0  0  0  0
    3.9802   -1.6291    0.5241 H   0  0  0  0  0  0  0  0  0  0  0  0
    2.4814   -0.2407   -1.7929 H   0  0  0  0  0  0  0  0  0  0  0  0
    1.2622    1.8232   -1.4238 H   0  0  0  0  0  0  0  0  0  0  0  0
    2.7081    2.1247   -2.3947 H   0  0  0  0  0  0  0  0  0  0  0  0
    2.4018    2.9771    0.4319 H   0  0  0  0  0  0  0  0  0  0  0  0
    3.2339    7.1363   -0.8861 H   0  0  0  0  0  0  0  0  0  0  0  0
    4.3572    6.3567   -2.0382 H   0  0  0  0  0  0  0  0  0  0  0  0
    4.8993    7.7492   -1.0560 H   0  0  0  0  0  0  0  0  0  0  0  0
    3.5664    6.8605    1.6048 H   0  0  0  0  0  0  0  0  0  0  0  0
    5.2481    7.4516    1.4864 H   0  0  0  0  0  0  0  0  0  0  0  0
    4.9069    5.8619    2.2269 H   0  0  0  0  0  0  0  0  0  0  0  0
    6.2922    4.9211   -1.1428 H   0  0  0  0  0  0  0  0  0  0  0  0
    6.4835    4.7041    0.6218 H   0  0  0  0  0  0  0  0  0  0  0  0
    6.8785    6.2718   -0.1288 H   0  0  0  0  0  0  0  0  0  0  0  0
    4.9389    0.6433   -0.2480 H   0  0  0  0  0  0  0  0  0  0  0  0
    4.7379    1.2579   -1.8853 H   0  0  0  0  0  0  0  0  0  0  0  0
    4.5147   -1.1061   -2.5682 H   0  0  0  0  0  0  0  0  0  0  0  0
    6.7723   -0.8083   -0.7233 H   0  0  0  0  0  0  0  0  0  0  0  0
    6.1830   -3.1546   -1.4233 H   0  0  0  0  0  0  0  0  0  0  0  0
    7.8246   -2.6461   -1.8436 H   0  0  0  0  0  0  0  0  0  0  0  0
    5.4106   -2.8190   -3.7440 H   0  0  0  0  0  0  0  0  0  0  0  0
    6.8116   -3.8801   -3.7446 H   0  0  0  0  0  0  0  0  0  0  0  0
    6.8901   -3.2346   -6.2727 H   0  0  0  0  0  0  0  0  0  0  0  0
    7.1393   -1.5308   -6.7263 H   0  0  0  0  0  0  0  0  0  0  0  0
    5.5798   -2.0507   -6.0432 H   0  0  0  0  0  0  0  0  0  0  0  0
    8.9672   -3.1490   -4.8346 H   0  0  0  0  0  0  0  0  0  0  0  0
    9.1734   -1.9188   -3.5712 H   0  0  0  0  0  0  0  0  0  0  0  0
    9.2139   -1.4443   -5.2808 H   0  0  0  0  0  0  0  0  0  0  0  0
    5.7751   -0.2619   -4.4004 H   0  0  0  0  0  0  0  0  0  0  0  0
    7.3914    0.2622   -4.8586 H   0  0  0  0  0  0  0  0  0  0  0  0
    6.8425    0.9705   -2.5314 H   0  0  0  0  0  0  0  0  0  0  0  0
    8.2128   -0.1298   -2.5244 H   0  0  0  0  0  0  0  0  0  0  0  0
  1  2  1  0
  1 24  1  0
  1 25  1  0
  1 26  1  0
  2  3  1  0
  2  4  1  0
  2 27  1  1
  3 28  1  0
  3 29  1  0
  3 30  1  0
  4  5  1  0
  4 14  1  0
  4 31  1  6
  5  6  1  0
  5 32  1  0
  5 33  1  0
  6  7  1  0
  6 34  1  0
  7  8  2  0
  7  9  1  0
 10  9  1  1
 10 11  1  0
 10 12  1  0
 10 13  1  0
 11 35  1  0
 11 36  1  0
 11 37  1  0
 12 38  1  0
 12 39  1  0
 12 40  1  0
 13 41  1  0
 13 42  1  0
 13 43  1  0
 14 15  1  0
 14 44  1  0
 14 45  1  0
 15 16  1  0
 15 46  1  0
 16 17  1  0
 16 23  1  0
 16 47  1  1
 17 18  1  0
 17 48  1  0
 17 49  1  0
 18 19  1  0
 18 50  1  0
 18 51  1  0
 19 20  1  6
 19 21  1  0
 19 22  1  0
 20 52  1  0
 20 53  1  0
 20 54  1  0
 21 55  1  0
 21 56  1  0
 21 57  1  0
 22 23  1  0
 22 58  1  0
 22 59  1  0
 23 60  1  0
 23 61  1  0
M  END

