
     RDKit          3D

 56 59  0  0  0  0  0  0  0  0999 V2000
    1.6717   -0.6622   -1.4671 C   0  0  0  0  0  0  0  0  0  0  0  0
    3.1351   -0.6309   -1.1814 C   0  0  0  0  0  0  0  0  0  0  0  0
    3.7101    0.1595   -0.2268 N   0  0  0  0  0  0  0  0  0  0  0  0
    4.7245   -0.5611    0.2102 C   0  0  0  0  0  0  0  0  0  0  0  0
    5.6578   -0.0790    1.2880 C   0  0  0  0  0  0  0  0  0  0  0  0
    7.0976   -0.2832    1.0085 N   0  0  0  0  0  0  0  0  0  0  0  0
    7.7767   -1.4240    1.5085 C   0  0  0  0  0  0  0  0  0  0  0  0
    7.8708   -2.5450    0.3623 C   0  0  0  0  0  0  0  0  0  0  0  0
    8.5041   -1.9607   -0.7807 N   0  0  0  0  0  0  0  0  0  0  0  0
    9.9401   -2.0259   -0.9414 C   0  0  0  0  0  0  0  0  0  0  0  0
   10.4375   -2.6214   -2.2838 C   0  0  0  0  0  0  0  0  0  0  0  0
   11.6104   -2.4970   -2.5829 O   0  0  0  0  0  0  0  0  0  0  0  0
    9.5104   -3.2670   -3.0280 N   0  0  0  0  0  0  0  0  0  0  0  0
    9.8378   -3.8970   -4.3142 C   0  0  1  0  0  0  0  0  0  0  0  0
   10.4670   -5.2933   -4.1287 C   0  0  0  0  0  0  0  0  0  0  0  0
    9.4261   -6.3232   -3.6604 C   0  0  0  0  0  0  0  0  0  0  0  0
    8.2472   -6.3971   -4.5211 N   0  0  0  0  0  0  0  0  0  0  0  0
    8.4085   -7.1665   -5.7225 C   0  0  1  0  0  0  0  0  0  0  0  0
    8.3259   -8.6679   -5.6132 C   0  0  0  0  0  0  0  0  0  0  0  0
    7.2032   -7.8962   -6.2587 C   0  0  0  0  0  0  0  0  0  0  0  0
    7.6140   -5.0928   -4.6916 C   0  0  0  0  0  0  0  0  0  0  0  0
    8.5768   -3.9960   -5.1893 C   0  0  0  0  0  0  0  0  0  0  0  0
    7.8091   -0.8215   -1.3123 C   0  0  0  0  0  0  0  0  0  0  0  0
    7.6697    0.2829   -0.1655 C   0  0  0  0  0  0  0  0  0  0  0  0
    4.8922   -1.7867   -0.3112 N   0  0  0  0  0  0  0  0  0  0  0  0
    3.7859   -1.8920   -1.2044 O   0  0  0  0  0  0  0  0  0  0  0  0
    1.2860    0.3673   -1.4972 H   0  0  0  0  0  0  0  0  0  0  0  0
    1.0906   -1.2156   -0.6945 H   0  0  0  0  0  0  0  0  0  0  0  0
    1.4546   -1.1403   -2.4361 H   0  0  0  0  0  0  0  0  0  0  0  0
    5.4562   -0.5782    2.2481 H   0  0  0  0  0  0  0  0  0  0  0  0
    5.4883    0.9961    1.4405 H   0  0  0  0  0  0  0  0  0  0  0  0
    7.2513   -1.8499    2.3713 H   0  0  0  0  0  0  0  0  0  0  0  0
    8.8139   -1.1772    1.7989 H   0  0  0  0  0  0  0  0  0  0  0  0
    6.8323   -2.8155    0.1238 H   0  0  0  0  0  0  0  0  0  0  0  0
    8.4512   -3.3977    0.7393 H   0  0  0  0  0  0  0  0  0  0  0  0
   10.3791   -2.6429   -0.1429 H   0  0  0  0  0  0  0  0  0  0  0  0
   10.4043   -1.0263   -0.8731 H   0  0  0  0  0  0  0  0  0  0  0  0
    8.5669   -3.3381   -2.6638 H   0  0  0  0  0  0  0  0  0  0  0  0
   10.5799   -3.2376   -4.7893 H   0  0  0  0  0  0  0  0  0  0  0  0
   11.3082   -5.2266   -3.4204 H   0  0  0  0  0  0  0  0  0  0  0  0
   10.8947   -5.6074   -5.0961 H   0  0  0  0  0  0  0  0  0  0  0  0
    9.0917   -6.0609   -2.6385 H   0  0  0  0  0  0  0  0  0  0  0  0
    9.8778   -7.3247   -3.5926 H   0  0  0  0  0  0  0  0  0  0  0  0
    9.1086   -6.7890   -6.4883 H   0  0  0  0  0  0  0  0  0  0  0  0
    8.1398   -9.0778   -4.6169 H   0  0  0  0  0  0  0  0  0  0  0  0
    8.9826   -9.2720   -6.2455 H   0  0  0  0  0  0  0  0  0  0  0  0
    6.2751   -7.7964   -5.6896 H   0  0  0  0  0  0  0  0  0  0  0  0
    7.0746   -7.9601   -7.3427 H   0  0  0  0  0  0  0  0  0  0  0  0
    7.1713   -4.7934   -3.7212 H   0  0  0  0  0  0  0  0  0  0  0  0
    6.7670   -5.1962   -5.3862 H   0  0  0  0  0  0  0  0  0  0  0  0
    8.0637   -3.0202   -5.2329 H   0  0  0  0  0  0  0  0  0  0  0  0
    8.8957   -4.2292   -6.2184 H   0  0  0  0  0  0  0  0  0  0  0  0
    6.7916   -1.1082   -1.5982 H   0  0  0  0  0  0  0  0  0  0  0  0
    8.3614   -0.3928   -2.1591 H   0  0  0  0  0  0  0  0  0  0  0  0
    7.0461    1.1002   -0.5452 H   0  0  0  0  0  0  0  0  0  0  0  0
    8.6869    0.6631    0.0405 H   0  0  0  0  0  0  0  0  0  0  0  0
  1  2  1  0
  1 27  1  0
  1 28  1  0
  1 29  1  0
  2  3  2  0
  2 26  1  0
  3  4  1  0
  4  5  1  0
  4 25  2  0
  5  6  1  0
  5 30  1  0
  5 31  1  0
  6  7  1  0
  6 24  1  0
  7  8  1  0
  7 32  1  0
  7 33  1  0
  8  9  1  0
  8 34  1  0
  8 35  1  0
  9 10  1  0
  9 23  1  0
 10 11  1  0
 10 36  1  0
 10 37  1  0
 11 12  2  0
 11 13  1  0
 13 14  1  0
 13 38  1  0
 14 15  1  0
 14 22  1  0
 14 39  1  6
 15 16  1  0
 15 40  1  0
 15 41  1  0
 16 17  1  0
 16 42  1  0
 16 43  1  0
 17 18  1  0
 17 21  1  0
 18 19  1  0
 18 20  1  0
 18 44  1  6
 19 20  1  0
 19 45  1  0
 19 46  1  0
 20 47  1  0
 20 48  1  0
 21 22  1  0
 21 49  1  0
 21 50  1  0
 22 51  1  0
 22 52  1  0
 23 24  1  0
 23 53  1  0
 23 54  1  0
 24 55  1  0
 24 56  1  0
 25 26  1  0
M  END

