
     RDKit          3D

 84 85  0  0  0  0  0  0  0  0999 V2000
    5.0499    7.0454   -1.1353 C   0  0  0  0  0  0  0  0  0  0  0  0
    5.7031    7.8489   -2.2684 C   0  0  1  0  0  0  0  0  0  0  0  0
    7.1405    8.2483   -1.9050 C   0  0  0  0  0  0  0  0  0  0  0  0
    5.6079    7.1809   -3.6595 C   0  0  0  0  0  0  0  0  0  0  0  0
    6.4568    5.9353   -3.9649 C   0  0  0  0  0  0  0  0  0  0  0  0
    6.0488    4.6519   -3.3723 N   0  0  0  0  0  0  0  0  0  0  0  0
    5.1167    3.7944   -4.0806 C   0  0  0  0  0  0  0  0  0  0  0  0
    3.7175    3.6314   -3.4433 C   0  0  1  0  0  0  0  0  0  0  0  0
    3.3028    2.3472   -3.7395 F   0  0  0  0  0  0  0  0  0  0  0  0
    3.7934    3.7093   -2.0788 F   0  0  0  0  0  0  0  0  0  0  0  0
    2.6416    4.5963   -3.9717 C   0  0  1  0  0  0  0  0  0  0  0  0
    2.4558    4.3328   -5.3451 O   0  0  0  0  0  0  0  0  0  0  0  0
    1.2832    4.6749   -3.2196 C   0  0  1  0  0  0  0  0  0  0  0  0
    0.4094    3.3960   -3.2043 C   0  0  0  0  0  0  0  0  0  0  0  0
    0.6758    2.3389   -2.1016 C   0  0  1  0  0  0  0  0  0  0  0  0
   -0.1901    2.5598   -0.8370 C   0  0  0  0  0  0  0  0  0  0  0  0
   -1.6700    2.2043   -1.0435 C   0  0  0  0  0  0  0  0  0  0  0  0
   -1.8441    0.7789   -1.5834 C   0  0  0  0  0  0  0  0  0  0  0  0
   -1.0134    0.5565   -2.8543 C   0  0  0  0  0  0  0  0  0  0  0  0
    0.4639    0.8984   -2.6176 C   0  0  0  0  0  0  0  0  0  0  0  0
    1.4457    5.2948   -1.9167 N   0  0  0  0  0  0  0  0  0  0  0  0
    0.7427    6.4034   -1.5425 C   0  0  0  0  0  0  0  0  0  0  0  0
   -0.0318    7.0145   -2.2534 O   0  0  0  0  0  0  0  0  0  0  0  0
    1.0416    6.7304   -0.2649 O   0  0  0  0  0  0  0  0  0  0  0  0
    0.3471    7.8882    0.2997 C   0  0  0  0  0  0  0  0  0  0  0  0
   -0.9291    7.5201    0.9759 C   0  0  0  0  0  0  0  0  0  0  0  0
   -0.9633    7.2409    2.3833 C   0  0  0  0  0  0  0  0  0  0  0  0
   -2.1822    6.8678    3.0273 C   0  0  0  0  0  0  0  0  0  0  0  0
   -3.3878    6.7519    2.2775 C   0  0  0  0  0  0  0  0  0  0  0  0
   -3.3655    7.0151    0.8766 C   0  0  0  0  0  0  0  0  0  0  0  0
   -2.1486    7.3890    0.2278 C   0  0  0  0  0  0  0  0  0  0  0  0
    6.8178    4.1445   -2.3420 C   0  0  0  0  0  0  0  0  0  0  0  0
    7.6638    4.7889   -1.7505 O   0  0  0  0  0  0  0  0  0  0  0  0
    6.5150    2.8573   -2.0988 O   0  0  0  0  0  0  0  0  0  0  0  0
    7.0779    2.1177   -0.9629 C   0  0  1  0  0  0  0  0  0  0  0  0
    6.7017    2.8148    0.3483 C   0  0  0  0  0  0  0  0  0  0  0  0
    6.3838    0.7585   -1.0714 C   0  0  0  0  0  0  0  0  0  0  0  0
    8.5934    1.9727   -1.1293 C   0  0  0  0  0  0  0  0  0  0  0  0
    5.0136    7.6478   -0.2126 H   0  0  0  0  0  0  0  0  0  0  0  0
    5.6203    6.1338   -0.9062 H   0  0  0  0  0  0  0  0  0  0  0  0
    4.0151    6.7572   -1.3786 H   0  0  0  0  0  0  0  0  0  0  0  0
    5.1198    8.7835   -2.3715 H   0  0  0  0  0  0  0  0  0  0  0  0
    7.7615    7.3600   -1.7113 H   0  0  0  0  0  0  0  0  0  0  0  0
    7.1516    8.8661   -0.9923 H   0  0  0  0  0  0  0  0  0  0  0  0
    7.6140    8.8373   -2.7087 H   0  0  0  0  0  0  0  0  0  0  0  0
    5.9178    7.9332   -4.4073 H   0  0  0  0  0  0  0  0  0  0  0  0
    4.5487    6.9712   -3.8879 H   0  0  0  0  0  0  0  0  0  0  0  0
    7.4961    6.1122   -3.6585 H   0  0  0  0  0  0  0  0  0  0  0  0
    6.4643    5.7929   -5.0592 H   0  0  0  0  0  0  0  0  0  0  0  0
    5.5229    2.7779   -4.1653 H   0  0  0  0  0  0  0  0  0  0  0  0
    4.9600    4.1850   -5.0954 H   0  0  0  0  0  0  0  0  0  0  0  0
    3.0718    5.6065   -3.9061 H   0  0  0  0  0  0  0  0  0  0  0  0
    2.1847    3.4077   -5.4342 H   0  0  0  0  0  0  0  0  0  0  0  0
    0.7297    5.4148   -3.8151 H   0  0  0  0  0  0  0  0  0  0  0  0
    0.4879    2.9311   -4.2026 H   0  0  0  0  0  0  0  0  0  0  0  0
   -0.6359    3.7371   -3.1419 H   0  0  0  0  0  0  0  0  0  0  0  0
    1.7297    2.4135   -1.7977 H   0  0  0  0  0  0  0  0  0  0  0  0
   -0.0973    3.5990   -0.4838 H   0  0  0  0  0  0  0  0  0  0  0  0
    0.2151    1.9230   -0.0294 H   0  0  0  0  0  0  0  0  0  0  0  0
   -2.1337    2.9183   -1.7481 H   0  0  0  0  0  0  0  0  0  0  0  0
   -2.2164    2.3251   -0.0931 H   0  0  0  0  0  0  0  0  0  0  0  0
   -2.9097    0.5678   -1.7764 H   0  0  0  0  0  0  0  0  0  0  0  0
   -1.5197    0.0563   -0.8112 H   0  0  0  0  0  0  0  0  0  0  0  0
   -1.4179    1.1826   -3.6709 H   0  0  0  0  0  0  0  0  0  0  0  0
   -1.1081   -0.4881   -3.1965 H   0  0  0  0  0  0  0  0  0  0  0  0
    1.0545    0.7413   -3.5355 H   0  0  0  0  0  0  0  0  0  0  0  0
    0.8714    0.1959   -1.8676 H   0  0  0  0  0  0  0  0  0  0  0  0
    2.0430    4.8633   -1.2221 H   0  0  0  0  0  0  0  0  0  0  0  0
    0.1734    8.6027   -0.5179 H   0  0  0  0  0  0  0  0  0  0  0  0
    1.0691    8.3050    1.0155 H   0  0  0  0  0  0  0  0  0  0  0  0
   -0.0436    7.3136    2.9680 H   0  0  0  0  0  0  0  0  0  0  0  0
   -2.1851    6.6698    4.1010 H   0  0  0  0  0  0  0  0  0  0  0  0
   -4.3170    6.4610    2.7699 H   0  0  0  0  0  0  0  0  0  0  0  0
   -4.2821    6.9293    0.2899 H   0  0  0  0  0  0  0  0  0  0  0  0
   -2.1268    7.5626   -0.8490 H   0  0  0  0  0  0  0  0  0  0  0  0
    5.6122    2.9651    0.3987 H   0  0  0  0  0  0  0  0  0  0  0  0
    7.1986    3.7892    0.4371 H   0  0  0  0  0  0  0  0  0  0  0  0
    7.0030    2.1865    1.2009 H   0  0  0  0  0  0  0  0  0  0  0  0
    5.2914    0.8793   -1.0197 H   0  0  0  0  0  0  0  0  0  0  0  0
    6.7055    0.0997   -0.2507 H   0  0  0  0  0  0  0  0  0  0  0  0
    6.6313    0.2704   -2.0264 H   0  0  0  0  0  0  0  0  0  0  0  0
    9.0914    2.9487   -1.0738 H   0  0  0  0  0  0  0  0  0  0  0  0
    8.8299    1.5083   -2.0996 H   0  0  0  0  0  0  0  0  0  0  0  0
    8.9928    1.3230   -0.3346 H   0  0  0  0  0  0  0  0  0  0  0  0
  1  2  1  0
  1 39  1  0
  1 40  1  0
  1 41  1  0
  2  3  1  0
  2  4  1  0
  2 42  1  6
  3 43  1  0
  3 44  1  0
  3 45  1  0
  4  5  1  0
  4 46  1  0
  4 47  1  0
  5  6  1  0
  5 48  1  0
  5 49  1  0
  6  7  1  0
  6 32  1  0
  7  8  1  0
  7 50  1  0
  7 51  1  0
  8  9  1  1
  8 10  1  0
  8 11  1  0
 11 12  1  0
 11 13  1  0
 11 52  1  6
 12 53  1  0
 13 14  1  0
 13 21  1  0
 13 54  1  6
 14 15  1  0
 14 55  1  0
 14 56  1  0
 15 16  1  0
 15 20  1  0
 15 57  1  1
 16 17  1  0
 16 58  1  0
 16 59  1  0
 17 18  1  0
 17 60  1  0
 17 61  1  0
 18 19  1  0
 18 62  1  0
 18 63  1  0
 19 20  1  0
 19 64  1  0
 19 65  1  0
 20 66  1  0
 20 67  1  0
 21 22  1  0
 21 68  1  0
 22 23  2  0
 22 24  1  0
 24 25  1  0
 25 26  1  0
 25 69  1  0
 25 70  1  0
 26 27  2  0
 26 31  1  0
 27 28  1  0
 27 71  1  0
 28 29  2  0
 28 72  1  0
 29 30  1  0
 29 73  1  0
 30 31  2  0
 30 74  1  0
 31 75  1  0
 32 33  2  0
 32 34  1  0
 35 34  1  6
 35 36  1  0
 35 37  1  0
 35 38  1  0
 36 76  1  0
 36 77  1  0
 36 78  1  0
 37 79  1  0
 37 80  1  0
 37 81  1  0
 38 82  1  0
 38 83  1  0
 38 84  1  0
M  END

