
     RDKit          3D

 47 49  0  0  0  0  0  0  0  0999 V2000
    3.2585   -0.6116   -1.0357 C   0  0  0  0  0  0  0  0  0  0  0  0
    3.4345   -0.7219    0.4479 C   0  0  0  0  0  0  0  0  0  0  0  0
    3.6197    0.3628    1.1931 N   0  0  0  0  0  0  0  0  0  0  0  0
    3.7865   -0.0654    2.4675 N   0  0  0  0  0  0  0  0  0  0  0  0
    3.9539    0.8809    3.5188 C   0  0  0  0  0  0  0  0  0  0  0  0
    3.1771    0.7978    4.6817 C   0  0  0  0  0  0  0  0  0  0  0  0
    3.3573    1.7432    5.6946 C   0  0  0  0  0  0  0  0  0  0  0  0
    4.2870    2.7759    5.5420 C   0  0  0  0  0  0  0  0  0  0  0  0
    5.0389    2.8660    4.3656 C   0  0  0  0  0  0  0  0  0  0  0  0
    4.8786    1.9194    3.3529 C   0  0  0  0  0  0  0  0  0  0  0  0
    3.7164   -1.4270    2.5214 C   0  0  0  0  0  0  0  0  0  0  0  0
    4.0478   -2.3342    3.9628 Cl  0  0  0  0  0  0  0  0  0  0  0  0
    3.4772   -1.9090    1.2446 C   0  0  0  0  0  0  0  0  0  0  0  0
    3.2384   -3.3314    0.8485 C   0  0  0  0  0  0  0  0  0  0  0  0
    1.8401   -3.6749    0.9005 O   0  0  0  0  0  0  0  0  0  0  0  0
    1.1485   -3.7114   -0.3213 C   0  0  0  0  0  0  0  0  0  0  0  0
    1.7545   -3.6081   -1.3880 O   0  0  0  0  0  0  0  0  0  0  0  0
   -0.2975   -3.9192   -0.2223 C   0  0  0  0  0  0  0  0  0  0  0  0
   -0.9876   -4.2045   -1.4171 C   0  0  0  0  0  0  0  0  0  0  0  0
   -2.3919   -4.4274   -1.4453 C   0  0  0  0  0  0  0  0  0  0  0  0
   -3.1589   -4.3626   -0.2918 C   0  0  0  0  0  0  0  0  0  0  0  0
   -2.4974   -4.0407    0.9338 C   0  0  0  0  0  0  0  0  0  0  0  0
   -1.1168   -3.8273    0.9739 C   0  0  0  0  0  0  0  0  0  0  0  0
   -0.4846   -3.4697    2.1465 N   0  0  0  0  0  0  0  0  0  0  0  0
   -1.1043   -3.2734    3.4261 C   0  0  0  0  0  0  0  0  0  0  0  0
   -0.0528   -3.2372    4.5289 C   0  0  0  0  0  0  0  0  0  0  0  0
    0.8501   -2.1904    4.2549 O   0  0  0  0  0  0  0  0  0  0  0  0
    2.8644    0.3818   -1.2929 H   0  0  0  0  0  0  0  0  0  0  0  0
    2.5902   -1.3939   -1.4235 H   0  0  0  0  0  0  0  0  0  0  0  0
    4.2284   -0.7291   -1.5497 H   0  0  0  0  0  0  0  0  0  0  0  0
    2.4202    0.0180    4.7793 H   0  0  0  0  0  0  0  0  0  0  0  0
    2.7513    1.6802    6.6018 H   0  0  0  0  0  0  0  0  0  0  0  0
    4.4191    3.5160    6.3351 H   0  0  0  0  0  0  0  0  0  0  0  0
    5.7596    3.6772    4.2362 H   0  0  0  0  0  0  0  0  0  0  0  0
    5.4520    1.9757    2.4267 H   0  0  0  0  0  0  0  0  0  0  0  0
    3.7400   -4.0107    1.5533 H   0  0  0  0  0  0  0  0  0  0  0  0
    3.5966   -3.5296   -0.1694 H   0  0  0  0  0  0  0  0  0  0  0  0
   -0.4040   -4.2550   -2.3362 H   0  0  0  0  0  0  0  0  0  0  0  0
   -2.8653   -4.6514   -2.4052 H   0  0  0  0  0  0  0  0  0  0  0  0
   -4.2363   -4.5299   -0.3089 H   0  0  0  0  0  0  0  0  0  0  0  0
   -3.0870   -3.9290    1.8444 H   0  0  0  0  0  0  0  0  0  0  0  0
    0.5207   -3.2700    2.0599 H   0  0  0  0  0  0  0  0  0  0  0  0
   -1.8367   -4.0742    3.6277 H   0  0  0  0  0  0  0  0  0  0  0  0
   -1.6690   -2.3178    3.4289 H   0  0  0  0  0  0  0  0  0  0  0  0
    0.4604   -4.2157    4.5734 H   0  0  0  0  0  0  0  0  0  0  0  0
   -0.5678   -3.0888    5.4976 H   0  0  0  0  0  0  0  0  0  0  0  0
    1.7532   -2.4604    4.4736 H   0  0  0  0  0  0  0  0  0  0  0  0
  1  2  1  0
  1 28  1  0
  1 29  1  0
  1 30  1  0
  2  3  2  0
  2 13  1  0
  3  4  1  0
  4  5  1  0
  4 11  1  0
  5  6  2  0
  5 10  1  0
  6  7  1  0
  6 31  1  0
  7  8  2  0
  7 32  1  0
  8  9  1  0
  8 33  1  0
  9 10  2  0
  9 34  1  0
 10 35  1  0
 11 12  1  0
 11 13  2  0
 13 14  1  0
 14 15  1  0
 14 36  1  0
 14 37  1  0
 15 16  1  0
 16 17  2  0
 16 18  1  0
 18 19  2  0
 18 23  1  0
 19 20  1  0
 19 38  1  0
 20 21  2  0
 20 39  1  0
 21 22  1  0
 21 40  1  0
 22 23  2  0
 22 41  1  0
 23 24  1  0
 24 25  1  0
 24 42  1  0
 25 26  1  0
 25 43  1  0
 25 44  1  0
 26 27  1  0
 26 45  1  0
 26 46  1  0
 27 47  1  0
M  END

