
     RDKit          3D

 33 35  0  0  0  0  0  0  0  0999 V2000
    0.4800   -0.6366    0.0131 O   0  0  0  0  0  0  0  0  0  0  0  0
    1.6886   -0.4363   -0.4577 C   0  0  0  0  0  0  0  0  0  0  0  0
    2.6109   -1.4703   -0.6764 C   0  0  0  0  0  0  0  0  0  0  0  0
    2.3173   -2.8210   -0.4025 C   0  0  0  0  0  0  0  0  0  0  0  0
    3.1799   -3.9299   -0.5995 C   0  0  0  0  0  0  0  0  0  0  0  0
    4.5061   -3.7963   -1.1269 C   0  0  0  0  0  0  0  0  0  0  0  0
    5.3516   -4.8758   -1.3201 C   0  0  0  0  0  0  0  0  0  0  0  0
    4.9151   -6.1687   -0.9931 C   0  0  0  0  0  0  0  0  0  0  0  0
    5.9725   -7.5423   -1.2322 Cl  0  0  0  0  0  0  0  0  0  0  0  0
    3.6274   -6.3657   -0.4730 C   0  0  0  0  0  0  0  0  0  0  0  0
    2.7901   -5.2759   -0.2845 C   0  0  0  0  0  0  0  0  0  0  0  0
    1.1899   -5.5966    0.3694 Cl  0  0  0  0  0  0  0  0  0  0  0  0
    1.9564    0.8553   -0.7066 N   0  0  0  0  0  0  0  0  0  0  0  0
    1.0592    1.9694   -0.4441 C   0  0  0  0  0  0  0  0  0  0  0  0
    1.5744    3.1792   -1.1741 C   0  0  0  0  0  0  0  0  0  0  0  0
    0.8803    4.2801   -1.6384 C   0  0  0  0  0  0  0  0  0  0  0  0
    1.8512    5.1006   -2.1911 N   0  0  0  0  0  0  0  0  0  0  0  0
    1.9437    6.3275   -2.8373 C   0  0  0  0  0  0  0  0  0  0  0  0
    3.2211    6.6240   -3.1807 C   0  0  0  0  0  0  0  0  0  0  0  0
    4.3687    5.3766   -2.7110 S   0  0  0  0  0  0  0  0  0  0  0  0
    3.0536    4.4436   -2.0330 C   0  0  0  0  0  0  0  0  0  0  0  0
    2.9231    3.2883   -1.4248 N   0  0  0  0  0  0  0  0  0  0  0  0
    3.5712   -1.1482   -1.0790 H   0  0  0  0  0  0  0  0  0  0  0  0
    1.3341   -3.0584    0.0041 H   0  0  0  0  0  0  0  0  0  0  0  0
    4.8684   -2.8011   -1.3893 H   0  0  0  0  0  0  0  0  0  0  0  0
    6.3548   -4.7302   -1.7247 H   0  0  0  0  0  0  0  0  0  0  0  0
    3.2837   -7.3679   -0.2174 H   0  0  0  0  0  0  0  0  0  0  0  0
    2.9004    1.1132   -0.9875 H   0  0  0  0  0  0  0  0  0  0  0  0
    1.0058    2.1753    0.6425 H   0  0  0  0  0  0  0  0  0  0  0  0
    0.0379    1.7198   -0.7728 H   0  0  0  0  0  0  0  0  0  0  0  0
   -0.1746    4.5391   -1.6282 H   0  0  0  0  0  0  0  0  0  0  0  0
    1.0548    6.9306   -3.0137 H   0  0  0  0  0  0  0  0  0  0  0  0
    3.5672    7.5204   -3.6911 H   0  0  0  0  0  0  0  0  0  0  0  0
  1  2  2  0
  2  3  1  0
  2 13  1  0
  3  4  2  0
  3 23  1  0
  4  5  1  0
  4 24  1  0
  5  6  2  0
  5 11  1  0
  6  7  1  0
  6 25  1  0
  7  8  2  0
  7 26  1  0
  8  9  1  0
  8 10  1  0
 10 11  2  0
 10 27  1  0
 11 12  1  0
 13 14  1  0
 13 28  1  0
 14 15  1  0
 14 29  1  0
 14 30  1  0
 15 16  2  0
 15 22  1  0
 16 17  1  0
 16 31  1  0
 17 18  1  0
 17 21  1  0
 18 19  2  0
 18 32  1  0
 19 20  1  0
 19 33  1  0
 20 21  1  0
 21 22  2  0
M  END

