
     RDKit          3D

 40 41  0  0  0  0  0  0  0  0999 V2000
    1.8557    0.2874   -2.0686 C   0  0  0  0  0  0  0  0  0  0  0  0
    2.8096    0.0910   -0.9737 N   0  0  0  0  0  0  0  0  0  0  0  0
    3.1115    1.1032   -0.0813 C   0  0  0  0  0  0  0  0  0  0  0  0
    2.4023    2.4325   -0.2182 C   0  0  0  0  0  0  0  0  0  0  0  0
    0.9981    2.3388    0.1451 N   0  0  0  0  0  0  0  0  0  0  0  0
    0.2630    3.5855    0.0329 C   0  0  0  0  0  0  0  0  0  0  0  0
   -1.1379    3.4119    0.6355 C   0  0  1  0  0  0  0  0  0  0  0  0
   -1.0302    2.9677    1.9882 O   0  0  0  0  0  0  0  0  0  0  0  0
   -2.0098    4.6471    0.5018 C   0  0  0  0  0  0  0  0  0  0  0  0
   -3.2540    4.5751   -0.1422 C   0  0  0  0  0  0  0  0  0  0  0  0
   -4.0730    5.7025   -0.2502 C   0  0  0  0  0  0  0  0  0  0  0  0
   -3.6603    6.9234    0.2907 C   0  0  0  0  0  0  0  0  0  0  0  0
   -2.4241    7.0097    0.9381 C   0  0  0  0  0  0  0  0  0  0  0  0
   -1.6057    5.8817    1.0393 C   0  0  0  0  0  0  0  0  0  0  0  0
    4.0162    0.9048    0.9139 C   0  0  0  0  0  0  0  0  0  0  0  0
    4.7053   -0.3621    1.0873 C   0  0  0  0  0  0  0  0  0  0  0  0
    5.5217   -0.5959    1.9611 O   0  0  0  0  0  0  0  0  0  0  0  0
    4.3477   -1.3436    0.1309 N   0  0  0  0  0  0  0  0  0  0  0  0
    4.9837   -2.6577    0.2026 C   0  0  0  0  0  0  0  0  0  0  0  0
    3.4361   -1.1656   -0.9026 C   0  0  0  0  0  0  0  0  0  0  0  0
    3.1934   -2.0517   -1.7004 O   0  0  0  0  0  0  0  0  0  0  0  0
    2.3074    0.8743   -2.8857 H   0  0  0  0  0  0  0  0  0  0  0  0
    0.9686    0.8045   -1.6829 H   0  0  0  0  0  0  0  0  0  0  0  0
    1.5903   -0.7000   -2.4595 H   0  0  0  0  0  0  0  0  0  0  0  0
    2.4714    2.7848   -1.2625 H   0  0  0  0  0  0  0  0  0  0  0  0
    2.9635    3.1712    0.3911 H   0  0  0  0  0  0  0  0  0  0  0  0
    0.8984    1.9908    1.0997 H   0  0  0  0  0  0  0  0  0  0  0  0
    0.1721    3.8725   -1.0299 H   0  0  0  0  0  0  0  0  0  0  0  0
    0.7794    4.4314    0.5428 H   0  0  0  0  0  0  0  0  0  0  0  0
   -1.6191    2.5782    0.0998 H   0  0  0  0  0  0  0  0  0  0  0  0
   -0.9521    3.7451    2.5575 H   0  0  0  0  0  0  0  0  0  0  0  0
   -3.5857    3.6209   -0.5608 H   0  0  0  0  0  0  0  0  0  0  0  0
   -5.0389    5.6257   -0.7559 H   0  0  0  0  0  0  0  0  0  0  0  0
   -4.3002    7.8056    0.2088 H   0  0  0  0  0  0  0  0  0  0  0  0
   -2.0927    7.9611    1.3623 H   0  0  0  0  0  0  0  0  0  0  0  0
   -0.6382    5.9735    1.5424 H   0  0  0  0  0  0  0  0  0  0  0  0
    4.2602    1.6966    1.6203 H   0  0  0  0  0  0  0  0  0  0  0  0
    5.6613   -2.6452    1.0625 H   0  0  0  0  0  0  0  0  0  0  0  0
    5.5397   -2.8638   -0.7236 H   0  0  0  0  0  0  0  0  0  0  0  0
    4.2227   -3.4425    0.3207 H   0  0  0  0  0  0  0  0  0  0  0  0
  1  2  1  0
  1 22  1  0
  1 23  1  0
  1 24  1  0
  2  3  1  0
  2 20  1  0
  3  4  1  0
  3 15  2  0
  4  5  1  0
  4 25  1  0
  4 26  1  0
  5  6  1  0
  5 27  1  0
  6  7  1  0
  6 28  1  0
  6 29  1  0
  7  8  1  0
  7  9  1  0
  7 30  1  6
  8 31  1  0
  9 10  2  0
  9 14  1  0
 10 11  1  0
 10 32  1  0
 11 12  2  0
 11 33  1  0
 12 13  1  0
 12 34  1  0
 13 14  2  0
 13 35  1  0
 14 36  1  0
 15 16  1  0
 15 37  1  0
 16 17  2  0
 16 18  1  0
 18 19  1  0
 18 20  1  0
 19 38  1  0
 19 39  1  0
 19 40  1  0
 20 21  2  0
M  END

