
     RDKit          3D

 34 36  0  0  0  0  0  0  0  0999 V2000
    2.7428   -5.6003    1.5846 C   0  0  0  0  0  0  0  0  0  0  0  0
    2.5421   -4.4078    0.8600 O   0  0  0  0  0  0  0  0  0  0  0  0
    3.4531   -3.3979    0.9634 C   0  0  0  0  0  0  0  0  0  0  0  0
    4.6049   -3.4372    1.7484 C   0  0  0  0  0  0  0  0  0  0  0  0
    5.4788   -2.3419    1.7823 C   0  0  0  0  0  0  0  0  0  0  0  0
    5.1817   -1.2145    1.0225 C   0  0  0  0  0  0  0  0  0  0  0  0
    6.2678    0.1608    1.0561 Cl  0  0  0  0  0  0  0  0  0  0  0  0
    4.0323   -1.1491    0.2271 C   0  0  0  0  0  0  0  0  0  0  0  0
    3.1575   -2.2421    0.1906 C   0  0  0  0  0  0  0  0  0  0  0  0
    1.9859   -2.2857   -0.5693 N   0  0  0  0  0  0  0  0  0  0  0  0
    1.4652   -1.3209   -1.3934 C   0  0  0  0  0  0  0  0  0  0  0  0
    1.9595   -0.2236   -1.5999 O   0  0  0  0  0  0  0  0  0  0  0  0
    0.1906   -1.7322   -2.0515 C   0  0  0  0  0  0  0  0  0  0  0  0
   -0.5742   -0.9502   -2.9458 C   0  0  0  0  0  0  0  0  0  0  0  0
   -1.6567   -1.7564   -3.2879 C   0  0  0  0  0  0  0  0  0  0  0  0
   -2.7858   -1.5134   -4.1696 C   0  0  0  0  0  0  0  0  0  0  0  0
   -3.0463   -0.3792   -4.9135 C   0  0  0  0  0  0  0  0  0  0  0  0
   -4.2457   -0.4702   -5.6756 C   0  0  0  0  0  0  0  0  0  0  0  0
   -4.8929   -1.6688   -5.5108 C   0  0  0  0  0  0  0  0  0  0  0  0
   -4.0419   -2.7054   -4.4188 S   0  0  0  0  0  0  0  0  0  0  0  0
   -1.4671   -2.9256   -2.5954 N   0  0  0  0  0  0  0  0  0  0  0  0
   -2.0629   -3.7461   -2.6049 H   0  0  0  0  0  0  0  0  0  0  0  0
   -0.3634   -2.9301   -1.8481 N   0  0  0  0  0  0  0  0  0  0  0  0
    1.8953   -6.2576    1.3488 H   0  0  0  0  0  0  0  0  0  0  0  0
    2.7634   -5.4175    2.6740 H   0  0  0  0  0  0  0  0  0  0  0  0
    3.6810   -6.1037    1.2898 H   0  0  0  0  0  0  0  0  0  0  0  0
    4.8383   -4.3199    2.3439 H   0  0  0  0  0  0  0  0  0  0  0  0
    6.3802   -2.3712    2.3956 H   0  0  0  0  0  0  0  0  0  0  0  0
    3.8048   -0.2663   -0.3646 H   0  0  0  0  0  0  0  0  0  0  0  0
    1.4532   -3.1501   -0.5001 H   0  0  0  0  0  0  0  0  0  0  0  0
   -0.3508    0.0580   -3.2810 H   0  0  0  0  0  0  0  0  0  0  0  0
   -2.3918    0.4931   -4.9105 H   0  0  0  0  0  0  0  0  0  0  0  0
   -4.6158    0.3255   -6.3234 H   0  0  0  0  0  0  0  0  0  0  0  0
   -5.8218   -2.0078   -5.9666 H   0  0  0  0  0  0  0  0  0  0  0  0
  1  2  1  0
  1 24  1  0
  1 25  1  0
  1 26  1  0
  2  3  1  0
  3  4  2  0
  3  9  1  0
  4  5  1  0
  4 27  1  0
  5  6  2  0
  5 28  1  0
  6  7  1  0
  6  8  1  0
  8  9  2  0
  8 29  1  0
  9 10  1  0
 10 11  1  0
 10 30  1  0
 11 12  2  0
 11 13  1  0
 13 14  1  0
 13 23  2  0
 14 15  2  0
 14 31  1  0
 15 16  1  0
 15 21  1  0
 16 17  2  0
 16 20  1  0
 17 18  1  0
 17 32  1  0
 18 19  2  0
 18 33  1  0
 19 20  1  0
 19 34  1  0
 21 22  1  0
 21 23  1  0
M  END

