
     RDKit          3D

 63 65  0  0  0  0  0  0  0  0999 V2000
    5.9762   -6.2379   -1.7401 C   0  0  0  0  0  0  0  0  0  0  0  0
    4.8769   -5.1697   -1.6920 C   0  0  1  0  0  0  0  0  0  0  0  0
    3.5882   -5.7155   -1.0650 C   0  0  0  0  0  0  0  0  0  0  0  0
    5.3591   -3.8898   -1.0056 C   0  0  0  0  0  0  0  0  0  0  0  0
    5.6491   -4.1366    0.3767 O   0  0  0  0  0  0  0  0  0  0  0  0
    6.6585   -3.3666    0.9668 C   0  0  0  0  0  0  0  0  0  0  0  0
    7.9689   -3.5515    0.5569 C   0  0  0  0  0  0  0  0  0  0  0  0
    9.0200   -2.7863    1.0960 C   0  0  0  0  0  0  0  0  0  0  0  0
    8.7153   -1.8152    2.0721 C   0  0  0  0  0  0  0  0  0  0  0  0
    7.4181   -1.6305    2.5076 C   0  0  0  0  0  0  0  0  0  0  0  0
    6.3218   -2.4101    1.9923 C   0  0  0  0  0  0  0  0  0  0  0  0
    5.0387   -2.1786    2.5689 C   0  0  0  0  0  0  0  0  0  0  0  0
    4.7565   -1.3092    3.4228 O   0  0  0  0  0  0  0  0  0  0  0  0
    3.9530   -3.0637    2.1381 N   0  0  0  0  0  0  0  0  0  0  0  0
    2.7057   -3.0151    2.5850 C   0  0  0  0  0  0  0  0  0  0  0  0
    1.5258   -4.2070    2.0231 S   0  0  0  0  0  0  0  0  0  0  0  0
    2.3399   -2.1016    3.4829 N   0  0  0  0  0  0  0  0  0  0  0  0
    1.0293   -1.9655    3.9971 C   0  0  0  0  0  0  0  0  0  0  0  0
   -0.0669   -1.8666    3.1236 C   0  0  0  0  0  0  0  0  0  0  0  0
   -1.3684   -1.7707    3.6273 C   0  0  0  0  0  0  0  0  0  0  0  0
   -1.5790   -1.7365    5.0037 C   0  0  0  0  0  0  0  0  0  0  0  0
   -0.4858   -1.8066    5.8773 C   0  0  0  0  0  0  0  0  0  0  0  0
    0.8212   -1.9251    5.3948 C   0  0  0  0  0  0  0  0  0  0  0  0
    2.0219   -1.8538    6.3146 C   0  0  0  0  0  0  0  0  0  0  0  0
    2.8084   -0.9311    6.1664 O   0  0  0  0  0  0  0  0  0  0  0  0
    2.1651   -2.8083    7.2915 N   0  0  0  0  0  0  0  0  0  0  0  0
    3.3271   -2.7176    8.1694 C   0  0  0  0  0  0  0  0  0  0  0  0
    1.4193   -4.0565    7.3373 C   0  0  0  0  0  0  0  0  0  0  0  0
    0.5543   -4.2562    8.5748 C   0  0  0  0  0  0  0  0  0  0  0  0
    0.1380   -3.1861    9.3785 C   0  0  0  0  0  0  0  0  0  0  0  0
   -0.6911   -3.4039   10.4846 C   0  0  0  0  0  0  0  0  0  0  0  0
   -1.1174   -4.6958   10.8009 C   0  0  0  0  0  0  0  0  0  0  0  0
   -0.7045   -5.7711   10.0069 C   0  0  0  0  0  0  0  0  0  0  0  0
    0.1276   -5.5516    8.9073 C   0  0  0  0  0  0  0  0  0  0  0  0
    5.6295   -7.1394   -2.2701 H   0  0  0  0  0  0  0  0  0  0  0  0
    6.2745   -6.5351   -0.7225 H   0  0  0  0  0  0  0  0  0  0  0  0
    6.8748   -5.8682   -2.2602 H   0  0  0  0  0  0  0  0  0  0  0  0
    4.6454   -4.8651   -2.7302 H   0  0  0  0  0  0  0  0  0  0  0  0
    3.7714   -6.0647   -0.0359 H   0  0  0  0  0  0  0  0  0  0  0  0
    3.2033   -6.5734   -1.6390 H   0  0  0  0  0  0  0  0  0  0  0  0
    2.7947   -4.9511   -1.0350 H   0  0  0  0  0  0  0  0  0  0  0  0
    4.5868   -3.0988   -1.0755 H   0  0  0  0  0  0  0  0  0  0  0  0
    6.2651   -3.5096   -1.5037 H   0  0  0  0  0  0  0  0  0  0  0  0
    8.1729   -4.3085   -0.2043 H   0  0  0  0  0  0  0  0  0  0  0  0
   10.0459   -2.9469    0.7608 H   0  0  0  0  0  0  0  0  0  0  0  0
    9.5152   -1.2027    2.4971 H   0  0  0  0  0  0  0  0  0  0  0  0
    7.1819   -0.8879    3.2703 H   0  0  0  0  0  0  0  0  0  0  0  0
    4.2435   -3.7710    1.4532 H   0  0  0  0  0  0  0  0  0  0  0  0
    3.1603   -1.5087    3.7939 H   0  0  0  0  0  0  0  0  0  0  0  0
    0.1078   -1.8276    2.0473 H   0  0  0  0  0  0  0  0  0  0  0  0
   -2.2103   -1.6968    2.9354 H   0  0  0  0  0  0  0  0  0  0  0  0
   -2.5900   -1.6434    5.4063 H   0  0  0  0  0  0  0  0  0  0  0  0
   -0.6563   -1.7739    6.9551 H   0  0  0  0  0  0  0  0  0  0  0  0
    3.7375   -1.7034    8.1121 H   0  0  0  0  0  0  0  0  0  0  0  0
    4.1104   -3.4307    7.8566 H   0  0  0  0  0  0  0  0  0  0  0  0
    3.0373   -2.9486    9.2055 H   0  0  0  0  0  0  0  0  0  0  0  0
    2.1343   -4.8969    7.2652 H   0  0  0  0  0  0  0  0  0  0  0  0
    0.7882   -4.1237    6.4391 H   0  0  0  0  0  0  0  0  0  0  0  0
    0.4768   -2.1736    9.1455 H   0  0  0  0  0  0  0  0  0  0  0  0
   -1.0012   -2.5576   11.1031 H   0  0  0  0  0  0  0  0  0  0  0  0
   -1.7638   -4.8663   11.6654 H   0  0  0  0  0  0  0  0  0  0  0  0
   -1.0271   -6.7870   10.2493 H   0  0  0  0  0  0  0  0  0  0  0  0
    0.4520   -6.4001    8.2968 H   0  0  0  0  0  0  0  0  0  0  0  0
  1  2  1  0
  1 35  1  0
  1 36  1  0
  1 37  1  0
  2  3  1  0
  2  4  1  0
  2 38  1  6
  3 39  1  0
  3 40  1  0
  3 41  1  0
  4  5  1  0
  4 42  1  0
  4 43  1  0
  5  6  1  0
  6  7  2  0
  6 11  1  0
  7  8  1  0
  7 44  1  0
  8  9  2  0
  8 45  1  0
  9 10  1  0
  9 46  1  0
 10 11  2  0
 10 47  1  0
 11 12  1  0
 12 13  2  0
 12 14  1  0
 14 15  1  0
 14 48  1  0
 15 16  2  0
 15 17  1  0
 17 18  1  0
 17 49  1  0
 18 19  2  0
 18 23  1  0
 19 20  1  0
 19 50  1  0
 20 21  2  0
 20 51  1  0
 21 22  1  0
 21 52  1  0
 22 23  2  0
 22 53  1  0
 23 24  1  0
 24 25  2  0
 24 26  1  0
 26 27  1  0
 26 28  1  0
 27 54  1  0
 27 55  1  0
 27 56  1  0
 28 29  1  0
 28 57  1  0
 28 58  1  0
 29 30  2  0
 29 34  1  0
 30 31  1  0
 30 59  1  0
 31 32  2  0
 31 60  1  0
 32 33  1  0
 32 61  1  0
 33 34  2  0
 33 62  1  0
 34 63  1  0
M  END

