
     RDKit          3D

 26 26  0  0  0  0  0  0  0  0999 V2000
    1.5571    1.5998    1.1695 C   0  0  0  0  0  0  0  0  0  0  0  0
    2.7026    0.8947    0.7302 O   0  0  0  0  0  0  0  0  0  0  0  0
    3.2399    1.5010   -0.3816 N   0  0  0  0  0  0  0  0  0  0  0  0
    4.3659    1.0156   -0.7469 C   0  0  0  0  0  0  0  0  0  0  0  0
    5.0710   -0.1015   -0.0429 C   0  0  0  0  0  0  0  0  0  0  0  0
    5.2939   -1.2069   -0.7630 N   0  0  0  0  0  0  0  0  0  0  0  0
    5.9183   -2.2515   -0.2291 C   0  0  0  0  0  0  0  0  0  0  0  0
    6.3770   -2.2407    1.0931 C   0  0  0  0  0  0  0  0  0  0  0  0
    7.1828   -3.6340    1.7561 Cl  0  0  0  0  0  0  0  0  0  0  0  0
    6.1914   -1.0942    1.8649 C   0  0  0  0  0  0  0  0  0  0  0  0
    5.5354   -0.0063    1.2869 C   0  0  0  0  0  0  0  0  0  0  0  0
    5.3561    1.4502    2.2199 Cl  0  0  0  0  0  0  0  0  0  0  0  0
    4.9646    1.5666   -2.0396 C   0  0  1  0  0  0  0  0  0  0  0  0
    4.3801    0.8156   -3.2540 C   0  0  0  0  0  0  0  0  0  0  0  0
    4.7935    3.0160   -2.0777 N   0  0  0  0  0  0  0  0  0  0  0  0
    1.1412    1.0121    1.9997 H   0  0  0  0  0  0  0  0  0  0  0  0
    0.8090    1.6855    0.3635 H   0  0  0  0  0  0  0  0  0  0  0  0
    1.8202    2.6091    1.5296 H   0  0  0  0  0  0  0  0  0  0  0  0
    6.0703   -3.1332   -0.8598 H   0  0  0  0  0  0  0  0  0  0  0  0
    6.5551   -1.0405    2.8915 H   0  0  0  0  0  0  0  0  0  0  0  0
    6.0478    1.3539   -2.0038 H   0  0  0  0  0  0  0  0  0  0  0  0
    3.2955    1.0001   -3.3203 H   0  0  0  0  0  0  0  0  0  0  0  0
    4.5460   -0.2686   -3.1694 H   0  0  0  0  0  0  0  0  0  0  0  0
    4.8544    1.1720   -4.1839 H   0  0  0  0  0  0  0  0  0  0  0  0
    3.8111    3.2401   -1.9151 H   0  0  0  0  0  0  0  0  0  0  0  0
    5.0289    3.3654   -3.0066 H   0  0  0  0  0  0  0  0  0  0  0  0
  1  2  1  0
  1 16  1  0
  1 17  1  0
  1 18  1  0
  2  3  1  0
  3  4  2  0
  4  5  1  0
  4 13  1  0
  5  6  2  0
  5 11  1  0
  6  7  1  0
  7  8  2  0
  7 19  1  0
  8  9  1  0
  8 10  1  0
 10 11  2  0
 10 20  1  0
 11 12  1  0
 13 14  1  0
 13 15  1  0
 13 21  1  1
 14 22  1  0
 14 23  1  0
 14 24  1  0
 15 25  1  0
 15 26  1  0
M  END

