
     RDKit          3D

 66 71  0  0  0  0  0  0  0  0999 V2000
    4.5420    1.7636    4.9359 C   0  0  0  0  0  0  0  0  0  0  0  0
    5.7548    0.8420    4.7969 C   0  0  0  0  0  0  0  0  0  0  0  0
    5.8684    0.2043    3.4088 C   0  0  0  0  0  0  0  0  0  0  0  0
    7.0873   -0.7237    3.2792 C   0  0  0  0  0  0  0  0  0  0  0  0
    7.2819   -1.2221    1.9252 N   0  0  0  0  0  0  0  0  0  0  0  0
    7.7938   -0.3281    0.9565 C   0  0  0  0  0  0  0  0  0  0  0  0
    8.4556    0.8816    1.1521 C   0  0  0  0  0  0  0  0  0  0  0  0
    8.8669    1.5973    0.0004 C   0  0  0  0  0  0  0  0  0  0  0  0
    8.6017    1.1015   -1.2798 C   0  0  0  0  0  0  0  0  0  0  0  0
    7.9243   -0.1137   -1.4699 C   0  0  0  0  0  0  0  0  0  0  0  0
    7.5154   -0.8417   -0.3328 C   0  0  0  0  0  0  0  0  0  0  0  0
    6.8219   -2.0817   -0.1424 C   0  0  0  0  0  0  0  0  0  0  0  0
    6.2620   -2.9525   -1.0793 C   0  0  0  0  0  0  0  0  0  0  0  0
    5.6216   -4.1269   -0.6534 C   0  0  0  0  0  0  0  0  0  0  0  0
    5.5750   -4.4453    0.7061 C   0  0  0  0  0  0  0  0  0  0  0  0
    5.1129   -5.6364    1.3543 C   0  0  0  0  0  0  0  0  0  0  0  0
    4.5000   -6.8168    0.8894 C   0  0  0  0  0  0  0  0  0  0  0  0
    4.2490   -7.8778    1.7978 C   0  0  0  0  0  0  0  0  0  0  0  0
    3.5961   -9.1254    1.3317 C   0  0  0  0  0  0  0  0  0  0  0  0
    3.8909  -10.3738    1.9193 C   0  0  0  0  0  0  0  0  0  0  0  0
    3.2747  -11.5451    1.4786 C   0  0  0  0  0  0  0  0  0  0  0  0
    2.3439  -11.5049    0.4343 C   0  0  0  0  0  0  0  0  0  0  0  0
    2.0399  -10.2777   -0.1627 C   0  0  0  0  0  0  0  0  0  0  0  0
    2.6583   -9.1062    0.2774 C   0  0  0  0  0  0  0  0  0  0  0  0
    4.6234   -7.7301    3.1468 C   0  0  0  0  0  0  0  0  0  0  0  0
    5.2302   -6.5496    3.6311 C   0  0  0  0  0  0  0  0  0  0  0  0
    5.4544   -5.5124    2.7231 C   0  0  0  0  0  0  0  0  0  0  0  0
    6.0698   -4.2647    2.9272 N   0  0  0  0  0  0  0  0  0  0  0  0
    6.6716   -3.9352    4.2118 C   0  0  0  0  0  0  0  0  0  0  0  0
    5.7495   -3.2155    5.2178 C   0  0  0  0  0  0  0  0  0  0  0  0
    4.6853   -4.0666    5.9188 C   0  0  0  0  0  0  0  0  0  0  0  0
    3.8569   -3.2550    6.9164 C   0  0  0  0  0  0  0  0  0  0  0  0
    6.1603   -3.5701    1.7178 C   0  0  0  0  0  0  0  0  0  0  0  0
    6.7222   -2.3338    1.2953 C   0  0  0  0  0  0  0  0  0  0  0  0
    4.4919    2.2137    5.9398 H   0  0  0  0  0  0  0  0  0  0  0  0
    3.6002    1.2149    4.7687 H   0  0  0  0  0  0  0  0  0  0  0  0
    4.5790    2.5856    4.2022 H   0  0  0  0  0  0  0  0  0  0  0  0
    5.7066    0.0509    5.5669 H   0  0  0  0  0  0  0  0  0  0  0  0
    6.6772    1.4123    5.0099 H   0  0  0  0  0  0  0  0  0  0  0  0
    5.9378    0.9939    2.6425 H   0  0  0  0  0  0  0  0  0  0  0  0
    4.9544   -0.3724    3.1798 H   0  0  0  0  0  0  0  0  0  0  0  0
    6.9976   -1.5572    3.9730 H   0  0  0  0  0  0  0  0  0  0  0  0
    8.0025   -0.1839    3.5680 H   0  0  0  0  0  0  0  0  0  0  0  0
    8.6637    1.2772    2.1470 H   0  0  0  0  0  0  0  0  0  0  0  0
    9.3940    2.5463    0.1202 H   0  0  0  0  0  0  0  0  0  0  0  0
    8.9267    1.6736   -2.1531 H   0  0  0  0  0  0  0  0  0  0  0  0
    7.7201   -0.4846   -2.4764 H   0  0  0  0  0  0  0  0  0  0  0  0
    6.3166   -2.7123   -2.1433 H   0  0  0  0  0  0  0  0  0  0  0  0
    5.1922   -4.8136   -1.3860 H   0  0  0  0  0  0  0  0  0  0  0  0
    4.2722   -6.9361   -0.1705 H   0  0  0  0  0  0  0  0  0  0  0  0
    4.6365  -10.4282    2.7155 H   0  0  0  0  0  0  0  0  0  0  0  0
    3.5301  -12.4993    1.9475 H   0  0  0  0  0  0  0  0  0  0  0  0
    1.8624  -12.4228    0.0875 H   0  0  0  0  0  0  0  0  0  0  0  0
    1.3095  -10.2304   -0.9749 H   0  0  0  0  0  0  0  0  0  0  0  0
    2.3897   -8.1528   -0.1825 H   0  0  0  0  0  0  0  0  0  0  0  0
    4.4046   -8.5301    3.8555 H   0  0  0  0  0  0  0  0  0  0  0  0
    5.4984   -6.4737    4.6832 H   0  0  0  0  0  0  0  0  0  0  0  0
    7.5688   -3.3337    4.0126 H   0  0  0  0  0  0  0  0  0  0  0  0
    7.0349   -4.8769    4.6521 H   0  0  0  0  0  0  0  0  0  0  0  0
    5.2491   -2.3751    4.7095 H   0  0  0  0  0  0  0  0  0  0  0  0
    6.4046   -2.7646    5.9856 H   0  0  0  0  0  0  0  0  0  0  0  0
    5.1745   -4.9051    6.4457 H   0  0  0  0  0  0  0  0  0  0  0  0
    4.0180   -4.5234    5.1705 H   0  0  0  0  0  0  0  0  0  0  0  0
    4.4910   -2.8102    7.7019 H   0  0  0  0  0  0  0  0  0  0  0  0
    3.1029   -3.8844    7.4142 H   0  0  0  0  0  0  0  0  0  0  0  0
    3.3218   -2.4301    6.4168 H   0  0  0  0  0  0  0  0  0  0  0  0
  1  2  1  0
  1 35  1  0
  1 36  1  0
  1 37  1  0
  2  3  1  0
  2 38  1  0
  2 39  1  0
  3  4  1  0
  3 40  1  0
  3 41  1  0
  4  5  1  0
  4 42  1  0
  4 43  1  0
  5  6  1  0
  5 34  1  0
  6  7  2  0
  6 11  1  0
  7  8  1  0
  7 44  1  0
  8  9  2  0
  8 45  1  0
  9 10  1  0
  9 46  1  0
 10 11  2  0
 10 47  1  0
 11 12  1  0
 12 13  1  0
 12 34  2  0
 13 14  2  0
 13 48  1  0
 14 15  1  0
 14 49  1  0
 15 16  1  0
 15 33  2  0
 16 17  2  0
 16 27  1  0
 17 18  1  0
 17 50  1  0
 18 19  1  0
 18 25  2  0
 19 20  2  0
 19 24  1  0
 20 21  1  0
 20 51  1  0
 21 22  2  0
 21 52  1  0
 22 23  1  0
 22 53  1  0
 23 24  2  0
 23 54  1  0
 24 55  1  0
 25 26  1  0
 25 56  1  0
 26 27  2  0
 26 57  1  0
 27 28  1  0
 28 29  1  0
 28 33  1  0
 29 30  1  0
 29 58  1  0
 29 59  1  0
 30 31  1  0
 30 60  1  0
 30 61  1  0
 31 32  1  0
 31 62  1  0
 31 63  1  0
 32 64  1  0
 32 65  1  0
 32 66  1  0
 33 34  1  0
M  END

