
     RDKit          3D

 60 62  0  0  0  0  0  0  0  0999 V2000
    7.8679    0.9975    4.1112 C   0  0  0  0  0  0  0  0  0  0  0  0
    7.6027    0.0063    3.2563 C   0  0  0  0  0  0  0  0  0  0  0  0
    6.2741   -0.2022    2.5749 C   0  0  0  0  0  0  0  0  0  0  0  0
    6.3973   -0.1763    1.1257 N   0  0  0  0  0  0  0  0  0  0  0  0
    6.1284   -1.1457    0.1971 C   0  0  0  0  0  0  0  0  0  0  0  0
    6.3952   -0.9783   -0.9822 O   0  0  0  0  0  0  0  0  0  0  0  0
    5.5091   -2.4615    0.6801 C   0  0  0  0  0  0  0  0  0  0  0  0
    6.5507   -3.4524    1.1716 C   0  0  0  0  0  0  0  0  0  0  0  0
    6.4018   -4.1170    2.3971 C   0  0  0  0  0  0  0  0  0  0  0  0
    7.3561   -5.0373    2.8403 C   0  0  0  0  0  0  0  0  0  0  0  0
    8.4802   -5.3217    2.0548 C   0  0  0  0  0  0  0  0  0  0  0  0
    9.4729   -6.2467    2.5072 N   0  0  0  0  0  0  0  0  0  0  0  0
   10.6988   -5.6913    3.1070 C   0  0  0  0  0  0  0  0  0  0  0  0
   10.5303   -5.2192    4.5400 C   0  0  0  0  0  0  0  0  0  0  0  0
   10.3781   -6.1532    5.5808 C   0  0  0  0  0  0  0  0  0  0  0  0
   10.2198   -5.7103    6.8933 C   0  0  0  0  0  0  0  0  0  0  0  0
   10.2141   -4.3410    7.1853 C   0  0  0  0  0  0  0  0  0  0  0  0
   10.3661   -3.3913    6.1669 C   0  0  0  0  0  0  0  0  0  0  0  0
   10.3540   -1.9102    6.4623 C   0  0  0  0  0  0  0  0  0  0  0  0
   10.5226   -3.8541    4.8485 C   0  0  0  0  0  0  0  0  0  0  0  0
    9.2948   -7.6218    2.5349 C   0  0  0  0  0  0  0  0  0  0  0  0
   10.1053   -8.3547    3.0920 O   0  0  0  0  0  0  0  0  0  0  0  0
    8.0962   -8.1580    1.8306 C   0  0  0  0  0  0  0  0  0  0  0  0
    7.8303   -9.4785    1.8834 C   0  0  0  0  0  0  0  0  0  0  0  0
    6.7252  -10.1991    1.2446 C   0  0  0  0  0  0  0  0  0  0  0  0
    5.7487   -9.5687    0.4442 C   0  0  0  0  0  0  0  0  0  0  0  0
    4.7204  -10.3047   -0.1402 C   0  0  0  0  0  0  0  0  0  0  0  0
    4.6393  -11.6892    0.0587 C   0  0  0  0  0  0  0  0  0  0  0  0
    5.5973  -12.3306    0.8483 C   0  0  0  0  0  0  0  0  0  0  0  0
    6.6276  -11.5924    1.4334 C   0  0  0  0  0  0  0  0  0  0  0  0
    8.6369   -4.6593    0.8271 C   0  0  0  0  0  0  0  0  0  0  0  0
    7.6856   -3.7373    0.3916 C   0  0  0  0  0  0  0  0  0  0  0  0
    8.8506    1.1024    4.5790 H   0  0  0  0  0  0  0  0  0  0  0  0
    7.1095    1.7409    4.3805 H   0  0  0  0  0  0  0  0  0  0  0  0
    8.3819   -0.7209    2.9972 H   0  0  0  0  0  0  0  0  0  0  0  0
    5.5548    0.5644    2.9167 H   0  0  0  0  0  0  0  0  0  0  0  0
    5.8633   -1.1779    2.8706 H   0  0  0  0  0  0  0  0  0  0  0  0
    6.8373    0.6459    0.7193 H   0  0  0  0  0  0  0  0  0  0  0  0
    4.9978   -2.8692   -0.2050 H   0  0  0  0  0  0  0  0  0  0  0  0
    4.7457   -2.2979    1.4552 H   0  0  0  0  0  0  0  0  0  0  0  0
    5.5256   -3.9159    3.0205 H   0  0  0  0  0  0  0  0  0  0  0  0
    7.2351   -5.5425    3.8006 H   0  0  0  0  0  0  0  0  0  0  0  0
   11.0333   -4.8535    2.4765 H   0  0  0  0  0  0  0  0  0  0  0  0
   11.4527   -6.4884    3.0615 H   0  0  0  0  0  0  0  0  0  0  0  0
   10.3909   -7.2196    5.3442 H   0  0  0  0  0  0  0  0  0  0  0  0
   10.1076   -6.4371    7.7024 H   0  0  0  0  0  0  0  0  0  0  0  0
   10.0945   -4.0068    8.2201 H   0  0  0  0  0  0  0  0  0  0  0  0
   10.3347   -1.7143    7.5446 H   0  0  0  0  0  0  0  0  0  0  0  0
    9.4701   -1.4203    6.0187 H   0  0  0  0  0  0  0  0  0  0  0  0
   11.2431   -1.4092    6.0446 H   0  0  0  0  0  0  0  0  0  0  0  0
   10.6480   -3.1256    4.0403 H   0  0  0  0  0  0  0  0  0  0  0  0
    7.4631   -7.4689    1.2707 H   0  0  0  0  0  0  0  0  0  0  0  0
    8.5278  -10.0846    2.4718 H   0  0  0  0  0  0  0  0  0  0  0  0
    5.7961   -8.4904    0.2773 H   0  0  0  0  0  0  0  0  0  0  0  0
    3.9746   -9.7974   -0.7576 H   0  0  0  0  0  0  0  0  0  0  0  0
    3.8314  -12.2634   -0.4019 H   0  0  0  0  0  0  0  0  0  0  0  0
    5.5427  -13.4103    1.0088 H   0  0  0  0  0  0  0  0  0  0  0  0
    7.3763  -12.0968    2.0501 H   0  0  0  0  0  0  0  0  0  0  0  0
    9.5097   -4.8830    0.2087 H   0  0  0  0  0  0  0  0  0  0  0  0
    7.8126   -3.2313   -0.5688 H   0  0  0  0  0  0  0  0  0  0  0  0
  1  2  2  0
  1 33  1  0
  1 34  1  0
  2  3  1  0
  2 35  1  0
  3  4  1  0
  3 36  1  0
  3 37  1  0
  4  5  1  0
  4 38  1  0
  5  6  2  0
  5  7  1  0
  7  8  1  0
  7 39  1  0
  7 40  1  0
  8  9  2  0
  8 32  1  0
  9 10  1  0
  9 41  1  0
 10 11  2  0
 10 42  1  0
 11 12  1  0
 11 31  1  0
 12 13  1  0
 12 21  1  0
 13 14  1  0
 13 43  1  0
 13 44  1  0
 14 15  2  0
 14 20  1  0
 15 16  1  0
 15 45  1  0
 16 17  2  0
 16 46  1  0
 17 18  1  0
 17 47  1  0
 18 19  1  0
 18 20  2  0
 19 48  1  0
 19 49  1  0
 19 50  1  0
 20 51  1  0
 21 22  2  0
 21 23  1  0
 23 24  2  0
 23 52  1  0
 24 25  1  0
 24 53  1  0
 25 26  2  0
 25 30  1  0
 26 27  1  0
 26 54  1  0
 27 28  2  0
 27 55  1  0
 28 29  1  0
 28 56  1  0
 29 30  2  0
 29 57  1  0
 30 58  1  0
 31 32  2  0
 31 59  1  0
 32 60  1  0
M  END

