
     RDKit          3D

 22 23  0  0  0  0  0  0  0  0999 V2000
    2.6361    1.4364   -0.2433 F   0  0  0  0  0  0  0  0  0  0  0  0
    2.2905    0.1380   -0.1577 C   0  0  1  0  0  0  0  0  0  0  0  0
    0.9547    0.0794   -0.2483 F   0  0  0  0  0  0  0  0  0  0  0  0
    2.8019   -0.4767   -1.2331 F   0  0  0  0  0  0  0  0  0  0  0  0
    2.7955   -0.4751    1.1347 C   0  0  0  0  0  0  0  0  0  0  0  0
    3.5177    0.3153    2.0232 C   0  0  0  0  0  0  0  0  0  0  0  0
    3.9984   -0.2320    3.2229 C   0  0  0  0  0  0  0  0  0  0  0  0
    4.6901    0.5957    4.0391 O   0  0  0  0  0  0  0  0  0  0  0  0
    5.1565    0.1043    5.2702 C   0  0  1  0  0  0  0  0  0  0  0  0
    6.4752   -0.6193    5.3157 C   0  0  0  0  0  0  0  0  0  0  0  0
    6.3525    0.7998    5.8282 C   0  0  0  0  0  0  0  0  0  0  0  0
    3.7228   -1.5824    3.4789 C   0  0  0  0  0  0  0  0  0  0  0  0
    3.0267   -2.3344    2.6223 N   0  0  0  0  0  0  0  0  0  0  0  0
    2.5764   -1.8239    1.5012 C   0  0  0  0  0  0  0  0  0  0  0  0
    1.5934   -3.0189    0.3721 Br  0  0  0  0  0  0  0  0  0  0  0  0
    3.7204    1.3634    1.8019 H   0  0  0  0  0  0  0  0  0  0  0  0
    4.3534   -0.2064    5.9503 H   0  0  0  0  0  0  0  0  0  0  0  0
    6.9939   -0.7641    4.3639 H   0  0  0  0  0  0  0  0  0  0  0  0
    6.5950   -1.4373    6.0320 H   0  0  0  0  0  0  0  0  0  0  0  0
    6.7805    1.5935    5.2102 H   0  0  0  0  0  0  0  0  0  0  0  0
    6.3875    0.9837    6.9051 H   0  0  0  0  0  0  0  0  0  0  0  0
    4.0745   -2.0734    4.3897 H   0  0  0  0  0  0  0  0  0  0  0  0
  2  1  1  6
  2  3  1  0
  2  4  1  0
  2  5  1  0
  5  6  2  0
  5 14  1  0
  6  7  1  0
  6 16  1  0
  7  8  1  0
  7 12  2  0
  8  9  1  0
  9 10  1  0
  9 11  1  0
  9 17  1  1
 10 11  1  0
 10 18  1  0
 10 19  1  0
 11 20  1  0
 11 21  1  0
 12 13  1  0
 12 22  1  0
 13 14  2  0
 14 15  1  0
M  END

