
     RDKit          3D

 48 51  0  0  0  0  0  0  0  0999 V2000
    5.5191   -1.8080   -1.6789 C   0  0  0  0  0  0  0  0  0  0  0  0
    4.6104   -0.9182   -0.8885 C   0  0  0  0  0  0  0  0  0  0  0  0
    4.8014    0.3798   -0.8936 N   0  0  0  0  0  0  0  0  0  0  0  0
    3.8062    0.9181   -0.0988 O   0  0  0  0  0  0  0  0  0  0  0  0
    3.0162   -0.0623    0.3747 C   0  0  0  0  0  0  0  0  0  0  0  0
    1.8988    0.3507    1.2675 C   0  0  0  0  0  0  0  0  0  0  0  0
    3.4649   -1.2775   -0.0880 C   0  0  0  0  0  0  0  0  0  0  0  0
    2.8966   -2.6199    0.1532 C   0  0  0  0  0  0  0  0  0  0  0  0
    1.5157   -2.8487    0.0192 C   0  0  0  0  0  0  0  0  0  0  0  0
    0.9179   -4.1090    0.2449 C   0  0  0  0  0  0  0  0  0  0  0  0
   -0.6049   -4.3564    0.0874 B   0  0  0  0  0  0  0  0  0  0  0  0
   -1.5169   -3.4111   -0.2888 O   0  0  0  0  0  0  0  0  0  0  0  0
   -2.8456   -3.9695   -0.1179 C   0  0  2  0  0  0  0  0  0  0  0  0
   -3.7332   -3.4680   -1.2534 C   0  0  0  0  0  0  0  0  0  0  0  0
   -3.3731   -3.4578    1.2277 C   0  0  0  0  0  0  0  0  0  0  0  0
   -2.5610   -5.5300   -0.1277 C   0  0  2  0  0  0  0  0  0  0  0  0
   -2.6000   -6.1464   -1.5307 C   0  0  0  0  0  0  0  0  0  0  0  0
   -3.4191   -6.3500    0.8312 C   0  0  0  0  0  0  0  0  0  0  0  0
   -1.1787   -5.5871    0.3194 O   0  0  0  0  0  0  0  0  0  0  0  0
    1.7852   -5.1455    0.6080 C   0  0  0  0  0  0  0  0  0  0  0  0
    1.5469   -6.4765    0.8965 N   0  0  0  0  0  0  0  0  0  0  0  0
    0.6337   -6.9159    0.8806 H   0  0  0  0  0  0  0  0  0  0  0  0
    2.7266   -7.1479    1.2162 C   0  0  0  0  0  0  0  0  0  0  0  0
    2.8670   -8.3124    1.5156 O   0  0  0  0  0  0  0  0  0  0  0  0
    3.7191   -6.1669    1.1122 N   0  0  0  0  0  0  0  0  0  0  0  0
    4.6913   -6.3763    1.2950 H   0  0  0  0  0  0  0  0  0  0  0  0
    3.1796   -4.9422    0.7434 C   0  0  0  0  0  0  0  0  0  0  0  0
    3.7434   -3.6939    0.5229 C   0  0  0  0  0  0  0  0  0  0  0  0
    6.1354   -1.1991   -2.3545 H   0  0  0  0  0  0  0  0  0  0  0  0
    4.9425   -2.5344   -2.2720 H   0  0  0  0  0  0  0  0  0  0  0  0
    6.1961   -2.3807   -1.0244 H   0  0  0  0  0  0  0  0  0  0  0  0
    2.2506    1.0929    2.0010 H   0  0  0  0  0  0  0  0  0  0  0  0
    1.4935   -0.5191    1.8014 H   0  0  0  0  0  0  0  0  0  0  0  0
    1.0785    0.8160    0.6951 H   0  0  0  0  0  0  0  0  0  0  0  0
    0.8724   -2.0236   -0.2933 H   0  0  0  0  0  0  0  0  0  0  0  0
   -3.8571   -2.3779   -1.1694 H   0  0  0  0  0  0  0  0  0  0  0  0
   -4.7324   -3.9285   -1.2047 H   0  0  0  0  0  0  0  0  0  0  0  0
   -3.2955   -3.6803   -2.2374 H   0  0  0  0  0  0  0  0  0  0  0  0
   -3.3481   -2.3580    1.2235 H   0  0  0  0  0  0  0  0  0  0  0  0
   -2.7501   -3.8063    2.0647 H   0  0  0  0  0  0  0  0  0  0  0  0
   -4.4098   -3.7789    1.4076 H   0  0  0  0  0  0  0  0  0  0  0  0
   -3.6267   -6.2029   -1.9218 H   0  0  0  0  0  0  0  0  0  0  0  0
   -2.1937   -7.1678   -1.4842 H   0  0  0  0  0  0  0  0  0  0  0  0
   -1.9880   -5.5714   -2.2411 H   0  0  0  0  0  0  0  0  0  0  0  0
   -4.4859   -6.2674    0.5713 H   0  0  0  0  0  0  0  0  0  0  0  0
   -3.2863   -6.0307    1.8730 H   0  0  0  0  0  0  0  0  0  0  0  0
   -3.1374   -7.4120    0.7656 H   0  0  0  0  0  0  0  0  0  0  0  0
    4.8155   -3.5349    0.6511 H   0  0  0  0  0  0  0  0  0  0  0  0
  1  2  1  0
  1 29  1  0
  1 30  1  0
  1 31  1  0
  2  3  2  0
  2  7  1  0
  3  4  1  0
  4  5  1  0
  5  6  1  0
  5  7  2  0
  6 32  1  0
  6 33  1  0
  6 34  1  0
  7  8  1  0
  8  9  2  0
  8 28  1  0
  9 10  1  0
  9 35  1  0
 10 11  1  0
 10 20  2  0
 11 12  1  0
 11 19  1  0
 12 13  1  0
 13 14  1  6
 13 15  1  0
 13 16  1  0
 14 36  1  0
 14 37  1  0
 14 38  1  0
 15 39  1  0
 15 40  1  0
 15 41  1  0
 16 17  1  6
 16 18  1  0
 16 19  1  0
 17 42  1  0
 17 43  1  0
 17 44  1  0
 18 45  1  0
 18 46  1  0
 18 47  1  0
 20 21  1  0
 20 27  1  0
 21 22  1  0
 21 23  1  0
 23 24  2  0
 23 25  1  0
 25 26  1  0
 25 27  1  0
 27 28  2  0
 28 48  1  0
M  END

