
     RDKit          3D

 44 45  0  0  0  0  0  0  0  0999 V2000
    6.0101    0.6331    0.3267 C   0  0  0  0  0  0  0  0  0  0  0  0
    4.5652    0.8442   -0.1241 C   0  0  0  0  0  0  0  0  0  0  0  0
    4.2279    0.1976   -1.4711 C   0  0  0  0  0  0  0  0  0  0  0  0
    4.2097   -1.2761   -1.4284 N   0  0  0  0  0  0  0  0  0  0  0  0
    2.9804   -1.9018   -0.8839 C   0  0  0  0  0  0  0  0  0  0  0  0
    3.2162   -3.0362    0.1168 C   0  0  0  0  0  0  0  0  0  0  0  0
    3.9369   -2.6256    1.4001 C   0  0  0  0  0  0  0  0  0  0  0  0
    4.8336   -2.0272   -2.8216 S   0  0  1  0  0  0  0  0  0  0  0  0
    4.4329   -3.4345   -2.7402 O   0  0  0  0  0  0  0  0  0  0  0  0
    4.5098   -1.2414   -4.0203 O   0  0  0  0  0  0  0  0  0  0  0  0
    6.5976   -1.9403   -2.5666 C   0  0  0  0  0  0  0  0  0  0  0  0
    7.2133   -2.7303   -1.5509 C   0  0  0  0  0  0  0  0  0  0  0  0
    8.5793   -2.5732   -1.5167 C   0  0  0  0  0  0  0  0  0  0  0  0
    9.5715   -3.1828   -0.6498 C   0  0  0  0  0  0  0  0  0  0  0  0
   10.8519   -2.9319   -0.7216 N   0  0  0  0  0  0  0  0  0  0  0  0
   11.5741   -3.6361    0.2092 C   0  0  0  0  0  0  0  0  0  0  0  0
   13.0635   -3.4709    0.2685 C   0  0  0  0  0  0  0  0  0  0  0  0
   10.8185   -4.4509    1.0193 C   0  0  0  0  0  0  0  0  0  0  0  0
    9.1415   -4.3387    0.6061 S   0  0  0  0  0  0  0  0  0  0  0  0
    9.1050   -1.4555   -2.7540 S   0  0  0  0  0  0  0  0  0  0  0  0
    7.4846   -1.1936   -3.3234 C   0  0  0  0  0  0  0  0  0  0  0  0
    7.2551   -0.2578   -4.4733 C   0  0  0  0  0  0  0  0  0  0  0  0
    6.1914    1.0865    1.3140 H   0  0  0  0  0  0  0  0  0  0  0  0
    6.7203    1.0862   -0.3847 H   0  0  0  0  0  0  0  0  0  0  0  0
    6.2548   -0.4375    0.3961 H   0  0  0  0  0  0  0  0  0  0  0  0
    4.3573    1.9247   -0.2182 H   0  0  0  0  0  0  0  0  0  0  0  0
    3.8691    0.4731    0.6479 H   0  0  0  0  0  0  0  0  0  0  0  0
    4.9737    0.5102   -2.2169 H   0  0  0  0  0  0  0  0  0  0  0  0
    3.2569    0.5727   -1.8452 H   0  0  0  0  0  0  0  0  0  0  0  0
    2.3393   -2.2658   -1.7047 H   0  0  0  0  0  0  0  0  0  0  0  0
    2.4229   -1.0889   -0.3914 H   0  0  0  0  0  0  0  0  0  0  0  0
    3.7631   -3.8430   -0.3941 H   0  0  0  0  0  0  0  0  0  0  0  0
    2.2242   -3.4529    0.3673 H   0  0  0  0  0  0  0  0  0  0  0  0
    4.9399   -2.2236    1.1886 H   0  0  0  0  0  0  0  0  0  0  0  0
    4.0595   -3.4862    2.0767 H   0  0  0  0  0  0  0  0  0  0  0  0
    3.3779   -1.8499    1.9511 H   0  0  0  0  0  0  0  0  0  0  0  0
    6.6557   -3.3917   -0.8876 H   0  0  0  0  0  0  0  0  0  0  0  0
   13.5216   -3.7505   -0.6941 H   0  0  0  0  0  0  0  0  0  0  0  0
   13.5068   -4.0910    1.0601 H   0  0  0  0  0  0  0  0  0  0  0  0
   13.3283   -2.4179    0.4575 H   0  0  0  0  0  0  0  0  0  0  0  0
   11.1562   -5.1020    1.8235 H   0  0  0  0  0  0  0  0  0  0  0  0
    8.2005   -0.0319   -4.9873 H   0  0  0  0  0  0  0  0  0  0  0  0
    6.8207    0.6962   -4.1303 H   0  0  0  0  0  0  0  0  0  0  0  0
    6.5426   -0.6907   -5.1874 H   0  0  0  0  0  0  0  0  0  0  0  0
  1  2  1  0
  1 23  1  0
  1 24  1  0
  1 25  1  0
  2  3  1  0
  2 26  1  0
  2 27  1  0
  3  4  1  0
  3 28  1  0
  3 29  1  0
  4  5  1  0
  8  4  1  1
  5  6  1  0
  5 30  1  0
  5 31  1  0
  6  7  1  0
  6 32  1  0
  6 33  1  0
  7 34  1  0
  7 35  1  0
  7 36  1  0
  8  9  2  0
  8 10  2  0
  8 11  1  0
 11 12  1  0
 11 21  2  0
 12 13  2  0
 12 37  1  0
 13 14  1  0
 13 20  1  0
 14 15  2  0
 14 19  1  0
 15 16  1  0
 16 17  1  0
 16 18  2  0
 17 38  1  0
 17 39  1  0
 17 40  1  0
 18 19  1  0
 18 41  1  0
 20 21  1  0
 21 22  1  0
 22 42  1  0
 22 43  1  0
 22 44  1  0
M  END

