
     RDKit          3D

 52 52  0  0  0  0  0  0  0  0999 V2000
    5.9976    4.1679   -2.6818 C   0  0  0  0  0  0  0  0  0  0  0  0
    5.6521    3.8017   -1.4425 C   0  0  0  0  0  0  0  0  0  0  0  0
    5.4043    2.3677   -1.0780 C   0  0  0  0  0  0  0  0  0  0  0  0
    6.5646    1.7084   -0.4674 O   0  0  0  0  0  0  0  0  0  0  0  0
    7.0056    1.9994    0.7299 C   0  0  0  0  0  0  0  0  0  0  0  0
    6.5331    2.8348    1.5122 O   0  0  0  0  0  0  0  0  0  0  0  0
    8.1062    1.2410    1.0242 N   0  0  0  0  0  0  0  0  0  0  0  0
    8.7665    1.1924    2.3156 C   0  0  1  0  0  0  0  0  0  0  0  0
    8.1146    1.7141    3.0276 H   0  0  0  0  0  0  0  0  0  0  0  0
    8.9821   -0.2431    2.7920 C   0  0  0  0  0  0  0  0  0  0  0  0
   10.1245    1.9159    2.1766 C   0  0  0  0  0  0  0  0  0  0  0  0
   11.1629    1.3254    2.0241 O   0  0  0  0  0  0  0  0  0  0  0  0
   10.1289    3.3421    2.1410 N   0  0  0  0  0  0  0  0  0  0  0  0
    9.0699    4.2049    2.6489 C   0  0  0  0  0  0  0  0  0  0  0  0
    8.6382    5.2121    1.5598 C   0  0  0  0  0  0  0  0  0  0  0  0
    9.4931    5.8963    1.0378 O   0  0  0  0  0  0  0  0  0  0  0  0
    7.3640    5.3007    1.2875 O   0  0  0  0  0  0  0  0  0  0  0  0
   11.5256    4.1323    1.5762 S   0  0  0  0  0  0  0  0  0  0  0  0
   11.8028    3.4053   -0.0931 C   0  0  0  0  0  0  0  0  0  0  0  0
   10.6425    3.6696   -1.0557 C   0  0  0  0  0  0  0  0  0  0  0  0
   10.6181    2.7760   -2.2856 C   0  0  0  0  0  0  0  0  0  0  0  0
    9.4117    2.2827   -2.7165 C   0  0  0  0  0  0  0  0  0  0  0  0
    9.3122    1.5003   -3.9113 C   0  0  0  0  0  0  0  0  0  0  0  0
    8.0281    1.0178   -4.3654 C   0  0  0  0  0  0  0  0  0  0  0  0
    6.9467    1.2470   -3.8104 O   0  0  0  0  0  0  0  0  0  0  0  0
    8.0619    0.2706   -5.5049 O   0  0  0  0  0  0  0  0  0  0  0  0
   10.4547    1.2114   -4.6392 N   0  0  0  0  0  0  0  0  0  0  0  0
   11.6158    1.7051   -4.2073 C   0  0  0  0  0  0  0  0  0  0  0  0
   12.8210    1.3540   -5.0540 C   0  0  0  0  0  0  0  0  0  0  0  0
   13.9494    1.7050   -4.8056 O   0  0  0  0  0  0  0  0  0  0  0  0
   12.5039    0.6047   -6.1139 O   0  0  0  0  0  0  0  0  0  0  0  0
   11.7861    2.4924   -3.0662 C   0  0  0  0  0  0  0  0  0  0  0  0
    6.1547    5.2212   -2.9328 H   0  0  0  0  0  0  0  0  0  0  0  0
    6.1528    3.4160   -3.4632 H   0  0  0  0  0  0  0  0  0  0  0  0
    5.5196    4.5548   -0.6590 H   0  0  0  0  0  0  0  0  0  0  0  0
    5.2504    1.7576   -1.9748 H   0  0  0  0  0  0  0  0  0  0  0  0
    4.5633    2.2592   -0.3763 H   0  0  0  0  0  0  0  0  0  0  0  0
    8.4083    0.5956    0.2985 H   0  0  0  0  0  0  0  0  0  0  0  0
    8.0106   -0.7498    2.8731 H   0  0  0  0  0  0  0  0  0  0  0  0
    9.4729   -0.2581    3.7760 H   0  0  0  0  0  0  0  0  0  0  0  0
    9.6229   -0.7981    2.0921 H   0  0  0  0  0  0  0  0  0  0  0  0
    9.4353    4.8141    3.4945 H   0  0  0  0  0  0  0  0  0  0  0  0
    8.2335    3.5945    2.9933 H   0  0  0  0  0  0  0  0  0  0  0  0
    6.8842    4.4458    1.4964 H   0  0  0  0  0  0  0  0  0  0  0  0
   12.0152    2.3415    0.0671 H   0  0  0  0  0  0  0  0  0  0  0  0
   12.7438    3.8929   -0.3938 H   0  0  0  0  0  0  0  0  0  0  0  0
   10.6530    4.7350   -1.3422 H   0  0  0  0  0  0  0  0  0  0  0  0
    9.6942    3.5119   -0.5246 H   0  0  0  0  0  0  0  0  0  0  0  0
    8.4855    2.4782   -2.1775 H   0  0  0  0  0  0  0  0  0  0  0  0
    8.9993    0.2320   -5.7649 H   0  0  0  0  0  0  0  0  0  0  0  0
   11.5277    0.4892   -6.0395 H   0  0  0  0  0  0  0  0  0  0  0  0
   12.7875    2.8428   -2.8235 H   0  0  0  0  0  0  0  0  0  0  0  0
  1  2  2  0
  1 33  1  0
  1 34  1  0
  2  3  1  0
  2 35  1  0
  3  4  1  0
  3 36  1  0
  3 37  1  0
  4  5  1  0
  5  6  2  0
  5  7  1  0
  7  8  1  0
  7 38  1  0
  8  9  1  1
  8 10  1  0
  8 11  1  0
 10 39  1  0
 10 40  1  0
 10 41  1  0
 11 12  2  0
 11 13  1  0
 13 14  1  0
 13 18  1  0
 14 15  1  0
 14 42  1  0
 14 43  1  0
 15 16  2  0
 15 17  1  0
 17 44  1  0
 18 19  1  0
 19 20  1  0
 19 45  1  0
 19 46  1  0
 20 21  1  0
 20 47  1  0
 20 48  1  0
 21 22  2  0
 21 32  1  0
 22 23  1  0
 22 49  1  0
 23 24  1  0
 23 27  2  0
 24 25  2  0
 24 26  1  0
 26 50  1  0
 27 28  1  0
 28 29  1  0
 28 32  2  0
 29 30  2  0
 29 31  1  0
 31 51  1  0
 32 52  1  0
M  END

