
     RDKit          3D

 47 48  0  0  0  0  0  0  0  0999 V2000
    4.2503    1.8186    5.1683 C   0  0  0  0  0  0  0  0  0  0  0  0
    5.3492    0.7836    5.4150 C   0  0  0  0  0  0  0  0  0  0  0  0
    6.0189    0.2906    4.1286 C   0  0  0  0  0  0  0  0  0  0  0  0
    7.1327   -0.7481    4.3860 C   0  0  0  0  0  0  0  0  0  0  0  0
    7.8336   -1.2381    3.1338 C   0  0  0  0  0  0  0  0  0  0  0  0
    8.5220   -0.3408    2.4803 O   0  0  0  0  0  0  0  0  0  0  0  0
    7.2136   -2.3319    2.2809 C   0  0  0  0  0  0  0  0  0  0  0  0
    7.5094   -3.7740    2.7818 C   0  0  1  0  0  0  0  0  0  0  0  0
    6.6067   -4.6744    2.0833 N   0  0  0  0  0  0  0  0  0  0  0  0
    6.5423   -6.0433    2.5721 C   0  0  0  0  0  0  0  0  0  0  0  0
    5.4871   -6.8632    1.8546 C   0  0  0  0  0  0  0  0  0  0  0  0
    5.7150   -8.2161    1.5620 C   0  0  0  0  0  0  0  0  0  0  0  0
    4.7333   -8.9896    0.9352 C   0  0  0  0  0  0  0  0  0  0  0  0
    3.5084   -8.4162    0.5829 C   0  0  0  0  0  0  0  0  0  0  0  0
    3.2734   -7.0660    0.8630 C   0  0  0  0  0  0  0  0  0  0  0  0
    4.2538   -6.2967    1.4945 C   0  0  0  0  0  0  0  0  0  0  0  0
    8.9987   -4.1122    2.6908 C   0  0  0  0  0  0  0  0  0  0  0  0
    9.8403   -3.9109    3.7950 C   0  0  0  0  0  0  0  0  0  0  0  0
   11.2111   -4.1728    3.7126 C   0  0  0  0  0  0  0  0  0  0  0  0
   11.7643   -4.6450    2.5192 C   0  0  0  0  0  0  0  0  0  0  0  0
   10.9367   -4.8541    1.4120 C   0  0  0  0  0  0  0  0  0  0  0  0
    9.5669   -4.5893    1.5002 C   0  0  0  0  0  0  0  0  0  0  0  0
    3.7923    2.1545    6.1124 H   0  0  0  0  0  0  0  0  0  0  0  0
    3.4459    1.4065    4.5362 H   0  0  0  0  0  0  0  0  0  0  0  0
    4.6484    2.7096    4.6550 H   0  0  0  0  0  0  0  0  0  0  0  0
    4.9275   -0.0798    5.9619 H   0  0  0  0  0  0  0  0  0  0  0  0
    6.1192    1.2131    6.0815 H   0  0  0  0  0  0  0  0  0  0  0  0
    6.4522    1.1435    3.5794 H   0  0  0  0  0  0  0  0  0  0  0  0
    5.2562   -0.1489    3.4608 H   0  0  0  0  0  0  0  0  0  0  0  0
    6.7158   -1.6320    4.8984 H   0  0  0  0  0  0  0  0  0  0  0  0
    7.8828   -0.3070    5.0666 H   0  0  0  0  0  0  0  0  0  0  0  0
    7.5843   -2.2278    1.2484 H   0  0  0  0  0  0  0  0  0  0  0  0
    6.1122   -2.2170    2.2446 H   0  0  0  0  0  0  0  0  0  0  0  0
    7.2296   -3.8168    3.8491 H   0  0  0  0  0  0  0  0  0  0  0  0
    6.7548   -4.6533    1.0752 H   0  0  0  0  0  0  0  0  0  0  0  0
    6.2946   -5.9958    3.6499 H   0  0  0  0  0  0  0  0  0  0  0  0
    7.5146   -6.5754    2.5129 H   0  0  0  0  0  0  0  0  0  0  0  0
    6.6752   -8.6691    1.8266 H   0  0  0  0  0  0  0  0  0  0  0  0
    4.9297  -10.0423    0.7149 H   0  0  0  0  0  0  0  0  0  0  0  0
    2.7413   -9.0176    0.0881 H   0  0  0  0  0  0  0  0  0  0  0  0
    2.3188   -6.6091    0.5881 H   0  0  0  0  0  0  0  0  0  0  0  0
    4.0772   -5.2405    1.7093 H   0  0  0  0  0  0  0  0  0  0  0  0
    9.4146   -3.5434    4.7328 H   0  0  0  0  0  0  0  0  0  0  0  0
   11.8489   -4.0088    4.5852 H   0  0  0  0  0  0  0  0  0  0  0  0
   12.8354   -4.8523    2.4526 H   0  0  0  0  0  0  0  0  0  0  0  0
   11.3585   -5.2260    0.4745 H   0  0  0  0  0  0  0  0  0  0  0  0
    8.9348   -4.7619    0.6240 H   0  0  0  0  0  0  0  0  0  0  0  0
  1  2  1  0
  1 23  1  0
  1 24  1  0
  1 25  1  0
  2  3  1  0
  2 26  1  0
  2 27  1  0
  3  4  1  0
  3 28  1  0
  3 29  1  0
  4  5  1  0
  4 30  1  0
  4 31  1  0
  5  6  2  0
  5  7  1  0
  7  8  1  0
  7 32  1  0
  7 33  1  0
  8  9  1  0
  8 17  1  0
  8 34  1  1
  9 10  1  0
  9 35  1  0
 10 11  1  0
 10 36  1  0
 10 37  1  0
 11 12  2  0
 11 16  1  0
 12 13  1  0
 12 38  1  0
 13 14  2  0
 13 39  1  0
 14 15  1  0
 14 40  1  0
 15 16  2  0
 15 41  1  0
 16 42  1  0
 17 18  2  0
 17 22  1  0
 18 19  1  0
 18 43  1  0
 19 20  2  0
 19 44  1  0
 20 21  1  0
 20 45  1  0
 21 22  2  0
 21 46  1  0
 22 47  1  0
M  END

