
     RDKit          3D

 54 56  0  0  0  0  0  0  0  0999 V2000
    1.1909    2.1601    1.5802 C   0  0  0  0  0  0  0  0  0  0  0  0
    2.6736    2.1171    1.2172 C   0  0  0  0  0  0  0  0  0  0  0  0
    3.1326    0.8122    0.7335 N   0  0  0  0  0  0  0  0  0  0  0  0
    2.4023    0.3063   -0.4375 C   0  0  0  0  0  0  0  0  0  0  0  0
    2.5428    1.0986   -1.7452 C   0  0  0  0  0  0  0  0  0  0  0  0
    4.5794    0.7272    0.6201 C   0  0  1  0  0  0  0  0  0  0  0  0
    5.3482    1.0013    1.9329 C   0  0  0  0  0  0  0  0  0  0  0  0
    6.6966    0.3143    1.7068 C   0  0  0  0  0  0  0  0  0  0  0  0
    6.3867   -0.7744    0.8150 N   0  0  0  0  0  0  0  0  0  0  0  0
    7.3162   -1.8476    0.4942 C   0  0  0  0  0  0  0  0  0  0  0  0
    8.4133   -1.8098    1.2150 N   0  0  0  0  0  0  0  0  0  0  0  0
    9.3009   -2.8135    0.9023 C   0  0  0  0  0  0  0  0  0  0  0  0
   10.5893   -2.8094    1.6917 C   0  0  0  0  0  0  0  0  0  0  0  0
   11.3690   -4.0228    1.5131 N   0  0  0  0  0  0  0  0  0  0  0  0
    9.0129   -3.7418   -0.0747 C   0  0  0  0  0  0  0  0  0  0  0  0
    7.7688   -3.6955   -0.7821 C   0  0  0  0  0  0  0  0  0  0  0  0
    7.3808   -4.6280   -1.7951 C   0  0  0  0  0  0  0  0  0  0  0  0
    8.2233   -5.7079   -2.2210 C   0  0  0  0  0  0  0  0  0  0  0  0
    7.8231   -6.5933   -3.2027 C   0  0  0  0  0  0  0  0  0  0  0  0
    6.5614   -6.4655   -3.8286 C   0  0  0  0  0  0  0  0  0  0  0  0
    6.1098   -7.4644   -4.8376 C   0  0  1  0  0  0  0  0  0  0  0  0
    7.1375   -7.9768   -5.5510 F   0  0  0  0  0  0  0  0  0  0  0  0
    5.4790   -8.5349   -4.2844 F   0  0  0  0  0  0  0  0  0  0  0  0
    5.2319   -6.9418   -5.7233 F   0  0  0  0  0  0  0  0  0  0  0  0
    5.7148   -5.4089   -3.4255 C   0  0  0  0  0  0  0  0  0  0  0  0
    6.1076   -4.5176   -2.4453 C   0  0  0  0  0  0  0  0  0  0  0  0
    6.9054   -2.6560   -0.4426 N   0  0  0  0  0  0  0  0  0  0  0  0
    5.0631   -0.6936    0.2693 C   0  0  0  0  0  0  0  0  0  0  0  0
    0.9609    3.1101    2.0869 H   0  0  0  0  0  0  0  0  0  0  0  0
    0.9350    1.3346    2.2630 H   0  0  0  0  0  0  0  0  0  0  0  0
    0.5326    2.0949    0.7007 H   0  0  0  0  0  0  0  0  0  0  0  0
    3.2477    2.3548    2.1251 H   0  0  0  0  0  0  0  0  0  0  0  0
    2.9018    2.9333    0.4946 H   0  0  0  0  0  0  0  0  0  0  0  0
    1.3389    0.2438   -0.1631 H   0  0  0  0  0  0  0  0  0  0  0  0
    2.7080   -0.7371   -0.6118 H   0  0  0  0  0  0  0  0  0  0  0  0
    2.1787    2.1335   -1.6465 H   0  0  0  0  0  0  0  0  0  0  0  0
    1.9507    0.6163   -2.5388 H   0  0  0  0  0  0  0  0  0  0  0  0
    3.5857    1.1430   -2.0988 H   0  0  0  0  0  0  0  0  0  0  0  0
    4.9847    1.4217   -0.1534 H   0  0  0  0  0  0  0  0  0  0  0  0
    4.8082    0.5252    2.7676 H   0  0  0  0  0  0  0  0  0  0  0  0
    5.4708    2.0676    2.1625 H   0  0  0  0  0  0  0  0  0  0  0  0
    7.2137   -0.0693    2.5994 H   0  0  0  0  0  0  0  0  0  0  0  0
    7.4353    0.9769    1.2096 H   0  0  0  0  0  0  0  0  0  0  0  0
   10.3215   -2.5663    2.7430 H   0  0  0  0  0  0  0  0  0  0  0  0
   11.1942   -1.9509    1.3438 H   0  0  0  0  0  0  0  0  0  0  0  0
   10.9387   -4.8051    2.0074 H   0  0  0  0  0  0  0  0  0  0  0  0
   12.3060   -3.9110    1.8956 H   0  0  0  0  0  0  0  0  0  0  0  0
    9.7603   -4.5047   -0.2867 H   0  0  0  0  0  0  0  0  0  0  0  0
    9.2098   -5.8427   -1.7745 H   0  0  0  0  0  0  0  0  0  0  0  0
    8.4942   -7.3989   -3.5083 H   0  0  0  0  0  0  0  0  0  0  0  0
    4.7395   -5.2932   -3.9035 H   0  0  0  0  0  0  0  0  0  0  0  0
    5.4431   -3.7066   -2.1503 H   0  0  0  0  0  0  0  0  0  0  0  0
    4.4210   -1.4513    0.7699 H   0  0  0  0  0  0  0  0  0  0  0  0
    5.0877   -0.9764   -0.7930 H   0  0  0  0  0  0  0  0  0  0  0  0
  1  2  1  0
  1 29  1  0
  1 30  1  0
  1 31  1  0
  2  3  1  0
  2 32  1  0
  2 33  1  0
  3  4  1  0
  3  6  1  0
  4  5  1  0
  4 34  1  0
  4 35  1  0
  5 36  1  0
  5 37  1  0
  5 38  1  0
  6  7  1  0
  6 28  1  0
  6 39  1  6
  7  8  1  0
  7 40  1  0
  7 41  1  0
  8  9  1  0
  8 42  1  0
  8 43  1  0
  9 10  1  0
  9 28  1  0
 10 11  2  0
 10 27  1  0
 11 12  1  0
 12 13  1  0
 12 15  2  0
 13 14  1  0
 13 44  1  0
 13 45  1  0
 14 46  1  0
 14 47  1  0
 15 16  1  0
 15 48  1  0
 16 17  1  0
 16 27  2  0
 17 18  2  0
 17 26  1  0
 18 19  1  0
 18 49  1  0
 19 20  2  0
 19 50  1  0
 20 21  1  0
 20 25  1  0
 21 22  1  6
 21 23  1  0
 21 24  1  0
 25 26  2  0
 25 51  1  0
 26 52  1  0
 28 53  1  0
 28 54  1  0
M  END

