
     RDKit          3D

 48 50  0  0  0  0  0  0  0  0999 V2000
    3.7246    2.4614    2.3400 C   0  0  0  0  0  0  0  0  0  0  0  0
    2.9694    1.4725    1.4519 C   0  0  0  0  0  0  0  0  0  0  0  0
    3.2443    1.6427   -0.0565 C   0  0  0  0  0  0  0  0  0  0  0  0
    4.6500    1.3238   -0.4686 C   0  0  0  0  0  0  0  0  0  0  0  0
    5.5537    2.2743   -0.7237 N   0  0  0  0  0  0  0  0  0  0  0  0
    6.7029    1.6720   -1.0478 N   0  0  0  0  0  0  0  0  0  0  0  0
    7.8784    2.4466   -1.3933 C   0  0  0  0  0  0  0  0  0  0  0  0
    6.5700    0.3122   -1.0099 C   0  0  0  0  0  0  0  0  0  0  0  0
    7.5052   -0.7511   -1.2720 C   0  0  0  0  0  0  0  0  0  0  0  0
    8.6820   -0.6934   -1.5966 O   0  0  0  0  0  0  0  0  0  0  0  0
    6.8700   -2.0007   -1.0913 N   0  0  0  0  0  0  0  0  0  0  0  0
    7.4928   -2.7885   -1.2340 H   0  0  0  0  0  0  0  0  0  0  0  0
    5.5450   -2.2068   -0.7267 C   0  0  0  0  0  0  0  0  0  0  0  0
    5.1358   -3.5132   -0.6157 N   0  0  0  0  0  0  0  0  0  0  0  0
    5.9984   -4.6228   -0.9690 C   0  0  0  0  0  0  0  0  0  0  0  0
    3.8056   -3.8171   -0.0782 C   0  0  0  0  0  0  0  0  0  0  0  0
    2.8502   -4.3957   -1.1018 C   0  0  0  0  0  0  0  0  0  0  0  0
    2.4360   -3.6280   -2.2087 C   0  0  0  0  0  0  0  0  0  0  0  0
    1.5610   -4.1473   -3.1535 C   0  0  0  0  0  0  0  0  0  0  0  0
    1.0648   -5.4590   -3.0211 C   0  0  0  0  0  0  0  0  0  0  0  0
    0.2152   -5.8763   -3.9932 O   0  0  0  0  0  0  0  0  0  0  0  0
   -0.3288   -7.1744   -3.9235 C   0  0  0  0  0  0  0  0  0  0  0  0
    1.4634   -6.2348   -1.9245 C   0  0  0  0  0  0  0  0  0  0  0  0
    2.3506   -5.6951   -0.9823 C   0  0  0  0  0  0  0  0  0  0  0  0
    4.7213   -1.2170   -0.4987 N   0  0  0  0  0  0  0  0  0  0  0  0
    5.2474    0.0381   -0.6348 C   0  0  0  0  0  0  0  0  0  0  0  0
    3.5040    2.2896    3.4060 H   0  0  0  0  0  0  0  0  0  0  0  0
    3.4471    3.5025    2.1041 H   0  0  0  0  0  0  0  0  0  0  0  0
    4.8146    2.3770    2.2040 H   0  0  0  0  0  0  0  0  0  0  0  0
    1.8834    1.5825    1.6194 H   0  0  0  0  0  0  0  0  0  0  0  0
    3.2194    0.4375    1.7434 H   0  0  0  0  0  0  0  0  0  0  0  0
    3.0221    2.6785   -0.3606 H   0  0  0  0  0  0  0  0  0  0  0  0
    2.5587    0.9839   -0.6152 H   0  0  0  0  0  0  0  0  0  0  0  0
    8.1580    3.1048   -0.5564 H   0  0  0  0  0  0  0  0  0  0  0  0
    7.6777    3.0690   -2.2793 H   0  0  0  0  0  0  0  0  0  0  0  0
    8.6964    1.7477   -1.6078 H   0  0  0  0  0  0  0  0  0  0  0  0
    6.4655   -4.4837   -1.9589 H   0  0  0  0  0  0  0  0  0  0  0  0
    5.3901   -5.5342   -1.0382 H   0  0  0  0  0  0  0  0  0  0  0  0
    6.7973   -4.8035   -0.2231 H   0  0  0  0  0  0  0  0  0  0  0  0
    3.4124   -2.8744    0.3220 H   0  0  0  0  0  0  0  0  0  0  0  0
    3.9172   -4.5223    0.7642 H   0  0  0  0  0  0  0  0  0  0  0  0
    2.8044   -2.6043   -2.3168 H   0  0  0  0  0  0  0  0  0  0  0  0
    1.2327   -3.5557   -4.0107 H   0  0  0  0  0  0  0  0  0  0  0  0
   -0.9804   -7.2890   -4.8003 H   0  0  0  0  0  0  0  0  0  0  0  0
   -0.9320   -7.3198   -3.0089 H   0  0  0  0  0  0  0  0  0  0  0  0
    0.4554   -7.9526   -3.9576 H   0  0  0  0  0  0  0  0  0  0  0  0
    1.0967   -7.2527   -1.7905 H   0  0  0  0  0  0  0  0  0  0  0  0
    2.6494   -6.3114   -0.1285 H   0  0  0  0  0  0  0  0  0  0  0  0
  1  2  1  0
  1 27  1  0
  1 28  1  0
  1 29  1  0
  2  3  1  0
  2 30  1  0
  2 31  1  0
  3  4  1  0
  3 32  1  0
  3 33  1  0
  4  5  2  0
  4 26  1  0
  5  6  1  0
  6  7  1  0
  6  8  1  0
  7 34  1  0
  7 35  1  0
  7 36  1  0
  8  9  1  0
  8 26  2  0
  9 10  2  0
  9 11  1  0
 11 12  1  0
 11 13  1  0
 13 14  1  0
 13 25  2  0
 14 15  1  0
 14 16  1  0
 15 37  1  0
 15 38  1  0
 15 39  1  0
 16 17  1  0
 16 40  1  0
 16 41  1  0
 17 18  2  0
 17 24  1  0
 18 19  1  0
 18 42  1  0
 19 20  2  0
 19 43  1  0
 20 21  1  0
 20 23  1  0
 21 22  1  0
 22 44  1  0
 22 45  1  0
 22 46  1  0
 23 24  2  0
 23 47  1  0
 24 48  1  0
 25 26  1  0
M  END

