
     RDKit          3D

 98107  0  0  0  0  0  0  0  0999 V2000
    0.6003   -0.6582    0.5579 C   0  0  0  0  0  0  0  0  0  0  0  0
    2.0909   -0.3260    0.3637 C   0  0  1  0  0  0  0  0  0  0  0  0
    2.9202   -1.5612    0.7861 C   0  0  0  0  0  0  0  0  0  0  0  0
    2.3308   -0.0354   -1.1364 C   0  0  0  0  0  0  0  0  0  0  0  0
    2.5290    0.8947    1.1950 C   0  0  0  0  0  0  0  0  0  0  0  0
    1.6499    1.6201    2.0151 C   0  0  0  0  0  0  0  0  0  0  0  0
    2.0784    2.7312    2.7474 C   0  0  0  0  0  0  0  0  0  0  0  0
    3.4135    3.1669    2.7032 C   0  0  0  0  0  0  0  0  0  0  0  0
    3.8695    4.3525    3.4775 C   0  0  0  0  0  0  0  0  0  0  0  0
    4.8015    4.1864    4.5546 C   0  0  0  0  0  0  0  0  0  0  0  0
    5.2820    2.9094    4.9336 C   0  0  0  0  0  0  0  0  0  0  0  0
    6.2217    2.7610    5.9625 C   0  0  0  0  0  0  0  0  0  0  0  0
    6.6660    3.8605    6.6775 C   0  0  0  0  0  0  0  0  0  0  0  0
    6.1603    5.1654    6.3974 C   0  0  0  0  0  0  0  0  0  0  0  0
    6.5508    6.3166    7.1658 C   0  0  0  0  0  0  0  0  0  0  0  0
    7.4138    6.2111    8.3760 C   0  0  0  0  0  0  0  0  0  0  0  0
    8.5728    7.0011    8.4950 C   0  0  0  0  0  0  0  0  0  0  0  0
    9.3643    6.9493    9.6450 C   0  0  0  0  0  0  0  0  0  0  0  0
    9.0104    6.1107   10.7058 C   0  0  0  0  0  0  0  0  0  0  0  0
    7.8569    5.3260   10.6070 C   0  0  0  0  0  0  0  0  0  0  0  0
    7.0683    5.3743    9.4556 C   0  0  0  0  0  0  0  0  0  0  0  0
    6.0927    7.5713    6.7929 C   0  0  0  0  0  0  0  0  0  0  0  0
    5.2149    7.7835    5.6894 C   0  0  0  0  0  0  0  0  0  0  0  0
    4.7310    9.0829    5.3541 C   0  0  0  0  0  0  0  0  0  0  0  0
    5.1870   10.2685    6.1284 C   0  0  0  0  0  0  0  0  0  0  0  0
    6.5222   10.7041    6.0844 C   0  0  0  0  0  0  0  0  0  0  0  0
    6.9507   11.8151    6.8166 C   0  0  0  0  0  0  0  0  0  0  0  0
    6.0716   12.5406    7.6367 C   0  0  0  0  0  0  0  0  0  0  0  0
    6.5099   13.7612    8.4681 C   0  0  1  0  0  0  0  0  0  0  0  0
    8.0005   14.0932    8.2739 C   0  0  0  0  0  0  0  0  0  0  0  0
    5.6807   14.9965    8.0457 C   0  0  0  0  0  0  0  0  0  0  0  0
    6.2700   13.4706    9.9681 C   0  0  0  0  0  0  0  0  0  0  0  0
    4.7349   12.0985    7.6796 C   0  0  0  0  0  0  0  0  0  0  0  0
    4.2994   10.9982    6.9440 C   0  0  0  0  0  0  0  0  0  0  0  0
    3.7990    9.2490    4.2770 C   0  0  0  0  0  0  0  0  0  0  0  0
    3.3186   10.5260    3.8978 C   0  0  0  0  0  0  0  0  0  0  0  0
    2.3789   10.6744    2.8690 C   0  0  0  0  0  0  0  0  0  0  0  0
    1.9344    9.5749    2.1541 C   0  0  0  0  0  0  0  0  0  0  0  0
    2.4401    8.2700    2.4342 C   0  0  0  0  0  0  0  0  0  0  0  0
    2.0495    7.1187    1.6660 C   0  0  0  0  0  0  0  0  0  0  0  0
    1.1863    7.2242    0.4559 C   0  0  0  0  0  0  0  0  0  0  0  0
    1.5318    8.0607   -0.6239 C   0  0  0  0  0  0  0  0  0  0  0  0
    0.7430    8.1090   -1.7752 C   0  0  0  0  0  0  0  0  0  0  0  0
   -0.4107    7.3244   -1.8737 C   0  0  0  0  0  0  0  0  0  0  0  0
   -0.7645    6.4861   -0.8127 C   0  0  0  0  0  0  0  0  0  0  0  0
    0.0272    6.4343    0.3372 C   0  0  0  0  0  0  0  0  0  0  0  0
    2.5075    5.8641    2.0388 C   0  0  0  0  0  0  0  0  0  0  0  0
    3.3855    5.6518    3.1423 C   0  0  0  0  0  0  0  0  0  0  0  0
    3.8319    6.7995    3.8781 C   0  0  0  0  0  0  0  0  0  0  0  0
    3.3552    8.0968    3.5303 C   0  0  0  0  0  0  0  0  0  0  0  0
    4.7686    6.6359    4.9536 C   0  0  0  0  0  0  0  0  0  0  0  0
    5.2452    5.3386    5.3013 C   0  0  0  0  0  0  0  0  0  0  0  0
    4.3011    2.4373    1.8875 C   0  0  0  0  0  0  0  0  0  0  0  0
    3.8657    1.3369    1.1520 C   0  0  0  0  0  0  0  0  0  0  0  0
    0.3308   -1.5342   -0.0530 H   0  0  0  0  0  0  0  0  0  0  0  0
   -0.0507    0.1738    0.2466 H   0  0  0  0  0  0  0  0  0  0  0  0
    0.3664   -0.9022    1.6061 H   0  0  0  0  0  0  0  0  0  0  0  0
    2.6211   -2.4449    0.1985 H   0  0  0  0  0  0  0  0  0  0  0  0
    2.7676   -1.7938    1.8521 H   0  0  0  0  0  0  0  0  0  0  0  0
    3.9984   -1.4063    0.6281 H   0  0  0  0  0  0  0  0  0  0  0  0
    2.0262   -0.8994   -1.7500 H   0  0  0  0  0  0  0  0  0  0  0  0
    3.3909    0.1684   -1.3508 H   0  0  0  0  0  0  0  0  0  0  0  0
    1.7487    0.8395   -1.4671 H   0  0  0  0  0  0  0  0  0  0  0  0
    0.6039    1.3239    2.0982 H   0  0  0  0  0  0  0  0  0  0  0  0
    1.3633    3.2650    3.3784 H   0  0  0  0  0  0  0  0  0  0  0  0
    4.9198    2.0259    4.4092 H   0  0  0  0  0  0  0  0  0  0  0  0
    6.6041    1.7655    6.2021 H   0  0  0  0  0  0  0  0  0  0  0  0
    7.4115    3.7350    7.4624 H   0  0  0  0  0  0  0  0  0  0  0  0
    8.8601    7.6530    7.6664 H   0  0  0  0  0  0  0  0  0  0  0  0
   10.2648    7.5657    9.7107 H   0  0  0  0  0  0  0  0  0  0  0  0
    9.6283    6.0705   11.6065 H   0  0  0  0  0  0  0  0  0  0  0  0
    7.5636    4.6765   11.4361 H   0  0  0  0  0  0  0  0  0  0  0  0
    6.1583    4.7728    9.3972 H   0  0  0  0  0  0  0  0  0  0  0  0
    6.3791    8.4279    7.4018 H   0  0  0  0  0  0  0  0  0  0  0  0
    7.2373   10.1702    5.4533 H   0  0  0  0  0  0  0  0  0  0  0  0
    7.9968   12.1112    6.7335 H   0  0  0  0  0  0  0  0  0  0  0  0
    8.2344   14.3372    7.2256 H   0  0  0  0  0  0  0  0  0  0  0  0
    8.6514   13.2612    8.5853 H   0  0  0  0  0  0  0  0  0  0  0  0
    8.2701   14.9693    8.8846 H   0  0  0  0  0  0  0  0  0  0  0  0
    5.8333   15.2291    6.9798 H   0  0  0  0  0  0  0  0  0  0  0  0
    5.9800   15.8802    8.6333 H   0  0  0  0  0  0  0  0  0  0  0  0
    4.6025   14.8418    8.2038 H   0  0  0  0  0  0  0  0  0  0  0  0
    6.8519   12.5956   10.2988 H   0  0  0  0  0  0  0  0  0  0  0  0
    5.2098   13.2669   10.1825 H   0  0  0  0  0  0  0  0  0  0  0  0
    6.5747   14.3345   10.5817 H   0  0  0  0  0  0  0  0  0  0  0  0
    4.0091   12.6210    8.3075 H   0  0  0  0  0  0  0  0  0  0  0  0
    3.2550   10.6836    7.0119 H   0  0  0  0  0  0  0  0  0  0  0  0
    3.6810   11.4095    4.4221 H   0  0  0  0  0  0  0  0  0  0  0  0
    1.9966   11.6700    2.6293 H   0  0  0  0  0  0  0  0  0  0  0  0
    1.1889    9.7004    1.3693 H   0  0  0  0  0  0  0  0  0  0  0  0
    2.4419    8.6621   -0.5658 H   0  0  0  0  0  0  0  0  0  0  0  0
    1.0362    8.7582   -2.6045 H   0  0  0  0  0  0  0  0  0  0  0  0
   -1.0287    7.3646   -2.7743 H   0  0  0  0  0  0  0  0  0  0  0  0
   -1.6652    5.8698   -0.8781 H   0  0  0  0  0  0  0  0  0  0  0  0
   -0.2601    5.7827    1.1660 H   0  0  0  0  0  0  0  0  0  0  0  0
    2.2211    5.0074    1.4301 H   0  0  0  0  0  0  0  0  0  0  0  0
    5.3455    2.7520    1.8196 H   0  0  0  0  0  0  0  0  0  0  0  0
    4.5915    0.8145    0.5241 H   0  0  0  0  0  0  0  0  0  0  0  0
  2  1  1  1
  1 55  1  0
  1 56  1  0
  1 57  1  0
  2  3  1  0
  2  4  1  0
  2  5  1  0
  3 58  1  0
  3 59  1  0
  3 60  1  0
  4 61  1  0
  4 62  1  0
  4 63  1  0
  5  6  2  0
  5 54  1  0
  6  7  1  0
  6 64  1  0
  7  8  2  0
  7 65  1  0
  8  9  1  0
  8 53  1  0
  9 10  1  0
  9 48  2  0
 10 11  2  0
 10 52  1  0
 11 12  1  0
 11 66  1  0
 12 13  2  0
 12 67  1  0
 13 14  1  0
 13 68  1  0
 14 15  1  0
 14 52  2  0
 15 16  1  0
 15 22  2  0
 16 17  2  0
 16 21  1  0
 17 18  1  0
 17 69  1  0
 18 19  2  0
 18 70  1  0
 19 20  1  0
 19 71  1  0
 20 21  2  0
 20 72  1  0
 21 73  1  0
 22 23  1  0
 22 74  1  0
 23 24  1  0
 23 51  2  0
 24 25  1  0
 24 35  2  0
 25 26  2  0
 25 34  1  0
 26 27  1  0
 26 75  1  0
 27 28  2  0
 27 76  1  0
 28 29  1  0
 28 33  1  0
 29 30  1  6
 29 31  1  0
 29 32  1  0
 30 77  1  0
 30 78  1  0
 30 79  1  0
 31 80  1  0
 31 81  1  0
 31 82  1  0
 32 83  1  0
 32 84  1  0
 32 85  1  0
 33 34  2  0
 33 86  1  0
 34 87  1  0
 35 36  1  0
 35 50  1  0
 36 37  2  0
 36 88  1  0
 37 38  1  0
 37 89  1  0
 38 39  2  0
 38 90  1  0
 39 40  1  0
 39 50  1  0
 40 41  1  0
 40 47  2  0
 41 42  2  0
 41 46  1  0
 42 43  1  0
 42 91  1  0
 43 44  2  0
 43 92  1  0
 44 45  1  0
 44 93  1  0
 45 46  2  0
 45 94  1  0
 46 95  1  0
 47 48  1  0
 47 96  1  0
 48 49  1  0
 49 50  2  0
 49 51  1  0
 51 52  1  0
 53 54  2  0
 53 97  1  0
 54 98  1  0
M  END

