
     RDKit          3D

 57 61  0  0  0  0  0  0  0  0999 V2000
    1.7893   -0.0361   -1.2708 O   0  0  0  0  0  0  0  0  0  0  0  0
    2.8500   -0.1164   -0.6962 C   0  0  0  0  0  0  0  0  0  0  0  0
    3.6340   -1.3255   -0.3319 C   0  0  0  0  0  0  0  0  0  0  0  0
    3.0889   -2.6738   -0.5712 C   0  0  0  0  0  0  0  0  0  0  0  0
    3.1331   -3.6661    0.4303 C   0  0  0  0  0  0  0  0  0  0  0  0
    2.5823   -4.9303    0.2153 C   0  0  0  0  0  0  0  0  0  0  0  0
    1.9653   -5.2306   -1.0032 C   0  0  0  0  0  0  0  0  0  0  0  0
    1.8983   -4.2521   -1.9998 C   0  0  0  0  0  0  0  0  0  0  0  0
    2.4492   -2.9871   -1.7878 C   0  0  0  0  0  0  0  0  0  0  0  0
    4.7656   -0.9044    0.3322 C   0  0  0  0  0  0  0  0  0  0  0  0
    5.8704   -1.5848    0.7458 N   0  0  0  0  0  0  0  0  0  0  0  0
    6.2426   -2.8879    0.2106 C   0  0  0  0  0  0  0  0  0  0  0  0
    7.7263   -2.9097   -0.1751 C   0  0  0  0  0  0  0  0  0  0  0  0
    8.5673   -2.5076    0.9380 N   0  0  0  0  0  0  0  0  0  0  0  0
    9.9320   -2.8620    0.9259 C   0  0  0  0  0  0  0  0  0  0  0  0
   10.5520   -3.4301   -0.2060 C   0  0  0  0  0  0  0  0  0  0  0  0
   11.8975   -3.8100   -0.1723 C   0  0  0  0  0  0  0  0  0  0  0  0
   12.6674   -3.6219    0.9757 C   0  0  0  0  0  0  0  0  0  0  0  0
   12.0647   -3.0515    2.1030 C   0  0  0  0  0  0  0  0  0  0  0  0
   10.7216   -2.6824    2.0840 C   0  0  0  0  0  0  0  0  0  0  0  0
    8.1932   -1.1955    1.4633 C   0  0  0  0  0  0  0  0  0  0  0  0
    6.7209   -1.1610    1.8599 C   0  0  0  0  0  0  0  0  0  0  0  0
    4.7165    0.6212    0.4213 C   0  0  0  0  0  0  0  0  0  0  0  0
    5.5364    1.3704    0.9174 O   0  0  0  0  0  0  0  0  0  0  0  0
    3.5577    1.0100   -0.2079 N   0  0  0  0  0  0  0  0  0  0  0  0
    3.1013    2.3890   -0.3343 C   0  0  0  0  0  0  0  0  0  0  0  0
    3.5828    3.0909   -1.5937 C   0  0  0  0  0  0  0  0  0  0  0  0
    4.9550    3.3537   -1.7584 C   0  0  0  0  0  0  0  0  0  0  0  0
    5.4475    3.9883   -2.8983 C   0  0  0  0  0  0  0  0  0  0  0  0
    4.5648    4.3850   -3.9076 C   0  0  0  0  0  0  0  0  0  0  0  0
    3.1979    4.1496   -3.7662 C   0  0  0  0  0  0  0  0  0  0  0  0
    2.7149    3.5093   -2.6181 C   0  0  0  0  0  0  0  0  0  0  0  0
    0.9822    3.2660   -2.4985 Cl  0  0  0  0  0  0  0  0  0  0  0  0
    3.5835   -3.4314    1.3975 H   0  0  0  0  0  0  0  0  0  0  0  0
    2.6242   -5.6812    1.0087 H   0  0  0  0  0  0  0  0  0  0  0  0
    1.5312   -6.2194   -1.1714 H   0  0  0  0  0  0  0  0  0  0  0  0
    1.4101   -4.4742   -2.9523 H   0  0  0  0  0  0  0  0  0  0  0  0
    2.3802   -2.2266   -2.5665 H   0  0  0  0  0  0  0  0  0  0  0  0
    5.6367   -3.1084   -0.6752 H   0  0  0  0  0  0  0  0  0  0  0  0
    6.0496   -3.6807    0.9573 H   0  0  0  0  0  0  0  0  0  0  0  0
    7.8761   -2.2602   -1.0659 H   0  0  0  0  0  0  0  0  0  0  0  0
    7.9795   -3.9383   -0.4699 H   0  0  0  0  0  0  0  0  0  0  0  0
    9.9932   -3.5691   -1.1315 H   0  0  0  0  0  0  0  0  0  0  0  0
   12.3474   -4.2480   -1.0676 H   0  0  0  0  0  0  0  0  0  0  0  0
   13.7193   -3.9155    0.9957 H   0  0  0  0  0  0  0  0  0  0  0  0
   12.6446   -2.9039    3.0181 H   0  0  0  0  0  0  0  0  0  0  0  0
   10.2699   -2.2736    2.9898 H   0  0  0  0  0  0  0  0  0  0  0  0
    8.3785   -0.4009    0.7094 H   0  0  0  0  0  0  0  0  0  0  0  0
    8.7999   -0.9555    2.3453 H   0  0  0  0  0  0  0  0  0  0  0  0
    6.4453   -0.1490    2.1691 H   0  0  0  0  0  0  0  0  0  0  0  0
    6.5590   -1.8566    2.7064 H   0  0  0  0  0  0  0  0  0  0  0  0
    3.4752    2.9270    0.5493 H   0  0  0  0  0  0  0  0  0  0  0  0
    2.0057    2.3746   -0.3043 H   0  0  0  0  0  0  0  0  0  0  0  0
    5.6391    3.0498   -0.9622 H   0  0  0  0  0  0  0  0  0  0  0  0
    6.5190    4.1783   -2.9963 H   0  0  0  0  0  0  0  0  0  0  0  0
    4.9369    4.8843   -4.8057 H   0  0  0  0  0  0  0  0  0  0  0  0
    2.4917    4.4577   -4.5388 H   0  0  0  0  0  0  0  0  0  0  0  0
  1  2  2  0
  2  3  1  0
  2 25  1  0
  3  4  1  0
  3 10  2  0
  4  5  2  0
  4  9  1  0
  5  6  1  0
  5 34  1  0
  6  7  2  0
  6 35  1  0
  7  8  1  0
  7 36  1  0
  8  9  2  0
  8 37  1  0
  9 38  1  0
 10 11  1  0
 10 23  1  0
 11 12  1  0
 11 22  1  0
 12 13  1  0
 12 39  1  0
 12 40  1  0
 13 14  1  0
 13 41  1  0
 13 42  1  0
 14 15  1  0
 14 21  1  0
 15 16  2  0
 15 20  1  0
 16 17  1  0
 16 43  1  0
 17 18  2  0
 17 44  1  0
 18 19  1  0
 18 45  1  0
 19 20  2  0
 19 46  1  0
 20 47  1  0
 21 22  1  0
 21 48  1  0
 21 49  1  0
 22 50  1  0
 22 51  1  0
 23 24  2  0
 23 25  1  0
 25 26  1  0
 26 27  1  0
 26 52  1  0
 26 53  1  0
 27 28  2  0
 27 32  1  0
 28 29  1  0
 28 54  1  0
 29 30  2  0
 29 55  1  0
 30 31  1  0
 30 56  1  0
 31 32  2  0
 31 57  1  0
 32 33  1  0
M  END

