
     RDKit          3D

 53 56  0  0  0  0  0  0  0  0999 V2000
    1.5266    2.0575   -2.7504 C   0  0  0  0  0  0  0  0  0  0  0  0
    2.9200    1.4968   -2.5989 C   0  0  0  0  0  0  0  0  0  0  0  0
    3.1601    0.1172   -2.5461 C   0  0  0  0  0  0  0  0  0  0  0  0
    4.4426   -0.4169   -2.3933 C   0  0  0  0  0  0  0  0  0  0  0  0
    5.5461    0.4458   -2.2874 C   0  0  0  0  0  0  0  0  0  0  0  0
    6.8762    0.0105   -2.1307 N   0  0  0  0  0  0  0  0  0  0  0  0
    7.3538   -1.2912   -2.0542 C   0  0  0  0  0  0  0  0  0  0  0  0
    6.6451   -2.2795   -2.1219 O   0  0  0  0  0  0  0  0  0  0  0  0
    8.7305   -1.3354   -1.8911 N   0  0  0  0  0  0  0  0  0  0  0  0
    9.5614   -2.4690   -1.7734 C   0  0  0  0  0  0  0  0  0  0  0  0
   10.9379   -2.2552   -1.6112 C   0  0  0  0  0  0  0  0  0  0  0  0
   11.8349   -3.3202   -1.4859 C   0  0  0  0  0  0  0  0  0  0  0  0
   11.3585   -4.6373   -1.5216 C   0  0  0  0  0  0  0  0  0  0  0  0
   12.1413   -5.7476   -1.4081 O   0  0  0  0  0  0  0  0  0  0  0  0
   13.5278   -5.5996   -1.2415 C   0  0  0  0  0  0  0  0  0  0  0  0
   14.2021   -6.9460   -1.1350 C   0  0  0  0  0  0  0  0  0  0  0  0
   13.4979   -8.1294   -1.1927 C   0  0  0  0  0  0  0  0  0  0  0  0
   14.1685   -9.3883   -1.0888 C   0  0  0  0  0  0  0  0  0  0  0  0
   13.6960  -10.5091   -1.1210 O   0  0  0  0  0  0  0  0  0  0  0  0
   15.6202   -9.2403   -0.9226 N   0  0  0  0  0  0  0  0  0  0  0  0
   16.3585  -10.3953   -0.8138 C   0  0  0  0  0  0  0  0  0  0  0  0
   17.7115  -10.3631   -0.6580 C   0  0  0  0  0  0  0  0  0  0  0  0
   18.3995   -9.1068   -0.6036 C   0  0  0  0  0  0  0  0  0  0  0  0
   19.8931   -9.0771   -0.4321 C   0  0  0  0  0  0  0  0  0  0  0  0
   17.6500   -7.9606   -0.7125 C   0  0  0  0  0  0  0  0  0  0  0  0
   16.2285   -7.9858   -0.8771 C   0  0  0  0  0  0  0  0  0  0  0  0
   15.5420   -6.8621   -0.9799 N   0  0  0  0  0  0  0  0  0  0  0  0
    9.9817   -4.8559   -1.6847 C   0  0  0  0  0  0  0  0  0  0  0  0
    9.0890   -3.7964   -1.8096 C   0  0  0  0  0  0  0  0  0  0  0  0
    5.3208    1.8346   -2.3408 C   0  0  0  0  0  0  0  0  0  0  0  0
    4.0346    2.3449   -2.4938 C   0  0  0  0  0  0  0  0  0  0  0  0
    0.7931    1.2631   -2.9539 H   0  0  0  0  0  0  0  0  0  0  0  0
    1.4705    2.7867   -3.5756 H   0  0  0  0  0  0  0  0  0  0  0  0
    1.2009    2.5827   -1.8356 H   0  0  0  0  0  0  0  0  0  0  0  0
    2.3167   -0.5749   -2.6275 H   0  0  0  0  0  0  0  0  0  0  0  0
    4.5991   -1.4919   -2.3571 H   0  0  0  0  0  0  0  0  0  0  0  0
    7.5525    0.7616   -2.0696 H   0  0  0  0  0  0  0  0  0  0  0  0
    9.2248   -0.4531   -1.8432 H   0  0  0  0  0  0  0  0  0  0  0  0
   11.3283   -1.2329   -1.5814 H   0  0  0  0  0  0  0  0  0  0  0  0
   12.8957   -3.1031   -1.3620 H   0  0  0  0  0  0  0  0  0  0  0  0
   13.7675   -5.0215   -0.3276 H   0  0  0  0  0  0  0  0  0  0  0  0
   13.9832   -5.0532   -2.0903 H   0  0  0  0  0  0  0  0  0  0  0  0
   12.4174   -8.1401   -1.3186 H   0  0  0  0  0  0  0  0  0  0  0  0
   15.7549  -11.3019   -0.8655 H   0  0  0  0  0  0  0  0  0  0  0  0
   18.2616  -11.3024   -0.5758 H   0  0  0  0  0  0  0  0  0  0  0  0
   20.3915   -9.6189   -1.2534 H   0  0  0  0  0  0  0  0  0  0  0  0
   20.1886   -9.5781    0.5051 H   0  0  0  0  0  0  0  0  0  0  0  0
   20.2811   -8.0492   -0.4111 H   0  0  0  0  0  0  0  0  0  0  0  0
   18.1001   -6.9676   -0.6801 H   0  0  0  0  0  0  0  0  0  0  0  0
    9.6195   -5.8857   -1.7113 H   0  0  0  0  0  0  0  0  0  0  0  0
    8.0249   -3.9797   -1.9350 H   0  0  0  0  0  0  0  0  0  0  0  0
    6.1680    2.5240   -2.2628 H   0  0  0  0  0  0  0  0  0  0  0  0
    3.8961    3.4296   -2.5327 H   0  0  0  0  0  0  0  0  0  0  0  0
  1  2  1  0
  1 32  1  0
  1 33  1  0
  1 34  1  0
  2  3  2  0
  2 31  1  0
  3  4  1  0
  3 35  1  0
  4  5  2  0
  4 36  1  0
  5  6  1  0
  5 30  1  0
  6  7  1  0
  6 37  1  0
  7  8  2  0
  7  9  1  0
  9 10  1  0
  9 38  1  0
 10 11  2  0
 10 29  1  0
 11 12  1  0
 11 39  1  0
 12 13  2  0
 12 40  1  0
 13 14  1  0
 13 28  1  0
 14 15  1  0
 15 16  1  0
 15 41  1  0
 15 42  1  0
 16 17  2  0
 16 27  1  0
 17 18  1  0
 17 43  1  0
 18 19  2  0
 18 20  1  0
 20 21  1  0
 20 26  1  0
 21 22  2  0
 21 44  1  0
 22 23  1  0
 22 45  1  0
 23 24  1  0
 23 25  2  0
 24 46  1  0
 24 47  1  0
 24 48  1  0
 25 26  1  0
 25 49  1  0
 26 27  2  0
 28 29  2  0
 28 50  1  0
 29 51  1  0
 30 31  2  0
 30 52  1  0
 31 53  1  0
M  END

