
     RDKit          3D

 42 42  0  0  0  0  0  0  0  0999 V2000
    8.9424   -2.3246    4.5439 C   0  0  0  0  0  0  0  0  0  0  0  0
    7.8244   -3.2315    4.0624 C   0  0  0  0  0  0  0  0  0  0  0  0
    7.3096   -2.7258    2.8536 O   0  0  0  0  0  0  0  0  0  0  0  0
    6.2504   -3.4817    2.3093 C   0  0  0  0  0  0  0  0  0  0  0  0
    5.8468   -2.8741    0.9732 C   0  0  0  0  0  0  0  0  0  0  0  0
    6.9626   -2.9152   -0.0833 C   0  0  0  0  0  0  0  0  0  0  0  0
    7.3039   -4.2905   -0.5789 C   0  0  0  0  0  0  0  0  0  0  0  0
    6.3176   -4.9360   -1.2398 O   0  0  0  0  0  0  0  0  0  0  0  0
    8.5398   -4.4609   -1.1826 N   0  0  0  0  0  0  0  0  0  0  0  0
    9.0237   -5.6936   -1.7545 C   0  0  0  0  0  0  0  0  0  0  0  0
    9.6686   -5.4756   -3.1436 C   0  0  1  0  0  0  0  0  0  0  0  0
   10.7082   -4.5021   -2.9795 O   0  0  0  0  0  0  0  0  0  0  0  0
   10.2538   -6.7913   -3.6888 C   0  0  0  0  0  0  0  0  0  0  0  0
    9.1853   -7.7943   -4.1488 C   0  0  0  0  0  0  0  0  0  0  0  0
    8.2226   -7.1616   -5.1617 C   0  0  0  0  0  0  0  0  0  0  0  0
    7.6114   -5.8614   -4.6243 C   0  0  0  0  0  0  0  0  0  0  0  0
    8.6913   -4.8741   -4.1653 C   0  0  0  0  0  0  0  0  0  0  0  0
    9.3615   -2.6945    5.4928 H   0  0  0  0  0  0  0  0  0  0  0  0
    8.5683   -1.3012    4.7028 H   0  0  0  0  0  0  0  0  0  0  0  0
    9.7527   -2.2795    3.7994 H   0  0  0  0  0  0  0  0  0  0  0  0
    7.0209   -3.2919    4.8278 H   0  0  0  0  0  0  0  0  0  0  0  0
    8.1993   -4.2674    3.9188 H   0  0  0  0  0  0  0  0  0  0  0  0
    5.3830   -3.4857    3.0029 H   0  0  0  0  0  0  0  0  0  0  0  0
    6.5635   -4.5368    2.1663 H   0  0  0  0  0  0  0  0  0  0  0  0
    5.5540   -1.8243    1.1405 H   0  0  0  0  0  0  0  0  0  0  0  0
    4.9528   -3.3996    0.5993 H   0  0  0  0  0  0  0  0  0  0  0  0
    7.8774   -2.4773    0.3476 H   0  0  0  0  0  0  0  0  0  0  0  0
    6.6620   -2.2805   -0.9496 H   0  0  0  0  0  0  0  0  0  0  0  0
    9.1735   -3.6678   -1.2324 H   0  0  0  0  0  0  0  0  0  0  0  0
    8.1948   -6.4108   -1.8049 H   0  0  0  0  0  0  0  0  0  0  0  0
    9.7990   -6.1509   -1.1005 H   0  0  0  0  0  0  0  0  0  0  0  0
   11.4339   -4.9212   -2.4950 H   0  0  0  0  0  0  0  0  0  0  0  0
   10.9094   -7.2500   -2.9250 H   0  0  0  0  0  0  0  0  0  0  0  0
   10.9021   -6.5240   -4.5412 H   0  0  0  0  0  0  0  0  0  0  0  0
    8.6145   -8.1632   -3.2780 H   0  0  0  0  0  0  0  0  0  0  0  0
    9.6756   -8.6806   -4.5850 H   0  0  0  0  0  0  0  0  0  0  0  0
    7.4291   -7.8785   -5.4311 H   0  0  0  0  0  0  0  0  0  0  0  0
    8.7752   -6.9433   -6.0943 H   0  0  0  0  0  0  0  0  0  0  0  0
    6.9275   -6.0808   -3.7853 H   0  0  0  0  0  0  0  0  0  0  0  0
    6.9885   -5.3849   -5.3992 H   0  0  0  0  0  0  0  0  0  0  0  0
    8.2343   -3.9706   -3.7334 H   0  0  0  0  0  0  0  0  0  0  0  0
    9.2960   -4.5452   -5.0274 H   0  0  0  0  0  0  0  0  0  0  0  0
  1  2  1  0
  1 18  1  0
  1 19  1  0
  1 20  1  0
  2  3  1  0
  2 21  1  0
  2 22  1  0
  3  4  1  0
  4  5  1  0
  4 23  1  0
  4 24  1  0
  5  6  1  0
  5 25  1  0
  5 26  1  0
  6  7  1  0
  6 27  1  0
  6 28  1  0
  7  8  2  0
  7  9  1  0
  9 10  1  0
  9 29  1  0
 10 11  1  0
 10 30  1  0
 10 31  1  0
 11 12  1  1
 11 13  1  0
 11 17  1  0
 12 32  1  0
 13 14  1  0
 13 33  1  0
 13 34  1  0
 14 15  1  0
 14 35  1  0
 14 36  1  0
 15 16  1  0
 15 37  1  0
 15 38  1  0
 16 17  1  0
 16 39  1  0
 16 40  1  0
 17 41  1  0
 17 42  1  0
M  END

