
     RDKit          3D

 34 36  0  0  0  0  0  0  0  0999 V2000
    0.9470    0.0397   -0.3246 O   0  0  0  0  0  0  0  0  0  0  0  0
    2.1535    0.0818   -0.2040 C   0  0  0  0  0  0  0  0  0  0  0  0
    2.8456    1.2830   -0.2360 N   0  0  0  0  0  0  0  0  0  0  0  0
    2.2927    2.1275   -0.3686 H   0  0  0  0  0  0  0  0  0  0  0  0
    4.2140    1.4782   -0.1014 C   0  0  0  0  0  0  0  0  0  0  0  0
    4.7278    2.5740   -0.1325 O   0  0  0  0  0  0  0  0  0  0  0  0
    4.9118    0.2830    0.0843 N   0  0  0  0  0  0  0  0  0  0  0  0
    6.3817    0.3228    0.1770 C   0  0  1  0  0  0  0  0  0  0  0  0
    6.6378    1.3804    0.0254 H   0  0  0  0  0  0  0  0  0  0  0  0
    6.9423   -0.2236    1.4983 C   0  0  0  0  0  0  0  0  0  0  0  0
    8.2848   -0.8204    1.0640 C   0  0  2  0  0  0  0  0  0  0  0  0
    8.5991   -1.6501    1.7233 H   0  0  0  0  0  0  0  0  0  0  0  0
    9.2984    0.1630    0.9477 O   0  0  0  0  0  0  0  0  0  0  0  0
    7.9805   -1.3214   -0.3584 C   0  0  1  0  0  0  0  0  0  0  0  0
    8.8736   -1.1647   -0.9858 H   0  0  0  0  0  0  0  0  0  0  0  0
    7.5269   -2.7757   -0.4549 C   0  0  0  0  0  0  0  0  0  0  0  0
    6.4214   -3.0470    0.3736 O   0  0  0  0  0  0  0  0  0  0  0  0
    6.9287   -0.4730   -0.8475 O   0  0  0  0  0  0  0  0  0  0  0  0
    4.3399   -0.9359    0.1183 N   0  0  0  0  0  0  0  0  0  0  0  0
    3.0547   -1.0965   -0.0089 C   0  0  0  0  0  0  0  0  0  0  0  0
    2.4818   -2.4397    0.0362 C   0  0  0  0  0  0  0  0  0  0  0  0
    3.1900   -3.6936    0.1800 C   0  0  0  0  0  0  0  0  0  0  0  0
    2.2358   -4.6618    0.1720 C   0  0  0  0  0  0  0  0  0  0  0  0
    0.9964   -4.1136    0.0360 O   0  0  0  0  0  0  0  0  0  0  0  0
    1.1464   -2.7785   -0.0467 C   0  0  0  0  0  0  0  0  0  0  0  0
    6.2914   -1.0180    1.8876 H   0  0  0  0  0  0  0  0  0  0  0  0
    7.0485    0.5609    2.2625 H   0  0  0  0  0  0  0  0  0  0  0  0
    9.4831    0.5184    1.8269 H   0  0  0  0  0  0  0  0  0  0  0  0
    7.3097   -2.9938   -1.5196 H   0  0  0  0  0  0  0  0  0  0  0  0
    8.3511   -3.4402   -0.1453 H   0  0  0  0  0  0  0  0  0  0  0  0
    5.7214   -2.3990    0.1595 H   0  0  0  0  0  0  0  0  0  0  0  0
    4.2629   -3.8462    0.2705 H   0  0  0  0  0  0  0  0  0  0  0  0
    2.2742   -5.7450    0.2497 H   0  0  0  0  0  0  0  0  0  0  0  0
    0.2484   -2.1823   -0.1609 H   0  0  0  0  0  0  0  0  0  0  0  0
  1  2  2  0
  2  3  1  0
  2 20  1  0
  3  4  1  0
  3  5  1  0
  5  6  2  0
  5  7  1  0
  7  8  1  0
  7 19  1  0
  8  9  1  6
  8 10  1  0
  8 18  1  0
 10 11  1  0
 10 26  1  0
 10 27  1  0
 11 12  1  1
 11 13  1  0
 11 14  1  0
 13 28  1  0
 14 15  1  6
 14 16  1  0
 14 18  1  0
 16 17  1  0
 16 29  1  0
 16 30  1  0
 17 31  1  0
 19 20  2  0
 20 21  1  0
 21 22  1  0
 21 25  2  0
 22 23  2  0
 22 32  1  0
 23 24  1  0
 23 33  1  0
 24 25  1  0
 25 34  1  0
M  END

