
     RDKit          3D

 49 51  0  0  0  0  0  0  0  0999 V2000
    1.4691    0.5768    0.7806 C   0  0  0  0  0  0  0  0  0  0  0  0
    2.8725    0.3162    0.2088 C   0  0  1  0  0  0  0  0  0  0  0  0
    3.1015   -1.1668   -0.1483 C   0  0  0  0  0  0  0  0  0  0  0  0
    2.4522   -1.5868   -1.4836 C   0  0  2  0  0  0  0  0  0  0  0  0
    2.6811   -2.9811   -1.8565 N   0  0  0  0  0  0  0  0  0  0  0  0
    2.0498   -4.0632   -1.0865 C   0  0  2  0  0  0  0  0  0  0  0  0
    2.6083   -5.3978   -1.6059 C   0  0  0  0  0  0  0  0  0  0  0  0
    2.1507   -5.6489   -3.0451 C   0  0  0  0  0  0  0  0  0  0  0  0
    0.6249   -5.7633   -3.1179 C   0  0  0  0  0  0  0  0  0  0  0  0
   -0.1242   -4.7855   -2.2287 C   0  0  0  0  0  0  0  0  0  0  0  0
   -1.5213   -4.6912   -2.3443 C   0  0  0  0  0  0  0  0  0  0  0  0
   -2.2726   -3.8852   -1.4896 C   0  0  0  0  0  0  0  0  0  0  0  0
   -1.6298   -3.1668   -0.4772 C   0  0  0  0  0  0  0  0  0  0  0  0
   -0.2425   -3.2514   -0.3535 C   0  0  0  0  0  0  0  0  0  0  0  0
    0.5288   -4.0344   -1.2288 C   0  0  0  0  0  0  0  0  0  0  0  0
    2.9643   -0.6821   -2.6146 C   0  0  0  0  0  0  0  0  0  0  0  0
    2.7343    0.8307   -2.3832 C   0  0  2  0  0  0  0  0  0  0  0  0
    1.2412    1.1805   -2.5561 C   0  0  0  0  0  0  0  0  0  0  0  0
    3.5222    1.6253   -3.4425 C   0  0  0  0  0  0  0  0  0  0  0  0
    3.2757    1.2179   -0.9804 C   0  0  0  0  0  0  0  0  0  0  0  0
    1.3376    0.0345    1.7316 H   0  0  0  0  0  0  0  0  0  0  0  0
    0.6590    0.2555    0.1101 H   0  0  0  0  0  0  0  0  0  0  0  0
    1.3183    1.6488    0.9879 H   0  0  0  0  0  0  0  0  0  0  0  0
    3.5757    0.5636    1.0244 H   0  0  0  0  0  0  0  0  0  0  0  0
    2.7454   -1.8073    0.6766 H   0  0  0  0  0  0  0  0  0  0  0  0
    4.1893   -1.3513   -0.2353 H   0  0  0  0  0  0  0  0  0  0  0  0
    1.3616   -1.4563   -1.4071 H   0  0  0  0  0  0  0  0  0  0  0  0
    3.6853   -3.1556   -1.9085 H   0  0  0  0  0  0  0  0  0  0  0  0
    2.2774   -3.9898   -0.0014 H   0  0  0  0  0  0  0  0  0  0  0  0
    2.2659   -6.2128   -0.9445 H   0  0  0  0  0  0  0  0  0  0  0  0
    3.7107   -5.3856   -1.5412 H   0  0  0  0  0  0  0  0  0  0  0  0
    2.6143   -6.5635   -3.4495 H   0  0  0  0  0  0  0  0  0  0  0  0
    2.4902   -4.8067   -3.6672 H   0  0  0  0  0  0  0  0  0  0  0  0
    0.3214   -6.7829   -2.8131 H   0  0  0  0  0  0  0  0  0  0  0  0
    0.2800   -5.6549   -4.1602 H   0  0  0  0  0  0  0  0  0  0  0  0
   -2.0278   -5.2749   -3.1195 H   0  0  0  0  0  0  0  0  0  0  0  0
   -3.3584   -3.8285   -1.6037 H   0  0  0  0  0  0  0  0  0  0  0  0
   -2.2063   -2.5477    0.2149 H   0  0  0  0  0  0  0  0  0  0  0  0
    0.2582   -2.7025    0.4490 H   0  0  0  0  0  0  0  0  0  0  0  0
    2.4982   -0.9987   -3.5621 H   0  0  0  0  0  0  0  0  0  0  0  0
    4.0510   -0.8612   -2.7294 H   0  0  0  0  0  0  0  0  0  0  0  0
    0.9271    1.0054   -3.5983 H   0  0  0  0  0  0  0  0  0  0  0  0
    1.0563    2.2427   -2.3260 H   0  0  0  0  0  0  0  0  0  0  0  0
    0.5793    0.5827   -1.9152 H   0  0  0  0  0  0  0  0  0  0  0  0
    3.1922    1.3612   -4.4609 H   0  0  0  0  0  0  0  0  0  0  0  0
    4.6036    1.4218   -3.3763 H   0  0  0  0  0  0  0  0  0  0  0  0
    3.3764    2.7109   -3.3144 H   0  0  0  0  0  0  0  0  0  0  0  0
    3.0124    2.2680   -0.7616 H   0  0  0  0  0  0  0  0  0  0  0  0
    4.3785    1.1918   -1.0434 H   0  0  0  0  0  0  0  0  0  0  0  0
  1  2  1  0
  1 21  1  0
  1 22  1  0
  1 23  1  0
  2  3  1  0
  2 20  1  0
  2 24  1  1
  3  4  1  0
  3 25  1  0
  3 26  1  0
  4  5  1  0
  4 16  1  0
  4 27  1  1
  5  6  1  0
  5 28  1  0
  6  7  1  0
  6 15  1  0
  6 29  1  1
  7  8  1  0
  7 30  1  0
  7 31  1  0
  8  9  1  0
  8 32  1  0
  8 33  1  0
  9 10  1  0
  9 34  1  0
  9 35  1  0
 10 11  2  0
 10 15  1  0
 11 12  1  0
 11 36  1  0
 12 13  2  0
 12 37  1  0
 13 14  1  0
 13 38  1  0
 14 15  2  0
 14 39  1  0
 16 17  1  0
 16 40  1  0
 16 41  1  0
 17 18  1  1
 17 19  1  0
 17 20  1  0
 18 42  1  0
 18 43  1  0
 18 44  1  0
 19 45  1  0
 19 46  1  0
 19 47  1  0
 20 48  1  0
 20 49  1  0
M  END

