
     RDKit          3D

 64 67  0  0  0  0  0  0  0  0999 V2000
    4.1908  -10.3165   10.1857 C   0  0  0  0  0  0  0  0  0  0  0  0
    5.2953   -9.2710   10.0093 C   0  0  0  0  0  0  0  0  0  0  0  0
    6.5450   -9.5199   10.8697 C   0  0  0  0  0  0  0  0  0  0  0  0
    7.4237  -10.7086   10.4498 C   0  0  0  0  0  0  0  0  0  0  0  0
    8.5444  -10.4217    9.4244 C   0  0  2  0  0  0  0  0  0  0  0  0
    9.5634   -9.5241    9.8914 N   0  0  0  0  0  0  0  0  0  0  0  0
    9.8841   -8.7461    8.8771 C   0  0  0  0  0  0  0  0  0  0  0  0
   11.1894   -8.1807    8.7047 C   0  0  0  0  0  0  0  0  0  0  0  0
   11.9884   -8.0716    9.8033 N   0  0  0  0  0  0  0  0  0  0  0  0
   11.6332   -7.9137    7.3897 C   0  0  0  0  0  0  0  0  0  0  0  0
   10.7891   -8.1000    6.2878 C   0  0  0  0  0  0  0  0  0  0  0  0
    9.4192   -8.4159    6.4037 C   0  0  0  0  0  0  0  0  0  0  0  0
    8.6026   -8.1741    5.3544 N   0  0  0  0  0  0  0  0  0  0  0  0
    7.4073   -7.6748    5.5833 C   0  0  0  0  0  0  0  0  0  0  0  0
    6.6114   -7.5617    4.4831 O   0  0  0  0  0  0  0  0  0  0  0  0
    5.4638   -6.7304    4.5096 C   0  0  0  0  0  0  0  0  0  0  0  0
    4.2427   -7.3186    5.1939 C   0  0  0  0  0  0  0  0  0  0  0  0
    4.0932   -8.6994    5.3851 C   0  0  0  0  0  0  0  0  0  0  0  0
    2.9248   -9.2051    5.9654 C   0  0  0  0  0  0  0  0  0  0  0  0
    1.8939   -8.3448    6.3546 C   0  0  0  0  0  0  0  0  0  0  0  0
    2.0392   -6.9667    6.1667 C   0  0  0  0  0  0  0  0  0  0  0  0
    3.2079   -6.4590    5.5939 C   0  0  0  0  0  0  0  0  0  0  0  0
    7.0318   -7.2069    6.8857 C   0  0  0  0  0  0  0  0  0  0  0  0
    7.7798   -7.6155    7.9651 C   0  0  0  0  0  0  0  0  0  0  0  0
    8.8286   -8.6889    7.7826 C   0  0  2  0  0  0  0  0  0  0  0  0
    8.1400   -9.9749    8.0919 N   0  0  0  0  0  0  0  0  0  0  0  0
    7.5610  -10.8441    7.0966 C   0  0  0  0  0  0  0  0  0  0  0  0
    8.5910  -11.7531    6.3866 C   0  0  0  0  0  0  0  0  0  0  0  0
    8.0760  -12.4707    5.1301 C   0  0  0  0  0  0  0  0  0  0  0  0
    7.8502  -11.5592    3.9115 C   0  0  0  0  0  0  0  0  0  0  0  0
    6.6129  -10.7773    3.9882 N   0  0  0  0  0  0  0  0  0  0  0  0
    3.3227  -10.0870    9.5472 H   0  0  0  0  0  0  0  0  0  0  0  0
    3.8370  -10.3561   11.2302 H   0  0  0  0  0  0  0  0  0  0  0  0
    4.5317  -11.3306    9.9174 H   0  0  0  0  0  0  0  0  0  0  0  0
    4.8851   -8.2784   10.2667 H   0  0  0  0  0  0  0  0  0  0  0  0
    5.5816   -9.2085    8.9475 H   0  0  0  0  0  0  0  0  0  0  0  0
    6.2209   -9.6782   11.9141 H   0  0  0  0  0  0  0  0  0  0  0  0
    7.1777   -8.6173   10.8940 H   0  0  0  0  0  0  0  0  0  0  0  0
    6.8034  -11.5378   10.0690 H   0  0  0  0  0  0  0  0  0  0  0  0
    7.9506  -11.1071   11.3318 H   0  0  0  0  0  0  0  0  0  0  0  0
    9.0546  -11.4043    9.2813 H   0  0  0  0  0  0  0  0  0  0  0  0
   11.6590   -8.5613   10.6306 H   0  0  0  0  0  0  0  0  0  0  0  0
   12.9904   -7.9906    9.6834 H   0  0  0  0  0  0  0  0  0  0  0  0
   12.6588   -7.5699    7.2321 H   0  0  0  0  0  0  0  0  0  0  0  0
   11.1528   -7.8769    5.2820 H   0  0  0  0  0  0  0  0  0  0  0  0
    5.2321   -6.5532    3.4460 H   0  0  0  0  0  0  0  0  0  0  0  0
    5.7107   -5.7465    4.9474 H   0  0  0  0  0  0  0  0  0  0  0  0
    4.8939   -9.3818    5.0889 H   0  0  0  0  0  0  0  0  0  0  0  0
    2.8217  -10.2833    6.1141 H   0  0  0  0  0  0  0  0  0  0  0  0
    0.9826   -8.7450    6.8065 H   0  0  0  0  0  0  0  0  0  0  0  0
    1.2426   -6.2833    6.4728 H   0  0  0  0  0  0  0  0  0  0  0  0
    3.3167   -5.3783    5.4569 H   0  0  0  0  0  0  0  0  0  0  0  0
    6.1765   -6.5454    7.0232 H   0  0  0  0  0  0  0  0  0  0  0  0
    7.5557   -7.2816    8.9802 H   0  0  0  0  0  0  0  0  0  0  0  0
    7.0413  -10.2331    6.3457 H   0  0  0  0  0  0  0  0  0  0  0  0
    6.7851  -11.4695    7.5730 H   0  0  0  0  0  0  0  0  0  0  0  0
    8.9571  -12.5000    7.1142 H   0  0  0  0  0  0  0  0  0  0  0  0
    9.4680  -11.1442    6.1088 H   0  0  0  0  0  0  0  0  0  0  0  0
    7.1415  -13.0193    5.3516 H   0  0  0  0  0  0  0  0  0  0  0  0
    8.8193  -13.2374    4.8484 H   0  0  0  0  0  0  0  0  0  0  0  0
    7.8945  -12.1803    2.9945 H   0  0  0  0  0  0  0  0  0  0  0  0
    8.6942  -10.8535    3.8428 H   0  0  0  0  0  0  0  0  0  0  0  0
    5.8513  -11.2359    3.4907 H   0  0  0  0  0  0  0  0  0  0  0  0
    6.7308   -9.8509    3.5797 H   0  0  0  0  0  0  0  0  0  0  0  0
  1  2  1  0
  1 32  1  0
  1 33  1  0
  1 34  1  0
  2  3  1  0
  2 35  1  0
  2 36  1  0
  3  4  1  0
  3 37  1  0
  3 38  1  0
  4  5  1  0
  4 39  1  0
  4 40  1  0
  5  6  1  0
  5 26  1  0
  5 41  1  6
  6  7  2  0
  7  8  1  0
  7 25  1  0
  8  9  1  0
  8 10  2  0
  9 42  1  0
  9 43  1  0
 10 11  1  0
 10 44  1  0
 11 12  2  0
 11 45  1  0
 12 13  1  0
 12 25  1  0
 13 14  2  0
 14 15  1  0
 14 23  1  0
 15 16  1  0
 16 17  1  0
 16 46  1  0
 16 47  1  0
 17 18  2  0
 17 22  1  0
 18 19  1  0
 18 48  1  0
 19 20  2  0
 19 49  1  0
 20 21  1  0
 20 50  1  0
 21 22  2  0
 21 51  1  0
 22 52  1  0
 23 24  2  0
 23 53  1  0
 25 24  1  1
 24 54  1  0
 25 26  1  0
 26 27  1  0
 27 28  1  0
 27 55  1  0
 27 56  1  0
 28 29  1  0
 28 57  1  0
 28 58  1  0
 29 30  1  0
 29 59  1  0
 29 60  1  0
 30 31  1  0
 30 61  1  0
 30 62  1  0
 31 63  1  0
 31 64  1  0
M  END

