
     RDKit          3D

 48 50  0  0  0  0  0  0  0  0999 V2000
    3.0198   -1.1538    4.5900 C   0  0  0  0  0  0  0  0  0  0  0  0
    4.2344   -1.4395    3.7256 C   0  0  0  0  0  0  0  0  0  0  0  0
    4.6879   -2.5493    3.5610 O   0  0  0  0  0  0  0  0  0  0  0  0
    4.7749   -0.2963    3.1317 N   0  0  0  0  0  0  0  0  0  0  0  0
    5.8679   -0.1827    2.2790 C   0  0  0  0  0  0  0  0  0  0  0  0
    6.2133    1.1130    1.8270 C   0  0  0  0  0  0  0  0  0  0  0  0
    7.2871    1.3032    0.9761 C   0  0  0  0  0  0  0  0  0  0  0  0
    8.0656    0.2069    0.5387 C   0  0  0  0  0  0  0  0  0  0  0  0
    9.1992    0.3635   -0.3604 C   0  0  0  0  0  0  0  0  0  0  0  0
    9.6181    1.6109   -0.9077 C   0  0  0  0  0  0  0  0  0  0  0  0
   10.9615    1.4265   -1.9292 S   0  0  0  0  0  0  0  0  0  0  0  0
   10.9081   -0.3861   -1.5666 C   0  0  0  0  0  0  0  0  0  0  0  0
   11.7857   -1.1815   -2.1210 N   0  0  0  0  0  0  0  0  0  0  0  0
   11.5960   -2.7333   -2.3414 C   0  0  0  0  0  0  0  0  0  0  0  0
   10.9073   -2.9841   -3.3440 O   0  0  0  0  0  0  0  0  0  0  0  0
   12.3355   -3.5175   -1.4358 C   0  0  0  0  0  0  0  0  0  0  0  0
   13.0831   -2.9989   -0.3673 N   0  0  0  0  0  0  0  0  0  0  0  0
   13.1414   -2.0202   -0.1323 H   0  0  0  0  0  0  0  0  0  0  0  0
   13.7065   -3.9911    0.3456 C   0  0  0  0  0  0  0  0  0  0  0  0
   14.5490   -3.6222    1.5282 C   0  0  0  0  0  0  0  0  0  0  0  0
   13.3658   -5.2096   -0.2665 C   0  0  0  0  0  0  0  0  0  0  0  0
   13.7891   -6.5621    0.1287 C   0  0  0  0  0  0  0  0  0  0  0  0
   14.7198   -6.7413    1.3276 C   0  0  0  0  0  0  0  0  0  0  0  0
   13.4182   -7.5589   -0.4769 O   0  0  0  0  0  0  0  0  0  0  0  0
   12.5056   -4.9264   -1.3878 C   0  0  0  0  0  0  0  0  0  0  0  0
   11.8967   -5.9036   -2.3456 C   0  0  0  0  0  0  0  0  0  0  0  0
    9.9328   -0.6973   -0.7353 N   0  0  0  0  0  0  0  0  0  0  0  0
    7.7131   -1.0840    0.9947 C   0  0  0  0  0  0  0  0  0  0  0  0
    6.6393   -1.2868    1.8476 C   0  0  0  0  0  0  0  0  0  0  0  0
    2.1883   -0.7687    3.9768 H   0  0  0  0  0  0  0  0  0  0  0  0
    3.2467   -0.4035    5.3646 H   0  0  0  0  0  0  0  0  0  0  0  0
    2.7070   -2.0884    5.0698 H   0  0  0  0  0  0  0  0  0  0  0  0
    4.3080    0.5772    3.3502 H   0  0  0  0  0  0  0  0  0  0  0  0
    5.6238    1.9738    2.1544 H   0  0  0  0  0  0  0  0  0  0  0  0
    7.5202    2.3186    0.6515 H   0  0  0  0  0  0  0  0  0  0  0  0
    9.1723    2.5878   -0.7378 H   0  0  0  0  0  0  0  0  0  0  0  0
   12.4197   -0.7398   -2.7872 H   0  0  0  0  0  0  0  0  0  0  0  0
   14.5416   -2.5300    1.6747 H   0  0  0  0  0  0  0  0  0  0  0  0
   15.6037   -3.9240    1.4138 H   0  0  0  0  0  0  0  0  0  0  0  0
   14.1902   -4.0752    2.4673 H   0  0  0  0  0  0  0  0  0  0  0  0
   15.6740   -6.2097    1.1847 H   0  0  0  0  0  0  0  0  0  0  0  0
   14.9189   -7.8147    1.4440 H   0  0  0  0  0  0  0  0  0  0  0  0
   14.2653   -6.3561    2.2543 H   0  0  0  0  0  0  0  0  0  0  0  0
   12.6648   -6.5082   -2.8560 H   0  0  0  0  0  0  0  0  0  0  0  0
   11.3039   -5.3681   -3.0994 H   0  0  0  0  0  0  0  0  0  0  0  0
   11.2477   -6.6314   -1.8305 H   0  0  0  0  0  0  0  0  0  0  0  0
    8.3082   -1.9325    0.6546 H   0  0  0  0  0  0  0  0  0  0  0  0
    6.3783   -2.2848    2.1899 H   0  0  0  0  0  0  0  0  0  0  0  0
  1  2  1  0
  1 30  1  0
  1 31  1  0
  1 32  1  0
  2  3  2  0
  2  4  1  0
  4  5  1  0
  4 33  1  0
  5  6  2  0
  5 29  1  0
  6  7  1  0
  6 34  1  0
  7  8  2  0
  7 35  1  0
  8  9  1  0
  8 28  1  0
  9 10  2  0
  9 27  1  0
 10 11  1  0
 10 36  1  0
 11 12  1  0
 12 13  1  0
 12 27  2  0
 13 14  1  0
 13 37  1  0
 14 15  2  0
 14 16  1  0
 16 17  1  0
 16 25  2  0
 17 18  1  0
 17 19  1  0
 19 20  1  0
 19 21  2  0
 20 38  1  0
 20 39  1  0
 20 40  1  0
 21 22  1  0
 21 25  1  0
 22 23  1  0
 22 24  2  0
 23 41  1  0
 23 42  1  0
 23 43  1  0
 25 26  1  0
 26 44  1  0
 26 45  1  0
 26 46  1  0
 28 29  2  0
 28 47  1  0
 29 48  1  0
M  END

