
     RDKit          3D

 50 53  0  0  0  0  0  0  0  0999 V2000
    3.8205   -1.6036   -3.4467 C   0  0  0  0  0  0  0  0  0  0  0  0
    5.0985   -1.6330   -2.6032 C   0  0  1  0  0  0  0  0  0  0  0  0
    4.8135   -1.9426   -1.1305 C   0  0  0  0  0  0  0  0  0  0  0  0
    6.1134   -2.6189   -3.1823 C   0  0  0  0  0  0  0  0  0  0  0  0
    5.7970   -0.3398   -2.7124 O   0  0  0  0  0  0  0  0  0  0  0  0
    5.2489    0.8144   -2.3104 C   0  0  0  0  0  0  0  0  0  0  0  0
    4.1602    0.9655   -1.8242 O   0  0  0  0  0  0  0  0  0  0  0  0
    6.2535    1.9320   -2.5770 C   0  0  0  0  0  0  0  0  0  0  0  0
    5.6934    3.1519   -2.1739 O   0  0  0  0  0  0  0  0  0  0  0  0
    6.3957    4.3008   -2.3109 C   0  0  0  0  0  0  0  0  0  0  0  0
    7.7032    4.3635   -2.8481 C   0  0  0  0  0  0  0  0  0  0  0  0
    8.3559    5.5929   -2.9545 C   0  0  0  0  0  0  0  0  0  0  0  0
    7.7053    6.7501   -2.5269 C   0  0  0  0  0  0  0  0  0  0  0  0
    6.4079    6.6615   -1.9969 C   0  0  0  0  0  0  0  0  0  0  0  0
    5.7274    5.4614   -1.8746 C   0  0  0  0  0  0  0  0  0  0  0  0
    5.9128    7.8812   -1.6264 O   0  0  0  0  0  0  0  0  0  0  0  0
    6.8863    8.8329   -1.9059 C   0  0  0  0  0  0  0  0  0  0  0  0
    6.7258   10.1528   -1.6639 C   0  0  0  0  0  0  0  0  0  0  0  0
    5.5902   10.8338   -1.0997 C   0  0  0  0  0  0  0  0  0  0  0  0
    4.3884   10.2805   -0.6680 C   0  0  0  0  0  0  0  0  0  0  0  0
    3.5673   11.2678   -0.1959 N   0  0  0  0  0  0  0  0  0  0  0  0
    2.6379   11.1186    0.1744 H   0  0  0  0  0  0  0  0  0  0  0  0
    4.1962   12.4959   -0.2999 C   0  0  0  0  0  0  0  0  0  0  0  0
    3.7516   13.7761    0.0536 C   0  0  0  0  0  0  0  0  0  0  0  0
    4.6198   14.8416   -0.1714 C   0  0  0  0  0  0  0  0  0  0  0  0
    5.8977   14.6349   -0.7342 C   0  0  0  0  0  0  0  0  0  0  0  0
    6.3336   13.3596   -1.0833 C   0  0  0  0  0  0  0  0  0  0  0  0
    5.4787   12.2640   -0.8674 C   0  0  0  0  0  0  0  0  0  0  0  0
    8.0883    8.1736   -2.4962 C   0  0  0  0  0  0  0  0  0  0  0  0
    9.1196    8.7171   -2.8536 O   0  0  0  0  0  0  0  0  0  0  0  0
    3.3607   -2.6040   -3.4532 H   0  0  0  0  0  0  0  0  0  0  0  0
    4.0525   -1.3295   -4.4877 H   0  0  0  0  0  0  0  0  0  0  0  0
    3.0937   -0.8863   -3.0445 H   0  0  0  0  0  0  0  0  0  0  0  0
    4.3948   -2.9571   -1.0416 H   0  0  0  0  0  0  0  0  0  0  0  0
    4.0965   -1.2293   -0.7042 H   0  0  0  0  0  0  0  0  0  0  0  0
    5.7441   -1.9061   -0.5429 H   0  0  0  0  0  0  0  0  0  0  0  0
    5.7069   -3.6413   -3.1578 H   0  0  0  0  0  0  0  0  0  0  0  0
    7.0476   -2.6010   -2.6007 H   0  0  0  0  0  0  0  0  0  0  0  0
    6.3516   -2.3629   -4.2258 H   0  0  0  0  0  0  0  0  0  0  0  0
    6.5029    1.9247   -3.6544 H   0  0  0  0  0  0  0  0  0  0  0  0
    7.1843    1.6996   -2.0271 H   0  0  0  0  0  0  0  0  0  0  0  0
    8.2088    3.4580   -3.1816 H   0  0  0  0  0  0  0  0  0  0  0  0
    9.3656    5.6569   -3.3672 H   0  0  0  0  0  0  0  0  0  0  0  0
    4.7203    5.3893   -1.4643 H   0  0  0  0  0  0  0  0  0  0  0  0
    7.5964   10.7511   -1.9485 H   0  0  0  0  0  0  0  0  0  0  0  0
    4.0803    9.2384   -0.6739 H   0  0  0  0  0  0  0  0  0  0  0  0
    2.7620   13.9351    0.4894 H   0  0  0  0  0  0  0  0  0  0  0  0
    4.3061   15.8546    0.0922 H   0  0  0  0  0  0  0  0  0  0  0  0
    6.5541   15.4931   -0.8974 H   0  0  0  0  0  0  0  0  0  0  0  0
    7.3259   13.2148   -1.5178 H   0  0  0  0  0  0  0  0  0  0  0  0
  1  2  1  0
  1 31  1  0
  1 32  1  0
  1 33  1  0
  2  3  1  0
  2  4  1  0
  2  5  1  1
  3 34  1  0
  3 35  1  0
  3 36  1  0
  4 37  1  0
  4 38  1  0
  4 39  1  0
  5  6  1  0
  6  7  2  0
  6  8  1  0
  8  9  1  0
  8 40  1  0
  8 41  1  0
  9 10  1  0
 10 11  2  0
 10 15  1  0
 11 12  1  0
 11 42  1  0
 12 13  2  0
 12 43  1  0
 13 14  1  0
 13 29  1  0
 14 15  2  0
 14 16  1  0
 15 44  1  0
 16 17  1  0
 17 18  2  0
 17 29  1  0
 18 19  1  0
 18 45  1  0
 19 20  2  0
 19 28  1  0
 20 21  1  0
 20 46  1  0
 21 22  1  0
 21 23  1  0
 23 24  1  0
 23 28  2  0
 24 25  2  0
 24 47  1  0
 25 26  1  0
 25 48  1  0
 26 27  2  0
 26 49  1  0
 27 28  1  0
 27 50  1  0
 29 30  2  0
M  END

