
     RDKit          3D

 45 46  0  0  0  0  0  0  0  0999 V2000
    1.3319   -2.5578   10.4880 C   0  0  0  0  0  0  0  0  0  0  0  0
    0.0716   -3.3228   10.0666 C   0  0  2  0  0  0  0  0  0  0  0  0
    0.1199   -4.3212   10.5251 H   0  0  0  0  0  0  0  0  0  0  0  0
   -0.0018   -3.5586    8.5489 C   0  0  0  0  0  0  0  0  0  0  0  0
    0.9703   -4.6221    8.0835 C   0  0  0  0  0  0  0  0  0  0  0  0
    1.4851   -5.4602    8.7854 O   0  0  0  0  0  0  0  0  0  0  0  0
    1.1797   -4.5462    6.7556 O   0  0  0  0  0  0  0  0  0  0  0  0
    2.0355   -5.5367    6.1742 C   0  0  0  0  0  0  0  0  0  0  0  0
    2.1945   -5.2087    4.6970 C   0  0  2  0  0  0  0  0  0  0  0  0
    2.6215   -4.1851    4.6140 H   0  0  0  0  0  0  0  0  0  0  0  0
    0.8868   -5.2559    3.9001 C   0  0  0  0  0  0  0  0  0  0  0  0
    1.1630   -5.0613    2.4035 C   0  0  0  0  0  0  0  0  0  0  0  0
    2.2466   -6.0392    1.9313 C   0  0  0  0  0  0  0  0  0  0  0  0
    3.4713   -5.9528    2.8423 C   0  0  0  0  0  0  0  0  0  0  0  0
    3.1308   -6.1522    4.2022 O   0  0  0  0  0  0  0  0  0  0  0  0
   -1.1584   -2.7019   10.6017 N   0  0  0  0  0  0  0  0  0  0  0  0
   -1.8959   -3.5028   11.5855 C   0  0  0  0  0  0  0  0  0  0  0  0
   -2.9377   -2.7076   12.3638 C   0  0  0  0  0  0  0  0  0  0  0  0
   -3.7765   -1.8596   11.4125 C   0  0  0  0  0  0  0  0  0  0  0  0
   -2.8555   -0.8824   10.6852 C   0  0  0  0  0  0  0  0  0  0  0  0
   -1.5762   -1.4900   10.1099 C   0  0  0  0  0  0  0  0  0  0  0  0
   -0.9439   -0.8805    9.2563 O   0  0  0  0  0  0  0  0  0  0  0  0
    1.3371   -1.5508   10.0491 H   0  0  0  0  0  0  0  0  0  0  0  0
    2.2306   -3.1023   10.1608 H   0  0  0  0  0  0  0  0  0  0  0  0
    1.3769   -2.4650   11.5847 H   0  0  0  0  0  0  0  0  0  0  0  0
    0.1509   -2.6292    7.9856 H   0  0  0  0  0  0  0  0  0  0  0  0
   -1.0105   -3.9170    8.2760 H   0  0  0  0  0  0  0  0  0  0  0  0
    1.5987   -6.5399    6.3078 H   0  0  0  0  0  0  0  0  0  0  0  0
    3.0162   -5.5321    6.6734 H   0  0  0  0  0  0  0  0  0  0  0  0
    0.1949   -4.4899    4.2838 H   0  0  0  0  0  0  0  0  0  0  0  0
    0.4139   -6.2405    4.0680 H   0  0  0  0  0  0  0  0  0  0  0  0
    1.5041   -4.0244    2.2271 H   0  0  0  0  0  0  0  0  0  0  0  0
    0.2375   -5.1885    1.8184 H   0  0  0  0  0  0  0  0  0  0  0  0
    2.5429   -5.8337    0.8887 H   0  0  0  0  0  0  0  0  0  0  0  0
    1.8554   -7.0713    1.9604 H   0  0  0  0  0  0  0  0  0  0  0  0
    3.9631   -4.9639    2.7185 H   0  0  0  0  0  0  0  0  0  0  0  0
    4.2137   -6.7263    2.5923 H   0  0  0  0  0  0  0  0  0  0  0  0
   -1.1669   -3.9461   12.2845 H   0  0  0  0  0  0  0  0  0  0  0  0
   -2.3875   -4.3532   11.0716 H   0  0  0  0  0  0  0  0  0  0  0  0
   -2.4346   -2.0501   13.0949 H   0  0  0  0  0  0  0  0  0  0  0  0
   -3.5595   -3.4108   12.9409 H   0  0  0  0  0  0  0  0  0  0  0  0
   -4.5667   -1.3153   11.9541 H   0  0  0  0  0  0  0  0  0  0  0  0
   -4.2881   -2.5156   10.6853 H   0  0  0  0  0  0  0  0  0  0  0  0
   -2.5276   -0.0834   11.3743 H   0  0  0  0  0  0  0  0  0  0  0  0
   -3.3523   -0.3707    9.8476 H   0  0  0  0  0  0  0  0  0  0  0  0
  1  2  1  0
  1 23  1  0
  1 24  1  0
  1 25  1  0
  2  3  1  1
  2  4  1  0
  2 16  1  0
  4  5  1  0
  4 26  1  0
  4 27  1  0
  5  6  2  0
  5  7  1  0
  7  8  1  0
  8  9  1  0
  8 28  1  0
  8 29  1  0
  9 10  1  1
  9 11  1  0
  9 15  1  0
 11 12  1  0
 11 30  1  0
 11 31  1  0
 12 13  1  0
 12 32  1  0
 12 33  1  0
 13 14  1  0
 13 34  1  0
 13 35  1  0
 14 15  1  0
 14 36  1  0
 14 37  1  0
 16 17  1  0
 16 21  1  0
 17 18  1  0
 17 38  1  0
 17 39  1  0
 18 19  1  0
 18 40  1  0
 18 41  1  0
 19 20  1  0
 19 42  1  0
 19 43  1  0
 20 21  1  0
 20 44  1  0
 20 45  1  0
 21 22  2  0
M  END

