
     RDKit          3D

 44 46  0  0  0  0  0  0  0  0999 V2000
    9.0221    4.5880   -4.1786 C   0  0  0  0  0  0  0  0  0  0  0  0
    8.5886    3.5730   -3.1506 C   0  0  0  0  0  0  0  0  0  0  0  0
    7.8730    2.4226   -3.5175 C   0  0  0  0  0  0  0  0  0  0  0  0
    7.4613    1.4891   -2.5633 C   0  0  0  0  0  0  0  0  0  0  0  0
    7.7778    1.7031   -1.2200 C   0  0  0  0  0  0  0  0  0  0  0  0
    7.2682    0.4986    0.0112 S   0  0  1  0  0  0  0  0  0  0  0  0
    7.1519    1.2110    1.2884 O   0  0  0  0  0  0  0  0  0  0  0  0
    6.1500   -0.2531   -0.5646 O   0  0  0  0  0  0  0  0  0  0  0  0
    8.5601   -0.5686    0.1712 N   0  0  0  0  0  0  0  0  0  0  0  0
    9.4524   -0.4669    1.3157 C   0  0  0  0  0  0  0  0  0  0  0  0
    9.0947   -1.5317    2.3401 C   0  0  0  0  0  0  0  0  0  0  0  0
    9.0463   -2.8537    1.7051 N   0  0  0  0  0  0  0  0  0  0  0  0
    9.1131   -3.9977    2.5610 C   0  0  0  0  0  0  0  0  0  0  0  0
   10.3370   -4.6353    2.7949 C   0  0  0  0  0  0  0  0  0  0  0  0
   10.4201   -5.7389    3.6449 C   0  0  0  0  0  0  0  0  0  0  0  0
    9.2674   -6.2180    4.2739 C   0  0  0  0  0  0  0  0  0  0  0  0
    8.0364   -5.5982    4.0514 C   0  0  0  0  0  0  0  0  0  0  0  0
    7.9616   -4.4949    3.1965 C   0  0  0  0  0  0  0  0  0  0  0  0
    6.4147   -3.7361    2.9126 Cl  0  0  0  0  0  0  0  0  0  0  0  0
    8.8133   -3.0656    0.3624 C   0  0  0  0  0  0  0  0  0  0  0  0
    8.7979   -4.1797   -0.1259 O   0  0  0  0  0  0  0  0  0  0  0  0
    8.5702   -1.8459   -0.5488 C   0  0  2  0  0  0  0  0  0  0  0  0
    9.5553   -1.8616   -1.7266 C   0  0  0  0  0  0  0  0  0  0  0  0
    8.4736    2.8498   -0.8217 C   0  0  0  0  0  0  0  0  0  0  0  0
    8.8766    3.7702   -1.7879 C   0  0  0  0  0  0  0  0  0  0  0  0
    8.8020    4.2496   -5.2014 H   0  0  0  0  0  0  0  0  0  0  0  0
   10.1040    4.7879   -4.1112 H   0  0  0  0  0  0  0  0  0  0  0  0
    8.5074    5.5515   -4.0251 H   0  0  0  0  0  0  0  0  0  0  0  0
    7.6232    2.2566   -4.5689 H   0  0  0  0  0  0  0  0  0  0  0  0
    6.8830    0.6094   -2.8509 H   0  0  0  0  0  0  0  0  0  0  0  0
    9.3600    0.5264    1.7708 H   0  0  0  0  0  0  0  0  0  0  0  0
   10.4954   -0.5930    0.9730 H   0  0  0  0  0  0  0  0  0  0  0  0
    8.1219   -1.2860    2.8009 H   0  0  0  0  0  0  0  0  0  0  0  0
    9.8522   -1.5592    3.1407 H   0  0  0  0  0  0  0  0  0  0  0  0
   11.2258   -4.2532    2.2881 H   0  0  0  0  0  0  0  0  0  0  0  0
   11.3830   -6.2267    3.8126 H   0  0  0  0  0  0  0  0  0  0  0  0
    9.3218   -7.0820    4.9407 H   0  0  0  0  0  0  0  0  0  0  0  0
    7.1270   -5.9632    4.5314 H   0  0  0  0  0  0  0  0  0  0  0  0
    7.5525   -2.0121   -0.9322 H   0  0  0  0  0  0  0  0  0  0  0  0
   10.5855   -1.6634   -1.3890 H   0  0  0  0  0  0  0  0  0  0  0  0
    9.2814   -1.0914   -2.4621 H   0  0  0  0  0  0  0  0  0  0  0  0
    9.5330   -2.8472   -2.2110 H   0  0  0  0  0  0  0  0  0  0  0  0
    8.6754    3.0242    0.2366 H   0  0  0  0  0  0  0  0  0  0  0  0
    9.4184    4.6681   -1.4769 H   0  0  0  0  0  0  0  0  0  0  0  0
  1  2  1  0
  1 26  1  0
  1 27  1  0
  1 28  1  0
  2  3  2  0
  2 25  1  0
  3  4  1  0
  3 29  1  0
  4  5  2  0
  4 30  1  0
  6  5  1  6
  5 24  1  0
  6  7  2  0
  6  8  2  0
  6  9  1  0
  9 10  1  0
  9 22  1  0
 10 11  1  0
 10 31  1  0
 10 32  1  0
 11 12  1  0
 11 33  1  0
 11 34  1  0
 12 13  1  0
 12 20  1  0
 13 14  2  0
 13 18  1  0
 14 15  1  0
 14 35  1  0
 15 16  2  0
 15 36  1  0
 16 17  1  0
 16 37  1  0
 17 18  2  0
 17 38  1  0
 18 19  1  0
 20 21  2  0
 20 22  1  0
 22 23  1  0
 22 39  1  6
 23 40  1  0
 23 41  1  0
 23 42  1  0
 24 25  2  0
 24 43  1  0
 25 44  1  0
M  END

