
     RDKit          3D

101106  0  0  0  0  0  0  0  0999 V2000
    0.9069   -1.5686    0.8200 C   0  0  0  0  0  0  0  0  0  0  0  0
    2.0277   -1.2010    0.1940 C   0  0  0  0  0  0  0  0  0  0  0  0
    3.1680   -2.1257   -0.1042 C   0  0  0  0  0  0  0  0  0  0  0  0
    4.3642   -1.5039    0.4040 O   0  0  0  0  0  0  0  0  0  0  0  0
    5.5786   -2.1699    0.4452 C   0  0  2  0  0  0  0  0  0  0  0  0
    6.5213   -0.9998    0.5595 O   0  0  0  0  0  0  0  0  0  0  0  0
    6.6833   -0.3920    1.6950 C   0  0  0  0  0  0  0  0  0  0  0  0
    7.4345    0.8291    1.6484 C   0  0  0  0  0  0  0  0  0  0  0  0
    7.6488    1.5564    2.7900 C   0  0  0  0  0  0  0  0  0  0  0  0
    7.1224    1.0717    4.0188 C   0  0  0  0  0  0  0  0  0  0  0  0
    7.2847    1.7218    5.1649 O   0  0  0  0  0  0  0  0  0  0  0  0
    6.4012   -0.1522    4.0732 C   0  0  0  0  0  0  0  0  0  0  0  0
    6.1641   -0.9057    2.9474 C   0  0  0  0  0  0  0  0  0  0  0  0
    5.3970   -2.2098    2.9371 C   0  0  2  0  0  0  0  0  0  0  0  0
    5.4883   -3.0554    4.2264 C   0  0  2  0  0  0  0  0  0  0  0  0
    6.9166   -3.5950    4.4937 C   0  0  0  0  0  0  0  0  0  0  0  0
    7.3494   -3.6395    5.9692 C   0  0  0  0  0  0  0  0  0  0  0  0
    6.5845   -4.6005    6.8840 C   0  0  0  0  0  0  0  0  0  0  0  0
    7.1257   -4.6236    8.3134 C   0  0  0  0  0  0  0  0  0  0  0  0
    6.4736   -5.5624    9.1412 O   0  0  0  0  0  0  0  0  0  0  0  0
    4.4228   -4.1772    4.1264 C   0  0  1  0  0  0  0  0  0  0  0  0
    3.0271   -3.6565    4.5651 C   0  0  0  0  0  0  0  0  0  0  0  0
    1.9360   -4.7294    4.6051 C   0  0  0  0  0  0  0  0  0  0  0  0
    0.5811   -4.2067    5.0893 C   0  0  0  0  0  0  0  0  0  0  0  0
   -0.5138   -5.2716    5.1207 C   0  0  0  0  0  0  0  0  0  0  0  0
   -1.7732   -4.7618    5.5153 O   0  0  0  0  0  0  0  0  0  0  0  0
    4.4237   -4.8494    2.7752 C   0  0  0  0  0  0  0  0  0  0  0  0
    5.0279   -4.3693    1.6066 C   0  0  0  0  0  0  0  0  0  0  0  0
    5.1085   -5.0551    0.3518 C   0  0  0  0  0  0  0  0  0  0  0  0
    4.8155   -6.3199    0.0172 N   0  0  0  0  0  0  0  0  0  0  0  0
    4.5212   -7.1406    1.1315 O   0  0  0  0  0  0  0  0  0  0  0  0
    4.2873   -8.4592    0.6817 C   0  0  1  0  0  0  0  0  0  0  0  0
    5.5763   -9.1290    0.1873 C   0  0  0  0  0  0  0  0  0  0  0  0
    6.5482   -9.3718    1.3468 C   0  0  0  0  0  0  0  0  0  0  0  0
    5.8326  -10.1151    2.4815 C   0  0  0  0  0  0  0  0  0  0  0  0
    4.5503   -9.3765    2.8642 C   0  0  0  0  0  0  0  0  0  0  0  0
    3.7023   -9.1677    1.7414 O   0  0  0  0  0  0  0  0  0  0  0  0
    5.3790   -4.2933   -0.9439 C   0  0  0  0  0  0  0  0  0  0  0  0
    6.0521   -2.9211   -0.8047 C   0  0  1  0  0  0  0  0  0  0  0  0
    5.8339   -2.0172   -2.3971 S   0  0  0  0  0  0  0  0  0  0  0  0
    7.2547   -0.8580   -2.4293 C   0  0  0  0  0  0  0  0  0  0  0  0
    7.5898   -0.4784   -3.8812 C   0  0  0  0  0  0  0  0  0  0  0  0
    8.6970    0.5487   -3.9446 C   0  0  0  0  0  0  0  0  0  0  0  0
   10.0484    0.1742   -3.9636 C   0  0  0  0  0  0  0  0  0  0  0  0
   11.0352    1.1644   -3.9702 C   0  0  0  0  0  0  0  0  0  0  0  0
   10.7699    2.4735   -3.9588 N   0  0  0  0  0  0  0  0  0  0  0  0
    9.4846    2.8353   -3.9475 C   0  0  0  0  0  0  0  0  0  0  0  0
    8.4241    1.9246   -3.9390 C   0  0  0  0  0  0  0  0  0  0  0  0
    5.7745   -3.0356    1.6940 C   0  0  1  0  0  0  0  0  0  0  0  0
    0.0826   -0.8669    0.9758 H   0  0  0  0  0  0  0  0  0  0  0  0
    0.7660   -2.5898    1.1889 H   0  0  0  0  0  0  0  0  0  0  0  0
    2.1487   -0.1717   -0.1656 H   0  0  0  0  0  0  0  0  0  0  0  0
    3.2685   -2.2515   -1.1956 H   0  0  0  0  0  0  0  0  0  0  0  0
    3.0185   -3.1099    0.3612 H   0  0  0  0  0  0  0  0  0  0  0  0
    7.8100    1.1563    0.6790 H   0  0  0  0  0  0  0  0  0  0  0  0
    8.2093    2.4942    2.7636 H   0  0  0  0  0  0  0  0  0  0  0  0
    7.7921    2.5392    5.0428 H   0  0  0  0  0  0  0  0  0  0  0  0
    6.0482   -0.4779    5.0503 H   0  0  0  0  0  0  0  0  0  0  0  0
    4.3431   -1.9109    2.8098 H   0  0  0  0  0  0  0  0  0  0  0  0
    5.2037   -2.4107    5.0771 H   0  0  0  0  0  0  0  0  0  0  0  0
    7.6600   -2.9735    3.9646 H   0  0  0  0  0  0  0  0  0  0  0  0
    7.0054   -4.5995    4.0485 H   0  0  0  0  0  0  0  0  0  0  0  0
    7.2940   -2.6190    6.3958 H   0  0  0  0  0  0  0  0  0  0  0  0
    8.4200   -3.9126    6.0005 H   0  0  0  0  0  0  0  0  0  0  0  0
    6.6243   -5.6260    6.4788 H   0  0  0  0  0  0  0  0  0  0  0  0
    5.5148   -4.3237    6.9192 H   0  0  0  0  0  0  0  0  0  0  0  0
    7.0829   -3.5994    8.7444 H   0  0  0  0  0  0  0  0  0  0  0  0
    8.1905   -4.9125    8.3058 H   0  0  0  0  0  0  0  0  0  0  0  0
    5.5299   -5.3548    9.1451 H   0  0  0  0  0  0  0  0  0  0  0  0
    4.6921   -4.9346    4.8877 H   0  0  0  0  0  0  0  0  0  0  0  0
    2.6988   -2.8460    3.8883 H   0  0  0  0  0  0  0  0  0  0  0  0
    3.1140   -3.2040    5.5737 H   0  0  0  0  0  0  0  0  0  0  0  0
    2.2666   -5.5590    5.2584 H   0  0  0  0  0  0  0  0  0  0  0  0
    1.8226   -5.1658    3.5990 H   0  0  0  0  0  0  0  0  0  0  0  0
    0.2378   -3.3788    4.4435 H   0  0  0  0  0  0  0  0  0  0  0  0
    0.6880   -3.7767    6.1053 H   0  0  0  0  0  0  0  0  0  0  0  0
   -0.1958   -6.1170    5.7669 H   0  0  0  0  0  0  0  0  0  0  0  0
   -0.6562   -5.6903    4.1107 H   0  0  0  0  0  0  0  0  0  0  0  0
   -1.6815   -4.4104    6.4106 H   0  0  0  0  0  0  0  0  0  0  0  0
    3.9290   -5.8138    2.7135 H   0  0  0  0  0  0  0  0  0  0  0  0
    3.5334   -8.4321   -0.1250 H   0  0  0  0  0  0  0  0  0  0  0  0
    6.0170   -8.4799   -0.5831 H   0  0  0  0  0  0  0  0  0  0  0  0
    5.3030  -10.0875   -0.2880 H   0  0  0  0  0  0  0  0  0  0  0  0
    6.9113   -8.3985    1.7193 H   0  0  0  0  0  0  0  0  0  0  0  0
    7.4324   -9.9354    1.0038 H   0  0  0  0  0  0  0  0  0  0  0  0
    6.4806  -10.2147    3.3700 H   0  0  0  0  0  0  0  0  0  0  0  0
    5.5742  -11.1378    2.1523 H   0  0  0  0  0  0  0  0  0  0  0  0
    4.8003   -8.4076    3.3350 H   0  0  0  0  0  0  0  0  0  0  0  0
    3.9545   -9.9590    3.5847 H   0  0  0  0  0  0  0  0  0  0  0  0
    4.4312   -4.1787   -1.5013 H   0  0  0  0  0  0  0  0  0  0  0  0
    6.0107   -4.9107   -1.6005 H   0  0  0  0  0  0  0  0  0  0  0  0
    7.1345   -3.0680   -0.6623 H   0  0  0  0  0  0  0  0  0  0  0  0
    8.1213   -1.3452   -1.9546 H   0  0  0  0  0  0  0  0  0  0  0  0
    7.0203    0.0461   -1.8484 H   0  0  0  0  0  0  0  0  0  0  0  0
    6.6860   -0.0783   -4.3696 H   0  0  0  0  0  0  0  0  0  0  0  0
    7.8772   -1.3872   -4.4330 H   0  0  0  0  0  0  0  0  0  0  0  0
   10.3338   -0.8815   -3.9801 H   0  0  0  0  0  0  0  0  0  0  0  0
   12.0945    0.8800   -3.9884 H   0  0  0  0  0  0  0  0  0  0  0  0
    9.2797    3.9131   -3.9486 H   0  0  0  0  0  0  0  0  0  0  0  0
    7.3921    2.2870   -3.9371 H   0  0  0  0  0  0  0  0  0  0  0  0
    6.8623   -3.2379    1.7434 H   0  0  0  0  0  0  0  0  0  0  0  0
  1  2  2  0
  1 50  1  0
  1 51  1  0
  2  3  1  0
  2 52  1  0
  3  4  1  0
  3 53  1  0
  3 54  1  0
  5  4  1  6
  5  6  1  0
  5 39  1  0
  5 49  1  0
  6  7  1  0
  7  8  2  0
  7 13  1  0
  8  9  1  0
  8 55  1  0
  9 10  2  0
  9 56  1  0
 10 11  1  0
 10 12  1  0
 11 57  1  0
 12 13  2  0
 12 58  1  0
 13 14  1  0
 14 15  1  0
 14 49  1  0
 14 59  1  6
 15 16  1  0
 15 21  1  0
 15 60  1  1
 16 17  1  0
 16 61  1  0
 16 62  1  0
 17 18  1  0
 17 63  1  0
 17 64  1  0
 18 19  1  0
 18 65  1  0
 18 66  1  0
 19 20  1  0
 19 67  1  0
 19 68  1  0
 20 69  1  0
 21 22  1  0
 21 27  1  0
 21 70  1  1
 22 23  1  0
 22 71  1  0
 22 72  1  0
 23 24  1  0
 23 73  1  0
 23 74  1  0
 24 25  1  0
 24 75  1  0
 24 76  1  0
 25 26  1  0
 25 77  1  0
 25 78  1  0
 26 79  1  0
 27 28  2  0
 27 80  1  0
 28 29  1  0
 28 49  1  0
 29 30  2  0
 29 38  1  0
 30 31  1  0
 31 32  1  0
 32 33  1  0
 32 37  1  0
 32 81  1  6
 33 34  1  0
 33 82  1  0
 33 83  1  0
 34 35  1  0
 34 84  1  0
 34 85  1  0
 35 36  1  0
 35 86  1  0
 35 87  1  0
 36 37  1  0
 36 88  1  0
 36 89  1  0
 38 39  1  0
 38 90  1  0
 38 91  1  0
 39 40  1  0
 39 92  1  1
 40 41  1  0
 41 42  1  0
 41 93  1  0
 41 94  1  0
 42 43  1  0
 42 95  1  0
 42 96  1  0
 43 44  2  0
 43 48  1  0
 44 45  1  0
 44 97  1  0
 45 46  2  0
 45 98  1  0
 46 47  1  0
 47 48  2  0
 47 99  1  0
 48100  1  0
 49101  1  1
M  END

