
     RDKit          3D

 40 40  0  0  0  0  0  0  0  0999 V2000
    5.9235   -3.2331   -2.0368 C   0  0  0  0  0  0  0  0  0  0  0  0
    5.1011   -1.9581   -2.2376 C   0  0  0  0  0  0  0  0  0  0  0  0
    5.2739   -0.9609   -1.0879 C   0  0  0  0  0  0  0  0  0  0  0  0
    4.5722    0.4136   -1.2504 C   0  0  1  0  0  0  0  0  0  0  0  0
    3.0509    0.2363   -1.4009 C   0  0  0  0  0  0  0  0  0  0  0  0
    4.8532    1.2692    0.0055 C   0  0  0  0  0  0  0  0  0  0  0  0
    5.0354    1.0823   -2.4782 N   0  0  0  0  0  0  0  0  0  0  0  0
    6.3890    1.4283   -2.7096 C   0  0  0  0  0  0  0  0  0  0  0  0
    7.2919    1.1887   -1.8659 O   0  0  0  0  0  0  0  0  0  0  0  0
    6.6571    2.0120   -4.0260 C   0  0  0  0  0  0  0  0  0  0  0  0
    5.7604    1.8323   -5.1137 C   0  0  0  0  0  0  0  0  0  0  0  0
    6.0233    2.2068   -6.4498 C   0  0  0  0  0  0  0  0  0  0  0  0
    7.2255    2.7971   -6.8025 C   0  0  0  0  0  0  0  0  0  0  0  0
    8.1410    3.0615   -5.7421 C   0  0  0  0  0  0  0  0  0  0  0  0
    9.3148    3.6957   -6.0063 N   0  0  0  0  0  0  0  0  0  0  0  0
    7.8719    2.7122   -4.3785 C   0  0  0  0  0  0  0  0  0  0  0  0
    8.8557    3.0939   -3.5353 O   0  0  0  0  0  0  0  0  0  0  0  0
    8.5574    3.7422   -2.2880 C   0  0  0  0  0  0  0  0  0  0  0  0
    5.7902   -3.9390   -2.8732 H   0  0  0  0  0  0  0  0  0  0  0  0
    5.6343   -3.7590   -1.1105 H   0  0  0  0  0  0  0  0  0  0  0  0
    6.9995   -3.0044   -1.9608 H   0  0  0  0  0  0  0  0  0  0  0  0
    4.0374   -2.2312   -2.3549 H   0  0  0  0  0  0  0  0  0  0  0  0
    5.3972   -1.4727   -3.1824 H   0  0  0  0  0  0  0  0  0  0  0  0
    6.3465   -0.7626   -0.9458 H   0  0  0  0  0  0  0  0  0  0  0  0
    4.9025   -1.4149   -0.1511 H   0  0  0  0  0  0  0  0  0  0  0  0
    2.6355   -0.3027   -0.5353 H   0  0  0  0  0  0  0  0  0  0  0  0
    2.7954   -0.3238   -2.3128 H   0  0  0  0  0  0  0  0  0  0  0  0
    2.5464    1.2169   -1.4526 H   0  0  0  0  0  0  0  0  0  0  0  0
    4.4639    0.7777    0.9126 H   0  0  0  0  0  0  0  0  0  0  0  0
    4.3638    2.2542   -0.0822 H   0  0  0  0  0  0  0  0  0  0  0  0
    5.9342    1.4247    0.1179 H   0  0  0  0  0  0  0  0  0  0  0  0
    4.3634    1.7606   -2.8282 H   0  0  0  0  0  0  0  0  0  0  0  0
    4.8322    1.2960   -4.9105 H   0  0  0  0  0  0  0  0  0  0  0  0
    5.2764    1.9794   -7.2142 H   0  0  0  0  0  0  0  0  0  0  0  0
    7.4869    3.0377   -7.8344 H   0  0  0  0  0  0  0  0  0  0  0  0
    9.5514    3.9946   -6.9433 H   0  0  0  0  0  0  0  0  0  0  0  0
    9.9523    3.8638   -5.2344 H   0  0  0  0  0  0  0  0  0  0  0  0
    9.5240    4.0941   -1.9021 H   0  0  0  0  0  0  0  0  0  0  0  0
    8.1034    3.0229   -1.5954 H   0  0  0  0  0  0  0  0  0  0  0  0
    7.8957    4.6101   -2.4613 H   0  0  0  0  0  0  0  0  0  0  0  0
  1  2  1  0
  1 19  1  0
  1 20  1  0
  1 21  1  0
  2  3  1  0
  2 22  1  0
  2 23  1  0
  3  4  1  0
  3 24  1  0
  3 25  1  0
  4  5  1  0
  4  6  1  0
  4  7  1  6
  5 26  1  0
  5 27  1  0
  5 28  1  0
  6 29  1  0
  6 30  1  0
  6 31  1  0
  7  8  1  0
  7 32  1  0
  8  9  2  0
  8 10  1  0
 10 11  2  0
 10 16  1  0
 11 12  1  0
 11 33  1  0
 12 13  2  0
 12 34  1  0
 13 14  1  0
 13 35  1  0
 14 15  1  0
 14 16  2  0
 15 36  1  0
 15 37  1  0
 16 17  1  0
 17 18  1  0
 18 38  1  0
 18 39  1  0
 18 40  1  0
M  END

