
     RDKit          3D

 53 56  0  0  0  0  0  0  0  0999 V2000
    1.4408   -0.0046    1.0933 O   0  0  0  0  0  0  0  0  0  0  0  0
    2.5677    0.0163    0.6159 C   0  0  0  0  0  0  0  0  0  0  0  0
    3.2781    1.3438    0.3537 C   0  0  0  0  0  0  0  0  0  0  0  0
    2.3937    2.5285    0.7346 C   0  0  0  0  0  0  0  0  0  0  0  0
    3.0778    3.8317    0.5147 C   0  0  0  0  0  0  0  0  0  0  0  0
    4.2837    4.0633    0.1070 N   0  0  0  0  0  0  0  0  0  0  0  0
    4.4349    5.4443    0.0694 N   0  0  0  0  0  0  0  0  0  0  0  0
    3.3105    5.9536    0.4564 C   0  0  0  0  0  0  0  0  0  0  0  0
    2.9197    7.3801    0.6341 C   0  0  1  0  0  0  0  0  0  0  0  0
    2.7111    7.8024    2.1108 C   0  0  0  0  0  0  0  0  0  0  0  0
    2.7773    9.3311    2.0322 C   0  0  0  0  0  0  0  0  0  0  0  0
    3.9447    9.5959    1.0611 C   0  0  0  0  0  0  0  0  0  0  0  0
    3.9582    8.3919    0.0786 C   0  0  0  0  0  0  0  0  0  0  0  0
    2.3971    4.9852    0.7564 O   0  0  0  0  0  0  0  0  0  0  0  0
    3.2426   -1.1373    0.2944 N   0  0  0  0  0  0  0  0  0  0  0  0
    2.6055   -2.4250    0.5530 C   0  0  0  0  0  0  0  0  0  0  0  0
    2.6154   -3.3120   -0.6981 C   0  0  0  0  0  0  0  0  0  0  0  0
    4.0189   -3.4616   -1.3055 C   0  0  2  0  0  0  0  0  0  0  0  0
    4.8460   -4.3098   -0.4470 N   0  0  0  0  0  0  0  0  0  0  0  0
    5.9512   -4.9860   -0.8849 C   0  0  0  0  0  0  0  0  0  0  0  0
    6.6515   -5.8819   -0.0338 C   0  0  0  0  0  0  0  0  0  0  0  0
    7.7515   -6.5191   -0.5640 C   0  0  0  0  0  0  0  0  0  0  0  0
    8.0938   -6.2362   -1.9004 C   0  0  0  0  0  0  0  0  0  0  0  0
    7.4007   -5.3861   -2.6476 N   0  0  0  0  0  0  0  0  0  0  0  0
    6.3435   -4.7626   -2.1524 N   0  0  0  0  0  0  0  0  0  0  0  0
    4.6396   -2.0662   -1.5180 C   0  0  0  0  0  0  0  0  0  0  0  0
    4.6007   -1.2220   -0.2409 C   0  0  0  0  0  0  0  0  0  0  0  0
    3.5710    1.4204   -0.7058 H   0  0  0  0  0  0  0  0  0  0  0  0
    4.2239    1.3854    0.9181 H   0  0  0  0  0  0  0  0  0  0  0  0
    2.0819    2.4486    1.7890 H   0  0  0  0  0  0  0  0  0  0  0  0
    1.4526    2.5070    0.1613 H   0  0  0  0  0  0  0  0  0  0  0  0
    1.9546    7.5178    0.1147 H   0  0  0  0  0  0  0  0  0  0  0  0
    3.5426    7.4159    2.7257 H   0  0  0  0  0  0  0  0  0  0  0  0
    1.7729    7.4147    2.5365 H   0  0  0  0  0  0  0  0  0  0  0  0
    2.9125    9.8097    3.0147 H   0  0  0  0  0  0  0  0  0  0  0  0
    1.8330    9.7172    1.6102 H   0  0  0  0  0  0  0  0  0  0  0  0
    4.8928    9.6339    1.6217 H   0  0  0  0  0  0  0  0  0  0  0  0
    3.8468   10.5621    0.5432 H   0  0  0  0  0  0  0  0  0  0  0  0
    4.9496    7.9208    0.0283 H   0  0  0  0  0  0  0  0  0  0  0  0
    3.6972    8.6875   -0.9487 H   0  0  0  0  0  0  0  0  0  0  0  0
    1.5819   -2.2237    0.8911 H   0  0  0  0  0  0  0  0  0  0  0  0
    3.1294   -2.9266    1.3923 H   0  0  0  0  0  0  0  0  0  0  0  0
    1.9590   -2.8583   -1.4578 H   0  0  0  0  0  0  0  0  0  0  0  0
    2.1932   -4.3030   -0.4598 H   0  0  0  0  0  0  0  0  0  0  0  0
    3.9523   -3.9566   -2.2868 H   0  0  0  0  0  0  0  0  0  0  0  0
    4.5089   -4.5325    0.4800 H   0  0  0  0  0  0  0  0  0  0  0  0
    6.3225   -6.0527    0.9949 H   0  0  0  0  0  0  0  0  0  0  0  0
    8.3415   -7.2231    0.0280 H   0  0  0  0  0  0  0  0  0  0  0  0
    8.9535   -6.7083   -2.3848 H   0  0  0  0  0  0  0  0  0  0  0  0
    4.0741   -1.5499   -2.3127 H   0  0  0  0  0  0  0  0  0  0  0  0
    5.6738   -2.1795   -1.8747 H   0  0  0  0  0  0  0  0  0  0  0  0
    4.9934   -0.2187   -0.4384 H   0  0  0  0  0  0  0  0  0  0  0  0
    5.2621   -1.6789    0.5209 H   0  0  0  0  0  0  0  0  0  0  0  0
  1  2  2  0
  2  3  1  0
  2 15  1  0
  3  4  1  0
  3 28  1  0
  3 29  1  0
  4  5  1  0
  4 30  1  0
  4 31  1  0
  5  6  2  0
  5 14  1  0
  6  7  1  0
  7  8  2  0
  8  9  1  0
  8 14  1  0
  9 10  1  0
  9 13  1  0
  9 32  1  6
 10 11  1  0
 10 33  1  0
 10 34  1  0
 11 12  1  0
 11 35  1  0
 11 36  1  0
 12 13  1  0
 12 37  1  0
 12 38  1  0
 13 39  1  0
 13 40  1  0
 15 16  1  0
 15 27  1  0
 16 17  1  0
 16 41  1  0
 16 42  1  0
 17 18  1  0
 17 43  1  0
 17 44  1  0
 18 19  1  0
 18 26  1  0
 18 45  1  6
 19 20  1  0
 19 46  1  0
 20 21  2  0
 20 25  1  0
 21 22  1  0
 21 47  1  0
 22 23  2  0
 22 48  1  0
 23 24  1  0
 23 49  1  0
 24 25  2  0
 26 27  1  0
 26 50  1  0
 26 51  1  0
 27 52  1  0
 27 53  1  0
M  END

