
     RDKit          3D

 23 23  0  0  0  0  0  0  0  0999 V2000
    2.9403    1.1325   -1.5427 C   0  0  0  0  0  0  0  0  0  0  0  0
    3.2962    0.1949   -0.5174 O   0  0  0  0  0  0  0  0  0  0  0  0
    3.8727   -0.9275   -0.8733 C   0  0  0  0  0  0  0  0  0  0  0  0
    4.3274   -1.8008    0.1142 C   0  0  0  0  0  0  0  0  0  0  0  0
    5.1938   -2.9656   -0.1903 C   0  0  0  0  0  0  0  0  0  0  0  0
    6.5636   -2.3379   -0.4667 C   0  0  0  0  0  0  0  0  0  0  0  0
    7.5137   -2.2476    0.5317 C   0  0  0  0  0  0  0  0  0  0  0  0
    8.7541   -1.5829    0.3228 C   0  0  0  0  0  0  0  0  0  0  0  0
    8.9312   -0.9559   -0.9470 C   0  0  0  0  0  0  0  0  0  0  0  0
   10.5558    0.0418   -1.2288 Br  0  0  0  0  0  0  0  0  0  0  0  0
    7.9891   -0.9931   -1.9517 C   0  0  0  0  0  0  0  0  0  0  0  0
    6.7379   -1.6670   -1.7427 C   0  0  0  0  0  0  0  0  0  0  0  0
    2.3725    1.9301   -1.0518 H   0  0  0  0  0  0  0  0  0  0  0  0
    2.3233    0.6412   -2.3103 H   0  0  0  0  0  0  0  0  0  0  0  0
    3.8574    1.5386   -1.9941 H   0  0  0  0  0  0  0  0  0  0  0  0
    3.9898   -1.1400   -1.9381 H   0  0  0  0  0  0  0  0  0  0  0  0
    4.1593   -1.4901    1.1500 H   0  0  0  0  0  0  0  0  0  0  0  0
    4.8333   -3.5090   -1.0826 H   0  0  0  0  0  0  0  0  0  0  0  0
    5.2241   -3.6595    0.6598 H   0  0  0  0  0  0  0  0  0  0  0  0
    7.3127   -2.6948    1.5124 H   0  0  0  0  0  0  0  0  0  0  0  0
    9.5412   -1.5829    1.0735 H   0  0  0  0  0  0  0  0  0  0  0  0
    8.1928   -0.4965   -2.9034 H   0  0  0  0  0  0  0  0  0  0  0  0
    6.1683   -2.0121   -2.6173 H   0  0  0  0  0  0  0  0  0  0  0  0
  1  2  1  0
  1 13  1  0
  1 14  1  0
  1 15  1  0
  2  3  1  0
  3  4  2  0
  3 16  1  0
  4  5  1  0
  4 17  1  0
  5  6  1  0
  5 18  1  0
  5 19  1  0
  6  7  2  0
  6 12  1  0
  7  8  1  0
  7 20  1  0
  8  9  2  0
  8 21  1  0
  9 10  1  0
  9 11  1  0
 11 12  2  0
 11 22  1  0
 12 23  1  0
M  END

