
     RDKit          3D

 31 33  0  0  0  0  0  0  0  0999 V2000
    1.6473    0.7057   -0.3084 N   0  0  0  0  0  0  0  0  0  0  0  0
    2.7998    0.5029   -0.2790 C   0  0  0  0  0  0  0  0  0  0  0  0
    4.1698    0.1799   -0.2441 C   0  0  0  0  0  0  0  0  0  0  0  0
    5.1810    1.1032   -0.1804 N   0  0  0  0  0  0  0  0  0  0  0  0
    6.3166    0.3144   -0.1647 N   0  0  0  0  0  0  0  0  0  0  0  0
    7.5850    0.8676   -0.1065 C   0  0  0  0  0  0  0  0  0  0  0  0
    7.7199    2.2808   -0.0637 C   0  0  0  0  0  0  0  0  0  0  0  0
    8.9903    2.8465   -0.0045 C   0  0  0  0  0  0  0  0  0  0  0  0
   10.1160    2.0234    0.0122 C   0  0  0  0  0  0  0  0  0  0  0  0
   11.3416    2.5753    0.0693 F   0  0  0  0  0  0  0  0  0  0  0  0
    9.9983    0.6273   -0.0291 C   0  0  0  0  0  0  0  0  0  0  0  0
    8.7388    0.0464   -0.0880 C   0  0  0  0  0  0  0  0  0  0  0  0
    6.0924   -1.0151   -0.2126 N   0  0  0  0  0  0  0  0  0  0  0  0
    4.7735   -1.1107   -0.2605 C   0  0  0  0  0  0  0  0  0  0  0  0
    4.1826   -2.3636   -0.3125 N   0  0  0  0  0  0  0  0  0  0  0  0
    4.9686   -3.5906   -0.2837 C   0  0  0  0  0  0  0  0  0  0  0  0
    3.9693   -4.6752   -0.6990 C   0  0  0  0  0  0  0  0  0  0  0  0
    2.6263   -4.1253   -0.1937 C   0  0  0  0  0  0  0  0  0  0  0  0
    2.7529   -2.6148   -0.4253 C   0  0  0  0  0  0  0  0  0  0  0  0
    6.8222    2.8968   -0.0782 H   0  0  0  0  0  0  0  0  0  0  0  0
    9.1221    3.9302    0.0291 H   0  0  0  0  0  0  0  0  0  0  0  0
   10.9026    0.0155   -0.0137 H   0  0  0  0  0  0  0  0  0  0  0  0
    8.6260   -1.0368   -0.1193 H   0  0  0  0  0  0  0  0  0  0  0  0
    5.3514   -3.7432    0.7452 H   0  0  0  0  0  0  0  0  0  0  0  0
    5.8539   -3.4843   -0.9281 H   0  0  0  0  0  0  0  0  0  0  0  0
    4.2241   -5.6574   -0.2776 H   0  0  0  0  0  0  0  0  0  0  0  0
    3.9581   -4.7742   -1.7968 H   0  0  0  0  0  0  0  0  0  0  0  0
    2.5061   -4.3297    0.8826 H   0  0  0  0  0  0  0  0  0  0  0  0
    1.7560   -4.5501   -0.7124 H   0  0  0  0  0  0  0  0  0  0  0  0
    2.1869   -1.9885    0.2810 H   0  0  0  0  0  0  0  0  0  0  0  0
    2.4124   -2.3152   -1.4365 H   0  0  0  0  0  0  0  0  0  0  0  0
  1  2  3  0
  2  3  1  0
  3  4  2  0
  3 14  1  0
  4  5  1  0
  5  6  1  0
  5 13  1  0
  6  7  2  0
  6 12  1  0
  7  8  1  0
  7 20  1  0
  8  9  2  0
  8 21  1  0
  9 10  1  0
  9 11  1  0
 11 12  2  0
 11 22  1  0
 12 23  1  0
 13 14  2  0
 14 15  1  0
 15 16  1  0
 15 19  1  0
 16 17  1  0
 16 24  1  0
 16 25  1  0
 17 18  1  0
 17 26  1  0
 17 27  1  0
 18 19  1  0
 18 28  1  0
 18 29  1  0
 19 30  1  0
 19 31  1  0
M  END

