
     RDKit          3D

 67 69  0  0  0  0  0  0  0  0999 V2000
   11.2471   -0.6991   -5.0545 C   0  0  0  0  0  0  0  0  0  0  0  0
   10.0447    0.0023   -4.4734 C   0  0  0  0  0  0  0  0  0  0  0  0
    9.9004    1.3896   -4.6002 C   0  0  0  0  0  0  0  0  0  0  0  0
    8.7952    2.0614   -4.0710 C   0  0  0  0  0  0  0  0  0  0  0  0
    7.8037    1.3452   -3.3937 C   0  0  0  0  0  0  0  0  0  0  0  0
    6.6844    2.0298   -2.8123 N   0  0  0  0  0  0  0  0  0  0  0  0
    6.7128    2.3117   -1.3629 C   0  0  0  0  0  0  0  0  0  0  0  0
    7.6991    3.4140   -0.9671 C   0  0  0  0  0  0  0  0  0  0  0  0
    7.3929    4.7898   -1.5611 C   0  0  0  0  0  0  0  0  0  0  0  0
    6.0754    5.3733   -1.0321 C   0  0  0  0  0  0  0  0  0  0  0  0
    5.6761    5.1141    0.0962 O   0  0  0  0  0  0  0  0  0  0  0  0
    5.4118    6.1868   -1.8953 N   0  0  0  0  0  0  0  0  0  0  0  0
    4.0964    6.8003   -1.6160 C   0  0  0  0  0  0  0  0  0  0  0  0
    3.1471    6.7234   -2.7702 C   0  0  0  0  0  0  0  0  0  0  0  0
    2.5729    5.4572   -3.1784 C   0  0  0  0  0  0  0  0  0  0  0  0
    1.6505    5.3919   -4.1993 C   0  0  0  0  0  0  0  0  0  0  0  0
    1.2217    6.5612   -4.9121 C   0  0  0  0  0  0  0  0  0  0  0  0
    0.0842    6.5087   -5.8587 C   0  0  0  0  0  0  0  0  0  0  0  0
   -1.2780    6.6827   -5.2637 N   0  0  0  0  0  0  0  0  0  0  0  0
   -1.5254    6.9019   -3.8559 C   0  0  0  0  0  0  0  0  0  0  0  0
   -3.0459    6.7802   -3.6989 C   0  0  0  0  0  0  0  0  0  0  0  0
   -3.5791    7.1871   -5.0839 C   0  0  0  0  0  0  0  0  0  0  0  0
   -2.5054    6.6380   -6.0322 C   0  0  0  0  0  0  0  0  0  0  0  0
    1.8077    7.8287   -4.5135 C   0  0  0  0  0  0  0  0  0  0  0  0
    2.7343    7.8815   -3.4909 C   0  0  0  0  0  0  0  0  0  0  0  0
    5.1818    1.8797   -3.5972 S   0  0  1  0  0  0  0  0  0  0  0  0
    5.1411    3.2972   -4.7001 C   0  0  0  0  0  0  0  0  0  0  0  0
    5.2044    0.6818   -4.4417 O   0  0  0  0  0  0  0  0  0  0  0  0
    4.1306    2.0598   -2.5902 O   0  0  0  0  0  0  0  0  0  0  0  0
    7.9397   -0.0452   -3.2661 C   0  0  0  0  0  0  0  0  0  0  0  0
    9.0399   -0.7288   -3.7932 C   0  0  0  0  0  0  0  0  0  0  0  0
    9.1469   -2.2264   -3.6423 C   0  0  0  0  0  0  0  0  0  0  0  0
   11.9249    0.0110   -5.5502 H   0  0  0  0  0  0  0  0  0  0  0  0
   10.9542   -1.4599   -5.7982 H   0  0  0  0  0  0  0  0  0  0  0  0
   11.8245   -1.2290   -4.2776 H   0  0  0  0  0  0  0  0  0  0  0  0
   10.6722    1.9595   -5.1255 H   0  0  0  0  0  0  0  0  0  0  0  0
    8.7007    3.1440   -4.1775 H   0  0  0  0  0  0  0  0  0  0  0  0
    6.9653    1.3842   -0.8173 H   0  0  0  0  0  0  0  0  0  0  0  0
    5.6970    2.5945   -1.0588 H   0  0  0  0  0  0  0  0  0  0  0  0
    8.7267    3.1159   -1.2340 H   0  0  0  0  0  0  0  0  0  0  0  0
    7.6579    3.4986    0.1303 H   0  0  0  0  0  0  0  0  0  0  0  0
    7.3866    4.7514   -2.6630 H   0  0  0  0  0  0  0  0  0  0  0  0
    8.1966    5.4929   -1.2787 H   0  0  0  0  0  0  0  0  0  0  0  0
    5.7976    6.3471   -2.8189 H   0  0  0  0  0  0  0  0  0  0  0  0
    4.2455    7.8556   -1.3210 H   0  0  0  0  0  0  0  0  0  0  0  0
    3.7321    6.2684   -0.7208 H   0  0  0  0  0  0  0  0  0  0  0  0
    2.8861    4.5350   -2.6805 H   0  0  0  0  0  0  0  0  0  0  0  0
    1.2423    4.4121   -4.4790 H   0  0  0  0  0  0  0  0  0  0  0  0
    0.0027    5.5467   -6.4003 H   0  0  0  0  0  0  0  0  0  0  0  0
    0.1222    7.2913   -6.6411 H   0  0  0  0  0  0  0  0  0  0  0  0
   -1.1375    7.9103   -3.6174 H   0  0  0  0  0  0  0  0  0  0  0  0
   -0.9030    6.2149   -3.2668 H   0  0  0  0  0  0  0  0  0  0  0  0
   -3.4322    7.4061   -2.8838 H   0  0  0  0  0  0  0  0  0  0  0  0
   -3.3170    5.7361   -3.4728 H   0  0  0  0  0  0  0  0  0  0  0  0
   -3.6271    8.2844   -5.1740 H   0  0  0  0  0  0  0  0  0  0  0  0
   -4.5786    6.7895   -5.3062 H   0  0  0  0  0  0  0  0  0  0  0  0
   -2.3773    7.1819   -6.9807 H   0  0  0  0  0  0  0  0  0  0  0  0
   -2.6925    5.5781   -6.2980 H   0  0  0  0  0  0  0  0  0  0  0  0
    1.5427    8.7468   -5.0496 H   0  0  0  0  0  0  0  0  0  0  0  0
    3.1712    8.8509   -3.2224 H   0  0  0  0  0  0  0  0  0  0  0  0
    5.9997    3.2303   -5.3803 H   0  0  0  0  0  0  0  0  0  0  0  0
    5.1544    4.2128   -4.0973 H   0  0  0  0  0  0  0  0  0  0  0  0
    4.1958    3.2348   -5.2551 H   0  0  0  0  0  0  0  0  0  0  0  0
    7.1501   -0.6021   -2.7574 H   0  0  0  0  0  0  0  0  0  0  0  0
    8.2883   -2.6347   -3.0903 H   0  0  0  0  0  0  0  0  0  0  0  0
   10.0646   -2.5173   -3.1030 H   0  0  0  0  0  0  0  0  0  0  0  0
    9.1859   -2.7316   -4.6226 H   0  0  0  0  0  0  0  0  0  0  0  0
  1  2  1  0
  1 33  1  0
  1 34  1  0
  1 35  1  0
  2  3  2  0
  2 31  1  0
  3  4  1  0
  3 36  1  0
  4  5  2  0
  4 37  1  0
  5  6  1  0
  5 30  1  0
  6  7  1  0
 26  6  1  1
  7  8  1  0
  7 38  1  0
  7 39  1  0
  8  9  1  0
  8 40  1  0
  8 41  1  0
  9 10  1  0
  9 42  1  0
  9 43  1  0
 10 11  2  0
 10 12  1  0
 12 13  1  0
 12 44  1  0
 13 14  1  0
 13 45  1  0
 13 46  1  0
 14 15  2  0
 14 25  1  0
 15 16  1  0
 15 47  1  0
 16 17  2  0
 16 48  1  0
 17 18  1  0
 17 24  1  0
 18 19  1  0
 18 49  1  0
 18 50  1  0
 19 20  1  0
 19 23  1  0
 20 21  1  0
 20 51  1  0
 20 52  1  0
 21 22  1  0
 21 53  1  0
 21 54  1  0
 22 23  1  0
 22 55  1  0
 22 56  1  0
 23 57  1  0
 23 58  1  0
 24 25  2  0
 24 59  1  0
 25 60  1  0
 26 27  1  0
 26 28  2  0
 26 29  2  0
 27 61  1  0
 27 62  1  0
 27 63  1  0
 30 31  2  0
 30 64  1  0
 31 32  1  0
 32 65  1  0
 32 66  1  0
 32 67  1  0
M  END

