
     RDKit          3D

 50 53  0  0  0  0  0  0  0  0999 V2000
    1.7517    2.1071    3.8180 C   0  0  0  0  0  0  0  0  0  0  0  0
    3.1276    1.7563    3.5075 N   0  0  0  0  0  0  0  0  0  0  0  0
    3.9523    1.4146    4.6526 C   0  0  0  0  0  0  0  0  0  0  0  0
    3.5953    2.0252    2.2391 C   0  0  0  0  0  0  0  0  0  0  0  0
    2.9259    2.6339    1.4155 O   0  0  0  0  0  0  0  0  0  0  0  0
    4.9585    1.5115    1.8461 C   0  0  0  0  0  0  0  0  0  0  0  0
    5.4067    0.2100    2.1286 C   0  0  0  0  0  0  0  0  0  0  0  0
    6.6283   -0.2470    1.6402 C   0  0  0  0  0  0  0  0  0  0  0  0
    7.4499    0.5810    0.8495 C   0  0  0  0  0  0  0  0  0  0  0  0
    8.7339    0.0914    0.3432 C   0  0  0  0  0  0  0  0  0  0  0  0
    9.1802   -1.2015    0.1496 C   0  0  0  0  0  0  0  0  0  0  0  0
   10.5079   -1.1224   -0.3878 C   0  0  0  0  0  0  0  0  0  0  0  0
   11.4881   -2.0367   -0.7978 C   0  0  0  0  0  0  0  0  0  0  0  0
   12.6739   -1.6573   -1.2607 N   0  0  0  0  0  0  0  0  0  0  0  0
   12.9724   -0.3479   -1.3516 C   0  0  0  0  0  0  0  0  0  0  0  0
   14.2221    0.0287   -1.8352 N   0  0  0  0  0  0  0  0  0  0  0  0
   15.3165   -0.7020   -2.2903 C   0  0  0  0  0  0  0  0  0  0  0  0
   16.4444    0.0337   -2.7210 C   0  0  0  0  0  0  0  0  0  0  0  0
   17.5839   -0.6058   -3.1929 C   0  0  0  0  0  0  0  0  0  0  0  0
   17.6357   -2.0045   -3.2503 C   0  0  0  0  0  0  0  0  0  0  0  0
   18.8406   -2.7029   -3.8131 C   0  0  1  0  0  0  0  0  0  0  0  0
   19.9647   -1.9762   -3.6574 F   0  0  0  0  0  0  0  0  0  0  0  0
   19.0497   -3.8984   -3.2288 F   0  0  0  0  0  0  0  0  0  0  0  0
   18.7187   -2.9411   -5.1372 F   0  0  0  0  0  0  0  0  0  0  0  0
   16.5243   -2.7400   -2.8216 C   0  0  0  0  0  0  0  0  0  0  0  0
   15.3760   -2.1107   -2.3462 C   0  0  0  0  0  0  0  0  0  0  0  0
   12.0742    0.6738   -0.9791 C   0  0  0  0  0  0  0  0  0  0  0  0
   10.8318    0.2629   -0.4997 C   0  0  0  0  0  0  0  0  0  0  0  0
    9.7420    0.9704   -0.0661 N   0  0  0  0  0  0  0  0  0  0  0  0
    9.7121    1.9732    0.0587 H   0  0  0  0  0  0  0  0  0  0  0  0
    6.9844    1.8790    0.5534 C   0  0  0  0  0  0  0  0  0  0  0  0
    5.7570    2.3290    1.0322 C   0  0  0  0  0  0  0  0  0  0  0  0
    1.2767    1.2946    4.3935 H   0  0  0  0  0  0  0  0  0  0  0  0
    1.2036    2.2715    2.8835 H   0  0  0  0  0  0  0  0  0  0  0  0
    1.6965    3.0322    4.4218 H   0  0  0  0  0  0  0  0  0  0  0  0
    3.8170    2.1671    5.4507 H   0  0  0  0  0  0  0  0  0  0  0  0
    5.0145    1.3980    4.3858 H   0  0  0  0  0  0  0  0  0  0  0  0
    3.6797    0.4302    5.0748 H   0  0  0  0  0  0  0  0  0  0  0  0
    4.7881   -0.4630    2.7265 H   0  0  0  0  0  0  0  0  0  0  0  0
    6.9602   -1.2577    1.8859 H   0  0  0  0  0  0  0  0  0  0  0  0
    8.6063   -2.1063    0.3345 H   0  0  0  0  0  0  0  0  0  0  0  0
   11.3044   -3.1166   -0.7465 H   0  0  0  0  0  0  0  0  0  0  0  0
   14.3611    1.0307   -1.8666 H   0  0  0  0  0  0  0  0  0  0  0  0
   16.4216    1.1271   -2.6796 H   0  0  0  0  0  0  0  0  0  0  0  0
   18.4435   -0.0143   -3.5136 H   0  0  0  0  0  0  0  0  0  0  0  0
   16.5559   -3.8312   -2.8519 H   0  0  0  0  0  0  0  0  0  0  0  0
   14.5177   -2.6864   -2.0118 H   0  0  0  0  0  0  0  0  0  0  0  0
   12.3423    1.7294   -1.0684 H   0  0  0  0  0  0  0  0  0  0  0  0
    7.5680    2.5369   -0.0957 H   0  0  0  0  0  0  0  0  0  0  0  0
    5.3884    3.3207    0.7626 H   0  0  0  0  0  0  0  0  0  0  0  0
  1  2  1  0
  1 33  1  0
  1 34  1  0
  1 35  1  0
  2  3  1  0
  2  4  1  0
  3 36  1  0
  3 37  1  0
  3 38  1  0
  4  5  2  0
  4  6  1  0
  6  7  2  0
  6 32  1  0
  7  8  1  0
  7 39  1  0
  8  9  2  0
  8 40  1  0
  9 10  1  0
  9 31  1  0
 10 11  2  0
 10 29  1  0
 11 12  1  0
 11 41  1  0
 12 13  2  0
 12 28  1  0
 13 14  1  0
 13 42  1  0
 14 15  2  0
 15 16  1  0
 15 27  1  0
 16 17  1  0
 16 43  1  0
 17 18  2  0
 17 26  1  0
 18 19  1  0
 18 44  1  0
 19 20  2  0
 19 45  1  0
 20 21  1  0
 20 25  1  0
 21 22  1  6
 21 23  1  0
 21 24  1  0
 25 26  2  0
 25 46  1  0
 26 47  1  0
 27 28  2  0
 27 48  1  0
 28 29  1  0
 29 30  1  0
 31 32  2  0
 31 49  1  0
 32 50  1  0
M  END

