
     RDKit          3D

 42 42  0  0  0  0  0  0  0  0999 V2000
    6.7574   -2.2563   -2.4192 C   0  0  0  0  0  0  0  0  0  0  0  0
    6.1805   -1.5065   -1.3849 O   0  0  0  0  0  0  0  0  0  0  0  0
    6.8135   -1.6668   -0.1427 C   0  0  0  0  0  0  0  0  0  0  0  0
    6.0842   -0.8023    0.8716 C   0  0  0  0  0  0  0  0  0  0  0  0
    6.7104   -0.9631    2.1198 O   0  0  0  0  0  0  0  0  0  0  0  0
    6.1255   -0.2192    3.1647 C   0  0  0  0  0  0  0  0  0  0  0  0
    6.8857   -0.4803    4.4558 C   0  0  0  0  0  0  0  0  0  0  0  0
    8.3490   -0.0745    4.3777 C   0  0  0  0  0  0  0  0  0  0  0  0
    8.9498   -0.3236    5.6475 O   0  0  0  0  0  0  0  0  0  0  0  0
   10.2951   -0.0568    5.7576 C   0  0  0  0  0  0  0  0  0  0  0  0
   10.6999    1.2025    6.2434 C   0  0  0  0  0  0  0  0  0  0  0  0
    9.6707    2.2417    6.6115 C   0  0  0  0  0  0  0  0  0  0  0  0
   12.0699    1.4464    6.3885 C   0  0  0  0  0  0  0  0  0  0  0  0
   13.0275    0.4738    6.0671 C   0  0  0  0  0  0  0  0  0  0  0  0
   14.4853    0.7595    6.2233 C   0  0  0  0  0  0  0  0  0  0  0  0
   15.1805    0.2971    8.0441 Br  0  0  0  0  0  0  0  0  0  0  0  0
   12.5892   -0.7778    5.6127 C   0  0  0  0  0  0  0  0  0  0  0  0
   11.2292   -1.0666    5.4520 C   0  0  0  0  0  0  0  0  0  0  0  0
   10.7643   -2.4250    4.9902 C   0  0  0  0  0  0  0  0  0  0  0  0
    6.1876   -2.0571   -3.3388 H   0  0  0  0  0  0  0  0  0  0  0  0
    6.7235   -3.3457   -2.2125 H   0  0  0  0  0  0  0  0  0  0  0  0
    7.8170   -1.9780   -2.5939 H   0  0  0  0  0  0  0  0  0  0  0  0
    7.8805   -1.3635   -0.1880 H   0  0  0  0  0  0  0  0  0  0  0  0
    6.7919   -2.7250    0.1922 H   0  0  0  0  0  0  0  0  0  0  0  0
    5.0179   -1.1051    0.9133 H   0  0  0  0  0  0  0  0  0  0  0  0
    6.1084    0.2559    0.5396 H   0  0  0  0  0  0  0  0  0  0  0  0
    5.0597   -0.5006    3.2913 H   0  0  0  0  0  0  0  0  0  0  0  0
    6.1410    0.8645    2.9178 H   0  0  0  0  0  0  0  0  0  0  0  0
    6.8235   -1.5514    4.7092 H   0  0  0  0  0  0  0  0  0  0  0  0
    6.3996    0.0738    5.2759 H   0  0  0  0  0  0  0  0  0  0  0  0
    8.4396    0.9986    4.1195 H   0  0  0  0  0  0  0  0  0  0  0  0
    8.8590   -0.6463    3.5845 H   0  0  0  0  0  0  0  0  0  0  0  0
    8.8792    1.8061    7.2403 H   0  0  0  0  0  0  0  0  0  0  0  0
    9.1727    2.6594    5.7197 H   0  0  0  0  0  0  0  0  0  0  0  0
   10.1312    3.0788    7.1557 H   0  0  0  0  0  0  0  0  0  0  0  0
   12.3983    2.4177    6.7702 H   0  0  0  0  0  0  0  0  0  0  0  0
   14.7204    1.8238    6.1091 H   0  0  0  0  0  0  0  0  0  0  0  0
   15.1060    0.1683    5.5405 H   0  0  0  0  0  0  0  0  0  0  0  0
   13.3257   -1.5547    5.3868 H   0  0  0  0  0  0  0  0  0  0  0  0
   11.5713   -3.1674    5.0728 H   0  0  0  0  0  0  0  0  0  0  0  0
   10.4352   -2.4107    3.9369 H   0  0  0  0  0  0  0  0  0  0  0  0
    9.9058   -2.7692    5.5863 H   0  0  0  0  0  0  0  0  0  0  0  0
  1  2  1  0
  1 20  1  0
  1 21  1  0
  1 22  1  0
  2  3  1  0
  3  4  1  0
  3 23  1  0
  3 24  1  0
  4  5  1  0
  4 25  1  0
  4 26  1  0
  5  6  1  0
  6  7  1  0
  6 27  1  0
  6 28  1  0
  7  8  1  0
  7 29  1  0
  7 30  1  0
  8  9  1  0
  8 31  1  0
  8 32  1  0
  9 10  1  0
 10 11  2  0
 10 18  1  0
 11 12  1  0
 11 13  1  0
 12 33  1  0
 12 34  1  0
 12 35  1  0
 13 14  2  0
 13 36  1  0
 14 15  1  0
 14 17  1  0
 15 16  1  0
 15 37  1  0
 15 38  1  0
 17 18  2  0
 17 39  1  0
 18 19  1  0
 19 40  1  0
 19 41  1  0
 19 42  1  0
M  END

