
     RDKit          3D

 39 39  0  0  0  0  0  0  0  0999 V2000
    2.1095    0.9986    0.6542 C   0  0  0  0  0  0  0  0  0  0  0  0
    2.7061   -0.0430   -0.0980 O   0  0  0  0  0  0  0  0  0  0  0  0
    3.2855    0.1978   -1.2925 C   0  0  0  0  0  0  0  0  0  0  0  0
    3.3294    1.5006   -1.8547 C   0  0  0  0  0  0  0  0  0  0  0  0
    3.8327    1.6714   -3.1776 C   0  0  0  0  0  0  0  0  0  0  0  0
    3.6433    2.9907   -3.8577 C   0  0  0  0  0  0  0  0  0  0  0  0
    4.4473    0.5274   -3.7796 C   0  0  0  0  0  0  0  0  0  0  0  0
    5.1178    0.7361   -5.3813 Cl  0  0  0  0  0  0  0  0  0  0  0  0
    4.5445   -0.7649   -3.1769 C   0  0  0  0  0  0  0  0  0  0  0  0
    5.2994   -1.9013   -3.7970 C   0  0  0  0  0  0  0  0  0  0  0  0
    3.8153   -0.9619   -1.9438 C   0  0  0  0  0  0  0  0  0  0  0  0
    3.6044   -2.3219   -1.3381 C   0  0  0  0  0  0  0  0  0  0  0  0
    4.6237   -2.7168   -0.2397 C   0  0  0  0  0  0  0  0  0  0  0  0
    4.3624   -4.1135    0.3297 C   0  0  0  0  0  0  0  0  0  0  0  0
    5.3750   -4.6067    1.3750 C   0  0  1  0  0  0  0  0  0  0  0  0
    5.3847   -3.7491    2.6505 C   0  0  0  0  0  0  0  0  0  0  0  0
    5.1215   -6.0287    1.6289 N   0  0  0  0  0  0  0  0  0  0  0  0
    1.6828    0.5273    1.5488 H   0  0  0  0  0  0  0  0  0  0  0  0
    1.3105    1.4959    0.0805 H   0  0  0  0  0  0  0  0  0  0  0  0
    2.8577    1.7492    0.9582 H   0  0  0  0  0  0  0  0  0  0  0  0
    3.0134    2.3760   -1.2884 H   0  0  0  0  0  0  0  0  0  0  0  0
    3.8834    3.8186   -3.1644 H   0  0  0  0  0  0  0  0  0  0  0  0
    2.5875    3.1477   -4.1630 H   0  0  0  0  0  0  0  0  0  0  0  0
    4.2669    3.1015   -4.7531 H   0  0  0  0  0  0  0  0  0  0  0  0
    5.9606   -1.5647   -4.6049 H   0  0  0  0  0  0  0  0  0  0  0  0
    4.6265   -2.6689   -4.2315 H   0  0  0  0  0  0  0  0  0  0  0  0
    5.9202   -2.4303   -3.0513 H   0  0  0  0  0  0  0  0  0  0  0  0
    3.6315   -3.0905   -2.1274 H   0  0  0  0  0  0  0  0  0  0  0  0
    2.5977   -2.3742   -0.8884 H   0  0  0  0  0  0  0  0  0  0  0  0
    4.5816   -1.9570    0.5572 H   0  0  0  0  0  0  0  0  0  0  0  0
    5.6455   -2.6720   -0.6566 H   0  0  0  0  0  0  0  0  0  0  0  0
    4.3546   -4.8532   -0.4888 H   0  0  0  0  0  0  0  0  0  0  0  0
    3.3484   -4.1431    0.7752 H   0  0  0  0  0  0  0  0  0  0  0  0
    6.3805   -4.5452    0.9170 H   0  0  0  0  0  0  0  0  0  0  0  0
    4.3905   -3.7584    3.1317 H   0  0  0  0  0  0  0  0  0  0  0  0
    5.6523   -2.6990    2.4503 H   0  0  0  0  0  0  0  0  0  0  0  0
    6.1134   -4.1425    3.3789 H   0  0  0  0  0  0  0  0  0  0  0  0
    4.2047   -6.1400    2.0683 H   0  0  0  0  0  0  0  0  0  0  0  0
    5.7968   -6.3921    2.3031 H   0  0  0  0  0  0  0  0  0  0  0  0
  1  2  1  0
  1 18  1  0
  1 19  1  0
  1 20  1  0
  2  3  1  0
  3  4  2  0
  3 11  1  0
  4  5  1  0
  4 21  1  0
  5  6  1  0
  5  7  2  0
  6 22  1  0
  6 23  1  0
  6 24  1  0
  7  8  1  0
  7  9  1  0
  9 10  1  0
  9 11  2  0
 10 25  1  0
 10 26  1  0
 10 27  1  0
 11 12  1  0
 12 13  1  0
 12 28  1  0
 12 29  1  0
 13 14  1  0
 13 30  1  0
 13 31  1  0
 14 15  1  0
 14 32  1  0
 14 33  1  0
 15 16  1  0
 15 17  1  0
 15 34  1  6
 16 35  1  0
 16 36  1  0
 16 37  1  0
 17 38  1  0
 17 39  1  0
M  END

