
     RDKit          3D

  8  7  0  0  0  0  0  0  0  0999 V2000
    2.8964    0.3883    0.9819 O   0  0  0  0  0  0  0  0  0  0  0  0
    2.3608   -0.0863    0.0428 C   0  0  0  0  0  0  0  0  0  0  0  0
    0.6272   -0.1983   -0.1746 Cl  0  0  0  0  0  0  0  0  0  0  0  0
    3.0144   -0.6880   -1.1451 N   0  0  0  0  0  0  0  0  0  0  0  0
    4.2446   -0.6352   -1.0431 N   0  0  0  0  0  0  0  0  0  0  0  0
    4.8984   -1.2375   -2.2308 C   0  0  0  0  0  0  0  0  0  0  0  0
    4.3629   -1.7128   -3.1697 O   0  0  0  0  0  0  0  0  0  0  0  0
    6.6320   -1.1283   -2.0115 Cl  0  0  0  0  0  0  0  0  0  0  0  0
  1  2  2  0
  2  3  1  0
  2  4  1  0
  4  5  2  0
  5  6  1  0
  6  7  2  0
  6  8  1  0
M  END

