
     RDKit          3D

 44 45  0  0  0  0  0  0  0  0999 V2000
    5.0070    0.1881   -0.5510 O   0  0  0  0  0  0  0  0  0  0  0  0
    4.3437    1.1859   -0.6926 C   0  0  0  0  0  0  0  0  0  0  0  0
    3.1838    1.3203   -0.0166 O   0  0  0  0  0  0  0  0  0  0  0  0
    4.7728    2.3589   -1.5601 C   0  0  0  0  0  0  0  0  0  0  0  0
    5.7473    3.3157   -0.8359 C   0  0  0  0  0  0  0  0  0  0  0  0
    6.9451    2.6154   -0.1665 C   0  0  0  0  0  0  0  0  0  0  0  0
    7.6110    1.6353   -1.0009 N   0  0  0  0  0  0  0  0  0  0  0  0
    8.5031    2.0347   -1.9715 C   0  0  0  0  0  0  0  0  0  0  0  0
    8.8759    3.1929   -2.0979 O   0  0  0  0  0  0  0  0  0  0  0  0
    8.9444    1.0153   -2.7972 N   0  0  0  0  0  0  0  0  0  0  0  0
    9.9851    1.2499   -3.7778 C   0  0  0  0  0  0  0  0  0  0  0  0
   11.4075    1.0909   -3.2311 C   0  0  1  0  0  0  0  0  0  0  0  0
   11.7626   -0.2950   -2.6769 C   0  0  0  0  0  0  0  0  0  0  0  0
   13.2883   -0.2713   -2.7210 C   0  0  0  0  0  0  0  0  0  0  0  0
   13.6314    0.5134   -3.8563 O   0  0  0  0  0  0  0  0  0  0  0  0
   12.5195    1.2757   -4.3186 C   0  0  2  0  0  0  0  0  0  0  0  0
   12.9097    2.6800   -4.6347 C   0  0  0  0  0  0  0  0  0  0  0  0
   12.2191    3.3839   -5.6721 C   0  0  0  0  0  0  0  0  0  0  0  0
   12.4982    4.7688   -5.9003 C   0  0  0  0  0  0  0  0  0  0  0  0
   13.4871    5.4225   -5.1169 C   0  0  0  0  0  0  0  0  0  0  0  0
   14.2008    4.7234   -4.1070 C   0  0  0  0  0  0  0  0  0  0  0  0
   13.9254    3.3380   -3.8743 C   0  0  0  0  0  0  0  0  0  0  0  0
    2.7602    2.1621   -0.2364 H   0  0  0  0  0  0  0  0  0  0  0  0
    3.8992    2.9234   -1.9274 H   0  0  0  0  0  0  0  0  0  0  0  0
    5.2749    1.9304   -2.4395 H   0  0  0  0  0  0  0  0  0  0  0  0
    5.2080    3.8984   -0.0684 H   0  0  0  0  0  0  0  0  0  0  0  0
    6.1238    4.0357   -1.5791 H   0  0  0  0  0  0  0  0  0  0  0  0
    6.6221    2.1040    0.7538 H   0  0  0  0  0  0  0  0  0  0  0  0
    7.6816    3.3801    0.1189 H   0  0  0  0  0  0  0  0  0  0  0  0
    7.1379    0.7388   -1.0795 H   0  0  0  0  0  0  0  0  0  0  0  0
    8.7606    0.0582   -2.5197 H   0  0  0  0  0  0  0  0  0  0  0  0
    9.8578    2.2749   -4.1537 H   0  0  0  0  0  0  0  0  0  0  0  0
    9.8337    0.5563   -4.6242 H   0  0  0  0  0  0  0  0  0  0  0  0
   11.5640    1.8537   -2.4507 H   0  0  0  0  0  0  0  0  0  0  0  0
   11.3719   -1.0833   -3.3451 H   0  0  0  0  0  0  0  0  0  0  0  0
   11.3696   -0.4750   -1.6649 H   0  0  0  0  0  0  0  0  0  0  0  0
   13.7512   -1.2660   -2.8285 H   0  0  0  0  0  0  0  0  0  0  0  0
   13.7037    0.1970   -1.8073 H   0  0  0  0  0  0  0  0  0  0  0  0
   12.1476    0.8055   -5.2579 H   0  0  0  0  0  0  0  0  0  0  0  0
   11.4910    2.8584   -6.2934 H   0  0  0  0  0  0  0  0  0  0  0  0
   11.9512    5.3204   -6.6665 H   0  0  0  0  0  0  0  0  0  0  0  0
   13.6981    6.4805   -5.2914 H   0  0  0  0  0  0  0  0  0  0  0  0
   14.9446    5.2435   -3.5011 H   0  0  0  0  0  0  0  0  0  0  0  0
   14.4777    2.7754   -3.1223 H   0  0  0  0  0  0  0  0  0  0  0  0
  1  2  2  0
  2  3  1  0
  2  4  1  0
  3 23  1  0
  4  5  1  0
  4 24  1  0
  4 25  1  0
  5  6  1  0
  5 26  1  0
  5 27  1  0
  6  7  1  0
  6 28  1  0
  6 29  1  0
  7  8  1  0
  7 30  1  0
  8  9  2  0
  8 10  1  0
 10 11  1  0
 10 31  1  0
 11 12  1  0
 11 32  1  0
 11 33  1  0
 12 13  1  0
 12 16  1  0
 12 34  1  1
 13 14  1  0
 13 35  1  0
 13 36  1  0
 14 15  1  0
 14 37  1  0
 14 38  1  0
 15 16  1  0
 16 17  1  0
 16 39  1  6
 17 18  2  0
 17 22  1  0
 18 19  1  0
 18 40  1  0
 19 20  2  0
 19 41  1  0
 20 21  1  0
 20 42  1  0
 21 22  2  0
 21 43  1  0
 22 44  1  0
M  END

