
     RDKit          3D

 84 86  0  0  0  0  0  0  0  0999 V2000
    1.4507    0.3386    0.7604 C   0  0  0  0  0  0  0  0  0  0  0  0
    2.9718    0.4967    0.7429 C   0  0  0  0  0  0  0  0  0  0  0  0
    3.5135    1.0839   -0.5643 C   0  0  0  0  0  0  0  0  0  0  0  0
    5.0363    1.2441   -0.5895 C   0  0  0  0  0  0  0  0  0  0  0  0
    5.5785    1.8301   -1.8966 C   0  0  0  0  0  0  0  0  0  0  0  0
    7.1018    1.9873   -1.9211 C   0  0  0  0  0  0  0  0  0  0  0  0
    7.6433    2.5733   -3.2281 C   0  0  0  0  0  0  0  0  0  0  0  0
    9.1744    2.7204   -3.2499 C   0  0  0  0  0  0  0  0  0  0  0  0
    9.7008    3.3390   -4.5149 C   0  0  0  0  0  0  0  0  0  0  0  0
   10.5298    2.7492   -5.3854 C   0  0  0  0  0  0  0  0  0  0  0  0
   11.0570    3.3671   -6.6505 C   0  0  0  0  0  0  0  0  0  0  0  0
   12.5902    3.4869   -6.6814 C   0  0  0  0  0  0  0  0  0  0  0  0
   13.1341    4.0804   -7.9840 C   0  0  0  0  0  0  0  0  0  0  0  0
   14.6615    4.1874   -8.0227 C   0  0  0  0  0  0  0  0  0  0  0  0
   15.2070    4.7927   -9.3199 C   0  0  0  0  0  0  0  0  0  0  0  0
   16.7361    4.8742   -9.3658 C   0  0  0  0  0  0  0  0  0  0  0  0
   17.2728    5.5031  -10.6544 C   0  0  0  0  0  0  0  0  0  0  0  0
   18.8227    5.5134  -10.7140 C   0  0  0  0  0  0  0  0  0  0  0  0
   19.3657    6.2022  -11.9312 C   0  0  0  0  0  0  0  0  0  0  0  0
   19.7868    5.3978  -13.0095 C   0  0  0  0  0  0  0  0  0  0  0  0
   20.2818    5.9353  -14.1861 C   0  0  0  0  0  0  0  0  0  0  0  0
   20.3913    7.3450  -14.2347 C   0  0  0  0  0  0  0  0  0  0  0  0
   20.0057    8.2123  -13.1822 C   0  0  0  0  0  0  0  0  0  0  0  0
   19.4066    7.6627  -12.0131 C   0  0  0  0  0  0  0  0  0  0  0  0
   18.9147    8.4575  -10.9182 C   0  0  0  0  0  0  0  0  0  0  0  0
   18.4093    9.7655  -10.9694 C   0  0  0  0  0  0  0  0  0  0  0  0
   17.9577   10.5506   -9.8640 C   0  0  0  0  0  0  0  0  0  0  0  0
   18.0798   10.1371   -8.4970 C   0  0  0  0  0  0  0  0  0  0  0  0
   17.6205   10.9386   -7.4595 C   0  0  0  0  0  0  0  0  0  0  0  0
   17.0206   12.1831   -7.7127 C   0  0  0  0  0  0  0  0  0  0  0  0
   16.8937   12.6149   -9.0479 C   0  0  0  0  0  0  0  0  0  0  0  0
   17.3480   11.8238  -10.0919 C   0  0  0  0  0  0  0  0  0  0  0  0
   20.3420    9.6708  -13.3518 C   0  0  0  0  0  0  0  0  0  0  0  0
   21.4877    9.8006  -14.3353 C   0  0  0  0  0  0  0  0  0  0  0  0
   21.1473    9.1638  -15.5721 O   0  0  0  0  0  0  0  0  0  0  0  0
   20.9289    7.7761  -15.4014 O   0  0  0  0  0  0  0  0  0  0  0  0
    1.0979   -0.0877    1.7132 H   0  0  0  0  0  0  0  0  0  0  0  0
    1.1073   -0.3274   -0.0491 H   0  0  0  0  0  0  0  0  0  0  0  0
    0.9449    1.3092    0.6232 H   0  0  0  0  0  0  0  0  0  0  0  0
    3.4469   -0.4850    0.9231 H   0  0  0  0  0  0  0  0  0  0  0  0
    3.2857    1.1389    1.5862 H   0  0  0  0  0  0  0  0  0  0  0  0
    3.0397    2.0670   -0.7458 H   0  0  0  0  0  0  0  0  0  0  0  0
    3.1999    0.4420   -1.4089 H   0  0  0  0  0  0  0  0  0  0  0  0
    5.5092    0.2609   -0.4072 H   0  0  0  0  0  0  0  0  0  0  0  0
    5.3493    1.8860    0.2552 H   0  0  0  0  0  0  0  0  0  0  0  0
    5.1073    2.8141   -2.0784 H   0  0  0  0  0  0  0  0  0  0  0  0
    5.2648    1.1891   -2.7415 H   0  0  0  0  0  0  0  0  0  0  0  0
    7.5727    1.0030   -1.7400 H   0  0  0  0  0  0  0  0  0  0  0  0
    7.4166    2.6279   -1.0761 H   0  0  0  0  0  0  0  0  0  0  0  0
    7.1795    3.5611   -3.4065 H   0  0  0  0  0  0  0  0  0  0  0  0
    7.3316    1.9383   -4.0770 H   0  0  0  0  0  0  0  0  0  0  0  0
    9.6432    1.7327   -3.0958 H   0  0  0  0  0  0  0  0  0  0  0  0
    9.4769    3.3436   -2.3862 H   0  0  0  0  0  0  0  0  0  0  0  0
    9.3504    4.3583   -4.7332 H   0  0  0  0  0  0  0  0  0  0  0  0
   10.8800    1.7298   -5.1670 H   0  0  0  0  0  0  0  0  0  0  0  0
   10.6041    4.3636   -6.7949 H   0  0  0  0  0  0  0  0  0  0  0  0
   10.7380    2.7549   -7.5163 H   0  0  0  0  0  0  0  0  0  0  0  0
   13.0365    2.4880   -6.5198 H   0  0  0  0  0  0  0  0  0  0  0  0
   12.9199    4.1043   -5.8267 H   0  0  0  0  0  0  0  0  0  0  0  0
   12.6939    5.0826   -8.1407 H   0  0  0  0  0  0  0  0  0  0  0  0
   12.7895    3.4663   -8.8371 H   0  0  0  0  0  0  0  0  0  0  0  0
   15.1009    3.1831   -7.8750 H   0  0  0  0  0  0  0  0  0  0  0  0
   15.0067    4.7936   -7.1649 H   0  0  0  0  0  0  0  0  0  0  0  0
   14.7840    5.8045   -9.4577 H   0  0  0  0  0  0  0  0  0  0  0  0
   14.8480    4.1976  -10.1802 H   0  0  0  0  0  0  0  0  0  0  0  0
   17.1604    3.8599   -9.2439 H   0  0  0  0  0  0  0  0  0  0  0  0
   17.0975    5.4581   -8.4995 H   0  0  0  0  0  0  0  0  0  0  0  0
   16.8968    6.5342  -10.7514 H   0  0  0  0  0  0  0  0  0  0  0  0
   16.8921    4.9478  -11.5293 H   0  0  0  0  0  0  0  0  0  0  0  0
   19.1810    4.4712  -10.6972 H   0  0  0  0  0  0  0  0  0  0  0  0
   19.2079    5.9905   -9.7977 H   0  0  0  0  0  0  0  0  0  0  0  0
   19.7043    4.3125  -12.9106 H   0  0  0  0  0  0  0  0  0  0  0  0
   20.5901    5.3346  -15.0414 H   0  0  0  0  0  0  0  0  0  0  0  0
   18.8484    7.9480   -9.9572 H   0  0  0  0  0  0  0  0  0  0  0  0
   18.2656   10.2339  -11.9457 H   0  0  0  0  0  0  0  0  0  0  0  0
   18.5563    9.1828   -8.2617 H   0  0  0  0  0  0  0  0  0  0  0  0
   17.7325   10.5932   -6.4270 H   0  0  0  0  0  0  0  0  0  0  0  0
   16.6609   12.8051   -6.8899 H   0  0  0  0  0  0  0  0  0  0  0  0
   16.4313   13.5822   -9.2654 H   0  0  0  0  0  0  0  0  0  0  0  0
   17.2368   12.1735  -11.1234 H   0  0  0  0  0  0  0  0  0  0  0  0
   20.6154   10.1083  -12.3786 H   0  0  0  0  0  0  0  0  0  0  0  0
   19.4836   10.2554  -13.7250 H   0  0  0  0  0  0  0  0  0  0  0  0
   22.4260    9.3621  -13.9506 H   0  0  0  0  0  0  0  0  0  0  0  0
   21.6762   10.8377  -14.6485 H   0  0  0  0  0  0  0  0  0  0  0  0
  1  2  1  0
  1 37  1  0
  1 38  1  0
  1 39  1  0
  2  3  1  0
  2 40  1  0
  2 41  1  0
  3  4  1  0
  3 42  1  0
  3 43  1  0
  4  5  1  0
  4 44  1  0
  4 45  1  0
  5  6  1  0
  5 46  1  0
  5 47  1  0
  6  7  1  0
  6 48  1  0
  6 49  1  0
  7  8  1  0
  7 50  1  0
  7 51  1  0
  8  9  1  0
  8 52  1  0
  8 53  1  0
  9 10  2  0
  9 54  1  0
 10 11  1  0
 10 55  1  0
 11 12  1  0
 11 56  1  0
 11 57  1  0
 12 13  1  0
 12 58  1  0
 12 59  1  0
 13 14  1  0
 13 60  1  0
 13 61  1  0
 14 15  1  0
 14 62  1  0
 14 63  1  0
 15 16  1  0
 15 64  1  0
 15 65  1  0
 16 17  1  0
 16 66  1  0
 16 67  1  0
 17 18  1  0
 17 68  1  0
 17 69  1  0
 18 19  1  0
 18 70  1  0
 18 71  1  0
 19 20  2  0
 19 24  1  0
 20 21  1  0
 20 72  1  0
 21 22  2  0
 21 73  1  0
 22 23  1  0
 22 36  1  0
 23 24  2  0
 23 33  1  0
 24 25  1  0
 25 26  2  0
 25 74  1  0
 26 27  1  0
 26 75  1  0
 27 28  2  0
 27 32  1  0
 28 29  1  0
 28 76  1  0
 29 30  2  0
 29 77  1  0
 30 31  1  0
 30 78  1  0
 31 32  2  0
 31 79  1  0
 32 80  1  0
 33 34  1  0
 33 81  1  0
 33 82  1  0
 34 35  1  0
 34 83  1  0
 34 84  1  0
 35 36  1  0
M  END

