
     RDKit          3D

 80 88  0  0  0  0  0  0  0  0999 V2000
    1.7297   -0.4041   -0.3688 C   0  0  0  0  0  0  0  0  0  0  0  0
    2.7637    0.4567    0.0792 O   0  0  0  0  0  0  0  0  0  0  0  0
    3.5181    0.1165    1.1327 C   0  0  0  0  0  0  0  0  0  0  0  0
    4.5249    1.0375    1.5012 C   0  0  0  0  0  0  0  0  0  0  0  0
    5.3500    0.7784    2.5777 C   0  0  0  0  0  0  0  0  0  0  0  0
    5.2292   -0.4144    3.3426 C   0  0  0  0  0  0  0  0  0  0  0  0
    6.1066   -0.6868    4.4817 C   0  0  0  0  0  0  0  0  0  0  0  0
    6.7898    0.3724    5.1527 C   0  0  0  0  0  0  0  0  0  0  0  0
    7.6286    0.1511    6.2293 C   0  0  0  0  0  0  0  0  0  0  0  0
    7.8119   -1.1772    6.6627 C   0  0  0  0  0  0  0  0  0  0  0  0
    7.1456   -2.2677    6.0144 C   0  0  0  0  0  0  0  0  0  0  0  0
    6.3042   -2.0206    4.9459 C   0  0  0  0  0  0  0  0  0  0  0  0
    7.5786   -3.4731    6.7161 C   0  0  0  0  0  0  0  0  0  0  0  0
    7.3013   -4.8269    6.5781 C   0  0  0  0  0  0  0  0  0  0  0  0
    7.8958   -5.7651    7.4603 C   0  0  0  0  0  0  0  0  0  0  0  0
    7.6034   -7.2063    7.3314 C   0  0  0  0  0  0  0  0  0  0  0  0
    7.2827   -7.7875    6.0813 C   0  0  0  0  0  0  0  0  0  0  0  0
    7.0125   -9.1411    5.9567 C   0  0  0  0  0  0  0  0  0  0  0  0
    7.0435   -9.9816    7.0873 C   0  0  0  0  0  0  0  0  0  0  0  0
    6.7643  -11.2826    6.8704 O   0  0  0  0  0  0  0  0  0  0  0  0
    6.7892  -12.1959    7.9498 C   0  0  0  0  0  0  0  0  0  0  0  0
    7.3551   -9.4274    8.3412 C   0  0  0  0  0  0  0  0  0  0  0  0
    7.6309   -8.0650    8.4483 C   0  0  0  0  0  0  0  0  0  0  0  0
    8.7717   -5.2841    8.4679 C   0  0  0  0  0  0  0  0  0  0  0  0
    9.0654   -3.9332    8.6216 C   0  0  0  0  0  0  0  0  0  0  0  0
    8.4619   -3.0303    7.7383 C   0  0  0  0  0  0  0  0  0  0  0  0
    8.5867   -1.6482    7.6839 N   0  0  0  0  0  0  0  0  0  0  0  0
    9.4033   -0.8450    8.5609 C   0  0  0  0  0  0  0  0  0  0  0  0
    8.8822   -0.3132    9.7730 C   0  0  0  0  0  0  0  0  0  0  0  0
    9.7104    0.4504   10.5574 C   0  0  0  0  0  0  0  0  0  0  0  0
   11.0692    0.7014   10.1583 C   0  0  0  0  0  0  0  0  0  0  0  0
   11.8766    1.5320   11.0481 C   0  0  0  0  0  0  0  0  0  0  0  0
   11.3445    1.9796   12.0948 O   0  0  0  0  0  0  0  0  0  0  0  0
   13.3160    1.8871   10.7816 C   0  0  0  0  0  0  0  0  0  0  0  0
   14.0940    1.4645    9.6741 C   0  0  0  0  0  0  0  0  0  0  0  0
   15.4256    1.8505    9.5270 C   0  0  0  0  0  0  0  0  0  0  0  0
   16.0080    2.6761   10.4938 C   0  0  0  0  0  0  0  0  0  0  0  0
   17.6686    3.2853   10.5077 S   0  0  0  0  0  0  0  0  0  0  0  0
   17.3766    4.1442   12.0202 C   0  0  0  0  0  0  0  0  0  0  0  0
   18.3028    4.9270   12.7198 C   0  0  0  0  0  0  0  0  0  0  0  0
   17.9013    5.5407   13.9069 C   0  0  0  0  0  0  0  0  0  0  0  0
   16.5919    5.3751   14.3903 C   0  0  0  0  0  0  0  0  0  0  0  0
   15.6728    4.5947   13.6912 C   0  0  0  0  0  0  0  0  0  0  0  0
   16.0521    3.9663   12.4930 C   0  0  0  0  0  0  0  0  0  0  0  0
   15.2603    3.1167   11.6106 C   0  0  0  0  0  0  0  0  0  0  0  0
   13.9248    2.7154   11.7399 C   0  0  0  0  0  0  0  0  0  0  0  0
   11.5400    0.1654    8.9842 N   0  0  0  0  0  0  0  0  0  0  0  0
   10.7401   -0.5667    8.2350 C   0  0  0  0  0  0  0  0  0  0  0  0
    4.2167   -1.3239    2.9487 C   0  0  0  0  0  0  0  0  0  0  0  0
    3.3716   -1.0728    1.8751 C   0  0  0  0  0  0  0  0  0  0  0  0
    1.2697    0.0919   -1.2323 H   0  0  0  0  0  0  0  0  0  0  0  0
    0.9653   -0.5549    0.4121 H   0  0  0  0  0  0  0  0  0  0  0  0
    2.1293   -1.3830   -0.6833 H   0  0  0  0  0  0  0  0  0  0  0  0
    4.6337    1.9472    0.9083 H   0  0  0  0  0  0  0  0  0  0  0  0
    6.1316    1.4996    2.8177 H   0  0  0  0  0  0  0  0  0  0  0  0
    6.6247    1.4007    4.8310 H   0  0  0  0  0  0  0  0  0  0  0  0
    8.1326    0.9716    6.7396 H   0  0  0  0  0  0  0  0  0  0  0  0
    5.8188   -2.8538    4.4362 H   0  0  0  0  0  0  0  0  0  0  0  0
    6.6034   -5.1681    5.8114 H   0  0  0  0  0  0  0  0  0  0  0  0
    7.2799   -7.1701    5.1807 H   0  0  0  0  0  0  0  0  0  0  0  0
    6.7830   -9.5872    4.9872 H   0  0  0  0  0  0  0  0  0  0  0  0
    6.5423  -13.1794    7.5297 H   0  0  0  0  0  0  0  0  0  0  0  0
    6.0422  -11.9365    8.7203 H   0  0  0  0  0  0  0  0  0  0  0  0
    7.7876  -12.2453    8.4184 H   0  0  0  0  0  0  0  0  0  0  0  0
    7.3763  -10.0450    9.2389 H   0  0  0  0  0  0  0  0  0  0  0  0
    7.8443   -7.6571    9.4382 H   0  0  0  0  0  0  0  0  0  0  0  0
    9.2601   -5.9997    9.1310 H   0  0  0  0  0  0  0  0  0  0  0  0
    9.7502   -3.5821    9.3938 H   0  0  0  0  0  0  0  0  0  0  0  0
    7.8479   -0.5113   10.0669 H   0  0  0  0  0  0  0  0  0  0  0  0
    9.3801    0.8911   11.4974 H   0  0  0  0  0  0  0  0  0  0  0  0
   13.6257    0.8248    8.9291 H   0  0  0  0  0  0  0  0  0  0  0  0
   16.0025    1.5089    8.6637 H   0  0  0  0  0  0  0  0  0  0  0  0
   19.3206    5.0556   12.3435 H   0  0  0  0  0  0  0  0  0  0  0  0
   18.6137    6.1553   14.4636 H   0  0  0  0  0  0  0  0  0  0  0  0
   16.2925    5.8622   15.3219 H   0  0  0  0  0  0  0  0  0  0  0  0
   14.6552    4.4670   14.0685 H   0  0  0  0  0  0  0  0  0  0  0  0
   13.3124    3.0303   12.5865 H   0  0  0  0  0  0  0  0  0  0  0  0
   11.1621   -0.9727    7.3041 H   0  0  0  0  0  0  0  0  0  0  0  0
    4.0601   -2.2399    3.5197 H   0  0  0  0  0  0  0  0  0  0  0  0
    2.5968   -1.7971    1.6254 H   0  0  0  0  0  0  0  0  0  0  0  0
  1  2  1  0
  1 51  1  0
  1 52  1  0
  1 53  1  0
  2  3  1  0
  3  4  2  0
  3 50  1  0
  4  5  1  0
  4 54  1  0
  5  6  2  0
  5 55  1  0
  6  7  1  0
  6 49  1  0
  7  8  2  0
  7 12  1  0
  8  9  1  0
  8 56  1  0
  9 10  2  0
  9 57  1  0
 10 11  1  0
 10 27  1  0
 11 12  2  0
 11 13  1  0
 12 58  1  0
 13 14  2  0
 13 26  1  0
 14 15  1  0
 14 59  1  0
 15 16  1  0
 15 24  2  0
 16 17  2  0
 16 23  1  0
 17 18  1  0
 17 60  1  0
 18 19  2  0
 18 61  1  0
 19 20  1  0
 19 22  1  0
 20 21  1  0
 21 62  1  0
 21 63  1  0
 21 64  1  0
 22 23  2  0
 22 65  1  0
 23 66  1  0
 24 25  1  0
 24 67  1  0
 25 26  2  0
 25 68  1  0
 26 27  1  0
 27 28  1  0
 28 29  2  0
 28 48  1  0
 29 30  1  0
 29 69  1  0
 30 31  2  0
 30 70  1  0
 31 32  1  0
 31 47  1  0
 32 33  2  0
 32 34  1  0
 34 35  2  0
 34 46  1  0
 35 36  1  0
 35 71  1  0
 36 37  2  0
 36 72  1  0
 37 38  1  0
 37 45  1  0
 38 39  1  0
 39 40  1  0
 39 44  2  0
 40 41  2  0
 40 73  1  0
 41 42  1  0
 41 74  1  0
 42 43  2  0
 42 75  1  0
 43 44  1  0
 43 76  1  0
 44 45  1  0
 45 46  2  0
 46 77  1  0
 47 48  2  0
 48 78  1  0
 49 50  2  0
 49 79  1  0
 50 80  1  0
M  END

