
     RDKit          3D

 35 36  0  0  0  0  0  0  0  0999 V2000
    4.1169    5.2169    2.5944 C   0  0  0  0  0  0  0  0  0  0  0  0
    3.9159    4.0145    3.2832 O   0  0  0  0  0  0  0  0  0  0  0  0
    4.6189    2.9213    2.7435 C   0  0  0  0  0  0  0  0  0  0  0  0
    4.3355    1.6697    3.5708 C   0  0  1  0  0  0  0  0  0  0  0  0
    2.8476    1.3093    3.5585 C   0  0  0  0  0  0  0  0  0  0  0  0
    5.1871    0.4777    3.0884 C   0  0  0  0  0  0  0  0  0  0  0  0
    6.6217    0.6514    3.1915 N   0  0  0  0  0  0  0  0  0  0  0  0
    7.3220    0.4692    4.3431 C   0  0  0  0  0  0  0  0  0  0  0  0
    8.6675    0.6458    4.3955 N   0  0  0  0  0  0  0  0  0  0  0  0
    8.9605    0.3617    5.6628 C   0  0  0  0  0  0  0  0  0  0  0  0
   10.1727    0.3449    6.3906 C   0  0  0  0  0  0  0  0  0  0  0  0
   10.1707    0.0029    7.7337 C   0  0  0  0  0  0  0  0  0  0  0  0
   11.4429   -0.0240    8.5419 C   0  0  0  0  0  0  0  0  0  0  0  0
    8.9314   -0.3298    8.3598 C   0  0  0  0  0  0  0  0  0  0  0  0
    7.7538   -0.3142    7.6493 C   0  0  0  0  0  0  0  0  0  0  0  0
    7.7859    0.0240    6.3352 N   0  0  0  0  0  0  0  0  0  0  0  0
    6.7304    0.0947    5.4890 N   0  0  0  0  0  0  0  0  0  0  0  0
    3.5325    5.9995    3.1009 H   0  0  0  0  0  0  0  0  0  0  0  0
    3.7804    5.1552    1.5384 H   0  0  0  0  0  0  0  0  0  0  0  0
    5.1839    5.5221    2.5902 H   0  0  0  0  0  0  0  0  0  0  0  0
    5.7087    3.1308    2.7371 H   0  0  0  0  0  0  0  0  0  0  0  0
    4.3160    2.7515    1.6846 H   0  0  0  0  0  0  0  0  0  0  0  0
    4.6359    1.8891    4.6097 H   0  0  0  0  0  0  0  0  0  0  0  0
    2.5129    1.0325    2.5427 H   0  0  0  0  0  0  0  0  0  0  0  0
    2.2425    2.1653    3.8889 H   0  0  0  0  0  0  0  0  0  0  0  0
    2.6375    0.4575    4.2252 H   0  0  0  0  0  0  0  0  0  0  0  0
    4.9479    0.2549    2.0339 H   0  0  0  0  0  0  0  0  0  0  0  0
    4.9022   -0.4107    3.6750 H   0  0  0  0  0  0  0  0  0  0  0  0
    7.1668    0.9475    2.3939 H   0  0  0  0  0  0  0  0  0  0  0  0
   11.0918    0.6073    5.8647 H   0  0  0  0  0  0  0  0  0  0  0  0
   12.3156    0.2509    7.9326 H   0  0  0  0  0  0  0  0  0  0  0  0
   11.6241   -1.0270    8.9638 H   0  0  0  0  0  0  0  0  0  0  0  0
   11.3872    0.6758    9.3927 H   0  0  0  0  0  0  0  0  0  0  0  0
    8.9045   -0.6020    9.4165 H   0  0  0  0  0  0  0  0  0  0  0  0
    6.7719   -0.5550    8.0575 H   0  0  0  0  0  0  0  0  0  0  0  0
  1  2  1  0
  1 18  1  0
  1 19  1  0
  1 20  1  0
  2  3  1  0
  3  4  1  0
  3 21  1  0
  3 22  1  0
  4  5  1  0
  4  6  1  0
  4 23  1  1
  5 24  1  0
  5 25  1  0
  5 26  1  0
  6  7  1  0
  6 27  1  0
  6 28  1  0
  7  8  1  0
  7 29  1  0
  8  9  1  0
  8 17  2  0
  9 10  2  0
 10 11  1  0
 10 16  1  0
 11 12  2  0
 11 30  1  0
 12 13  1  0
 12 14  1  0
 13 31  1  0
 13 32  1  0
 13 33  1  0
 14 15  2  0
 14 34  1  0
 15 16  1  0
 15 35  1  0
 16 17  1  0
M  END

