
     RDKit          3D

 30 31  0  0  0  0  0  0  0  0999 V2000
    0.4220   -0.2511   -1.1848 C   0  0  0  0  0  0  0  0  0  0  0  0
    1.7885   -0.2997   -1.5235 O   0  0  0  0  0  0  0  0  0  0  0  0
    2.4462    0.8563   -1.8234 C   0  0  0  0  0  0  0  0  0  0  0  0
    1.8401    2.1186   -1.8432 C   0  0  0  0  0  0  0  0  0  0  0  0
    2.5842    3.2548   -2.1858 C   0  0  0  0  0  0  0  0  0  0  0  0
    3.9244    3.1071   -2.5118 C   0  0  0  0  0  0  0  0  0  0  0  0
    4.6458    4.1894   -2.8559 F   0  0  0  0  0  0  0  0  0  0  0  0
    4.5440    1.8578   -2.4980 C   0  0  0  0  0  0  0  0  0  0  0  0
    3.8182    0.7219   -2.1396 C   0  0  0  0  0  0  0  0  0  0  0  0
    4.4717   -0.6540   -2.1023 C   0  0  1  0  0  0  0  0  0  0  0  0
    5.7078   -0.5692   -2.7991 O   0  0  0  0  0  0  0  0  0  0  0  0
    4.6585   -1.1884   -0.6942 C   0  0  0  0  0  0  0  0  0  0  0  0
    3.8674   -2.2075   -0.0549 C   0  0  0  0  0  0  0  0  0  0  0  0
    4.3934   -2.3772    1.1900 C   0  0  0  0  0  0  0  0  0  0  0  0
    5.4502   -1.5421    1.3680 O   0  0  0  0  0  0  0  0  0  0  0  0
    5.6122   -0.8169    0.2267 C   0  0  0  0  0  0  0  0  0  0  0  0
    6.7209    0.1775    0.2196 C   0  0  0  0  0  0  0  0  0  0  0  0
    0.1125   -1.2844   -0.9772 H   0  0  0  0  0  0  0  0  0  0  0  0
   -0.1933    0.1465   -2.0123 H   0  0  0  0  0  0  0  0  0  0  0  0
    0.2439    0.3619   -0.2830 H   0  0  0  0  0  0  0  0  0  0  0  0
    0.7846    2.2337   -1.5978 H   0  0  0  0  0  0  0  0  0  0  0  0
    2.1264    4.2455   -2.2068 H   0  0  0  0  0  0  0  0  0  0  0  0
    5.5924    1.7677   -2.7807 H   0  0  0  0  0  0  0  0  0  0  0  0
    3.7847   -1.3488   -2.6215 H   0  0  0  0  0  0  0  0  0  0  0  0
    6.1791   -1.3986   -2.6470 H   0  0  0  0  0  0  0  0  0  0  0  0
    3.0165   -2.7313   -0.4841 H   0  0  0  0  0  0  0  0  0  0  0  0
    4.1476   -3.0258    2.0268 H   0  0  0  0  0  0  0  0  0  0  0  0
    7.6349   -0.2555    0.6572 H   0  0  0  0  0  0  0  0  0  0  0  0
    6.4657    1.0744    0.8103 H   0  0  0  0  0  0  0  0  0  0  0  0
    6.9327    0.4902   -0.8101 H   0  0  0  0  0  0  0  0  0  0  0  0
  1  2  1  0
  1 18  1  0
  1 19  1  0
  1 20  1  0
  2  3  1  0
  3  4  2  0
  3  9  1  0
  4  5  1  0
  4 21  1  0
  5  6  2  0
  5 22  1  0
  6  7  1  0
  6  8  1  0
  8  9  2  0
  8 23  1  0
  9 10  1  0
 10 11  1  0
 10 12  1  0
 10 24  1  6
 11 25  1  0
 12 13  1  0
 12 16  2  0
 13 14  2  0
 13 26  1  0
 14 15  1  0
 14 27  1  0
 15 16  1  0
 16 17  1  0
 17 28  1  0
 17 29  1  0
 17 30  1  0
M  END

