
     RDKit          3D

 37 39  0  0  0  0  0  0  0  0999 V2000
    3.0765    1.0567    0.8407 O   0  0  0  0  0  0  0  0  0  0  0  0
    2.9621   -0.1956    0.5558 C   0  0  0  0  0  0  0  0  0  0  0  0
    3.3392   -0.8710   -0.6089 C   0  0  0  0  0  0  0  0  0  0  0  0
    3.9434   -0.1781   -1.7159 C   0  0  0  0  0  0  0  0  0  0  0  0
    4.3189   -0.8691   -2.8513 C   0  0  0  0  0  0  0  0  0  0  0  0
    4.1172   -2.2564   -2.9492 C   0  0  0  0  0  0  0  0  0  0  0  0
    3.5069   -2.9521   -1.8814 C   0  0  0  0  0  0  0  0  0  0  0  0
    3.1225   -2.2841   -0.7328 C   0  0  0  0  0  0  0  0  0  0  0  0
    3.2995   -4.3045   -1.9661 O   0  0  0  0  0  0  0  0  0  0  0  0
    3.2871   -4.8401   -3.2813 C   0  0  2  0  0  0  0  0  0  0  0  0
    3.2563   -6.3494   -3.2060 C   0  0  0  0  0  0  0  0  0  0  0  0
    3.7994   -7.0238   -2.1088 C   0  0  0  0  0  0  0  0  0  0  0  0
    3.8138   -8.4244   -2.0792 C   0  0  0  0  0  0  0  0  0  0  0  0
    3.2929   -9.1557   -3.1427 C   0  0  0  0  0  0  0  0  0  0  0  0
    3.2538  -10.5186   -3.2164 O   0  0  0  0  0  0  0  0  0  0  0  0
    2.7378   -8.4848   -4.2565 C   0  0  0  0  0  0  0  0  0  0  0  0
    2.2181   -9.1923   -5.2850 O   0  0  0  0  0  0  0  0  0  0  0  0
    2.7230   -7.0890   -4.2782 C   0  0  0  0  0  0  0  0  0  0  0  0
    4.5290   -4.3048   -4.0298 C   0  0  1  0  0  0  0  0  0  0  0  0
    4.4692   -4.7578   -5.3670 O   0  0  0  0  0  0  0  0  0  0  0  0
    5.7977   -5.4512   -6.0489 S   0  0  1  0  0  0  0  0  0  0  0  0
    5.3914   -5.7071   -7.4089 O   0  0  0  0  0  0  0  0  0  0  0  0
    6.9907   -4.7273   -5.6799 O   0  0  0  0  0  0  0  0  0  0  0  0
    5.8662   -6.8341   -5.2059 O   0  0  0  0  0  0  0  0  0  0  0  0
    4.5191   -2.9064   -4.0870 O   0  0  0  0  0  0  0  0  0  0  0  0
    2.4973   -0.7533    1.3980 H   0  0  0  0  0  0  0  0  0  0  0  0
    4.1108    0.8980   -1.6539 H   0  0  0  0  0  0  0  0  0  0  0  0
    4.7882   -0.3579   -3.6945 H   0  0  0  0  0  0  0  0  0  0  0  0
    2.6508   -2.8588    0.0664 H   0  0  0  0  0  0  0  0  0  0  0  0
    2.4039   -4.4679   -3.8338 H   0  0  0  0  0  0  0  0  0  0  0  0
    4.2028   -6.4562   -1.2701 H   0  0  0  0  0  0  0  0  0  0  0  0
    4.2365   -8.9511   -1.2181 H   0  0  0  0  0  0  0  0  0  0  0  0
    3.6400  -10.9156   -2.4253 H   0  0  0  0  0  0  0  0  0  0  0  0
    2.3067  -10.1355   -5.0759 H   0  0  0  0  0  0  0  0  0  0  0  0
    2.2743   -6.5922   -5.1411 H   0  0  0  0  0  0  0  0  0  0  0  0
    5.4514   -4.6614   -3.5368 H   0  0  0  0  0  0  0  0  0  0  0  0
    5.0188   -7.3149   -5.2967 H   0  0  0  0  0  0  0  0  0  0  0  0
  1  2  2  0
  2  3  1  0
  2 26  1  0
  3  4  2  0
  3  8  1  0
  4  5  1  0
  4 27  1  0
  5  6  2  0
  5 28  1  0
  6  7  1  0
  6 25  1  0
  7  8  2  0
  7  9  1  0
  8 29  1  0
  9 10  1  0
 10 11  1  0
 10 19  1  0
 10 30  1  6
 11 12  2  0
 11 18  1  0
 12 13  1  0
 12 31  1  0
 13 14  2  0
 13 32  1  0
 14 15  1  0
 14 16  1  0
 15 33  1  0
 16 17  1  0
 16 18  2  0
 17 34  1  0
 18 35  1  0
 19 20  1  0
 19 25  1  0
 19 36  1  1
 21 20  1  1
 21 22  2  0
 21 23  2  0
 21 24  1  0
 24 37  1  0
M  END

