
     RDKit          3D

 41 44  0  0  0  0  0  0  0  0999 V2000
    4.4113    0.0461    1.2517 O   0  0  0  0  0  0  0  0  0  0  0  0
    3.9775    0.2311    0.1269 C   0  0  0  0  0  0  0  0  0  0  0  0
    3.0437    1.5038   -0.0465 C   0  0  0  0  0  0  0  0  0  0  0  0
    3.1612    2.3681   -1.3556 C   0  0  2  0  0  0  0  0  0  0  0  0
    1.9498    2.3643   -2.3942 C   0  0  0  0  0  0  0  0  0  0  0  0
    2.2902    1.2205   -3.4409 C   0  0  0  0  0  0  0  0  0  0  0  0
    3.3091    0.5092   -2.5409 C   0  0  1  0  0  0  0  0  0  0  0  0
    4.0794   -0.7720   -2.3218 C   0  0  0  0  0  0  0  0  0  0  0  0
    4.2663   -0.7323   -0.8476 N   0  0  0  0  0  0  0  0  0  0  0  0
    4.1476    1.6409   -2.1301 N   0  0  0  0  0  0  0  0  0  0  0  0
    5.2306    2.0460   -2.8556 C   0  0  0  0  0  0  0  0  0  0  0  0
    5.6556    1.4011   -3.8096 O   0  0  0  0  0  0  0  0  0  0  0  0
    5.9558    3.2813   -2.4257 C   0  0  0  0  0  0  0  0  0  0  0  0
    6.9982    3.8848   -3.1791 C   0  0  0  0  0  0  0  0  0  0  0  0
    7.4098    4.9493   -2.4112 C   0  0  0  0  0  0  0  0  0  0  0  0
    6.6350    4.9423   -1.2746 N   0  0  0  0  0  0  0  0  0  0  0  0
    6.7151    5.7900   -0.1404 C   0  0  0  0  0  0  0  0  0  0  0  0
    6.3018    5.3203    1.1160 C   0  0  0  0  0  0  0  0  0  0  0  0
    6.3614    6.1471    2.2374 C   0  0  0  0  0  0  0  0  0  0  0  0
    6.8438    7.4551    2.1259 C   0  0  0  0  0  0  0  0  0  0  0  0
    7.2608    7.9355    0.8832 C   0  0  0  0  0  0  0  0  0  0  0  0
    7.1875    7.1083   -0.2328 C   0  0  0  0  0  0  0  0  0  0  0  0
    7.5789    7.5982   -1.4225 F   0  0  0  0  0  0  0  0  0  0  0  0
    5.7524    3.9280   -1.2794 N   0  0  0  0  0  0  0  0  0  0  0  0
    3.3241    2.1076    0.8269 H   0  0  0  0  0  0  0  0  0  0  0  0
    2.0071    1.1715    0.1390 H   0  0  0  0  0  0  0  0  0  0  0  0
    3.4825    3.3836   -1.1084 H   0  0  0  0  0  0  0  0  0  0  0  0
    1.8800    3.3496   -2.8781 H   0  0  0  0  0  0  0  0  0  0  0  0
    0.9863    2.1718   -1.8953 H   0  0  0  0  0  0  0  0  0  0  0  0
    2.7247    1.6112   -4.3723 H   0  0  0  0  0  0  0  0  0  0  0  0
    1.4095    0.6075   -3.6837 H   0  0  0  0  0  0  0  0  0  0  0  0
    2.6191    0.3476   -1.7086 H   0  0  0  0  0  0  0  0  0  0  0  0
    5.0476   -0.8021   -2.8419 H   0  0  0  0  0  0  0  0  0  0  0  0
    3.4883   -1.6606   -2.6026 H   0  0  0  0  0  0  0  0  0  0  0  0
    4.8957   -1.4261   -0.4540 H   0  0  0  0  0  0  0  0  0  0  0  0
    7.3776    3.5570   -4.1423 H   0  0  0  0  0  0  0  0  0  0  0  0
    8.1798    5.6973   -2.5670 H   0  0  0  0  0  0  0  0  0  0  0  0
    5.9357    4.2961    1.1852 H   0  0  0  0  0  0  0  0  0  0  0  0
    6.0364    5.7610    3.2058 H   0  0  0  0  0  0  0  0  0  0  0  0
    6.8979    8.1031    3.0035 H   0  0  0  0  0  0  0  0  0  0  0  0
    7.6377    8.9515    0.7512 H   0  0  0  0  0  0  0  0  0  0  0  0
  1  2  2  0
  2  3  1  0
  2  9  1  0
  3  4  1  0
  3 25  1  0
  3 26  1  0
  4  5  1  0
  4 10  1  0
  4 27  1  1
  5  6  1  0
  5 28  1  0
  5 29  1  0
  6  7  1  0
  6 30  1  0
  6 31  1  0
  7  8  1  0
  7 10  1  0
  7 32  1  1
  8  9  1  0
  8 33  1  0
  8 34  1  0
  9 35  1  0
 10 11  1  0
 11 12  2  0
 11 13  1  0
 13 14  1  0
 13 24  2  0
 14 15  2  0
 14 36  1  0
 15 16  1  0
 15 37  1  0
 16 17  1  0
 16 24  1  0
 17 18  2  0
 17 22  1  0
 18 19  1  0
 18 38  1  0
 19 20  2  0
 19 39  1  0
 20 21  1  0
 20 40  1  0
 21 22  2  0
 21 41  1  0
 22 23  1  0
M  END

