
     RDKit          3D

 37 39  0  0  0  0  0  0  0  0999 V2000
    3.2028   -1.4481   -1.6269 C   0  0  0  0  0  0  0  0  0  0  0  0
    2.8090   -0.3999   -0.5791 C   0  0  1  0  0  0  0  0  0  0  0  0
    1.3409    0.0131   -0.7478 C   0  0  0  0  0  0  0  0  0  0  0  0
    3.0790   -0.8716    0.8715 C   0  0  0  0  0  0  0  0  0  0  0  0
    4.5282   -0.9989    1.2748 C   0  0  0  0  0  0  0  0  0  0  0  0
    5.1349   -0.0575    2.0898 C   0  0  0  0  0  0  0  0  0  0  0  0
    6.4321   -0.0833    2.5082 N   0  0  0  0  0  0  0  0  0  0  0  0
    7.1158   -1.1705    2.0210 C   0  0  0  0  0  0  0  0  0  0  0  0
    6.5191   -2.0825    1.1930 C   0  0  0  0  0  0  0  0  0  0  0  0
    7.3091   -3.2063    0.6624 N   0  0  0  0  0  0  0  0  0  0  0  0
    8.4968   -3.1566    0.0258 C   0  0  0  0  0  0  0  0  0  0  0  0
    8.9812   -4.3402   -0.3672 N   0  0  0  0  0  0  0  0  0  0  0  0
    8.0363   -5.2207    0.0215 C   0  0  0  0  0  0  0  0  0  0  0  0
    7.9890   -6.6373   -0.1335 C   0  0  0  0  0  0  0  0  0  0  0  0
    6.8916   -7.3103    0.3398 C   0  0  0  0  0  0  0  0  0  0  0  0
    5.8057   -6.6047    0.9772 C   0  0  0  0  0  0  0  0  0  0  0  0
    4.7364   -7.3007    1.4177 N   0  0  0  0  0  0  0  0  0  0  0  0
    5.8364   -5.1901    1.1504 C   0  0  0  0  0  0  0  0  0  0  0  0
    6.9512   -4.5348    0.6741 C   0  0  0  0  0  0  0  0  0  0  0  0
    5.2300   -2.0945    0.7879 N   0  0  0  0  0  0  0  0  0  0  0  0
    3.0789   -1.0536   -2.6497 H   0  0  0  0  0  0  0  0  0  0  0  0
    2.5622   -2.3439   -1.5363 H   0  0  0  0  0  0  0  0  0  0  0  0
    4.2423   -1.7751   -1.4891 H   0  0  0  0  0  0  0  0  0  0  0  0
    3.4341    0.4975   -0.7437 H   0  0  0  0  0  0  0  0  0  0  0  0
    0.6667   -0.8396   -0.5521 H   0  0  0  0  0  0  0  0  0  0  0  0
    1.1367    0.3667   -1.7722 H   0  0  0  0  0  0  0  0  0  0  0  0
    1.0625    0.8216   -0.0516 H   0  0  0  0  0  0  0  0  0  0  0  0
    2.5766   -1.8476    1.0182 H   0  0  0  0  0  0  0  0  0  0  0  0
    2.5897   -0.1612    1.5587 H   0  0  0  0  0  0  0  0  0  0  0  0
    4.5346    0.7895    2.4463 H   0  0  0  0  0  0  0  0  0  0  0  0
    8.1635   -1.2811    2.3218 H   0  0  0  0  0  0  0  0  0  0  0  0
    9.0009   -2.2042   -0.1382 H   0  0  0  0  0  0  0  0  0  0  0  0
    8.8125   -7.1559   -0.6263 H   0  0  0  0  0  0  0  0  0  0  0  0
    6.8164   -8.3950    0.2342 H   0  0  0  0  0  0  0  0  0  0  0  0
    4.6806   -8.3057    1.3061 H   0  0  0  0  0  0  0  0  0  0  0  0
    3.9524   -6.8289    1.8527 H   0  0  0  0  0  0  0  0  0  0  0  0
    5.0113   -4.6434    1.6030 H   0  0  0  0  0  0  0  0  0  0  0  0
  1  2  1  0
  1 21  1  0
  1 22  1  0
  1 23  1  0
  2  3  1  0
  2  4  1  0
  2 24  1  6
  3 25  1  0
  3 26  1  0
  3 27  1  0
  4  5  1  0
  4 28  1  0
  4 29  1  0
  5  6  2  0
  5 20  1  0
  6  7  1  0
  6 30  1  0
  7  8  2  0
  8  9  1  0
  8 31  1  0
  9 10  1  0
  9 20  2  0
 10 11  1  0
 10 19  1  0
 11 12  2  0
 11 32  1  0
 12 13  1  0
 13 14  1  0
 13 19  2  0
 14 15  2  0
 14 33  1  0
 15 16  1  0
 15 34  1  0
 16 17  1  0
 16 18  2  0
 17 35  1  0
 17 36  1  0
 18 19  1  0
 18 37  1  0
M  END

