
     RDKit          3D

 50 53  0  0  0  0  0  0  0  0999 V2000
    3.0053    1.6025    1.2462 C   0  0  0  0  0  0  0  0  0  0  0  0
    3.0300    0.5002    0.2106 C   0  0  1  0  0  0  0  0  0  0  0  0
    3.4831   -0.4347    0.5631 H   0  0  0  0  0  0  0  0  0  0  0  0
    1.9228    0.3409   -0.7931 C   0  0  0  0  0  0  0  0  0  0  0  0
    3.2959    0.7706   -1.2738 C   0  0  1  0  0  0  0  0  0  0  0  0
    3.9005    0.0076   -1.7736 H   0  0  0  0  0  0  0  0  0  0  0  0
    3.5358    2.1090   -1.8340 C   0  0  0  0  0  0  0  0  0  0  0  0
    4.5449    2.6083   -2.6332 C   0  0  0  0  0  0  0  0  0  0  0  0
    4.2478    3.9695   -2.8823 C   0  0  0  0  0  0  0  0  0  0  0  0
    3.0415    4.2533   -2.2113 C   0  0  0  0  0  0  0  0  0  0  0  0
    2.2769    5.4129   -2.1207 C   0  0  0  0  0  0  0  0  0  0  0  0
    1.0348    5.6238   -1.4324 C   0  0  0  0  0  0  0  0  0  0  0  0
    0.3712    4.6101   -0.6983 C   0  0  0  0  0  0  0  0  0  0  0  0
   -0.1961    3.8237   -0.0443 N   0  0  0  0  0  0  0  0  0  0  0  0
    0.4457    6.9335   -1.4996 C   0  0  0  0  0  0  0  0  0  0  0  0
    0.8520    7.8610   -2.2092 O   0  0  0  0  0  0  0  0  0  0  0  0
   -0.7179    7.2052   -0.6558 N   0  0  0  0  0  0  0  0  0  0  0  0
   -0.5514    7.1239    0.7808 C   0  0  0  0  0  0  0  0  0  0  0  0
    0.1844    8.3457    1.3794 C   0  0  0  0  0  0  0  0  0  0  0  0
   -0.4951    9.5947    0.9596 N   0  0  0  0  0  0  0  0  0  0  0  0
   -0.9552   10.5384    1.8206 C   0  0  0  0  0  0  0  0  0  0  0  0
   -2.0549   11.3927    1.4791 C   0  0  0  0  0  0  0  0  0  0  0  0
   -2.5382   12.3393    2.3608 C   0  0  0  0  0  0  0  0  0  0  0  0
   -1.9461   12.5093    3.6263 C   0  0  0  0  0  0  0  0  0  0  0  0
   -0.8541   11.7179    3.9920 C   0  0  0  0  0  0  0  0  0  0  0  0
   -0.3673   10.7649    3.1150 C   0  0  0  0  0  0  0  0  0  0  0  0
    0.7238   10.0908    3.4689 F   0  0  0  0  0  0  0  0  0  0  0  0
   -0.7164    9.6660   -0.4912 C   0  0  0  0  0  0  0  0  0  0  0  0
   -1.4339    8.4095   -1.0181 C   0  0  0  0  0  0  0  0  0  0  0  0
    2.6311    3.0955   -1.5771 O   0  0  0  0  0  0  0  0  0  0  0  0
    2.4767    1.2645    2.1534 H   0  0  0  0  0  0  0  0  0  0  0  0
    2.4854    2.4952    0.8719 H   0  0  0  0  0  0  0  0  0  0  0  0
    4.0270    1.8959    1.5422 H   0  0  0  0  0  0  0  0  0  0  0  0
    1.1453    1.1108   -0.7954 H   0  0  0  0  0  0  0  0  0  0  0  0
    1.5780   -0.6635   -1.0563 H   0  0  0  0  0  0  0  0  0  0  0  0
    5.3992    2.0413   -2.9982 H   0  0  0  0  0  0  0  0  0  0  0  0
    4.8165    4.6767   -3.4811 H   0  0  0  0  0  0  0  0  0  0  0  0
    2.6630    6.2811   -2.6549 H   0  0  0  0  0  0  0  0  0  0  0  0
   -0.0149    6.2121    1.0661 H   0  0  0  0  0  0  0  0  0  0  0  0
   -1.5456    7.0551    1.2584 H   0  0  0  0  0  0  0  0  0  0  0  0
    1.2223    8.3930    1.0167 H   0  0  0  0  0  0  0  0  0  0  0  0
    0.1983    8.2778    2.4692 H   0  0  0  0  0  0  0  0  0  0  0  0
   -2.5552   11.2514    0.5238 H   0  0  0  0  0  0  0  0  0  0  0  0
   -3.3979   12.9476    2.0753 H   0  0  0  0  0  0  0  0  0  0  0  0
   -2.3304   13.2587    4.3198 H   0  0  0  0  0  0  0  0  0  0  0  0
   -0.3465   11.8419    4.9497 H   0  0  0  0  0  0  0  0  0  0  0  0
    0.2805    9.6595   -0.9685 H   0  0  0  0  0  0  0  0  0  0  0  0
   -1.2256   10.5991   -0.7535 H   0  0  0  0  0  0  0  0  0  0  0  0
   -1.4956    8.4958   -2.1095 H   0  0  0  0  0  0  0  0  0  0  0  0
   -2.4611    8.3604   -0.6135 H   0  0  0  0  0  0  0  0  0  0  0  0
  1  2  1  0
  1 31  1  0
  1 32  1  0
  1 33  1  0
  2  3  1  1
  2  4  1  0
  2  5  1  0
  4  5  1  0
  4 34  1  0
  4 35  1  0
  5  6  1  6
  5  7  1  0
  7  8  2  0
  7 30  1  0
  8  9  1  0
  8 36  1  0
  9 10  2  0
  9 37  1  0
 10 11  1  0
 10 30  1  0
 11 12  2  0
 11 38  1  0
 12 13  1  0
 12 15  1  0
 13 14  3  0
 15 16  2  0
 15 17  1  0
 17 18  1  0
 17 29  1  0
 18 19  1  0
 18 39  1  0
 18 40  1  0
 19 20  1  0
 19 41  1  0
 19 42  1  0
 20 21  1  0
 20 28  1  0
 21 22  2  0
 21 26  1  0
 22 23  1  0
 22 43  1  0
 23 24  2  0
 23 44  1  0
 24 25  1  0
 24 45  1  0
 25 26  2  0
 25 46  1  0
 26 27  1  0
 28 29  1  0
 28 47  1  0
 28 48  1  0
 29 49  1  0
 29 50  1  0
M  END

