
     RDKit          3D

 36 38  0  0  0  0  0  0  0  0999 V2000
    0.8091   -0.4879    0.9511 C   0  0  0  0  0  0  0  0  0  0  0  0
    2.2012   -0.1861    0.3511 C   0  0  1  0  0  0  0  0  0  0  0  0
    2.8731    0.7963    1.1815 N   0  0  0  0  0  0  0  0  0  0  0  0
    2.8821    2.2381    0.9542 C   0  0  0  0  0  0  0  0  0  0  0  0
    3.3853    3.0055    2.1220 C   0  0  0  0  0  0  0  0  0  0  0  0
    4.6304    3.6526    2.2027 C   0  0  0  0  0  0  0  0  0  0  0  0
    4.7082    4.1943    3.4679 N   0  0  0  0  0  0  0  0  0  0  0  0
    5.4733    4.7396    3.8418 H   0  0  0  0  0  0  0  0  0  0  0  0
    3.5722    3.9112    4.2048 C   0  0  0  0  0  0  0  0  0  0  0  0
    3.3889    4.2965    5.4723 N   0  0  0  0  0  0  0  0  0  0  0  0
    2.1762    3.8873    5.9798 C   0  0  0  0  0  0  0  0  0  0  0  0
    1.2267    3.1584    5.2775 C   0  0  0  0  0  0  0  0  0  0  0  0
    1.4417    2.7491    3.9326 C   0  0  0  0  0  0  0  0  0  0  0  0
    2.7015    3.1601    3.3691 C   0  0  0  0  0  0  0  0  0  0  0  0
    3.0769   -1.4241    0.1831 C   0  0  0  0  0  0  0  0  0  0  0  0
    3.6038   -1.7308   -1.0785 C   0  0  0  0  0  0  0  0  0  0  0  0
    4.4000   -2.8659   -1.2565 C   0  0  0  0  0  0  0  0  0  0  0  0
    4.6892   -3.6943   -0.1695 C   0  0  0  0  0  0  0  0  0  0  0  0
    4.1763   -3.3885    1.0949 C   0  0  0  0  0  0  0  0  0  0  0  0
    3.3717   -2.2606    1.2708 C   0  0  0  0  0  0  0  0  0  0  0  0
    0.2001    0.4247    1.0133 H   0  0  0  0  0  0  0  0  0  0  0  0
    0.8886   -0.9197    1.9585 H   0  0  0  0  0  0  0  0  0  0  0  0
    0.3051   -1.2122    0.2970 H   0  0  0  0  0  0  0  0  0  0  0  0
    2.0595    0.2903   -0.6304 H   0  0  0  0  0  0  0  0  0  0  0  0
    3.2721    0.4904    2.0717 H   0  0  0  0  0  0  0  0  0  0  0  0
    1.8449    2.4867    0.6495 H   0  0  0  0  0  0  0  0  0  0  0  0
    3.4904    2.3831    0.0400 H   0  0  0  0  0  0  0  0  0  0  0  0
    5.4120    3.7989    1.4624 H   0  0  0  0  0  0  0  0  0  0  0  0
    1.9748    4.1771    7.0174 H   0  0  0  0  0  0  0  0  0  0  0  0
    0.2895    2.9003    5.7807 H   0  0  0  0  0  0  0  0  0  0  0  0
    0.6623    2.2419    3.3622 H   0  0  0  0  0  0  0  0  0  0  0  0
    3.3879   -1.0816   -1.9316 H   0  0  0  0  0  0  0  0  0  0  0  0
    4.7988   -3.0985   -2.2465 H   0  0  0  0  0  0  0  0  0  0  0  0
    5.3165   -4.5782   -0.3059 H   0  0  0  0  0  0  0  0  0  0  0  0
    4.4005   -4.0317    1.9488 H   0  0  0  0  0  0  0  0  0  0  0  0
    2.9725   -2.0438    2.2659 H   0  0  0  0  0  0  0  0  0  0  0  0
  1  2  1  0
  1 21  1  0
  1 22  1  0
  1 23  1  0
  2  3  1  0
  2 15  1  0
  2 24  1  6
  3  4  1  0
  3 25  1  0
  4  5  1  0
  4 26  1  0
  4 27  1  0
  5  6  2  0
  5 14  1  0
  6  7  1  0
  6 28  1  0
  7  8  1  0
  7  9  1  0
  9 10  1  0
  9 14  2  0
 10 11  2  0
 11 12  1  0
 11 29  1  0
 12 13  2  0
 12 30  1  0
 13 14  1  0
 13 31  1  0
 15 16  2  0
 15 20  1  0
 16 17  1  0
 16 32  1  0
 17 18  2  0
 17 33  1  0
 18 19  1  0
 18 34  1  0
 19 20  2  0
 19 35  1  0
 20 36  1  0
M  END

