
     RDKit          3D

 48 52  0  0  0  0  0  0  0  0999 V2000
    0.7800   -0.1278   -0.7930 O   0  0  0  0  0  0  0  0  0  0  0  0
    1.9966   -0.1558   -0.5547 C   0  0  0  0  0  0  0  0  0  0  0  0
    2.9857   -1.1793   -0.6049 C   0  0  0  0  0  0  0  0  0  0  0  0
    3.0997   -2.5362   -0.8290 N   0  0  0  0  0  0  0  0  0  0  0  0
    2.3807   -3.1748   -1.1382 H   0  0  0  0  0  0  0  0  0  0  0  0
    4.3725   -2.9876   -0.6469 N   0  0  0  0  0  0  0  0  0  0  0  0
    5.0813   -1.8737   -0.2983 C   0  0  0  0  0  0  0  0  0  0  0  0
    6.4936   -2.1154    0.0171 C   0  0  0  0  0  0  0  0  0  0  0  0
    6.9492   -3.4191    0.1928 C   0  0  0  0  0  0  0  0  0  0  0  0
    8.2867   -3.6787    0.5421 C   0  0  0  0  0  0  0  0  0  0  0  0
    8.8027   -5.2994    0.7521 Cl  0  0  0  0  0  0  0  0  0  0  0  0
    9.2343   -2.6357    0.7388 C   0  0  0  0  0  0  0  0  0  0  0  0
    8.8177   -1.3378    0.5492 C   0  0  0  0  0  0  0  0  0  0  0  0
    7.4772   -1.0652    0.1601 C   0  0  0  0  0  0  0  0  0  0  0  0
    7.0793    0.1618   -0.1053 O   0  0  0  0  0  0  0  0  0  0  0  0
    4.2707   -0.7262   -0.2588 C   0  0  0  0  0  0  0  0  0  0  0  0
    4.1800    0.7613    0.0355 C   0  0  2  0  0  0  0  0  0  0  0  0
    4.7185    1.1978    1.3997 C   0  0  0  0  0  0  0  0  0  0  0  0
    4.4236    0.4607    2.5575 C   0  0  0  0  0  0  0  0  0  0  0  0
    4.9006    0.8697    3.8042 C   0  0  0  0  0  0  0  0  0  0  0  0
    5.6814    2.0269    3.9179 C   0  0  0  0  0  0  0  0  0  0  0  0
    5.9715    2.7757    2.7749 C   0  0  0  0  0  0  0  0  0  0  0  0
    5.4909    2.3614    1.5267 C   0  0  0  0  0  0  0  0  0  0  0  0
    2.7364    1.0052   -0.1067 N   0  0  0  0  0  0  0  0  0  0  0  0
    2.2230    2.3207   -0.4082 C   0  0  0  0  0  0  0  0  0  0  0  0
    1.7261    3.0952    0.8050 C   0  0  0  0  0  0  0  0  0  0  0  0
    0.7255    2.5104    1.6027 C   0  0  0  0  0  0  0  0  0  0  0  0
    0.2092    3.1595    2.7226 C   0  0  0  0  0  0  0  0  0  0  0  0
    0.6879    4.4263    3.0772 C   0  0  0  0  0  0  0  0  0  0  0  0
    1.6747    5.0346    2.3028 C   0  0  0  0  0  0  0  0  0  0  0  0
    2.1790    4.3676    1.1795 C   0  0  0  0  0  0  0  0  0  0  0  0
    3.4187    5.2053    0.2372 Cl  0  0  0  0  0  0  0  0  0  0  0  0
    6.2301   -4.2274    0.0684 H   0  0  0  0  0  0  0  0  0  0  0  0
   10.2600   -2.8734    1.0203 H   0  0  0  0  0  0  0  0  0  0  0  0
    9.5153   -0.5049    0.6689 H   0  0  0  0  0  0  0  0  0  0  0  0
    7.7477    0.8313    0.1131 H   0  0  0  0  0  0  0  0  0  0  0  0
    4.7281    1.3469   -0.7331 H   0  0  0  0  0  0  0  0  0  0  0  0
    3.8063   -0.4368    2.4729 H   0  0  0  0  0  0  0  0  0  0  0  0
    4.6572    0.2865    4.6967 H   0  0  0  0  0  0  0  0  0  0  0  0
    6.0496    2.3486    4.8957 H   0  0  0  0  0  0  0  0  0  0  0  0
    6.5597    3.6942    2.8545 H   0  0  0  0  0  0  0  0  0  0  0  0
    5.6905    2.9702    0.6395 H   0  0  0  0  0  0  0  0  0  0  0  0
    1.3580    2.1659   -1.0752 H   0  0  0  0  0  0  0  0  0  0  0  0
    2.9719    2.9163   -0.9558 H   0  0  0  0  0  0  0  0  0  0  0  0
    0.3563    1.5253    1.3030 H   0  0  0  0  0  0  0  0  0  0  0  0
   -0.5716    2.6804    3.3187 H   0  0  0  0  0  0  0  0  0  0  0  0
    0.2923    4.9450    3.9542 H   0  0  0  0  0  0  0  0  0  0  0  0
    2.0622    6.0226    2.5575 H   0  0  0  0  0  0  0  0  0  0  0  0
  1  2  2  0
  2  3  1  0
  2 24  1  0
  3  4  1  0
  3 16  2  0
  4  5  1  0
  4  6  1  0
  6  7  2  0
  7  8  1  0
  7 16  1  0
  8  9  2  0
  8 14  1  0
  9 10  1  0
  9 33  1  0
 10 11  1  0
 10 12  2  0
 12 13  1  0
 12 34  1  0
 13 14  2  0
 13 35  1  0
 14 15  1  0
 15 36  1  0
 16 17  1  0
 17 18  1  0
 17 24  1  0
 17 37  1  6
 18 19  2  0
 18 23  1  0
 19 20  1  0
 19 38  1  0
 20 21  2  0
 20 39  1  0
 21 22  1  0
 21 40  1  0
 22 23  2  0
 22 41  1  0
 23 42  1  0
 24 25  1  0
 25 26  1  0
 25 43  1  0
 25 44  1  0
 26 27  2  0
 26 31  1  0
 27 28  1  0
 27 45  1  0
 28 29  2  0
 28 46  1  0
 29 30  1  0
 29 47  1  0
 30 31  2  0
 30 48  1  0
 31 32  1  0
M  END

