
     RDKit          3D

 49 51  0  0  0  0  0  0  0  0999 V2000
    2.7208   -1.5300   -1.6889 O   0  0  0  0  0  0  0  0  0  0  0  0
    2.1808   -1.4173   -0.6071 C   0  0  0  0  0  0  0  0  0  0  0  0
    0.7889   -1.4456   -0.4094 N   0  0  0  0  0  0  0  0  0  0  0  0
   -0.2422   -1.6748   -1.3099 C   0  0  0  0  0  0  0  0  0  0  0  0
   -0.0159   -1.9831   -2.6795 C   0  0  0  0  0  0  0  0  0  0  0  0
   -1.1619   -2.2041   -3.5153 C   0  0  0  0  0  0  0  0  0  0  0  0
   -2.4618   -2.1120   -2.9655 C   0  0  0  0  0  0  0  0  0  0  0  0
   -2.6851   -1.8058   -1.6013 C   0  0  0  0  0  0  0  0  0  0  0  0
   -1.5586   -1.5847   -0.7482 C   0  0  0  0  0  0  0  0  0  0  0  0
    2.8697   -1.2210    0.5714 N   0  0  0  0  0  0  0  0  0  0  0  0
    4.3315   -1.1916    0.5864 C   0  0  1  0  0  0  0  0  0  0  0  0
    4.8462   -0.2092    1.6510 C   0  0  0  0  0  0  0  0  0  0  0  0
    4.6834   -0.7492    3.0803 C   0  0  0  0  0  0  0  0  0  0  0  0
    5.2644   -2.0775    3.2147 N   0  0  0  0  0  0  0  0  0  0  0  0
    6.1506   -2.4770    4.1931 C   0  0  0  0  0  0  0  0  0  0  0  0
    6.5530   -3.6291    4.2573 O   0  0  0  0  0  0  0  0  0  0  0  0
    6.6257   -1.4224    5.1957 C   0  0  0  0  0  0  0  0  0  0  0  0
    7.5957   -1.9851    6.2328 C   0  0  1  0  0  0  0  0  0  0  0  0
    8.1669   -0.9307    7.1968 C   0  0  0  0  0  0  0  0  0  0  0  0
    8.5896   -1.7974    8.3815 C   0  0  0  0  0  0  0  0  0  0  0  0
    7.5989   -2.8054    8.4790 O   0  0  0  0  0  0  0  0  0  0  0  0
    6.9806   -3.0113    7.2116 C   0  0  0  0  0  0  0  0  0  0  0  0
    4.7641   -3.0650    2.2580 C   0  0  0  0  0  0  0  0  0  0  0  0
    4.9530   -2.5843    0.8175 C   0  0  0  0  0  0  0  0  0  0  0  0
    0.4668   -1.2427    0.5326 H   0  0  0  0  0  0  0  0  0  0  0  0
    0.9976   -2.0364   -3.0643 H   0  0  0  0  0  0  0  0  0  0  0  0
   -1.0263   -2.4420   -4.5707 H   0  0  0  0  0  0  0  0  0  0  0  0
   -3.3251   -2.2836   -3.6152 H   0  0  0  0  0  0  0  0  0  0  0  0
   -3.6997   -1.7394   -1.2072 H   0  0  0  0  0  0  0  0  0  0  0  0
   -1.6872   -1.3459    0.3103 H   0  0  0  0  0  0  0  0  0  0  0  0
    2.3814   -1.3066    1.4548 H   0  0  0  0  0  0  0  0  0  0  0  0
    4.6200   -0.8397   -0.4136 H   0  0  0  0  0  0  0  0  0  0  0  0
    4.3306    0.7598    1.5541 H   0  0  0  0  0  0  0  0  0  0  0  0
    5.9181   -0.0327    1.4647 H   0  0  0  0  0  0  0  0  0  0  0  0
    3.6068   -0.7882    3.3525 H   0  0  0  0  0  0  0  0  0  0  0  0
    5.1469   -0.0557    3.7904 H   0  0  0  0  0  0  0  0  0  0  0  0
    5.7524   -0.9783    5.7068 H   0  0  0  0  0  0  0  0  0  0  0  0
    7.1088   -0.5952    4.6460 H   0  0  0  0  0  0  0  0  0  0  0  0
    8.4279   -2.4704    5.6976 H   0  0  0  0  0  0  0  0  0  0  0  0
    7.3771   -0.2239    7.5064 H   0  0  0  0  0  0  0  0  0  0  0  0
    8.9949   -0.3479    6.7636 H   0  0  0  0  0  0  0  0  0  0  0  0
    8.6329   -1.2505    9.3373 H   0  0  0  0  0  0  0  0  0  0  0  0
    9.5914   -2.2411    8.2012 H   0  0  0  0  0  0  0  0  0  0  0  0
    5.8890   -2.8573    7.3204 H   0  0  0  0  0  0  0  0  0  0  0  0
    7.1363   -4.0452    6.8662 H   0  0  0  0  0  0  0  0  0  0  0  0
    3.6900   -3.2541    2.4584 H   0  0  0  0  0  0  0  0  0  0  0  0
    5.2989   -4.0035    2.4457 H   0  0  0  0  0  0  0  0  0  0  0  0
    4.5152   -3.3062    0.1106 H   0  0  0  0  0  0  0  0  0  0  0  0
    6.0319   -2.5267    0.5955 H   0  0  0  0  0  0  0  0  0  0  0  0
  1  2  2  0
  2  3  1  0
  2 10  1  0
  3  4  1  0
  3 25  1  0
  4  5  2  0
  4  9  1  0
  5  6  1  0
  5 26  1  0
  6  7  2  0
  6 27  1  0
  7  8  1  0
  7 28  1  0
  8  9  2  0
  8 29  1  0
  9 30  1  0
 10 11  1  0
 10 31  1  0
 11 12  1  0
 11 24  1  0
 11 32  1  6
 12 13  1  0
 12 33  1  0
 12 34  1  0
 13 14  1  0
 13 35  1  0
 13 36  1  0
 14 15  1  0
 14 23  1  0
 15 16  2  0
 15 17  1  0
 17 18  1  0
 17 37  1  0
 17 38  1  0
 18 19  1  0
 18 22  1  0
 18 39  1  6
 19 20  1  0
 19 40  1  0
 19 41  1  0
 20 21  1  0
 20 42  1  0
 20 43  1  0
 21 22  1  0
 22 44  1  0
 22 45  1  0
 23 24  1  0
 23 46  1  0
 23 47  1  0
 24 48  1  0
 24 49  1  0
M  END

