
     RDKit          3D

 33 33  0  0  0  0  0  0  0  0999 V2000
    0.9917   -1.9824   -0.0157 C   0  0  0  0  0  0  0  0  0  0  0  0
    2.3815   -2.0802   -0.1520 O   0  0  0  0  0  0  0  0  0  0  0  0
    2.9819   -0.9431   -0.7286 C   0  0  0  0  0  0  0  0  0  0  0  0
    4.4816   -1.1635   -0.8407 C   0  0  0  0  0  0  0  0  0  0  0  0
    4.8547   -2.3489   -1.7206 C   0  0  0  0  0  0  0  0  0  0  0  0
    6.2569   -2.4269   -1.8032 O   0  0  0  0  0  0  0  0  0  0  0  0
    6.7338   -3.5189   -2.5524 C   0  0  0  0  0  0  0  0  0  0  0  0
    8.2572   -3.5022   -2.4747 C   0  0  0  0  0  0  0  0  0  0  0  0
    8.8415   -4.4522   -3.3525 O   0  0  0  0  0  0  0  0  0  0  0  0
    8.9001   -5.7420   -2.8884 C   0  0  0  0  0  0  0  0  0  0  0  0
    8.4337   -6.1367   -1.8031 O   0  0  0  0  0  0  0  0  0  0  0  0
    9.5639   -6.6657   -3.7792 C   0  0  0  0  0  0  0  0  0  0  0  0
   10.1432   -6.5203   -4.9812 N   0  0  0  0  0  0  0  0  0  0  0  0
   10.5614   -7.7838   -5.2427 C   0  0  0  0  0  0  0  0  0  0  0  0
   11.2221   -8.0548   -6.4166 N   0  0  0  0  0  0  0  0  0  0  0  0
   10.3204   -8.7349   -4.3532 N   0  0  0  0  0  0  0  0  0  0  0  0
    9.6758   -8.0127   -3.4032 N   0  0  0  0  0  0  0  0  0  0  0  0
    9.3253   -8.4104   -2.5384 H   0  0  0  0  0  0  0  0  0  0  0  0
    0.6291   -2.9143    0.4431 H   0  0  0  0  0  0  0  0  0  0  0  0
    0.4839   -1.8513   -0.9940 H   0  0  0  0  0  0  0  0  0  0  0  0
    0.6949   -1.1325    0.6335 H   0  0  0  0  0  0  0  0  0  0  0  0
    2.7763   -0.0423   -0.1121 H   0  0  0  0  0  0  0  0  0  0  0  0
    2.5440   -0.7462   -1.7323 H   0  0  0  0  0  0  0  0  0  0  0  0
    4.9076   -1.3170    0.1646 H   0  0  0  0  0  0  0  0  0  0  0  0
    4.9474   -0.2522   -1.2521 H   0  0  0  0  0  0  0  0  0  0  0  0
    4.4112   -2.2255   -2.7337 H   0  0  0  0  0  0  0  0  0  0  0  0
    4.4301   -3.2803   -1.2980 H   0  0  0  0  0  0  0  0  0  0  0  0
    6.4188   -3.4449   -3.6150 H   0  0  0  0  0  0  0  0  0  0  0  0
    6.3529   -4.4777   -2.1516 H   0  0  0  0  0  0  0  0  0  0  0  0
    8.5712   -3.6868   -1.4356 H   0  0  0  0  0  0  0  0  0  0  0  0
    8.6254   -2.5162   -2.7955 H   0  0  0  0  0  0  0  0  0  0  0  0
   11.3874   -7.2930   -7.0683 H   0  0  0  0  0  0  0  0  0  0  0  0
   11.5413   -8.9972   -6.6210 H   0  0  0  0  0  0  0  0  0  0  0  0
  1  2  1  0
  1 19  1  0
  1 20  1  0
  1 21  1  0
  2  3  1  0
  3  4  1  0
  3 22  1  0
  3 23  1  0
  4  5  1  0
  4 24  1  0
  4 25  1  0
  5  6  1  0
  5 26  1  0
  5 27  1  0
  6  7  1  0
  7  8  1  0
  7 28  1  0
  7 29  1  0
  8  9  1  0
  8 30  1  0
  8 31  1  0
  9 10  1  0
 10 11  2  0
 10 12  1  0
 12 13  2  0
 12 17  1  0
 13 14  1  0
 14 15  1  0
 14 16  2  0
 15 32  1  0
 15 33  1  0
 16 17  1  0
 17 18  1  0
M  END

