
     RDKit          3D

 52 57  0  0  0  0  0  0  0  0999 V2000
    0.8793    0.0315    0.4940 C   0  0  0  0  0  0  0  0  0  0  0  0
    2.3654    0.0367    0.2316 C   0  0  0  0  0  0  0  0  0  0  0  0
    3.2610   -0.6340    1.0771 C   0  0  0  0  0  0  0  0  0  0  0  0
    4.6377   -0.6091    0.8419 C   0  0  0  0  0  0  0  0  0  0  0  0
    5.1764    0.0946   -0.2489 C   0  0  0  0  0  0  0  0  0  0  0  0
    6.6432    0.0698   -0.5154 C   0  0  0  0  0  0  0  0  0  0  0  0
    7.2799   -1.1785   -0.6262 C   0  0  0  0  0  0  0  0  0  0  0  0
    8.6378   -1.2878   -0.9053 C   0  0  0  0  0  0  0  0  0  0  0  0
    9.4273   -0.1405   -1.0920 C   0  0  0  0  0  0  0  0  0  0  0  0
   10.8296   -0.2191   -1.3867 C   0  0  0  0  0  0  0  0  0  0  0  0
   11.5844    0.9016   -1.5723 C   0  0  0  0  0  0  0  0  0  0  0  0
   11.0108    2.2198   -1.4787 C   0  0  0  0  0  0  0  0  0  0  0  0
   11.7749    3.4049   -1.6662 C   0  0  0  0  0  0  0  0  0  0  0  0
   13.2100    3.3827   -2.0694 C   0  0  0  0  0  0  0  0  0  0  0  0
   13.6349    2.7400   -3.2478 C   0  0  0  0  0  0  0  0  0  0  0  0
   14.9723    2.7695   -3.6414 C   0  0  0  0  0  0  0  0  0  0  0  0
   15.9188    3.4456   -2.8624 C   0  0  0  0  0  0  0  0  0  0  0  0
   17.3547    3.5233   -3.3147 C   0  0  1  0  0  0  0  0  0  0  0  0
   17.7172    2.4371   -4.0209 F   0  0  0  0  0  0  0  0  0  0  0  0
   17.5699    4.5926   -4.1072 F   0  0  0  0  0  0  0  0  0  0  0  0
   18.2025    3.6321   -2.2761 F   0  0  0  0  0  0  0  0  0  0  0  0
   15.5145    4.0907   -1.6884 C   0  0  0  0  0  0  0  0  0  0  0  0
   14.1750    4.0600   -1.3010 C   0  0  0  0  0  0  0  0  0  0  0  0
   11.1598    4.6535   -1.4721 C   0  0  0  0  0  0  0  0  0  0  0  0
    9.8153    4.7618   -1.1346 C   0  0  0  0  0  0  0  0  0  0  0  0
    9.0205    3.6140   -0.9746 C   0  0  0  0  0  0  0  0  0  0  0  0
    7.6299    3.6921   -0.6275 C   0  0  0  0  0  0  0  0  0  0  0  0
    6.8677    2.5710   -0.4790 C   0  0  0  0  0  0  0  0  0  0  0  0
    7.4198    1.2531   -0.6627 C   0  0  0  0  0  0  0  0  0  0  0  0
    8.8192    1.1472   -0.9687 C   0  0  0  0  0  0  0  0  0  0  0  0
    9.6180    2.3260   -1.1440 C   0  0  0  0  0  0  0  0  0  0  0  0
    4.2767    0.7609   -1.1030 C   0  0  0  0  0  0  0  0  0  0  0  0
    2.9026    0.7304   -0.8656 C   0  0  0  0  0  0  0  0  0  0  0  0
    0.5965   -0.7563    1.2080 H   0  0  0  0  0  0  0  0  0  0  0  0
    0.3062   -0.1273   -0.4336 H   0  0  0  0  0  0  0  0  0  0  0  0
    0.5459    0.9955    0.9167 H   0  0  0  0  0  0  0  0  0  0  0  0
    2.8758   -1.1864    1.9391 H   0  0  0  0  0  0  0  0  0  0  0  0
    5.3103   -1.1353    1.5242 H   0  0  0  0  0  0  0  0  0  0  0  0
    6.6797   -2.0845   -0.5135 H   0  0  0  0  0  0  0  0  0  0  0  0
    9.0999   -2.2745   -0.9953 H   0  0  0  0  0  0  0  0  0  0  0  0
   11.2913   -1.2081   -1.4536 H   0  0  0  0  0  0  0  0  0  0  0  0
   12.6505    0.8034   -1.7781 H   0  0  0  0  0  0  0  0  0  0  0  0
   12.9023    2.2253   -3.8731 H   0  0  0  0  0  0  0  0  0  0  0  0
   15.2832    2.2665   -4.5591 H   0  0  0  0  0  0  0  0  0  0  0  0
   16.2512    4.6080   -1.0708 H   0  0  0  0  0  0  0  0  0  0  0  0
   13.8706    4.5551   -0.3760 H   0  0  0  0  0  0  0  0  0  0  0  0
   11.7521    5.5601   -1.6173 H   0  0  0  0  0  0  0  0  0  0  0  0
    9.3628    5.7480   -1.0015 H   0  0  0  0  0  0  0  0  0  0  0  0
    7.1888    4.6804   -0.4725 H   0  0  0  0  0  0  0  0  0  0  0  0
    5.8189    2.6656   -0.1976 H   0  0  0  0  0  0  0  0  0  0  0  0
    4.6592    1.2907   -1.9788 H   0  0  0  0  0  0  0  0  0  0  0  0
    2.2299    1.2498   -1.5548 H   0  0  0  0  0  0  0  0  0  0  0  0
  1  2  1  0
  1 34  1  0
  1 35  1  0
  1 36  1  0
  2  3  2  0
  2 33  1  0
  3  4  1  0
  3 37  1  0
  4  5  2  0
  4 38  1  0
  5  6  1  0
  5 32  1  0
  6  7  2  0
  6 29  1  0
  7  8  1  0
  7 39  1  0
  8  9  2  0
  8 40  1  0
  9 10  1  0
  9 30  1  0
 10 11  2  0
 10 41  1  0
 11 12  1  0
 11 42  1  0
 12 13  2  0
 12 31  1  0
 13 14  1  0
 13 24  1  0
 14 15  2  0
 14 23  1  0
 15 16  1  0
 15 43  1  0
 16 17  2  0
 16 44  1  0
 17 18  1  0
 17 22  1  0
 18 19  1  6
 18 20  1  0
 18 21  1  0
 22 23  2  0
 22 45  1  0
 23 46  1  0
 24 25  2  0
 24 47  1  0
 25 26  1  0
 25 48  1  0
 26 27  2  0
 26 31  1  0
 27 28  1  0
 27 49  1  0
 28 29  2  0
 28 50  1  0
 29 30  1  0
 30 31  2  0
 32 33  2  0
 32 51  1  0
 33 52  1  0
M  END

