
     RDKit          3D

 19 20  0  0  0  0  0  0  0  0999 V2000
    0.6271   -3.3651   -0.5732 O   0  0  0  0  0  0  0  0  0  0  0  0
    1.3249   -2.3306   -0.2586 C   0  0  0  0  0  0  0  0  0  0  0  0
    2.5042   -2.2895    0.4874 C   0  0  0  0  0  0  0  0  0  0  0  0
    3.2804   -3.2941    1.1086 C   0  0  0  0  0  0  0  0  0  0  0  0
    4.3059   -2.5884    1.6743 N   0  0  0  0  0  0  0  0  0  0  0  0
    5.3884   -3.0812    2.4292 C   0  0  0  0  0  0  0  0  0  0  0  0
    6.3634   -2.2055    2.9417 C   0  0  0  0  0  0  0  0  0  0  0  0
    7.4027   -2.7595    3.6786 C   0  0  0  0  0  0  0  0  0  0  0  0
    7.4169   -4.1445    3.8650 C   0  0  0  0  0  0  0  0  0  0  0  0
    8.3990   -4.7181    4.5685 F   0  0  0  0  0  0  0  0  0  0  0  0
    6.4058   -4.9302    3.3172 C   0  0  0  0  0  0  0  0  0  0  0  0
    5.4069   -4.4010    2.6094 N   0  0  0  0  0  0  0  0  0  0  0  0
    4.1751   -1.2528    1.4233 N   0  0  0  0  0  0  0  0  0  0  0  0
    3.1256   -1.0643    0.7295 N   0  0  0  0  0  0  0  0  0  0  0  0
    0.9141   -1.3734   -0.6404 H   0  0  0  0  0  0  0  0  0  0  0  0
    3.2032   -4.3705    1.1950 H   0  0  0  0  0  0  0  0  0  0  0  0
    6.2894   -1.1346    2.7575 H   0  0  0  0  0  0  0  0  0  0  0  0
    8.1951   -2.1430    4.1077 H   0  0  0  0  0  0  0  0  0  0  0  0
    6.4176   -6.0155    3.4634 H   0  0  0  0  0  0  0  0  0  0  0  0
  1  2  2  0
  2  3  1  0
  2 15  1  0
  3  4  2  0
  3 14  1  0
  4  5  1  0
  4 16  1  0
  5  6  1  0
  5 13  1  0
  6  7  2  0
  6 12  1  0
  7  8  1  0
  7 17  1  0
  8  9  2  0
  8 18  1  0
  9 10  1  0
  9 11  1  0
 11 12  2  0
 11 19  1  0
 13 14  2  0
M  END

