
     RDKit          3D

 40 41  0  0  0  0  0  0  0  0999 V2000
    2.2881   -1.1454    1.8393 C   0  0  0  0  0  0  0  0  0  0  0  0
    3.6113   -0.9689    1.1146 C   0  0  0  0  0  0  0  0  0  0  0  0
    4.3720    0.1311    1.6554 O   0  0  0  0  0  0  0  0  0  0  0  0
    4.1277    1.3622    1.1774 C   0  0  0  0  0  0  0  0  0  0  0  0
    3.3058    1.5892    0.3173 O   0  0  0  0  0  0  0  0  0  0  0  0
    4.9915    2.4144    1.8705 C   0  0  1  0  0  0  0  0  0  0  0  0
    6.4950    2.0595    1.8576 C   0  0  0  0  0  0  0  0  0  0  0  0
    7.1140    2.2250    0.4643 C   0  0  0  0  0  0  0  0  0  0  0  0
    6.8594    3.6219   -0.1188 C   0  0  0  0  0  0  0  0  0  0  0  0
    5.3609    3.9534   -0.1367 C   0  0  2  0  0  0  0  0  0  0  0  0
    5.1402    5.2716   -0.7062 N   0  0  0  0  0  0  0  0  0  0  0  0
    3.9771    5.7010   -1.2815 C   0  0  0  0  0  0  0  0  0  0  0  0
    2.8505    4.8580   -1.4493 C   0  0  0  0  0  0  0  0  0  0  0  0
    1.6918    5.3216   -2.0622 C   0  0  0  0  0  0  0  0  0  0  0  0
    1.6029    6.6415   -2.5259 C   0  0  0  0  0  0  0  0  0  0  0  0
    0.0001    7.2557   -3.3575 Br  0  0  0  0  0  0  0  0  0  0  0  0
    2.6828    7.5016   -2.3721 C   0  0  0  0  0  0  0  0  0  0  0  0
    3.8631    7.0448   -1.7567 C   0  0  0  0  0  0  0  0  0  0  0  0
    4.9771    7.9272   -1.5952 C   0  0  0  0  0  0  0  0  0  0  0  0
    5.9125    8.6001   -1.4345 N   0  0  0  0  0  0  0  0  0  0  0  0
    4.7540    3.8101    1.2752 C   0  0  0  0  0  0  0  0  0  0  0  0
    1.7699   -2.0393    1.4570 H   0  0  0  0  0  0  0  0  0  0  0  0
    1.6334   -0.2765    1.6767 H   0  0  0  0  0  0  0  0  0  0  0  0
    2.4451   -1.2757    2.9213 H   0  0  0  0  0  0  0  0  0  0  0  0
    3.4533   -0.7965    0.0399 H   0  0  0  0  0  0  0  0  0  0  0  0
    4.2609   -1.8460    1.2474 H   0  0  0  0  0  0  0  0  0  0  0  0
    4.6519    2.4049    2.9216 H   0  0  0  0  0  0  0  0  0  0  0  0
    6.6427    1.0356    2.2308 H   0  0  0  0  0  0  0  0  0  0  0  0
    7.0066    2.7348    2.5651 H   0  0  0  0  0  0  0  0  0  0  0  0
    6.6960    1.4641   -0.2199 H   0  0  0  0  0  0  0  0  0  0  0  0
    8.1976    2.0292    0.5108 H   0  0  0  0  0  0  0  0  0  0  0  0
    7.2657    3.6973   -1.1406 H   0  0  0  0  0  0  0  0  0  0  0  0
    7.3892    4.3781    0.4919 H   0  0  0  0  0  0  0  0  0  0  0  0
    4.8667    3.2200   -0.7931 H   0  0  0  0  0  0  0  0  0  0  0  0
    5.8639    5.9674   -0.5580 H   0  0  0  0  0  0  0  0  0  0  0  0
    2.8770    3.8305   -1.0841 H   0  0  0  0  0  0  0  0  0  0  0  0
    0.8406    4.6478   -2.1764 H   0  0  0  0  0  0  0  0  0  0  0  0
    2.6305    8.5328   -2.7233 H   0  0  0  0  0  0  0  0  0  0  0  0
    3.6776    4.0322    1.2441 H   0  0  0  0  0  0  0  0  0  0  0  0
    5.2214    4.5622    1.9339 H   0  0  0  0  0  0  0  0  0  0  0  0
  1  2  1  0
  1 22  1  0
  1 23  1  0
  1 24  1  0
  2  3  1  0
  2 25  1  0
  2 26  1  0
  3  4  1  0
  4  5  2  0
  4  6  1  0
  6  7  1  0
  6 21  1  0
  6 27  1  1
  7  8  1  0
  7 28  1  0
  7 29  1  0
  8  9  1  0
  8 30  1  0
  8 31  1  0
  9 10  1  0
  9 32  1  0
  9 33  1  0
 10 11  1  0
 10 21  1  0
 10 34  1  6
 11 12  1  0
 11 35  1  0
 12 13  2  0
 12 18  1  0
 13 14  1  0
 13 36  1  0
 14 15  2  0
 14 37  1  0
 15 16  1  0
 15 17  1  0
 17 18  2  0
 17 38  1  0
 18 19  1  0
 19 20  3  0
 21 39  1  0
 21 40  1  0
M  END

