
     RDKit          3D

 47 51  0  0  0  0  0  0  0  0999 V2000
    1.5467    0.1330    1.2461 F   0  0  0  0  0  0  0  0  0  0  0  0
    2.9006    0.0195    0.3064 Si  0  0  1  0  0  4  0  0  0  0  0  0
    4.2792   -0.2934    1.5496 C   0  0  0  0  0  0  0  0  0  0  0  0
    4.0268   -1.1533    2.6392 C   0  0  0  0  0  0  0  0  0  0  0  0
    5.0071   -1.4054    3.6026 C   0  0  0  0  0  0  0  0  0  0  0  0
    6.2619   -0.7965    3.4995 C   0  0  0  0  0  0  0  0  0  0  0  0
    6.5280    0.0682    2.4341 C   0  0  0  0  0  0  0  0  0  0  0  0
    5.5449    0.3182    1.4717 C   0  0  0  0  0  0  0  0  0  0  0  0
    2.5312   -1.4673   -0.7900 C   0  0  0  0  0  0  0  0  0  0  0  0
    1.6676   -1.3253   -1.8944 C   0  0  0  0  0  0  0  0  0  0  0  0
    1.3209   -2.4234   -2.6852 C   0  0  0  0  0  0  0  0  0  0  0  0
    1.8375   -3.6893   -2.3902 C   0  0  0  0  0  0  0  0  0  0  0  0
    2.6995   -3.8506   -1.3021 C   0  0  0  0  0  0  0  0  0  0  0  0
    3.0414   -2.7493   -0.5105 C   0  0  0  0  0  0  0  0  0  0  0  0
    3.1541    1.6114   -0.7048 C   0  0  0  0  0  0  0  0  0  0  0  0
    2.4361    2.8222   -0.4640 C   0  0  0  0  0  0  0  0  0  0  0  0
    1.4572    2.9782    0.5783 C   0  0  0  0  0  0  0  0  0  0  0  0
    0.7934    4.1641    0.7777 C   0  0  0  0  0  0  0  0  0  0  0  0
    1.0442    5.2970   -0.0473 C   0  0  0  0  0  0  0  0  0  0  0  0
    1.9677    5.2048   -1.0547 C   0  0  0  0  0  0  0  0  0  0  0  0
    2.6868    3.9886   -1.2919 C   0  0  0  0  0  0  0  0  0  0  0  0
    3.6360    3.9185   -2.3161 C   0  0  0  0  0  0  0  0  0  0  0  0
    4.3699    2.7547   -2.5631 C   0  0  0  0  0  0  0  0  0  0  0  0
    5.3521    2.7149   -3.6050 C   0  0  0  0  0  0  0  0  0  0  0  0
    6.0891    1.5843   -3.8432 C   0  0  0  0  0  0  0  0  0  0  0  0
    5.8767    0.4272   -3.0409 C   0  0  0  0  0  0  0  0  0  0  0  0
    4.9381    0.4283   -2.0382 C   0  0  0  0  0  0  0  0  0  0  0  0
    4.1328    1.5826   -1.7450 C   0  0  0  0  0  0  0  0  0  0  0  0
    3.0450   -1.6236    2.7452 H   0  0  0  0  0  0  0  0  0  0  0  0
    4.7895   -2.0743    4.4396 H   0  0  0  0  0  0  0  0  0  0  0  0
    7.0295   -0.9913    4.2533 H   0  0  0  0  0  0  0  0  0  0  0  0
    7.5033    0.5556    2.3543 H   0  0  0  0  0  0  0  0  0  0  0  0
    5.7692    1.0075    0.6538 H   0  0  0  0  0  0  0  0  0  0  0  0
    1.2598   -0.3412   -2.1445 H   0  0  0  0  0  0  0  0  0  0  0  0
    0.6481   -2.2912   -3.5368 H   0  0  0  0  0  0  0  0  0  0  0  0
    1.5694   -4.5491   -3.0101 H   0  0  0  0  0  0  0  0  0  0  0  0
    3.1077   -4.8374   -1.0677 H   0  0  0  0  0  0  0  0  0  0  0  0
    3.7188   -2.8940    0.3357 H   0  0  0  0  0  0  0  0  0  0  0  0
    1.2308    2.1341    1.2242 H   0  0  0  0  0  0  0  0  0  0  0  0
    0.0589    4.2379    1.5839 H   0  0  0  0  0  0  0  0  0  0  0  0
    0.5029    6.2303    0.1270 H   0  0  0  0  0  0  0  0  0  0  0  0
    2.1788    6.0626   -1.6992 H   0  0  0  0  0  0  0  0  0  0  0  0
    3.8152    4.8021   -2.9358 H   0  0  0  0  0  0  0  0  0  0  0  0
    5.5031    3.6157   -4.2062 H   0  0  0  0  0  0  0  0  0  0  0  0
    6.8371    1.5653   -4.6396 H   0  0  0  0  0  0  0  0  0  0  0  0
    6.4660   -0.4743   -3.2264 H   0  0  0  0  0  0  0  0  0  0  0  0
    4.8114   -0.4841   -1.4559 H   0  0  0  0  0  0  0  0  0  0  0  0
  2  1  1  1
  2  3  1  0
  2  9  1  0
  2 15  1  0
  3  4  2  0
  3  8  1  0
  4  5  1  0
  4 29  1  0
  5  6  2  0
  5 30  1  0
  6  7  1  0
  6 31  1  0
  7  8  2  0
  7 32  1  0
  8 33  1  0
  9 10  2  0
  9 14  1  0
 10 11  1  0
 10 34  1  0
 11 12  2  0
 11 35  1  0
 12 13  1  0
 12 36  1  0
 13 14  2  0
 13 37  1  0
 14 38  1  0
 15 16  1  0
 15 28  2  0
 16 17  2  0
 16 21  1  0
 17 18  1  0
 17 39  1  0
 18 19  2  0
 18 40  1  0
 19 20  1  0
 19 41  1  0
 20 21  2  0
 20 42  1  0
 21 22  1  0
 22 23  2  0
 22 43  1  0
 23 24  1  0
 23 28  1  0
 24 25  2  0
 24 44  1  0
 25 26  1  0
 25 45  1  0
 26 27  2  0
 26 46  1  0
 27 28  1  0
 27 47  1  0
M  END

