
     RDKit          3D

 33 33  0  0  0  0  0  0  0  0999 V2000
    6.1613    0.1362   -2.3253 C   0  0  0  0  0  0  0  0  0  0  0  0
    4.9610    0.3898   -1.4198 C   0  0  0  0  0  0  0  0  0  0  0  0
    5.3560    1.0451   -0.1863 N   0  0  0  0  0  0  0  0  0  0  0  0
    4.2580    1.3164    0.7319 C   0  0  0  0  0  0  0  0  0  0  0  0
    4.7162    2.0160    1.9772 C   0  0  0  0  0  0  0  0  0  0  0  0
    4.5980    3.3569    2.2888 C   0  0  0  0  0  0  0  0  0  0  0  0
    5.1804    3.5152    3.5310 N   0  0  0  0  0  0  0  0  0  0  0  0
    5.3453    4.7540    4.2672 C   0  0  0  0  0  0  0  0  0  0  0  0
    6.5417    5.5773    3.7893 C   0  0  0  0  0  0  0  0  0  0  0  0
    6.5903    6.7398    4.5696 O   0  0  0  0  0  0  0  0  0  0  0  0
    7.6540    7.6144    4.2555 C   0  0  0  0  0  0  0  0  0  0  0  0
    7.5823    8.8254    5.1664 C   0  0  0  0  0  0  0  0  0  0  0  0
    5.6224    2.2724    3.9027 C   0  0  0  0  0  0  0  0  0  0  0  0
    5.3593    1.3582    3.0006 N   0  0  0  0  0  0  0  0  0  0  0  0
    5.8626   -0.3969   -3.2417 H   0  0  0  0  0  0  0  0  0  0  0  0
    6.9212   -0.4631   -1.8002 H   0  0  0  0  0  0  0  0  0  0  0  0
    6.6349    1.0843   -2.6338 H   0  0  0  0  0  0  0  0  0  0  0  0
    4.4886   -0.5742   -1.1562 H   0  0  0  0  0  0  0  0  0  0  0  0
    4.1822    0.9578   -1.9846 H   0  0  0  0  0  0  0  0  0  0  0  0
    5.8525    1.9126   -0.3904 H   0  0  0  0  0  0  0  0  0  0  0  0
    3.8087    0.3503    1.0202 H   0  0  0  0  0  0  0  0  0  0  0  0
    3.4408    1.9154    0.2655 H   0  0  0  0  0  0  0  0  0  0  0  0
    4.1431    4.1895    1.7562 H   0  0  0  0  0  0  0  0  0  0  0  0
    5.4754    4.5163    5.3336 H   0  0  0  0  0  0  0  0  0  0  0  0
    4.4301    5.3597    4.1794 H   0  0  0  0  0  0  0  0  0  0  0  0
    6.4302    5.8182    2.7111 H   0  0  0  0  0  0  0  0  0  0  0  0
    7.4719    4.9796    3.8903 H   0  0  0  0  0  0  0  0  0  0  0  0
    7.5915    7.9236    3.1908 H   0  0  0  0  0  0  0  0  0  0  0  0
    8.6262    7.0921    4.3774 H   0  0  0  0  0  0  0  0  0  0  0  0
    6.6259    9.3541    5.0331 H   0  0  0  0  0  0  0  0  0  0  0  0
    8.4023    9.5254    4.9426 H   0  0  0  0  0  0  0  0  0  0  0  0
    7.6613    8.5213    6.2216 H   0  0  0  0  0  0  0  0  0  0  0  0
    6.1187    2.1073    4.8606 H   0  0  0  0  0  0  0  0  0  0  0  0
  1  2  1  0
  1 15  1  0
  1 16  1  0
  1 17  1  0
  2  3  1  0
  2 18  1  0
  2 19  1  0
  3  4  1  0
  3 20  1  0
  4  5  1  0
  4 21  1  0
  4 22  1  0
  5  6  2  0
  5 14  1  0
  6  7  1  0
  6 23  1  0
  7  8  1  0
  7 13  1  0
  8  9  1  0
  8 24  1  0
  8 25  1  0
  9 10  1  0
  9 26  1  0
  9 27  1  0
 10 11  1  0
 11 12  1  0
 11 28  1  0
 11 29  1  0
 12 30  1  0
 12 31  1  0
 12 32  1  0
 13 14  2  0
 13 33  1  0
M  END

