
     RDKit          3D

 49 50  0  0  0  0  0  0  0  0999 V2000
    1.0568   -0.1271    4.1528 C   0  0  0  0  0  0  0  0  0  0  0  0
    2.0014   -0.0725    2.9499 C   0  0  0  0  0  0  0  0  0  0  0  0
    3.2985   -0.8542    3.1742 C   0  0  0  0  0  0  0  0  0  0  0  0
    4.2678   -0.9283    1.9767 C   0  0  1  0  0  0  0  0  0  0  0  0
    4.7236    0.4279    1.5644 N   0  0  0  0  0  0  0  0  0  0  0  0
    4.2374    1.1539    0.5624 C   0  0  0  0  0  0  0  0  0  0  0  0
    3.1808    0.9323   -0.0384 O   0  0  0  0  0  0  0  0  0  0  0  0
    5.1653    2.3193    0.1319 C   0  0  0  0  0  0  0  0  0  0  0  0
    4.4851    3.5587   -0.3920 C   0  0  0  0  0  0  0  0  0  0  0  0
    3.2698    3.5148   -1.0403 C   0  0  0  0  0  0  0  0  0  0  0  0
    2.6583    4.6992   -1.5283 C   0  0  0  0  0  0  0  0  0  0  0  0
    1.4849    4.7217   -2.1232 O   0  0  0  0  0  0  0  0  0  0  0  0
    0.7201    3.5171   -2.3070 C   0  0  0  0  0  0  0  0  0  0  0  0
    3.3076    5.9661   -1.3911 C   0  0  0  0  0  0  0  0  0  0  0  0
    4.5263    6.0342   -0.7644 C   0  0  0  0  0  0  0  0  0  0  0  0
    5.1329    4.8478   -0.2575 C   0  0  0  0  0  0  0  0  0  0  0  0
    6.3002    4.8413    0.3517 O   0  0  0  0  0  0  0  0  0  0  0  0
    7.0642    6.0323    0.5641 C   0  0  0  0  0  0  0  0  0  0  0  0
    5.5210   -1.7329    2.2546 C   0  0  0  0  0  0  0  0  0  0  0  0
    5.8126   -2.8704    1.5252 C   0  0  0  0  0  0  0  0  0  0  0  0
    7.0311   -3.5833    1.6861 C   0  0  0  0  0  0  0  0  0  0  0  0
    7.9782   -3.0779    2.6427 C   0  0  0  0  0  0  0  0  0  0  0  0
    7.7121   -1.9363    3.3681 C   0  0  0  0  0  0  0  0  0  0  0  0
    6.5037   -1.1799    3.1842 C   0  0  0  0  0  0  0  0  0  0  0  0
    0.1312    0.4461    3.9761 H   0  0  0  0  0  0  0  0  0  0  0  0
    1.5357    0.2837    5.0581 H   0  0  0  0  0  0  0  0  0  0  0  0
    0.7647   -1.1652    4.3853 H   0  0  0  0  0  0  0  0  0  0  0  0
    2.2383    0.9811    2.7200 H   0  0  0  0  0  0  0  0  0  0  0  0
    1.4873   -0.4600    2.0528 H   0  0  0  0  0  0  0  0  0  0  0  0
    3.0582   -1.8986    3.4370 H   0  0  0  0  0  0  0  0  0  0  0  0
    3.8354   -0.4432    4.0464 H   0  0  0  0  0  0  0  0  0  0  0  0
    3.7250   -1.3518    1.1172 H   0  0  0  0  0  0  0  0  0  0  0  0
    5.6613    0.6141    1.9329 H   0  0  0  0  0  0  0  0  0  0  0  0
    5.8038    1.9230   -0.6789 H   0  0  0  0  0  0  0  0  0  0  0  0
    5.8564    2.5881    0.9399 H   0  0  0  0  0  0  0  0  0  0  0  0
    2.8006    2.5312   -1.1098 H   0  0  0  0  0  0  0  0  0  0  0  0
   -0.2131    3.8331   -2.7843 H   0  0  0  0  0  0  0  0  0  0  0  0
    0.5138    3.0425   -1.3383 H   0  0  0  0  0  0  0  0  0  0  0  0
    1.2633    2.8195   -2.9591 H   0  0  0  0  0  0  0  0  0  0  0  0
    2.8103    6.8522   -1.7859 H   0  0  0  0  0  0  0  0  0  0  0  0
    5.0245    6.9957   -0.6542 H   0  0  0  0  0  0  0  0  0  0  0  0
    7.9709    5.7124    1.0876 H   0  0  0  0  0  0  0  0  0  0  0  0
    6.5041    6.7430    1.1894 H   0  0  0  0  0  0  0  0  0  0  0  0
    7.3324    6.4952   -0.3970 H   0  0  0  0  0  0  0  0  0  0  0  0
    5.0831   -3.2217    0.7844 H   0  0  0  0  0  0  0  0  0  0  0  0
    7.2236   -4.4998    1.1276 H   0  0  0  0  0  0  0  0  0  0  0  0
    8.9248   -3.6068    2.7961 H   0  0  0  0  0  0  0  0  0  0  0  0
    8.4453   -1.5909    4.1063 H   0  0  0  0  0  0  0  0  0  0  0  0
    6.1865   -0.4955    3.9804 H   0  0  0  0  0  0  0  0  0  0  0  0
  1  2  1  0
  1 25  1  0
  1 26  1  0
  1 27  1  0
  2  3  1  0
  2 28  1  0
  2 29  1  0
  3  4  1  0
  3 30  1  0
  3 31  1  0
  4  5  1  0
  4 19  1  0
  4 32  1  6
  5  6  1  0
  5 33  1  0
  6  7  2  0
  6  8  1  0
  8  9  1  0
  8 34  1  0
  8 35  1  0
  9 10  2  0
  9 16  1  0
 10 11  1  0
 10 36  1  0
 11 12  1  0
 11 14  2  0
 12 13  1  0
 13 37  1  0
 13 38  1  0
 13 39  1  0
 14 15  1  0
 14 40  1  0
 15 16  2  0
 15 41  1  0
 16 17  1  0
 17 18  1  0
 18 42  1  0
 18 43  1  0
 18 44  1  0
 19 20  2  0
 19 24  1  0
 20 21  1  0
 20 45  1  0
 21 22  2  0
 21 46  1  0
 22 23  1  0
 22 47  1  0
 23 24  2  0
 23 48  1  0
 24 49  1  0
M  END

