
     RDKit          3D

 40 42  0  0  0  0  0  0  0  0999 V2000
    1.3592    0.1342   -1.2091 C   0  0  0  0  0  0  0  0  0  0  0  0
    2.4332   -0.4234   -1.1754 C   0  0  0  0  0  0  0  0  0  0  0  0
    3.7328   -1.1122   -1.1484 C   0  0  0  0  0  0  0  0  0  0  0  0
    4.1141   -1.6311    0.1484 N   0  0  0  0  0  0  0  0  0  0  0  0
    4.9924   -1.0141    1.0206 C   0  0  0  0  0  0  0  0  0  0  0  0
    5.1136   -1.7598    2.2029 C   0  0  0  0  0  0  0  0  0  0  0  0
    5.8931   -1.5621    3.3661 C   0  0  0  0  0  0  0  0  0  0  0  0
    6.8294   -0.5320    3.7472 C   0  0  0  0  0  0  0  0  0  0  0  0
    7.4854   -0.7215    5.0063 C   0  0  0  0  0  0  0  0  0  0  0  0
    8.0347   -0.8555    6.0251 N   0  0  0  0  0  0  0  0  0  0  0  0
    7.1835    0.6176    3.0184 C   0  0  0  0  0  0  0  0  0  0  0  0
    6.8436    1.0923    1.9381 O   0  0  0  0  0  0  0  0  0  0  0  0
    8.2730    1.4589    3.7182 N   0  0  0  0  0  0  0  0  0  0  0  0
    8.0815    2.5882    4.3735 C   0  0  0  0  0  0  0  0  0  0  0  0
    6.7529    3.1059    4.5970 C   0  0  0  0  0  0  0  0  0  0  0  0
    6.5736    4.2712    5.3018 C   0  0  0  0  0  0  0  0  0  0  0  0
    7.6921    4.9743    5.8112 C   0  0  0  0  0  0  0  0  0  0  0  0
    7.4319    6.5586    6.7721 Br  0  0  0  0  0  0  0  0  0  0  0  0
    9.0080    4.4958    5.5985 C   0  0  0  0  0  0  0  0  0  0  0  0
    9.2025    3.3345    4.8923 C   0  0  0  0  0  0  0  0  0  0  0  0
    4.2211   -2.9096    2.0152 C   0  0  0  0  0  0  0  0  0  0  0  0
    3.8956   -4.0177    2.8104 C   0  0  0  0  0  0  0  0  0  0  0  0
    2.9883   -4.9624    2.3290 C   0  0  0  0  0  0  0  0  0  0  0  0
    2.3963   -4.8143    1.0600 C   0  0  0  0  0  0  0  0  0  0  0  0
    2.7000   -3.7223    0.2467 C   0  0  0  0  0  0  0  0  0  0  0  0
    3.6177   -2.7842    0.7358 C   0  0  0  0  0  0  0  0  0  0  0  0
    0.4063    0.6285   -1.2295 H   0  0  0  0  0  0  0  0  0  0  0  0
    4.5225   -0.4193   -1.4804 H   0  0  0  0  0  0  0  0  0  0  0  0
    3.7192   -1.9399   -1.8792 H   0  0  0  0  0  0  0  0  0  0  0  0
    5.4887   -0.0842    0.7619 H   0  0  0  0  0  0  0  0  0  0  0  0
    5.7838   -2.3417    4.1216 H   0  0  0  0  0  0  0  0  0  0  0  0
    9.2372    1.1671    3.5678 H   0  0  0  0  0  0  0  0  0  0  0  0
    5.9019    2.5656    4.1886 H   0  0  0  0  0  0  0  0  0  0  0  0
    5.5695    4.6622    5.4694 H   0  0  0  0  0  0  0  0  0  0  0  0
    9.8575    5.0505    5.9983 H   0  0  0  0  0  0  0  0  0  0  0  0
   10.2117    2.9524    4.7280 H   0  0  0  0  0  0  0  0  0  0  0  0
    4.3449   -4.1436    3.7987 H   0  0  0  0  0  0  0  0  0  0  0  0
    2.7297   -5.8273    2.9449 H   0  0  0  0  0  0  0  0  0  0  0  0
    1.6832   -5.5637    0.7068 H   0  0  0  0  0  0  0  0  0  0  0  0
    2.2263   -3.6043   -0.7301 H   0  0  0  0  0  0  0  0  0  0  0  0
  1  2  3  0
  1 27  1  0
  2  3  1  0
  3  4  1  0
  3 28  1  0
  3 29  1  0
  4  5  1  0
  4 26  1  0
  5  6  2  0
  5 30  1  0
  6  7  1  0
  6 21  1  0
  7  8  2  0
  7 31  1  0
  8  9  1  0
  8 11  1  0
  9 10  3  0
 11 12  2  0
 11 13  1  0
 13 14  1  0
 13 32  1  0
 14 15  2  0
 14 20  1  0
 15 16  1  0
 15 33  1  0
 16 17  2  0
 16 34  1  0
 17 18  1  0
 17 19  1  0
 19 20  2  0
 19 35  1  0
 20 36  1  0
 21 22  1  0
 21 26  2  0
 22 23  2  0
 22 37  1  0
 23 24  1  0
 23 38  1  0
 24 25  2  0
 24 39  1  0
 25 26  1  0
 25 40  1  0
M  END

