
     RDKit          3D

 48 51  0  0  0  0  0  0  0  0999 V2000
   -0.7614   -1.2915    2.0963 C   0  0  0  0  0  0  0  0  0  0  0  0
    0.6598   -1.6784    1.7844 C   0  0  0  0  0  0  0  0  0  0  0  0
    1.6522   -1.6123    2.8034 C   0  0  0  0  0  0  0  0  0  0  0  0
    2.9910   -1.9667    2.5506 C   0  0  0  0  0  0  0  0  0  0  0  0
    3.3846   -2.3978    1.3030 C   0  0  0  0  0  0  0  0  0  0  0  0
    2.4051   -2.4850    0.2478 C   0  0  0  0  0  0  0  0  0  0  0  0
    2.7400   -2.9159   -0.9583 N   0  0  0  0  0  0  0  0  0  0  0  0
    4.1631   -3.1733   -1.4713 C   0  0  0  0  0  0  0  0  0  0  0  0
    4.7486   -2.1456   -1.8197 O   0  0  0  0  0  0  0  0  0  0  0  0
    4.5575   -4.5310   -1.4893 C   0  0  0  0  0  0  0  0  0  0  0  0
    5.8816   -4.8619   -1.9586 C   0  0  0  0  0  0  0  0  0  0  0  0
    6.3289   -6.1710   -1.9703 C   0  0  0  0  0  0  0  0  0  0  0  0
    5.5181   -7.2382   -1.5354 C   0  0  0  0  0  0  0  0  0  0  0  0
    4.2120   -6.9145   -1.1033 C   0  0  0  0  0  0  0  0  0  0  0  0
    3.1463   -8.2036   -0.4734 S   0  0  1  0  0  0  0  0  0  0  0  0
    3.8382   -8.9616    0.5748 O   0  0  0  0  0  0  0  0  0  0  0  0
    1.8266   -7.6132   -0.1859 O   0  0  0  0  0  0  0  0  0  0  0  0
    3.0325   -9.2665   -1.7986 N   0  0  0  0  0  0  0  0  0  0  0  0
    2.2155   -8.7934   -2.9177 C   0  0  0  0  0  0  0  0  0  0  0  0
    2.6564   -9.4998   -4.2062 C   0  0  0  0  0  0  0  0  0  0  0  0
    2.7627  -10.9738   -3.9436 C   0  0  0  0  0  0  0  0  0  0  0  0
    2.7957  -12.2004   -5.1773 S   0  0  0  0  0  0  0  0  0  0  0  0
    2.9326  -13.4602   -3.9932 C   0  0  0  0  0  0  0  0  0  0  0  0
    2.9549  -12.9563   -2.7197 C   0  0  0  0  0  0  0  0  0  0  0  0
    2.8606  -11.5261   -2.6889 C   0  0  0  0  0  0  0  0  0  0  0  0
    2.8467  -10.6789   -1.4429 C   0  0  0  0  0  0  0  0  0  0  0  0
    3.7272   -5.6215   -1.0713 C   0  0  0  0  0  0  0  0  0  0  0  0
    1.0432   -2.1031    0.5299 C   0  0  0  0  0  0  0  0  0  0  0  0
   -0.8141   -0.2511    2.4561 H   0  0  0  0  0  0  0  0  0  0  0  0
   -1.1728   -1.9312    2.8939 H   0  0  0  0  0  0  0  0  0  0  0  0
   -1.4110   -1.3837    1.2155 H   0  0  0  0  0  0  0  0  0  0  0  0
    1.3653   -1.2767    3.8024 H   0  0  0  0  0  0  0  0  0  0  0  0
    3.7256   -1.8982    3.3549 H   0  0  0  0  0  0  0  0  0  0  0  0
    4.4161   -2.6679    1.0913 H   0  0  0  0  0  0  0  0  0  0  0  0
    2.0051   -2.8950   -1.6648 H   0  0  0  0  0  0  0  0  0  0  0  0
    6.5232   -4.0479   -2.2983 H   0  0  0  0  0  0  0  0  0  0  0  0
    7.3417   -6.3841   -2.3239 H   0  0  0  0  0  0  0  0  0  0  0  0
    5.8713   -8.2679   -1.5339 H   0  0  0  0  0  0  0  0  0  0  0  0
    2.3524   -7.7076   -3.0190 H   0  0  0  0  0  0  0  0  0  0  0  0
    1.1391   -8.9740   -2.7286 H   0  0  0  0  0  0  0  0  0  0  0  0
    3.6308   -9.0930   -4.5298 H   0  0  0  0  0  0  0  0  0  0  0  0
    1.9336   -9.2849   -5.0112 H   0  0  0  0  0  0  0  0  0  0  0  0
    2.9923  -14.5014   -4.3067 H   0  0  0  0  0  0  0  0  0  0  0  0
    3.0401  -13.5800   -1.8276 H   0  0  0  0  0  0  0  0  0  0  0  0
    3.6563  -10.9708   -0.7593 H   0  0  0  0  0  0  0  0  0  0  0  0
    1.8939  -10.8391   -0.8942 H   0  0  0  0  0  0  0  0  0  0  0  0
    2.7087   -5.4683   -0.7183 H   0  0  0  0  0  0  0  0  0  0  0  0
    0.3107   -2.1683   -0.2779 H   0  0  0  0  0  0  0  0  0  0  0  0
  1  2  1  0
  1 29  1  0
  1 30  1  0
  1 31  1  0
  2  3  2  0
  2 28  1  0
  3  4  1  0
  3 32  1  0
  4  5  2  0
  4 33  1  0
  5  6  1  0
  5 34  1  0
  6  7  1  0
  6 28  2  0
  7  8  1  0
  7 35  1  0
  8  9  2  0
  8 10  1  0
 10 11  2  0
 10 27  1  0
 11 12  1  0
 11 36  1  0
 12 13  2  0
 12 37  1  0
 13 14  1  0
 13 38  1  0
 15 14  1  6
 14 27  2  0
 15 16  2  0
 15 17  2  0
 15 18  1  0
 18 19  1  0
 18 26  1  0
 19 20  1  0
 19 39  1  0
 19 40  1  0
 20 21  1  0
 20 41  1  0
 20 42  1  0
 21 22  1  0
 21 25  2  0
 22 23  1  0
 23 24  2  0
 23 43  1  0
 24 25  1  0
 24 44  1  0
 25 26  1  0
 26 45  1  0
 26 46  1  0
 27 47  1  0
 28 48  1  0
M  END

