
     RDKit          3D

 61 65  0  0  0  0  0  0  0  0999 V2000
    1.4485   -0.7523   -3.6153 C   0  0  0  0  0  0  0  0  0  0  0  0
    2.7355   -0.5292   -2.8596 C   0  0  0  0  0  0  0  0  0  0  0  0
    3.3651    0.7525   -2.9121 C   0  0  0  0  0  0  0  0  0  0  0  0
    4.5248    1.0208   -2.2317 C   0  0  0  0  0  0  0  0  0  0  0  0
    5.1452    0.0097   -1.4396 C   0  0  0  0  0  0  0  0  0  0  0  0
    6.3385    0.2276   -0.7038 C   0  0  0  0  0  0  0  0  0  0  0  0
    6.9624    1.4805   -0.6729 N   0  0  0  0  0  0  0  0  0  0  0  0
    6.4447    2.6982   -0.2067 C   0  0  0  0  0  0  0  0  0  0  0  0
    5.1874    2.7937    0.4071 C   0  0  0  0  0  0  0  0  0  0  0  0
    4.7057    4.0319    0.8695 C   0  0  0  0  0  0  0  0  0  0  0  0
    3.4821    4.1063    1.5147 N   0  0  0  0  0  0  0  0  0  0  0  0
    5.5101    5.1795    0.7197 C   0  0  0  0  0  0  0  0  0  0  0  0
    6.7709    5.0836    0.1224 C   0  0  0  0  0  0  0  0  0  0  0  0
    7.6161    6.3237   -0.0482 C   0  0  0  0  0  0  0  0  0  0  0  0
    7.4583    6.9133   -1.3593 O   0  0  0  0  0  0  0  0  0  0  0  0
    8.3354    6.5447   -2.3165 C   0  0  0  0  0  0  0  0  0  0  0  0
    9.2695    5.7907   -2.1544 O   0  0  0  0  0  0  0  0  0  0  0  0
    7.9901    7.1736   -3.4908 N   0  0  0  0  0  0  0  0  0  0  0  0
    8.6179    7.0928   -4.7406 C   0  0  0  0  0  0  0  0  0  0  0  0
    9.7661    6.3151   -4.9709 C   0  0  0  0  0  0  0  0  0  0  0  0
   10.3184    6.2988   -6.2527 C   0  0  0  0  0  0  0  0  0  0  0  0
   11.7457    5.3311   -6.5397 Cl  0  0  0  0  0  0  0  0  0  0  0  0
    9.7761    7.0251   -7.3157 C   0  0  0  0  0  0  0  0  0  0  0  0
    8.6359    7.7895   -7.0592 C   0  0  0  0  0  0  0  0  0  0  0  0
    7.9192    8.7166   -8.3566 Cl  0  0  0  0  0  0  0  0  0  0  0  0
    8.0523    7.8338   -5.7948 C   0  0  0  0  0  0  0  0  0  0  0  0
    7.2415    3.8509   -0.3442 C   0  0  0  0  0  0  0  0  0  0  0  0
    6.9457   -0.8714   -0.0443 C   0  0  0  0  0  0  0  0  0  0  0  0
    8.1410   -0.7650    0.7337 C   0  0  0  0  0  0  0  0  0  0  0  0
    8.6961   -1.8702    1.3333 C   0  0  0  0  0  0  0  0  0  0  0  0
    8.0802   -3.1485    1.2000 C   0  0  0  0  0  0  0  0  0  0  0  0
    6.9154   -3.2862    0.4879 C   0  0  0  0  0  0  0  0  0  0  0  0
    6.2999   -2.1594   -0.1500 C   0  0  0  0  0  0  0  0  0  0  0  0
    5.1451   -2.3472   -0.7985 N   0  0  0  0  0  0  0  0  0  0  0  0
    4.5625   -1.3160   -1.4253 C   0  0  0  0  0  0  0  0  0  0  0  0
    3.3230   -1.5562   -2.1356 C   0  0  0  0  0  0  0  0  0  0  0  0
    2.7003   -2.9270   -2.0895 C   0  0  0  0  0  0  0  0  0  0  0  0
    1.1200    0.1615   -4.1314 H   0  0  0  0  0  0  0  0  0  0  0  0
    0.6340   -1.0724   -2.9434 H   0  0  0  0  0  0  0  0  0  0  0  0
    1.5547   -1.5472   -4.3733 H   0  0  0  0  0  0  0  0  0  0  0  0
    2.9069    1.5352   -3.5233 H   0  0  0  0  0  0  0  0  0  0  0  0
    4.9867    2.0048   -2.3037 H   0  0  0  0  0  0  0  0  0  0  0  0
    7.9747    1.4533   -0.7042 H   0  0  0  0  0  0  0  0  0  0  0  0
    4.5773    1.8998    0.5436 H   0  0  0  0  0  0  0  0  0  0  0  0
    2.8247    3.3558    1.3398 H   0  0  0  0  0  0  0  0  0  0  0  0
    3.0486    5.0198    1.5707 H   0  0  0  0  0  0  0  0  0  0  0  0
    5.1472    6.1456    1.0818 H   0  0  0  0  0  0  0  0  0  0  0  0
    8.6809    6.1032    0.1063 H   0  0  0  0  0  0  0  0  0  0  0  0
    7.3000    7.1108    0.6492 H   0  0  0  0  0  0  0  0  0  0  0  0
    7.1691    7.7648   -3.4283 H   0  0  0  0  0  0  0  0  0  0  0  0
   10.2090    5.7398   -4.1626 H   0  0  0  0  0  0  0  0  0  0  0  0
   10.2257    6.9966   -8.3072 H   0  0  0  0  0  0  0  0  0  0  0  0
    7.1611    8.4428   -5.6333 H   0  0  0  0  0  0  0  0  0  0  0  0
    8.2183    3.7918   -0.8292 H   0  0  0  0  0  0  0  0  0  0  0  0
    8.6087    0.2119    0.8723 H   0  0  0  0  0  0  0  0  0  0  0  0
    9.6078   -1.7687    1.9272 H   0  0  0  0  0  0  0  0  0  0  0  0
    8.5361   -4.0180    1.6805 H   0  0  0  0  0  0  0  0  0  0  0  0
    6.4130   -4.2496    0.3818 H   0  0  0  0  0  0  0  0  0  0  0  0
    3.3087   -3.6020   -1.4774 H   0  0  0  0  0  0  0  0  0  0  0  0
    2.6072   -3.3586   -3.1011 H   0  0  0  0  0  0  0  0  0  0  0  0
    1.6800   -2.8896   -1.6704 H   0  0  0  0  0  0  0  0  0  0  0  0
  1  2  1  0
  1 38  1  0
  1 39  1  0
  1 40  1  0
  2  3  2  0
  2 36  1  0
  3  4  1  0
  3 41  1  0
  4  5  2  0
  4 42  1  0
  5  6  1  0
  5 35  1  0
  6  7  1  0
  6 28  2  0
  7  8  1  0
  7 43  1  0
  8  9  2  0
  8 27  1  0
  9 10  1  0
  9 44  1  0
 10 11  1  0
 10 12  2  0
 11 45  1  0
 11 46  1  0
 12 13  1  0
 12 47  1  0
 13 14  1  0
 13 27  2  0
 14 15  1  0
 14 48  1  0
 14 49  1  0
 15 16  1  0
 16 17  2  0
 16 18  1  0
 18 19  1  0
 18 50  1  0
 19 20  2  0
 19 26  1  0
 20 21  1  0
 20 51  1  0
 21 22  1  0
 21 23  2  0
 23 24  1  0
 23 52  1  0
 24 25  1  0
 24 26  2  0
 26 53  1  0
 27 54  1  0
 28 29  1  0
 28 33  1  0
 29 30  2  0
 29 55  1  0
 30 31  1  0
 30 56  1  0
 31 32  2  0
 31 57  1  0
 32 33  1  0
 32 58  1  0
 33 34  2  0
 34 35  1  0
 35 36  2  0
 36 37  1  0
 37 59  1  0
 37 60  1  0
 37 61  1  0
M  END

