
     RDKit          3D

 48 49  0  0  0  0  0  0  0  0999 V2000
    1.6791   -5.4131   -7.2890 C   0  0  0  0  0  0  0  0  0  0  0  0
    3.0920   -5.9793   -7.1427 C   0  0  0  0  0  0  0  0  0  0  0  0
    3.8024   -5.6562   -5.8096 C   0  0  2  0  0  0  0  0  0  0  0  0
    4.7972   -6.1403   -5.8514 H   0  0  0  0  0  0  0  0  0  0  0  0
    3.0975   -6.2944   -4.5952 C   0  0  0  0  0  0  0  0  0  0  0  0
    3.0805   -7.6958   -4.7295 O   0  0  0  0  0  0  0  0  0  0  0  0
    4.0220   -4.2048   -5.6761 N   0  0  0  0  0  0  0  0  0  0  0  0
    3.6312   -3.4387   -4.5279 C   0  0  0  0  0  0  0  0  0  0  0  0
    4.8539   -3.2713   -3.5153 C   0  0  0  0  0  0  0  0  0  0  0  0
    5.9665   -2.7352   -4.2317 N   0  0  0  0  0  0  0  0  0  0  0  0
    6.1973   -1.2784   -4.2150 C   0  0  0  0  0  0  0  0  0  0  0  0
    6.9035   -0.7592   -2.9416 C   0  0  2  0  0  0  0  0  0  0  0  0
    6.9538    0.3341   -3.1105 H   0  0  0  0  0  0  0  0  0  0  0  0
    8.3469   -1.2690   -2.8736 C   0  0  0  0  0  0  0  0  0  0  0  0
    6.0527   -0.9834   -1.6894 C   0  0  0  0  0  0  0  0  0  0  0  0
    6.4300   -1.8678   -0.6942 C   0  0  0  0  0  0  0  0  0  0  0  0
    5.5791   -2.1239    0.4473 C   0  0  0  0  0  0  0  0  0  0  0  0
    4.3640   -1.4145    0.5026 C   0  0  0  0  0  0  0  0  0  0  0  0
    3.5605   -1.6311    1.5806 F   0  0  0  0  0  0  0  0  0  0  0  0
    3.9426   -0.5313   -0.4652 C   0  0  0  0  0  0  0  0  0  0  0  0
    4.7859   -0.3156   -1.6332 C   0  0  0  0  0  0  0  0  0  0  0  0
    6.3717   -3.5102   -5.3467 C   0  0  0  0  0  0  0  0  0  0  0  0
    5.1439   -3.6502   -6.3656 C   0  0  0  0  0  0  0  0  0  0  0  0
    1.2710   -5.6493   -8.2833 H   0  0  0  0  0  0  0  0  0  0  0  0
    1.6676   -4.3173   -7.1777 H   0  0  0  0  0  0  0  0  0  0  0  0
    0.9792   -5.8293   -6.5462 H   0  0  0  0  0  0  0  0  0  0  0  0
    3.7209   -5.6154   -7.9724 H   0  0  0  0  0  0  0  0  0  0  0  0
    3.0832   -7.0766   -7.2403 H   0  0  0  0  0  0  0  0  0  0  0  0
    2.0817   -5.8824   -4.4608 H   0  0  0  0  0  0  0  0  0  0  0  0
    3.6610   -6.0649   -3.6771 H   0  0  0  0  0  0  0  0  0  0  0  0
    2.2537   -7.9694   -5.1438 H   0  0  0  0  0  0  0  0  0  0  0  0
    2.7873   -3.8910   -3.9989 H   0  0  0  0  0  0  0  0  0  0  0  0
    3.3399   -2.4236   -4.8379 H   0  0  0  0  0  0  0  0  0  0  0  0
    5.0987   -4.2656   -3.1139 H   0  0  0  0  0  0  0  0  0  0  0  0
    4.5541   -2.5987   -2.7058 H   0  0  0  0  0  0  0  0  0  0  0  0
    5.2198   -0.7791   -4.3118 H   0  0  0  0  0  0  0  0  0  0  0  0
    6.7948   -1.0339   -5.1077 H   0  0  0  0  0  0  0  0  0  0  0  0
    8.8591   -0.8542   -1.9941 H   0  0  0  0  0  0  0  0  0  0  0  0
    8.9173   -0.9727   -3.7705 H   0  0  0  0  0  0  0  0  0  0  0  0
    8.3948   -2.3663   -2.7892 H   0  0  0  0  0  0  0  0  0  0  0  0
    7.3783   -2.4051   -0.7577 H   0  0  0  0  0  0  0  0  0  0  0  0
    5.8806   -2.7701    1.2698 H   0  0  0  0  0  0  0  0  0  0  0  0
    2.9859   -0.0204   -0.3431 H   0  0  0  0  0  0  0  0  0  0  0  0
    4.5780    0.5277   -2.2989 H   0  0  0  0  0  0  0  0  0  0  0  0
    6.6458   -4.5334   -5.0400 H   0  0  0  0  0  0  0  0  0  0  0  0
    7.2200   -3.0508   -5.8692 H   0  0  0  0  0  0  0  0  0  0  0  0
    5.4475   -4.2861   -7.2075 H   0  0  0  0  0  0  0  0  0  0  0  0
    4.9147   -2.6415   -6.7416 H   0  0  0  0  0  0  0  0  0  0  0  0
  1  2  1  0
  1 24  1  0
  1 25  1  0
  1 26  1  0
  2  3  1  0
  2 27  1  0
  2 28  1  0
  3  4  1  1
  3  5  1  0
  3  7  1  0
  5  6  1  0
  5 29  1  0
  5 30  1  0
  6 31  1  0
  7  8  1  0
  7 23  1  0
  8  9  1  0
  8 32  1  0
  8 33  1  0
  9 10  1  0
  9 34  1  0
  9 35  1  0
 10 11  1  0
 10 22  1  0
 11 12  1  0
 11 36  1  0
 11 37  1  0
 12 13  1  6
 12 14  1  0
 12 15  1  0
 14 38  1  0
 14 39  1  0
 14 40  1  0
 15 16  2  0
 15 21  1  0
 16 17  1  0
 16 41  1  0
 17 18  2  0
 17 42  1  0
 18 19  1  0
 18 20  1  0
 20 21  2  0
 20 43  1  0
 21 44  1  0
 22 23  1  0
 22 45  1  0
 22 46  1  0
 23 47  1  0
 23 48  1  0
M  END

