
     RDKit          3D

 47 48  0  0  0  0  0  0  0  0999 V2000
    1.0906   -4.9822    6.2260 C   0  0  0  0  0  0  0  0  0  0  0  0
    2.6030   -5.0014    6.0005 C   0  0  0  0  0  0  0  0  0  0  0  0
    3.1078   -3.8364    5.1433 C   0  0  0  0  0  0  0  0  0  0  0  0
    4.6201   -3.8532    4.9069 C   0  0  0  0  0  0  0  0  0  0  0  0
    5.1031   -2.6778    4.0489 C   0  0  0  0  0  0  0  0  0  0  0  0
    6.5347   -2.6776    3.8261 N   0  0  0  0  0  0  0  0  0  0  0  0
    7.1034   -2.9315    2.6224 C   0  0  0  0  0  0  0  0  0  0  0  0
    6.4947   -3.1521    1.5855 O   0  0  0  0  0  0  0  0  0  0  0  0
    8.6217   -2.9125    2.6502 C   0  0  0  0  0  0  0  0  0  0  0  0
    9.3193   -3.1514    1.4624 C   0  0  0  0  0  0  0  0  0  0  0  0
   10.7177   -3.1116    1.4827 C   0  0  0  0  0  0  0  0  0  0  0  0
   11.4504   -3.3837    0.1881 C   0  0  0  0  0  0  0  0  0  0  0  0
   10.9328   -4.0337   -0.7003 O   0  0  0  0  0  0  0  0  0  0  0  0
   12.7107   -2.8299    0.1123 N   0  0  0  0  0  0  0  0  0  0  0  0
   13.6456   -2.9081   -0.9341 C   0  0  0  0  0  0  0  0  0  0  0  0
   14.8529   -2.1993   -0.7789 C   0  0  0  0  0  0  0  0  0  0  0  0
   15.8274   -2.2307   -1.7698 C   0  0  0  0  0  0  0  0  0  0  0  0
   15.6170   -2.9743   -2.9381 C   0  0  0  0  0  0  0  0  0  0  0  0
   16.6973   -3.0460   -3.9852 C   0  0  1  0  0  0  0  0  0  0  0  0
   17.3583   -1.8782   -4.0975 F   0  0  0  0  0  0  0  0  0  0  0  0
   17.6202   -3.9835   -3.6884 F   0  0  0  0  0  0  0  0  0  0  0  0
   16.2054   -3.3518   -5.1978 F   0  0  0  0  0  0  0  0  0  0  0  0
   14.4182   -3.6768   -3.0959 C   0  0  0  0  0  0  0  0  0  0  0  0
   13.4323   -3.6512   -2.1093 C   0  0  0  0  0  0  0  0  0  0  0  0
   11.3510   -2.8663    2.7099 C   0  0  0  0  0  0  0  0  0  0  0  0
   10.5627   -2.6550    3.8459 C   0  0  0  0  0  0  0  0  0  0  0  0
    9.2312   -2.6687    3.8180 N   0  0  0  0  0  0  0  0  0  0  0  0
    0.7626   -5.8331    6.8441 H   0  0  0  0  0  0  0  0  0  0  0  0
    0.5426   -5.0345    5.2703 H   0  0  0  0  0  0  0  0  0  0  0  0
    0.7725   -4.0579    6.7370 H   0  0  0  0  0  0  0  0  0  0  0  0
    2.8931   -5.9546    5.5223 H   0  0  0  0  0  0  0  0  0  0  0  0
    3.1226   -4.9857    6.9760 H   0  0  0  0  0  0  0  0  0  0  0  0
    2.8211   -2.8814    5.6228 H   0  0  0  0  0  0  0  0  0  0  0  0
    2.5873   -3.8492    4.1677 H   0  0  0  0  0  0  0  0  0  0  0  0
    4.9135   -4.7961    4.4132 H   0  0  0  0  0  0  0  0  0  0  0  0
    5.1470   -3.8371    5.8792 H   0  0  0  0  0  0  0  0  0  0  0  0
    4.8061   -1.7240    4.5221 H   0  0  0  0  0  0  0  0  0  0  0  0
    4.6308   -2.7120    3.0560 H   0  0  0  0  0  0  0  0  0  0  0  0
    7.1814   -2.5310    4.5968 H   0  0  0  0  0  0  0  0  0  0  0  0
    8.7713   -3.3616    0.5437 H   0  0  0  0  0  0  0  0  0  0  0  0
   12.9805   -2.2266    0.8798 H   0  0  0  0  0  0  0  0  0  0  0  0
   15.0256   -1.6134    0.1287 H   0  0  0  0  0  0  0  0  0  0  0  0
   16.7537   -1.6682   -1.6384 H   0  0  0  0  0  0  0  0  0  0  0  0
   14.2435   -4.2497   -4.0083 H   0  0  0  0  0  0  0  0  0  0  0  0
   12.4980   -4.1911   -2.2393 H   0  0  0  0  0  0  0  0  0  0  0  0
   12.4390   -2.8690    2.8113 H   0  0  0  0  0  0  0  0  0  0  0  0
   11.0353   -2.4716    4.8174 H   0  0  0  0  0  0  0  0  0  0  0  0
  1  2  1  0
  1 28  1  0
  1 29  1  0
  1 30  1  0
  2  3  1  0
  2 31  1  0
  2 32  1  0
  3  4  1  0
  3 33  1  0
  3 34  1  0
  4  5  1  0
  4 35  1  0
  4 36  1  0
  5  6  1  0
  5 37  1  0
  5 38  1  0
  6  7  1  0
  6 39  1  0
  7  8  2  0
  7  9  1  0
  9 10  2  0
  9 27  1  0
 10 11  1  0
 10 40  1  0
 11 12  1  0
 11 25  2  0
 12 13  2  0
 12 14  1  0
 14 15  1  0
 14 41  1  0
 15 16  2  0
 15 24  1  0
 16 17  1  0
 16 42  1  0
 17 18  2  0
 17 43  1  0
 18 19  1  0
 18 23  1  0
 19 20  1  6
 19 21  1  0
 19 22  1  0
 23 24  2  0
 23 44  1  0
 24 45  1  0
 25 26  1  0
 25 46  1  0
 26 27  2  0
 26 47  1  0
M  END

