
     RDKit          3D

 49 51  0  0  0  0  0  0  0  0999 V2000
    4.8118   -4.7468    3.8039 C   0  0  0  0  0  0  0  0  0  0  0  0
    4.1650   -3.9002    2.8911 O   0  0  0  0  0  0  0  0  0  0  0  0
    2.7974   -3.7073    3.0187 C   0  0  0  0  0  0  0  0  0  0  0  0
    2.0041   -4.4025    3.9107 C   0  0  0  0  0  0  0  0  0  0  0  0
    0.5797   -4.1393    3.9537 C   0  0  0  0  0  0  0  0  0  0  0  0
    0.0370   -3.1773    3.0817 C   0  0  0  0  0  0  0  0  0  0  0  0
    0.8268   -2.4832    2.1781 C   0  0  0  0  0  0  0  0  0  0  0  0
    2.2646   -2.7330    2.1163 C   0  0  0  0  0  0  0  0  0  0  0  0
    3.1661   -1.9410    1.2598 C   0  0  0  0  0  0  0  0  0  0  0  0
    3.4825   -2.4944   -0.1122 N   0  0  0  0  0  0  0  0  0  0  0  0
    2.9857   -3.7594   -0.5594 C   0  0  0  0  0  0  0  0  0  0  0  0
    2.2350   -3.6420   -1.9275 C   0  0  1  0  0  0  0  0  0  0  0  0
    2.0409   -5.0591   -2.5036 C   0  0  0  0  0  0  0  0  0  0  0  0
    1.1650   -5.0834   -3.7649 C   0  0  0  0  0  0  0  0  0  0  0  0
   -0.1889   -4.4017   -3.5334 C   0  0  0  0  0  0  0  0  0  0  0  0
   -0.0080   -2.9843   -2.9776 C   0  0  0  0  0  0  0  0  0  0  0  0
    0.8444   -2.9863   -1.7027 C   0  0  0  0  0  0  0  0  0  0  0  0
    3.1222   -2.8849   -2.8102 N   0  0  0  0  0  0  0  0  0  0  0  0
    3.5167   -1.5730   -2.3616 C   0  0  0  0  0  0  0  0  0  0  0  0
    4.2913   -1.7106   -1.0222 C   0  0  2  0  0  0  0  0  0  0  0  0
    5.6866   -2.3313   -1.2232 C   0  0  0  0  0  0  0  0  0  0  0  0
    5.8860   -4.7185    3.5669 H   0  0  0  0  0  0  0  0  0  0  0  0
    4.4583   -5.7925    3.7249 H   0  0  0  0  0  0  0  0  0  0  0  0
    4.6644   -4.4172    4.8490 H   0  0  0  0  0  0  0  0  0  0  0  0
    2.4304   -5.1564    4.5719 H   0  0  0  0  0  0  0  0  0  0  0  0
   -0.0515   -4.6772    4.6620 H   0  0  0  0  0  0  0  0  0  0  0  0
   -1.0368   -2.9636    3.1221 H   0  0  0  0  0  0  0  0  0  0  0  0
    0.3841   -1.7156    1.5371 H   0  0  0  0  0  0  0  0  0  0  0  0
    4.1692   -1.7845    1.6978 H   0  0  0  0  0  0  0  0  0  0  0  0
    2.7648   -0.9341    1.0319 H   0  0  0  0  0  0  0  0  0  0  0  0
    2.3444   -4.1587    0.2345 H   0  0  0  0  0  0  0  0  0  0  0  0
    3.8465   -4.4346   -0.7125 H   0  0  0  0  0  0  0  0  0  0  0  0
    1.5669   -5.6815   -1.7259 H   0  0  0  0  0  0  0  0  0  0  0  0
    3.0298   -5.4989   -2.7126 H   0  0  0  0  0  0  0  0  0  0  0  0
    1.0233   -6.1273   -4.0889 H   0  0  0  0  0  0  0  0  0  0  0  0
    1.6910   -4.5851   -4.6013 H   0  0  0  0  0  0  0  0  0  0  0  0
   -0.7760   -4.9986   -2.8123 H   0  0  0  0  0  0  0  0  0  0  0  0
   -0.7721   -4.3806   -4.4688 H   0  0  0  0  0  0  0  0  0  0  0  0
   -0.9871   -2.5259   -2.7644 H   0  0  0  0  0  0  0  0  0  0  0  0
    0.4665   -2.3454   -3.7460 H   0  0  0  0  0  0  0  0  0  0  0  0
    0.3212   -3.5397   -0.9071 H   0  0  0  0  0  0  0  0  0  0  0  0
    0.9594   -1.9611   -1.3159 H   0  0  0  0  0  0  0  0  0  0  0  0
    2.8646   -2.9256   -3.7904 H   0  0  0  0  0  0  0  0  0  0  0  0
    2.6755   -0.8702   -2.1952 H   0  0  0  0  0  0  0  0  0  0  0  0
    4.1822   -1.1140   -3.1084 H   0  0  0  0  0  0  0  0  0  0  0  0
    4.4037   -0.7153   -0.5654 H   0  0  0  0  0  0  0  0  0  0  0  0
    5.6206   -3.2407   -1.8364 H   0  0  0  0  0  0  0  0  0  0  0  0
    6.1515   -2.5768   -0.2575 H   0  0  0  0  0  0  0  0  0  0  0  0
    6.3298   -1.6056   -1.7426 H   0  0  0  0  0  0  0  0  0  0  0  0
  1  2  1  0
  1 22  1  0
  1 23  1  0
  1 24  1  0
  2  3  1  0
  3  4  2  0
  3  8  1  0
  4  5  1  0
  4 25  1  0
  5  6  2  0
  5 26  1  0
  6  7  1  0
  6 27  1  0
  7  8  2  0
  7 28  1  0
  8  9  1  0
  9 10  1  0
  9 29  1  0
  9 30  1  0
 10 11  1  0
 10 20  1  0
 11 12  1  0
 11 31  1  0
 11 32  1  0
 12 13  1  0
 12 17  1  0
 12 18  1  6
 13 14  1  0
 13 33  1  0
 13 34  1  0
 14 15  1  0
 14 35  1  0
 14 36  1  0
 15 16  1  0
 15 37  1  0
 15 38  1  0
 16 17  1  0
 16 39  1  0
 16 40  1  0
 17 41  1  0
 17 42  1  0
 18 19  1  0
 18 43  1  0
 19 20  1  0
 19 44  1  0
 19 45  1  0
 20 21  1  0
 20 46  1  1
 21 47  1  0
 21 48  1  0
 21 49  1  0
M  END

