
     RDKit          3D

 49 51  0  0  0  0  0  0  0  0999 V2000
   12.7185    6.0048   -1.9422 C   0  0  0  0  0  0  0  0  0  0  0  0
   12.1266    4.6264   -1.7782 C   0  0  0  0  0  0  0  0  0  0  0  0
   10.7624    4.3799   -1.9844 C   0  0  0  0  0  0  0  0  0  0  0  0
   10.2016    3.1091   -1.8289 C   0  0  0  0  0  0  0  0  0  0  0  0
   11.0217    2.0350   -1.4532 C   0  0  0  0  0  0  0  0  0  0  0  0
   10.5417    0.7171   -1.2717 N   0  0  0  0  0  0  0  0  0  0  0  0
    9.2727    0.2409   -1.4085 C   0  0  0  0  0  0  0  0  0  0  0  0
    8.2898    0.8830   -1.7236 O   0  0  0  0  0  0  0  0  0  0  0  0
    9.1259   -1.2808   -1.1721 C   0  0  0  0  0  0  0  0  0  0  0  0
   10.2159   -1.9149   -0.4494 N   0  0  0  0  0  0  0  0  0  0  0  0
   10.1760   -1.8140    0.9872 C   0  0  0  0  0  0  0  0  0  0  0  0
    9.2857   -2.9955    1.5820 C   0  0  0  0  0  0  0  0  0  0  0  0
    9.7975   -4.2391    1.1177 N   0  0  0  0  0  0  0  0  0  0  0  0
   10.6466   -5.0537    1.9770 C   0  0  0  0  0  0  0  0  0  0  0  0
   12.0300   -4.6220    2.1232 C   0  0  0  0  0  0  0  0  0  0  0  0
   12.8141   -5.4148    3.0074 C   0  0  0  0  0  0  0  0  0  0  0  0
   14.5185   -4.9671    3.1814 Cl  0  0  0  0  0  0  0  0  0  0  0  0
   12.3096   -6.4665    3.7322 C   0  0  0  0  0  0  0  0  0  0  0  0
   10.9264   -6.8396    3.5776 C   0  0  0  0  0  0  0  0  0  0  0  0
   10.0956   -6.1086    2.6893 C   0  0  0  0  0  0  0  0  0  0  0  0
    8.6400   -6.5026    2.5763 C   0  0  0  0  0  0  0  0  0  0  0  0
    9.8383   -4.3700   -0.2975 C   0  0  0  0  0  0  0  0  0  0  0  0
   10.7075   -3.1815   -0.9183 C   0  0  0  0  0  0  0  0  0  0  0  0
   12.3926    2.2631   -1.2420 C   0  0  0  0  0  0  0  0  0  0  0  0
   12.9308    3.5367   -1.4035 C   0  0  0  0  0  0  0  0  0  0  0  0
   11.9734    6.7220   -2.3168 H   0  0  0  0  0  0  0  0  0  0  0  0
   13.5650    5.9980   -2.6486 H   0  0  0  0  0  0  0  0  0  0  0  0
   13.1035    6.3928   -0.9838 H   0  0  0  0  0  0  0  0  0  0  0  0
   10.1083    5.2057   -2.2784 H   0  0  0  0  0  0  0  0  0  0  0  0
    9.1398    2.9428   -1.9963 H   0  0  0  0  0  0  0  0  0  0  0  0
   11.2365    0.0236   -1.0131 H   0  0  0  0  0  0  0  0  0  0  0  0
    9.0247   -1.7430   -2.1662 H   0  0  0  0  0  0  0  0  0  0  0  0
    8.1531   -1.4067   -0.6626 H   0  0  0  0  0  0  0  0  0  0  0  0
    9.7475   -0.8508    1.2966 H   0  0  0  0  0  0  0  0  0  0  0  0
   11.1793   -1.9261    1.4164 H   0  0  0  0  0  0  0  0  0  0  0  0
    8.2526   -2.8309    1.2244 H   0  0  0  0  0  0  0  0  0  0  0  0
    9.3170   -2.9576    2.6758 H   0  0  0  0  0  0  0  0  0  0  0  0
   12.5324   -3.9956    1.3864 H   0  0  0  0  0  0  0  0  0  0  0  0
   12.9542   -7.0025    4.4307 H   0  0  0  0  0  0  0  0  0  0  0  0
   10.5273   -7.7044    4.1085 H   0  0  0  0  0  0  0  0  0  0  0  0
    8.1248   -6.3888    3.5463 H   0  0  0  0  0  0  0  0  0  0  0  0
    8.5478   -7.5675    2.3020 H   0  0  0  0  0  0  0  0  0  0  0  0
    8.0804   -5.9198    1.8302 H   0  0  0  0  0  0  0  0  0  0  0  0
    8.8265   -4.2773   -0.7326 H   0  0  0  0  0  0  0  0  0  0  0  0
   10.2798   -5.3329   -0.5762 H   0  0  0  0  0  0  0  0  0  0  0  0
   10.6561   -3.2369   -2.0142 H   0  0  0  0  0  0  0  0  0  0  0  0
   11.7444   -3.3355   -0.5960 H   0  0  0  0  0  0  0  0  0  0  0  0
   13.0436    1.4335   -0.9486 H   0  0  0  0  0  0  0  0  0  0  0  0
   14.0010    3.6860   -1.2338 H   0  0  0  0  0  0  0  0  0  0  0  0
  1  2  1  0
  1 26  1  0
  1 27  1  0
  1 28  1  0
  2  3  2  0
  2 25  1  0
  3  4  1  0
  3 29  1  0
  4  5  2  0
  4 30  1  0
  5  6  1  0
  5 24  1  0
  6  7  1  0
  6 31  1  0
  7  8  2  0
  7  9  1  0
  9 10  1  0
  9 32  1  0
  9 33  1  0
 10 11  1  0
 10 23  1  0
 11 12  1  0
 11 34  1  0
 11 35  1  0
 12 13  1  0
 12 36  1  0
 12 37  1  0
 13 14  1  0
 13 22  1  0
 14 15  2  0
 14 20  1  0
 15 16  1  0
 15 38  1  0
 16 17  1  0
 16 18  2  0
 18 19  1  0
 18 39  1  0
 19 20  2  0
 19 40  1  0
 20 21  1  0
 21 41  1  0
 21 42  1  0
 21 43  1  0
 22 23  1  0
 22 44  1  0
 22 45  1  0
 23 46  1  0
 23 47  1  0
 24 25  2  0
 24 48  1  0
 25 49  1  0
M  END

