
     RDKit          3D

 46 47  0  0  0  0  0  0  0  0999 V2000
    0.7343   -0.0317    0.9016 C   0  0  0  0  0  0  0  0  0  0  0  0
    2.1330   -0.2265    0.3384 C   0  0  1  0  0  0  0  0  0  0  0  0
    3.1451    0.9448    0.4995 C   0  0  0  0  0  0  0  0  0  0  0  0
    4.0868    0.0009    1.0861 N   0  0  0  0  0  0  0  0  0  0  0  0
    5.3236    0.1344    1.6187 C   0  0  0  0  0  0  0  0  0  0  0  0
    5.9557   -0.7637    2.1471 O   0  0  0  0  0  0  0  0  0  0  0  0
    5.7614    1.4115    1.4809 O   0  0  0  0  0  0  0  0  0  0  0  0
    7.0908    1.7015    1.9546 C   0  0  0  0  0  0  0  0  0  0  0  0
    8.1341    1.5342    0.8745 C   0  0  0  0  0  0  0  0  0  0  0  0
    8.5446    2.6331    0.1052 C   0  0  0  0  0  0  0  0  0  0  0  0
    9.4986    2.4817   -0.9050 C   0  0  0  0  0  0  0  0  0  0  0  0
   10.0535    1.2239   -1.1582 C   0  0  0  0  0  0  0  0  0  0  0  0
    9.6503    0.1212   -0.3976 C   0  0  0  0  0  0  0  0  0  0  0  0
    8.6972    0.2739    0.6124 C   0  0  0  0  0  0  0  0  0  0  0  0
    3.1690   -1.1524    1.0972 C   0  0  1  0  0  0  0  0  0  0  0  0
    2.7849   -1.5829    2.5155 C   0  0  0  0  0  0  0  0  0  0  0  0
    3.7125   -2.3241    0.2604 C   0  0  0  0  0  0  0  0  0  0  0  0
    2.7076   -3.4431    0.0414 C   0  0  0  0  0  0  0  0  0  0  0  0
    3.3108   -4.3847   -0.8723 O   0  0  0  0  0  0  0  0  0  0  0  0
    2.3453   -5.6365   -1.3312 S   0  0  1  0  0  0  0  0  0  0  0  0
    3.5575   -6.4705   -2.3465 C   0  0  0  0  0  0  0  0  0  0  0  0
    2.0324   -6.4489   -0.1594 O   0  0  0  0  0  0  0  0  0  0  0  0
    1.2676   -5.1194   -2.1697 O   0  0  0  0  0  0  0  0  0  0  0  0
    0.1832    0.7159    0.3077 H   0  0  0  0  0  0  0  0  0  0  0  0
    0.7510    0.3221    1.9439 H   0  0  0  0  0  0  0  0  0  0  0  0
    0.1521   -0.9668    0.8716 H   0  0  0  0  0  0  0  0  0  0  0  0
    2.0633   -0.5359   -0.7162 H   0  0  0  0  0  0  0  0  0  0  0  0
    2.8207    1.7387    1.1959 H   0  0  0  0  0  0  0  0  0  0  0  0
    3.4973    1.4200   -0.4307 H   0  0  0  0  0  0  0  0  0  0  0  0
    7.3078    1.0504    2.8127 H   0  0  0  0  0  0  0  0  0  0  0  0
    7.0478    2.7469    2.2903 H   0  0  0  0  0  0  0  0  0  0  0  0
    8.1144    3.6196    0.3024 H   0  0  0  0  0  0  0  0  0  0  0  0
    9.8114    3.3479   -1.4940 H   0  0  0  0  0  0  0  0  0  0  0  0
   10.8017    1.1033   -1.9461 H   0  0  0  0  0  0  0  0  0  0  0  0
   10.0832   -0.8639   -0.5908 H   0  0  0  0  0  0  0  0  0  0  0  0
    8.3696   -0.5853    1.2021 H   0  0  0  0  0  0  0  0  0  0  0  0
    2.4745   -0.7194    3.1215 H   0  0  0  0  0  0  0  0  0  0  0  0
    3.6523   -2.0457    3.0089 H   0  0  0  0  0  0  0  0  0  0  0  0
    1.9558   -2.3070    2.5099 H   0  0  0  0  0  0  0  0  0  0  0  0
    4.6151   -2.7224    0.7497 H   0  0  0  0  0  0  0  0  0  0  0  0
    4.0228   -1.9395   -0.7246 H   0  0  0  0  0  0  0  0  0  0  0  0
    1.7726   -3.0647   -0.4065 H   0  0  0  0  0  0  0  0  0  0  0  0
    2.4583   -3.9701    0.9758 H   0  0  0  0  0  0  0  0  0  0  0  0
    4.4075   -6.7505   -1.7127 H   0  0  0  0  0  0  0  0  0  0  0  0
    3.8584   -5.7927   -3.1545 H   0  0  0  0  0  0  0  0  0  0  0  0
    3.0559   -7.3611   -2.7475 H   0  0  0  0  0  0  0  0  0  0  0  0
  1  2  1  0
  1 24  1  0
  1 25  1  0
  1 26  1  0
  2  3  1  0
  2 15  1  0
  2 27  1  6
  3  4  1  0
  3 28  1  0
  3 29  1  0
  4  5  1  0
  4 15  1  0
  5  6  2  0
  5  7  1  0
  7  8  1  0
  8  9  1  0
  8 30  1  0
  8 31  1  0
  9 10  2  0
  9 14  1  0
 10 11  1  0
 10 32  1  0
 11 12  2  0
 11 33  1  0
 12 13  1  0
 12 34  1  0
 13 14  2  0
 13 35  1  0
 14 36  1  0
 15 16  1  1
 15 17  1  0
 16 37  1  0
 16 38  1  0
 16 39  1  0
 17 18  1  0
 17 40  1  0
 17 41  1  0
 18 19  1  0
 18 42  1  0
 18 43  1  0
 20 19  1  1
 20 21  1  0
 20 22  2  0
 20 23  2  0
 21 44  1  0
 21 45  1  0
 21 46  1  0
M  END

