
     RDKit          3D

 49 52  0  0  0  0  0  0  0  0999 V2000
    5.9932    1.6479    1.0335 N   0  0  0  0  0  0  0  0  0  0  0  0
    5.2440    0.7540    0.9461 C   0  0  0  0  0  0  0  0  0  0  0  0
    4.3261   -0.3210    0.8232 C   0  0  0  0  0  0  0  0  0  0  0  0
    4.9120   -1.6121    0.9293 C   0  0  0  0  0  0  0  0  0  0  0  0
    5.4170   -2.6603    1.0284 N   0  0  0  0  0  0  0  0  0  0  0  0
    2.9260   -0.1036    0.5691 C   0  0  0  0  0  0  0  0  0  0  0  0
    2.2795    1.1341    0.9404 C   0  0  0  0  0  0  0  0  0  0  0  0
    2.6804    2.0691    1.8517 C   0  0  0  0  0  0  0  0  0  0  0  0
    1.9179    3.3214    2.0831 C   0  0  0  0  0  0  0  0  0  0  0  0
    0.7061    3.4113    2.7031 C   0  0  0  0  0  0  0  0  0  0  0  0
    0.3021    4.7541    2.6858 N   0  0  0  0  0  0  0  0  0  0  0  0
   -0.9010    5.2893    3.1942 C   0  0  0  0  0  0  0  0  0  0  0  0
   -1.8160    4.4640    3.8748 C   0  0  0  0  0  0  0  0  0  0  0  0
   -2.9974    5.0124    4.3697 C   0  0  0  0  0  0  0  0  0  0  0  0
   -3.2759    6.3723    4.1956 C   0  0  0  0  0  0  0  0  0  0  0  0
   -2.3600    7.1895    3.5190 C   0  0  0  0  0  0  0  0  0  0  0  0
   -1.1761    6.6591    3.0179 C   0  0  0  0  0  0  0  0  0  0  0  0
    1.1953    5.5244    2.1071 N   0  0  0  0  0  0  0  0  0  0  0  0
    2.2112    4.7093    1.7256 C   0  0  0  0  0  0  0  0  0  0  0  0
    3.3640    5.2922    1.0953 C   0  0  0  0  0  0  0  0  0  0  0  0
    3.3563    6.6837    0.7525 C   0  0  0  0  0  0  0  0  0  0  0  0
    4.4510    7.2554    0.1345 C   0  0  0  0  0  0  0  0  0  0  0  0
    5.5890    6.4710   -0.1508 C   0  0  0  0  0  0  0  0  0  0  0  0
    5.6199    5.1077    0.1914 C   0  0  0  0  0  0  0  0  0  0  0  0
    4.5280    4.5203    0.8078 C   0  0  0  0  0  0  0  0  0  0  0  0
    2.1027   -1.1309   -0.0829 C   0  0  0  0  0  0  0  0  0  0  0  0
    0.7142   -1.2379    0.1841 C   0  0  0  0  0  0  0  0  0  0  0  0
   -0.0835   -2.1858   -0.4552 C   0  0  0  0  0  0  0  0  0  0  0  0
    0.4742   -3.0755   -1.3793 C   0  0  0  0  0  0  0  0  0  0  0  0
    1.8449   -2.9954   -1.6530 C   0  0  0  0  0  0  0  0  0  0  0  0
    2.6435   -2.0449   -1.0213 C   0  0  0  0  0  0  0  0  0  0  0  0
    1.3425    1.3372    0.4087 H   0  0  0  0  0  0  0  0  0  0  0  0
    3.5696    1.9130    2.4654 H   0  0  0  0  0  0  0  0  0  0  0  0
    0.0950    2.6276    3.1364 H   0  0  0  0  0  0  0  0  0  0  0  0
   -1.6146    3.4044    4.0258 H   0  0  0  0  0  0  0  0  0  0  0  0
   -3.7050    4.3702    4.8979 H   0  0  0  0  0  0  0  0  0  0  0  0
   -4.2037    6.7954    4.5866 H   0  0  0  0  0  0  0  0  0  0  0  0
   -2.5728    8.2518    3.3809 H   0  0  0  0  0  0  0  0  0  0  0  0
   -0.4542    7.2805    2.4907 H   0  0  0  0  0  0  0  0  0  0  0  0
    2.4679    7.2729    0.9774 H   0  0  0  0  0  0  0  0  0  0  0  0
    4.4383    8.3135   -0.1348 H   0  0  0  0  0  0  0  0  0  0  0  0
    6.4544    6.9307   -0.6343 H   0  0  0  0  0  0  0  0  0  0  0  0
    6.4992    4.4932   -0.0088 H   0  0  0  0  0  0  0  0  0  0  0  0
    4.5890    3.4702    1.0782 H   0  0  0  0  0  0  0  0  0  0  0  0
    0.2622   -0.5845    0.9335 H   0  0  0  0  0  0  0  0  0  0  0  0
   -1.1494   -2.2424   -0.2165 H   0  0  0  0  0  0  0  0  0  0  0  0
   -0.1484   -3.8243   -1.8750 H   0  0  0  0  0  0  0  0  0  0  0  0
    2.2987   -3.6792   -2.3755 H   0  0  0  0  0  0  0  0  0  0  0  0
    3.7036   -1.9930   -1.2703 H   0  0  0  0  0  0  0  0  0  0  0  0
  1  2  3  0
  2  3  1  0
  3  4  1  0
  3  6  2  0
  4  5  3  0
  6  7  1  0
  6 26  1  0
  7  8  2  0
  7 32  1  0
  8  9  1  0
  8 33  1  0
  9 10  2  0
  9 19  1  0
 10 11  1  0
 10 34  1  0
 11 12  1  0
 11 18  1  0
 12 13  2  0
 12 17  1  0
 13 14  1  0
 13 35  1  0
 14 15  2  0
 14 36  1  0
 15 16  1  0
 15 37  1  0
 16 17  2  0
 16 38  1  0
 17 39  1  0
 18 19  2  0
 19 20  1  0
 20 21  2  0
 20 25  1  0
 21 22  1  0
 21 40  1  0
 22 23  2  0
 22 41  1  0
 23 24  1  0
 23 42  1  0
 24 25  2  0
 24 43  1  0
 25 44  1  0
 26 27  2  0
 26 31  1  0
 27 28  1  0
 27 45  1  0
 28 29  2  0
 28 46  1  0
 29 30  1  0
 29 47  1  0
 30 31  2  0
 30 48  1  0
 31 49  1  0
M  END

