
     RDKit          3D

 54 57  0  0  0  0  0  0  0  0999 V2000
    9.4426    0.5762   -2.8815 C   0  0  0  0  0  0  0  0  0  0  0  0
    8.3746    1.6465   -2.6536 C   0  0  0  0  0  0  0  0  0  0  0  0
    7.8483    1.6849   -1.2156 C   0  0  0  0  0  0  0  0  0  0  0  0
    6.7782    2.7566   -0.9877 C   0  0  0  0  0  0  0  0  0  0  0  0
    6.2379    2.8168    0.4337 C   0  0  0  0  0  0  0  0  0  0  0  0
    7.2777    3.1072    1.3978 O   0  0  0  0  0  0  0  0  0  0  0  0
    7.5781    4.3601    1.6660 C   0  0  0  0  0  0  0  0  0  0  0  0
    6.9733    5.3725    1.1155 N   0  0  0  0  0  0  0  0  0  0  0  0
    7.3432    6.6371    1.4912 C   0  0  0  0  0  0  0  0  0  0  0  0
    6.7745    7.7981    0.9165 C   0  0  0  0  0  0  0  0  0  0  0  0
    7.1925    9.0711    1.3047 C   0  0  0  0  0  0  0  0  0  0  0  0
    8.2005    9.2169    2.2872 C   0  0  0  0  0  0  0  0  0  0  0  0
    8.6153   10.4059    2.6537 O   0  0  0  0  0  0  0  0  0  0  0  0
    9.4625   10.5122    3.8128 C   0  0  0  0  0  0  0  0  0  0  0  0
    9.8567   11.7868    3.9317 O   0  0  0  0  0  0  0  0  0  0  0  0
   11.2700   12.0672    4.0192 C   0  0  0  0  0  0  0  0  0  0  0  0
   11.9623   11.9923    2.6608 C   0  0  0  0  0  0  0  0  0  0  0  0
   11.3649   12.8844    1.5640 C   0  0  0  0  0  0  0  0  0  0  0  0
   11.4672   14.3916    1.8236 C   0  0  0  0  0  0  0  0  0  0  0  0
   10.9238   15.2385    0.6714 C   0  0  0  0  0  0  0  0  0  0  0  0
   10.2313    9.4836    4.2104 N   0  0  0  0  0  0  0  0  0  0  0  0
    9.8631    8.2466    3.8268 C   0  0  0  0  0  0  0  0  0  0  0  0
   10.5032    7.0518    4.2837 C   0  0  0  0  0  0  0  0  0  0  0  0
   10.0716    5.7862    3.8868 C   0  0  0  0  0  0  0  0  0  0  0  0
    8.9991    5.6563    2.9919 C   0  0  0  0  0  0  0  0  0  0  0  0
    8.5644    4.4063    2.5612 O   0  0  0  0  0  0  0  0  0  0  0  0
    8.3644    6.7911    2.4819 C   0  0  0  0  0  0  0  0  0  0  0  0
    8.7781    8.0635    2.9063 C   0  0  0  0  0  0  0  0  0  0  0  0
    9.7999    0.5773   -3.9234 H   0  0  0  0  0  0  0  0  0  0  0  0
    9.0526   -0.4324   -2.6644 H   0  0  0  0  0  0  0  0  0  0  0  0
   10.3170    0.7382   -2.2293 H   0  0  0  0  0  0  0  0  0  0  0  0
    7.5293    1.4796   -3.3462 H   0  0  0  0  0  0  0  0  0  0  0  0
    8.7839    2.6391   -2.9157 H   0  0  0  0  0  0  0  0  0  0  0  0
    8.6893    1.8551   -0.5207 H   0  0  0  0  0  0  0  0  0  0  0  0
    7.4346    0.6941   -0.9495 H   0  0  0  0  0  0  0  0  0  0  0  0
    5.9135    2.5707   -1.6504 H   0  0  0  0  0  0  0  0  0  0  0  0
    7.1628    3.7531   -1.2640 H   0  0  0  0  0  0  0  0  0  0  0  0
    5.8496    1.8393    0.7542 H   0  0  0  0  0  0  0  0  0  0  0  0
    5.4491    3.5750    0.5277 H   0  0  0  0  0  0  0  0  0  0  0  0
    6.0020    7.6722    0.1558 H   0  0  0  0  0  0  0  0  0  0  0  0
    6.7555    9.9700    0.8669 H   0  0  0  0  0  0  0  0  0  0  0  0
   11.7308   11.3589    4.7232 H   0  0  0  0  0  0  0  0  0  0  0  0
   11.3218   13.0788    4.4467 H   0  0  0  0  0  0  0  0  0  0  0  0
   11.9518   10.9409    2.3273 H   0  0  0  0  0  0  0  0  0  0  0  0
   13.0270   12.2491    2.8180 H   0  0  0  0  0  0  0  0  0  0  0  0
   10.3050   12.6118    1.4202 H   0  0  0  0  0  0  0  0  0  0  0  0
   11.8730   12.6519    0.6106 H   0  0  0  0  0  0  0  0  0  0  0  0
   12.5238   14.6590    2.0117 H   0  0  0  0  0  0  0  0  0  0  0  0
   10.9202   14.6485    2.7475 H   0  0  0  0  0  0  0  0  0  0  0  0
   11.4732   15.0428   -0.2651 H   0  0  0  0  0  0  0  0  0  0  0  0
   11.0049   16.3164    0.8855 H   0  0  0  0  0  0  0  0  0  0  0  0
    9.8604   15.0164    0.4808 H   0  0  0  0  0  0  0  0  0  0  0  0
   11.3429    7.1546    4.9733 H   0  0  0  0  0  0  0  0  0  0  0  0
   10.5651    4.8868    4.2618 H   0  0  0  0  0  0  0  0  0  0  0  0
  1  2  1  0
  1 29  1  0
  1 30  1  0
  1 31  1  0
  2  3  1  0
  2 32  1  0
  2 33  1  0
  3  4  1  0
  3 34  1  0
  3 35  1  0
  4  5  1  0
  4 36  1  0
  4 37  1  0
  5  6  1  0
  5 38  1  0
  5 39  1  0
  6  7  1  0
  7  8  2  0
  7 26  1  0
  8  9  1  0
  9 10  1  0
  9 27  2  0
 10 11  2  0
 10 40  1  0
 11 12  1  0
 11 41  1  0
 12 13  1  0
 12 28  2  0
 13 14  1  0
 14 15  1  0
 14 21  2  0
 15 16  1  0
 16 17  1  0
 16 42  1  0
 16 43  1  0
 17 18  1  0
 17 44  1  0
 17 45  1  0
 18 19  1  0
 18 46  1  0
 18 47  1  0
 19 20  1  0
 19 48  1  0
 19 49  1  0
 20 50  1  0
 20 51  1  0
 20 52  1  0
 21 22  1  0
 22 23  2  0
 22 28  1  0
 23 24  1  0
 23 53  1  0
 24 25  2  0
 24 54  1  0
 25 26  1  0
 25 27  1  0
 27 28  1  0
M  END

