
     RDKit          3D

 79 81  0  0  0  0  0  0  0  0999 V2000
    2.3918   -1.9600   -6.2191 C   0  0  0  0  0  0  0  0  0  0  0  0
    2.8392   -2.5364   -5.0932 C   0  0  0  0  0  0  0  0  0  0  0  0
    2.6162   -3.9820   -4.7381 C   0  0  0  0  0  0  0  0  0  0  0  0
    3.6089   -1.6658   -4.1408 C   0  0  0  0  0  0  0  0  0  0  0  0
    3.8566   -0.4940   -4.3096 O   0  0  0  0  0  0  0  0  0  0  0  0
    3.9966   -2.3561   -3.0466 O   0  0  0  0  0  0  0  0  0  0  0  0
    4.7443   -1.6468   -2.0464 C   0  0  0  0  0  0  0  0  0  0  0  0
    6.2391   -1.6519   -2.3456 C   0  0  0  0  0  0  0  0  0  0  0  0
    7.0536   -0.9492   -1.2446 C   0  0  0  0  0  0  0  0  0  0  0  0
    8.5430   -0.9454   -1.5096 C   0  0  0  0  0  0  0  0  0  0  0  0
    9.1359    0.0347   -2.3216 C   0  0  0  0  0  0  0  0  0  0  0  0
   10.5005    0.0220   -2.6071 C   0  0  0  0  0  0  0  0  0  0  0  0
   11.3380   -0.9762   -2.0719 C   0  0  0  0  0  0  0  0  0  0  0  0
   12.7249   -0.9886   -2.3477 N   0  0  0  0  0  0  0  0  0  0  0  0
   13.4484    0.2315   -2.4583 C   0  0  0  0  0  0  0  0  0  0  0  0
   13.2864    1.2585   -1.5176 C   0  0  0  0  0  0  0  0  0  0  0  0
   13.9904    2.4622   -1.6263 C   0  0  0  0  0  0  0  0  0  0  0  0
   14.9002    2.6523   -2.6776 C   0  0  0  0  0  0  0  0  0  0  0  0
   15.6401    3.7756   -2.8683 O   0  0  0  0  0  0  0  0  0  0  0  0
   15.5217    4.8585   -1.9630 C   0  0  0  0  0  0  0  0  0  0  0  0
   16.4546    5.9690   -2.4212 C   0  0  0  0  0  0  0  0  0  0  0  0
   16.4144    7.1993   -1.5106 C   0  0  0  0  0  0  0  0  0  0  0  0
   17.3502    8.3188   -1.9689 C   0  0  0  0  0  0  0  0  0  0  0  0
   15.0778    1.6210   -3.6169 C   0  0  0  0  0  0  0  0  0  0  0  0
   14.3579    0.4365   -3.5145 C   0  0  0  0  0  0  0  0  0  0  0  0
   13.4171   -2.2201   -2.5117 C   0  0  0  0  0  0  0  0  0  0  0  0
   12.8902   -3.2491   -3.3054 C   0  0  0  0  0  0  0  0  0  0  0  0
   13.5657   -4.4634   -3.4650 C   0  0  0  0  0  0  0  0  0  0  0  0
   14.8088   -4.6633   -2.8453 C   0  0  0  0  0  0  0  0  0  0  0  0
   15.5505   -5.7977   -2.9452 O   0  0  0  0  0  0  0  0  0  0  0  0
   15.0774   -6.8838   -3.7245 C   0  0  0  0  0  0  0  0  0  0  0  0
   16.0920   -8.0149   -3.6477 C   0  0  0  0  0  0  0  0  0  0  0  0
   16.2794   -8.5963   -2.2431 C   0  0  0  0  0  0  0  0  0  0  0  0
   17.3196   -9.7153   -2.1870 C   0  0  0  0  0  0  0  0  0  0  0  0
   15.3497   -3.6307   -2.0593 C   0  0  0  0  0  0  0  0  0  0  0  0
   14.6618   -2.4352   -1.8875 C   0  0  0  0  0  0  0  0  0  0  0  0
   10.7522   -1.9577   -1.2494 C   0  0  0  0  0  0  0  0  0  0  0  0
    9.3826   -1.9406   -0.9861 C   0  0  0  0  0  0  0  0  0  0  0  0
    1.8229   -2.5263   -6.9612 H   0  0  0  0  0  0  0  0  0  0  0  0
    2.5913   -0.9036   -6.4124 H   0  0  0  0  0  0  0  0  0  0  0  0
    2.0434   -4.4956   -5.5238 H   0  0  0  0  0  0  0  0  0  0  0  0
    2.0709   -4.0768   -3.7853 H   0  0  0  0  0  0  0  0  0  0  0  0
    3.5740   -4.5085   -4.5986 H   0  0  0  0  0  0  0  0  0  0  0  0
    4.5290   -2.1718   -1.1033 H   0  0  0  0  0  0  0  0  0  0  0  0
    4.3653   -0.6157   -1.9786 H   0  0  0  0  0  0  0  0  0  0  0  0
    6.4132   -1.1489   -3.3104 H   0  0  0  0  0  0  0  0  0  0  0  0
    6.5839   -2.6937   -2.4579 H   0  0  0  0  0  0  0  0  0  0  0  0
    6.8554   -1.4411   -0.2761 H   0  0  0  0  0  0  0  0  0  0  0  0
    6.6951    0.0899   -1.1427 H   0  0  0  0  0  0  0  0  0  0  0  0
    8.5140    0.8260   -2.7516 H   0  0  0  0  0  0  0  0  0  0  0  0
   10.9271    0.7942   -3.2495 H   0  0  0  0  0  0  0  0  0  0  0  0
   12.5925    1.1190   -0.6861 H   0  0  0  0  0  0  0  0  0  0  0  0
   13.8293    3.2358   -0.8754 H   0  0  0  0  0  0  0  0  0  0  0  0
   15.7840    4.5305   -0.9381 H   0  0  0  0  0  0  0  0  0  0  0  0
   14.4750    5.2194   -1.9330 H   0  0  0  0  0  0  0  0  0  0  0  0
   16.1832    6.2509   -3.4534 H   0  0  0  0  0  0  0  0  0  0  0  0
   17.4811    5.5658   -2.4704 H   0  0  0  0  0  0  0  0  0  0  0  0
   16.6760    6.9009   -0.4790 H   0  0  0  0  0  0  0  0  0  0  0  0
   15.3794    7.5841   -1.4588 H   0  0  0  0  0  0  0  0  0  0  0  0
   18.3985    7.9778   -1.9962 H   0  0  0  0  0  0  0  0  0  0  0  0
   17.2997    9.1883   -1.2947 H   0  0  0  0  0  0  0  0  0  0  0  0
   17.0909    8.6669   -2.9826 H   0  0  0  0  0  0  0  0  0  0  0  0
   15.7841    1.7809   -4.4344 H   0  0  0  0  0  0  0  0  0  0  0  0
   14.4993   -0.3493   -4.2593 H   0  0  0  0  0  0  0  0  0  0  0  0
   11.9309   -3.1022   -3.8056 H   0  0  0  0  0  0  0  0  0  0  0  0
   13.1170   -5.2373   -4.0879 H   0  0  0  0  0  0  0  0  0  0  0  0
   14.9369   -6.5632   -4.7743 H   0  0  0  0  0  0  0  0  0  0  0  0
   14.0924   -7.2208   -3.3459 H   0  0  0  0  0  0  0  0  0  0  0  0
   17.0587   -7.6440   -4.0319 H   0  0  0  0  0  0  0  0  0  0  0  0
   15.7636   -8.8078   -4.3436 H   0  0  0  0  0  0  0  0  0  0  0  0
   15.3072   -8.9739   -1.8760 H   0  0  0  0  0  0  0  0  0  0  0  0
   16.5673   -7.7816   -1.5585 H   0  0  0  0  0  0  0  0  0  0  0  0
   17.0433  -10.5581   -2.8433 H   0  0  0  0  0  0  0  0  0  0  0  0
   17.4294  -10.1125   -1.1654 H   0  0  0  0  0  0  0  0  0  0  0  0
   18.3109   -9.3572   -2.5120 H   0  0  0  0  0  0  0  0  0  0  0  0
   16.3157   -3.7970   -1.5778 H   0  0  0  0  0  0  0  0  0  0  0  0
   15.0912   -1.6485   -1.2640 H   0  0  0  0  0  0  0  0  0  0  0  0
   11.3793   -2.7361   -0.8113 H   0  0  0  0  0  0  0  0  0  0  0  0
    8.9600   -2.7150   -0.3383 H   0  0  0  0  0  0  0  0  0  0  0  0
  1  2  2  0
  1 39  1  0
  1 40  1  0
  2  3  1  0
  2  4  1  0
  3 41  1  0
  3 42  1  0
  3 43  1  0
  4  5  2  0
  4  6  1  0
  6  7  1  0
  7  8  1  0
  7 44  1  0
  7 45  1  0
  8  9  1  0
  8 46  1  0
  8 47  1  0
  9 10  1  0
  9 48  1  0
  9 49  1  0
 10 11  2  0
 10 38  1  0
 11 12  1  0
 11 50  1  0
 12 13  2  0
 12 51  1  0
 13 14  1  0
 13 37  1  0
 14 15  1  0
 14 26  1  0
 15 16  2  0
 15 25  1  0
 16 17  1  0
 16 52  1  0
 17 18  2  0
 17 53  1  0
 18 19  1  0
 18 24  1  0
 19 20  1  0
 20 21  1  0
 20 54  1  0
 20 55  1  0
 21 22  1  0
 21 56  1  0
 21 57  1  0
 22 23  1  0
 22 58  1  0
 22 59  1  0
 23 60  1  0
 23 61  1  0
 23 62  1  0
 24 25  2  0
 24 63  1  0
 25 64  1  0
 26 27  2  0
 26 36  1  0
 27 28  1  0
 27 65  1  0
 28 29  2  0
 28 66  1  0
 29 30  1  0
 29 35  1  0
 30 31  1  0
 31 32  1  0
 31 67  1  0
 31 68  1  0
 32 33  1  0
 32 69  1  0
 32 70  1  0
 33 34  1  0
 33 71  1  0
 33 72  1  0
 34 73  1  0
 34 74  1  0
 34 75  1  0
 35 36  2  0
 35 76  1  0
 36 77  1  0
 37 38  2  0
 37 78  1  0
 38 79  1  0
M  END

