
     RDKit          3D

 35 35  0  0  0  0  0  0  0  0999 V2000
    0.6058   -2.1262   -2.3294 C   0  0  0  0  0  0  0  0  0  0  0  0
    2.0952   -2.3930   -2.5521 C   0  0  0  0  0  0  0  0  0  0  0  0
    2.9290   -1.1122   -2.6477 C   0  0  0  0  0  0  0  0  0  0  0  0
    4.4091   -1.3824   -2.8686 C   0  0  0  0  0  0  0  0  0  0  0  0
    5.0794   -0.1357   -2.9600 O   0  0  0  0  0  0  0  0  0  0  0  0
    6.4192   -0.1025   -3.1667 C   0  0  0  0  0  0  0  0  0  0  0  0
    6.9919    1.1721   -3.2626 C   0  0  0  0  0  0  0  0  0  0  0  0
    8.3684    1.3205   -3.4766 C   0  0  0  0  0  0  0  0  0  0  0  0
    8.8227    2.5959   -3.5548 O   0  0  0  0  0  0  0  0  0  0  0  0
   10.1988    2.8237   -3.7676 C   0  0  0  0  0  0  0  0  0  0  0  0
    9.1843    0.1858   -3.5963 C   0  0  0  0  0  0  0  0  0  0  0  0
    8.6021   -1.0848   -3.4979 C   0  0  0  0  0  0  0  0  0  0  0  0
    9.5157   -2.2602   -3.6304 C   0  0  0  0  0  0  0  0  0  0  0  0
   10.7087   -2.1854   -3.8190 O   0  0  0  0  0  0  0  0  0  0  0  0
    8.8693   -3.4387   -3.5159 O   0  0  0  0  0  0  0  0  0  0  0  0
    9.6736   -4.6099   -3.6300 C   0  0  0  0  0  0  0  0  0  0  0  0
    7.2261   -1.2464   -3.2841 C   0  0  0  0  0  0  0  0  0  0  0  0
    0.0333   -3.0648   -2.2631 H   0  0  0  0  0  0  0  0  0  0  0  0
    0.1783   -1.5317   -3.1539 H   0  0  0  0  0  0  0  0  0  0  0  0
    0.4355   -1.5644   -1.3960 H   0  0  0  0  0  0  0  0  0  0  0  0
    2.2286   -2.9866   -3.4747 H   0  0  0  0  0  0  0  0  0  0  0  0
    2.4826   -3.0230   -1.7306 H   0  0  0  0  0  0  0  0  0  0  0  0
    2.8145   -0.5137   -1.7273 H   0  0  0  0  0  0  0  0  0  0  0  0
    2.5616   -0.4805   -3.4752 H   0  0  0  0  0  0  0  0  0  0  0  0
    4.5631   -1.9657   -3.7968 H   0  0  0  0  0  0  0  0  0  0  0  0
    4.8242   -1.9789   -2.0336 H   0  0  0  0  0  0  0  0  0  0  0  0
    6.3604    2.0565   -3.1703 H   0  0  0  0  0  0  0  0  0  0  0  0
   10.3337    3.9133   -3.7961 H   0  0  0  0  0  0  0  0  0  0  0  0
   10.5440    2.3947   -4.7253 H   0  0  0  0  0  0  0  0  0  0  0  0
   10.8157    2.4072   -2.9513 H   0  0  0  0  0  0  0  0  0  0  0  0
   10.2581    0.2469   -3.7630 H   0  0  0  0  0  0  0  0  0  0  0  0
    8.9937   -5.4624   -3.5082 H   0  0  0  0  0  0  0  0  0  0  0  0
   10.4523   -4.6288   -2.8522 H   0  0  0  0  0  0  0  0  0  0  0  0
   10.1673   -4.6532   -4.6130 H   0  0  0  0  0  0  0  0  0  0  0  0
    6.8155   -2.2503   -3.2132 H   0  0  0  0  0  0  0  0  0  0  0  0
  1  2  1  0
  1 18  1  0
  1 19  1  0
  1 20  1  0
  2  3  1  0
  2 21  1  0
  2 22  1  0
  3  4  1  0
  3 23  1  0
  3 24  1  0
  4  5  1  0
  4 25  1  0
  4 26  1  0
  5  6  1  0
  6  7  2  0
  6 17  1  0
  7  8  1  0
  7 27  1  0
  8  9  1  0
  8 11  2  0
  9 10  1  0
 10 28  1  0
 10 29  1  0
 10 30  1  0
 11 12  1  0
 11 31  1  0
 12 13  1  0
 12 17  2  0
 13 14  2  0
 13 15  1  0
 15 16  1  0
 16 32  1  0
 16 33  1  0
 16 34  1  0
 17 35  1  0
M  END

