
     RDKit          3D

 34 34  0  0  0  0  0  0  0  0999 V2000
    6.5211    0.0823   -1.3341 C   0  0  0  0  0  0  0  0  0  0  0  0
    5.4948   -0.8498   -0.6886 C   0  0  1  0  0  0  0  0  0  0  0  0
    5.7243   -2.3216   -1.0378 C   0  0  0  0  0  0  0  0  0  0  0  0
    5.5617   -0.6799    0.7803 N   0  0  0  0  0  0  0  0  0  0  0  0
    4.5943   -0.3694    1.5889 C   0  0  0  0  0  0  0  0  0  0  0  0
    3.4030   -0.1677    1.2302 O   0  0  0  0  0  0  0  0  0  0  0  0
    4.9494   -0.2437    3.1071 C   0  0  1  0  0  0  0  0  0  0  0  0
    4.0281   -1.1014    3.9685 C   0  0  0  0  0  0  0  0  0  0  0  0
    6.2726   -0.6069    3.1896 O   0  0  0  0  0  0  0  0  0  0  0  0
    7.1336    0.2492    4.0277 C   0  0  0  0  0  0  0  0  0  0  0  0
    6.5724    0.8250    4.9476 O   0  0  0  0  0  0  0  0  0  0  0  0
    8.5014    0.2087    3.6705 C   0  0  0  0  0  0  0  0  0  0  0  0
    9.4407    0.8982    4.5359 C   0  0  0  0  0  0  0  0  0  0  0  0
   10.7939    0.9398    4.2806 C   0  0  0  0  0  0  0  0  0  0  0  0
   11.3245    0.3012    3.1390 C   0  0  0  0  0  0  0  0  0  0  0  0
   13.0431    0.3381    2.8083 Cl  0  0  0  0  0  0  0  0  0  0  0  0
   10.4526   -0.3714    2.2496 C   0  0  0  0  0  0  0  0  0  0  0  0
    9.1088   -0.4048    2.5201 C   0  0  0  0  0  0  0  0  0  0  0  0
    8.3202   -1.0483    1.5859 F   0  0  0  0  0  0  0  0  0  0  0  0
    6.4988   -0.0366   -2.4272 H   0  0  0  0  0  0  0  0  0  0  0  0
    7.5352   -0.1556   -0.9794 H   0  0  0  0  0  0  0  0  0  0  0  0
    6.3103    1.1359   -1.0975 H   0  0  0  0  0  0  0  0  0  0  0  0
    4.4817   -0.5541   -1.0007 H   0  0  0  0  0  0  0  0  0  0  0  0
    6.7181   -2.6519   -0.6973 H   0  0  0  0  0  0  0  0  0  0  0  0
    5.6728   -2.4588   -2.1279 H   0  0  0  0  0  0  0  0  0  0  0  0
    4.9650   -2.9693   -0.5742 H   0  0  0  0  0  0  0  0  0  0  0  0
    6.4597   -0.8214    1.2744 H   0  0  0  0  0  0  0  0  0  0  0  0
    4.7984    0.8232    3.3508 H   0  0  0  0  0  0  0  0  0  0  0  0
    4.1557   -2.1688    3.7333 H   0  0  0  0  0  0  0  0  0  0  0  0
    2.9694   -0.8248    3.8501 H   0  0  0  0  0  0  0  0  0  0  0  0
    4.3322   -0.9340    5.0100 H   0  0  0  0  0  0  0  0  0  0  0  0
    9.0310    1.3882    5.4195 H   0  0  0  0  0  0  0  0  0  0  0  0
   11.4664    1.4634    4.9624 H   0  0  0  0  0  0  0  0  0  0  0  0
   10.8306   -0.8596    1.3513 H   0  0  0  0  0  0  0  0  0  0  0  0
  1  2  1  0
  1 20  1  0
  1 21  1  0
  1 22  1  0
  2  3  1  0
  2  4  1  0
  2 23  1  1
  3 24  1  0
  3 25  1  0
  3 26  1  0
  4  5  1  0
  4 27  1  0
  5  6  2  0
  5  7  1  0
  7  8  1  0
  7  9  1  0
  7 28  1  1
  8 29  1  0
  8 30  1  0
  8 31  1  0
  9 10  1  0
 10 11  2  0
 10 12  1  0
 12 13  2  0
 12 18  1  0
 13 14  1  0
 13 32  1  0
 14 15  2  0
 14 33  1  0
 15 16  1  0
 15 17  1  0
 17 18  2  0
 17 34  1  0
 18 19  1  0
M  END

