
     RDKit          3D

 31 33  0  0  0  0  0  0  0  0999 V2000
    0.3621    1.0428   -0.8203 O   0  0  0  0  0  0  0  0  0  0  0  0
    1.1439    0.2118   -1.2188 C   0  0  0  0  0  0  0  0  0  0  0  0
    0.9259   -1.1146   -1.0569 O   0  0  0  0  0  0  0  0  0  0  0  0
    2.4205    0.4825   -1.9337 C   0  0  0  0  0  0  0  0  0  0  0  0
    2.9084    1.7497   -2.2456 C   0  0  0  0  0  0  0  0  0  0  0  0
    4.4220    1.5916   -3.1414 S   0  0  0  0  0  0  0  0  0  0  0  0
    4.3314   -0.2079   -2.8823 C   0  0  0  0  0  0  0  0  0  0  0  0
    4.9913   -1.1082   -3.8889 C   0  0  0  0  0  0  0  0  0  0  0  0
    5.1399   -2.5094   -3.3015 C   0  0  0  0  0  0  0  0  0  0  0  0
    5.4520   -3.5053   -4.3596 N   0  0  0  0  0  0  0  0  0  0  0  0
    6.2260   -4.5530   -4.2615 C   0  0  0  0  0  0  0  0  0  0  0  0
    6.9022   -4.8945   -3.1536 N   0  0  0  0  0  0  0  0  0  0  0  0
    7.5971   -6.0144   -3.3374 C   0  0  0  0  0  0  0  0  0  0  0  0
    8.4160   -6.6367   -2.3447 C   0  0  0  0  0  0  0  0  0  0  0  0
    9.0859   -7.7952   -2.6656 C   0  0  0  0  0  0  0  0  0  0  0  0
    8.9719   -8.3693   -3.9619 C   0  0  0  0  0  0  0  0  0  0  0  0
    8.1810   -7.7904   -4.9633 C   0  0  0  0  0  0  0  0  0  0  0  0
    7.4971   -6.6235   -4.6558 C   0  0  0  0  0  0  0  0  0  0  0  0
    6.4461   -5.6669   -5.6626 S   0  0  0  0  0  0  0  0  0  0  0  0
    3.1479   -0.5793   -2.3261 N   0  0  0  0  0  0  0  0  0  0  0  0
    1.7143   -1.5265   -1.4751 H   0  0  0  0  0  0  0  0  0  0  0  0
    2.4345    2.7076   -2.0599 H   0  0  0  0  0  0  0  0  0  0  0  0
    5.9820   -0.7150   -4.1730 H   0  0  0  0  0  0  0  0  0  0  0  0
    4.4072   -1.1859   -4.8415 H   0  0  0  0  0  0  0  0  0  0  0  0
    4.1860   -2.8135   -2.8464 H   0  0  0  0  0  0  0  0  0  0  0  0
    5.9201   -2.5713   -2.5354 H   0  0  0  0  0  0  0  0  0  0  0  0
    4.9903   -3.3398   -5.2531 H   0  0  0  0  0  0  0  0  0  0  0  0
    8.4832   -6.1733   -1.3605 H   0  0  0  0  0  0  0  0  0  0  0  0
    9.7151   -8.2866   -1.9220 H   0  0  0  0  0  0  0  0  0  0  0  0
    9.5167   -9.2887   -4.1846 H   0  0  0  0  0  0  0  0  0  0  0  0
    8.1115   -8.2502   -5.9498 H   0  0  0  0  0  0  0  0  0  0  0  0
  1  2  2  0
  2  3  1  0
  2  4  1  0
  3 21  1  0
  4  5  2  0
  4 20  1  0
  5  6  1  0
  5 22  1  0
  6  7  1  0
  7  8  1  0
  7 20  2  0
  8  9  1  0
  8 23  1  0
  8 24  1  0
  9 10  1  0
  9 25  1  0
  9 26  1  0
 10 11  1  0
 10 27  1  0
 11 12  2  0
 11 19  1  0
 12 13  1  0
 13 14  2  0
 13 18  1  0
 14 15  1  0
 14 28  1  0
 15 16  2  0
 15 29  1  0
 16 17  1  0
 16 30  1  0
 17 18  2  0
 17 31  1  0
 18 19  1  0
M  END

