
     RDKit          3D

 54 54  0  0  0  0  0  0  0  0999 V2000
    1.2125    0.5075   -0.4428 C   0  0  0  0  0  0  0  0  0  0  0  0
    2.7158    0.2354   -0.5092 C   0  0  0  0  0  0  0  0  0  0  0  0
    3.2024   -0.7627    0.5467 C   0  0  0  0  0  0  0  0  0  0  0  0
    4.7085   -1.0345    0.4866 C   0  0  0  0  0  0  0  0  0  0  0  0
    5.1828   -2.0420    1.5379 C   0  0  0  0  0  0  0  0  0  0  0  0
    6.7099   -2.3059    1.4556 C   0  0  0  0  0  0  0  0  0  0  0  0
    7.1508   -3.3472    2.4383 C   0  0  0  0  0  0  0  0  0  0  0  0
    7.5262   -2.9987    3.7739 C   0  0  0  0  0  0  0  0  0  0  0  0
    7.5019   -1.5790    4.2244 C   0  0  0  0  0  0  0  0  0  0  0  0
    7.9748   -4.0537    4.7657 C   0  0  2  0  0  0  0  0  0  0  0  0
    6.7131   -4.4572    5.5835 C   0  0  0  0  0  0  0  0  0  0  0  0
    9.0502   -3.5203    5.7364 C   0  0  0  0  0  0  0  0  0  0  0  0
    8.5114   -5.3047    4.0057 C   0  0  2  0  0  0  0  0  0  0  0  0
    9.7725   -4.8755    3.4473 O   0  0  0  0  0  0  0  0  0  0  0  0
    7.5658   -5.7858    2.9682 C   0  0  0  0  0  0  0  0  0  0  0  0
    6.9106   -7.0285    3.0165 C   0  0  0  0  0  0  0  0  0  0  0  0
    5.7813   -7.3782    2.2293 C   0  0  0  0  0  0  0  0  0  0  0  0
    5.1330   -6.6274    1.4586 O   0  0  0  0  0  0  0  0  0  0  0  0
    5.4129   -8.7062    2.3682 O   0  0  0  0  0  0  0  0  0  0  0  0
    4.2650   -9.1352    1.6524 C   0  0  0  0  0  0  0  0  0  0  0  0
    2.9658   -8.8049    2.3783 C   0  0  0  0  0  0  0  0  0  0  0  0
    7.1631   -4.7366    1.9656 C   0  0  0  0  0  0  0  0  0  0  0  0
    0.8980    1.2263   -1.2159 H   0  0  0  0  0  0  0  0  0  0  0  0
    0.9227    0.9241    0.5365 H   0  0  0  0  0  0  0  0  0  0  0  0
    0.6308   -0.4175   -0.5919 H   0  0  0  0  0  0  0  0  0  0  0  0
    3.2692    1.1853   -0.3933 H   0  0  0  0  0  0  0  0  0  0  0  0
    2.9786   -0.1436   -1.5134 H   0  0  0  0  0  0  0  0  0  0  0  0
    2.6556   -1.7160    0.4291 H   0  0  0  0  0  0  0  0  0  0  0  0
    2.9380   -0.3871    1.5529 H   0  0  0  0  0  0  0  0  0  0  0  0
    5.2591   -0.0837    0.6115 H   0  0  0  0  0  0  0  0  0  0  0  0
    4.9746   -1.4078   -0.5187 H   0  0  0  0  0  0  0  0  0  0  0  0
    4.6525   -2.9994    1.4085 H   0  0  0  0  0  0  0  0  0  0  0  0
    4.9180   -1.6783    2.5462 H   0  0  0  0  0  0  0  0  0  0  0  0
    7.2499   -1.3566    1.5966 H   0  0  0  0  0  0  0  0  0  0  0  0
    6.9415   -2.6659    0.4424 H   0  0  0  0  0  0  0  0  0  0  0  0
    6.8642   -0.9264    3.6183 H   0  0  0  0  0  0  0  0  0  0  0  0
    8.5323   -1.1755    4.1838 H   0  0  0  0  0  0  0  0  0  0  0  0
    7.1982   -1.5040    5.2782 H   0  0  0  0  0  0  0  0  0  0  0  0
    6.2887   -3.5956    6.1223 H   0  0  0  0  0  0  0  0  0  0  0  0
    7.0067   -5.2108    6.3302 H   0  0  0  0  0  0  0  0  0  0  0  0
    5.9394   -4.9024    4.9440 H   0  0  0  0  0  0  0  0  0  0  0  0
    8.6753   -2.7297    6.4042 H   0  0  0  0  0  0  0  0  0  0  0  0
    9.9300   -3.1523    5.1922 H   0  0  0  0  0  0  0  0  0  0  0  0
    9.3847   -4.3517    6.3753 H   0  0  0  0  0  0  0  0  0  0  0  0
    8.6796   -6.0960    4.7622 H   0  0  0  0  0  0  0  0  0  0  0  0
   10.0076   -5.5524    2.7971 H   0  0  0  0  0  0  0  0  0  0  0  0
    7.2757   -7.7966    3.7035 H   0  0  0  0  0  0  0  0  0  0  0  0
    4.3795  -10.2263    1.5452 H   0  0  0  0  0  0  0  0  0  0  0  0
    4.2591   -8.6818    0.6484 H   0  0  0  0  0  0  0  0  0  0  0  0
    2.9710   -9.2201    3.3991 H   0  0  0  0  0  0  0  0  0  0  0  0
    2.1026   -9.2277    1.8373 H   0  0  0  0  0  0  0  0  0  0  0  0
    2.8347   -7.7146    2.4407 H   0  0  0  0  0  0  0  0  0  0  0  0
    6.1353   -5.0010    1.5899 H   0  0  0  0  0  0  0  0  0  0  0  0
    7.7406   -4.7401    1.0146 H   0  0  0  0  0  0  0  0  0  0  0  0
  1  2  1  0
  1 23  1  0
  1 24  1  0
  1 25  1  0
  2  3  1  0
  2 26  1  0
  2 27  1  0
  3  4  1  0
  3 28  1  0
  3 29  1  0
  4  5  1  0
  4 30  1  0
  4 31  1  0
  5  6  1  0
  5 32  1  0
  5 33  1  0
  6  7  1  0
  6 34  1  0
  6 35  1  0
  7  8  2  0
  7 22  1  0
  8  9  1  0
  8 10  1  0
  9 36  1  0
  9 37  1  0
  9 38  1  0
 10 11  1  1
 10 12  1  0
 10 13  1  0
 11 39  1  0
 11 40  1  0
 11 41  1  0
 12 42  1  0
 12 43  1  0
 12 44  1  0
 13 14  1  0
 13 15  1  0
 13 45  1  1
 14 46  1  0
 15 16  2  0
 15 22  1  0
 16 17  1  0
 16 47  1  0
 17 18  2  0
 17 19  1  0
 19 20  1  0
 20 21  1  0
 20 48  1  0
 20 49  1  0
 21 50  1  0
 21 51  1  0
 21 52  1  0
 22 53  1  0
 22 54  1  0
M  END

