
     RDKit          3D

 34 34  0  0  0  0  0  0  0  0999 V2000
    1.0869    1.9678    1.0779 N   0  0  0  0  0  0  0  0  0  0  0  0
    2.4717    1.9963    1.0366 C   0  0  0  0  0  0  0  0  0  0  0  0
    3.1033    1.8019    0.0099 O   0  0  0  0  0  0  0  0  0  0  0  0
    3.0796    2.2915    2.2359 N   0  0  0  0  0  0  0  0  0  0  0  0
    4.5185    2.4643    2.3131 C   0  0  0  0  0  0  0  0  0  0  0  0
    5.2674    1.1215    2.3662 C   0  0  0  0  0  0  0  0  0  0  0  0
    6.7067    1.2884    2.4568 N   0  0  0  0  0  0  0  0  0  0  0  0
    7.3188    1.5727    3.6432 C   0  0  0  0  0  0  0  0  0  0  0  0
    6.6877    1.6984    4.6852 O   0  0  0  0  0  0  0  0  0  0  0  0
    8.8208    1.7109    3.6107 C   0  0  0  0  0  0  0  0  0  0  0  0
    9.5058    1.5828    4.8309 C   0  0  0  0  0  0  0  0  0  0  0  0
   10.8934    1.7017    4.8682 C   0  0  0  0  0  0  0  0  0  0  0  0
   11.6110    1.9678    3.6976 C   0  0  0  0  0  0  0  0  0  0  0  0
   10.9398    2.1289    2.4748 C   0  0  0  0  0  0  0  0  0  0  0  0
   11.6835    2.4339    1.2259 C   0  0  0  0  0  0  0  0  0  0  0  0
   12.9485    2.9701    1.3270 N   0  0  0  0  0  0  0  0  0  0  0  0
   11.1212    2.1300    0.1013 N   0  0  0  0  0  0  0  0  0  0  0  0
   11.9351    2.5180   -0.9744 O   0  0  0  0  0  0  0  0  0  0  0  0
    9.5411    1.9962    2.4462 C   0  0  0  0  0  0  0  0  0  0  0  0
    0.6607    1.5674    0.2504 H   0  0  0  0  0  0  0  0  0  0  0  0
    0.6155    1.7592    1.9505 H   0  0  0  0  0  0  0  0  0  0  0  0
    2.5171    2.5944    3.0203 H   0  0  0  0  0  0  0  0  0  0  0  0
    4.7512    3.0377    3.2217 H   0  0  0  0  0  0  0  0  0  0  0  0
    4.8703    3.0372    1.4396 H   0  0  0  0  0  0  0  0  0  0  0  0
    5.0368    0.5497    1.4566 H   0  0  0  0  0  0  0  0  0  0  0  0
    4.9179    0.5513    3.2415 H   0  0  0  0  0  0  0  0  0  0  0  0
    7.2713    1.1047    1.6382 H   0  0  0  0  0  0  0  0  0  0  0  0
    8.9226    1.3914    5.7333 H   0  0  0  0  0  0  0  0  0  0  0  0
   11.4269    1.5817    5.8144 H   0  0  0  0  0  0  0  0  0  0  0  0
   12.7008    2.0312    3.7307 H   0  0  0  0  0  0  0  0  0  0  0  0
   13.1207    3.5901    2.1095 H   0  0  0  0  0  0  0  0  0  0  0  0
   13.3397    3.2769    0.4423 H   0  0  0  0  0  0  0  0  0  0  0  0
   11.4229    2.2391   -1.7429 H   0  0  0  0  0  0  0  0  0  0  0  0
    9.0430    2.1499    1.4876 H   0  0  0  0  0  0  0  0  0  0  0  0
  1  2  1  0
  1 20  1  0
  1 21  1  0
  2  3  2  0
  2  4  1  0
  4  5  1  0
  4 22  1  0
  5  6  1  0
  5 23  1  0
  5 24  1  0
  6  7  1  0
  6 25  1  0
  6 26  1  0
  7  8  1  0
  7 27  1  0
  8  9  2  0
  8 10  1  0
 10 11  2  0
 10 19  1  0
 11 12  1  0
 11 28  1  0
 12 13  2  0
 12 29  1  0
 13 14  1  0
 13 30  1  0
 14 15  1  0
 14 19  2  0
 15 16  1  0
 15 17  2  0
 16 31  1  0
 16 32  1  0
 17 18  1  0
 18 33  1  0
 19 34  1  0
M  END

