
     RDKit          3D

 41 42  0  0  0  0  0  0  0  0999 V2000
    5.5458   -0.0493    2.2561 C   0  0  0  0  0  0  0  0  0  0  0  0
    6.7184   -0.6707    1.4961 C   0  0  0  0  0  0  0  0  0  0  0  0
    6.4800   -0.7510   -0.0157 C   0  0  0  0  0  0  0  0  0  0  0  0
    7.6569   -1.3737   -0.7541 C   0  0  0  0  0  0  0  0  0  0  0  0
    7.3890   -1.5160   -2.1666 O   0  0  0  0  0  0  0  0  0  0  0  0
    7.6575   -0.4650   -2.9857 C   0  0  0  0  0  0  0  0  0  0  0  0
    8.1153    0.5742   -2.5710 O   0  0  0  0  0  0  0  0  0  0  0  0
    7.3414   -0.7281   -4.4204 C   0  0  0  0  0  0  0  0  0  0  0  0
    7.6292    0.3325   -5.2992 C   0  0  0  0  0  0  0  0  0  0  0  0
    7.3955    0.2454   -6.6658 C   0  0  0  0  0  0  0  0  0  0  0  0
    6.8543   -0.9388   -7.1874 C   0  0  0  0  0  0  0  0  0  0  0  0
    6.5567   -2.0061   -6.3515 C   0  0  0  0  0  0  0  0  0  0  0  0
    6.7867   -1.9336   -4.9592 C   0  0  0  0  0  0  0  0  0  0  0  0
    6.4823   -3.0004   -4.1298 N   0  0  0  0  0  0  0  0  0  0  0  0
    5.9474   -4.2112   -4.4368 C   0  0  0  0  0  0  0  0  0  0  0  0
    5.6189   -4.5894   -5.6170 O   0  0  0  0  0  0  0  0  0  0  0  0
    5.7480   -5.1152   -3.2996 C   0  0  0  0  0  0  0  0  0  0  0  0
    6.0450   -4.7957   -2.1362 O   0  0  0  0  0  0  0  0  0  0  0  0
    5.1989   -6.3441   -3.6556 N   0  0  0  0  0  0  0  0  0  0  0  0
    4.9273   -7.3187   -2.7479 N   0  0  0  0  0  0  0  0  0  0  0  0
    3.7645   -7.5047   -2.0295 C   0  0  0  0  0  0  0  0  0  0  0  0
    3.8897   -8.5296   -1.2375 N   0  0  0  0  0  0  0  0  0  0  0  0
    5.1615   -9.0450   -1.4104 N   0  0  0  0  0  0  0  0  0  0  0  0
    5.7683   -8.3169   -2.3022 C   0  0  0  0  0  0  0  0  0  0  0  0
    5.7470   -0.0046    3.3380 H   0  0  0  0  0  0  0  0  0  0  0  0
    4.6214   -0.6332    2.1127 H   0  0  0  0  0  0  0  0  0  0  0  0
    5.3449    0.9784    1.9110 H   0  0  0  0  0  0  0  0  0  0  0  0
    6.9173   -1.6838    1.8902 H   0  0  0  0  0  0  0  0  0  0  0  0
    7.6349   -0.0847    1.6902 H   0  0  0  0  0  0  0  0  0  0  0  0
    6.3012    0.2597   -0.4192 H   0  0  0  0  0  0  0  0  0  0  0  0
    5.5747   -1.3486   -0.2219 H   0  0  0  0  0  0  0  0  0  0  0  0
    7.8481   -2.3992   -0.4063 H   0  0  0  0  0  0  0  0  0  0  0  0
    8.5673   -0.7694   -0.6324 H   0  0  0  0  0  0  0  0  0  0  0  0
    8.0495    1.2377   -4.8578 H   0  0  0  0  0  0  0  0  0  0  0  0
    7.6306    1.0856   -7.3221 H   0  0  0  0  0  0  0  0  0  0  0  0
    6.6624   -1.0317   -8.2594 H   0  0  0  0  0  0  0  0  0  0  0  0
    6.1369   -2.9274   -6.7639 H   0  0  0  0  0  0  0  0  0  0  0  0
    6.6849   -2.8711   -3.1312 H   0  0  0  0  0  0  0  0  0  0  0  0
    4.9917   -6.5064   -4.6406 H   0  0  0  0  0  0  0  0  0  0  0  0
    2.8914   -6.8629   -2.1418 H   0  0  0  0  0  0  0  0  0  0  0  0
    6.7857   -8.4412   -2.6711 H   0  0  0  0  0  0  0  0  0  0  0  0
  1  2  1  0
  1 25  1  0
  1 26  1  0
  1 27  1  0
  2  3  1  0
  2 28  1  0
  2 29  1  0
  3  4  1  0
  3 30  1  0
  3 31  1  0
  4  5  1  0
  4 32  1  0
  4 33  1  0
  5  6  1  0
  6  7  2  0
  6  8  1  0
  8  9  2  0
  8 13  1  0
  9 10  1  0
  9 34  1  0
 10 11  2  0
 10 35  1  0
 11 12  1  0
 11 36  1  0
 12 13  2  0
 12 37  1  0
 13 14  1  0
 14 15  1  0
 14 38  1  0
 15 16  2  0
 15 17  1  0
 17 18  2  0
 17 19  1  0
 19 20  1  0
 19 39  1  0
 20 21  1  0
 20 24  1  0
 21 22  2  0
 21 40  1  0
 22 23  1  0
 23 24  2  0
 24 41  1  0
M  END

