
     RDKit          3D

 43 46  0  0  0  0  0  0  0  0999 V2000
    2.3629    1.2321   -0.3222 C   0  0  0  0  0  0  0  0  0  0  0  0
    3.0327    0.0250   -0.0583 O   0  0  0  0  0  0  0  0  0  0  0  0
    2.7779   -0.5451    1.2056 C   0  0  2  0  0  0  0  0  0  0  0  0
    3.8210   -1.6199    1.4286 C   0  0  0  0  0  0  0  0  0  0  0  0
    3.5925   -2.8526    1.9069 C   0  0  0  0  0  0  0  0  0  0  0  0
    2.1917   -3.3767    2.2137 C   0  0  1  0  0  0  0  0  0  0  0  0
    1.8240   -4.4352    1.1125 C   0  0  0  0  0  0  0  0  0  0  0  0
    2.8012   -5.4641    1.0623 C   0  0  0  0  0  0  0  0  0  0  0  0
    2.7661   -6.4382    0.0884 C   0  0  0  0  0  0  0  0  0  0  0  0
    1.7646   -6.4271   -0.8935 C   0  0  0  0  0  0  0  0  0  0  0  0
    0.7774   -5.4877   -0.8888 C   0  0  0  0  0  0  0  0  0  0  0  0
    0.7248   -4.4697    0.1477 C   0  0  0  0  0  0  0  0  0  0  0  0
   -0.4750   -3.6845    0.1098 C   0  0  0  0  0  0  0  0  0  0  0  0
   -0.8670   -2.7921    0.9137 O   0  0  0  0  0  0  0  0  0  0  0  0
    1.9577   -7.4996   -1.7321 O   0  0  0  0  0  0  0  0  0  0  0  0
    3.2444   -8.0087   -1.3998 C   0  0  0  0  0  0  0  0  0  0  0  0
    3.5820   -7.5389   -0.1045 O   0  0  0  0  0  0  0  0  0  0  0  0
    1.9992   -4.0532    3.6151 C   0  0  1  0  0  0  0  0  0  0  0  0
    2.6522   -3.3841    4.6784 O   0  0  0  0  0  0  0  0  0  0  0  0
    0.4923   -3.8803    3.8540 C   0  0  0  0  0  0  0  0  0  0  0  0
    0.2224   -2.5546    3.2606 N   0  0  0  0  0  0  0  0  0  0  0  0
   -0.8521   -1.9488    3.3802 N   0  0  0  0  0  0  0  0  0  0  0  0
   -1.8400   -2.2498    3.9641 O   0  0  0  0  0  0  0  0  0  0  0  0
    1.4026   -2.0749    2.4868 C   0  0  2  0  0  0  0  0  0  0  0  0
    1.3313   -1.0862    1.3435 C   0  0  0  0  0  0  0  0  0  0  0  0
    2.7510    1.6213   -1.2745 H   0  0  0  0  0  0  0  0  0  0  0  0
    2.5492    1.9873    0.4691 H   0  0  0  0  0  0  0  0  0  0  0  0
    1.2688    1.1016   -0.4246 H   0  0  0  0  0  0  0  0  0  0  0  0
    2.9353    0.2380    1.9858 H   0  0  0  0  0  0  0  0  0  0  0  0
    4.8364   -1.3243    1.1473 H   0  0  0  0  0  0  0  0  0  0  0  0
    4.4342   -3.5440    1.9937 H   0  0  0  0  0  0  0  0  0  0  0  0
    3.6199   -5.5028    1.7831 H   0  0  0  0  0  0  0  0  0  0  0  0
   -0.0141   -5.5101   -1.6395 H   0  0  0  0  0  0  0  0  0  0  0  0
   -1.1275   -3.9341   -0.7594 H   0  0  0  0  0  0  0  0  0  0  0  0
    3.9879   -7.6423   -2.1398 H   0  0  0  0  0  0  0  0  0  0  0  0
    3.2173   -9.1097   -1.4004 H   0  0  0  0  0  0  0  0  0  0  0  0
    2.2485   -5.1238    3.5956 H   0  0  0  0  0  0  0  0  0  0  0  0
    3.5987   -3.3497    4.4822 H   0  0  0  0  0  0  0  0  0  0  0  0
    0.2357   -3.8750    4.9218 H   0  0  0  0  0  0  0  0  0  0  0  0
   -0.1078   -4.6172    3.3057 H   0  0  0  0  0  0  0  0  0  0  0  0
    1.9816   -1.5940    3.2912 H   0  0  0  0  0  0  0  0  0  0  0  0
    0.6291   -0.2647    1.5464 H   0  0  0  0  0  0  0  0  0  0  0  0
    1.0226   -1.5735    0.4155 H   0  0  0  0  0  0  0  0  0  0  0  0
  1  2  1  0
  1 26  1  0
  1 27  1  0
  1 28  1  0
  2  3  1  0
  3  4  1  0
  3 25  1  0
  3 29  1  1
  4  5  2  0
  4 30  1  0
  5  6  1  0
  5 31  1  0
  6  7  1  6
  6 18  1  0
  6 24  1  0
  7  8  2  0
  7 12  1  0
  8  9  1  0
  8 32  1  0
  9 10  2  0
  9 17  1  0
 10 11  1  0
 10 15  1  0
 11 12  2  0
 11 33  1  0
 12 13  1  0
 13 14  2  0
 13 34  1  0
 15 16  1  0
 16 17  1  0
 16 35  1  0
 16 36  1  0
 18 19  1  0
 18 20  1  0
 18 37  1  6
 19 38  1  0
 20 21  1  0
 20 39  1  0
 20 40  1  0
 21 22  1  0
 21 24  1  0
 22 23  2  0
 24 25  1  0
 24 41  1  1
 25 42  1  0
 25 43  1  0
M  END

