
     RDKit          3D

 47 49  0  0  0  0  0  0  0  0999 V2000
    8.4960   -1.4016   -9.6040 N   0  0  0  0  0  0  0  0  0  0  0  0
    7.4997   -1.8707   -9.2423 C   0  0  0  0  0  0  0  0  0  0  0  0
    6.2548   -2.4593   -8.7515 C   0  0  0  0  0  0  0  0  0  0  0  0
    6.3733   -3.1467   -7.3678 C   0  0  0  0  0  0  0  0  0  0  0  0
    6.1445   -4.3386   -7.2818 O   0  0  0  0  0  0  0  0  0  0  0  0
    6.7217   -2.3675   -6.2981 N   0  0  0  0  0  0  0  0  0  0  0  0
    6.8736   -2.9870   -4.9819 C   0  0  0  0  0  0  0  0  0  0  0  0
    8.2454   -2.6512   -4.3992 C   0  0  0  0  0  0  0  0  0  0  0  0
    8.4704   -1.2042   -4.4082 N   0  0  0  0  0  0  0  0  0  0  0  0
    9.1587   -0.5543   -3.3856 C   0  0  0  0  0  0  0  0  0  0  0  0
    9.0955   -1.1940   -2.2056 O   0  0  0  0  0  0  0  0  0  0  0  0
   10.4238    0.2803   -3.5890 C   0  0  1  0  0  0  0  0  0  0  0  0
   10.4796    1.4254   -2.5642 C   0  0  1  0  0  0  0  0  0  0  0  0
   11.4940    2.5834   -2.7773 C   0  0  0  0  0  0  0  0  0  0  0  0
   10.4160    3.5709   -2.2631 C   0  0  0  0  0  0  0  0  0  0  0  0
    9.3450    2.4825   -2.5324 C   0  0  0  0  0  0  0  0  0  0  0  0
   11.7660   -0.4898   -3.6097 C   0  0  1  0  0  0  0  0  0  0  0  0
   12.2552   -1.3103   -2.3839 C   0  0  0  0  0  0  0  0  0  0  0  0
   12.8870   -2.3245   -3.3716 C   0  0  0  0  0  0  0  0  0  0  0  0
   11.9736   -1.7533   -4.4867 C   0  0  0  0  0  0  0  0  0  0  0  0
    8.3002   -0.5709   -5.7001 C   0  0  0  0  0  0  0  0  0  0  0  0
    6.9264   -0.9232   -6.2864 C   0  0  0  0  0  0  0  0  0  0  0  0
    5.9293   -3.2510   -9.4402 H   0  0  0  0  0  0  0  0  0  0  0  0
    5.4702   -1.6843   -8.7376 H   0  0  0  0  0  0  0  0  0  0  0  0
    6.7471   -4.0697   -5.1009 H   0  0  0  0  0  0  0  0  0  0  0  0
    6.0819   -2.6094   -4.3095 H   0  0  0  0  0  0  0  0  0  0  0  0
    9.0252   -3.1751   -4.9931 H   0  0  0  0  0  0  0  0  0  0  0  0
    8.3171   -3.0171   -3.3662 H   0  0  0  0  0  0  0  0  0  0  0  0
   10.3044    0.7359   -4.5891 H   0  0  0  0  0  0  0  0  0  0  0  0
   10.6124    0.9977   -1.5562 H   0  0  0  0  0  0  0  0  0  0  0  0
   11.7069    2.7382   -3.8488 H   0  0  0  0  0  0  0  0  0  0  0  0
   12.4530    2.5363   -2.2381 H   0  0  0  0  0  0  0  0  0  0  0  0
   10.3126    4.5320   -2.7900 H   0  0  0  0  0  0  0  0  0  0  0  0
   10.5299    3.7770   -1.1872 H   0  0  0  0  0  0  0  0  0  0  0  0
    8.8827    2.5999   -3.5266 H   0  0  0  0  0  0  0  0  0  0  0  0
    8.5410    2.3485   -1.7931 H   0  0  0  0  0  0  0  0  0  0  0  0
   12.5458    0.2470   -3.8743 H   0  0  0  0  0  0  0  0  0  0  0  0
   11.4058   -1.7492   -1.8396 H   0  0  0  0  0  0  0  0  0  0  0  0
   12.9199   -0.8085   -1.6632 H   0  0  0  0  0  0  0  0  0  0  0  0
   12.7880   -3.3949   -3.1340 H   0  0  0  0  0  0  0  0  0  0  0  0
   13.9502   -2.1082   -3.5614 H   0  0  0  0  0  0  0  0  0  0  0  0
   11.0490   -2.3413   -4.5851 H   0  0  0  0  0  0  0  0  0  0  0  0
   12.4041   -1.6132   -5.4910 H   0  0  0  0  0  0  0  0  0  0  0  0
    9.0884   -0.8773   -6.4181 H   0  0  0  0  0  0  0  0  0  0  0  0
    8.3574    0.5199   -5.5755 H   0  0  0  0  0  0  0  0  0  0  0  0
    6.8484   -0.5048   -7.2962 H   0  0  0  0  0  0  0  0  0  0  0  0
    6.1407   -0.4554   -5.6642 H   0  0  0  0  0  0  0  0  0  0  0  0
  1  2  3  0
  2  3  1  0
  3  4  1  0
  3 23  1  0
  3 24  1  0
  4  5  2  0
  4  6  1  0
  6  7  1  0
  6 22  1  0
  7  8  1  0
  7 25  1  0
  7 26  1  0
  8  9  1  0
  8 27  1  0
  8 28  1  0
  9 10  1  0
  9 21  1  0
 10 11  2  0
 10 12  1  0
 12 13  1  0
 12 17  1  0
 12 29  1  6
 13 14  1  0
 13 16  1  0
 13 30  1  1
 14 15  1  0
 14 31  1  0
 14 32  1  0
 15 16  1  0
 15 33  1  0
 15 34  1  0
 16 35  1  0
 16 36  1  0
 17 18  1  0
 17 20  1  0
 17 37  1  6
 18 19  1  0
 18 38  1  0
 18 39  1  0
 19 20  1  0
 19 40  1  0
 19 41  1  0
 20 42  1  0
 20 43  1  0
 21 22  1  0
 21 44  1  0
 21 45  1  0
 22 46  1  0
 22 47  1  0
M  END

