
     RDKit          3D

 36 38  0  0  0  0  0  0  0  0999 V2000
    0.8982   -0.4243    0.8547 C   0  0  0  0  0  0  0  0  0  0  0  0
    2.2785   -0.6943    1.0792 O   0  0  0  0  0  0  0  0  0  0  0  0
    2.9626    0.1217    1.8899 C   0  0  0  0  0  0  0  0  0  0  0  0
    4.3361   -0.1453    2.0774 C   0  0  0  0  0  0  0  0  0  0  0  0
    5.0588    0.6955    2.9020 C   0  0  0  0  0  0  0  0  0  0  0  0
    4.4129    1.7928    3.5450 C   0  0  0  0  0  0  0  0  0  0  0  0
    5.1055    2.7203    4.4023 C   0  0  0  0  0  0  0  0  0  0  0  0
    5.0292    4.1350    4.4903 C   0  0  0  0  0  0  0  0  0  0  0  0
    4.0534    5.0404    3.7642 C   0  0  1  0  0  0  0  0  0  0  0  0
    4.3888    6.5254    3.9044 C   0  0  0  0  0  0  0  0  0  0  0  0
    3.9084    4.6819    2.3934 O   0  0  0  0  0  0  0  0  0  0  0  0
    6.0985    4.5472    5.2915 C   0  0  0  0  0  0  0  0  0  0  0  0
    6.8190    3.3953    5.7592 C   0  0  0  0  0  0  0  0  0  0  0  0
    7.9441    3.2486    6.6260 C   0  0  0  0  0  0  0  0  0  0  0  0
    8.3426    1.9213    6.9364 C   0  0  0  0  0  0  0  0  0  0  0  0
    7.6579    0.8232    6.4362 C   0  0  0  0  0  0  0  0  0  0  0  0
    6.5414    0.9988    5.5716 C   0  0  0  0  0  0  0  0  0  0  0  0
    6.2020    2.3086    5.2424 N   0  0  0  0  0  0  0  0  0  0  0  0
    3.0331    1.9524    3.2594 C   0  0  0  0  0  0  0  0  0  0  0  0
    2.3367    1.1443    2.4704 N   0  0  0  0  0  0  0  0  0  0  0  0
    0.5481   -1.2080    0.1708 H   0  0  0  0  0  0  0  0  0  0  0  0
    0.7562    0.5687    0.4016 H   0  0  0  0  0  0  0  0  0  0  0  0
    0.3292   -0.4573    1.7964 H   0  0  0  0  0  0  0  0  0  0  0  0
    4.7986   -0.9803    1.5490 H   0  0  0  0  0  0  0  0  0  0  0  0
    6.1290    0.5387    3.0437 H   0  0  0  0  0  0  0  0  0  0  0  0
    3.0451    4.8876    4.1886 H   0  0  0  0  0  0  0  0  0  0  0  0
    5.3906    6.7453    3.5002 H   0  0  0  0  0  0  0  0  0  0  0  0
    4.3631    6.8535    4.9551 H   0  0  0  0  0  0  0  0  0  0  0  0
    3.6528    7.1141    3.3379 H   0  0  0  0  0  0  0  0  0  0  0  0
    4.7932    4.6386    2.0039 H   0  0  0  0  0  0  0  0  0  0  0  0
    6.3676    5.5700    5.5441 H   0  0  0  0  0  0  0  0  0  0  0  0
    8.4328    4.1260    7.0434 H   0  0  0  0  0  0  0  0  0  0  0  0
    9.1959    1.7630    7.6018 H   0  0  0  0  0  0  0  0  0  0  0  0
    7.9486   -0.1916    6.7127 H   0  0  0  0  0  0  0  0  0  0  0  0
    5.8221    0.2232    5.3304 H   0  0  0  0  0  0  0  0  0  0  0  0
    2.4727    2.7625    3.7322 H   0  0  0  0  0  0  0  0  0  0  0  0
  1  2  1  0
  1 21  1  0
  1 22  1  0
  1 23  1  0
  2  3  1  0
  3  4  2  0
  3 20  1  0
  4  5  1  0
  4 24  1  0
  5  6  2  0
  5 25  1  0
  6  7  1  0
  6 19  1  0
  7  8  2  0
  7 18  1  0
  8  9  1  0
  8 12  1  0
  9 10  1  0
  9 11  1  0
  9 26  1  6
 10 27  1  0
 10 28  1  0
 10 29  1  0
 11 30  1  0
 12 13  2  0
 12 31  1  0
 13 14  1  0
 13 18  1  0
 14 15  2  0
 14 32  1  0
 15 16  1  0
 15 33  1  0
 16 17  2  0
 16 34  1  0
 17 18  1  0
 17 35  1  0
 19 20  2  0
 19 36  1  0
M  END

