
     RDKit          3D

 36 37  0  0  0  0  0  0  0  0999 V2000
    6.4489   -1.8348   -1.2355 C   0  0  0  0  0  0  0  0  0  0  0  0
    5.7159   -1.8133   -0.0202 O   0  0  0  0  0  0  0  0  0  0  0  0
    4.3695   -2.0427   -0.0961 C   0  0  0  0  0  0  0  0  0  0  0  0
    3.4726   -0.9988    0.3219 C   0  0  0  0  0  0  0  0  0  0  0  0
    4.0022    0.2465    0.7618 C   0  0  0  0  0  0  0  0  0  0  0  0
    3.2655    1.3755    1.1913 C   0  0  0  0  0  0  0  0  0  0  0  0
    3.8703    2.5433    1.6187 C   0  0  0  0  0  0  0  0  0  0  0  0
    5.0933    2.8848    1.7203 O   0  0  0  0  0  0  0  0  0  0  0  0
    3.1758    3.8167    2.0256 C   0  0  0  0  0  0  0  0  0  0  0  0
    3.1925    4.2056    3.3958 C   0  0  0  0  0  0  0  0  0  0  0  0
    2.6417    5.4144    3.7903 C   0  0  0  0  0  0  0  0  0  0  0  0
    2.1155    6.2789    2.8210 C   0  0  0  0  0  0  0  0  0  0  0  0
    1.5631    7.4809    3.0871 O   0  0  0  0  0  0  0  0  0  0  0  0
    2.1399    5.9249    1.4363 C   0  0  0  0  0  0  0  0  0  0  0  0
    1.6153    6.7630    0.5283 O   0  0  0  0  0  0  0  0  0  0  0  0
    2.6904    4.7092    1.0531 C   0  0  0  0  0  0  0  0  0  0  0  0
    2.0781   -1.2899    0.2723 C   0  0  0  0  0  0  0  0  0  0  0  0
    1.6007   -2.5207   -0.1654 C   0  0  0  0  0  0  0  0  0  0  0  0
    2.4949   -3.5165   -0.5639 C   0  0  0  0  0  0  0  0  0  0  0  0
    2.1332   -4.7693   -1.0036 O   0  0  0  0  0  0  0  0  0  0  0  0
    3.8848   -3.2821   -0.5187 C   0  0  0  0  0  0  0  0  0  0  0  0
    4.7443   -4.2739   -0.8881 O   0  0  0  0  0  0  0  0  0  0  0  0
    7.4784   -1.5385   -0.9877 H   0  0  0  0  0  0  0  0  0  0  0  0
    6.0359   -1.1120   -1.9629 H   0  0  0  0  0  0  0  0  0  0  0  0
    6.4592   -2.8383   -1.6893 H   0  0  0  0  0  0  0  0  0  0  0  0
    5.0895    0.3272    0.7697 H   0  0  0  0  0  0  0  0  0  0  0  0
    2.1737    1.3659    1.2126 H   0  0  0  0  0  0  0  0  0  0  0  0
    3.6459    3.5383    4.1289 H   0  0  0  0  0  0  0  0  0  0  0  0
    2.6276    5.7085    4.8435 H   0  0  0  0  0  0  0  0  0  0  0  0
    1.5767    7.6727    4.0354 H   0  0  0  0  0  0  0  0  0  0  0  0
    1.2513    7.5382    0.9844 H   0  0  0  0  0  0  0  0  0  0  0  0
    2.6972    4.4395   -0.0033 H   0  0  0  0  0  0  0  0  0  0  0  0
    1.3620   -0.5278    0.5817 H   0  0  0  0  0  0  0  0  0  0  0  0
    0.5240   -2.7165   -0.1990 H   0  0  0  0  0  0  0  0  0  0  0  0
    1.1752   -4.8704   -0.9518 H   0  0  0  0  0  0  0  0  0  0  0  0
    4.2017   -5.0375   -1.1379 H   0  0  0  0  0  0  0  0  0  0  0  0
  1  2  1  0
  1 23  1  0
  1 24  1  0
  1 25  1  0
  2  3  1  0
  3  4  2  0
  3 21  1  0
  4  5  1  0
  4 17  1  0
  5  6  2  0
  5 26  1  0
  6  7  1  0
  6 27  1  0
  7  8  2  0
  7  9  1  0
  9 10  2  0
  9 16  1  0
 10 11  1  0
 10 28  1  0
 11 12  2  0
 11 29  1  0
 12 13  1  0
 12 14  1  0
 13 30  1  0
 14 15  1  0
 14 16  2  0
 15 31  1  0
 16 32  1  0
 17 18  2  0
 17 33  1  0
 18 19  1  0
 18 34  1  0
 19 20  1  0
 19 21  2  0
 20 35  1  0
 21 22  1  0
 22 36  1  0
M  END

