
     RDKit          3D

 37 38  0  0  0  0  0  0  0  0999 V2000
    2.9617   -0.9181    1.0036 O   0  0  0  0  0  0  0  0  0  0  0  0
    2.3950   -0.5997   -0.0080 C   0  0  0  0  0  0  0  0  0  0  0  0
    1.0467   -0.6324   -0.0720 O   0  0  0  0  0  0  0  0  0  0  0  0
    3.0953   -0.1211   -1.2729 C   0  0  0  0  0  0  0  0  0  0  0  0
    4.6281   -0.2548   -1.1877 C   0  0  1  0  0  0  0  0  0  0  0  0
    5.1055   -1.7126   -1.3181 C   0  0  0  0  0  0  0  0  0  0  0  0
    4.8302   -2.4300   -2.9771 S   0  0  0  0  0  0  0  0  0  0  0  0
    5.7124   -1.1132   -3.8982 C   0  0  0  0  0  0  0  0  0  0  0  0
    5.1853    0.2789   -3.5666 C   0  0  0  0  0  0  0  0  0  0  0  0
    5.3176    0.6104   -2.1472 N   0  0  0  0  0  0  0  0  0  0  0  0
    5.8229    1.8773   -1.8458 C   0  0  0  0  0  0  0  0  0  0  0  0
    6.1726    2.6525   -2.7291 O   0  0  0  0  0  0  0  0  0  0  0  0
    5.8852    2.2225   -0.5129 N   0  0  0  0  0  0  0  0  0  0  0  0
    6.5431    3.4605   -0.0996 C   0  0  0  0  0  0  0  0  0  0  0  0
    8.0119    3.2917    0.2237 C   0  0  0  0  0  0  0  0  0  0  0  0
    8.9233    2.9417   -0.8513 C   0  0  0  0  0  0  0  0  0  0  0  0
   10.2925    2.7937   -0.4829 C   0  0  0  0  0  0  0  0  0  0  0  0
   10.6082    2.9602    0.7558 N   0  0  0  0  0  0  0  0  0  0  0  0
    9.8701    3.2936    1.8426 C   0  0  0  0  0  0  0  0  0  0  0  0
    8.4728    3.4480    1.5107 C   0  0  0  0  0  0  0  0  0  0  0  0
    0.7405   -0.3634   -0.9503 H   0  0  0  0  0  0  0  0  0  0  0  0
    2.8274    0.9393   -1.4243 H   0  0  0  0  0  0  0  0  0  0  0  0
    2.7067   -0.6829   -2.1398 H   0  0  0  0  0  0  0  0  0  0  0  0
    4.8970    0.0434   -0.1676 H   0  0  0  0  0  0  0  0  0  0  0  0
    4.5689   -2.3464   -0.5981 H   0  0  0  0  0  0  0  0  0  0  0  0
    6.1795   -1.7621   -1.0779 H   0  0  0  0  0  0  0  0  0  0  0  0
    5.5644   -1.3310   -4.9666 H   0  0  0  0  0  0  0  0  0  0  0  0
    6.7911   -1.1816   -3.6803 H   0  0  0  0  0  0  0  0  0  0  0  0
    4.1295    0.3554   -3.8893 H   0  0  0  0  0  0  0  0  0  0  0  0
    5.7483    1.0430   -4.1177 H   0  0  0  0  0  0  0  0  0  0  0  0
    5.8857    1.4853    0.1806 H   0  0  0  0  0  0  0  0  0  0  0  0
    6.0086    3.8656    0.7738 H   0  0  0  0  0  0  0  0  0  0  0  0
    6.4238    4.1656   -0.9356 H   0  0  0  0  0  0  0  0  0  0  0  0
    8.6171    2.8774   -1.8927 H   0  0  0  0  0  0  0  0  0  0  0  0
   11.0863    2.5558   -1.2006 H   0  0  0  0  0  0  0  0  0  0  0  0
   10.3157    3.3534    2.8304 H   0  0  0  0  0  0  0  0  0  0  0  0
    7.7948    3.6971    2.3320 H   0  0  0  0  0  0  0  0  0  0  0  0
  1  2  2  0
  2  3  1  0
  2  4  1  0
  3 21  1  0
  4  5  1  0
  4 22  1  0
  4 23  1  0
  5  6  1  0
  5 10  1  0
  5 24  1  1
  6  7  1  0
  6 25  1  0
  6 26  1  0
  7  8  1  0
  8  9  1  0
  8 27  1  0
  8 28  1  0
  9 10  1  0
  9 29  1  0
  9 30  1  0
 10 11  1  0
 11 12  2  0
 11 13  1  0
 13 14  1  0
 13 31  1  0
 14 15  1  0
 14 32  1  0
 14 33  1  0
 15 16  2  0
 15 20  1  0
 16 17  1  0
 16 34  1  0
 17 18  2  0
 17 35  1  0
 18 19  1  0
 19 20  2  0
 19 36  1  0
 20 37  1  0
M  END

