
     RDKit          3D

 87 97  0  0  0  0  0  0  0  0999 V2000
   -1.6460    0.8114   -1.6746 C   0  0  0  0  0  0  0  0  0  0  0  0
   -1.3240    0.0527   -0.5447 C   0  0  0  0  0  0  0  0  0  0  0  0
    0.0094   -0.1348   -0.1749 C   0  0  0  0  0  0  0  0  0  0  0  0
    1.0423    0.4263   -0.9443 C   0  0  0  0  0  0  0  0  0  0  0  0
    2.3948    0.2337   -0.5750 N   0  0  0  0  0  0  0  0  0  0  0  0
    3.0073   -1.0189   -0.3363 C   0  0  0  0  0  0  0  0  0  0  0  0
    2.4818   -2.2966   -0.4524 C   0  0  0  0  0  0  0  0  0  0  0  0
    3.3357   -3.3954   -0.1701 C   0  0  0  0  0  0  0  0  0  0  0  0
    4.6688   -3.1800    0.2070 C   0  0  0  0  0  0  0  0  0  0  0  0
    5.2044   -1.8929    0.3117 C   0  0  0  0  0  0  0  0  0  0  0  0
    4.3693   -0.7755    0.0334 C   0  0  0  0  0  0  0  0  0  0  0  0
    4.5698    0.6304    0.0163 C   0  0  0  0  0  0  0  0  0  0  0  0
    5.6896    1.4699    0.3083 C   0  0  0  0  0  0  0  0  0  0  0  0
    5.4923    2.8560    0.2288 C   0  0  0  0  0  0  0  0  0  0  0  0
    6.6045    3.7262    0.5680 N   0  0  0  0  0  0  0  0  0  0  0  0
    6.5679    4.7087    1.4689 C   0  0  0  0  0  0  0  0  0  0  0  0
    7.8161    5.3881    1.5191 C   0  0  0  0  0  0  0  0  0  0  0  0
    8.6566    4.7544    0.5721 C   0  0  0  0  0  0  0  0  0  0  0  0
    9.9844    4.9728    0.1477 C   0  0  0  0  0  0  0  0  0  0  0  0
   10.5331    4.1600   -0.8592 C   0  0  0  0  0  0  0  0  0  0  0  0
   11.9216    4.4099   -1.3577 C   0  0  0  0  0  0  0  0  0  0  0  0
   12.1520    5.5560   -2.1387 C   0  0  0  0  0  0  0  0  0  0  0  0
   13.4167    5.8431   -2.6586 C   0  0  0  0  0  0  0  0  0  0  0  0
   14.4922    4.9856   -2.4063 C   0  0  0  0  0  0  0  0  0  0  0  0
   14.2849    3.8494   -1.6303 C   0  0  0  0  0  0  0  0  0  0  0  0
   13.0116    3.5539   -1.0930 C   0  0  0  0  0  0  0  0  0  0  0  0
   13.1256    2.3208   -0.2870 C   0  0  0  0  0  0  0  0  0  0  0  0
   12.1840    1.6098    0.4716 C   0  0  0  0  0  0  0  0  0  0  0  0
   12.5823    0.4531    1.1483 C   0  0  0  0  0  0  0  0  0  0  0  0
   13.9056    0.0033    1.0727 C   0  0  0  0  0  0  0  0  0  0  0  0
   14.8514    0.7129    0.3235 C   0  0  0  0  0  0  0  0  0  0  0  0
   14.4626    1.8715   -0.3446 C   0  0  0  0  0  0  0  0  0  0  0  0
   15.3278    2.8011   -1.2088 C   0  0  1  0  0  0  0  0  0  0  0  0
   15.8850    1.9848   -2.3971 C   0  0  0  0  0  0  0  0  0  0  0  0
   15.1914    1.8913   -3.6139 C   0  0  0  0  0  0  0  0  0  0  0  0
   15.6610    1.0781   -4.6503 C   0  0  0  0  0  0  0  0  0  0  0  0
   16.8347    0.3386   -4.4912 C   0  0  0  0  0  0  0  0  0  0  0  0
   17.5339    0.4191   -3.2835 C   0  0  0  0  0  0  0  0  0  0  0  0
   17.0638    1.2324   -2.2498 C   0  0  0  0  0  0  0  0  0  0  0  0
   16.4357    3.5215   -0.4064 C   0  0  0  0  0  0  0  0  0  0  0  0
   16.3495    3.6743    0.9865 C   0  0  0  0  0  0  0  0  0  0  0  0
   17.3128    4.4021    1.6923 C   0  0  0  0  0  0  0  0  0  0  0  0
   18.3833    4.9956    1.0199 C   0  0  0  0  0  0  0  0  0  0  0  0
   18.4799    4.8548   -0.3674 C   0  0  0  0  0  0  0  0  0  0  0  0
   17.5170    4.1270   -1.0707 C   0  0  0  0  0  0  0  0  0  0  0  0
    9.7327    3.1518   -1.4303 C   0  0  0  0  0  0  0  0  0  0  0  0
    8.3973    2.9139   -1.0270 C   0  0  0  0  0  0  0  0  0  0  0  0
    7.8860    3.7144   -0.0238 C   0  0  0  0  0  0  0  0  0  0  0  0
    4.2821    3.4593   -0.1263 C   0  0  0  0  0  0  0  0  0  0  0  0
    3.1598    2.6281   -0.4364 C   0  0  0  0  0  0  0  0  0  0  0  0
    3.3278    1.2484   -0.3626 C   0  0  0  0  0  0  0  0  0  0  0  0
    0.7161    1.1788   -2.0849 C   0  0  0  0  0  0  0  0  0  0  0  0
   -0.6203    1.3754   -2.4395 C   0  0  0  0  0  0  0  0  0  0  0  0
   -2.6908    0.9605   -1.9585 H   0  0  0  0  0  0  0  0  0  0  0  0
   -2.1182   -0.3900    0.0623 H   0  0  0  0  0  0  0  0  0  0  0  0
    0.2631   -0.7121    0.7157 H   0  0  0  0  0  0  0  0  0  0  0  0
    1.4475   -2.4613   -0.7581 H   0  0  0  0  0  0  0  0  0  0  0  0
    2.9459   -4.4126   -0.2499 H   0  0  0  0  0  0  0  0  0  0  0  0
    5.3073   -4.0424    0.4221 H   0  0  0  0  0  0  0  0  0  0  0  0
    6.2484   -1.7475    0.5993 H   0  0  0  0  0  0  0  0  0  0  0  0
    6.6283    1.0498    0.6703 H   0  0  0  0  0  0  0  0  0  0  0  0
    5.6658    4.8867    2.0495 H   0  0  0  0  0  0  0  0  0  0  0  0
    8.0546    6.2240    2.1732 H   0  0  0  0  0  0  0  0  0  0  0  0
   10.5853    5.7677    0.5947 H   0  0  0  0  0  0  0  0  0  0  0  0
   11.3157    6.2268   -2.3521 H   0  0  0  0  0  0  0  0  0  0  0  0
   13.5617    6.7392   -3.2666 H   0  0  0  0  0  0  0  0  0  0  0  0
   15.4805    5.2108   -2.8114 H   0  0  0  0  0  0  0  0  0  0  0  0
   11.1499    1.9443    0.5449 H   0  0  0  0  0  0  0  0  0  0  0  0
   11.8511   -0.1050    1.7382 H   0  0  0  0  0  0  0  0  0  0  0  0
   14.2028   -0.9058    1.6012 H   0  0  0  0  0  0  0  0  0  0  0  0
   15.8829    0.3588    0.2692 H   0  0  0  0  0  0  0  0  0  0  0  0
   14.2702    2.4576   -3.7593 H   0  0  0  0  0  0  0  0  0  0  0  0
   15.1023    1.0253   -5.5884 H   0  0  0  0  0  0  0  0  0  0  0  0
   17.2032   -0.2951   -5.3018 H   0  0  0  0  0  0  0  0  0  0  0  0
   18.4546   -0.1531   -3.1433 H   0  0  0  0  0  0  0  0  0  0  0  0
   17.6310    1.2907   -1.3188 H   0  0  0  0  0  0  0  0  0  0  0  0
   15.5209    3.2201    1.5323 H   0  0  0  0  0  0  0  0  0  0  0  0
   17.2235    4.5017    2.7772 H   0  0  0  0  0  0  0  0  0  0  0  0
   19.1383    5.5609    1.5719 H   0  0  0  0  0  0  0  0  0  0  0  0
   19.3129    5.3109   -0.9089 H   0  0  0  0  0  0  0  0  0  0  0  0
   17.6179    4.0182   -2.1524 H   0  0  0  0  0  0  0  0  0  0  0  0
   10.1579    2.5291   -2.2199 H   0  0  0  0  0  0  0  0  0  0  0  0
    7.7960    2.1314   -1.4885 H   0  0  0  0  0  0  0  0  0  0  0  0
    4.2078    4.5429   -0.2254 H   0  0  0  0  0  0  0  0  0  0  0  0
    2.2063    3.0755   -0.7140 H   0  0  0  0  0  0  0  0  0  0  0  0
    1.5194    1.5999   -2.6919 H   0  0  0  0  0  0  0  0  0  0  0  0
   -0.8605    1.9634   -3.3294 H   0  0  0  0  0  0  0  0  0  0  0  0
  1  2  2  0
  1 53  1  0
  1 54  1  0
  2  3  1  0
  2 55  1  0
  3  4  2  0
  3 56  1  0
  4  5  1  0
  4 52  1  0
  5  6  1  0
  5 51  1  0
  6  7  2  0
  6 11  1  0
  7  8  1  0
  7 57  1  0
  8  9  2  0
  8 58  1  0
  9 10  1  0
  9 59  1  0
 10 11  2  0
 10 60  1  0
 11 12  1  0
 12 13  1  0
 12 51  2  0
 13 14  2  0
 13 61  1  0
 14 15  1  0
 14 49  1  0
 15 16  1  0
 15 48  1  0
 16 17  2  0
 16 62  1  0
 17 18  1  0
 17 63  1  0
 18 19  1  0
 18 48  2  0
 19 20  2  0
 19 64  1  0
 20 21  1  0
 20 46  1  0
 21 22  2  0
 21 26  1  0
 22 23  1  0
 22 65  1  0
 23 24  2  0
 23 66  1  0
 24 25  1  0
 24 67  1  0
 25 26  2  0
 25 33  1  0
 26 27  1  0
 27 28  2  0
 27 32  1  0
 28 29  1  0
 28 68  1  0
 29 30  2  0
 29 69  1  0
 30 31  1  0
 30 70  1  0
 31 32  2  0
 31 71  1  0
 32 33  1  0
 33 34  1  6
 33 40  1  0
 34 35  2  0
 34 39  1  0
 35 36  1  0
 35 72  1  0
 36 37  2  0
 36 73  1  0
 37 38  1  0
 37 74  1  0
 38 39  2  0
 38 75  1  0
 39 76  1  0
 40 41  2  0
 40 45  1  0
 41 42  1  0
 41 77  1  0
 42 43  2  0
 42 78  1  0
 43 44  1  0
 43 79  1  0
 44 45  2  0
 44 80  1  0
 45 81  1  0
 46 47  2  0
 46 82  1  0
 47 48  1  0
 47 83  1  0
 49 50  2  0
 49 84  1  0
 50 51  1  0
 50 85  1  0
 52 53  2  0
 52 86  1  0
 53 87  1  0
M  END

