
     RDKit          3D

 87 92  0  0  0  0  0  0  0  0999 V2000
    9.7223  -10.1949    5.8214 C   0  0  0  0  0  0  0  0  0  0  0  0
    8.4345  -10.2458    5.0100 C   0  0  0  0  0  0  0  0  0  0  0  0
    8.4884   -9.4441    3.8332 O   0  0  0  0  0  0  0  0  0  0  0  0
    9.0983  -10.0158    2.6832 C   0  0  1  0  0  0  0  0  0  0  0  0
    8.0814  -10.7012    1.7475 C   0  0  0  0  0  0  0  0  0  0  0  0
    6.9734   -9.7978    1.2556 C   0  0  0  0  0  0  0  0  0  0  0  0
    7.1248   -9.0294    0.0857 C   0  0  0  0  0  0  0  0  0  0  0  0
    6.1153   -8.1801   -0.3552 C   0  0  0  0  0  0  0  0  0  0  0  0
    4.9125   -8.0685    0.3638 C   0  0  0  0  0  0  0  0  0  0  0  0
    3.9955   -7.2038   -0.1466 O   0  0  0  0  0  0  0  0  0  0  0  0
    2.7403   -7.0121    0.4796 C   0  0  0  0  0  0  0  0  0  0  0  0
    1.7241   -8.0672    0.0474 C   0  0  0  0  0  0  0  0  0  0  0  0
    0.5151   -7.7498    0.6919 O   0  0  0  0  0  0  0  0  0  0  0  0
   -0.5857   -8.6429    0.4366 C   0  0  2  0  0  0  0  0  0  0  0  0
   -1.0223   -8.5327   -1.0119 C   0  0  0  0  0  0  0  0  0  0  0  0
   -0.8117   -9.6071   -1.8680 C   0  0  0  0  0  0  0  0  0  0  0  0
   -0.9950   -9.5271   -3.2654 C   0  0  0  0  0  0  0  0  0  0  0  0
   -0.8025  -10.7284   -4.1588 C   0  0  0  0  0  0  0  0  0  0  0  0
   -2.0793  -11.1767   -4.8579 C   0  0  0  0  0  0  0  0  0  0  0  0
   -2.1997  -11.1211   -6.2543 C   0  0  0  0  0  0  0  0  0  0  0  0
   -3.3769  -11.5292   -6.8913 C   0  0  0  0  0  0  0  0  0  0  0  0
   -4.4546  -12.0008   -6.1381 C   0  0  0  0  0  0  0  0  0  0  0  0
   -4.3471  -12.0609   -4.7434 C   0  0  0  0  0  0  0  0  0  0  0  0
   -3.1728  -11.6492   -4.1113 C   0  0  0  0  0  0  0  0  0  0  0  0
   -1.3469   -8.2621   -3.8082 C   0  0  0  0  0  0  0  0  0  0  0  0
   -1.5588   -7.1754   -2.9902 C   0  0  0  0  0  0  0  0  0  0  0  0
   -1.4740   -7.2673   -1.5544 C   0  0  0  0  0  0  0  0  0  0  0  0
   -1.8755   -6.1568   -0.7833 C   0  0  0  0  0  0  0  0  0  0  0  0
   -2.2002   -6.0543    0.5951 C   0  0  0  0  0  0  0  0  0  0  0  0
   -2.2110   -7.0285    1.6152 C   0  0  0  0  0  0  0  0  0  0  0  0
   -2.9149   -6.7338    2.8376 C   0  0  0  0  0  0  0  0  0  0  0  0
   -3.0975   -7.6764    3.8241 C   0  0  0  0  0  0  0  0  0  0  0  0
   -2.5611   -8.9844    3.6916 C   0  0  0  0  0  0  0  0  0  0  0  0
   -2.7992  -10.0317    4.7520 C   0  0  0  0  0  0  0  0  0  0  0  0
   -4.2587  -10.4485    4.8808 C   0  0  0  0  0  0  0  0  0  0  0  0
   -4.9233  -11.0606    3.8038 C   0  0  0  0  0  0  0  0  0  0  0  0
   -6.2598  -11.4471    3.9135 C   0  0  0  0  0  0  0  0  0  0  0  0
   -6.9630  -11.2214    5.1031 C   0  0  0  0  0  0  0  0  0  0  0  0
   -6.3156  -10.6097    6.1790 C   0  0  0  0  0  0  0  0  0  0  0  0
   -4.9743  -10.2270    6.0667 C   0  0  0  0  0  0  0  0  0  0  0  0
   -1.7889   -9.2582    2.5423 C   0  0  0  0  0  0  0  0  0  0  0  0
   -1.5943   -8.3347    1.5237 C   0  0  0  0  0  0  0  0  0  0  0  0
    4.7427   -8.8294    1.5309 C   0  0  0  0  0  0  0  0  0  0  0  0
    5.7695   -9.6765    1.9607 C   0  0  0  0  0  0  0  0  0  0  0  0
    9.8722   -8.9053    1.9473 C   0  0  0  0  0  0  0  0  0  0  0  0
   10.4611   -9.1079    0.9178 O   0  0  0  0  0  0  0  0  0  0  0  0
    9.8317   -7.7184    2.5525 O   0  0  0  0  0  0  0  0  0  0  0  0
    9.6160  -10.7912    6.7420 H   0  0  0  0  0  0  0  0  0  0  0  0
    9.9609   -9.1591    6.1099 H   0  0  0  0  0  0  0  0  0  0  0  0
   10.5787  -10.5999    5.2593 H   0  0  0  0  0  0  0  0  0  0  0  0
    7.5931   -9.8505    5.6006 H   0  0  0  0  0  0  0  0  0  0  0  0
    8.1789  -11.2877    4.7424 H   0  0  0  0  0  0  0  0  0  0  0  0
    9.8581  -10.7632    2.9789 H   0  0  0  0  0  0  0  0  0  0  0  0
    7.6550  -11.5646    2.2843 H   0  0  0  0  0  0  0  0  0  0  0  0
    8.6585  -11.1014    0.8999 H   0  0  0  0  0  0  0  0  0  0  0  0
    8.0547   -9.0967   -0.4846 H   0  0  0  0  0  0  0  0  0  0  0  0
    6.2328   -7.5837   -1.2622 H   0  0  0  0  0  0  0  0  0  0  0  0
    2.3850   -6.0228    0.1566 H   0  0  0  0  0  0  0  0  0  0  0  0
    2.8275   -6.9905    1.5789 H   0  0  0  0  0  0  0  0  0  0  0  0
    2.0722   -9.0822    0.3300 H   0  0  0  0  0  0  0  0  0  0  0  0
    1.6288   -8.0504   -1.0548 H   0  0  0  0  0  0  0  0  0  0  0  0
   -0.2388   -9.6816    0.5942 H   0  0  0  0  0  0  0  0  0  0  0  0
   -0.4641  -10.5548   -1.4416 H   0  0  0  0  0  0  0  0  0  0  0  0
   -0.3991  -11.5630   -3.5614 H   0  0  0  0  0  0  0  0  0  0  0  0
   -0.0452  -10.5015   -4.9307 H   0  0  0  0  0  0  0  0  0  0  0  0
   -1.3579  -10.7596   -6.8525 H   0  0  0  0  0  0  0  0  0  0  0  0
   -3.4494  -11.4795   -7.9811 H   0  0  0  0  0  0  0  0  0  0  0  0
   -5.3751  -12.3203   -6.6335 H   0  0  0  0  0  0  0  0  0  0  0  0
   -5.1848  -12.4298   -4.1455 H   0  0  0  0  0  0  0  0  0  0  0  0
   -3.1010  -11.6901   -3.0206 H   0  0  0  0  0  0  0  0  0  0  0  0
   -1.4579   -8.1551   -4.8908 H   0  0  0  0  0  0  0  0  0  0  0  0
   -1.8371   -6.2125   -3.4281 H   0  0  0  0  0  0  0  0  0  0  0  0
   -2.0803   -5.2482   -1.3592 H   0  0  0  0  0  0  0  0  0  0  0  0
   -2.6112   -5.0820    0.8860 H   0  0  0  0  0  0  0  0  0  0  0  0
   -3.3377   -5.7325    2.9584 H   0  0  0  0  0  0  0  0  0  0  0  0
   -3.6695   -7.4191    4.7200 H   0  0  0  0  0  0  0  0  0  0  0  0
   -2.4590   -9.6529    5.7327 H   0  0  0  0  0  0  0  0  0  0  0  0
   -2.1830  -10.9189    4.5293 H   0  0  0  0  0  0  0  0  0  0  0  0
   -4.3845  -11.2315    2.8674 H   0  0  0  0  0  0  0  0  0  0  0  0
   -6.7578  -11.9257    3.0660 H   0  0  0  0  0  0  0  0  0  0  0  0
   -8.0107  -11.5209    5.1885 H   0  0  0  0  0  0  0  0  0  0  0  0
   -6.8548  -10.4294    7.1129 H   0  0  0  0  0  0  0  0  0  0  0  0
   -4.4731   -9.7543    6.9167 H   0  0  0  0  0  0  0  0  0  0  0  0
   -1.3048  -10.2374    2.4604 H   0  0  0  0  0  0  0  0  0  0  0  0
    3.8197   -8.7767    2.1089 H   0  0  0  0  0  0  0  0  0  0  0  0
    5.6166  -10.2650    2.8697 H   0  0  0  0  0  0  0  0  0  0  0  0
    9.2669   -7.8388    3.3439 H   0  0  0  0  0  0  0  0  0  0  0  0
  1  2  1  0
  1 48  1  0
  1 49  1  0
  1 50  1  0
  2  3  1  0
  2 51  1  0
  2 52  1  0
  3  4  1  0
  4  5  1  0
  4 45  1  0
  4 53  1  1
  5  6  1  0
  5 54  1  0
  5 55  1  0
  6  7  2  0
  6 44  1  0
  7  8  1  0
  7 56  1  0
  8  9  2  0
  8 57  1  0
  9 10  1  0
  9 43  1  0
 10 11  1  0
 11 12  1  0
 11 58  1  0
 11 59  1  0
 12 13  1  0
 12 60  1  0
 12 61  1  0
 13 14  1  0
 14 15  1  0
 14 42  1  0
 14 62  1  1
 15 16  2  0
 15 27  1  0
 16 17  1  0
 16 63  1  0
 17 18  1  0
 17 25  2  0
 18 19  1  0
 18 64  1  0
 18 65  1  0
 19 20  2  0
 19 24  1  0
 20 21  1  0
 20 66  1  0
 21 22  2  0
 21 67  1  0
 22 23  1  0
 22 68  1  0
 23 24  2  0
 23 69  1  0
 24 70  1  0
 25 26  1  0
 25 71  1  0
 26 27  2  0
 26 72  1  0
 27 28  1  0
 28 29  2  0
 28 73  1  0
 29 30  1  0
 29 74  1  0
 30 31  1  0
 30 42  2  0
 31 32  2  0
 31 75  1  0
 32 33  1  0
 32 76  1  0
 33 34  1  0
 33 41  2  0
 34 35  1  0
 34 77  1  0
 34 78  1  0
 35 36  2  0
 35 40  1  0
 36 37  1  0
 36 79  1  0
 37 38  2  0
 37 80  1  0
 38 39  1  0
 38 81  1  0
 39 40  2  0
 39 82  1  0
 40 83  1  0
 41 42  1  0
 41 84  1  0
 43 44  2  0
 43 85  1  0
 44 86  1  0
 45 46  2  0
 45 47  1  0
 47 87  1  0
M  END

