
     RDKit          3D

 40 42  0  0  0  0  0  0  0  0999 V2000
    1.2106    0.4062   -0.2813 C   0  0  0  0  0  0  0  0  0  0  0  0
    2.6698    0.0605   -0.1084 C   0  0  0  0  0  0  0  0  0  0  0  0
    3.4683    1.0024    0.2734 N   0  0  0  0  0  0  0  0  0  0  0  0
    4.7596    1.0713    0.5998 C   0  0  0  0  0  0  0  0  0  0  0  0
    5.3949   -0.2105    0.5093 C   0  0  0  0  0  0  0  0  0  0  0  0
    4.6712   -1.3120    0.1221 C   0  0  0  0  0  0  0  0  0  0  0  0
    3.2689   -1.2784   -0.2292 C   0  0  0  0  0  0  0  0  0  0  0  0
    2.5198   -2.4767   -0.5427 C   0  0  0  0  0  0  0  0  0  0  0  0
    2.9381   -3.7451   -0.0345 C   0  0  0  0  0  0  0  0  0  0  0  0
    2.3068   -4.9383   -0.3570 C   0  0  0  0  0  0  0  0  0  0  0  0
    1.1848   -4.9427   -1.2117 C   0  0  0  0  0  0  0  0  0  0  0  0
    0.4813   -6.1009   -1.5925 N   0  0  0  0  0  0  0  0  0  0  0  0
    0.7187   -7.4141   -1.2170 C   0  0  0  0  0  0  0  0  0  0  0  0
    1.6161   -7.7606   -0.4601 O   0  0  0  0  0  0  0  0  0  0  0  0
   -0.1501   -8.3313   -1.7729 N   0  0  0  0  0  0  0  0  0  0  0  0
    0.0325   -9.7598   -1.5077 C   0  0  0  0  0  0  0  0  0  0  0  0
   -0.7881  -10.4276   -2.6166 C   0  0  0  0  0  0  0  0  0  0  0  0
   -1.9328   -9.4308   -2.8502 C   0  0  0  0  0  0  0  0  0  0  0  0
   -1.2458   -8.0635   -2.7001 C   0  0  0  0  0  0  0  0  0  0  0  0
    0.7452   -3.7043   -1.7239 C   0  0  0  0  0  0  0  0  0  0  0  0
    1.3879   -2.5157   -1.4096 C   0  0  0  0  0  0  0  0  0  0  0  0
    0.9923    1.3793    0.1796 H   0  0  0  0  0  0  0  0  0  0  0  0
    0.5855   -0.3657    0.1890 H   0  0  0  0  0  0  0  0  0  0  0  0
    0.9326    0.4614   -1.3459 H   0  0  0  0  0  0  0  0  0  0  0  0
    5.2188    2.0161    0.8793 H   0  0  0  0  0  0  0  0  0  0  0  0
    6.4650   -0.2706    0.7209 H   0  0  0  0  0  0  0  0  0  0  0  0
    5.1940   -2.2659    0.0321 H   0  0  0  0  0  0  0  0  0  0  0  0
    3.7765   -3.7878    0.6642 H   0  0  0  0  0  0  0  0  0  0  0  0
    2.6566   -5.8816    0.0568 H   0  0  0  0  0  0  0  0  0  0  0  0
   -0.2825   -5.9330   -2.2338 H   0  0  0  0  0  0  0  0  0  0  0  0
   -0.3473  -10.0277   -0.5034 H   0  0  0  0  0  0  0  0  0  0  0  0
    1.1005  -10.0204   -1.5244 H   0  0  0  0  0  0  0  0  0  0  0  0
   -1.1386  -11.4332   -2.3407 H   0  0  0  0  0  0  0  0  0  0  0  0
   -0.1788  -10.5249   -3.5310 H   0  0  0  0  0  0  0  0  0  0  0  0
   -2.7015   -9.5486   -2.0685 H   0  0  0  0  0  0  0  0  0  0  0  0
   -2.4297   -9.5466   -3.8249 H   0  0  0  0  0  0  0  0  0  0  0  0
   -1.9422   -7.3007   -2.3063 H   0  0  0  0  0  0  0  0  0  0  0  0
   -0.8702   -7.6973   -3.6774 H   0  0  0  0  0  0  0  0  0  0  0  0
   -0.1112   -3.6782   -2.4067 H   0  0  0  0  0  0  0  0  0  0  0  0
    1.0332   -1.6056   -1.8913 H   0  0  0  0  0  0  0  0  0  0  0  0
  1  2  1  0
  1 22  1  0
  1 23  1  0
  1 24  1  0
  2  3  2  0
  2  7  1  0
  3  4  1  0
  4  5  2  0
  4 25  1  0
  5  6  1  0
  5 26  1  0
  6  7  2  0
  6 27  1  0
  7  8  1  0
  8  9  2  0
  8 21  1  0
  9 10  1  0
  9 28  1  0
 10 11  2  0
 10 29  1  0
 11 12  1  0
 11 20  1  0
 12 13  1  0
 12 30  1  0
 13 14  2  0
 13 15  1  0
 15 16  1  0
 15 19  1  0
 16 17  1  0
 16 31  1  0
 16 32  1  0
 17 18  1  0
 17 33  1  0
 17 34  1  0
 18 19  1  0
 18 35  1  0
 18 36  1  0
 19 37  1  0
 19 38  1  0
 20 21  2  0
 20 39  1  0
 21 40  1  0
M  END

