
     RDKit          3D

 52 55  0  0  0  0  0  0  0  0999 V2000
    5.2021   -1.6752   -0.0081 C   0  0  0  0  0  0  0  0  0  0  0  0
    4.0177   -0.7345    0.2208 C   0  0  0  0  0  0  0  0  0  0  0  0
    3.2838   -1.0092    1.4522 N   0  0  0  0  0  0  0  0  0  0  0  0
    3.7043   -0.5840    2.6901 C   0  0  0  0  0  0  0  0  0  0  0  0
    2.8559   -1.0984    3.6514 C   0  0  0  0  0  0  0  0  0  0  0  0
    1.8830   -1.8766    2.9692 C   0  0  0  0  0  0  0  0  0  0  0  0
    2.1657   -1.8127    1.6114 C   0  0  0  0  0  0  0  0  0  0  0  0
    1.4321   -2.4410    0.4635 C   0  0  1  0  0  0  0  0  0  0  0  0
    1.7650   -3.9472    0.1263 C   0  0  1  0  0  0  0  0  0  0  0  0
    2.3639   -4.7606    1.2652 C   0  0  0  0  0  0  0  0  0  0  0  0
    1.5705   -5.4741    2.1748 C   0  0  0  0  0  0  0  0  0  0  0  0
    2.2011   -6.1887    3.1950 C   0  0  0  0  0  0  0  0  0  0  0  0
    3.5947   -6.1675    3.2724 C   0  0  0  0  0  0  0  0  0  0  0  0
    4.2967   -5.4296    2.3147 C   0  0  0  0  0  0  0  0  0  0  0  0
    3.7009   -4.7499    1.3338 N   0  0  0  0  0  0  0  0  0  0  0  0
    0.4599   -4.4110   -0.3034 N   0  0  0  0  0  0  0  0  0  0  0  0
   -0.5699   -3.6244    0.1307 C   0  0  0  0  0  0  0  0  0  0  0  0
   -2.1849   -4.0341    0.0094 S   0  0  0  0  0  0  0  0  0  0  0  0
   -0.0248   -2.4918    0.6710 N   0  0  0  0  0  0  0  0  0  0  0  0
   -0.8001   -1.2863    0.9526 C   0  0  0  0  0  0  0  0  0  0  0  0
   -0.7213   -0.2383   -0.1421 C   0  0  0  0  0  0  0  0  0  0  0  0
   -1.3561   -0.4434   -1.3839 C   0  0  0  0  0  0  0  0  0  0  0  0
   -1.2807    0.5090   -2.3930 C   0  0  0  0  0  0  0  0  0  0  0  0
   -0.5680    1.7060   -2.1916 C   0  0  0  0  0  0  0  0  0  0  0  0
   -0.5545    2.5760   -3.2346 O   0  0  0  0  0  0  0  0  0  0  0  0
    0.1237    3.8029   -3.1005 C   0  0  0  0  0  0  0  0  0  0  0  0
    0.0668    1.9273   -0.9616 C   0  0  0  0  0  0  0  0  0  0  0  0
   -0.0155    0.9545    0.0446 C   0  0  0  0  0  0  0  0  0  0  0  0
    5.6735   -1.4636   -0.9814 H   0  0  0  0  0  0  0  0  0  0  0  0
    4.8833   -2.7283    0.0180 H   0  0  0  0  0  0  0  0  0  0  0  0
    5.9647   -1.5407    0.7754 H   0  0  0  0  0  0  0  0  0  0  0  0
    3.3134   -0.7861   -0.6220 H   0  0  0  0  0  0  0  0  0  0  0  0
    4.3600    0.3119    0.2671 H   0  0  0  0  0  0  0  0  0  0  0  0
    4.5781    0.0577    2.7855 H   0  0  0  0  0  0  0  0  0  0  0  0
    2.9215   -0.9230    4.7235 H   0  0  0  0  0  0  0  0  0  0  0  0
    1.0486   -2.4182    3.4102 H   0  0  0  0  0  0  0  0  0  0  0  0
    1.6298   -1.8563   -0.4530 H   0  0  0  0  0  0  0  0  0  0  0  0
    2.4976   -3.9755   -0.6943 H   0  0  0  0  0  0  0  0  0  0  0  0
    0.4823   -5.4698    2.0848 H   0  0  0  0  0  0  0  0  0  0  0  0
    1.6098   -6.7537    3.9203 H   0  0  0  0  0  0  0  0  0  0  0  0
    4.1305   -6.7124    4.0528 H   0  0  0  0  0  0  0  0  0  0  0  0
    5.3921   -5.3922    2.3392 H   0  0  0  0  0  0  0  0  0  0  0  0
    0.2667   -5.3721   -0.5563 H   0  0  0  0  0  0  0  0  0  0  0  0
   -0.4470   -0.8596    1.9021 H   0  0  0  0  0  0  0  0  0  0  0  0
   -1.8358   -1.6315    1.0878 H   0  0  0  0  0  0  0  0  0  0  0  0
   -1.9238   -1.3635   -1.5477 H   0  0  0  0  0  0  0  0  0  0  0  0
   -1.7759    0.3580   -3.3546 H   0  0  0  0  0  0  0  0  0  0  0  0
   -0.0055    4.3390   -4.0505 H   0  0  0  0  0  0  0  0  0  0  0  0
    1.2045    3.6600   -2.9165 H   0  0  0  0  0  0  0  0  0  0  0  0
   -0.2943    4.4190   -2.2835 H   0  0  0  0  0  0  0  0  0  0  0  0
    0.6218    2.8463   -0.7714 H   0  0  0  0  0  0  0  0  0  0  0  0
    0.4830    1.1399    1.0006 H   0  0  0  0  0  0  0  0  0  0  0  0
  1  2  1  0
  1 29  1  0
  1 30  1  0
  1 31  1  0
  2  3  1  0
  2 32  1  0
  2 33  1  0
  3  4  1  0
  3  7  1  0
  4  5  2  0
  4 34  1  0
  5  6  1  0
  5 35  1  0
  6  7  2  0
  6 36  1  0
  7  8  1  0
  8  9  1  0
  8 19  1  0
  8 37  1  6
  9 10  1  0
  9 16  1  0
  9 38  1  6
 10 11  2  0
 10 15  1  0
 11 12  1  0
 11 39  1  0
 12 13  2  0
 12 40  1  0
 13 14  1  0
 13 41  1  0
 14 15  2  0
 14 42  1  0
 16 17  1  0
 16 43  1  0
 17 18  2  0
 17 19  1  0
 19 20  1  0
 20 21  1  0
 20 44  1  0
 20 45  1  0
 21 22  2  0
 21 28  1  0
 22 23  1  0
 22 46  1  0
 23 24  2  0
 23 47  1  0
 24 25  1  0
 24 27  1  0
 25 26  1  0
 26 48  1  0
 26 49  1  0
 26 50  1  0
 27 28  2  0
 27 51  1  0
 28 52  1  0
M  END

