
     RDKit          3D

 34 34  0  0  0  0  0  0  0  0999 V2000
    0.6285    0.1036    0.1170 C   0  0  0  0  0  0  0  0  0  0  0  0
    2.1490    0.1682    0.2031 C   0  0  0  0  0  0  0  0  0  0  0  0
    2.7698   -0.4974   -0.9308 N   0  0  0  0  0  0  0  0  0  0  0  0
    4.2183   -0.4833   -0.9381 C   0  0  1  0  0  0  0  0  0  0  0  0
    4.8206   -1.5036    0.0188 C   0  0  0  0  0  0  0  0  0  0  0  0
    5.9847   -1.2178    0.7437 C   0  0  0  0  0  0  0  0  0  0  0  0
    6.5591   -2.1757    1.5812 C   0  0  0  0  0  0  0  0  0  0  0  0
    5.9733   -3.4379    1.7114 C   0  0  0  0  0  0  0  0  0  0  0  0
    6.7044   -4.6138    2.7688 Cl  0  0  0  0  0  0  0  0  0  0  0  0
    4.8010   -3.7313    0.9914 C   0  0  0  0  0  0  0  0  0  0  0  0
    4.0358   -5.2917    1.1281 Cl  0  0  0  0  0  0  0  0  0  0  0  0
    4.2360   -2.7687    0.1533 C   0  0  0  0  0  0  0  0  0  0  0  0
    4.7296   -0.7094   -2.3819 C   0  0  1  0  0  0  0  0  0  0  0  0
    4.3165   -1.9512   -2.8191 O   0  0  0  0  0  0  0  0  0  0  0  0
    4.8566   -2.3642   -4.0566 C   0  0  0  0  0  0  0  0  0  0  0  0
    4.2090    0.2753   -3.2592 O   0  0  0  0  0  0  0  0  0  0  0  0
    4.9556    1.4630   -3.3751 C   0  0  0  0  0  0  0  0  0  0  0  0
    0.1624    0.5940    0.9860 H   0  0  0  0  0  0  0  0  0  0  0  0
    0.2851   -0.9417    0.0781 H   0  0  0  0  0  0  0  0  0  0  0  0
    0.2595    0.6126   -0.7899 H   0  0  0  0  0  0  0  0  0  0  0  0
    2.4872   -0.3318    1.1272 H   0  0  0  0  0  0  0  0  0  0  0  0
    2.4731    1.2314    0.2994 H   0  0  0  0  0  0  0  0  0  0  0  0
    2.4317   -0.1044   -1.8086 H   0  0  0  0  0  0  0  0  0  0  0  0
    4.6248    0.5122   -0.6431 H   0  0  0  0  0  0  0  0  0  0  0  0
    6.4500   -0.2311    0.6634 H   0  0  0  0  0  0  0  0  0  0  0  0
    7.4631   -1.9530    2.1505 H   0  0  0  0  0  0  0  0  0  0  0  0
    3.3275   -2.9930   -0.4051 H   0  0  0  0  0  0  0  0  0  0  0  0
    5.8417   -0.6357   -2.3848 H   0  0  0  0  0  0  0  0  0  0  0  0
    4.4809   -3.3778   -4.2527 H   0  0  0  0  0  0  0  0  0  0  0  0
    5.9636   -2.3954   -4.0221 H   0  0  0  0  0  0  0  0  0  0  0  0
    4.5473   -1.6966   -4.8781 H   0  0  0  0  0  0  0  0  0  0  0  0
    4.4794    2.0763   -4.1537 H   0  0  0  0  0  0  0  0  0  0  0  0
    6.0025    1.2618   -3.6758 H   0  0  0  0  0  0  0  0  0  0  0  0
    4.9748    2.0494   -2.4366 H   0  0  0  0  0  0  0  0  0  0  0  0
  1  2  1  0
  1 18  1  0
  1 19  1  0
  1 20  1  0
  2  3  1  0
  2 21  1  0
  2 22  1  0
  3  4  1  0
  3 23  1  0
  4  5  1  0
  4 13  1  0
  4 24  1  1
  5  6  2  0
  5 12  1  0
  6  7  1  0
  6 25  1  0
  7  8  2  0
  7 26  1  0
  8  9  1  0
  8 10  1  0
 10 11  1  0
 10 12  2  0
 12 27  1  0
 13 14  1  0
 13 16  1  0
 13 28  1  1
 14 15  1  0
 15 29  1  0
 15 30  1  0
 15 31  1  0
 16 17  1  0
 17 32  1  0
 17 33  1  0
 17 34  1  0
M  END

