
     RDKit          3D

 65 67  0  0  0  0  0  0  0  0999 V2000
    6.1969    0.6050  -11.0259 C   0  0  0  0  0  0  0  0  0  0  0  0
    6.9899    0.5421   -9.8449 O   0  0  0  0  0  0  0  0  0  0  0  0
    6.4060    0.2723   -8.6665 C   0  0  0  0  0  0  0  0  0  0  0  0
    5.0237    0.0758   -8.4881 C   0  0  0  0  0  0  0  0  0  0  0  0
    4.5206   -0.2117   -7.2167 C   0  0  0  0  0  0  0  0  0  0  0  0
    5.3887   -0.3196   -6.1278 C   0  0  0  0  0  0  0  0  0  0  0  0
    4.7504   -0.7645   -4.5190 S   0  0  1  0  0  0  0  0  0  0  0  0
    5.6011   -0.1463   -3.4993 O   0  0  0  0  0  0  0  0  0  0  0  0
    3.2985   -0.5461   -4.5496 O   0  0  0  0  0  0  0  0  0  0  0  0
    5.0353   -2.4476   -4.4338 N   0  0  0  0  0  0  0  0  0  0  0  0
    5.8888   -2.9666   -3.3452 C   0  0  0  0  0  0  0  0  0  0  0  0
    5.0805   -3.3880   -2.1197 C   0  0  0  0  0  0  0  0  0  0  0  0
    3.9559   -4.3814   -2.4756 C   0  0  2  0  0  0  0  0  0  0  0  0
    4.4703   -5.7047   -2.8378 N   0  0  0  0  0  0  0  0  0  0  0  0
    5.0013   -6.5497   -1.9131 C   0  0  0  0  0  0  0  0  0  0  0  0
    5.1833   -6.2369   -0.7455 O   0  0  0  0  0  0  0  0  0  0  0  0
    5.3709   -7.9440   -2.4378 C   0  0  0  0  0  0  0  0  0  0  0  0
    4.5135   -9.0263   -1.8318 C   0  0  0  0  0  0  0  0  0  0  0  0
    4.2119   -9.2398   -0.5072 C   0  0  0  0  0  0  0  0  0  0  0  0
    3.3708  -10.3758   -0.3007 C   0  0  0  0  0  0  0  0  0  0  0  0
    3.0423  -11.0163   -1.4686 C   0  0  0  0  0  0  0  0  0  0  0  0
    3.7562  -10.2321   -2.8365 S   0  0  0  0  0  0  0  0  0  0  0  0
    3.1056   -3.8203   -3.6237 C   0  0  0  0  0  0  0  0  0  0  0  0
    3.9336   -3.3341   -4.8273 C   0  0  2  0  0  0  0  0  0  0  0  0
    4.4478   -4.4780   -5.7322 C   0  0  0  0  0  0  0  0  0  0  0  0
    3.9181   -5.5855   -5.7432 O   0  0  0  0  0  0  0  0  0  0  0  0
    5.4784   -4.1447   -6.5457 N   0  0  0  0  0  0  0  0  0  0  0  0
    6.0130   -5.0580   -7.5424 C   0  0  0  0  0  0  0  0  0  0  0  0
    5.2615   -5.0135   -8.8826 C   0  0  0  0  0  0  0  0  0  0  0  0
    5.3520   -3.6554   -9.5803 C   0  0  0  0  0  0  0  0  0  0  0  0
    4.5495   -3.4298  -10.8602 C   0  0  0  0  0  0  0  0  0  0  0  0
    3.8452   -4.4865  -11.3476 N   0  0  0  0  0  0  0  0  0  0  0  0
    4.5483   -2.3423  -11.4185 O   0  0  0  0  0  0  0  0  0  0  0  0
    6.7665   -0.1004   -6.2903 C   0  0  0  0  0  0  0  0  0  0  0  0
    7.2680    0.1935   -7.5503 C   0  0  0  0  0  0  0  0  0  0  0  0
    6.8965    0.8039  -11.8481 H   0  0  0  0  0  0  0  0  0  0  0  0
    5.4687    1.4332  -10.9705 H   0  0  0  0  0  0  0  0  0  0  0  0
    5.6698   -0.3459  -11.2067 H   0  0  0  0  0  0  0  0  0  0  0  0
    4.3390    0.1327   -9.3334 H   0  0  0  0  0  0  0  0  0  0  0  0
    3.4476   -0.3439   -7.0660 H   0  0  0  0  0  0  0  0  0  0  0  0
    6.6208   -2.1936   -3.0830 H   0  0  0  0  0  0  0  0  0  0  0  0
    6.4447   -3.8281   -3.7542 H   0  0  0  0  0  0  0  0  0  0  0  0
    4.6277   -2.4905   -1.6658 H   0  0  0  0  0  0  0  0  0  0  0  0
    5.7362   -3.8416   -1.3624 H   0  0  0  0  0  0  0  0  0  0  0  0
    3.3213   -4.5019   -1.5815 H   0  0  0  0  0  0  0  0  0  0  0  0
    4.2278   -6.0629   -3.7597 H   0  0  0  0  0  0  0  0  0  0  0  0
    6.4263   -8.1053   -2.1576 H   0  0  0  0  0  0  0  0  0  0  0  0
    5.3187   -7.9798   -3.5364 H   0  0  0  0  0  0  0  0  0  0  0  0
    4.5797   -8.5829    0.2816 H   0  0  0  0  0  0  0  0  0  0  0  0
    3.0226  -10.7042    0.6803 H   0  0  0  0  0  0  0  0  0  0  0  0
    2.4225  -11.9014   -1.6048 H   0  0  0  0  0  0  0  0  0  0  0  0
    2.5503   -2.9476   -3.2497 H   0  0  0  0  0  0  0  0  0  0  0  0
    2.3704   -4.5638   -3.9653 H   0  0  0  0  0  0  0  0  0  0  0  0
    3.2541   -2.7543   -5.4719 H   0  0  0  0  0  0  0  0  0  0  0  0
    5.8756   -3.2178   -6.4275 H   0  0  0  0  0  0  0  0  0  0  0  0
    5.9521   -6.0759   -7.1302 H   0  0  0  0  0  0  0  0  0  0  0  0
    7.0774   -4.8165   -7.6935 H   0  0  0  0  0  0  0  0  0  0  0  0
    4.2092   -5.2792   -8.6827 H   0  0  0  0  0  0  0  0  0  0  0  0
    5.6777   -5.8065   -9.5292 H   0  0  0  0  0  0  0  0  0  0  0  0
    6.3996   -3.4213   -9.8385 H   0  0  0  0  0  0  0  0  0  0  0  0
    5.0358   -2.8514   -8.8960 H   0  0  0  0  0  0  0  0  0  0  0  0
    3.8122   -5.3868  -10.8905 H   0  0  0  0  0  0  0  0  0  0  0  0
    3.2994   -4.3457  -12.1900 H   0  0  0  0  0  0  0  0  0  0  0  0
    7.4314   -0.1459   -5.4256 H   0  0  0  0  0  0  0  0  0  0  0  0
    8.3329    0.3752   -7.7080 H   0  0  0  0  0  0  0  0  0  0  0  0
  1  2  1  0
  1 36  1  0
  1 37  1  0
  1 38  1  0
  2  3  1  0
  3  4  2  0
  3 35  1  0
  4  5  1  0
  4 39  1  0
  5  6  2  0
  5 40  1  0
  7  6  1  6
  6 34  1  0
  7  8  2  0
  7  9  2  0
  7 10  1  0
 10 11  1  0
 10 24  1  0
 11 12  1  0
 11 41  1  0
 11 42  1  0
 12 13  1  0
 12 43  1  0
 12 44  1  0
 13 14  1  0
 13 23  1  0
 13 45  1  1
 14 15  1  0
 14 46  1  0
 15 16  2  0
 15 17  1  0
 17 18  1  0
 17 47  1  0
 17 48  1  0
 18 19  2  0
 18 22  1  0
 19 20  1  0
 19 49  1  0
 20 21  2  0
 20 50  1  0
 21 22  1  0
 21 51  1  0
 23 24  1  0
 23 52  1  0
 23 53  1  0
 24 25  1  0
 24 54  1  6
 25 26  2  0
 25 27  1  0
 27 28  1  0
 27 55  1  0
 28 29  1  0
 28 56  1  0
 28 57  1  0
 29 30  1  0
 29 58  1  0
 29 59  1  0
 30 31  1  0
 30 60  1  0
 30 61  1  0
 31 32  1  0
 31 33  2  0
 32 62  1  0
 32 63  1  0
 34 35  2  0
 34 64  1  0
 35 65  1  0
M  END

