
     RDKit          3D

 38 40  0  0  0  0  0  0  0  0999 V2000
    1.1762   -0.2580   -0.6889 C   0  0  0  0  0  0  0  0  0  0  0  0
    2.3824   -0.1558    0.0189 O   0  0  0  0  0  0  0  0  0  0  0  0
    2.9151    1.1547    0.1504 C   0  0  1  0  0  0  0  0  0  0  0  0
    2.1557    1.9919    1.1933 C   0  0  0  0  0  0  0  0  0  0  0  0
    2.2937    1.4066    2.6034 C   0  0  0  0  0  0  0  0  0  0  0  0
    3.7679    1.2339    3.0435 C   0  0  1  0  0  0  0  0  0  0  0  0
    4.5223    0.4095    1.9701 C   0  0  0  0  0  0  0  0  0  0  0  0
    4.3811    0.9976    0.5610 C   0  0  0  0  0  0  0  0  0  0  0  0
    4.4695    2.5836    3.3729 C   0  0  0  0  0  0  0  0  0  0  0  0
    4.8578    2.4825    4.8264 C   0  0  0  0  0  0  0  0  0  0  0  0
    5.5171    3.4224    5.6124 C   0  0  0  0  0  0  0  0  0  0  0  0
    5.8900    4.5968    5.0744 F   0  0  0  0  0  0  0  0  0  0  0  0
    5.7882    3.1536    6.9504 C   0  0  0  0  0  0  0  0  0  0  0  0
    5.3957    1.9284    7.5110 C   0  0  0  0  0  0  0  0  0  0  0  0
    4.7303    0.9504    6.7598 C   0  0  0  0  0  0  0  0  0  0  0  0
    4.3094   -0.3632    7.3632 C   0  0  0  0  0  0  0  0  0  0  0  0
    4.4757    1.2666    5.4074 C   0  0  0  0  0  0  0  0  0  0  0  0
    3.7942    0.4448    4.3768 C   0  0  0  0  0  0  0  0  0  0  0  0
    3.3257   -0.6654    4.5234 O   0  0  0  0  0  0  0  0  0  0  0  0
    0.9420   -1.3280   -0.7918 H   0  0  0  0  0  0  0  0  0  0  0  0
    1.2557    0.1831   -1.7038 H   0  0  0  0  0  0  0  0  0  0  0  0
    0.3262    0.2301   -0.1730 H   0  0  0  0  0  0  0  0  0  0  0  0
    2.8618    1.6644   -0.8341 H   0  0  0  0  0  0  0  0  0  0  0  0
    1.0898    2.0670    0.9223 H   0  0  0  0  0  0  0  0  0  0  0  0
    2.5471    3.0240    1.1588 H   0  0  0  0  0  0  0  0  0  0  0  0
    1.8211    0.4123    2.6342 H   0  0  0  0  0  0  0  0  0  0  0  0
    1.7578    2.0387    3.3321 H   0  0  0  0  0  0  0  0  0  0  0  0
    4.1093   -0.6108    1.9775 H   0  0  0  0  0  0  0  0  0  0  0  0
    5.5886    0.3288    2.2424 H   0  0  0  0  0  0  0  0  0  0  0  0
    4.8861    0.3455   -0.1694 H   0  0  0  0  0  0  0  0  0  0  0  0
    4.8698    1.9854    0.5004 H   0  0  0  0  0  0  0  0  0  0  0  0
    3.8084    3.4519    3.2126 H   0  0  0  0  0  0  0  0  0  0  0  0
    5.3581    2.7621    2.7449 H   0  0  0  0  0  0  0  0  0  0  0  0
    6.3057    3.9071    7.5482 H   0  0  0  0  0  0  0  0  0  0  0  0
    5.6173    1.7359    8.5642 H   0  0  0  0  0  0  0  0  0  0  0  0
    4.5946   -0.4203    8.4239 H   0  0  0  0  0  0  0  0  0  0  0  0
    4.7632   -1.2116    6.8274 H   0  0  0  0  0  0  0  0  0  0  0  0
    3.2212   -0.5099    7.2791 H   0  0  0  0  0  0  0  0  0  0  0  0
  1  2  1  0
  1 20  1  0
  1 21  1  0
  1 22  1  0
  2  3  1  0
  3  4  1  0
  3  8  1  0
  3 23  1  6
  4  5  1  0
  4 24  1  0
  4 25  1  0
  5  6  1  0
  5 26  1  0
  5 27  1  0
  6  7  1  0
  6  9  1  0
  6 18  1  1
  7  8  1  0
  7 28  1  0
  7 29  1  0
  8 30  1  0
  8 31  1  0
  9 10  1  0
  9 32  1  0
  9 33  1  0
 10 11  1  0
 10 17  2  0
 11 12  1  0
 11 13  2  0
 13 14  1  0
 13 34  1  0
 14 15  2  0
 14 35  1  0
 15 16  1  0
 15 17  1  0
 16 36  1  0
 16 37  1  0
 16 38  1  0
 17 18  1  0
 18 19  2  0
M  END

