
     RDKit          3D

 52 53  0  0  0  0  0  0  0  0999 V2000
   11.1452    0.5833   -2.9742 C   0  0  0  0  0  0  0  0  0  0  0  0
   11.7241    1.8495   -2.3423 C   0  0  0  0  0  0  0  0  0  0  0  0
   10.6737    2.8942   -1.9434 C   0  0  0  0  0  0  0  0  0  0  0  0
    9.7359    2.4402   -0.9237 N   0  0  0  0  0  0  0  0  0  0  0  0
    9.8820    2.7361    0.3937 C   0  0  0  0  0  0  0  0  0  0  0  0
   10.7913    3.4272    0.8327 O   0  0  0  0  0  0  0  0  0  0  0  0
    8.8238    2.1243    1.3308 C   0  0  1  0  0  0  0  0  0  0  0  0
    9.0050    0.6026    1.4772 C   0  0  0  0  0  0  0  0  0  0  0  0
    8.9398    2.8170    2.5972 N   0  0  0  0  0  0  0  0  0  0  0  0
    7.9355    2.8461    3.5083 C   0  0  0  0  0  0  0  0  0  0  0  0
    6.8824    2.2404    3.3560 O   0  0  0  0  0  0  0  0  0  0  0  0
    8.1905    3.7081    4.7451 C   0  0  1  0  0  0  0  0  0  0  0  0
    7.2685    4.9338    4.8192 C   0  0  0  0  0  0  0  0  0  0  0  0
    7.0740    5.1779    6.3119 C   0  0  0  0  0  0  0  0  0  0  0  0
    6.6632    6.2045    6.8105 O   0  0  0  0  0  0  0  0  0  0  0  0
    7.4211    4.0070    6.9745 N   0  0  0  0  0  0  0  0  0  0  0  0
    7.2573    3.7477    8.3555 C   0  0  0  0  0  0  0  0  0  0  0  0
    7.0364    4.7817    9.2879 C   0  0  0  0  0  0  0  0  0  0  0  0
    6.8913    4.4820   10.6415 C   0  0  0  0  0  0  0  0  0  0  0  0
    6.9590    3.1674   11.1295 C   0  0  0  0  0  0  0  0  0  0  0  0
    6.7526    2.8599   12.5968 C   0  0  0  0  0  0  0  0  0  0  0  0
    5.2768    2.6566   12.9740 C   0  0  0  0  0  0  0  0  0  0  0  0
    7.1801    2.1495   10.1927 C   0  0  0  0  0  0  0  0  0  0  0  0
    7.3258    2.4248    8.8317 C   0  0  0  0  0  0  0  0  0  0  0  0
    7.8560    2.9588    6.0496 C   0  0  0  0  0  0  0  0  0  0  0  0
   11.9413   -0.1250   -3.2518 H   0  0  0  0  0  0  0  0  0  0  0  0
   10.5731    0.8131   -3.8895 H   0  0  0  0  0  0  0  0  0  0  0  0
   10.4703    0.0552   -2.2801 H   0  0  0  0  0  0  0  0  0  0  0  0
   12.4227    2.3314   -3.0484 H   0  0  0  0  0  0  0  0  0  0  0  0
   12.3183    1.5916   -1.4490 H   0  0  0  0  0  0  0  0  0  0  0  0
   10.0943    3.2071   -2.8293 H   0  0  0  0  0  0  0  0  0  0  0  0
   11.1714    3.7860   -1.5375 H   0  0  0  0  0  0  0  0  0  0  0  0
    8.9461    1.8723   -1.2053 H   0  0  0  0  0  0  0  0  0  0  0  0
    7.8158    2.3131    0.9209 H   0  0  0  0  0  0  0  0  0  0  0  0
   10.0061    0.3698    1.8718 H   0  0  0  0  0  0  0  0  0  0  0  0
    8.8821    0.0871    0.5117 H   0  0  0  0  0  0  0  0  0  0  0  0
    8.2458    0.2164    2.1717 H   0  0  0  0  0  0  0  0  0  0  0  0
    9.7863    3.3730    2.7022 H   0  0  0  0  0  0  0  0  0  0  0  0
    9.2414    4.0380    4.7735 H   0  0  0  0  0  0  0  0  0  0  0  0
    6.2807    4.7020    4.3847 H   0  0  0  0  0  0  0  0  0  0  0  0
    7.6560    5.8359    4.3264 H   0  0  0  0  0  0  0  0  0  0  0  0
    6.9719    5.8091    8.9391 H   0  0  0  0  0  0  0  0  0  0  0  0
    6.7248    5.3059   11.3425 H   0  0  0  0  0  0  0  0  0  0  0  0
    7.1716    3.6803   13.2041 H   0  0  0  0  0  0  0  0  0  0  0  0
    7.3238    1.9548   12.8648 H   0  0  0  0  0  0  0  0  0  0  0  0
    4.6823    3.5567   12.7493 H   0  0  0  0  0  0  0  0  0  0  0  0
    5.1672    2.4368   14.0486 H   0  0  0  0  0  0  0  0  0  0  0  0
    4.8345    1.8203   12.4090 H   0  0  0  0  0  0  0  0  0  0  0  0
    7.2409    1.1099   10.5289 H   0  0  0  0  0  0  0  0  0  0  0  0
    7.4845    1.5937    8.1445 H   0  0  0  0  0  0  0  0  0  0  0  0
    7.0511    2.2265    5.8655 H   0  0  0  0  0  0  0  0  0  0  0  0
    8.7286    2.4233    6.4538 H   0  0  0  0  0  0  0  0  0  0  0  0
  1  2  1  0
  1 26  1  0
  1 27  1  0
  1 28  1  0
  2  3  1  0
  2 29  1  0
  2 30  1  0
  3  4  1  0
  3 31  1  0
  3 32  1  0
  4  5  1  0
  4 33  1  0
  5  6  2  0
  5  7  1  0
  7  8  1  0
  7  9  1  0
  7 34  1  6
  8 35  1  0
  8 36  1  0
  8 37  1  0
  9 10  1  0
  9 38  1  0
 10 11  2  0
 10 12  1  0
 12 13  1  0
 12 25  1  0
 12 39  1  1
 13 14  1  0
 13 40  1  0
 13 41  1  0
 14 15  2  0
 14 16  1  0
 16 17  1  0
 16 25  1  0
 17 18  2  0
 17 24  1  0
 18 19  1  0
 18 42  1  0
 19 20  2  0
 19 43  1  0
 20 21  1  0
 20 23  1  0
 21 22  1  0
 21 44  1  0
 21 45  1  0
 22 46  1  0
 22 47  1  0
 22 48  1  0
 23 24  2  0
 23 49  1  0
 24 50  1  0
 25 51  1  0
 25 52  1  0
M  END

