
     RDKit          3D

 80 82  0  0  0  0  0  0  0  0999 V2000
   15.0879   -0.0316    0.2564 C   0  0  0  0  0  0  0  0  0  0  0  0
   13.8383   -0.5987   -0.4189 C   0  0  0  0  0  0  0  0  0  0  0  0
   12.8035    0.4733   -0.7717 C   0  0  0  0  0  0  0  0  0  0  0  0
   11.5573   -0.0947   -1.4522 C   0  0  0  0  0  0  0  0  0  0  0  0
   10.5037    0.9829   -1.7363 C   0  0  0  0  0  0  0  0  0  0  0  0
   10.5994    2.0791   -1.2104 O   0  0  0  0  0  0  0  0  0  0  0  0
    9.4698    0.6786   -2.6148 N   0  0  0  0  0  0  0  0  0  0  0  0
    8.3586    1.6451   -2.7690 C   0  0  0  0  0  0  0  0  0  0  0  0
    8.7019    3.1234   -3.0147 C   0  0  0  0  0  0  0  0  0  0  0  0
    9.7508    3.4504   -4.0907 C   0  0  1  0  0  0  0  0  0  0  0  0
    9.3450    2.9538   -5.4808 C   0  0  0  0  0  0  0  0  0  0  0  0
   10.0344    4.9580   -4.1055 C   0  0  0  0  0  0  0  0  0  0  0  0
    9.0510   -0.7187   -2.7675 C   0  0  0  0  0  0  0  0  0  0  0  0
    8.3524   -1.1391   -4.0815 C   0  0  0  0  0  0  0  0  0  0  0  0
    7.1547   -1.3782   -4.0469 O   0  0  0  0  0  0  0  0  0  0  0  0
    9.0929   -1.3562   -5.2246 N   0  0  0  0  0  0  0  0  0  0  0  0
    8.3863   -2.0842   -6.2831 C   0  0  0  0  0  0  0  0  0  0  0  0
    7.5851   -1.2457   -7.2460 C   0  0  0  0  0  0  0  0  0  0  0  0
    7.4873    0.1220   -7.4255 C   0  0  0  0  0  0  0  0  0  0  0  0
    6.5564    0.3592   -8.4794 C   0  0  0  0  0  0  0  0  0  0  0  0
    6.1116   -0.8708   -8.9119 C   0  0  0  0  0  0  0  0  0  0  0  0
    6.7329   -1.8477   -8.1589 N   0  0  0  0  0  0  0  0  0  0  0  0
    6.5433   -3.2697   -8.3527 C   0  0  0  0  0  0  0  0  0  0  0  0
    7.5447   -3.9292   -9.2902 C   0  0  0  0  0  0  0  0  0  0  0  0
    8.4485   -3.1797  -10.0571 C   0  0  0  0  0  0  0  0  0  0  0  0
    9.3539   -3.7980  -10.9242 C   0  0  0  0  0  0  0  0  0  0  0  0
    9.3703   -5.1897  -11.0421 C   0  0  0  0  0  0  0  0  0  0  0  0
    8.4776   -5.9603  -10.2938 C   0  0  0  0  0  0  0  0  0  0  0  0
    7.5786   -5.3276   -9.4323 C   0  0  0  0  0  0  0  0  0  0  0  0
    6.4586   -6.3219   -8.5137 Cl  0  0  0  0  0  0  0  0  0  0  0  0
   10.5537   -1.1292   -5.2726 C   0  0  1  0  0  0  0  0  0  0  0  0
   11.4073   -2.3686   -4.8940 C   0  0  0  0  0  0  0  0  0  0  0  0
   11.7038   -3.3445   -6.0428 C   0  0  0  0  0  0  0  0  0  0  0  0
   12.3045   -2.6180   -7.2530 C   0  0  0  0  0  0  0  0  0  0  0  0
   11.4011   -1.4730   -7.7271 C   0  0  0  0  0  0  0  0  0  0  0  0
   11.0662   -0.4957   -6.5895 C   0  0  0  0  0  0  0  0  0  0  0  0
   15.8112   -0.8251    0.5031 H   0  0  0  0  0  0  0  0  0  0  0  0
   14.8328    0.4910    1.1933 H   0  0  0  0  0  0  0  0  0  0  0  0
   15.5998    0.6957   -0.3956 H   0  0  0  0  0  0  0  0  0  0  0  0
   13.3730   -1.3530    0.2424 H   0  0  0  0  0  0  0  0  0  0  0  0
   14.1316   -1.1461   -1.3342 H   0  0  0  0  0  0  0  0  0  0  0  0
   13.2602    1.2339   -1.4285 H   0  0  0  0  0  0  0  0  0  0  0  0
   12.4962    1.0193    0.1345 H   0  0  0  0  0  0  0  0  0  0  0  0
   11.1017   -0.8645   -0.8022 H   0  0  0  0  0  0  0  0  0  0  0  0
   11.8372   -0.6168   -2.3822 H   0  0  0  0  0  0  0  0  0  0  0  0
    7.7140    1.5893   -1.8702 H   0  0  0  0  0  0  0  0  0  0  0  0
    7.7454    1.2663   -3.5992 H   0  0  0  0  0  0  0  0  0  0  0  0
    9.0245    3.5759   -2.0697 H   0  0  0  0  0  0  0  0  0  0  0  0
    7.7467    3.6070   -3.2949 H   0  0  0  0  0  0  0  0  0  0  0  0
   10.6892    2.9437   -3.8055 H   0  0  0  0  0  0  0  0  0  0  0  0
    8.4071    3.4296   -5.8166 H   0  0  0  0  0  0  0  0  0  0  0  0
    9.1880    1.8657   -5.4867 H   0  0  0  0  0  0  0  0  0  0  0  0
   10.1196    3.1813   -6.2315 H   0  0  0  0  0  0  0  0  0  0  0  0
    9.1269    5.5303   -4.3666 H   0  0  0  0  0  0  0  0  0  0  0  0
   10.8110    5.2128   -4.8453 H   0  0  0  0  0  0  0  0  0  0  0  0
   10.3795    5.3094   -3.1201 H   0  0  0  0  0  0  0  0  0  0  0  0
    8.2919   -0.9651   -2.0043 H   0  0  0  0  0  0  0  0  0  0  0  0
    9.9093   -1.3766   -2.6004 H   0  0  0  0  0  0  0  0  0  0  0  0
    7.7000   -2.7885   -5.7855 H   0  0  0  0  0  0  0  0  0  0  0  0
    9.1218   -2.6883   -6.8310 H   0  0  0  0  0  0  0  0  0  0  0  0
    8.0038    0.8722   -6.8358 H   0  0  0  0  0  0  0  0  0  0  0  0
    6.2395    1.3265   -8.8646 H   0  0  0  0  0  0  0  0  0  0  0  0
    5.3980   -1.1416   -9.6875 H   0  0  0  0  0  0  0  0  0  0  0  0
    5.5235   -3.4303   -8.7392 H   0  0  0  0  0  0  0  0  0  0  0  0
    6.5650   -3.7801   -7.3782 H   0  0  0  0  0  0  0  0  0  0  0  0
    8.4319   -2.0912   -9.9703 H   0  0  0  0  0  0  0  0  0  0  0  0
   10.0455   -3.1878  -11.5098 H   0  0  0  0  0  0  0  0  0  0  0  0
   10.0744   -5.6815  -11.7176 H   0  0  0  0  0  0  0  0  0  0  0  0
    8.4691   -7.0489  -10.3711 H   0  0  0  0  0  0  0  0  0  0  0  0
   10.7256   -0.3681   -4.5028 H   0  0  0  0  0  0  0  0  0  0  0  0
   10.9362   -2.8989   -4.0500 H   0  0  0  0  0  0  0  0  0  0  0  0
   12.3744   -1.9876   -4.5177 H   0  0  0  0  0  0  0  0  0  0  0  0
   10.7853   -3.8765   -6.3453 H   0  0  0  0  0  0  0  0  0  0  0  0
   12.3956   -4.1251   -5.6842 H   0  0  0  0  0  0  0  0  0  0  0  0
   12.4852   -3.3294   -8.0758 H   0  0  0  0  0  0  0  0  0  0  0  0
   13.2936   -2.2101   -6.9720 H   0  0  0  0  0  0  0  0  0  0  0  0
   10.4810   -1.8864   -8.1710 H   0  0  0  0  0  0  0  0  0  0  0  0
   11.8944   -0.9135   -8.5396 H   0  0  0  0  0  0  0  0  0  0  0  0
   10.3556    0.2690   -6.9334 H   0  0  0  0  0  0  0  0  0  0  0  0
   11.9942    0.0422   -6.3264 H   0  0  0  0  0  0  0  0  0  0  0  0
  1  2  1  0
  1 37  1  0
  1 38  1  0
  1 39  1  0
  2  3  1  0
  2 40  1  0
  2 41  1  0
  3  4  1  0
  3 42  1  0
  3 43  1  0
  4  5  1  0
  4 44  1  0
  4 45  1  0
  5  6  2  0
  5  7  1  0
  7  8  1  0
  7 13  1  0
  8  9  1  0
  8 46  1  0
  8 47  1  0
  9 10  1  0
  9 48  1  0
  9 49  1  0
 10 11  1  0
 10 12  1  0
 10 50  1  1
 11 51  1  0
 11 52  1  0
 11 53  1  0
 12 54  1  0
 12 55  1  0
 12 56  1  0
 13 14  1  0
 13 57  1  0
 13 58  1  0
 14 15  2  0
 14 16  1  0
 16 17  1  0
 16 31  1  0
 17 18  1  0
 17 59  1  0
 17 60  1  0
 18 19  2  0
 18 22  1  0
 19 20  1  0
 19 61  1  0
 20 21  2  0
 20 62  1  0
 21 22  1  0
 21 63  1  0
 22 23  1  0
 23 24  1  0
 23 64  1  0
 23 65  1  0
 24 25  2  0
 24 29  1  0
 25 26  1  0
 25 66  1  0
 26 27  2  0
 26 67  1  0
 27 28  1  0
 27 68  1  0
 28 29  2  0
 28 69  1  0
 29 30  1  0
 31 32  1  0
 31 36  1  0
 31 70  1  1
 32 33  1  0
 32 71  1  0
 32 72  1  0
 33 34  1  0
 33 73  1  0
 33 74  1  0
 34 35  1  0
 34 75  1  0
 34 76  1  0
 35 36  1  0
 35 77  1  0
 35 78  1  0
 36 79  1  0
 36 80  1  0
M  END

