
     RDKit          3D

 46 51  0  0  0  0  0  0  0  0999 V2000
    1.1816    0.4424    1.6642 O   0  0  0  0  0  0  0  0  0  0  0  0
    2.2835    0.5033    1.1812 C   0  0  0  0  0  0  0  0  0  0  0  0
    3.0177   -0.6997    1.1678 O   0  0  0  0  0  0  0  0  0  0  0  0
    4.3064   -0.7971    0.7685 C   0  0  0  0  0  0  0  0  0  0  0  0
    4.8431   -2.0889    0.7751 C   0  0  0  0  0  0  0  0  0  0  0  0
    6.1897   -2.3115    0.4463 C   0  0  0  0  0  0  0  0  0  0  0  0
    6.9681   -1.1708    0.2119 C   0  0  0  0  0  0  0  0  0  0  0  0
    6.4561    0.1683    0.2356 C   0  0  0  0  0  0  0  0  0  0  0  0
    7.6281    1.0446    0.1698 C   0  0  0  0  0  0  0  0  0  0  0  0
    7.8621    2.4142    0.3204 C   0  0  0  0  0  0  0  0  0  0  0  0
    9.1848    2.9094    0.2465 C   0  0  0  0  0  0  0  0  0  0  0  0
   10.2753    2.0652    0.0317 C   0  0  0  0  0  0  0  0  0  0  0  0
   10.0776    0.6773   -0.0805 C   0  0  0  0  0  0  0  0  0  0  0  0
    8.7696    0.1975    0.0067 C   0  0  0  0  0  0  0  0  0  0  0  0
    8.3399   -1.1209    0.0083 N   0  0  0  0  0  0  0  0  0  0  0  0
    9.2098   -2.2764   -0.1462 C   0  0  0  0  0  0  0  0  0  0  0  0
   10.0124   -2.6318    1.0973 C   0  0  0  0  0  0  0  0  0  0  0  0
   11.3657   -2.9767    0.9745 C   0  0  0  0  0  0  0  0  0  0  0  0
   12.1094   -3.3512    2.0975 C   0  0  0  0  0  0  0  0  0  0  0  0
   11.5079   -3.3754    3.3584 C   0  0  0  0  0  0  0  0  0  0  0  0
   10.1597   -3.0273    3.4893 C   0  0  0  0  0  0  0  0  0  0  0  0
    9.4143   -2.6600    2.3663 C   0  0  0  0  0  0  0  0  0  0  0  0
    5.0501    0.3770    0.3575 C   0  0  0  0  0  0  0  0  0  0  0  0
    4.2997    1.5769    0.1074 C   0  0  0  0  0  0  0  0  0  0  0  0
    4.7804    2.6854   -0.6453 C   0  0  0  0  0  0  0  0  0  0  0  0
    4.0128    3.8200   -0.8363 C   0  0  0  0  0  0  0  0  0  0  0  0
    2.7069    3.9158   -0.2856 C   0  0  0  0  0  0  0  0  0  0  0  0
    2.1806    2.8259    0.3906 C   0  0  0  0  0  0  0  0  0  0  0  0
    2.9334    1.6494    0.5695 C   0  0  0  0  0  0  0  0  0  0  0  0
    4.1801   -2.9102    1.0501 H   0  0  0  0  0  0  0  0  0  0  0  0
    6.6058   -3.3185    0.4379 H   0  0  0  0  0  0  0  0  0  0  0  0
    7.0428    3.1066    0.5043 H   0  0  0  0  0  0  0  0  0  0  0  0
    9.3500    3.9832    0.3634 H   0  0  0  0  0  0  0  0  0  0  0  0
   11.2856    2.4747   -0.0264 H   0  0  0  0  0  0  0  0  0  0  0  0
   10.9248    0.0003   -0.1975 H   0  0  0  0  0  0  0  0  0  0  0  0
    9.8945   -2.0773   -0.9851 H   0  0  0  0  0  0  0  0  0  0  0  0
    8.5757   -3.1210   -0.4534 H   0  0  0  0  0  0  0  0  0  0  0  0
   11.8447   -2.9554   -0.0090 H   0  0  0  0  0  0  0  0  0  0  0  0
   13.1630   -3.6190    1.9858 H   0  0  0  0  0  0  0  0  0  0  0  0
   12.0887   -3.6624    4.2384 H   0  0  0  0  0  0  0  0  0  0  0  0
    9.6830   -3.0419    4.4725 H   0  0  0  0  0  0  0  0  0  0  0  0
    8.3610   -2.3917    2.4812 H   0  0  0  0  0  0  0  0  0  0  0  0
    5.7548    2.6191   -1.1267 H   0  0  0  0  0  0  0  0  0  0  0  0
    4.4109    4.6431   -1.4358 H   0  0  0  0  0  0  0  0  0  0  0  0
    2.1127    4.8209   -0.4274 H   0  0  0  0  0  0  0  0  0  0  0  0
    1.1609    2.8408    0.7813 H   0  0  0  0  0  0  0  0  0  0  0  0
  1  2  2  0
  2  3  1  0
  2 29  1  0
  3  4  1  0
  4  5  2  0
  4 23  1  0
  5  6  1  0
  5 30  1  0
  6  7  2  0
  6 31  1  0
  7  8  1  0
  7 15  1  0
  8  9  1  0
  8 23  2  0
  9 10  2  0
  9 14  1  0
 10 11  1  0
 10 32  1  0
 11 12  2  0
 11 33  1  0
 12 13  1  0
 12 34  1  0
 13 14  2  0
 13 35  1  0
 14 15  1  0
 15 16  1  0
 16 17  1  0
 16 36  1  0
 16 37  1  0
 17 18  2  0
 17 22  1  0
 18 19  1  0
 18 38  1  0
 19 20  2  0
 19 39  1  0
 20 21  1  0
 20 40  1  0
 21 22  2  0
 21 41  1  0
 22 42  1  0
 23 24  1  0
 24 25  1  0
 24 29  2  0
 25 26  2  0
 25 43  1  0
 26 27  1  0
 26 44  1  0
 27 28  2  0
 27 45  1  0
 28 29  1  0
 28 46  1  0
M  END

