
     RDKit          3D

 36 38  0  0  0  0  0  0  0  0999 V2000
    1.8867   -0.0447    1.6989 O   0  0  0  0  0  0  0  0  0  0  0  0
    2.5117   -0.0167    0.5590 C   0  0  0  0  0  0  0  0  0  0  0  0
    2.8174    1.2565    0.0452 N   0  0  0  0  0  0  0  0  0  0  0  0
    2.2412    2.3585    0.5807 C   0  0  0  0  0  0  0  0  0  0  0  0
    2.3526    3.6908    0.0854 C   0  0  0  0  0  0  0  0  0  0  0  0
    1.6846    4.7002    0.7583 C   0  0  0  0  0  0  0  0  0  0  0  0
    0.9021    4.4262    1.8995 C   0  0  0  0  0  0  0  0  0  0  0  0
    0.8255    3.0906    2.3158 C   0  0  0  0  0  0  0  0  0  0  0  0
    1.4778    2.1495    1.6653 N   0  0  0  0  0  0  0  0  0  0  0  0
    3.4201   -1.1557    0.1946 C   0  0  1  0  0  0  0  0  0  0  0  0
    4.5561   -1.4564    1.2020 C   0  0  0  0  0  0  0  0  0  0  0  0
    4.8376   -2.9391    1.0223 C   0  0  0  0  0  0  0  0  0  0  0  0
    5.8507   -3.5184    1.3537 O   0  0  0  0  0  0  0  0  0  0  0  0
    3.7158   -3.5068    0.4159 N   0  0  0  0  0  0  0  0  0  0  0  0
    3.4966   -4.8815    0.1903 C   0  0  0  0  0  0  0  0  0  0  0  0
    4.5369   -5.8308    0.2818 C   0  0  0  0  0  0  0  0  0  0  0  0
    4.2698   -7.1768    0.0371 C   0  0  0  0  0  0  0  0  0  0  0  0
    2.9895   -7.6246   -0.3032 C   0  0  0  0  0  0  0  0  0  0  0  0
    1.9690   -6.6785   -0.3867 C   0  0  0  0  0  0  0  0  0  0  0  0
    0.1995   -7.2406   -0.8407 Br  0  0  0  0  0  0  0  0  0  0  0  0
    2.1999   -5.3238   -0.1434 C   0  0  0  0  0  0  0  0  0  0  0  0
    2.6795   -2.5089    0.1396 C   0  0  0  0  0  0  0  0  0  0  0  0
    3.3422    1.3364   -0.8168 H   0  0  0  0  0  0  0  0  0  0  0  0
    2.9537    3.8953   -0.8025 H   0  0  0  0  0  0  0  0  0  0  0  0
    1.7668    5.7271    0.3923 H   0  0  0  0  0  0  0  0  0  0  0  0
    0.3738    5.2082    2.4443 H   0  0  0  0  0  0  0  0  0  0  0  0
    0.2357    2.7744    3.1823 H   0  0  0  0  0  0  0  0  0  0  0  0
    3.8648   -0.9574   -0.7962 H   0  0  0  0  0  0  0  0  0  0  0  0
    4.1905   -1.2871    2.2298 H   0  0  0  0  0  0  0  0  0  0  0  0
    5.4737   -0.8684    1.0641 H   0  0  0  0  0  0  0  0  0  0  0  0
    5.5358   -5.5005    0.5527 H   0  0  0  0  0  0  0  0  0  0  0  0
    5.0862   -7.9000    0.1111 H   0  0  0  0  0  0  0  0  0  0  0  0
    2.7901   -8.6793   -0.4968 H   0  0  0  0  0  0  0  0  0  0  0  0
    1.3653   -4.6284   -0.2047 H   0  0  0  0  0  0  0  0  0  0  0  0
    1.8817   -2.5355    0.9024 H   0  0  0  0  0  0  0  0  0  0  0  0
    2.2189   -2.6830   -0.8440 H   0  0  0  0  0  0  0  0  0  0  0  0
  1  2  2  0
  2  3  1  0
  2 10  1  0
  3  4  1  0
  3 23  1  0
  4  5  2  0
  4  9  1  0
  5  6  1  0
  5 24  1  0
  6  7  2  0
  6 25  1  0
  7  8  1  0
  7 26  1  0
  8  9  2  0
  8 27  1  0
 10 11  1  0
 10 22  1  0
 10 28  1  6
 11 12  1  0
 11 29  1  0
 11 30  1  0
 12 13  2  0
 12 14  1  0
 14 15  1  0
 14 22  1  0
 15 16  2  0
 15 21  1  0
 16 17  1  0
 16 31  1  0
 17 18  2  0
 17 32  1  0
 18 19  1  0
 18 33  1  0
 19 20  1  0
 19 21  2  0
 21 34  1  0
 22 35  1  0
 22 36  1  0
M  END

