
     RDKit          3D

 41 44  0  0  0  0  0  0  0  0999 V2000
    1.4197    0.4316   -0.7906 C   0  0  0  0  0  0  0  0  0  0  0  0
    2.8131    0.2439   -0.1533 C   0  0  1  0  0  0  0  0  0  0  0  0
    3.8710    0.0118   -1.2711 C   0  0  0  0  0  0  0  0  0  0  0  0
    3.1991    1.4774    0.6161 C   0  0  0  0  0  0  0  0  0  0  0  0
    3.7280    1.4803    1.8547 C   0  0  0  0  0  0  0  0  0  0  0  0
    4.1246    2.6988    2.4682 N   0  0  0  0  0  0  0  0  0  0  0  0
    3.3711    3.3270    3.5545 C   0  0  0  0  0  0  0  0  0  0  0  0
    4.1274    4.6120    3.7874 C   0  0  0  0  0  0  0  0  0  0  0  0
    3.9263    5.6220    4.7278 C   0  0  0  0  0  0  0  0  0  0  0  0
    4.7923    6.7228    4.7115 C   0  0  0  0  0  0  0  0  0  0  0  0
    5.8352    6.8140    3.7752 C   0  0  0  0  0  0  0  0  0  0  0  0
    6.0332    5.8007    2.8337 C   0  0  0  0  0  0  0  0  0  0  0  0
    5.1675    4.7071    2.8592 C   0  0  0  0  0  0  0  0  0  0  0  0
    5.1601    3.5048    1.9784 C   0  0  0  0  0  0  0  0  0  0  0  0
    5.8783    3.2483    1.0366 O   0  0  0  0  0  0  0  0  0  0  0  0
    3.9526    0.2182    2.5850 C   0  0  0  0  0  0  0  0  0  0  0  0
    4.6284    0.1835    3.8142 C   0  0  0  0  0  0  0  0  0  0  0  0
    4.8108   -1.0295    4.4971 C   0  0  0  0  0  0  0  0  0  0  0  0
    5.5024   -1.0385    5.7573 C   0  0  0  0  0  0  0  0  0  0  0  0
    6.0564   -1.0454    6.7776 N   0  0  0  0  0  0  0  0  0  0  0  0
    4.3179   -2.2332    3.9544 C   0  0  0  0  0  0  0  0  0  0  0  0
    3.6632   -2.2055    2.7287 C   0  0  0  0  0  0  0  0  0  0  0  0
    3.4849   -0.9999    2.0353 C   0  0  0  0  0  0  0  0  0  0  0  0
    2.8045   -1.0335    0.7057 C   0  0  0  0  0  0  0  0  0  0  0  0
    2.3056   -2.0587    0.2817 O   0  0  0  0  0  0  0  0  0  0  0  0
    1.4337    1.2725   -1.5014 H   0  0  0  0  0  0  0  0  0  0  0  0
    0.6555    0.6400   -0.0255 H   0  0  0  0  0  0  0  0  0  0  0  0
    1.1290   -0.4833   -1.3249 H   0  0  0  0  0  0  0  0  0  0  0  0
    3.9077    0.8827   -1.9435 H   0  0  0  0  0  0  0  0  0  0  0  0
    3.6002   -0.8804   -1.8557 H   0  0  0  0  0  0  0  0  0  0  0  0
    4.8765   -0.1303   -0.8470 H   0  0  0  0  0  0  0  0  0  0  0  0
    3.0772    2.4328    0.0974 H   0  0  0  0  0  0  0  0  0  0  0  0
    3.3363    2.6907    4.4570 H   0  0  0  0  0  0  0  0  0  0  0  0
    2.3239    3.5131    3.2504 H   0  0  0  0  0  0  0  0  0  0  0  0
    3.1189    5.5637    5.4626 H   0  0  0  0  0  0  0  0  0  0  0  0
    4.6547    7.5249    5.4411 H   0  0  0  0  0  0  0  0  0  0  0  0
    6.4953    7.6848    3.7876 H   0  0  0  0  0  0  0  0  0  0  0  0
    6.8370    5.8461    2.0952 H   0  0  0  0  0  0  0  0  0  0  0  0
    5.0324    1.1026    4.2387 H   0  0  0  0  0  0  0  0  0  0  0  0
    4.4613   -3.1714    4.4930 H   0  0  0  0  0  0  0  0  0  0  0  0
    3.2789   -3.1190    2.2708 H   0  0  0  0  0  0  0  0  0  0  0  0
  2  1  1  6
  1 26  1  0
  1 27  1  0
  1 28  1  0
  2  3  1  0
  2  4  1  0
  2 24  1  0
  3 29  1  0
  3 30  1  0
  3 31  1  0
  4  5  2  0
  4 32  1  0
  5  6  1  0
  5 16  1  0
  6  7  1  0
  6 14  1  0
  7  8  1  0
  7 33  1  0
  7 34  1  0
  8  9  1  0
  8 13  2  0
  9 10  2  0
  9 35  1  0
 10 11  1  0
 10 36  1  0
 11 12  2  0
 11 37  1  0
 12 13  1  0
 12 38  1  0
 13 14  1  0
 14 15  2  0
 16 17  1  0
 16 23  2  0
 17 18  2  0
 17 39  1  0
 18 19  1  0
 18 21  1  0
 19 20  3  0
 21 22  2  0
 21 40  1  0
 22 23  1  0
 22 41  1  0
 23 24  1  0
 24 25  2  0
M  END

