
     RDKit          3D

 45 47  0  0  0  0  0  0  0  0999 V2000
    1.2362    0.7098    1.6230 C   0  0  0  0  0  0  0  0  0  0  0  0
    2.4888    1.0207    0.9589 N   0  0  0  0  0  0  0  0  0  0  0  0
    3.0620   -0.0510    0.1527 C   0  0  0  0  0  0  0  0  0  0  0  0
    2.4399   -0.1373   -1.2441 C   0  0  0  0  0  0  0  0  0  0  0  0
    2.5140    1.1249   -1.8995 O   0  0  0  0  0  0  0  0  0  0  0  0
    1.8938    2.1750   -1.1679 C   0  0  2  0  0  0  0  0  0  0  0  0
    2.0138    3.4991   -1.9243 C   0  0  0  0  0  0  0  0  0  0  0  0
    1.5382    4.5151   -1.4513 O   0  0  0  0  0  0  0  0  0  0  0  0
    2.6994    3.3968   -3.1161 N   0  0  0  0  0  0  0  0  0  0  0  0
    3.0281    4.3575   -4.0607 C   0  0  0  0  0  0  0  0  0  0  0  0
    2.6748    5.7254   -3.9169 C   0  0  0  0  0  0  0  0  0  0  0  0
    3.0660    6.6498   -4.9365 C   0  0  0  0  0  0  0  0  0  0  0  0
    3.7873    6.1764   -6.0578 C   0  0  0  0  0  0  0  0  0  0  0  0
    4.2029    7.0014   -7.0946 N   0  0  0  0  0  0  0  0  0  0  0  0
    4.0516    8.3865   -7.2635 C   0  0  0  0  0  0  0  0  0  0  0  0
    3.5807    9.1359   -6.4355 O   0  0  0  0  0  0  0  0  0  0  0  0
    4.5356    8.8127   -8.4905 N   0  0  0  0  0  0  0  0  0  0  0  0
    4.3889   10.1823   -8.8863 C   0  0  1  0  0  0  0  0  0  0  0  0
    5.3325   11.2064   -8.3181 C   0  0  0  0  0  0  0  0  0  0  0  0
    5.4660   10.7779   -9.7562 C   0  0  0  0  0  0  0  0  0  0  0  0
    4.1370    4.7956   -6.2091 C   0  0  0  0  0  0  0  0  0  0  0  0
    3.7530    3.8787   -5.1923 C   0  0  0  0  0  0  0  0  0  0  0  0
    2.5213    2.2839    0.2376 C   0  0  0  0  0  0  0  0  0  0  0  0
    1.3624   -0.1925    2.2432 H   0  0  0  0  0  0  0  0  0  0  0  0
    0.3669    0.5300    0.9522 H   0  0  0  0  0  0  0  0  0  0  0  0
    0.9622    1.5384    2.2952 H   0  0  0  0  0  0  0  0  0  0  0  0
    2.9512   -1.0129    0.6797 H   0  0  0  0  0  0  0  0  0  0  0  0
    4.1449    0.1391    0.0369 H   0  0  0  0  0  0  0  0  0  0  0  0
    1.3821   -0.4633   -1.1877 H   0  0  0  0  0  0  0  0  0  0  0  0
    2.9819   -0.8539   -1.8801 H   0  0  0  0  0  0  0  0  0  0  0  0
    0.8080    1.9705   -1.0687 H   0  0  0  0  0  0  0  0  0  0  0  0
    3.0044    2.4443   -3.3130 H   0  0  0  0  0  0  0  0  0  0  0  0
    2.1222    6.0538   -3.0425 H   0  0  0  0  0  0  0  0  0  0  0  0
    2.8318    7.7064   -4.8527 H   0  0  0  0  0  0  0  0  0  0  0  0
    4.7319    6.5207   -7.8154 H   0  0  0  0  0  0  0  0  0  0  0  0
    4.6184    8.1325   -9.2394 H   0  0  0  0  0  0  0  0  0  0  0  0
    3.3568   10.5129   -9.0613 H   0  0  0  0  0  0  0  0  0  0  0  0
    6.0806   10.8494   -7.6065 H   0  0  0  0  0  0  0  0  0  0  0  0
    4.9264   12.1961   -8.0950 H   0  0  0  0  0  0  0  0  0  0  0  0
    6.3131   10.1366  -10.0168 H   0  0  0  0  0  0  0  0  0  0  0  0
    5.1593   11.4677  -10.5470 H   0  0  0  0  0  0  0  0  0  0  0  0
    4.6834    4.4585   -7.0924 H   0  0  0  0  0  0  0  0  0  0  0  0
    4.0058    2.8194   -5.2689 H   0  0  0  0  0  0  0  0  0  0  0  0
    2.0051    3.0693    0.8078 H   0  0  0  0  0  0  0  0  0  0  0  0
    3.5741    2.5957    0.1118 H   0  0  0  0  0  0  0  0  0  0  0  0
  1  2  1  0
  1 24  1  0
  1 25  1  0
  1 26  1  0
  2  3  1  0
  2 23  1  0
  3  4  1  0
  3 27  1  0
  3 28  1  0
  4  5  1  0
  4 29  1  0
  4 30  1  0
  5  6  1  0
  6  7  1  0
  6 23  1  0
  6 31  1  1
  7  8  2  0
  7  9  1  0
  9 10  1  0
  9 32  1  0
 10 11  2  0
 10 22  1  0
 11 12  1  0
 11 33  1  0
 12 13  2  0
 12 34  1  0
 13 14  1  0
 13 21  1  0
 14 15  1  0
 14 35  1  0
 15 16  2  0
 15 17  1  0
 17 18  1  0
 17 36  1  0
 18 19  1  0
 18 20  1  0
 18 37  1  6
 19 20  1  0
 19 38  1  0
 19 39  1  0
 20 40  1  0
 20 41  1  0
 21 22  2  0
 21 42  1  0
 22 43  1  0
 23 44  1  0
 23 45  1  0
M  END

