
     RDKit          3D

 60 62  0  0  0  0  0  0  0  0999 V2000
    6.2965    5.0830    1.3842 C   0  0  0  0  0  0  0  0  0  0  0  0
    6.5170    3.7183    1.0261 O   0  0  0  0  0  0  0  0  0  0  0  0
    7.1886    2.9669    1.9189 C   0  0  0  0  0  0  0  0  0  0  0  0
    7.5853    3.3903    2.9773 O   0  0  0  0  0  0  0  0  0  0  0  0
    7.3840    1.5534    1.4088 C   0  0  0  0  0  0  0  0  0  0  0  0
    7.9601    0.6073    2.4720 C   0  0  0  0  0  0  0  0  0  0  0  0
    8.2073   -0.7860    1.9695 C   0  0  0  0  0  0  0  0  0  0  0  0
    7.2699   -1.8652    1.9210 C   0  0  0  0  0  0  0  0  0  0  0  0
    5.8375   -1.8620    2.3578 C   0  0  0  0  0  0  0  0  0  0  0  0
    7.8252   -2.9585    1.4255 N   0  0  0  0  0  0  0  0  0  0  0  0
    9.1064   -2.6264    1.1273 N   0  0  0  0  0  0  0  0  0  0  0  0
    9.9526   -3.6322    0.6070 C   0  0  0  0  0  0  0  0  0  0  0  0
   10.9784   -3.3363   -0.3069 C   0  0  0  0  0  0  0  0  0  0  0  0
   11.7909   -4.3557   -0.7958 C   0  0  0  0  0  0  0  0  0  0  0  0
   11.5858   -5.6871   -0.4044 C   0  0  0  0  0  0  0  0  0  0  0  0
   12.4885   -6.7283   -0.9668 C   0  0  0  0  0  0  0  0  0  0  0  0
   13.4534   -6.5013   -1.6568 O   0  0  0  0  0  0  0  0  0  0  0  0
   12.1022   -7.9863   -0.6234 O   0  0  0  0  0  0  0  0  0  0  0  0
   12.9161   -9.0913   -1.0672 C   0  0  1  0  0  0  0  0  0  0  0  0
   13.9519   -9.4546   -0.0123 C   0  0  0  0  0  0  0  0  0  0  0  0
   12.0177  -10.2905   -1.4197 C   0  0  0  0  0  0  0  0  0  0  0  0
   12.5302  -11.3717   -1.6494 O   0  0  0  0  0  0  0  0  0  0  0  0
   10.6808  -10.0139   -1.4719 N   0  0  0  0  0  0  0  0  0  0  0  0
    9.6076  -10.8687   -1.7911 C   0  0  0  0  0  0  0  0  0  0  0  0
    9.7768  -12.2202   -2.1415 C   0  0  0  0  0  0  0  0  0  0  0  0
    8.6548  -12.9967   -2.4426 C   0  0  0  0  0  0  0  0  0  0  0  0
    7.3666  -12.4566   -2.4027 C   0  0  0  0  0  0  0  0  0  0  0  0
    7.2018  -11.1122   -2.0547 C   0  0  0  0  0  0  0  0  0  0  0  0
    8.3108  -10.3237   -1.7513 C   0  0  0  0  0  0  0  0  0  0  0  0
   10.5464   -5.9798    0.4960 C   0  0  0  0  0  0  0  0  0  0  0  0
    9.7380   -4.9661    0.9984 C   0  0  0  0  0  0  0  0  0  0  0  0
    9.3841   -1.3111    1.4545 C   0  0  0  0  0  0  0  0  0  0  0  0
   10.7276   -0.6629    1.3389 C   0  0  0  0  0  0  0  0  0  0  0  0
    5.7427    5.5330    0.5510 H   0  0  0  0  0  0  0  0  0  0  0  0
    7.2519    5.6086    1.5349 H   0  0  0  0  0  0  0  0  0  0  0  0
    5.7117    5.1551    2.3138 H   0  0  0  0  0  0  0  0  0  0  0  0
    8.0496    1.6088    0.5295 H   0  0  0  0  0  0  0  0  0  0  0  0
    6.4201    1.1906    1.0162 H   0  0  0  0  0  0  0  0  0  0  0  0
    7.2684    0.5767    3.3295 H   0  0  0  0  0  0  0  0  0  0  0  0
    8.8887    1.0496    2.8651 H   0  0  0  0  0  0  0  0  0  0  0  0
    5.7391   -1.5602    3.4140 H   0  0  0  0  0  0  0  0  0  0  0  0
    5.4112   -2.8680    2.2430 H   0  0  0  0  0  0  0  0  0  0  0  0
    5.2301   -1.1602    1.7620 H   0  0  0  0  0  0  0  0  0  0  0  0
   11.1253   -2.3178   -0.6619 H   0  0  0  0  0  0  0  0  0  0  0  0
   12.5897   -4.1361   -1.5065 H   0  0  0  0  0  0  0  0  0  0  0  0
   13.4260   -8.7862   -1.9950 H   0  0  0  0  0  0  0  0  0  0  0  0
   13.4654   -9.6730    0.9509 H   0  0  0  0  0  0  0  0  0  0  0  0
   14.6635   -8.6273    0.1221 H   0  0  0  0  0  0  0  0  0  0  0  0
   14.4974  -10.3496   -0.3409 H   0  0  0  0  0  0  0  0  0  0  0  0
   10.4363   -9.0597   -1.2299 H   0  0  0  0  0  0  0  0  0  0  0  0
   10.7793  -12.6407   -2.1718 H   0  0  0  0  0  0  0  0  0  0  0  0
    8.7973  -14.0462   -2.7135 H   0  0  0  0  0  0  0  0  0  0  0  0
    6.4986  -13.0760   -2.6405 H   0  0  0  0  0  0  0  0  0  0  0  0
    6.2027  -10.6704   -2.0185 H   0  0  0  0  0  0  0  0  0  0  0  0
    8.1748   -9.2722   -1.4805 H   0  0  0  0  0  0  0  0  0  0  0  0
   10.3855   -7.0095    0.8181 H   0  0  0  0  0  0  0  0  0  0  0  0
    8.9285   -5.1820    1.6946 H   0  0  0  0  0  0  0  0  0  0  0  0
   11.5410   -1.3462    1.6260 H   0  0  0  0  0  0  0  0  0  0  0  0
   10.7693    0.2097    2.0063 H   0  0  0  0  0  0  0  0  0  0  0  0
   10.9430   -0.3005    0.3194 H   0  0  0  0  0  0  0  0  0  0  0  0
  1  2  1  0
  1 34  1  0
  1 35  1  0
  1 36  1  0
  2  3  1  0
  3  4  2  0
  3  5  1  0
  5  6  1  0
  5 37  1  0
  5 38  1  0
  6  7  1  0
  6 39  1  0
  6 40  1  0
  7  8  1  0
  7 32  2  0
  8  9  1  0
  8 10  2  0
  9 41  1  0
  9 42  1  0
  9 43  1  0
 10 11  1  0
 11 12  1  0
 11 32  1  0
 12 13  2  0
 12 31  1  0
 13 14  1  0
 13 44  1  0
 14 15  2  0
 14 45  1  0
 15 16  1  0
 15 30  1  0
 16 17  2  0
 16 18  1  0
 18 19  1  0
 19 20  1  0
 19 21  1  0
 19 46  1  6
 20 47  1  0
 20 48  1  0
 20 49  1  0
 21 22  2  0
 21 23  1  0
 23 24  1  0
 23 50  1  0
 24 25  2  0
 24 29  1  0
 25 26  1  0
 25 51  1  0
 26 27  2  0
 26 52  1  0
 27 28  1  0
 27 53  1  0
 28 29  2  0
 28 54  1  0
 29 55  1  0
 30 31  2  0
 30 56  1  0
 31 57  1  0
 32 33  1  0
 33 58  1  0
 33 59  1  0
 33 60  1  0
M  END

