
     RDKit          3D

 61 61  0  0  0  0  0  0  0  0999 V2000
    0.8552   -1.2693    1.3042 C   0  0  0  0  0  0  0  0  0  0  0  0
    2.3788   -1.1908    1.1968 C   0  0  0  0  0  0  0  0  0  0  0  0
    2.9533   -1.9967    0.0275 C   0  0  0  0  0  0  0  0  0  0  0  0
    4.4787   -1.9242   -0.0875 C   0  0  0  0  0  0  0  0  0  0  0  0
    5.0509   -2.7297   -1.2577 C   0  0  0  0  0  0  0  0  0  0  0  0
    6.5766   -2.6621   -1.3692 C   0  0  0  0  0  0  0  0  0  0  0  0
    7.1440   -3.4753   -2.5495 C   0  0  0  0  0  0  0  0  0  0  0  0
    8.6576   -3.4406   -2.6659 C   0  0  0  0  0  0  0  0  0  0  0  0
    9.4153   -4.3110   -1.8621 C   0  0  0  0  0  0  0  0  0  0  0  0
    8.8122   -5.1871   -0.9982 O   0  0  0  0  0  0  0  0  0  0  0  0
   10.8201   -4.3322   -1.8922 C   0  0  0  0  0  0  0  0  0  0  0  0
   11.5316   -5.3136   -0.9788 C   0  0  0  0  0  0  0  0  0  0  0  0
   11.7015   -4.8016    0.4608 C   0  0  0  0  0  0  0  0  0  0  0  0
   11.4916   -3.4227   -2.7359 C   0  0  0  0  0  0  0  0  0  0  0  0
   13.0135   -3.4151   -2.7580 C   0  0  0  0  0  0  0  0  0  0  0  0
   13.6251   -4.3396   -3.8232 C   0  0  0  0  0  0  0  0  0  0  0  0
   10.7526   -2.5434   -3.5656 C   0  0  0  0  0  0  0  0  0  0  0  0
   11.4590   -1.5696   -4.4924 C   0  0  0  0  0  0  0  0  0  0  0  0
    9.3388   -2.5415   -3.5145 C   0  0  0  0  0  0  0  0  0  0  0  0
    8.5457   -1.5801   -4.3858 C   0  0  0  0  0  0  0  0  0  0  0  0
    8.1616   -2.1464   -5.7662 C   0  0  0  0  0  0  0  0  0  0  0  0
    7.3689   -1.1615   -6.6313 C   0  0  0  0  0  0  0  0  0  0  0  0
    6.9826   -1.7240   -8.0000 C   0  0  0  0  0  0  0  0  0  0  0  0
    0.4775   -0.6791    2.1545 H   0  0  0  0  0  0  0  0  0  0  0  0
    0.5162   -2.3095    1.4450 H   0  0  0  0  0  0  0  0  0  0  0  0
    0.3684   -0.8863    0.3914 H   0  0  0  0  0  0  0  0  0  0  0  0
    2.8341   -1.5454    2.1395 H   0  0  0  0  0  0  0  0  0  0  0  0
    2.6878   -0.1344    1.0953 H   0  0  0  0  0  0  0  0  0  0  0  0
    2.4987   -1.6424   -0.9168 H   0  0  0  0  0  0  0  0  0  0  0  0
    2.6449   -3.0544    0.1278 H   0  0  0  0  0  0  0  0  0  0  0  0
    4.9337   -2.2793    0.8559 H   0  0  0  0  0  0  0  0  0  0  0  0
    4.7875   -0.8670   -0.1875 H   0  0  0  0  0  0  0  0  0  0  0  0
    4.5999   -2.3730   -2.2025 H   0  0  0  0  0  0  0  0  0  0  0  0
    4.7374   -3.7864   -1.1606 H   0  0  0  0  0  0  0  0  0  0  0  0
    7.0341   -3.0158   -0.4279 H   0  0  0  0  0  0  0  0  0  0  0  0
    6.8970   -1.6108   -1.4744 H   0  0  0  0  0  0  0  0  0  0  0  0
    6.6777   -3.1272   -3.4819 H   0  0  0  0  0  0  0  0  0  0  0  0
    6.7962   -4.5245   -2.4614 H   0  0  0  0  0  0  0  0  0  0  0  0
    7.8566   -5.1597   -1.1280 H   0  0  0  0  0  0  0  0  0  0  0  0
   12.5151   -5.5797   -1.3920 H   0  0  0  0  0  0  0  0  0  0  0  0
   10.9482   -6.2466   -0.9509 H   0  0  0  0  0  0  0  0  0  0  0  0
   12.2989   -3.8758    0.4926 H   0  0  0  0  0  0  0  0  0  0  0  0
   12.2070   -5.5521    1.0909 H   0  0  0  0  0  0  0  0  0  0  0  0
   10.7221   -4.5844    0.9132 H   0  0  0  0  0  0  0  0  0  0  0  0
   13.3992   -3.7054   -1.7700 H   0  0  0  0  0  0  0  0  0  0  0  0
   13.3806   -2.3898   -2.9150 H   0  0  0  0  0  0  0  0  0  0  0  0
   13.3151   -5.3853   -3.6685 H   0  0  0  0  0  0  0  0  0  0  0  0
   14.7267   -4.3050   -3.7957 H   0  0  0  0  0  0  0  0  0  0  0  0
   13.3031   -4.0542   -4.8375 H   0  0  0  0  0  0  0  0  0  0  0  0
   12.5129   -1.8248   -4.6493 H   0  0  0  0  0  0  0  0  0  0  0  0
   11.4326   -0.5368   -4.0998 H   0  0  0  0  0  0  0  0  0  0  0  0
   10.9937   -1.5408   -5.4885 H   0  0  0  0  0  0  0  0  0  0  0  0
    9.1148   -0.6496   -4.5329 H   0  0  0  0  0  0  0  0  0  0  0  0
    7.6260   -1.2707   -3.8648 H   0  0  0  0  0  0  0  0  0  0  0  0
    7.5755   -3.0732   -5.6314 H   0  0  0  0  0  0  0  0  0  0  0  0
    9.0754   -2.4562   -6.3036 H   0  0  0  0  0  0  0  0  0  0  0  0
    7.9610   -0.2377   -6.7649 H   0  0  0  0  0  0  0  0  0  0  0  0
    6.4568   -0.8537   -6.0875 H   0  0  0  0  0  0  0  0  0  0  0  0
    7.8749   -2.0056   -8.5840 H   0  0  0  0  0  0  0  0  0  0  0  0
    6.4143   -0.9908   -8.5944 H   0  0  0  0  0  0  0  0  0  0  0  0
    6.3578   -2.6275   -7.9001 H   0  0  0  0  0  0  0  0  0  0  0  0
  1  2  1  0
  1 24  1  0
  1 25  1  0
  1 26  1  0
  2  3  1  0
  2 27  1  0
  2 28  1  0
  3  4  1  0
  3 29  1  0
  3 30  1  0
  4  5  1  0
  4 31  1  0
  4 32  1  0
  5  6  1  0
  5 33  1  0
  5 34  1  0
  6  7  1  0
  6 35  1  0
  6 36  1  0
  7  8  1  0
  7 37  1  0
  7 38  1  0
  8  9  2  0
  8 19  1  0
  9 10  1  0
  9 11  1  0
 10 39  1  0
 11 12  1  0
 11 14  2  0
 12 13  1  0
 12 40  1  0
 12 41  1  0
 13 42  1  0
 13 43  1  0
 13 44  1  0
 14 15  1  0
 14 17  1  0
 15 16  1  0
 15 45  1  0
 15 46  1  0
 16 47  1  0
 16 48  1  0
 16 49  1  0
 17 18  1  0
 17 19  2  0
 18 50  1  0
 18 51  1  0
 18 52  1  0
 19 20  1  0
 20 21  1  0
 20 53  1  0
 20 54  1  0
 21 22  1  0
 21 55  1  0
 21 56  1  0
 22 23  1  0
 22 57  1  0
 22 58  1  0
 23 59  1  0
 23 60  1  0
 23 61  1  0
M  END

