
     RDKit          3D

 40 40  0  0  0  0  0  0  0  0999 V2000
    3.9038   -2.2760   -2.9027 C   0  0  0  0  0  0  0  0  0  0  0  0
    3.6136   -1.5840   -1.5859 C   0  0  0  0  0  0  0  0  0  0  0  0
    4.3012   -2.2629   -0.5404 O   0  0  0  0  0  0  0  0  0  0  0  0
    4.0016   -1.8002    0.7455 C   0  0  0  0  0  0  0  0  0  0  0  0
    4.8438   -2.5380    1.7743 C   0  0  0  0  0  0  0  0  0  0  0  0
    6.2728   -2.2879    1.7757 N   0  0  0  0  0  0  0  0  0  0  0  0
    6.8903   -1.1985    1.0374 C   0  0  0  0  0  0  0  0  0  0  0  0
    6.9630    0.1029    1.8594 C   0  0  0  0  0  0  0  0  0  0  0  0
    7.0885   -3.0362    2.7112 C   0  0  0  0  0  0  0  0  0  0  0  0
    7.0150   -2.6420    4.0442 C   0  0  0  0  0  0  0  0  0  0  0  0
    7.8360   -3.2340    5.0093 C   0  0  0  0  0  0  0  0  0  0  0  0
    8.7460   -4.2168    4.5848 C   0  0  0  0  0  0  0  0  0  0  0  0
    8.8216   -4.5980    3.2544 C   0  0  0  0  0  0  0  0  0  0  0  0
    9.9819   -5.8443    2.8421 Cl  0  0  0  0  0  0  0  0  0  0  0  0
    7.9954   -4.0455    2.2083 C   0  0  0  0  0  0  0  0  0  0  0  0
    8.1027   -4.4644    0.8552 C   0  0  0  0  0  0  0  0  0  0  0  0
    7.2054   -4.2757   -0.1997 C   0  0  0  0  0  0  0  0  0  0  0  0
    7.5736   -4.6090   -1.5640 C   0  0  0  0  0  0  0  0  0  0  0  0
    8.6658   -4.9718   -1.9527 O   0  0  0  0  0  0  0  0  0  0  0  0
    6.5488   -4.4885   -2.4891 O   0  0  0  0  0  0  0  0  0  0  0  0
    3.4554   -1.7124   -3.7351 H   0  0  0  0  0  0  0  0  0  0  0  0
    3.4796   -3.2922   -2.9128 H   0  0  0  0  0  0  0  0  0  0  0  0
    4.9871   -2.3561   -3.0770 H   0  0  0  0  0  0  0  0  0  0  0  0
    2.5256   -1.5803   -1.3735 H   0  0  0  0  0  0  0  0  0  0  0  0
    3.9410   -0.5245   -1.6144 H   0  0  0  0  0  0  0  0  0  0  0  0
    2.9389   -1.9876    1.0030 H   0  0  0  0  0  0  0  0  0  0  0  0
    4.1506   -0.7038    0.8270 H   0  0  0  0  0  0  0  0  0  0  0  0
    4.7148   -3.6286    1.6800 H   0  0  0  0  0  0  0  0  0  0  0  0
    4.4775   -2.2912    2.7897 H   0  0  0  0  0  0  0  0  0  0  0  0
    6.3333   -1.0551    0.1043 H   0  0  0  0  0  0  0  0  0  0  0  0
    7.9029   -1.5384    0.7851 H   0  0  0  0  0  0  0  0  0  0  0  0
    5.9639    0.4737    2.1349 H   0  0  0  0  0  0  0  0  0  0  0  0
    7.4544    0.8679    1.2411 H   0  0  0  0  0  0  0  0  0  0  0  0
    7.5560   -0.0379    2.7730 H   0  0  0  0  0  0  0  0  0  0  0  0
    6.3130   -1.8562    4.3360 H   0  0  0  0  0  0  0  0  0  0  0  0
    7.7619   -2.9497    6.0592 H   0  0  0  0  0  0  0  0  0  0  0  0
    9.4045   -4.7078    5.3037 H   0  0  0  0  0  0  0  0  0  0  0  0
    9.0125   -5.0085    0.5953 H   0  0  0  0  0  0  0  0  0  0  0  0
    6.1870   -3.9234   -0.0475 H   0  0  0  0  0  0  0  0  0  0  0  0
    5.7283   -4.3036   -2.0137 H   0  0  0  0  0  0  0  0  0  0  0  0
  1  2  1  0
  1 21  1  0
  1 22  1  0
  1 23  1  0
  2  3  1  0
  2 24  1  0
  2 25  1  0
  3  4  1  0
  4  5  1  0
  4 26  1  0
  4 27  1  0
  5  6  1  0
  5 28  1  0
  5 29  1  0
  6  7  1  0
  6  9  1  0
  7  8  1  0
  7 30  1  0
  7 31  1  0
  8 32  1  0
  8 33  1  0
  8 34  1  0
  9 10  2  0
  9 15  1  0
 10 11  1  0
 10 35  1  0
 11 12  2  0
 11 36  1  0
 12 13  1  0
 12 37  1  0
 13 14  1  0
 13 15  2  0
 15 16  1  0
 16 17  2  0
 16 38  1  0
 17 18  1  0
 17 39  1  0
 18 19  2  0
 18 20  1  0
 20 40  1  0
M  END

