
     RDKit          3D

 44 45  0  0  0  0  0  0  0  0999 V2000
   -0.7509    1.8721   -2.1610 C   0  0  0  0  0  0  0  0  0  0  0  0
    0.3940    2.8915   -2.0613 C   0  0  0  0  0  0  0  0  0  0  0  0
    1.7537    2.2862   -2.2500 C   0  0  0  0  0  0  0  0  0  0  0  0
    2.5159    1.9452   -1.2126 N   0  0  0  0  0  0  0  0  0  0  0  0
    3.6387    1.4044   -1.7177 N   0  0  0  0  0  0  0  0  0  0  0  0
    4.6864    0.9598   -0.8166 C   0  0  0  0  0  0  0  0  0  0  0  0
    3.6436    1.3834   -3.0800 C   0  0  0  0  0  0  0  0  0  0  0  0
    4.7531    0.8547   -3.9320 C   0  0  0  0  0  0  0  0  0  0  0  0
    4.7819   -0.6848   -4.0535 C   0  0  0  0  0  0  0  0  0  0  0  0
    4.6070   -1.3636   -3.0630 O   0  0  0  0  0  0  0  0  0  0  0  0
    4.9397   -1.3103   -5.4613 C   0  0  1  0  0  0  0  0  0  0  0  0
    3.6617   -1.0948   -6.1545 N   0  0  0  0  0  0  0  0  0  0  0  0
    6.0716   -0.6699   -6.2870 C   0  0  0  0  0  0  0  0  0  0  0  0
    7.4658   -1.0109   -5.7500 C   0  0  0  0  0  0  0  0  0  0  0  0
    7.6741   -2.5262   -5.6579 C   0  0  0  0  0  0  0  0  0  0  0  0
    6.5774   -3.2090   -4.8247 C   0  0  2  0  0  0  0  0  0  0  0  0
    6.7545   -4.7293   -4.7846 C   0  0  0  0  0  0  0  0  0  0  0  0
    5.1831   -2.8266   -5.3495 C   0  0  0  0  0  0  0  0  0  0  0  0
    2.4262    1.9474   -3.4512 C   0  0  0  0  0  0  0  0  0  0  0  0
    1.8144    2.2231   -5.2189 Br  0  0  0  0  0  0  0  0  0  0  0  0
   -1.7261    2.3609   -2.0049 H   0  0  0  0  0  0  0  0  0  0  0  0
   -0.6389    1.0829   -1.4011 H   0  0  0  0  0  0  0  0  0  0  0  0
   -0.7711    1.3878   -3.1501 H   0  0  0  0  0  0  0  0  0  0  0  0
    0.3782    3.3737   -1.0716 H   0  0  0  0  0  0  0  0  0  0  0  0
    0.2466    3.6866   -2.8114 H   0  0  0  0  0  0  0  0  0  0  0  0
    4.2717    0.9961    0.1976 H   0  0  0  0  0  0  0  0  0  0  0  0
    5.5642    1.6260   -0.8669 H   0  0  0  0  0  0  0  0  0  0  0  0
    4.9822   -0.0674   -1.0661 H   0  0  0  0  0  0  0  0  0  0  0  0
    5.7331    1.1374   -3.5071 H   0  0  0  0  0  0  0  0  0  0  0  0
    4.6945    1.3374   -4.9156 H   0  0  0  0  0  0  0  0  0  0  0  0
    3.4349   -0.1060   -6.2672 H   0  0  0  0  0  0  0  0  0  0  0  0
    2.8897   -1.5247   -5.6437 H   0  0  0  0  0  0  0  0  0  0  0  0
    5.9374    0.4221   -6.3567 H   0  0  0  0  0  0  0  0  0  0  0  0
    5.9588   -1.0544   -7.3150 H   0  0  0  0  0  0  0  0  0  0  0  0
    7.6072   -0.5597   -4.7499 H   0  0  0  0  0  0  0  0  0  0  0  0
    8.2330   -0.5556   -6.3979 H   0  0  0  0  0  0  0  0  0  0  0  0
    8.6665   -2.7501   -5.2305 H   0  0  0  0  0  0  0  0  0  0  0  0
    7.6713   -2.9550   -6.6780 H   0  0  0  0  0  0  0  0  0  0  0  0
    6.6577   -2.8345   -3.7886 H   0  0  0  0  0  0  0  0  0  0  0  0
    6.6758   -5.1660   -5.7951 H   0  0  0  0  0  0  0  0  0  0  0  0
    5.9859   -5.2057   -4.1548 H   0  0  0  0  0  0  0  0  0  0  0  0
    7.7407   -5.0066   -4.3778 H   0  0  0  0  0  0  0  0  0  0  0  0
    4.4117   -3.2677   -4.6987 H   0  0  0  0  0  0  0  0  0  0  0  0
    5.0367   -3.2459   -6.3598 H   0  0  0  0  0  0  0  0  0  0  0  0
  1  2  1  0
  1 21  1  0
  1 22  1  0
  1 23  1  0
  2  3  1  0
  2 24  1  0
  2 25  1  0
  3  4  2  0
  3 19  1  0
  4  5  1  0
  5  6  1  0
  5  7  1  0
  6 26  1  0
  6 27  1  0
  6 28  1  0
  7  8  1  0
  7 19  2  0
  8  9  1  0
  8 29  1  0
  8 30  1  0
  9 10  2  0
 11  9  1  1
 11 12  1  0
 11 13  1  0
 11 18  1  0
 12 31  1  0
 12 32  1  0
 13 14  1  0
 13 33  1  0
 13 34  1  0
 14 15  1  0
 14 35  1  0
 14 36  1  0
 15 16  1  0
 15 37  1  0
 15 38  1  0
 16 17  1  0
 16 18  1  0
 16 39  1  1
 17 40  1  0
 17 41  1  0
 17 42  1  0
 18 43  1  0
 18 44  1  0
 19 20  1  0
M  END

