
     RDKit          3D

 38 39  0  0  0  0  0  0  0  0999 V2000
    3.6770   -0.0531    3.0277 O   0  0  0  0  0  0  0  0  0  0  0  0
    2.8100   -0.7890    2.6281 C   0  0  0  0  0  0  0  0  0  0  0  0
    1.7780   -1.1536    3.4357 O   0  0  0  0  0  0  0  0  0  0  0  0
    2.7603   -1.3028    1.3527 N   0  0  0  0  0  0  0  0  0  0  0  0
    3.8363   -1.0400    0.4071 C   0  0  0  0  0  0  0  0  0  0  0  0
    5.0873   -1.9261    0.5931 C   0  0  1  0  0  0  0  0  0  0  0  0
    4.8053   -3.4335    0.4195 C   0  0  0  0  0  0  0  0  0  0  0  0
    4.6356   -3.8385   -1.0566 C   0  0  0  0  0  0  0  0  0  0  0  0
    5.7503   -3.4270   -1.9093 N   0  0  0  0  0  0  0  0  0  0  0  0
    6.9302   -4.2779   -1.8345 C   0  0  0  0  0  0  0  0  0  0  0  0
    6.7296   -5.6446   -2.4704 C   0  0  0  0  0  0  0  0  0  0  0  0
    6.0074   -5.7790   -3.6668 C   0  0  0  0  0  0  0  0  0  0  0  0
    5.8676   -7.0265   -4.2787 C   0  0  0  0  0  0  0  0  0  0  0  0
    6.4487   -8.1629   -3.7046 C   0  0  0  0  0  0  0  0  0  0  0  0
    7.1662   -8.0412   -2.5119 C   0  0  0  0  0  0  0  0  0  0  0  0
    7.3008   -6.7906   -1.8995 C   0  0  0  0  0  0  0  0  0  0  0  0
    5.9970   -1.9916   -1.8025 C   0  0  0  0  0  0  0  0  0  0  0  0
    6.2237   -1.4998   -0.3609 C   0  0  0  0  0  0  0  0  0  0  0  0
    1.0904   -1.6248    2.9458 H   0  0  0  0  0  0  0  0  0  0  0  0
    2.1207   -2.0589    1.1415 H   0  0  0  0  0  0  0  0  0  0  0  0
    4.1309    0.0114    0.5395 H   0  0  0  0  0  0  0  0  0  0  0  0
    3.4174   -1.1352   -0.6070 H   0  0  0  0  0  0  0  0  0  0  0  0
    5.4212   -1.7470    1.6283 H   0  0  0  0  0  0  0  0  0  0  0  0
    3.9123   -3.7306    0.9968 H   0  0  0  0  0  0  0  0  0  0  0  0
    5.6419   -4.0028    0.8597 H   0  0  0  0  0  0  0  0  0  0  0  0
    3.7123   -3.3863   -1.4654 H   0  0  0  0  0  0  0  0  0  0  0  0
    4.5045   -4.9283   -1.1427 H   0  0  0  0  0  0  0  0  0  0  0  0
    7.3168   -4.4253   -0.8025 H   0  0  0  0  0  0  0  0  0  0  0  0
    7.7379   -3.7579   -2.3802 H   0  0  0  0  0  0  0  0  0  0  0  0
    5.5482   -4.8887   -4.1026 H   0  0  0  0  0  0  0  0  0  0  0  0
    5.3021   -7.1142   -5.2105 H   0  0  0  0  0  0  0  0  0  0  0  0
    6.3387   -9.1394   -4.1835 H   0  0  0  0  0  0  0  0  0  0  0  0
    7.6186   -8.9236   -2.0513 H   0  0  0  0  0  0  0  0  0  0  0  0
    7.8589   -6.7036   -0.9621 H   0  0  0  0  0  0  0  0  0  0  0  0
    5.1287   -1.4660   -2.2418 H   0  0  0  0  0  0  0  0  0  0  0  0
    6.8618   -1.7318   -2.4343 H   0  0  0  0  0  0  0  0  0  0  0  0
    6.3401   -0.4020   -0.3531 H   0  0  0  0  0  0  0  0  0  0  0  0
    7.1764   -1.9103    0.0166 H   0  0  0  0  0  0  0  0  0  0  0  0
  1  2  2  0
  2  3  1  0
  2  4  1  0
  3 19  1  0
  4  5  1  0
  4 20  1  0
  5  6  1  0
  5 21  1  0
  5 22  1  0
  6  7  1  0
  6 18  1  0
  6 23  1  1
  7  8  1  0
  7 24  1  0
  7 25  1  0
  8  9  1  0
  8 26  1  0
  8 27  1  0
  9 10  1  0
  9 17  1  0
 10 11  1  0
 10 28  1  0
 10 29  1  0
 11 12  2  0
 11 16  1  0
 12 13  1  0
 12 30  1  0
 13 14  2  0
 13 31  1  0
 14 15  1  0
 14 32  1  0
 15 16  2  0
 15 33  1  0
 16 34  1  0
 17 18  1  0
 17 35  1  0
 17 36  1  0
 18 37  1  0
 18 38  1  0
M  END

