
     RDKit          3D

 27 28  0  0  0  0  0  0  0  0999 V2000
    0.9825    0.1676    0.0057 C   0  0  0  0  0  0  0  0  0  0  0  0
    2.4849    0.1341   -0.1132 C   0  0  0  0  0  0  0  0  0  0  0  0
    3.2189    1.2699   -0.4830 C   0  0  0  0  0  0  0  0  0  0  0  0
    4.6088    1.2242   -0.5951 C   0  0  0  0  0  0  0  0  0  0  0  0
    5.3237    0.0378   -0.3418 C   0  0  0  0  0  0  0  0  0  0  0  0
    6.7781    0.0477   -0.4728 C   0  0  0  0  0  0  0  0  0  0  0  0
    7.6264   -0.9900   -0.2856 C   0  0  0  0  0  0  0  0  0  0  0  0
    9.0552   -0.8522   -0.4437 C   0  0  0  0  0  0  0  0  0  0  0  0
    9.7708    0.1966   -0.7545 N   0  0  0  0  0  0  0  0  0  0  0  0
   11.0839   -0.2059   -0.7741 N   0  0  0  0  0  0  0  0  0  0  0  0
   11.0861   -1.4654   -0.4764 C   0  0  0  0  0  0  0  0  0  0  0  0
   12.2464   -2.4046   -0.3626 C   0  0  1  0  0  0  0  0  0  0  0  0
   13.7671   -1.5440   -0.6795 Cl  0  0  0  0  0  0  0  0  0  0  0  0
   12.2742   -3.1099    1.2996 Cl  0  0  0  0  0  0  0  0  0  0  0  0
   12.0378   -3.7438   -1.5562 Cl  0  0  0  0  0  0  0  0  0  0  0  0
    9.8435   -1.9485   -0.2531 O   0  0  0  0  0  0  0  0  0  0  0  0
    4.5825   -1.1053    0.0307 C   0  0  0  0  0  0  0  0  0  0  0  0
    3.1984   -1.0539    0.1417 C   0  0  0  0  0  0  0  0  0  0  0  0
    0.5855    1.1814   -0.1483 H   0  0  0  0  0  0  0  0  0  0  0  0
    0.6521   -0.1804    0.9984 H   0  0  0  0  0  0  0  0  0  0  0  0
    0.5099   -0.4956   -0.7389 H   0  0  0  0  0  0  0  0  0  0  0  0
    2.6940    2.2073   -0.6863 H   0  0  0  0  0  0  0  0  0  0  0  0
    5.1571    2.1249   -0.8844 H   0  0  0  0  0  0  0  0  0  0  0  0
    7.2258    1.0065   -0.7550 H   0  0  0  0  0  0  0  0  0  0  0  0
    7.2805   -1.9874   -0.0065 H   0  0  0  0  0  0  0  0  0  0  0  0
    5.0965   -2.0464    0.2383 H   0  0  0  0  0  0  0  0  0  0  0  0
    2.6514   -1.9550    0.4341 H   0  0  0  0  0  0  0  0  0  0  0  0
  1  2  1  0
  1 19  1  0
  1 20  1  0
  1 21  1  0
  2  3  2  0
  2 18  1  0
  3  4  1  0
  3 22  1  0
  4  5  2  0
  4 23  1  0
  5  6  1  0
  5 17  1  0
  6  7  2  0
  6 24  1  0
  7  8  1  0
  7 25  1  0
  8  9  2  0
  8 16  1  0
  9 10  1  0
 10 11  2  0
 11 12  1  0
 11 16  1  0
 12 13  1  6
 12 14  1  0
 12 15  1  0
 17 18  2  0
 17 26  1  0
 18 27  1  0
M  END

