
     RDKit          3D

 42 42  0  0  0  0  0  0  0  0999 V2000
    1.0915    0.6660    1.1077 C   0  0  0  0  0  0  0  0  0  0  0  0
    2.3743    0.2415    0.3912 C   0  0  0  0  0  0  0  0  0  0  0  0
    2.9892   -1.0423    0.9546 C   0  0  0  0  0  0  0  0  0  0  0  0
    4.2804   -1.4664    0.2338 C   0  0  0  0  0  0  0  0  0  0  0  0
    4.8492   -2.7497    0.7850 C   0  0  0  0  0  0  0  0  0  0  0  0
    5.8883   -2.6606    1.6235 N   0  0  0  0  0  0  0  0  0  0  0  0
    6.3728   -3.7970    2.1430 C   0  0  0  0  0  0  0  0  0  0  0  0
    7.5392   -3.6723    3.0859 C   0  0  0  0  0  0  0  0  0  0  0  0
    5.8024   -5.0315    1.8115 C   0  0  0  0  0  0  0  0  0  0  0  0
    4.7193   -5.0314    0.9232 C   0  0  0  0  0  0  0  0  0  0  0  0
    4.0663   -6.3226    0.4760 C   0  0  0  0  0  0  0  0  0  0  0  0
    4.7360   -6.8282   -0.7156 N   0  0  0  0  0  0  0  0  0  0  0  0
    4.1476   -7.9781   -1.4299 C   0  0  1  0  0  0  0  0  0  0  0  0
    2.7967   -7.5632   -2.0386 C   0  0  0  0  0  0  0  0  0  0  0  0
    5.1271   -8.3179   -2.5650 C   0  0  0  0  0  0  0  0  0  0  0  0
    3.9592   -9.2164   -0.5253 C   0  0  0  0  0  0  0  0  0  0  0  0
    4.2457   -3.8890    0.4180 N   0  0  0  0  0  0  0  0  0  0  0  0
    0.6727    1.5895    0.6765 H   0  0  0  0  0  0  0  0  0  0  0  0
    1.2737    0.8524    2.1796 H   0  0  0  0  0  0  0  0  0  0  0  0
    0.3164   -0.1156    1.0375 H   0  0  0  0  0  0  0  0  0  0  0  0
    3.1179    1.0571    0.4496 H   0  0  0  0  0  0  0  0  0  0  0  0
    2.1677    0.1010   -0.6854 H   0  0  0  0  0  0  0  0  0  0  0  0
    2.2593   -1.8680    0.8845 H   0  0  0  0  0  0  0  0  0  0  0  0
    3.2044   -0.9081    2.0303 H   0  0  0  0  0  0  0  0  0  0  0  0
    5.0427   -0.6789    0.3311 H   0  0  0  0  0  0  0  0  0  0  0  0
    4.0633   -1.6142   -0.8368 H   0  0  0  0  0  0  0  0  0  0  0  0
    8.3851   -3.1859    2.5741 H   0  0  0  0  0  0  0  0  0  0  0  0
    7.8681   -4.6475    3.4720 H   0  0  0  0  0  0  0  0  0  0  0  0
    7.2691   -3.0231    3.9340 H   0  0  0  0  0  0  0  0  0  0  0  0
    6.1845   -5.9629    2.2363 H   0  0  0  0  0  0  0  0  0  0  0  0
    3.0221   -6.0875    0.2274 H   0  0  0  0  0  0  0  0  0  0  0  0
    4.0559   -7.0335    1.3312 H   0  0  0  0  0  0  0  0  0  0  0  0
    5.7127   -7.0272   -0.5012 H   0  0  0  0  0  0  0  0  0  0  0  0
    2.9174   -6.6542   -2.6469 H   0  0  0  0  0  0  0  0  0  0  0  0
    2.0406   -7.3571   -1.2650 H   0  0  0  0  0  0  0  0  0  0  0  0
    2.3983   -8.3669   -2.6775 H   0  0  0  0  0  0  0  0  0  0  0  0
    5.2783   -7.4427   -3.2146 H   0  0  0  0  0  0  0  0  0  0  0  0
    4.7516   -9.1524   -3.1773 H   0  0  0  0  0  0  0  0  0  0  0  0
    6.1099   -8.6168   -2.1615 H   0  0  0  0  0  0  0  0  0  0  0  0
    3.2478   -9.0194    0.2924 H   0  0  0  0  0  0  0  0  0  0  0  0
    4.9183   -9.5214   -0.0734 H   0  0  0  0  0  0  0  0  0  0  0  0
    3.5711  -10.0739   -1.0986 H   0  0  0  0  0  0  0  0  0  0  0  0
  1  2  1  0
  1 18  1  0
  1 19  1  0
  1 20  1  0
  2  3  1  0
  2 21  1  0
  2 22  1  0
  3  4  1  0
  3 23  1  0
  3 24  1  0
  4  5  1  0
  4 25  1  0
  4 26  1  0
  5  6  2  0
  5 17  1  0
  6  7  1  0
  7  8  1  0
  7  9  2  0
  8 27  1  0
  8 28  1  0
  8 29  1  0
  9 10  1  0
  9 30  1  0
 10 11  1  0
 10 17  2  0
 11 12  1  0
 11 31  1  0
 11 32  1  0
 13 12  1  1
 12 33  1  0
 13 14  1  0
 13 15  1  0
 13 16  1  0
 14 34  1  0
 14 35  1  0
 14 36  1  0
 15 37  1  0
 15 38  1  0
 15 39  1  0
 16 40  1  0
 16 41  1  0
 16 42  1  0
M  END

