
     RDKit          3D

 29 30  0  0  0  0  0  0  0  0999 V2000
    2.6785    0.8833    1.5803 C   0  0  0  0  0  0  0  0  0  0  0  0
    2.4397    0.1934    0.2252 C   0  0  1  0  0  0  0  0  0  0  0  0
    2.7801   -1.3030    0.3356 C   0  0  0  0  0  0  0  0  0  0  0  0
    0.9617    0.3603   -0.1777 C   0  0  0  0  0  0  0  0  0  0  0  0
    3.2745    0.8718   -0.8975 C   0  0  0  0  0  0  0  0  0  0  0  0
    4.7210    0.6835   -0.8239 N   0  0  0  0  0  0  0  0  0  0  0  0
    5.4263    1.4156    0.0767 N   0  0  0  0  0  0  0  0  0  0  0  0
    6.6707    1.1085    0.0247 N   0  0  0  0  0  0  0  0  0  0  0  0
    6.8429    0.1451   -0.9382 C   0  0  0  0  0  0  0  0  0  0  0  0
    8.0206   -0.4935   -1.3612 C   0  0  0  0  0  0  0  0  0  0  0  0
    7.9090   -1.4273   -2.3782 C   0  0  0  0  0  0  0  0  0  0  0  0
    6.6572   -1.7150   -2.9722 C   0  0  0  0  0  0  0  0  0  0  0  0
    5.4892   -1.0851   -2.5598 C   0  0  0  0  0  0  0  0  0  0  0  0
    3.8618   -1.5177   -3.4635 Br  0  0  0  0  0  0  0  0  0  0  0  0
    5.5755   -0.1427   -1.5126 C   0  0  0  0  0  0  0  0  0  0  0  0
    2.0572    0.4136    2.3602 H   0  0  0  0  0  0  0  0  0  0  0  0
    2.4139    1.9523    1.5355 H   0  0  0  0  0  0  0  0  0  0  0  0
    3.7305    0.8192    1.8922 H   0  0  0  0  0  0  0  0  0  0  0  0
    2.1418   -1.7834    1.0942 H   0  0  0  0  0  0  0  0  0  0  0  0
    3.8269   -1.4581    0.6412 H   0  0  0  0  0  0  0  0  0  0  0  0
    2.6234   -1.8292   -0.6192 H   0  0  0  0  0  0  0  0  0  0  0  0
    0.3008   -0.0631    0.5950 H   0  0  0  0  0  0  0  0  0  0  0  0
    0.7401   -0.1535   -1.1276 H   0  0  0  0  0  0  0  0  0  0  0  0
    0.6947    1.4235   -0.2970 H   0  0  0  0  0  0  0  0  0  0  0  0
    3.0983    1.9579   -0.8782 H   0  0  0  0  0  0  0  0  0  0  0  0
    2.9535    0.4969   -1.8768 H   0  0  0  0  0  0  0  0  0  0  0  0
    8.9753   -0.2462   -0.8947 H   0  0  0  0  0  0  0  0  0  0  0  0
    8.7940   -1.9528   -2.7436 H   0  0  0  0  0  0  0  0  0  0  0  0
    6.6021   -2.4457   -3.7810 H   0  0  0  0  0  0  0  0  0  0  0  0
  2  1  1  1
  1 16  1  0
  1 17  1  0
  1 18  1  0
  2  3  1  0
  2  4  1  0
  2  5  1  0
  3 19  1  0
  3 20  1  0
  3 21  1  0
  4 22  1  0
  4 23  1  0
  4 24  1  0
  5  6  1  0
  5 25  1  0
  5 26  1  0
  6  7  1  0
  6 15  1  0
  7  8  2  0
  8  9  1  0
  9 10  1  0
  9 15  2  0
 10 11  2  0
 10 27  1  0
 11 12  1  0
 11 28  1  0
 12 13  2  0
 12 29  1  0
 13 14  1  0
 13 15  1  0
M  END

