
     RDKit          3D

 36 37  0  0  0  0  0  0  0  0999 V2000
    2.8948   -0.2476    1.2800 C   0  0  0  0  0  0  0  0  0  0  0  0
    2.8168    0.0846   -0.2133 C   0  0  1  0  0  0  0  0  0  0  0  0
    1.3754   -0.1090   -0.7360 C   0  0  0  0  0  0  0  0  0  0  0  0
    1.1978   -0.0219   -2.2151 C   0  0  0  0  0  0  0  0  0  0  0  0
    0.9750   -0.9543   -3.1925 C   0  0  0  0  0  0  0  0  0  0  0  0
    0.9141   -0.2443   -4.4393 C   0  0  0  0  0  0  0  0  0  0  0  0
    1.1049    1.0702   -4.1329 C   0  0  0  0  0  0  0  0  0  0  0  0
    1.2752    1.2185   -2.7905 O   0  0  0  0  0  0  0  0  0  0  0  0
    3.2475    1.4575   -0.4570 N   0  0  0  0  0  0  0  0  0  0  0  0
    4.6368    1.7426   -0.3359 C   0  0  0  0  0  0  0  0  0  0  0  0
    5.4768    0.8697   -0.0053 O   0  0  0  0  0  0  0  0  0  0  0  0
    5.0181    3.1328   -0.5473 C   0  0  0  0  0  0  0  0  0  0  0  0
    4.1179    4.2108   -0.7473 C   0  0  0  0  0  0  0  0  0  0  0  0
    4.5675    5.5435   -0.9829 C   0  0  0  0  0  0  0  0  0  0  0  0
    3.6229    6.5128   -1.1900 N   0  0  0  0  0  0  0  0  0  0  0  0
    5.9385    5.8619   -1.0060 C   0  0  0  0  0  0  0  0  0  0  0  0
    6.8461    4.8074   -0.7549 C   0  0  0  0  0  0  0  0  0  0  0  0
    8.1929    5.0466   -0.7353 N   0  0  0  0  0  0  0  0  0  0  0  0
    6.3954    3.4831   -0.5195 C   0  0  0  0  0  0  0  0  0  0  0  0
    2.6011   -1.2945    1.4638 H   0  0  0  0  0  0  0  0  0  0  0  0
    2.2293    0.4134    1.8600 H   0  0  0  0  0  0  0  0  0  0  0  0
    3.9276   -0.1091    1.6262 H   0  0  0  0  0  0  0  0  0  0  0  0
    3.4791   -0.6252   -0.7475 H   0  0  0  0  0  0  0  0  0  0  0  0
    0.7233    0.6344   -0.2427 H   0  0  0  0  0  0  0  0  0  0  0  0
    1.0247   -1.1033   -0.4212 H   0  0  0  0  0  0  0  0  0  0  0  0
    0.8669   -2.0259   -3.0381 H   0  0  0  0  0  0  0  0  0  0  0  0
    0.7484   -0.6607   -5.4309 H   0  0  0  0  0  0  0  0  0  0  0  0
    1.1438    1.9805   -4.7253 H   0  0  0  0  0  0  0  0  0  0  0  0
    2.8383    1.8459   -1.3052 H   0  0  0  0  0  0  0  0  0  0  0  0
    3.0422    4.0275   -0.6855 H   0  0  0  0  0  0  0  0  0  0  0  0
    2.6393    6.2977   -1.0977 H   0  0  0  0  0  0  0  0  0  0  0  0
    3.8863    7.4869   -1.2542 H   0  0  0  0  0  0  0  0  0  0  0  0
    6.2848    6.8770   -1.2077 H   0  0  0  0  0  0  0  0  0  0  0  0
    8.5604    5.9812   -0.8499 H   0  0  0  0  0  0  0  0  0  0  0  0
    8.8433    4.3010   -0.5266 H   0  0  0  0  0  0  0  0  0  0  0  0
    7.1057    2.6818   -0.3006 H   0  0  0  0  0  0  0  0  0  0  0  0
  1  2  1  0
  1 20  1  0
  1 21  1  0
  1 22  1  0
  2  3  1  0
  2  9  1  0
  2 23  1  6
  3  4  1  0
  3 24  1  0
  3 25  1  0
  4  5  2  0
  4  8  1  0
  5  6  1  0
  5 26  1  0
  6  7  2  0
  6 27  1  0
  7  8  1  0
  7 28  1  0
  9 10  1  0
  9 29  1  0
 10 11  2  0
 10 12  1  0
 12 13  2  0
 12 19  1  0
 13 14  1  0
 13 30  1  0
 14 15  1  0
 14 16  2  0
 15 31  1  0
 15 32  1  0
 16 17  1  0
 16 33  1  0
 17 18  1  0
 17 19  2  0
 18 34  1  0
 18 35  1  0
 19 36  1  0
M  END

