
     RDKit          3D

 29 30  0  0  0  0  0  0  0  0999 V2000
    1.3170    0.5230    0.0980 C   0  0  0  0  0  0  0  0  0  0  0  0
    2.7319   -0.0661    0.0324 C   0  0  1  0  0  0  0  0  0  0  0  0
    3.6101    0.9855   -0.4979 O   0  0  0  0  0  0  0  0  0  0  0  0
    3.2516   -0.4744    1.4443 C   0  0  0  0  0  0  0  0  0  0  0  0
    4.3807    0.1534    2.0038 C   0  0  0  0  0  0  0  0  0  0  0  0
    4.8865   -0.1821    3.2613 C   0  0  0  0  0  0  0  0  0  0  0  0
    4.2662   -1.1758    4.0169 C   0  0  0  0  0  0  0  0  0  0  0  0
    3.1508   -1.8296    3.4925 C   0  0  0  0  0  0  0  0  0  0  0  0
    2.6599   -1.4903    2.2285 C   0  0  0  0  0  0  0  0  0  0  0  0
    1.2829   -2.4264    1.6675 Cl  0  0  0  0  0  0  0  0  0  0  0  0
    2.8364   -1.1769   -0.9617 C   0  0  0  0  0  0  0  0  0  0  0  0
    1.6845   -1.7821   -1.3991 O   0  0  0  0  0  0  0  0  0  0  0  0
    2.0338   -2.8719   -2.1368 C   0  0  0  0  0  0  0  0  0  0  0  0
    3.3777   -3.0043   -2.2303 C   0  0  0  0  0  0  0  0  0  0  0  0
    3.9554   -1.8918   -1.4907 C   0  0  0  0  0  0  0  0  0  0  0  0
    5.3010   -1.5120   -1.4778 C   0  0  0  0  0  0  0  0  0  0  0  0
    6.2661   -2.2787   -1.9478 O   0  0  0  0  0  0  0  0  0  0  0  0
    5.7709   -0.3655   -1.0290 O   0  0  0  0  0  0  0  0  0  0  0  0
    1.3095    1.3797    0.7910 H   0  0  0  0  0  0  0  0  0  0  0  0
    0.5882   -0.2142    0.4526 H   0  0  0  0  0  0  0  0  0  0  0  0
    1.0184    0.8652   -0.9026 H   0  0  0  0  0  0  0  0  0  0  0  0
    3.5482    1.7723    0.0661 H   0  0  0  0  0  0  0  0  0  0  0  0
    4.8989    0.9243    1.4348 H   0  0  0  0  0  0  0  0  0  0  0  0
    5.7683    0.3375    3.6432 H   0  0  0  0  0  0  0  0  0  0  0  0
    4.6467   -1.4514    5.0031 H   0  0  0  0  0  0  0  0  0  0  0  0
    2.6489   -2.6193    4.0539 H   0  0  0  0  0  0  0  0  0  0  0  0
    1.2092   -3.4532   -2.5417 H   0  0  0  0  0  0  0  0  0  0  0  0
    3.9130   -3.7742   -2.7810 H   0  0  0  0  0  0  0  0  0  0  0  0
    5.0114    0.2659   -0.8591 H   0  0  0  0  0  0  0  0  0  0  0  0
  1  2  1  0
  1 19  1  0
  1 20  1  0
  1 21  1  0
  2  3  1  6
  2  4  1  0
  2 11  1  0
  3 22  1  0
  4  5  2  0
  4  9  1  0
  5  6  1  0
  5 23  1  0
  6  7  2  0
  6 24  1  0
  7  8  1  0
  7 25  1  0
  8  9  2  0
  8 26  1  0
  9 10  1  0
 11 12  1  0
 11 15  2  0
 12 13  1  0
 13 14  2  0
 13 27  1  0
 14 15  1  0
 14 28  1  0
 15 16  1  0
 16 17  2  0
 16 18  1  0
 18 29  1  0
M  END

