
     RDKit          3D

 36 37  0  0  0  0  0  0  0  0999 V2000
    8.9933   -2.5848   -3.5696 C   0  0  0  0  0  0  0  0  0  0  0  0
    7.4907   -2.6772   -3.4612 C   0  0  0  0  0  0  0  0  0  0  0  0
    6.6523   -2.2780   -4.5130 C   0  0  0  0  0  0  0  0  0  0  0  0
    5.2585   -2.3477   -4.4028 C   0  0  0  0  0  0  0  0  0  0  0  0
    4.6681   -2.8263   -3.2334 C   0  0  0  0  0  0  0  0  0  0  0  0
    5.5032   -3.2444   -2.1922 C   0  0  0  0  0  0  0  0  0  0  0  0
    4.7593   -3.8512   -0.6618 S   0  0  1  0  0  0  0  0  0  0  0  0
    5.7920   -3.8022    0.3888 O   0  0  0  0  0  0  0  0  0  0  0  0
    3.4708   -3.1605   -0.4901 O   0  0  0  0  0  0  0  0  0  0  0  0
    4.3623   -5.5981   -0.9688 C   0  0  0  0  0  0  0  0  0  0  0  0
    5.5760   -6.5138   -1.0547 C   0  0  0  0  0  0  0  0  0  0  0  0
    5.2221   -8.0049   -1.0844 C   0  0  0  0  0  0  0  0  0  0  0  0
    4.2365   -8.5532   -2.5354 S   0  0  0  0  0  0  0  0  0  0  0  0
    2.5948   -8.5128   -1.8727 C   0  0  0  0  0  0  0  0  0  0  0  0
    1.5662   -8.8365   -2.6318 N   0  0  0  0  0  0  0  0  0  0  0  0
    0.5204   -8.6990   -1.7591 N   0  0  0  0  0  0  0  0  0  0  0  0
   -0.4210   -8.9273   -2.0538 H   0  0  0  0  0  0  0  0  0  0  0  0
    0.9723   -8.3009   -0.5465 C   0  0  0  0  0  0  0  0  0  0  0  0
    0.1794   -8.1228    0.5595 N   0  0  0  0  0  0  0  0  0  0  0  0
    2.2891   -8.1697   -0.5849 N   0  0  0  0  0  0  0  0  0  0  0  0
    6.8921   -3.1639   -2.2866 C   0  0  0  0  0  0  0  0  0  0  0  0
    9.3039   -2.1548   -4.5329 H   0  0  0  0  0  0  0  0  0  0  0  0
    9.4625   -3.5784   -3.4767 H   0  0  0  0  0  0  0  0  0  0  0  0
    9.4121   -1.9560   -2.7668 H   0  0  0  0  0  0  0  0  0  0  0  0
    7.0988   -1.8954   -5.4351 H   0  0  0  0  0  0  0  0  0  0  0  0
    4.6305   -2.0144   -5.2328 H   0  0  0  0  0  0  0  0  0  0  0  0
    3.5838   -2.8605   -3.1125 H   0  0  0  0  0  0  0  0  0  0  0  0
    3.7436   -5.6211   -1.8779 H   0  0  0  0  0  0  0  0  0  0  0  0
    3.7128   -5.8474   -0.1158 H   0  0  0  0  0  0  0  0  0  0  0  0
    6.2145   -6.3308   -0.1741 H   0  0  0  0  0  0  0  0  0  0  0  0
    6.1752   -6.2584   -1.9450 H   0  0  0  0  0  0  0  0  0  0  0  0
    4.6660   -8.3050   -0.1858 H   0  0  0  0  0  0  0  0  0  0  0  0
    6.1450   -8.6019   -1.1320 H   0  0  0  0  0  0  0  0  0  0  0  0
   -0.7573   -7.7668    0.4026 H   0  0  0  0  0  0  0  0  0  0  0  0
    0.6586   -7.6653    1.3278 H   0  0  0  0  0  0  0  0  0  0  0  0
    7.4995   -3.4657   -1.4300 H   0  0  0  0  0  0  0  0  0  0  0  0
  1  2  1  0
  1 22  1  0
  1 23  1  0
  1 24  1  0
  2  3  2  0
  2 21  1  0
  3  4  1  0
  3 25  1  0
  4  5  2  0
  4 26  1  0
  5  6  1  0
  5 27  1  0
  6  7  1  0
  6 21  2  0
  7  8  2  0
  7  9  2  0
  7 10  1  6
 10 11  1  0
 10 28  1  0
 10 29  1  0
 11 12  1  0
 11 30  1  0
 11 31  1  0
 12 13  1  0
 12 32  1  0
 12 33  1  0
 13 14  1  0
 14 15  2  0
 14 20  1  0
 15 16  1  0
 16 17  1  0
 16 18  1  0
 18 19  1  0
 18 20  2  0
 19 34  1  0
 19 35  1  0
 21 36  1  0
M  END

