
     RDKit          3D

 53 55  0  0  0  0  0  0  0  0999 V2000
    4.1864    2.9237   -4.5476 C   0  0  0  0  0  0  0  0  0  0  0  0
    4.1679    1.6036   -3.7559 C   0  0  1  0  0  0  0  0  0  0  0  0
    4.9371    0.4500   -4.4557 C   0  0  0  0  0  0  0  0  0  0  0  0
    6.4561    0.6333   -4.3921 C   0  0  0  0  0  0  0  0  0  0  0  0
    6.9145    0.8460   -2.9480 C   0  0  0  0  0  0  0  0  0  0  0  0
    6.1257    1.9929   -2.2718 C   0  0  0  0  0  0  0  0  0  0  0  0
    4.7089    1.7764   -2.4146 N   0  0  0  0  0  0  0  0  0  0  0  0
    3.7946    1.6066   -1.2302 C   0  0  0  0  0  0  0  0  0  0  0  0
    4.4102    1.6425    0.1008 C   0  0  0  0  0  0  0  0  0  0  0  0
    4.3342    2.6582    1.0680 C   0  0  0  0  0  0  0  0  0  0  0  0
    4.8433    2.4035    2.2716 N   0  0  0  0  0  0  0  0  0  0  0  0
    5.3626    1.1644    2.3190 C   0  0  0  0  0  0  0  0  0  0  0  0
    5.8789    0.6461    3.4853 N   0  0  0  0  0  0  0  0  0  0  0  0
    6.4624   -0.5805    3.6710 C   0  0  0  0  0  0  0  0  0  0  0  0
    6.6161   -1.3862    2.7387 O   0  0  0  0  0  0  0  0  0  0  0  0
    6.8705   -0.8983    5.1048 C   0  0  0  0  0  0  0  0  0  0  0  0
    8.0798   -1.8352    5.1737 C   0  0  0  0  0  0  0  0  0  0  0  0
    9.3386   -1.2319    4.5704 C   0  0  0  0  0  0  0  0  0  0  0  0
   10.4147   -2.1342    4.8002 O   0  0  0  0  0  0  0  0  0  0  0  0
   11.6518   -1.8408    4.3378 C   0  0  0  0  0  0  0  0  0  0  0  0
   11.9758   -0.6857    3.6062 C   0  0  0  0  0  0  0  0  0  0  0  0
   13.2943   -0.4824    3.1795 C   0  0  0  0  0  0  0  0  0  0  0  0
   14.2963   -1.4092    3.4683 C   0  0  0  0  0  0  0  0  0  0  0  0
   13.9678   -2.5603    4.1979 C   0  0  0  0  0  0  0  0  0  0  0  0
   12.6624   -2.7773    4.6293 C   0  0  0  0  0  0  0  0  0  0  0  0
    5.1857    0.1912    0.8281 S   0  0  0  0  0  0  0  0  0  0  0  0
    3.6528    2.7715   -5.4967 H   0  0  0  0  0  0  0  0  0  0  0  0
    5.2058    3.2622   -4.7803 H   0  0  0  0  0  0  0  0  0  0  0  0
    3.6732    3.7230   -3.9927 H   0  0  0  0  0  0  0  0  0  0  0  0
    3.1183    1.2997   -3.6258 H   0  0  0  0  0  0  0  0  0  0  0  0
    4.5770    0.3827   -5.4939 H   0  0  0  0  0  0  0  0  0  0  0  0
    4.6611   -0.4955   -3.9602 H   0  0  0  0  0  0  0  0  0  0  0  0
    6.7677    1.4870   -5.0181 H   0  0  0  0  0  0  0  0  0  0  0  0
    6.9500   -0.2550   -4.8173 H   0  0  0  0  0  0  0  0  0  0  0  0
    7.9841    1.0944   -2.8919 H   0  0  0  0  0  0  0  0  0  0  0  0
    6.7671   -0.0681   -2.3518 H   0  0  0  0  0  0  0  0  0  0  0  0
    6.3736    2.9492   -2.7672 H   0  0  0  0  0  0  0  0  0  0  0  0
    6.3401    2.0754   -1.2008 H   0  0  0  0  0  0  0  0  0  0  0  0
    3.2581    0.6631   -1.4613 H   0  0  0  0  0  0  0  0  0  0  0  0
    3.0463    2.4106   -1.3645 H   0  0  0  0  0  0  0  0  0  0  0  0
    3.8689    3.6323    0.8773 H   0  0  0  0  0  0  0  0  0  0  0  0
    5.7949    1.2792    4.2744 H   0  0  0  0  0  0  0  0  0  0  0  0
    6.0238   -1.3934    5.6187 H   0  0  0  0  0  0  0  0  0  0  0  0
    7.0643    0.0322    5.6699 H   0  0  0  0  0  0  0  0  0  0  0  0
    7.8420   -2.7603    4.6270 H   0  0  0  0  0  0  0  0  0  0  0  0
    8.2847   -2.1085    6.2218 H   0  0  0  0  0  0  0  0  0  0  0  0
    9.5686   -0.2534    5.0363 H   0  0  0  0  0  0  0  0  0  0  0  0
    9.1967   -1.0734    3.4876 H   0  0  0  0  0  0  0  0  0  0  0  0
   11.2121    0.0531    3.3640 H   0  0  0  0  0  0  0  0  0  0  0  0
   13.5331    0.4210    2.6110 H   0  0  0  0  0  0  0  0  0  0  0  0
   15.3218   -1.2405    3.1313 H   0  0  0  0  0  0  0  0  0  0  0  0
   14.7400   -3.2979    4.4336 H   0  0  0  0  0  0  0  0  0  0  0  0
   12.3891   -3.6682    5.1988 H   0  0  0  0  0  0  0  0  0  0  0  0
  1  2  1  0
  1 27  1  0
  1 28  1  0
  1 29  1  0
  2  3  1  0
  2  7  1  0
  2 30  1  1
  3  4  1  0
  3 31  1  0
  3 32  1  0
  4  5  1  0
  4 33  1  0
  4 34  1  0
  5  6  1  0
  5 35  1  0
  5 36  1  0
  6  7  1  0
  6 37  1  0
  6 38  1  0
  7  8  1  0
  8  9  1  0
  8 39  1  0
  8 40  1  0
  9 10  2  0
  9 26  1  0
 10 11  1  0
 10 41  1  0
 11 12  2  0
 12 13  1  0
 12 26  1  0
 13 14  1  0
 13 42  1  0
 14 15  2  0
 14 16  1  0
 16 17  1  0
 16 43  1  0
 16 44  1  0
 17 18  1  0
 17 45  1  0
 17 46  1  0
 18 19  1  0
 18 47  1  0
 18 48  1  0
 19 20  1  0
 20 21  2  0
 20 25  1  0
 21 22  1  0
 21 49  1  0
 22 23  2  0
 22 50  1  0
 23 24  1  0
 23 51  1  0
 24 25  2  0
 24 52  1  0
 25 53  1  0
M  END

