
     RDKit          3D

 89 92  0  0  0  0  0  0  0  0999 V2000
   -5.7536    5.4034   -5.8830 C   0  0  0  0  0  0  0  0  0  0  0  0
   -5.6717    4.4038   -4.7495 C   0  0  0  0  0  0  0  0  0  0  0  0
   -6.8117    3.6554   -4.4104 C   0  0  0  0  0  0  0  0  0  0  0  0
   -6.7967    2.7259   -3.3697 C   0  0  0  0  0  0  0  0  0  0  0  0
   -5.6236    2.5302   -2.6372 C   0  0  0  0  0  0  0  0  0  0  0  0
   -4.4816    3.2645   -2.9585 C   0  0  0  0  0  0  0  0  0  0  0  0
   -4.4858    4.1981   -4.0084 C   0  0  0  0  0  0  0  0  0  0  0  0
   -3.2106    4.9735   -4.3041 C   0  0  0  0  0  0  0  0  0  0  0  0
   -2.0539    4.1107   -4.5025 N   0  0  0  0  0  0  0  0  0  0  0  0
   -0.9693    4.1274   -3.6848 C   0  0  0  0  0  0  0  0  0  0  0  0
   -0.8125    4.9126   -2.7619 O   0  0  0  0  0  0  0  0  0  0  0  0
    0.0765    3.0272   -3.9626 C   0  0  2  0  0  0  0  0  0  0  0  0
    0.9298    3.2347   -3.3065 H   0  0  0  0  0  0  0  0  0  0  0  0
    0.5124    2.9078   -5.4457 C   0  0  1  0  0  0  0  0  0  0  0  0
    0.3716    3.8589   -5.9797 H   0  0  0  0  0  0  0  0  0  0  0  0
    1.9421    2.4106   -5.6250 C   0  0  0  0  0  0  0  0  0  0  0  0
   -0.4639    1.9991   -5.9779 O   0  0  0  0  0  0  0  0  0  0  0  0
   -0.6516    0.9874   -5.0221 C   0  0  0  0  0  0  0  0  0  0  0  0
   -0.4698    1.6834   -3.7363 N   0  0  0  0  0  0  0  0  0  0  0  0
   -0.8382    1.0938   -2.5830 C   0  0  0  0  0  0  0  0  0  0  0  0
   -1.3282   -0.0404   -2.5655 O   0  0  0  0  0  0  0  0  0  0  0  0
   -0.6441    1.7960   -1.2308 C   0  0  1  0  0  0  0  0  0  0  0  0
   -0.5214    2.8838   -1.3337 H   0  0  0  0  0  0  0  0  0  0  0  0
   -1.8117    1.5683   -0.4759 O   0  0  0  0  0  0  0  0  0  0  0  0
    0.6126    1.1947   -0.5290 C   0  0  2  0  0  0  0  0  0  0  0  0
    0.4983    0.1017   -0.5622 H   0  0  0  0  0  0  0  0  0  0  0  0
    0.7148    1.6019    0.9610 C   0  0  0  0  0  0  0  0  0  0  0  0
    0.9765    3.0730    1.2050 C   0  0  0  0  0  0  0  0  0  0  0  0
   -0.0845    3.9947    1.2518 C   0  0  0  0  0  0  0  0  0  0  0  0
    0.1602    5.3555    1.4510 C   0  0  0  0  0  0  0  0  0  0  0  0
    1.4697    5.8201    1.6100 C   0  0  0  0  0  0  0  0  0  0  0  0
    2.5335    4.9148    1.5714 C   0  0  0  0  0  0  0  0  0  0  0  0
    2.2871    3.5527    1.3705 C   0  0  0  0  0  0  0  0  0  0  0  0
    1.8130    1.5544   -1.2724 N   0  0  0  0  0  0  0  0  0  0  0  0
    2.6831    0.8005   -1.9985 C   0  0  0  0  0  0  0  0  0  0  0  0
    3.5991    1.3417   -2.6148 O   0  0  0  0  0  0  0  0  0  0  0  0
    2.5011   -0.7347   -2.0343 C   0  0  1  0  0  0  0  0  0  0  0  0
    2.1613   -1.0845   -1.0396 H   0  0  0  0  0  0  0  0  0  0  0  0
    1.5590   -1.0683   -3.1100 N   0  0  0  0  0  0  0  0  0  0  0  0
    3.8522   -1.4107   -2.3241 C   0  0  0  0  0  0  0  0  0  0  0  0
    4.8687   -1.3033   -1.1850 C   0  0  0  0  0  0  0  0  0  0  0  0
    4.9866   -2.1681   -0.3500 O   0  0  0  0  0  0  0  0  0  0  0  0
    5.6155   -0.1258   -1.2173 N   0  0  0  0  0  0  0  0  0  0  0  0
    6.6119    0.2490   -0.3230 C   0  0  0  0  0  0  0  0  0  0  0  0
    7.0551   -0.4038    0.5848 O   0  0  0  0  0  0  0  0  0  0  0  0
    7.0199    1.4968   -0.6592 O   0  0  0  0  0  0  0  0  0  0  0  0
    8.0527    2.0906    0.1534 C   0  0  0  0  0  0  0  0  0  0  0  0
    7.4826    2.9382    1.2662 C   0  0  0  0  0  0  0  0  0  0  0  0
    7.0486    2.3470    2.4653 C   0  0  0  0  0  0  0  0  0  0  0  0
    6.5054    3.1326    3.4849 C   0  0  0  0  0  0  0  0  0  0  0  0
    6.3936    4.5181    3.3233 C   0  0  0  0  0  0  0  0  0  0  0  0
    6.8255    5.1152    2.1352 C   0  0  0  0  0  0  0  0  0  0  0  0
    7.3638    4.3272    1.1131 C   0  0  0  0  0  0  0  0  0  0  0  0
   -6.7503    5.3834   -6.3468 H   0  0  0  0  0  0  0  0  0  0  0  0
   -5.0182    5.1944   -6.6780 H   0  0  0  0  0  0  0  0  0  0  0  0
   -5.5722    6.4358   -5.5402 H   0  0  0  0  0  0  0  0  0  0  0  0
   -7.7320    3.8085   -4.9814 H   0  0  0  0  0  0  0  0  0  0  0  0
   -7.6999    2.1584   -3.1313 H   0  0  0  0  0  0  0  0  0  0  0  0
   -5.5956    1.8120   -1.8140 H   0  0  0  0  0  0  0  0  0  0  0  0
   -3.5714    3.1085   -2.3729 H   0  0  0  0  0  0  0  0  0  0  0  0
   -2.9518    5.6283   -3.4579 H   0  0  0  0  0  0  0  0  0  0  0  0
   -3.3395    5.6202   -5.1837 H   0  0  0  0  0  0  0  0  0  0  0  0
   -2.0830    3.4124   -5.2413 H   0  0  0  0  0  0  0  0  0  0  0  0
    2.6552    3.1736   -5.2772 H   0  0  0  0  0  0  0  0  0  0  0  0
    2.1330    2.2134   -6.6906 H   0  0  0  0  0  0  0  0  0  0  0  0
    2.1397    1.4929   -5.0511 H   0  0  0  0  0  0  0  0  0  0  0  0
    0.0913    0.1738   -5.1039 H   0  0  0  0  0  0  0  0  0  0  0  0
   -1.6656    0.5714   -5.1123 H   0  0  0  0  0  0  0  0  0  0  0  0
   -2.1148    0.6776   -0.7294 H   0  0  0  0  0  0  0  0  0  0  0  0
    1.5222    1.0012    1.4091 H   0  0  0  0  0  0  0  0  0  0  0  0
   -0.2273    1.3016    1.4410 H   0  0  0  0  0  0  0  0  0  0  0  0
   -1.1100    3.6365    1.1296 H   0  0  0  0  0  0  0  0  0  0  0  0
   -0.6774    6.0569    1.4810 H   0  0  0  0  0  0  0  0  0  0  0  0
    1.6593    6.8851    1.7665 H   0  0  0  0  0  0  0  0  0  0  0  0
    3.5614    5.2616    1.7038 H   0  0  0  0  0  0  0  0  0  0  0  0
    3.1268    2.8516    1.3581 H   0  0  0  0  0  0  0  0  0  0  0  0
    2.0730    2.5400   -1.2461 H   0  0  0  0  0  0  0  0  0  0  0  0
    0.5867   -1.0155   -2.8000 H   0  0  0  0  0  0  0  0  0  0  0  0
    1.7113   -2.0292   -3.4148 H   0  0  0  0  0  0  0  0  0  0  0  0
    4.2526   -0.9994   -3.2621 H   0  0  0  0  0  0  0  0  0  0  0  0
    3.6717   -2.4881   -2.4483 H   0  0  0  0  0  0  0  0  0  0  0  0
    5.3207    0.5810   -1.8950 H   0  0  0  0  0  0  0  0  0  0  0  0
    8.6385    2.7072   -0.5420 H   0  0  0  0  0  0  0  0  0  0  0  0
    8.6866    1.2879    0.5550 H   0  0  0  0  0  0  0  0  0  0  0  0
    7.1351    1.2646    2.5868 H   0  0  0  0  0  0  0  0  0  0  0  0
    6.1727    2.6618    4.4136 H   0  0  0  0  0  0  0  0  0  0  0  0
    5.9740    5.1314    4.1250 H   0  0  0  0  0  0  0  0  0  0  0  0
    6.7471    6.1977    2.0044 H   0  0  0  0  0  0  0  0  0  0  0  0
    7.7005    4.7981    0.1848 H   0  0  0  0  0  0  0  0  0  0  0  0
  1  2  1  0
  1 54  1  0
  1 55  1  0
  1 56  1  0
  2  3  2  0
  2  7  1  0
  3  4  1  0
  3 57  1  0
  4  5  2  0
  4 58  1  0
  5  6  1  0
  5 59  1  0
  6  7  2  0
  6 60  1  0
  7  8  1  0
  8  9  1  0
  8 61  1  0
  8 62  1  0
  9 10  1  0
  9 63  1  0
 10 11  2  0
 10 12  1  0
 12 13  1  1
 12 14  1  0
 12 19  1  0
 14 15  1  6
 14 16  1  0
 14 17  1  0
 16 64  1  0
 16 65  1  0
 16 66  1  0
 17 18  1  0
 18 19  1  0
 18 67  1  0
 18 68  1  0
 19 20  1  0
 20 21  2  0
 20 22  1  0
 22 23  1  6
 22 24  1  0
 22 25  1  0
 24 69  1  0
 25 26  1  1
 25 27  1  0
 25 34  1  0
 27 28  1  0
 27 70  1  0
 27 71  1  0
 28 29  2  0
 28 33  1  0
 29 30  1  0
 29 72  1  0
 30 31  2  0
 30 73  1  0
 31 32  1  0
 31 74  1  0
 32 33  2  0
 32 75  1  0
 33 76  1  0
 34 35  1  0
 34 77  1  0
 35 36  2  0
 35 37  1  0
 37 38  1  1
 37 39  1  0
 37 40  1  0
 39 78  1  0
 39 79  1  0
 40 41  1  0
 40 80  1  0
 40 81  1  0
 41 42  2  0
 41 43  1  0
 43 44  1  0
 43 82  1  0
 44 45  2  0
 44 46  1  0
 46 47  1  0
 47 48  1  0
 47 83  1  0
 47 84  1  0
 48 49  2  0
 48 53  1  0
 49 50  1  0
 49 85  1  0
 50 51  2  0
 50 86  1  0
 51 52  1  0
 51 87  1  0
 52 53  2  0
 52 88  1  0
 53 89  1  0
M  END

