
     RDKit          3D

 47 48  0  0  0  0  0  0  0  0999 V2000
   10.9079    3.2116   -7.0530 S   0  0  0  0  0  0  0  0  0  0  0  0
    9.9724    2.0430   -6.0884 C   0  0  0  0  0  0  0  0  0  0  0  0
    8.8112    2.3824   -5.3760 C   0  0  0  0  0  0  0  0  0  0  0  0
    8.1342    1.4226   -4.6244 C   0  0  0  0  0  0  0  0  0  0  0  0
    8.5851    0.0927   -4.5735 C   0  0  0  0  0  0  0  0  0  0  0  0
    7.5982   -1.0723   -3.6511 S   0  0  0  0  0  0  0  0  0  0  0  0
    8.8518   -2.2925   -3.0947 C   0  0  0  0  0  0  0  0  0  0  0  0
    8.4073   -2.9984   -1.8099 C   0  0  1  0  0  0  0  0  0  0  0  0
    6.7648   -3.8298   -1.9836 S   0  0  0  0  0  0  0  0  0  0  0  0
    9.4480   -3.9927   -1.2840 C   0  0  0  0  0  0  0  0  0  0  0  0
   11.0018   -3.1341   -0.7719 S   0  0  0  0  0  0  0  0  0  0  0  0
   12.0111   -4.5713   -0.2289 C   0  0  0  0  0  0  0  0  0  0  0  0
   13.1170   -5.0146   -1.2002 C   0  0  1  0  0  0  0  0  0  0  0  0
   12.4760   -5.5464   -2.8491 S   0  0  0  0  0  0  0  0  0  0  0  0
   14.2429   -3.9861   -1.3772 C   0  0  0  0  0  0  0  0  0  0  0  0
   15.2007   -3.7941    0.1894 S   0  0  0  0  0  0  0  0  0  0  0  0
   15.8817   -2.1528    0.0425 C   0  0  0  0  0  0  0  0  0  0  0  0
   16.0391   -1.3985    1.2161 C   0  0  0  0  0  0  0  0  0  0  0  0
   16.6245   -0.1329    1.1798 C   0  0  0  0  0  0  0  0  0  0  0  0
   17.0518    0.4209   -0.0374 C   0  0  0  0  0  0  0  0  0  0  0  0
   17.7855    2.0365   -0.1747 S   0  0  0  0  0  0  0  0  0  0  0  0
   16.8881   -0.3298   -1.2133 C   0  0  0  0  0  0  0  0  0  0  0  0
   16.3217   -1.6037   -1.1729 C   0  0  0  0  0  0  0  0  0  0  0  0
    9.7395   -0.2472   -5.2980 C   0  0  0  0  0  0  0  0  0  0  0  0
   10.4284    0.7164   -6.0357 C   0  0  0  0  0  0  0  0  0  0  0  0
   10.0944    4.2723   -6.8538 H   0  0  0  0  0  0  0  0  0  0  0  0
    8.4354    3.4086   -5.3913 H   0  0  0  0  0  0  0  0  0  0  0  0
    7.2448    1.7130   -4.0593 H   0  0  0  0  0  0  0  0  0  0  0  0
    9.7956   -1.7565   -2.9116 H   0  0  0  0  0  0  0  0  0  0  0  0
    9.0337   -3.0410   -3.8847 H   0  0  0  0  0  0  0  0  0  0  0  0
    8.2114   -2.2361   -1.0377 H   0  0  0  0  0  0  0  0  0  0  0  0
    7.1328   -4.6707   -2.9808 H   0  0  0  0  0  0  0  0  0  0  0  0
    9.6900   -4.7475   -2.0486 H   0  0  0  0  0  0  0  0  0  0  0  0
    9.0369   -4.5111   -0.4058 H   0  0  0  0  0  0  0  0  0  0  0  0
   11.3293   -5.4075   -0.0191 H   0  0  0  0  0  0  0  0  0  0  0  0
   12.4799   -4.2707    0.7206 H   0  0  0  0  0  0  0  0  0  0  0  0
   13.5487   -5.9480   -0.7978 H   0  0  0  0  0  0  0  0  0  0  0  0
   11.9791   -4.3286   -3.1769 H   0  0  0  0  0  0  0  0  0  0  0  0
   13.8198   -3.0067   -1.6510 H   0  0  0  0  0  0  0  0  0  0  0  0
   14.9134   -4.3164   -2.1822 H   0  0  0  0  0  0  0  0  0  0  0  0
   15.6903   -1.8027    2.1695 H   0  0  0  0  0  0  0  0  0  0  0  0
   16.7314    0.4312    2.1098 H   0  0  0  0  0  0  0  0  0  0  0  0
   17.7918    2.3232    1.1461 H   0  0  0  0  0  0  0  0  0  0  0  0
   17.2188    0.0786   -2.1719 H   0  0  0  0  0  0  0  0  0  0  0  0
   16.2346   -2.1716   -2.1011 H   0  0  0  0  0  0  0  0  0  0  0  0
   10.1096   -1.2740   -5.3042 H   0  0  0  0  0  0  0  0  0  0  0  0
   11.3265    0.4258   -6.5873 H   0  0  0  0  0  0  0  0  0  0  0  0
  1  2  1  0
  1 26  1  0
  2  3  2  0
  2 25  1  0
  3  4  1  0
  3 27  1  0
  4  5  2  0
  4 28  1  0
  5  6  1  0
  5 24  1  0
  6  7  1  0
  7  8  1  0
  7 29  1  0
  7 30  1  0
  8  9  1  0
  8 10  1  0
  8 31  1  1
  9 32  1  0
 10 11  1  0
 10 33  1  0
 10 34  1  0
 11 12  1  0
 12 13  1  0
 12 35  1  0
 12 36  1  0
 13 14  1  0
 13 15  1  0
 13 37  1  1
 14 38  1  0
 15 16  1  0
 15 39  1  0
 15 40  1  0
 16 17  1  0
 17 18  2  0
 17 23  1  0
 18 19  1  0
 18 41  1  0
 19 20  2  0
 19 42  1  0
 20 21  1  0
 20 22  1  0
 21 43  1  0
 22 23  2  0
 22 44  1  0
 23 45  1  0
 24 25  2  0
 24 46  1  0
 25 47  1  0
M  END

