
     RDKit          3D

 58 59  0  0  0  0  0  0  0  0999 V2000
    0.6058    0.6279   -0.6248 C   0  0  0  0  0  0  0  0  0  0  0  0
    1.8665    1.4359   -0.8875 C   0  0  0  0  0  0  0  0  0  0  0  0
    2.9057    0.5372   -1.2114 O   0  0  0  0  0  0  0  0  0  0  0  0
    4.2755    0.9922   -1.2477 C   0  0  1  0  0  0  0  0  0  0  0  0
    4.7578    1.2580    0.2528 C   0  0  1  0  0  0  0  0  0  0  0  0
    4.0344    0.4760    1.2565 N   0  0  0  0  0  0  0  0  0  0  0  0
    4.0955   -0.9753    1.2401 C   0  0  0  0  0  0  0  0  0  0  0  0
    6.2952    1.1420    0.5320 C   0  0  1  0  0  0  0  0  0  0  0  0
    7.2195    2.0755   -0.2833 C   0  0  0  0  0  0  0  0  0  0  0  0
    7.1051    3.5548    0.1167 C   0  0  0  0  0  0  0  0  0  0  0  0
    7.3840    3.7949    1.6176 C   0  0  2  0  0  0  0  0  0  0  0  0
    8.8768    3.6912    1.9970 C   0  0  0  0  0  0  0  0  0  0  0  0
    9.7757    4.7629    1.3756 C   0  0  0  0  0  0  0  0  0  0  0  0
    6.5053    2.8404    2.4541 C   0  0  0  0  0  0  0  0  0  0  0  0
    6.6246    1.3695    2.0286 C   0  0  0  0  0  0  0  0  0  0  0  0
    5.0304   -0.1551   -1.9511 C   0  0  0  0  0  0  0  0  0  0  0  0
    4.5499   -0.3860   -3.3920 C   0  0  0  0  0  0  0  0  0  0  0  0
    4.6423    0.8771   -4.2702 C   0  0  2  0  0  0  0  0  0  0  0  0
    6.0852    1.2334   -4.6576 C   0  0  0  0  0  0  0  0  0  0  0  0
    3.9085    2.0383   -3.5702 C   0  0  0  0  0  0  0  0  0  0  0  0
    4.3745    2.2645   -2.1229 C   0  0  0  0  0  0  0  0  0  0  0  0
   -0.2443    1.2939   -0.4072 H   0  0  0  0  0  0  0  0  0  0  0  0
    0.7448   -0.0526    0.2298 H   0  0  0  0  0  0  0  0  0  0  0  0
    0.3529    0.0162   -1.5046 H   0  0  0  0  0  0  0  0  0  0  0  0
    2.1143    2.0503    0.0011 H   0  0  0  0  0  0  0  0  0  0  0  0
    1.6810    2.1509   -1.7124 H   0  0  0  0  0  0  0  0  0  0  0  0
    4.4722    2.3025    0.4628 H   0  0  0  0  0  0  0  0  0  0  0  0
    3.0688    0.7787    1.3137 H   0  0  0  0  0  0  0  0  0  0  0  0
    5.1395   -1.3212    1.3077 H   0  0  0  0  0  0  0  0  0  0  0  0
    3.6334   -1.4512    0.3540 H   0  0  0  0  0  0  0  0  0  0  0  0
    3.5792   -1.3628    2.1344 H   0  0  0  0  0  0  0  0  0  0  0  0
    6.5890    0.1069    0.2913 H   0  0  0  0  0  0  0  0  0  0  0  0
    7.0645    1.9648   -1.3660 H   0  0  0  0  0  0  0  0  0  0  0  0
    8.2566    1.7386   -0.1114 H   0  0  0  0  0  0  0  0  0  0  0  0
    6.0899    3.9213   -0.1133 H   0  0  0  0  0  0  0  0  0  0  0  0
    7.7847    4.1608   -0.5051 H   0  0  0  0  0  0  0  0  0  0  0  0
    7.0750    4.8303    1.8535 H   0  0  0  0  0  0  0  0  0  0  0  0
    9.2698    2.6928    1.7386 H   0  0  0  0  0  0  0  0  0  0  0  0
    8.9514    3.7604    3.0969 H   0  0  0  0  0  0  0  0  0  0  0  0
    9.8181    4.6870    0.2771 H   0  0  0  0  0  0  0  0  0  0  0  0
   10.8098    4.6769    1.7464 H   0  0  0  0  0  0  0  0  0  0  0  0
    9.4185    5.7773    1.6220 H   0  0  0  0  0  0  0  0  0  0  0  0
    5.4501    3.1536    2.3688 H   0  0  0  0  0  0  0  0  0  0  0  0
    6.7608    2.9392    3.5234 H   0  0  0  0  0  0  0  0  0  0  0  0
    5.9661    0.7547    2.6554 H   0  0  0  0  0  0  0  0  0  0  0  0
    7.6571    1.0200    2.2042 H   0  0  0  0  0  0  0  0  0  0  0  0
    4.9119   -1.0813   -1.3710 H   0  0  0  0  0  0  0  0  0  0  0  0
    6.1059    0.0752   -1.9516 H   0  0  0  0  0  0  0  0  0  0  0  0
    3.5015   -0.7213   -3.3570 H   0  0  0  0  0  0  0  0  0  0  0  0
    5.1317   -1.2060   -3.8474 H   0  0  0  0  0  0  0  0  0  0  0  0
    4.1040    0.6675   -5.2120 H   0  0  0  0  0  0  0  0  0  0  0  0
    6.7163    1.4652   -3.7847 H   0  0  0  0  0  0  0  0  0  0  0  0
    6.1104    2.1141   -5.3203 H   0  0  0  0  0  0  0  0  0  0  0  0
    6.5663    0.3992   -5.1941 H   0  0  0  0  0  0  0  0  0  0  0  0
    2.8284    1.8195   -3.5730 H   0  0  0  0  0  0  0  0  0  0  0  0
    4.0377    2.9708   -4.1468 H   0  0  0  0  0  0  0  0  0  0  0  0
    3.7927    3.0810   -1.6641 H   0  0  0  0  0  0  0  0  0  0  0  0
    5.4142    2.6169   -2.1242 H   0  0  0  0  0  0  0  0  0  0  0  0
  1  2  1  0
  1 22  1  0
  1 23  1  0
  1 24  1  0
  2  3  1  0
  2 25  1  0
  2 26  1  0
  4  3  1  1
  4  5  1  0
  4 16  1  0
  4 21  1  0
  5  6  1  0
  5  8  1  0
  5 27  1  1
  6  7  1  0
  6 28  1  0
  7 29  1  0
  7 30  1  0
  7 31  1  0
  8  9  1  0
  8 15  1  0
  8 32  1  6
  9 10  1  0
  9 33  1  0
  9 34  1  0
 10 11  1  0
 10 35  1  0
 10 36  1  0
 11 12  1  0
 11 14  1  0
 11 37  1  1
 12 13  1  0
 12 38  1  0
 12 39  1  0
 13 40  1  0
 13 41  1  0
 13 42  1  0
 14 15  1  0
 14 43  1  0
 14 44  1  0
 15 45  1  0
 15 46  1  0
 16 17  1  0
 16 47  1  0
 16 48  1  0
 17 18  1  0
 17 49  1  0
 17 50  1  0
 18 19  1  0
 18 20  1  0
 18 51  1  6
 19 52  1  0
 19 53  1  0
 19 54  1  0
 20 21  1  0
 20 55  1  0
 20 56  1  0
 21 57  1  0
 21 58  1  0
M  END

