
     RDKit          3D

 66 70  0  0  0  0  0  0  0  0999 V2000
    1.5967    1.3154    2.3313 C   0  0  0  0  0  0  0  0  0  0  0  0
    1.8509    1.2341    0.5334 S   0  0  0  0  0  0  0  0  0  0  0  0
    3.6180    1.4843    0.4117 C   0  0  0  0  0  0  0  0  0  0  0  0
    4.0506    1.4635   -0.8573 N   0  0  0  0  0  0  0  0  0  0  0  0
    5.3778    1.6481   -0.9929 C   0  0  0  0  0  0  0  0  0  0  0  0
    6.2302    1.8427    0.0784 C   0  0  0  0  0  0  0  0  0  0  0  0
    5.6699    1.8476    1.3899 C   0  0  0  0  0  0  0  0  0  0  0  0
    6.4741    2.0402    2.5518 C   0  0  0  0  0  0  0  0  0  0  0  0
    5.9902    2.0671    3.8548 C   0  0  0  0  0  0  0  0  0  0  0  0
    6.7512    2.2517    5.0493 C   0  0  0  0  0  0  0  0  0  0  0  0
    8.1763    2.4238    5.0770 C   0  0  0  0  0  0  0  0  0  0  0  0
    8.8728    2.5972    6.2624 C   0  0  0  0  0  0  0  0  0  0  0  0
    8.1932    2.6047    7.4914 C   0  0  0  0  0  0  0  0  0  0  0  0
    8.9292    2.8010    8.7365 N   0  0  0  0  0  0  0  0  0  0  0  0
    9.2469    4.1634    9.0859 C   0  0  0  0  0  0  0  0  0  0  0  0
    8.2145    5.0894    9.2873 C   0  0  0  0  0  0  0  0  0  0  0  0
    8.5276    6.4152    9.5867 C   0  0  0  0  0  0  0  0  0  0  0  0
    9.8629    6.8276    9.6697 C   0  0  0  0  0  0  0  0  0  0  0  0
   10.8891    5.9056    9.4499 C   0  0  0  0  0  0  0  0  0  0  0  0
   10.5862    4.5732    9.1570 C   0  0  0  0  0  0  0  0  0  0  0  0
    9.3190    1.7634    9.4983 C   0  0  0  0  0  0  0  0  0  0  0  0
    9.1206    0.4096    9.0471 C   0  0  0  0  0  0  0  0  0  0  0  0
    9.5168   -0.6464    9.8247 C   0  0  0  0  0  0  0  0  0  0  0  0
   10.1185   -0.4655   11.1091 C   0  0  0  0  0  0  0  0  0  0  0  0
   10.4954   -1.6169   11.8687 C   0  0  0  0  0  0  0  0  0  0  0  0
   11.0851   -1.6303   13.1051 C   0  0  0  0  0  0  0  0  0  0  0  0
   11.4334   -2.8570   13.8125 C   0  0  0  0  0  0  0  0  0  0  0  0
   12.0409   -2.7990   15.0774 C   0  0  0  0  0  0  0  0  0  0  0  0
   12.3420   -4.0244   15.6879 C   0  0  0  0  0  0  0  0  0  0  0  0
   12.0728   -5.1878   15.1145 N   0  0  0  0  0  0  0  0  0  0  0  0
   11.4871   -5.1417   13.8990 C   0  0  0  0  0  0  0  0  0  0  0  0
   11.1676   -6.7361   13.2248 S   0  0  0  0  0  0  0  0  0  0  0  0
   10.3925   -6.3229   11.6341 C   0  0  0  0  0  0  0  0  0  0  0  0
   11.1599   -4.0422   13.2295 N   0  0  0  0  0  0  0  0  0  0  0  0
   10.2904    0.8805   11.5638 C   0  0  0  0  0  0  0  0  0  0  0  0
    9.9132    1.9528   10.8004 C   0  0  0  0  0  0  0  0  0  0  0  0
    6.7933    2.4460    7.5109 C   0  0  0  0  0  0  0  0  0  0  0  0
    6.1012    2.2720    6.3235 C   0  0  0  0  0  0  0  0  0  0  0  0
    4.3168    1.6591    1.5158 N   0  0  0  0  0  0  0  0  0  0  0  0
    0.5195    1.1648    2.4963 H   0  0  0  0  0  0  0  0  0  0  0  0
    1.9039    2.2926    2.7283 H   0  0  0  0  0  0  0  0  0  0  0  0
    2.1688    0.5306    2.8446 H   0  0  0  0  0  0  0  0  0  0  0  0
    5.7671    1.6375   -2.0189 H   0  0  0  0  0  0  0  0  0  0  0  0
    7.3023    1.9897   -0.0711 H   0  0  0  0  0  0  0  0  0  0  0  0
    7.5430    2.1767    2.3630 H   0  0  0  0  0  0  0  0  0  0  0  0
    4.9119    1.9349    3.9732 H   0  0  0  0  0  0  0  0  0  0  0  0
    8.7341    2.4228    4.1394 H   0  0  0  0  0  0  0  0  0  0  0  0
    9.9581    2.7314    6.2391 H   0  0  0  0  0  0  0  0  0  0  0  0
    7.1759    4.7694    9.1982 H   0  0  0  0  0  0  0  0  0  0  0  0
    7.7208    7.1334    9.7495 H   0  0  0  0  0  0  0  0  0  0  0  0
   10.1013    7.8697    9.8946 H   0  0  0  0  0  0  0  0  0  0  0  0
   11.9335    6.2234    9.4944 H   0  0  0  0  0  0  0  0  0  0  0  0
   11.3855    3.8543    8.9639 H   0  0  0  0  0  0  0  0  0  0  0  0
    8.6585    0.2471    8.0762 H   0  0  0  0  0  0  0  0  0  0  0  0
    9.3683   -1.6642    9.4568 H   0  0  0  0  0  0  0  0  0  0  0  0
   10.2940   -2.5943   11.4212 H   0  0  0  0  0  0  0  0  0  0  0  0
   11.3237   -0.6980   13.6226 H   0  0  0  0  0  0  0  0  0  0  0  0
   12.2681   -1.8484   15.5622 H   0  0  0  0  0  0  0  0  0  0  0  0
   12.8173   -4.0565   16.6751 H   0  0  0  0  0  0  0  0  0  0  0  0
   10.1626   -7.2863   11.1582 H   0  0  0  0  0  0  0  0  0  0  0  0
   11.0811   -5.7504   10.9984 H   0  0  0  0  0  0  0  0  0  0  0  0
    9.4657   -5.7536   11.7855 H   0  0  0  0  0  0  0  0  0  0  0  0
   10.7183    1.0679   12.5499 H   0  0  0  0  0  0  0  0  0  0  0  0
   10.0370    2.9628   11.1865 H   0  0  0  0  0  0  0  0  0  0  0  0
    6.2535    2.4440    8.4621 H   0  0  0  0  0  0  0  0  0  0  0  0
    5.0165    2.1400    6.3551 H   0  0  0  0  0  0  0  0  0  0  0  0
  1  2  1  0
  1 40  1  0
  1 41  1  0
  1 42  1  0
  2  3  1  0
  3  4  2  0
  3 39  1  0
  4  5  1  0
  5  6  2  0
  5 43  1  0
  6  7  1  0
  6 44  1  0
  7  8  1  0
  7 39  2  0
  8  9  2  0
  8 45  1  0
  9 10  1  0
  9 46  1  0
 10 11  2  0
 10 38  1  0
 11 12  1  0
 11 47  1  0
 12 13  2  0
 12 48  1  0
 13 14  1  0
 13 37  1  0
 14 15  1  0
 14 21  1  0
 15 16  2  0
 15 20  1  0
 16 17  1  0
 16 49  1  0
 17 18  2  0
 17 50  1  0
 18 19  1  0
 18 51  1  0
 19 20  2  0
 19 52  1  0
 20 53  1  0
 21 22  2  0
 21 36  1  0
 22 23  1  0
 22 54  1  0
 23 24  2  0
 23 55  1  0
 24 25  1  0
 24 35  1  0
 25 26  2  0
 25 56  1  0
 26 27  1  0
 26 57  1  0
 27 28  2  0
 27 34  1  0
 28 29  1  0
 28 58  1  0
 29 30  2  0
 29 59  1  0
 30 31  1  0
 31 32  1  0
 31 34  2  0
 32 33  1  0
 33 60  1  0
 33 61  1  0
 33 62  1  0
 35 36  2  0
 35 63  1  0
 36 64  1  0
 37 38  2  0
 37 65  1  0
 38 66  1  0
M  END

