
     RDKit          3D

 69 72  0  0  0  0  0  0  0  0999 V2000
    7.5304   -2.4904   -3.5576 C   0  0  0  0  0  0  0  0  0  0  0  0
    6.6725   -1.7091   -2.5637 C   0  0  1  0  0  0  0  0  0  0  0  0
    7.3677   -0.4018   -2.0554 C   0  0  0  0  0  0  0  0  0  0  0  0
    6.6702    0.7122   -2.8662 C   0  0  0  0  0  0  0  0  0  0  0  0
    5.8810   -0.0451   -3.8371 N   0  0  0  0  0  0  0  0  0  0  0  0
    4.9355    0.6625   -4.6549 C   0  0  0  0  0  0  0  0  0  0  0  0
    5.4238   -1.2432   -3.1958 N   0  0  0  0  0  0  0  0  0  0  0  0
    4.2900   -1.0591   -2.2604 C   0  0  0  0  0  0  0  0  0  0  0  0
    2.9463   -1.4850   -2.8655 C   0  0  0  0  0  0  0  0  0  0  0  0
    2.8702   -2.9770   -3.1975 C   0  0  0  0  0  0  0  0  0  0  0  0
    1.5663   -3.3813   -3.8948 C   0  0  0  0  0  0  0  0  0  0  0  0
    1.5015   -4.8844   -4.1731 C   0  0  0  0  0  0  0  0  0  0  0  0
    0.2078   -5.3979   -4.9094 C   0  0  1  0  0  0  0  0  0  0  0  0
   -1.0723   -4.9271   -4.1459 C   0  0  0  0  0  0  0  0  0  0  0  0
   -2.0419   -4.2661   -4.6552 N   0  0  0  0  0  0  0  0  0  0  0  0
   -1.0669   -5.2364   -2.8068 N   0  0  0  0  0  0  0  0  0  0  0  0
    0.1998   -4.8483   -6.3073 C   0  0  0  0  0  0  0  0  0  0  0  0
    0.2524   -5.6322   -7.3999 C   0  0  0  0  0  0  0  0  0  0  0  0
    0.2753   -7.0783   -7.2844 C   0  0  0  0  0  0  0  0  0  0  0  0
    0.2778   -7.7409   -6.0941 C   0  0  0  0  0  0  0  0  0  0  0  0
    0.3098   -9.2548   -6.0366 C   0  0  2  0  0  0  0  0  0  0  0  0
   -0.9071   -9.8724   -5.3185 C   0  0  0  0  0  0  0  0  0  0  0  0
   -0.8644  -11.3133   -5.4747 N   0  0  0  0  0  0  0  0  0  0  0  0
    0.3194  -12.0170   -5.3083 C   0  0  0  0  0  0  0  0  0  0  0  0
    0.3056  -13.4219   -5.1832 C   0  0  0  0  0  0  0  0  0  0  0  0
    1.4928  -14.1412   -5.0673 C   0  0  0  0  0  0  0  0  0  0  0  0
    2.7244  -13.4776   -5.0786 C   0  0  0  0  0  0  0  0  0  0  0  0
    2.7405  -12.0860   -5.2036 C   0  0  0  0  0  0  0  0  0  0  0  0
    1.5631  -11.3370   -5.3112 C   0  0  0  0  0  0  0  0  0  0  0  0
    1.6002   -9.8243   -5.4082 C   0  0  0  0  0  0  0  0  0  0  0  0
    0.2638   -6.9487   -4.8444 C   0  0  0  0  0  0  0  0  0  0  0  0
    0.3102   -7.4936   -3.7448 O   0  0  0  0  0  0  0  0  0  0  0  0
    8.4793   -2.8047   -3.0931 H   0  0  0  0  0  0  0  0  0  0  0  0
    7.7595   -1.8654   -4.4336 H   0  0  0  0  0  0  0  0  0  0  0  0
    6.9986   -3.3893   -3.9052 H   0  0  0  0  0  0  0  0  0  0  0  0
    6.4108   -2.3694   -1.7237 H   0  0  0  0  0  0  0  0  0  0  0  0
    8.4529   -0.4289   -2.2345 H   0  0  0  0  0  0  0  0  0  0  0  0
    7.2171   -0.2600   -0.9748 H   0  0  0  0  0  0  0  0  0  0  0  0
    7.3733    1.3721   -3.4000 H   0  0  0  0  0  0  0  0  0  0  0  0
    6.0534    1.3640   -2.2074 H   0  0  0  0  0  0  0  0  0  0  0  0
    5.4692    1.4485   -5.2143 H   0  0  0  0  0  0  0  0  0  0  0  0
    4.1122    1.1610   -4.0947 H   0  0  0  0  0  0  0  0  0  0  0  0
    4.4868   -0.0316   -5.3821 H   0  0  0  0  0  0  0  0  0  0  0  0
    4.2217   -0.0130   -1.9056 H   0  0  0  0  0  0  0  0  0  0  0  0
    4.4758   -1.6727   -1.3626 H   0  0  0  0  0  0  0  0  0  0  0  0
    2.7498   -0.8971   -3.7779 H   0  0  0  0  0  0  0  0  0  0  0  0
    2.1434   -1.2194   -2.1537 H   0  0  0  0  0  0  0  0  0  0  0  0
    2.9853   -3.5643   -2.2671 H   0  0  0  0  0  0  0  0  0  0  0  0
    3.7334   -3.2360   -3.8342 H   0  0  0  0  0  0  0  0  0  0  0  0
    1.4780   -2.8080   -4.8340 H   0  0  0  0  0  0  0  0  0  0  0  0
    0.7062   -3.0908   -3.2685 H   0  0  0  0  0  0  0  0  0  0  0  0
    1.5733   -5.4380   -3.2250 H   0  0  0  0  0  0  0  0  0  0  0  0
    2.3724   -5.1897   -4.7791 H   0  0  0  0  0  0  0  0  0  0  0  0
   -1.8927   -4.0788   -5.6463 H   0  0  0  0  0  0  0  0  0  0  0  0
   -0.5743   -6.0901   -2.5528 H   0  0  0  0  0  0  0  0  0  0  0  0
   -1.9607   -5.0852   -2.3495 H   0  0  0  0  0  0  0  0  0  0  0  0
    0.1783   -3.7609   -6.4138 H   0  0  0  0  0  0  0  0  0  0  0  0
    0.2753   -5.1912   -8.3996 H   0  0  0  0  0  0  0  0  0  0  0  0
    0.2945   -7.6623   -8.2105 H   0  0  0  0  0  0  0  0  0  0  0  0
    0.2622   -9.6125   -7.0794 H   0  0  0  0  0  0  0  0  0  0  0  0
   -1.8399   -9.4987   -5.7714 H   0  0  0  0  0  0  0  0  0  0  0  0
   -0.8992   -9.5566   -4.2588 H   0  0  0  0  0  0  0  0  0  0  0  0
   -1.7131  -11.8153   -5.2457 H   0  0  0  0  0  0  0  0  0  0  0  0
   -0.6553  -13.9459   -5.1828 H   0  0  0  0  0  0  0  0  0  0  0  0
    1.4542  -15.2296   -4.9699 H   0  0  0  0  0  0  0  0  0  0  0  0
    3.6592  -14.0359   -4.9917 H   0  0  0  0  0  0  0  0  0  0  0  0
    3.6981  -11.5556   -5.2136 H   0  0  0  0  0  0  0  0  0  0  0  0
    2.4741   -9.5090   -6.0020 H   0  0  0  0  0  0  0  0  0  0  0  0
    1.7254   -9.3855   -4.4047 H   0  0  0  0  0  0  0  0  0  0  0  0
  1  2  1  0
  1 33  1  0
  1 34  1  0
  1 35  1  0
  2  3  1  0
  2  7  1  0
  2 36  1  1
  3  4  1  0
  3 37  1  0
  3 38  1  0
  4  5  1  0
  4 39  1  0
  4 40  1  0
  5  6  1  0
  5  7  1  0
  6 41  1  0
  6 42  1  0
  6 43  1  0
  7  8  1  0
  8  9  1  0
  8 44  1  0
  8 45  1  0
  9 10  1  0
  9 46  1  0
  9 47  1  0
 10 11  1  0
 10 48  1  0
 10 49  1  0
 11 12  1  0
 11 50  1  0
 11 51  1  0
 12 13  1  0
 12 52  1  0
 12 53  1  0
 13 14  1  1
 13 17  1  0
 13 31  1  0
 14 15  2  0
 14 16  1  0
 15 54  1  0
 16 55  1  0
 16 56  1  0
 17 18  2  0
 17 57  1  0
 18 19  1  0
 18 58  1  0
 19 20  2  0
 19 59  1  0
 20 21  1  0
 20 31  1  0
 21 22  1  0
 21 30  1  0
 21 60  1  6
 22 23  1  0
 22 61  1  0
 22 62  1  0
 23 24  1  0
 23 63  1  0
 24 25  2  0
 24 29  1  0
 25 26  1  0
 25 64  1  0
 26 27  2  0
 26 65  1  0
 27 28  1  0
 27 66  1  0
 28 29  2  0
 28 67  1  0
 29 30  1  0
 30 68  1  0
 30 69  1  0
 31 32  2  0
M  END

