
     RDKit          3D

 42 45  0  0  0  0  0  0  0  0999 V2000
    8.4052   -3.0965    0.0458 O   0  0  0  0  0  0  0  0  0  0  0  0
    7.4322   -2.0726    0.0251 C   0  0  1  0  0  0  0  0  0  0  0  0
    7.5409   -1.4588   -0.8949 H   0  0  0  0  0  0  0  0  0  0  0  0
    5.9736   -2.5478    0.1177 C   0  0  0  0  0  0  0  0  0  0  0  0
    5.2412   -1.2802    0.5653 C   0  0  0  0  0  0  0  0  0  0  0  0
    6.1846   -0.6560    1.6280 C   0  0  1  0  0  0  0  0  0  0  0  0
    6.1273    0.4475    1.6175 H   0  0  0  0  0  0  0  0  0  0  0  0
    5.8917   -1.1085    2.9432 O   0  0  0  0  0  0  0  0  0  0  0  0
    4.7986   -0.4717    3.5703 C   0  0  0  0  0  0  0  0  0  0  0  0
    4.8479   -0.7695    5.0518 C   0  0  0  0  0  0  0  0  0  0  0  0
    3.8982   -1.6414    5.5968 C   0  0  0  0  0  0  0  0  0  0  0  0
    3.9095   -1.9984    6.9475 C   0  0  0  0  0  0  0  0  0  0  0  0
    4.8997   -1.4843    7.7860 C   0  0  0  0  0  0  0  0  0  0  0  0
    5.8579   -0.6147    7.2686 C   0  0  0  0  0  0  0  0  0  0  0  0
    5.8467   -0.2397    5.9106 C   0  0  0  0  0  0  0  0  0  0  0  0
    6.8690    0.7089    5.4515 C   0  0  0  0  0  0  0  0  0  0  0  0
    6.9436    1.3844    4.3438 N   0  0  0  0  0  0  0  0  0  0  0  0
    8.0888    2.1563    4.4594 C   0  0  0  0  0  0  0  0  0  0  0  0
    8.6843    3.0801    3.5899 C   0  0  0  0  0  0  0  0  0  0  0  0
    9.8616    3.6972    4.0166 C   0  0  0  0  0  0  0  0  0  0  0  0
   10.4356    3.4075    5.2716 C   0  0  0  0  0  0  0  0  0  0  0  0
    9.8524    2.4883    6.1504 C   0  0  0  0  0  0  0  0  0  0  0  0
    8.6805    1.8872    5.7061 C   0  0  0  0  0  0  0  0  0  0  0  0
    7.8981    0.9656    6.3338 O   0  0  0  0  0  0  0  0  0  0  0  0
    7.5944   -1.1710    1.2599 C   0  0  0  0  0  0  0  0  0  0  0  0
    8.3156   -3.6137   -0.7648 H   0  0  0  0  0  0  0  0  0  0  0  0
    5.9153   -3.3223    0.9009 H   0  0  0  0  0  0  0  0  0  0  0  0
    5.5905   -2.9787   -0.8223 H   0  0  0  0  0  0  0  0  0  0  0  0
    4.2291   -1.4627    0.9569 H   0  0  0  0  0  0  0  0  0  0  0  0
    5.1375   -0.5837   -0.2853 H   0  0  0  0  0  0  0  0  0  0  0  0
    3.8343   -0.8383    3.1666 H   0  0  0  0  0  0  0  0  0  0  0  0
    4.8470    0.6175    3.3979 H   0  0  0  0  0  0  0  0  0  0  0  0
    3.1333   -2.0581    4.9361 H   0  0  0  0  0  0  0  0  0  0  0  0
    3.1521   -2.6822    7.3388 H   0  0  0  0  0  0  0  0  0  0  0  0
    4.9278   -1.7573    8.8436 H   0  0  0  0  0  0  0  0  0  0  0  0
    6.6295   -0.2064    7.9217 H   0  0  0  0  0  0  0  0  0  0  0  0
    8.2369    3.3021    2.6194 H   0  0  0  0  0  0  0  0  0  0  0  0
   10.3540    4.4229    3.3647 H   0  0  0  0  0  0  0  0  0  0  0  0
   11.3587    3.9131    5.5652 H   0  0  0  0  0  0  0  0  0  0  0  0
   10.2878    2.2559    7.1236 H   0  0  0  0  0  0  0  0  0  0  0  0
    7.9586   -1.7925    2.0915 H   0  0  0  0  0  0  0  0  0  0  0  0
    8.3213   -0.3607    1.1050 H   0  0  0  0  0  0  0  0  0  0  0  0
  1  2  1  0
  1 26  1  0
  2  3  1  6
  2  4  1  0
  2 25  1  0
  4  5  1  0
  4 27  1  0
  4 28  1  0
  5  6  1  0
  5 29  1  0
  5 30  1  0
  6  7  1  1
  6  8  1  0
  6 25  1  0
  8  9  1  0
  9 10  1  0
  9 31  1  0
  9 32  1  0
 10 11  2  0
 10 15  1  0
 11 12  1  0
 11 33  1  0
 12 13  2  0
 12 34  1  0
 13 14  1  0
 13 35  1  0
 14 15  2  0
 14 36  1  0
 15 16  1  0
 16 17  2  0
 16 24  1  0
 17 18  1  0
 18 19  2  0
 18 23  1  0
 19 20  1  0
 19 37  1  0
 20 21  2  0
 20 38  1  0
 21 22  1  0
 21 39  1  0
 22 23  2  0
 22 40  1  0
 23 24  1  0
 25 41  1  0
 25 42  1  0
M  END

