
     RDKit          3D

 44 45  0  0  0  0  0  0  0  0999 V2000
    0.7341    0.2692    0.8159 C   0  0  0  0  0  0  0  0  0  0  0  0
    2.2604    0.2784    0.9221 C   0  0  0  0  0  0  0  0  0  0  0  0
    2.8848   -1.0856    0.6027 C   0  0  0  0  0  0  0  0  0  0  0  0
    4.4327   -1.1762    0.6888 C   0  0  1  0  0  0  0  0  0  0  0  0
    4.9058   -0.6725    2.0708 C   0  0  0  0  0  0  0  0  0  0  0  0
    5.6061    0.3204    2.2007 O   0  0  0  0  0  0  0  0  0  0  0  0
    4.4922   -1.4104    3.1494 N   0  0  0  0  0  0  0  0  0  0  0  0
    4.9315   -1.1397    4.5092 C   0  0  0  0  0  0  0  0  0  0  0  0
    3.9186   -0.3793    5.3802 C   0  0  1  0  0  0  0  0  0  0  0  0
    2.5917   -1.1201    5.5095 C   0  0  0  0  0  0  0  0  0  0  0  0
    4.5390    0.1150    6.7130 C   0  0  0  0  0  0  0  0  0  0  0  0
    4.4556    1.4849    6.3090 O   0  0  0  0  0  0  0  0  0  0  0  0
    3.8207    1.1390    5.0658 C   0  0  0  0  0  0  0  0  0  0  0  0
    4.9052   -2.6460    0.4828 C   0  0  0  0  0  0  0  0  0  0  0  0
    4.7436   -3.1420   -0.9626 C   0  0  0  0  0  0  0  0  0  0  0  0
    5.3824   -2.1567   -1.9529 C   0  0  0  0  0  0  0  0  0  0  0  0
    4.9488   -0.7796   -1.7675 N   0  0  0  0  0  0  0  0  0  0  0  0
    5.1213   -0.3035   -0.4042 C   0  0  0  0  0  0  0  0  0  0  0  0
    0.3091    1.2584    1.0485 H   0  0  0  0  0  0  0  0  0  0  0  0
    0.2852   -0.4574    1.5143 H   0  0  0  0  0  0  0  0  0  0  0  0
    0.4015   -0.0044   -0.1996 H   0  0  0  0  0  0  0  0  0  0  0  0
    2.5537    0.5962    1.9373 H   0  0  0  0  0  0  0  0  0  0  0  0
    2.6680    1.0452    0.2421 H   0  0  0  0  0  0  0  0  0  0  0  0
    2.5737   -1.3863   -0.4126 H   0  0  0  0  0  0  0  0  0  0  0  0
    2.4398   -1.8455    1.2717 H   0  0  0  0  0  0  0  0  0  0  0  0
    3.9347   -2.2373    2.9800 H   0  0  0  0  0  0  0  0  0  0  0  0
    5.8598   -0.5549    4.4362 H   0  0  0  0  0  0  0  0  0  0  0  0
    5.1756   -2.0997    4.9986 H   0  0  0  0  0  0  0  0  0  0  0  0
    2.7354   -2.1233    5.9473 H   0  0  0  0  0  0  0  0  0  0  0  0
    2.1073   -1.2454    4.5271 H   0  0  0  0  0  0  0  0  0  0  0  0
    1.8903   -0.5704    6.1566 H   0  0  0  0  0  0  0  0  0  0  0  0
    5.5802   -0.2070    6.9055 H   0  0  0  0  0  0  0  0  0  0  0  0
    3.9352   -0.0994    7.6154 H   0  0  0  0  0  0  0  0  0  0  0  0
    4.3965    1.4806    4.1898 H   0  0  0  0  0  0  0  0  0  0  0  0
    2.7888    1.5328    5.0030 H   0  0  0  0  0  0  0  0  0  0  0  0
    4.3708   -3.3269    1.1686 H   0  0  0  0  0  0  0  0  0  0  0  0
    5.9731   -2.7064    0.7597 H   0  0  0  0  0  0  0  0  0  0  0  0
    3.6740   -3.2681   -1.2069 H   0  0  0  0  0  0  0  0  0  0  0  0
    5.2024   -4.1409   -1.0648 H   0  0  0  0  0  0  0  0  0  0  0  0
    5.1799   -2.4624   -2.9927 H   0  0  0  0  0  0  0  0  0  0  0  0
    6.4816   -2.1850   -1.8281 H   0  0  0  0  0  0  0  0  0  0  0  0
    3.9895   -0.6554   -2.0871 H   0  0  0  0  0  0  0  0  0  0  0  0
    4.7797    0.7384   -0.3327 H   0  0  0  0  0  0  0  0  0  0  0  0
    6.1998   -0.2731   -0.1806 H   0  0  0  0  0  0  0  0  0  0  0  0
  1  2  1  0
  1 19  1  0
  1 20  1  0
  1 21  1  0
  2  3  1  0
  2 22  1  0
  2 23  1  0
  3  4  1  0
  3 24  1  0
  3 25  1  0
  4  5  1  1
  4 14  1  0
  4 18  1  0
  5  6  2  0
  5  7  1  0
  7  8  1  0
  7 26  1  0
  9  8  1  6
  8 27  1  0
  8 28  1  0
  9 10  1  0
  9 11  1  0
  9 13  1  0
 10 29  1  0
 10 30  1  0
 10 31  1  0
 11 12  1  0
 11 32  1  0
 11 33  1  0
 12 13  1  0
 13 34  1  0
 13 35  1  0
 14 15  1  0
 14 36  1  0
 14 37  1  0
 15 16  1  0
 15 38  1  0
 15 39  1  0
 16 17  1  0
 16 40  1  0
 16 41  1  0
 17 18  1  0
 17 42  1  0
 18 43  1  0
 18 44  1  0
M  END

