
     RDKit          3D

 35 36  0  0  0  0  0  0  0  0999 V2000
    1.1198    3.7963   -0.4113 C   0  0  0  0  0  0  0  0  0  0  0  0
    2.4480    3.6190   -0.0043 O   0  0  0  0  0  0  0  0  0  0  0  0
    2.7309    2.3313    0.4878 C   0  0  0  0  0  0  0  0  0  0  0  0
    4.1883    2.2681    0.9195 C   0  0  0  0  0  0  0  0  0  0  0  0
    4.5229    3.2643    2.0355 C   0  0  0  0  0  0  0  0  0  0  0  0
    5.9029    3.1730    2.4736 N   0  0  0  0  0  0  0  0  0  0  0  0
    6.7771    4.2042    2.3693 C   0  0  0  0  0  0  0  0  0  0  0  0
    6.5268    5.2958    1.8852 O   0  0  0  0  0  0  0  0  0  0  0  0
    8.1901    3.9058    2.9004 C   0  0  0  0  0  0  0  0  0  0  0  0
    8.3363    3.8823    4.7377 S   0  0  0  0  0  0  0  0  0  0  0  0
    7.9871    2.1962    5.0752 C   0  0  0  0  0  0  0  0  0  0  0  0
    7.3101    1.3325    4.3384 N   0  0  0  0  0  0  0  0  0  0  0  0
    7.2681    0.1296    4.9610 N   0  0  0  0  0  0  0  0  0  0  0  0
    7.9174    0.2625    6.1012 C   0  0  0  0  0  0  0  0  0  0  0  0
    8.1872   -0.6507    7.1670 C   0  0  0  0  0  0  0  0  0  0  0  0
    7.5773   -2.2600    7.0386 Cl  0  0  0  0  0  0  0  0  0  0  0  0
    8.9164   -0.2317    8.2505 C   0  0  0  0  0  0  0  0  0  0  0  0
    9.4068    1.1146    8.3042 C   0  0  0  0  0  0  0  0  0  0  0  0
   10.3460    1.6101    9.6807 Cl  0  0  0  0  0  0  0  0  0  0  0  0
    9.1553    2.0073    7.3013 C   0  0  0  0  0  0  0  0  0  0  0  0
    8.4085    1.5695    6.2266 N   0  0  0  0  0  0  0  0  0  0  0  0
    1.0119    4.8291   -0.7739 H   0  0  0  0  0  0  0  0  0  0  0  0
    0.4035    3.6387    0.4217 H   0  0  0  0  0  0  0  0  0  0  0  0
    0.8393    3.1040   -1.2321 H   0  0  0  0  0  0  0  0  0  0  0  0
    2.5309    1.5637   -0.2899 H   0  0  0  0  0  0  0  0  0  0  0  0
    2.0654    2.0924    1.3471 H   0  0  0  0  0  0  0  0  0  0  0  0
    4.8335    2.4688    0.0478 H   0  0  0  0  0  0  0  0  0  0  0  0
    4.4071    1.2383    1.2528 H   0  0  0  0  0  0  0  0  0  0  0  0
    3.8485    3.0942    2.8959 H   0  0  0  0  0  0  0  0  0  0  0  0
    4.3557    4.2900    1.6824 H   0  0  0  0  0  0  0  0  0  0  0  0
    6.2247    2.3206    2.9415 H   0  0  0  0  0  0  0  0  0  0  0  0
    8.8343    4.7367    2.5869 H   0  0  0  0  0  0  0  0  0  0  0  0
    8.5909    2.9559    2.5181 H   0  0  0  0  0  0  0  0  0  0  0  0
    9.1293   -0.9158    9.0716 H   0  0  0  0  0  0  0  0  0  0  0  0
    9.5088    3.0373    7.2889 H   0  0  0  0  0  0  0  0  0  0  0  0
  1  2  1  0
  1 22  1  0
  1 23  1  0
  1 24  1  0
  2  3  1  0
  3  4  1  0
  3 25  1  0
  3 26  1  0
  4  5  1  0
  4 27  1  0
  4 28  1  0
  5  6  1  0
  5 29  1  0
  5 30  1  0
  6  7  1  0
  6 31  1  0
  7  8  2  0
  7  9  1  0
  9 10  1  0
  9 32  1  0
  9 33  1  0
 10 11  1  0
 11 12  2  0
 11 21  1  0
 12 13  1  0
 13 14  2  0
 14 15  1  0
 14 21  1  0
 15 16  1  0
 15 17  2  0
 17 18  1  0
 17 34  1  0
 18 19  1  0
 18 20  2  0
 20 21  1  0
 20 35  1  0
M  END

