
     RDKit          3D

 66 70  0  0  0  0  0  0  0  0999 V2000
    2.7312   -0.5699   -1.1936 C   0  0  0  0  0  0  0  0  0  0  0  0
    2.1829   -0.5736    0.1053 O   0  0  0  0  0  0  0  0  0  0  0  0
    2.6739    0.2902    1.0194 C   0  0  0  0  0  0  0  0  0  0  0  0
    3.6900    1.1959    0.7943 C   0  0  0  0  0  0  0  0  0  0  0  0
    4.1442    2.0722    1.8225 C   0  0  0  0  0  0  0  0  0  0  0  0
    5.1502    2.9425    1.5374 N   0  0  0  0  0  0  0  0  0  0  0  0
    5.5548    3.7438    2.5006 C   0  0  0  0  0  0  0  0  0  0  0  0
    5.0212    3.7639    3.8108 C   0  0  0  0  0  0  0  0  0  0  0  0
    3.9979    2.8806    4.1122 C   0  0  0  0  0  0  0  0  0  0  0  0
    3.3846    2.7918    5.3280 O   0  0  0  0  0  0  0  0  0  0  0  0
    3.8357    3.5361    6.4042 C   0  0  0  0  0  0  0  0  0  0  0  0
    3.1824    4.7188    6.7521 C   0  0  0  0  0  0  0  0  0  0  0  0
    3.5752    5.4463    7.8776 C   0  0  0  0  0  0  0  0  0  0  0  0
    4.6430    4.9864    8.6704 C   0  0  0  0  0  0  0  0  0  0  0  0
    5.1100    5.6526    9.8176 N   0  0  0  0  0  0  0  0  0  0  0  0
    4.6242    6.8216   10.3931 C   0  0  0  0  0  0  0  0  0  0  0  0
    3.6746    7.4462    9.9597 O   0  0  0  0  0  0  0  0  0  0  0  0
    5.3508    7.1879   11.5173 N   0  0  0  0  0  0  0  0  0  0  0  0
    5.1463    8.2899   12.3688 C   0  0  0  0  0  0  0  0  0  0  0  0
    4.1043    9.2140   12.2198 C   0  0  0  0  0  0  0  0  0  0  0  0
    4.0010   10.2626   13.1362 C   0  0  0  0  0  0  0  0  0  0  0  0
    4.8840   10.4479   14.2092 C   0  0  0  0  0  0  0  0  0  0  0  0
    4.7164   11.6045   15.1313 C   0  0  0  0  0  0  0  0  0  0  0  0
    4.8161   11.4696   16.5299 C   0  0  0  0  0  0  0  0  0  0  0  0
    4.6056   12.5620   17.3730 C   0  0  0  0  0  0  0  0  0  0  0  0
    4.2955   13.8183   16.8424 C   0  0  0  0  0  0  0  0  0  0  0  0
    4.1978   13.9706   15.4569 C   0  0  0  0  0  0  0  0  0  0  0  0
    4.4065   12.8769   14.6134 C   0  0  0  0  0  0  0  0  0  0  0  0
    5.9339    9.5016   14.3420 C   0  0  0  0  0  0  0  0  0  0  0  0
    6.8029    9.6873   15.3700 O   0  0  0  0  0  0  0  0  0  0  0  0
    7.9061    8.8278   15.5277 C   0  0  0  0  0  0  0  0  0  0  0  0
    6.0566    8.4457   13.4326 C   0  0  0  0  0  0  0  0  0  0  0  0
    5.2924    3.7901    8.3083 C   0  0  0  0  0  0  0  0  0  0  0  0
    4.8941    3.0674    7.1863 C   0  0  0  0  0  0  0  0  0  0  0  0
    3.5210    1.9943    3.1050 C   0  0  0  0  0  0  0  0  0  0  0  0
    2.4733    1.0575    3.3301 C   0  0  0  0  0  0  0  0  0  0  0  0
    2.0496    0.2189    2.3197 C   0  0  0  0  0  0  0  0  0  0  0  0
    1.0666   -0.7023    2.4297 O   0  0  0  0  0  0  0  0  0  0  0  0
    0.4006   -0.8377    3.6638 C   0  0  0  0  0  0  0  0  0  0  0  0
    2.1910   -1.3380   -1.7629 H   0  0  0  0  0  0  0  0  0  0  0  0
    3.8080   -0.8174   -1.1836 H   0  0  0  0  0  0  0  0  0  0  0  0
    2.5990    0.4082   -1.6901 H   0  0  0  0  0  0  0  0  0  0  0  0
    4.1858    1.2816   -0.1711 H   0  0  0  0  0  0  0  0  0  0  0  0
    6.3652    4.4418    2.2537 H   0  0  0  0  0  0  0  0  0  0  0  0
    5.4086    4.4607    4.5541 H   0  0  0  0  0  0  0  0  0  0  0  0
    2.3513    5.0680    6.1359 H   0  0  0  0  0  0  0  0  0  0  0  0
    3.0634    6.3648    8.1531 H   0  0  0  0  0  0  0  0  0  0  0  0
    5.8865    5.1926   10.2766 H   0  0  0  0  0  0  0  0  0  0  0  0
    6.1423    6.6091   11.7693 H   0  0  0  0  0  0  0  0  0  0  0  0
    3.3918    9.1053   11.4072 H   0  0  0  0  0  0  0  0  0  0  0  0
    3.1736   10.9667   13.0216 H   0  0  0  0  0  0  0  0  0  0  0  0
    5.0532   10.4954   16.9581 H   0  0  0  0  0  0  0  0  0  0  0  0
    4.6806   12.4294   18.4558 H   0  0  0  0  0  0  0  0  0  0  0  0
    4.1337   14.6727   17.5047 H   0  0  0  0  0  0  0  0  0  0  0  0
    3.9644   14.9484   15.0270 H   0  0  0  0  0  0  0  0  0  0  0  0
    4.3467   13.0139   13.5309 H   0  0  0  0  0  0  0  0  0  0  0  0
    8.4637    9.1933   16.4005 H   0  0  0  0  0  0  0  0  0  0  0  0
    8.5726    8.8464   14.6462 H   0  0  0  0  0  0  0  0  0  0  0  0
    7.5947    7.7841   15.7166 H   0  0  0  0  0  0  0  0  0  0  0  0
    6.8713    7.7278   13.5387 H   0  0  0  0  0  0  0  0  0  0  0  0
    6.1205    3.4157    8.9183 H   0  0  0  0  0  0  0  0  0  0  0  0
    5.3963    2.1367    6.9149 H   0  0  0  0  0  0  0  0  0  0  0  0
    2.0187    1.0232    4.3180 H   0  0  0  0  0  0  0  0  0  0  0  0
   -0.3484   -1.6297    3.5303 H   0  0  0  0  0  0  0  0  0  0  0  0
   -0.1107    0.0968    3.9582 H   0  0  0  0  0  0  0  0  0  0  0  0
    1.0938   -1.1296    4.4736 H   0  0  0  0  0  0  0  0  0  0  0  0
  1  2  1  0
  1 40  1  0
  1 41  1  0
  1 42  1  0
  2  3  1  0
  3  4  2  0
  3 37  1  0
  4  5  1  0
  4 43  1  0
  5  6  2  0
  5 35  1  0
  6  7  1  0
  7  8  2  0
  7 44  1  0
  8  9  1  0
  8 45  1  0
  9 10  1  0
  9 35  2  0
 10 11  1  0
 11 12  2  0
 11 34  1  0
 12 13  1  0
 12 46  1  0
 13 14  2  0
 13 47  1  0
 14 15  1  0
 14 33  1  0
 15 16  1  0
 15 48  1  0
 16 17  2  0
 16 18  1  0
 18 19  1  0
 18 49  1  0
 19 20  2  0
 19 32  1  0
 20 21  1  0
 20 50  1  0
 21 22  2  0
 21 51  1  0
 22 23  1  0
 22 29  1  0
 23 24  2  0
 23 28  1  0
 24 25  1  0
 24 52  1  0
 25 26  2  0
 25 53  1  0
 26 27  1  0
 26 54  1  0
 27 28  2  0
 27 55  1  0
 28 56  1  0
 29 30  1  0
 29 32  2  0
 30 31  1  0
 31 57  1  0
 31 58  1  0
 31 59  1  0
 32 60  1  0
 33 34  2  0
 33 61  1  0
 34 62  1  0
 35 36  1  0
 36 37  2  0
 36 63  1  0
 37 38  1  0
 38 39  1  0
 39 64  1  0
 39 65  1  0
 39 66  1  0
M  END

