
     RDKit          3D

 51 54  0  0  0  0  0  0  0  0999 V2000
    1.4973   -0.4427    0.1017 O   0  0  0  0  0  0  0  0  0  0  0  0
    2.7083   -0.4844   -0.0819 C   0  0  0  0  0  0  0  0  0  0  0  0
    3.3030    0.0628   -1.3422 C   0  0  0  0  0  0  0  0  0  0  0  0
    2.4821    0.4849   -2.3224 C   0  0  0  0  0  0  0  0  0  0  0  0
    2.9050    1.0870   -3.5979 C   0  0  0  0  0  0  0  0  0  0  0  0
    4.1421    1.7523   -3.7057 C   0  0  0  0  0  0  0  0  0  0  0  0
    4.5644    2.3268   -4.9033 C   0  0  0  0  0  0  0  0  0  0  0  0
    3.7510    2.2564   -6.0363 C   0  0  0  0  0  0  0  0  0  0  0  0
    2.5157    1.6110   -5.9563 C   0  0  0  0  0  0  0  0  0  0  0  0
    2.0873    1.0348   -4.7563 C   0  0  0  0  0  0  0  0  0  0  0  0
    0.7452    0.3329   -4.7270 C   0  0  1  0  0  0  0  0  0  0  0  0
   -0.1103    0.9196   -3.8655 F   0  0  0  0  0  0  0  0  0  0  0  0
    0.1480    0.3388   -5.9311 F   0  0  0  0  0  0  0  0  0  0  0  0
    0.8612   -0.9534   -4.3507 F   0  0  0  0  0  0  0  0  0  0  0  0
    3.5590   -1.0162    0.8671 N   0  0  0  0  0  0  0  0  0  0  0  0
    4.9939   -1.2446    0.7509 C   0  0  0  0  0  0  0  0  0  0  0  0
    5.7515   -0.5851    1.9109 C   0  0  0  0  0  0  0  0  0  0  0  0
    5.2445   -1.0727    3.2887 C   0  0  1  0  0  0  0  0  0  0  0  0
    3.6997   -0.8983    3.3317 C   0  0  0  0  0  0  0  0  0  0  0  0
    2.9893   -1.5083    2.1184 C   0  0  0  0  0  0  0  0  0  0  0  0
    5.6610   -2.5571    3.5371 C   0  0  0  0  0  0  0  0  0  0  0  0
    5.9360   -2.7070    5.0442 C   0  0  1  0  0  0  0  0  0  0  0  0
    6.8788   -3.6973    5.3904 O   0  0  0  0  0  0  0  0  0  0  0  0
    6.3045   -1.2978    5.4575 C   0  0  0  0  0  0  0  0  0  0  0  0
    6.9371   -0.9310    6.6435 C   0  0  0  0  0  0  0  0  0  0  0  0
    7.1571    0.4253    6.8950 C   0  0  0  0  0  0  0  0  0  0  0  0
    6.7211    1.3848    5.9778 C   0  0  0  0  0  0  0  0  0  0  0  0
    6.0843    0.9955    4.7911 C   0  0  0  0  0  0  0  0  0  0  0  0
    5.4716    2.4254    3.6637 Br  0  0  0  0  0  0  0  0  0  0  0  0
    5.8929   -0.3615    4.4904 C   0  0  0  0  0  0  0  0  0  0  0  0
    4.3843    0.1192   -1.4675 H   0  0  0  0  0  0  0  0  0  0  0  0
    1.4125    0.3608   -2.1381 H   0  0  0  0  0  0  0  0  0  0  0  0
    4.7721    1.8423   -2.8186 H   0  0  0  0  0  0  0  0  0  0  0  0
    5.5276    2.8412   -4.9479 H   0  0  0  0  0  0  0  0  0  0  0  0
    4.0709    2.7069   -6.9786 H   0  0  0  0  0  0  0  0  0  0  0  0
    1.8740    1.5500   -6.8356 H   0  0  0  0  0  0  0  0  0  0  0  0
    5.3714   -0.8581   -0.2014 H   0  0  0  0  0  0  0  0  0  0  0  0
    5.1851   -2.3352    0.7388 H   0  0  0  0  0  0  0  0  0  0  0  0
    5.6223    0.5024    1.8266 H   0  0  0  0  0  0  0  0  0  0  0  0
    6.8299   -0.7946    1.8144 H   0  0  0  0  0  0  0  0  0  0  0  0
    3.4674    0.1777    3.3724 H   0  0  0  0  0  0  0  0  0  0  0  0
    3.2944   -1.3479    4.2535 H   0  0  0  0  0  0  0  0  0  0  0  0
    1.9229   -1.2542    2.1173 H   0  0  0  0  0  0  0  0  0  0  0  0
    3.0635   -2.6126    2.1398 H   0  0  0  0  0  0  0  0  0  0  0  0
    6.6084   -2.7642    3.0085 H   0  0  0  0  0  0  0  0  0  0  0  0
    4.9262   -3.2882    3.1722 H   0  0  0  0  0  0  0  0  0  0  0  0
    5.0150   -3.0072    5.5752 H   0  0  0  0  0  0  0  0  0  0  0  0
    7.7335   -3.4390    5.0166 H   0  0  0  0  0  0  0  0  0  0  0  0
    7.2503   -1.7009    7.3527 H   0  0  0  0  0  0  0  0  0  0  0  0
    7.6561    0.7473    7.8124 H   0  0  0  0  0  0  0  0  0  0  0  0
    6.8682    2.4469    6.1804 H   0  0  0  0  0  0  0  0  0  0  0  0
  1  2  2  0
  2  3  1  0
  2 15  1  0
  3  4  2  0
  3 31  1  0
  4  5  1  0
  4 32  1  0
  5  6  2  0
  5 10  1  0
  6  7  1  0
  6 33  1  0
  7  8  2  0
  7 34  1  0
  8  9  1  0
  8 35  1  0
  9 10  2  0
  9 36  1  0
 10 11  1  0
 11 12  1  1
 11 13  1  0
 11 14  1  0
 15 16  1  0
 15 20  1  0
 16 17  1  0
 16 37  1  0
 16 38  1  0
 18 17  1  6
 17 39  1  0
 17 40  1  0
 18 19  1  0
 18 21  1  0
 18 30  1  0
 19 20  1  0
 19 41  1  0
 19 42  1  0
 20 43  1  0
 20 44  1  0
 21 22  1  0
 21 45  1  0
 21 46  1  0
 22 23  1  0
 22 24  1  0
 22 47  1  1
 23 48  1  0
 24 25  1  0
 24 30  2  0
 25 26  2  0
 25 49  1  0
 26 27  1  0
 26 50  1  0
 27 28  2  0
 27 51  1  0
 28 29  1  0
 28 30  1  0
M  END

