
     RDKit          3D

 58 60  0  0  0  0  0  0  0  0999 V2000
    4.3230    5.8185   -2.1086 C   0  0  0  0  0  0  0  0  0  0  0  0
    3.2375    4.9985   -1.4327 C   0  0  0  0  0  0  0  0  0  0  0  0
    3.7021    4.4171   -0.1980 O   0  0  0  0  0  0  0  0  0  0  0  0
    4.2949    3.2131   -0.2492 C   0  0  0  0  0  0  0  0  0  0  0  0
    4.4350    2.5895   -1.2827 O   0  0  0  0  0  0  0  0  0  0  0  0
    4.7581    2.7234    1.1155 C   0  0  0  0  0  0  0  0  0  0  0  0
    6.2529    2.6183    1.2890 C   0  0  0  0  0  0  0  0  0  0  0  0
    7.0258    3.2071    2.3421 C   0  0  0  0  0  0  0  0  0  0  0  0
    6.8452    4.4799    2.9956 C   0  0  0  0  0  0  0  0  0  0  0  0
    5.9616    5.4295    2.3804 C   0  0  0  0  0  0  0  0  0  0  0  0
    5.6462    6.6689    2.9252 C   0  0  0  0  0  0  0  0  0  0  0  0
    4.7242    7.6213    2.1992 C   0  0  0  0  0  0  0  0  0  0  0  0
    6.2286    7.0337    4.1528 C   0  0  0  0  0  0  0  0  0  0  0  0
    7.1297    6.1514    4.7611 C   0  0  0  0  0  0  0  0  0  0  0  0
    7.4638    4.9031    4.2328 C   0  0  0  0  0  0  0  0  0  0  0  0
    8.4691    4.0729    5.0004 C   0  0  0  0  0  0  0  0  0  0  0  0
    8.1658    2.2650    2.6025 C   0  0  1  0  0  0  0  0  0  0  0  0
    7.9408    1.2833    3.6100 O   0  0  0  0  0  0  0  0  0  0  0  0
    8.2107    1.4338    1.3903 N   0  0  0  0  0  0  0  0  0  0  0  0
    7.0772    1.6025    0.4842 C   0  0  2  0  0  0  0  0  0  0  0  0
    7.6441    2.1522   -0.8679 C   0  0  0  0  0  0  0  0  0  0  0  0
    8.4928    1.1525   -1.6641 C   0  0  0  0  0  0  0  0  0  0  0  0
    7.7445   -0.1666   -1.9049 C   0  0  1  0  0  0  0  0  0  0  0  0
    8.5533   -1.1469   -2.5252 O   0  0  0  0  0  0  0  0  0  0  0  0
    8.7480   -0.9930   -3.9081 C   0  0  0  0  0  0  0  0  0  0  0  0
    7.2606   -0.7527   -0.5794 C   0  0  0  0  0  0  0  0  0  0  0  0
    6.3985    0.2356    0.2131 C   0  0  0  0  0  0  0  0  0  0  0  0
    3.9180    6.3002   -3.0132 H   0  0  0  0  0  0  0  0  0  0  0  0
    5.1662    5.1799   -2.4111 H   0  0  0  0  0  0  0  0  0  0  0  0
    4.7005    6.6062   -1.4385 H   0  0  0  0  0  0  0  0  0  0  0  0
    2.8813    4.1934   -2.0917 H   0  0  0  0  0  0  0  0  0  0  0  0
    2.3859    5.6296   -1.1399 H   0  0  0  0  0  0  0  0  0  0  0  0
    4.2691    1.7336    1.2396 H   0  0  0  0  0  0  0  0  0  0  0  0
    4.3474    3.3800    1.8910 H   0  0  0  0  0  0  0  0  0  0  0  0
    5.5440    5.1846    1.4049 H   0  0  0  0  0  0  0  0  0  0  0  0
    4.1951    7.1198    1.3749 H   0  0  0  0  0  0  0  0  0  0  0  0
    5.2792    8.4774    1.7758 H   0  0  0  0  0  0  0  0  0  0  0  0
    3.9662    8.0421    2.8811 H   0  0  0  0  0  0  0  0  0  0  0  0
    5.9929    7.9931    4.6205 H   0  0  0  0  0  0  0  0  0  0  0  0
    7.5974    6.4480    5.7057 H   0  0  0  0  0  0  0  0  0  0  0  0
    8.6672    4.5270    5.9827 H   0  0  0  0  0  0  0  0  0  0  0  0
    9.4470    4.0088    4.4888 H   0  0  0  0  0  0  0  0  0  0  0  0
    8.1354    3.0407    5.1772 H   0  0  0  0  0  0  0  0  0  0  0  0
    9.1590    2.6997    2.7771 H   0  0  0  0  0  0  0  0  0  0  0  0
    6.9785    1.2686    3.7428 H   0  0  0  0  0  0  0  0  0  0  0  0
    8.7483    0.5673    1.4320 H   0  0  0  0  0  0  0  0  0  0  0  0
    8.2034    3.0779   -0.6641 H   0  0  0  0  0  0  0  0  0  0  0  0
    6.7523    2.4355   -1.4449 H   0  0  0  0  0  0  0  0  0  0  0  0
    9.4376    0.9138   -1.1427 H   0  0  0  0  0  0  0  0  0  0  0  0
    8.7828    1.6114   -2.6233 H   0  0  0  0  0  0  0  0  0  0  0  0
    6.8580    0.0428   -2.5409 H   0  0  0  0  0  0  0  0  0  0  0  0
    9.3286   -1.8591   -4.2581 H   0  0  0  0  0  0  0  0  0  0  0  0
    9.3116   -0.0752   -4.1655 H   0  0  0  0  0  0  0  0  0  0  0  0
    7.7866   -0.9687   -4.4596 H   0  0  0  0  0  0  0  0  0  0  0  0
    8.1526   -1.0734   -0.0075 H   0  0  0  0  0  0  0  0  0  0  0  0
    6.6929   -1.6753   -0.7782 H   0  0  0  0  0  0  0  0  0  0  0  0
    6.0738   -0.2078    1.1687 H   0  0  0  0  0  0  0  0  0  0  0  0
    5.4908    0.4686   -0.3624 H   0  0  0  0  0  0  0  0  0  0  0  0
  1  2  1  0
  1 28  1  0
  1 29  1  0
  1 30  1  0
  2  3  1  0
  2 31  1  0
  2 32  1  0
  3  4  1  0
  4  5  2  0
  4  6  1  0
  6  7  1  0
  6 33  1  0
  6 34  1  0
  7  8  2  0
 20  7  1  1
  8  9  1  0
  8 17  1  0
  9 10  2  0
  9 15  1  0
 10 11  1  0
 10 35  1  0
 11 12  1  0
 11 13  2  0
 12 36  1  0
 12 37  1  0
 12 38  1  0
 13 14  1  0
 13 39  1  0
 14 15  2  0
 14 40  1  0
 15 16  1  0
 16 41  1  0
 16 42  1  0
 16 43  1  0
 17 18  1  0
 17 19  1  0
 17 44  1  6
 18 45  1  0
 19 20  1  0
 19 46  1  0
 20 21  1  0
 20 27  1  0
 21 22  1  0
 21 47  1  0
 21 48  1  0
 22 23  1  0
 22 49  1  0
 22 50  1  0
 23 24  1  0
 23 26  1  0
 23 51  1  1
 24 25  1  0
 25 52  1  0
 25 53  1  0
 25 54  1  0
 26 27  1  0
 26 55  1  0
 26 56  1  0
 27 57  1  0
 27 58  1  0
M  END

