
     RDKit          3D

 79 83  0  0  0  0  0  0  0  0999 V2000
    0.5859   -0.5878    0.6060 C   0  0  0  0  0  0  0  0  0  0  0  0
    2.0501   -0.2826    0.4404 C   0  0  0  0  0  0  0  0  0  0  0  0
    2.5862    0.9426    0.8520 C   0  0  0  0  0  0  0  0  0  0  0  0
    3.9392    1.2534    0.7128 C   0  0  0  0  0  0  0  0  0  0  0  0
    4.7907    0.2969    0.1386 C   0  0  0  0  0  0  0  0  0  0  0  0
    6.2347    0.6348    0.0100 C   0  0  0  0  0  0  0  0  0  0  0  0
    6.6901    1.7542    0.1961 O   0  0  0  0  0  0  0  0  0  0  0  0
    7.0676   -0.4411   -0.3335 N   0  0  0  0  0  0  0  0  0  0  0  0
    8.4304   -0.4273   -0.5608 C   0  0  0  0  0  0  0  0  0  0  0  0
    9.2112    0.7346   -0.4499 C   0  0  0  0  0  0  0  0  0  0  0  0
   10.5969    0.6947   -0.6924 C   0  0  0  0  0  0  0  0  0  0  0  0
   11.3524    1.8783   -0.5984 N   0  0  0  0  0  0  0  0  0  0  0  0
   10.6901    3.1324   -0.2568 C   0  0  0  0  0  0  0  0  0  0  0  0
   12.6654    1.9340   -1.1301 C   0  0  0  0  0  0  0  0  0  0  0  0
   12.6461    1.9934   -2.7419 C   0  0  0  0  0  0  0  0  0  0  0  0
   13.9264    1.8329   -3.3251 N   0  0  0  0  0  0  0  0  0  0  0  0
   14.5190    0.5117   -3.3660 C   0  0  0  0  0  0  0  0  0  0  0  0
   14.8189    2.9676   -3.4294 C   0  0  0  0  0  0  0  0  0  0  0  0
   11.2138   -0.5214   -1.0458 C   0  0  0  0  0  0  0  0  0  0  0  0
   10.4286   -1.6702   -1.1712 C   0  0  0  0  0  0  0  0  0  0  0  0
   11.1266   -2.9471   -1.5822 C   0  0  1  0  0  0  0  0  0  0  0  0
   12.0329   -3.3229   -0.6612 F   0  0  0  0  0  0  0  0  0  0  0  0
   10.2820   -3.9594   -1.7686 F   0  0  0  0  0  0  0  0  0  0  0  0
   11.8112   -2.7607   -2.7356 F   0  0  0  0  0  0  0  0  0  0  0  0
    9.0600   -1.6400   -0.9382 C   0  0  0  0  0  0  0  0  0  0  0  0
    4.2798   -0.9341   -0.2950 C   0  0  0  0  0  0  0  0  0  0  0  0
    2.9151   -1.2541   -0.1494 C   0  0  0  0  0  0  0  0  0  0  0  0
    2.4002   -2.4577   -0.5585 N   0  0  0  0  0  0  0  0  0  0  0  0
    3.0107   -3.5918   -1.1143 C   0  0  0  0  0  0  0  0  0  0  0  0
    4.3338   -3.6542   -1.3790 N   0  0  0  0  0  0  0  0  0  0  0  0
    4.7635   -4.8141   -1.9116 C   0  0  0  0  0  0  0  0  0  0  0  0
    4.0717   -5.8946   -2.2072 N   0  0  0  0  0  0  0  0  0  0  0  0
    2.7229   -5.8434   -1.9405 C   0  0  0  0  0  0  0  0  0  0  0  0
    1.8374   -6.9002   -2.1887 C   0  0  0  0  0  0  0  0  0  0  0  0
    0.5063   -6.8151   -1.9120 N   0  0  0  0  0  0  0  0  0  0  0  0
    0.0754   -5.6609   -1.3843 C   0  0  0  0  0  0  0  0  0  0  0  0
   -1.2667   -5.5795   -1.1068 N   0  0  0  0  0  0  0  0  0  0  0  0
   -2.1795   -6.6533   -1.3387 C   0  0  0  0  0  0  0  0  0  0  0  0
   -3.5868   -6.3012   -0.9039 C   0  0  0  0  0  0  0  0  0  0  0  0
   -4.6223   -7.2445   -1.0454 C   0  0  0  0  0  0  0  0  0  0  0  0
   -5.9095   -6.9055   -0.6410 C   0  0  0  0  0  0  0  0  0  0  0  0
   -6.1360   -5.6323   -0.1044 C   0  0  0  0  0  0  0  0  0  0  0  0
   -5.0492   -4.7647   -0.0034 C   0  0  0  0  0  0  0  0  0  0  0  0
   -3.8108   -5.0876   -0.3907 N   0  0  0  0  0  0  0  0  0  0  0  0
    0.8028   -4.5705   -1.0932 N   0  0  0  0  0  0  0  0  0  0  0  0
    2.1384   -4.6664   -1.3754 C   0  0  0  0  0  0  0  0  0  0  0  0
    0.0523    0.2488    1.0789 H   0  0  0  0  0  0  0  0  0  0  0  0
    0.4260   -1.4885    1.2252 H   0  0  0  0  0  0  0  0  0  0  0  0
    0.1023   -0.7938   -0.3658 H   0  0  0  0  0  0  0  0  0  0  0  0
    1.9119    1.6772    1.3025 H   0  0  0  0  0  0  0  0  0  0  0  0
    4.3426    2.2102    1.0442 H   0  0  0  0  0  0  0  0  0  0  0  0
    6.6043   -1.3395   -0.4230 H   0  0  0  0  0  0  0  0  0  0  0  0
    8.6925    1.6472   -0.1770 H   0  0  0  0  0  0  0  0  0  0  0  0
   10.1518    3.0323    0.6957 H   0  0  0  0  0  0  0  0  0  0  0  0
    9.9592    3.4374   -1.0250 H   0  0  0  0  0  0  0  0  0  0  0  0
   11.4453    3.9205   -0.1480 H   0  0  0  0  0  0  0  0  0  0  0  0
   13.2527    1.0516   -0.8440 H   0  0  0  0  0  0  0  0  0  0  0  0
   13.1833    2.8256   -0.7537 H   0  0  0  0  0  0  0  0  0  0  0  0
   12.2128    2.9584   -3.0388 H   0  0  0  0  0  0  0  0  0  0  0  0
   11.9833    1.1772   -3.0659 H   0  0  0  0  0  0  0  0  0  0  0  0
   13.7361   -0.2548   -3.4446 H   0  0  0  0  0  0  0  0  0  0  0  0
   15.1216    0.3071   -2.4594 H   0  0  0  0  0  0  0  0  0  0  0  0
   15.1890    0.4310   -4.2343 H   0  0  0  0  0  0  0  0  0  0  0  0
   14.2428    3.8892   -3.5849 H   0  0  0  0  0  0  0  0  0  0  0  0
   15.5030    2.8272   -4.2789 H   0  0  0  0  0  0  0  0  0  0  0  0
   15.4362    3.0861   -2.5177 H   0  0  0  0  0  0  0  0  0  0  0  0
   12.2856   -0.6046   -1.2072 H   0  0  0  0  0  0  0  0  0  0  0  0
    8.4685   -2.5491   -1.0518 H   0  0  0  0  0  0  0  0  0  0  0  0
    4.8743   -1.7071   -0.7833 H   0  0  0  0  0  0  0  0  0  0  0  0
    1.4035   -2.6385   -0.4452 H   0  0  0  0  0  0  0  0  0  0  0  0
    5.8414   -4.8558   -2.1267 H   0  0  0  0  0  0  0  0  0  0  0  0
    2.2134   -7.8323   -2.6195 H   0  0  0  0  0  0  0  0  0  0  0  0
   -1.6330   -4.7295   -0.6981 H   0  0  0  0  0  0  0  0  0  0  0  0
   -1.8619   -7.5763   -0.8130 H   0  0  0  0  0  0  0  0  0  0  0  0
   -2.1991   -6.9481   -2.4078 H   0  0  0  0  0  0  0  0  0  0  0  0
   -4.4057   -8.2288   -1.4687 H   0  0  0  0  0  0  0  0  0  0  0  0
   -6.7291   -7.6223   -0.7408 H   0  0  0  0  0  0  0  0  0  0  0  0
   -7.1292   -5.3208    0.2269 H   0  0  0  0  0  0  0  0  0  0  0  0
   -5.1815   -3.7578    0.4108 H   0  0  0  0  0  0  0  0  0  0  0  0
  1  2  1  0
  1 47  1  0
  1 48  1  0
  1 49  1  0
  2  3  2  0
  2 27  1  0
  3  4  1  0
  3 50  1  0
  4  5  2  0
  4 51  1  0
  5  6  1  0
  5 26  1  0
  6  7  2  0
  6  8  1  0
  8  9  1  0
  8 52  1  0
  9 10  2  0
  9 25  1  0
 10 11  1  0
 10 53  1  0
 11 12  1  0
 11 19  2  0
 12 13  1  0
 12 14  1  0
 13 54  1  0
 13 55  1  0
 13 56  1  0
 14 15  1  0
 14 57  1  0
 14 58  1  0
 15 16  1  0
 15 59  1  0
 15 60  1  0
 16 17  1  0
 16 18  1  0
 17 61  1  0
 17 62  1  0
 17 63  1  0
 18 64  1  0
 18 65  1  0
 18 66  1  0
 19 20  1  0
 19 67  1  0
 20 21  1  0
 20 25  2  0
 21 22  1  1
 21 23  1  0
 21 24  1  0
 25 68  1  0
 26 27  2  0
 26 69  1  0
 27 28  1  0
 28 29  1  0
 28 70  1  0
 29 30  2  0
 29 46  1  0
 30 31  1  0
 31 32  2  0
 31 71  1  0
 32 33  1  0
 33 34  1  0
 33 46  2  0
 34 35  2  0
 34 72  1  0
 35 36  1  0
 36 37  1  0
 36 45  2  0
 37 38  1  0
 37 73  1  0
 38 39  1  0
 38 74  1  0
 38 75  1  0
 39 40  2  0
 39 44  1  0
 40 41  1  0
 40 76  1  0
 41 42  2  0
 41 77  1  0
 42 43  1  0
 42 78  1  0
 43 44  2  0
 43 79  1  0
 45 46  1  0
M  END

