
     RDKit          3D

 53 57  0  0  0  0  0  0  0  0999 V2000
    1.6212   -0.1533    0.8762 O   0  0  0  0  0  0  0  0  0  0  0  0
    2.6110   -0.1125    0.1275 C   0  0  0  0  0  0  0  0  0  0  0  0
    3.0337    1.2053   -0.6451 C   0  0  0  0  0  0  0  0  0  0  0  0
    2.4760    2.2755   -0.5387 O   0  0  0  0  0  0  0  0  0  0  0  0
    4.1199    0.8889   -1.3838 N   0  0  0  0  0  0  0  0  0  0  0  0
    4.8488    1.8460   -2.1487 C   0  0  0  0  0  0  0  0  0  0  0  0
    4.1767    2.7508   -2.9840 C   0  0  0  0  0  0  0  0  0  0  0  0
    4.8958    3.6800   -3.7280 C   0  0  0  0  0  0  0  0  0  0  0  0
    6.2927    3.7018   -3.6595 C   0  0  0  0  0  0  0  0  0  0  0  0
    6.9020    4.6482   -4.4670 O   0  0  0  0  0  0  0  0  0  0  0  0
    8.1777    5.0573   -4.2695 C   0  0  1  0  0  0  0  0  0  0  0  0
    8.3842    5.4812   -3.0167 F   0  0  0  0  0  0  0  0  0  0  0  0
    9.0694    4.0832   -4.5142 F   0  0  0  0  0  0  0  0  0  0  0  0
    8.4107    6.0557   -5.1055 F   0  0  0  0  0  0  0  0  0  0  0  0
    6.9771    2.8013   -2.8395 C   0  0  0  0  0  0  0  0  0  0  0  0
    6.2471    1.8869   -2.0775 C   0  0  0  0  0  0  0  0  0  0  0  0
    4.5009   -0.5450   -1.2889 C   0  0  2  0  0  0  0  0  0  0  0  0
    4.4585   -1.2043   -2.6603 C   0  0  0  0  0  0  0  0  0  0  0  0
    3.2487   -1.4995   -3.3008 C   0  0  0  0  0  0  0  0  0  0  0  0
    3.2794   -2.0726   -4.5706 C   0  0  0  0  0  0  0  0  0  0  0  0
    4.5242   -2.3342   -5.1556 C   0  0  0  0  0  0  0  0  0  0  0  0
    5.6839   -2.0655   -4.5546 N   0  0  0  0  0  0  0  0  0  0  0  0
    5.6431   -1.5168   -3.3400 C   0  0  0  0  0  0  0  0  0  0  0  0
    3.5227   -1.0901   -0.2747 C   0  0  0  0  0  0  0  0  0  0  0  0
    3.3027   -2.4627    0.1061 C   0  0  0  0  0  0  0  0  0  0  0  0
    2.1369   -2.7538    0.7159 O   0  0  0  0  0  0  0  0  0  0  0  0
    4.2279   -3.5462   -0.1067 C   0  0  0  0  0  0  0  0  0  0  0  0
    5.6112   -3.2645   -0.1239 C   0  0  0  0  0  0  0  0  0  0  0  0
    6.5811   -4.2576   -0.3093 C   0  0  0  0  0  0  0  0  0  0  0  0
    6.2068   -5.5774   -0.4830 C   0  0  0  0  0  0  0  0  0  0  0  0
    4.8314   -5.9405   -0.4698 C   0  0  0  0  0  0  0  0  0  0  0  0
    4.4508   -7.2991   -0.6563 C   0  0  0  0  0  0  0  0  0  0  0  0
    3.1249   -7.6773   -0.6778 C   0  0  0  0  0  0  0  0  0  0  0  0
    2.1228   -6.6972   -0.5158 C   0  0  0  0  0  0  0  0  0  0  0  0
    2.4593   -5.3683   -0.3208 C   0  0  0  0  0  0  0  0  0  0  0  0
    3.8132   -4.9384   -0.2808 C   0  0  0  0  0  0  0  0  0  0  0  0
    3.0879    2.7359   -3.0442 H   0  0  0  0  0  0  0  0  0  0  0  0
    4.3882    4.3955   -4.3768 H   0  0  0  0  0  0  0  0  0  0  0  0
    8.0643    2.8018   -2.7804 H   0  0  0  0  0  0  0  0  0  0  0  0
    6.7854    1.2030   -1.4204 H   0  0  0  0  0  0  0  0  0  0  0  0
    5.5369   -0.5756   -0.9227 H   0  0  0  0  0  0  0  0  0  0  0  0
    2.2966   -1.2918   -2.8051 H   0  0  0  0  0  0  0  0  0  0  0  0
    2.3567   -2.3211   -5.0997 H   0  0  0  0  0  0  0  0  0  0  0  0
    4.5812   -2.7847   -6.1536 H   0  0  0  0  0  0  0  0  0  0  0  0
    6.6116   -1.3163   -2.8645 H   0  0  0  0  0  0  0  0  0  0  0  0
    1.6324   -1.9319    0.8935 H   0  0  0  0  0  0  0  0  0  0  0  0
    5.9483   -2.2527    0.0964 H   0  0  0  0  0  0  0  0  0  0  0  0
    7.6390   -3.9833   -0.2914 H   0  0  0  0  0  0  0  0  0  0  0  0
    6.9581   -6.3578   -0.6254 H   0  0  0  0  0  0  0  0  0  0  0  0
    5.2408   -8.0435   -0.7886 H   0  0  0  0  0  0  0  0  0  0  0  0
    2.8510   -8.7254   -0.8234 H   0  0  0  0  0  0  0  0  0  0  0  0
    1.0691   -6.9865   -0.5406 H   0  0  0  0  0  0  0  0  0  0  0  0
    1.6662   -4.6375   -0.1886 H   0  0  0  0  0  0  0  0  0  0  0  0
  1  2  2  0
  2  3  1  0
  2 24  1  0
  3  4  2  0
  3  5  1  0
  5  6  1  0
  5 17  1  0
  6  7  2  0
  6 16  1  0
  7  8  1  0
  7 37  1  0
  8  9  2  0
  8 38  1  0
  9 10  1  0
  9 15  1  0
 10 11  1  0
 11 12  1  1
 11 13  1  0
 11 14  1  0
 15 16  2  0
 15 39  1  0
 16 40  1  0
 17 18  1  0
 17 24  1  0
 17 41  1  1
 18 19  2  0
 18 23  1  0
 19 20  1  0
 19 42  1  0
 20 21  2  0
 20 43  1  0
 21 22  1  0
 21 44  1  0
 22 23  2  0
 23 45  1  0
 24 25  2  0
 25 26  1  0
 25 27  1  0
 26 46  1  0
 27 28  2  0
 27 36  1  0
 28 29  1  0
 28 47  1  0
 29 30  2  0
 29 48  1  0
 30 31  1  0
 30 49  1  0
 31 32  1  0
 31 36  2  0
 32 33  2  0
 32 50  1  0
 33 34  1  0
 33 51  1  0
 34 35  2  0
 34 52  1  0
 35 36  1  0
 35 53  1  0
M  END

