
     RDKit          3D

 51 51  0  0  0  0  0  0  0  0999 V2000
    3.7992    2.5180   -0.8189 C   0  0  0  0  0  0  0  0  0  0  0  0
    3.5874    1.0573   -0.4195 C   0  0  0  0  0  0  0  0  0  0  0  0
    4.4447    0.0724   -1.2219 C   0  0  0  0  0  0  0  0  0  0  0  0
    4.2285   -1.3904   -0.8188 C   0  0  0  0  0  0  0  0  0  0  0  0
    4.9564   -2.4227   -1.6909 C   0  0  0  0  0  0  0  0  0  0  0  0
    6.5075   -2.3413   -1.6929 C   0  0  1  0  0  0  0  0  0  0  0  0
    7.1316   -2.6127   -0.3119 C   0  0  0  0  0  0  0  0  0  0  0  0
    8.6678   -2.5628   -0.2610 C   0  0  0  0  0  0  0  0  0  0  0  0
    9.3202   -1.2364   -0.6792 C   0  0  0  0  0  0  0  0  0  0  0  0
    8.9513   -0.0258    0.1861 C   0  0  0  0  0  0  0  0  0  0  0  0
    9.7105    1.2444   -0.2021 C   0  0  0  0  0  0  0  0  0  0  0  0
    7.0352   -3.2838   -2.6587 N   0  0  0  0  0  0  0  0  0  0  0  0
    7.3708   -3.0679   -3.9892 C   0  0  0  0  0  0  0  0  0  0  0  0
    7.3229   -1.7695   -4.5471 C   0  0  0  0  0  0  0  0  0  0  0  0
    7.6946   -1.6317   -5.9266 C   0  0  0  0  0  0  0  0  0  0  0  0
    8.0724   -2.7643   -6.6642 C   0  0  0  0  0  0  0  0  0  0  0  0
    8.0942   -4.0738   -6.1210 C   0  0  0  0  0  0  0  0  0  0  0  0
    8.6006   -5.2372   -6.9207 C   0  0  0  0  0  0  0  0  0  0  0  0
    8.2614   -5.1782   -8.2986 O   0  0  0  0  0  0  0  0  0  0  0  0
    7.7601   -4.2121   -4.7257 C   0  0  0  0  0  0  0  0  0  0  0  0
    3.1661    3.1952   -0.2240 H   0  0  0  0  0  0  0  0  0  0  0  0
    3.5550    2.6820   -1.8817 H   0  0  0  0  0  0  0  0  0  0  0  0
    4.8475    2.8274   -0.6708 H   0  0  0  0  0  0  0  0  0  0  0  0
    2.5218    0.7912   -0.5425 H   0  0  0  0  0  0  0  0  0  0  0  0
    3.8039    0.9326    0.6573 H   0  0  0  0  0  0  0  0  0  0  0  0
    5.5083    0.3487   -1.1002 H   0  0  0  0  0  0  0  0  0  0  0  0
    4.2252    0.1897   -2.2993 H   0  0  0  0  0  0  0  0  0  0  0  0
    3.1492   -1.6177   -0.8769 H   0  0  0  0  0  0  0  0  0  0  0  0
    4.4967   -1.5250    0.2439 H   0  0  0  0  0  0  0  0  0  0  0  0
    4.6286   -2.3108   -2.7378 H   0  0  0  0  0  0  0  0  0  0  0  0
    4.6640   -3.4399   -1.3748 H   0  0  0  0  0  0  0  0  0  0  0  0
    6.8040   -1.3408   -2.0319 H   0  0  0  0  0  0  0  0  0  0  0  0
    6.7901   -3.6050    0.0388 H   0  0  0  0  0  0  0  0  0  0  0  0
    6.7066   -1.8883    0.3998 H   0  0  0  0  0  0  0  0  0  0  0  0
    9.0762   -3.3677   -0.8962 H   0  0  0  0  0  0  0  0  0  0  0  0
    8.9784   -2.8078    0.7702 H   0  0  0  0  0  0  0  0  0  0  0  0
    9.0888   -1.0189   -1.7383 H   0  0  0  0  0  0  0  0  0  0  0  0
   10.4156   -1.3732   -0.6462 H   0  0  0  0  0  0  0  0  0  0  0  0
    9.1480   -0.2645    1.2477 H   0  0  0  0  0  0  0  0  0  0  0  0
    7.8658    0.1703    0.1206 H   0  0  0  0  0  0  0  0  0  0  0  0
   10.7999    1.1053   -0.1024 H   0  0  0  0  0  0  0  0  0  0  0  0
    9.4244    2.0980    0.4329 H   0  0  0  0  0  0  0  0  0  0  0  0
    9.5109    1.5258   -1.2495 H   0  0  0  0  0  0  0  0  0  0  0  0
    7.0608   -4.2565   -2.3600 H   0  0  0  0  0  0  0  0  0  0  0  0
    7.0138   -0.9045   -3.9634 H   0  0  0  0  0  0  0  0  0  0  0  0
    7.6683   -0.6509   -6.4041 H   0  0  0  0  0  0  0  0  0  0  0  0
    8.3547   -2.6487   -7.7150 H   0  0  0  0  0  0  0  0  0  0  0  0
    8.2493   -6.1819   -6.4498 H   0  0  0  0  0  0  0  0  0  0  0  0
    9.7104   -5.2966   -6.9122 H   0  0  0  0  0  0  0  0  0  0  0  0
    7.3149   -4.9736   -8.3383 H   0  0  0  0  0  0  0  0  0  0  0  0
    7.7731   -5.1924   -4.2407 H   0  0  0  0  0  0  0  0  0  0  0  0
  1  2  1  0
  1 21  1  0
  1 22  1  0
  1 23  1  0
  2  3  1  0
  2 24  1  0
  2 25  1  0
  3  4  1  0
  3 26  1  0
  3 27  1  0
  4  5  1  0
  4 28  1  0
  4 29  1  0
  5  6  1  0
  5 30  1  0
  5 31  1  0
  6  7  1  0
  6 12  1  0
  6 32  1  6
  7  8  1  0
  7 33  1  0
  7 34  1  0
  8  9  1  0
  8 35  1  0
  8 36  1  0
  9 10  1  0
  9 37  1  0
  9 38  1  0
 10 11  1  0
 10 39  1  0
 10 40  1  0
 11 41  1  0
 11 42  1  0
 11 43  1  0
 12 13  1  0
 12 44  1  0
 13 14  2  0
 13 20  1  0
 14 15  1  0
 14 45  1  0
 15 16  2  0
 15 46  1  0
 16 17  1  0
 16 47  1  0
 17 18  1  0
 17 20  2  0
 18 19  1  0
 18 48  1  0
 18 49  1  0
 19 50  1  0
 20 51  1  0
M  END

