
     RDKit          3D

 32 33  0  0  0  0  0  0  0  0999 V2000
    2.2361    0.3005   -0.8956 N   0  0  0  0  0  0  0  0  0  0  0  0
    1.9279    0.2989    0.4394 C   0  0  0  0  0  0  0  0  0  0  0  0
    0.7974    0.0853    0.8421 O   0  0  0  0  0  0  0  0  0  0  0  0
    3.0712    0.5630    1.3874 C   0  0  0  0  0  0  0  0  0  0  0  0
    2.7500    0.9256    2.7041 C   0  0  0  0  0  0  0  0  0  0  0  0
    3.7544    1.1798    3.6361 C   0  0  0  0  0  0  0  0  0  0  0  0
    5.1076    1.0657    3.2757 C   0  0  0  0  0  0  0  0  0  0  0  0
    6.2027    1.3171    4.2849 C   0  0  0  0  0  0  0  0  0  0  0  0
    6.5921    0.1054    4.9704 O   0  0  0  0  0  0  0  0  0  0  0  0
    5.9587   -0.2037    6.1076 C   0  0  0  0  0  0  0  0  0  0  0  0
    5.0409    0.4401    6.5646 O   0  0  0  0  0  0  0  0  0  0  0  0
    6.4582   -1.4722    6.7396 C   0  0  0  0  0  0  0  0  0  0  0  0
    5.4936   -2.1624    7.5003 C   0  0  0  0  0  0  0  0  0  0  0  0
    5.7824   -3.3691    8.1298 C   0  0  0  0  0  0  0  0  0  0  0  0
    7.0673   -3.9062    8.0232 C   0  0  0  0  0  0  0  0  0  0  0  0
    8.0505   -3.2283    7.3001 C   0  0  0  0  0  0  0  0  0  0  0  0
    7.7557   -2.0186    6.6573 C   0  0  0  0  0  0  0  0  0  0  0  0
    9.4196   -1.0887    5.6908 I   0  0  0  0  0  0  0  0  0  0  0  0
    5.4275    0.6843    1.9647 C   0  0  0  0  0  0  0  0  0  0  0  0
    4.4221    0.4341    1.0293 C   0  0  0  0  0  0  0  0  0  0  0  0
    1.4596    0.2026   -1.5396 H   0  0  0  0  0  0  0  0  0  0  0  0
    3.0877    0.7191   -1.2440 H   0  0  0  0  0  0  0  0  0  0  0  0
    1.6950    0.9991    2.9748 H   0  0  0  0  0  0  0  0  0  0  0  0
    3.4976    1.4554    4.6612 H   0  0  0  0  0  0  0  0  0  0  0  0
    5.8900    2.0617    5.0290 H   0  0  0  0  0  0  0  0  0  0  0  0
    7.1222    1.6540    3.7876 H   0  0  0  0  0  0  0  0  0  0  0  0
    4.5013   -1.7142    7.5764 H   0  0  0  0  0  0  0  0  0  0  0  0
    5.0096   -3.8865    8.7027 H   0  0  0  0  0  0  0  0  0  0  0  0
    7.3168   -4.8522    8.5106 H   0  0  0  0  0  0  0  0  0  0  0  0
    9.0587   -3.6402    7.2404 H   0  0  0  0  0  0  0  0  0  0  0  0
    6.4761    0.5739    1.6744 H   0  0  0  0  0  0  0  0  0  0  0  0
    4.7015    0.1085    0.0243 H   0  0  0  0  0  0  0  0  0  0  0  0
  1  2  1  0
  1 21  1  0
  1 22  1  0
  2  3  2  0
  2  4  1  0
  4  5  2  0
  4 20  1  0
  5  6  1  0
  5 23  1  0
  6  7  2  0
  6 24  1  0
  7  8  1  0
  7 19  1  0
  8  9  1  0
  8 25  1  0
  8 26  1  0
  9 10  1  0
 10 11  2  0
 10 12  1  0
 12 13  2  0
 12 17  1  0
 13 14  1  0
 13 27  1  0
 14 15  2  0
 14 28  1  0
 15 16  1  0
 15 29  1  0
 16 17  2  0
 16 30  1  0
 17 18  1  0
 19 20  2  0
 19 31  1  0
 20 32  1  0
M  END

