
     RDKit          3D

 50 53  0  0  0  0  0  0  0  0999 V2000
    9.9596   -4.0186   -9.2063 C   0  0  0  0  0  0  0  0  0  0  0  0
    9.3649   -3.9087   -7.8252 C   0  0  0  0  0  0  0  0  0  0  0  0
   10.0218   -4.4295   -6.7009 C   0  0  0  0  0  0  0  0  0  0  0  0
    9.4701   -4.3164   -5.4224 C   0  0  0  0  0  0  0  0  0  0  0  0
    8.2306   -3.6833   -5.2352 C   0  0  0  0  0  0  0  0  0  0  0  0
    7.5436   -3.5643   -3.9103 C   0  0  0  0  0  0  0  0  0  0  0  0
    6.3629   -3.2971   -3.8334 O   0  0  0  0  0  0  0  0  0  0  0  0
    8.3191   -3.8952   -2.6110 C   0  0  2  0  0  0  0  0  0  0  0  0
    8.5190   -4.9793   -2.6352 H   0  0  0  0  0  0  0  0  0  0  0  0
    7.5328   -3.5487   -1.3572 C   0  0  0  0  0  0  0  0  0  0  0  0
    9.6549   -3.3335   -2.5739 O   0  0  0  0  0  0  0  0  0  0  0  0
    9.8008   -2.0126   -2.7838 C   0  0  0  0  0  0  0  0  0  0  0  0
    8.8892   -1.2726   -3.0679 O   0  0  0  0  0  0  0  0  0  0  0  0
   11.2228   -1.5626   -2.6374 C   0  0  0  0  0  0  0  0  0  0  0  0
   12.2432   -2.4384   -2.2195 C   0  0  0  0  0  0  0  0  0  0  0  0
   13.5659   -1.9966   -2.0860 C   0  0  0  0  0  0  0  0  0  0  0  0
   13.8305   -0.6647   -2.3827 C   0  0  0  0  0  0  0  0  0  0  0  0
   12.8214    0.2070   -2.7950 C   0  0  0  0  0  0  0  0  0  0  0  0
   11.5068   -0.2146   -2.9293 C   0  0  0  0  0  0  0  0  0  0  0  0
   13.4247    1.5527   -3.0301 C   0  0  0  0  0  0  0  0  0  0  0  0
   12.8770    2.5647   -3.3886 O   0  0  0  0  0  0  0  0  0  0  0  0
   14.8089    1.4111   -2.7396 N   0  0  0  0  0  0  0  0  0  0  0  0
   15.7610    2.4668   -2.8369 C   0  0  0  0  0  0  0  0  0  0  0  0
   15.4148    3.7682   -2.4425 C   0  0  0  0  0  0  0  0  0  0  0  0
   16.3442    4.8031   -2.5440 C   0  0  0  0  0  0  0  0  0  0  0  0
   17.6277    4.5373   -3.0281 C   0  0  0  0  0  0  0  0  0  0  0  0
   18.7945    5.8326   -3.1488 Cl  0  0  0  0  0  0  0  0  0  0  0  0
   17.9848    3.2436   -3.4169 C   0  0  0  0  0  0  0  0  0  0  0  0
   17.0507    2.2118   -3.3275 C   0  0  0  0  0  0  0  0  0  0  0  0
   15.1212    0.0868   -2.3423 C   0  0  0  0  0  0  0  0  0  0  0  0
   16.2131   -0.3281   -2.0407 O   0  0  0  0  0  0  0  0  0  0  0  0
    7.5615   -3.1708   -6.3628 C   0  0  0  0  0  0  0  0  0  0  0  0
    8.1224   -3.2758   -7.6300 C   0  0  0  0  0  0  0  0  0  0  0  0
   10.9366   -4.5231   -9.1912 H   0  0  0  0  0  0  0  0  0  0  0  0
   10.0988   -3.0226   -9.6586 H   0  0  0  0  0  0  0  0  0  0  0  0
    9.2957   -4.5852   -9.8807 H   0  0  0  0  0  0  0  0  0  0  0  0
   10.9846   -4.9325   -6.8264 H   0  0  0  0  0  0  0  0  0  0  0  0
   10.0169   -4.7292   -4.5735 H   0  0  0  0  0  0  0  0  0  0  0  0
    8.1102   -3.8272   -0.4632 H   0  0  0  0  0  0  0  0  0  0  0  0
    6.5829   -4.1002   -1.3552 H   0  0  0  0  0  0  0  0  0  0  0  0
    7.2973   -2.4765   -1.3278 H   0  0  0  0  0  0  0  0  0  0  0  0
   11.9864   -3.4745   -1.9966 H   0  0  0  0  0  0  0  0  0  0  0  0
   14.3635   -2.6681   -1.7617 H   0  0  0  0  0  0  0  0  0  0  0  0
   10.7089    0.4578   -3.2489 H   0  0  0  0  0  0  0  0  0  0  0  0
   14.4140    3.9790   -2.0690 H   0  0  0  0  0  0  0  0  0  0  0  0
   16.0754    5.8167   -2.2427 H   0  0  0  0  0  0  0  0  0  0  0  0
   18.9898    3.0464   -3.7929 H   0  0  0  0  0  0  0  0  0  0  0  0
   17.3327    1.2036   -3.6273 H   0  0  0  0  0  0  0  0  0  0  0  0
    6.5929   -2.6902   -6.2134 H   0  0  0  0  0  0  0  0  0  0  0  0
    7.5895   -2.8623   -8.4912 H   0  0  0  0  0  0  0  0  0  0  0  0
  1  2  1  0
  1 34  1  0
  1 35  1  0
  1 36  1  0
  2  3  2  0
  2 33  1  0
  3  4  1  0
  3 37  1  0
  4  5  2  0
  4 38  1  0
  5  6  1  0
  5 32  1  0
  6  7  2  0
  6  8  1  0
  8  9  1  1
  8 10  1  0
  8 11  1  0
 10 39  1  0
 10 40  1  0
 10 41  1  0
 11 12  1  0
 12 13  2  0
 12 14  1  0
 14 15  2  0
 14 19  1  0
 15 16  1  0
 15 42  1  0
 16 17  2  0
 16 43  1  0
 17 18  1  0
 17 30  1  0
 18 19  2  0
 18 20  1  0
 19 44  1  0
 20 21  2  0
 20 22  1  0
 22 23  1  0
 22 30  1  0
 23 24  2  0
 23 29  1  0
 24 25  1  0
 24 45  1  0
 25 26  2  0
 25 46  1  0
 26 27  1  0
 26 28  1  0
 28 29  2  0
 28 47  1  0
 29 48  1  0
 30 31  2  0
 32 33  2  0
 32 49  1  0
 33 50  1  0
M  END

