
     RDKit          3D

 50 49  0  0  0  0  0  0  0  0999 V2000
    0.7914    1.5768    0.1789 C   0  0  0  0  0  0  0  0  0  0  0  0
    2.1658    2.1198   -0.2370 C   0  0  0  0  0  0  0  0  0  0  0  0
    3.3249    1.2220    0.2214 C   0  0  1  0  0  0  0  0  0  0  0  0
    3.3150   -0.0889   -0.4372 N   0  0  0  0  0  0  0  0  0  0  0  0
    4.8016    1.7218    0.1819 C   0  0  1  0  0  0  0  0  0  0  0  0
    5.4433    1.4852   -1.1222 N   0  0  0  0  0  0  0  0  0  0  0  0
    4.7733    1.8604   -2.3412 C   0  0  0  0  0  0  0  0  0  0  0  0
    6.7476    0.8478   -1.3108 C   0  0  0  0  0  0  0  0  0  0  0  0
    7.3051   -0.1058   -0.2547 C   0  0  0  0  0  0  0  0  0  0  0  0
    6.7977   -1.5551   -0.3568 C   0  0  0  0  0  0  0  0  0  0  0  0
    7.3268   -2.3631    0.7313 N   0  0  0  0  0  0  0  0  0  0  0  0
    6.4799   -2.3945    1.9160 C   0  0  0  0  0  0  0  0  0  0  0  0
    7.7898   -3.6766    0.3399 C   0  0  0  0  0  0  0  0  0  0  0  0
    5.1760    3.1366    0.7882 C   0  0  1  0  0  0  0  0  0  0  0  0
    4.4459    3.2544    2.1433 C   0  0  0  0  0  0  0  0  0  0  0  0
    6.6910    3.1761    1.0953 C   0  0  0  0  0  0  0  0  0  0  0  0
    4.8437    4.3434   -0.1119 C   0  0  0  0  0  0  0  0  0  0  0  0
   -0.0040    2.2934   -0.0824 H   0  0  0  0  0  0  0  0  0  0  0  0
    0.7518    1.4045    1.2675 H   0  0  0  0  0  0  0  0  0  0  0  0
    0.5488    0.6210   -0.3146 H   0  0  0  0  0  0  0  0  0  0  0  0
    2.2786    3.1184    0.2167 H   0  0  0  0  0  0  0  0  0  0  0  0
    2.1735    2.2722   -1.3294 H   0  0  0  0  0  0  0  0  0  0  0  0
    3.1833    1.0623    1.3248 H   0  0  0  0  0  0  0  0  0  0  0  0
    2.3485   -0.4090   -0.5371 H   0  0  0  0  0  0  0  0  0  0  0  0
    3.7329   -0.7633    0.2588 H   0  0  0  0  0  0  0  0  0  0  0  0
    5.2820    0.9945    0.8788 H   0  0  0  0  0  0  0  0  0  0  0  0
    4.1174    2.7180   -2.1782 H   0  0  0  0  0  0  0  0  0  0  0  0
    4.1487    0.9941   -2.6252 H   0  0  0  0  0  0  0  0  0  0  0  0
    5.5040    2.0784   -3.1338 H   0  0  0  0  0  0  0  0  0  0  0  0
    7.4456    1.6993   -1.4457 H   0  0  0  0  0  0  0  0  0  0  0  0
    6.7077    0.3549   -2.2961 H   0  0  0  0  0  0  0  0  0  0  0  0
    7.1195    0.2713    0.7608 H   0  0  0  0  0  0  0  0  0  0  0  0
    8.4004   -0.1197   -0.3827 H   0  0  0  0  0  0  0  0  0  0  0  0
    7.1337   -1.9789   -1.3196 H   0  0  0  0  0  0  0  0  0  0  0  0
    5.6875   -1.5585   -0.3765 H   0  0  0  0  0  0  0  0  0  0  0  0
    6.0932   -1.3798    2.1636 H   0  0  0  0  0  0  0  0  0  0  0  0
    7.0496   -2.7909    2.7771 H   0  0  0  0  0  0  0  0  0  0  0  0
    5.5686   -3.0206    1.7746 H   0  0  0  0  0  0  0  0  0  0  0  0
    8.5209   -3.5998   -0.4837 H   0  0  0  0  0  0  0  0  0  0  0  0
    6.9742   -4.3631    0.0100 H   0  0  0  0  0  0  0  0  0  0  0  0
    8.2952   -4.1620    1.1918 H   0  0  0  0  0  0  0  0  0  0  0  0
    4.6287    2.3545    2.7597 H   0  0  0  0  0  0  0  0  0  0  0  0
    3.3582    3.3789    2.0377 H   0  0  0  0  0  0  0  0  0  0  0  0
    4.8305    4.1358    2.6832 H   0  0  0  0  0  0  0  0  0  0  0  0
    6.9786    2.3485    1.7645 H   0  0  0  0  0  0  0  0  0  0  0  0
    6.9380    4.1216    1.6034 H   0  0  0  0  0  0  0  0  0  0  0  0
    7.3132    3.1353    0.1869 H   0  0  0  0  0  0  0  0  0  0  0  0
    3.7854    4.3835   -0.4064 H   0  0  0  0  0  0  0  0  0  0  0  0
    5.4613    4.3659   -1.0259 H   0  0  0  0  0  0  0  0  0  0  0  0
    5.0628    5.2740    0.4384 H   0  0  0  0  0  0  0  0  0  0  0  0
  1  2  1  0
  1 18  1  0
  1 19  1  0
  1 20  1  0
  2  3  1  0
  2 21  1  0
  2 22  1  0
  3  4  1  0
  3  5  1  0
  3 23  1  1
  4 24  1  0
  4 25  1  0
  5  6  1  0
  5 14  1  0
  5 26  1  1
  6  7  1  0
  6  8  1  0
  7 27  1  0
  7 28  1  0
  7 29  1  0
  8  9  1  0
  8 30  1  0
  8 31  1  0
  9 10  1  0
  9 32  1  0
  9 33  1  0
 10 11  1  0
 10 34  1  0
 10 35  1  0
 11 12  1  0
 11 13  1  0
 12 36  1  0
 12 37  1  0
 12 38  1  0
 13 39  1  0
 13 40  1  0
 13 41  1  0
 14 15  1  1
 14 16  1  0
 14 17  1  0
 15 42  1  0
 15 43  1  0
 15 44  1  0
 16 45  1  0
 16 46  1  0
 16 47  1  0
 17 48  1  0
 17 49  1  0
 17 50  1  0
M  END

