
     RDKit          3D

 67 70  0  0  0  0  0  0  0  0999 V2000
    0.9871    1.0378    0.3215 C   0  0  0  0  0  0  0  0  0  0  0  0
    2.4549    0.6617    0.3187 C   0  0  0  0  0  0  0  0  0  0  0  0
    3.2238    1.8636    0.2655 O   0  0  0  0  0  0  0  0  0  0  0  0
    4.5809    1.7918    0.2637 C   0  0  0  0  0  0  0  0  0  0  0  0
    5.3711    2.9382    0.2338 C   0  0  0  0  0  0  0  0  0  0  0  0
    5.0595    4.3808    0.2056 C   0  0  0  0  0  0  0  0  0  0  0  0
    5.9650    5.2117    0.1852 O   0  0  0  0  0  0  0  0  0  0  0  0
    3.7325    4.7031    0.2085 N   0  0  0  0  0  0  0  0  0  0  0  0
    3.2619    6.0741    0.1823 C   0  0  2  0  0  0  0  0  0  0  0  0
    2.1747    6.3135    1.2410 C   0  0  0  0  0  0  0  0  0  0  0  0
    1.6507    7.7518    1.1879 C   0  0  0  0  0  0  0  0  0  0  0  0
    1.2063    8.0998   -0.1608 N   0  0  0  0  0  0  0  0  0  0  0  0
   -0.0698    8.5261   -0.3688 C   0  0  0  0  0  0  0  0  0  0  0  0
   -0.8928    8.6439    0.5347 O   0  0  0  0  0  0  0  0  0  0  0  0
   -0.5232    8.8857   -1.7947 C   0  0  0  0  0  0  0  0  0  0  0  0
   -1.8558    9.2767   -1.7698 O   0  0  0  0  0  0  0  0  0  0  0  0
    2.2151    7.9271   -1.2011 C   0  0  0  0  0  0  0  0  0  0  0  0
    2.7538    6.4914   -1.2108 C   0  0  0  0  0  0  0  0  0  0  0  0
    6.7018    2.5625    0.2354 N   0  0  0  0  0  0  0  0  0  0  0  0
    7.4601    3.2353    0.2204 H   0  0  0  0  0  0  0  0  0  0  0  0
    6.7910    1.2058    0.2673 C   0  0  0  0  0  0  0  0  0  0  0  0
    7.9194    0.5000    0.2792 N   0  0  0  0  0  0  0  0  0  0  0  0
    7.8200   -0.8211    0.3108 C   0  0  0  0  0  0  0  0  0  0  0  0
    9.1108   -1.6216    0.3174 C   0  0  0  0  0  0  0  0  0  0  0  0
   10.3822   -0.7770    0.2915 C   0  0  0  0  0  0  0  0  0  0  0  0
    6.5470   -1.4896    0.3339 C   0  0  0  0  0  0  0  0  0  0  0  0
    6.5522   -2.9011    0.3638 N   0  0  0  0  0  0  0  0  0  0  0  0
    5.4818   -3.7649    0.3810 C   0  0  0  0  0  0  0  0  0  0  0  0
    4.3145   -3.4013    0.4135 O   0  0  0  0  0  0  0  0  0  0  0  0
    5.8414   -5.2292    0.3760 C   0  0  0  0  0  0  0  0  0  0  0  0
    4.8702   -6.1282    0.8456 C   0  0  0  0  0  0  0  0  0  0  0  0
    5.1256   -7.4992    0.8667 C   0  0  0  0  0  0  0  0  0  0  0  0
    6.3500   -7.9928    0.4028 C   0  0  0  0  0  0  0  0  0  0  0  0
    7.3152   -7.1083   -0.0872 C   0  0  0  0  0  0  0  0  0  0  0  0
    7.0625   -5.7343   -0.1015 C   0  0  0  0  0  0  0  0  0  0  0  0
    5.3672   -0.7450    0.3219 C   0  0  0  0  0  0  0  0  0  0  0  0
    5.4689    0.6595    0.2857 C   0  0  0  0  0  0  0  0  0  0  0  0
    0.3663    0.1299    0.3654 H   0  0  0  0  0  0  0  0  0  0  0  0
    0.7221    1.5929   -0.5917 H   0  0  0  0  0  0  0  0  0  0  0  0
    0.7443    1.6644    1.1938 H   0  0  0  0  0  0  0  0  0  0  0  0
    2.6961    0.0298   -0.5537 H   0  0  0  0  0  0  0  0  0  0  0  0
    2.7166    0.0958    1.2297 H   0  0  0  0  0  0  0  0  0  0  0  0
    3.0612    3.9394    0.2068 H   0  0  0  0  0  0  0  0  0  0  0  0
    4.1411    6.6933    0.4233 H   0  0  0  0  0  0  0  0  0  0  0  0
    2.5771    6.0998    2.2442 H   0  0  0  0  0  0  0  0  0  0  0  0
    1.3335    5.6172    1.0709 H   0  0  0  0  0  0  0  0  0  0  0  0
    2.4529    8.4515    1.4906 H   0  0  0  0  0  0  0  0  0  0  0  0
    0.8008    7.8989    1.8649 H   0  0  0  0  0  0  0  0  0  0  0  0
   -0.3723    8.0085   -2.4572 H   0  0  0  0  0  0  0  0  0  0  0  0
    0.1311    9.6920   -2.1867 H   0  0  0  0  0  0  0  0  0  0  0  0
   -2.1066    9.2174   -0.8262 H   0  0  0  0  0  0  0  0  0  0  0  0
    3.0484    8.6308   -1.0112 H   0  0  0  0  0  0  0  0  0  0  0  0
    1.7987    8.1871   -2.1813 H   0  0  0  0  0  0  0  0  0  0  0  0
    3.5723    6.4057   -1.9430 H   0  0  0  0  0  0  0  0  0  0  0  0
    1.9511    5.8025   -1.5293 H   0  0  0  0  0  0  0  0  0  0  0  0
    9.1090   -2.3088   -0.5512 H   0  0  0  0  0  0  0  0  0  0  0  0
    9.1256   -2.2745    1.2123 H   0  0  0  0  0  0  0  0  0  0  0  0
   10.4157   -0.1412   -0.6048 H   0  0  0  0  0  0  0  0  0  0  0  0
   11.2733   -1.4238    0.2972 H   0  0  0  0  0  0  0  0  0  0  0  0
   10.4293   -0.1072    1.1620 H   0  0  0  0  0  0  0  0  0  0  0  0
    7.4634   -3.3297    0.4493 H   0  0  0  0  0  0  0  0  0  0  0  0
    3.9165   -5.7240    1.1897 H   0  0  0  0  0  0  0  0  0  0  0  0
    4.3654   -8.1882    1.2434 H   0  0  0  0  0  0  0  0  0  0  0  0
    6.5489   -9.0674    0.4152 H   0  0  0  0  0  0  0  0  0  0  0  0
    8.2653   -7.4892   -0.4697 H   0  0  0  0  0  0  0  0  0  0  0  0
    7.8179   -5.0656   -0.5230 H   0  0  0  0  0  0  0  0  0  0  0  0
    4.4213   -1.2762    0.3435 H   0  0  0  0  0  0  0  0  0  0  0  0
  1  2  1  0
  1 38  1  0
  1 39  1  0
  1 40  1  0
  2  3  1  0
  2 41  1  0
  2 42  1  0
  3  4  1  0
  4  5  2  0
  4 37  1  0
  5  6  1  0
  5 19  1  0
  6  7  2  0
  6  8  1  0
  8  9  1  0
  8 43  1  0
  9 10  1  0
  9 18  1  0
  9 44  1  1
 10 11  1  0
 10 45  1  0
 10 46  1  0
 11 12  1  0
 11 47  1  0
 11 48  1  0
 12 13  1  0
 12 17  1  0
 13 14  2  0
 13 15  1  0
 15 16  1  0
 15 49  1  0
 15 50  1  0
 16 51  1  0
 17 18  1  0
 17 52  1  0
 17 53  1  0
 18 54  1  0
 18 55  1  0
 19 20  1  0
 19 21  1  0
 21 22  1  0
 21 37  2  0
 22 23  2  0
 23 24  1  0
 23 26  1  0
 24 25  1  0
 24 56  1  0
 24 57  1  0
 25 58  1  0
 25 59  1  0
 25 60  1  0
 26 27  1  0
 26 36  2  0
 27 28  1  0
 27 61  1  0
 28 29  2  0
 28 30  1  0
 30 31  2  0
 30 35  1  0
 31 32  1  0
 31 62  1  0
 32 33  2  0
 32 63  1  0
 33 34  1  0
 33 64  1  0
 34 35  2  0
 34 65  1  0
 35 66  1  0
 36 37  1  0
 36 67  1  0
M  END

