
     RDKit          3D

 36 38  0  0  0  0  0  0  0  0999 V2000
    1.0374   -0.0060   -0.0910 C   0  0  0  0  0  0  0  0  0  0  0  0
    2.5318    0.1288   -0.0814 C   0  0  0  0  0  0  0  0  0  0  0  0
    3.2391    1.3180   -0.0918 C   0  0  0  0  0  0  0  0  0  0  0  0
    4.6750    1.3682   -0.2024 C   0  0  0  0  0  0  0  0  0  0  0  0
    5.3236    2.6656   -0.2763 C   0  0  0  0  0  0  0  0  0  0  0  0
    4.7313    3.8102    0.3469 C   0  0  0  0  0  0  0  0  0  0  0  0
    5.3015    5.0739    0.2583 C   0  0  0  0  0  0  0  0  0  0  0  0
    6.4891    5.2827   -0.4602 C   0  0  0  0  0  0  0  0  0  0  0  0
    7.0861    4.1805   -1.0931 C   0  0  0  0  0  0  0  0  0  0  0  0
    6.5265    2.9111   -1.0082 C   0  0  0  0  0  0  0  0  0  0  0  0
    5.3768    0.0866   -0.2024 C   0  0  0  0  0  0  0  0  0  0  0  0
    4.6338   -1.0946   -0.1680 C   0  0  0  0  0  0  0  0  0  0  0  0
    3.3042   -0.9632   -0.1255 N   0  0  0  0  0  0  0  0  0  0  0  0
    5.2005   -2.4924   -0.0639 C   0  0  0  0  0  0  0  0  0  0  0  0
    6.7185   -2.5458   -0.2521 C   0  0  2  0  0  0  0  0  0  0  0  0
    7.1907   -3.8736    0.1280 N   0  0  0  0  0  0  0  0  0  0  0  0
    7.3602   -1.3647    0.4867 C   0  0  0  0  0  0  0  0  0  0  0  0
    6.8837   -0.0258   -0.0825 C   0  0  0  0  0  0  0  0  0  0  0  0
    0.5697    0.9860   -0.0601 H   0  0  0  0  0  0  0  0  0  0  0  0
    0.6891   -0.5883    0.7782 H   0  0  0  0  0  0  0  0  0  0  0  0
    0.6939   -0.5320   -0.9976 H   0  0  0  0  0  0  0  0  0  0  0  0
    2.6498    2.2351   -0.1249 H   0  0  0  0  0  0  0  0  0  0  0  0
    3.8304    3.6844    0.9516 H   0  0  0  0  0  0  0  0  0  0  0  0
    4.8196    5.9129    0.7693 H   0  0  0  0  0  0  0  0  0  0  0  0
    6.9337    6.2778   -0.5308 H   0  0  0  0  0  0  0  0  0  0  0  0
    7.9983    4.3198   -1.6811 H   0  0  0  0  0  0  0  0  0  0  0  0
    6.9952    2.1027   -1.5681 H   0  0  0  0  0  0  0  0  0  0  0  0
    4.7031   -3.1512   -0.7938 H   0  0  0  0  0  0  0  0  0  0  0  0
    4.9414   -2.9001    0.9322 H   0  0  0  0  0  0  0  0  0  0  0  0
    6.9344   -2.4260   -1.3299 H   0  0  0  0  0  0  0  0  0  0  0  0
    7.1150   -3.9957    1.1402 H   0  0  0  0  0  0  0  0  0  0  0  0
    8.1813   -3.9726   -0.0945 H   0  0  0  0  0  0  0  0  0  0  0  0
    8.4591   -1.4304    0.4126 H   0  0  0  0  0  0  0  0  0  0  0  0
    7.1085   -1.4351    1.5616 H   0  0  0  0  0  0  0  0  0  0  0  0
    7.3524    0.1200   -1.0730 H   0  0  0  0  0  0  0  0  0  0  0  0
    7.2467    0.8073    0.5396 H   0  0  0  0  0  0  0  0  0  0  0  0
  1  2  1  0
  1 19  1  0
  1 20  1  0
  1 21  1  0
  2  3  2  0
  2 13  1  0
  3  4  1  0
  3 22  1  0
  4  5  1  0
  4 11  2  0
  5  6  2  0
  5 10  1  0
  6  7  1  0
  6 23  1  0
  7  8  2  0
  7 24  1  0
  8  9  1  0
  8 25  1  0
  9 10  2  0
  9 26  1  0
 10 27  1  0
 11 12  1  0
 11 18  1  0
 12 13  2  0
 12 14  1  0
 14 15  1  0
 14 28  1  0
 14 29  1  0
 15 16  1  0
 15 17  1  0
 15 30  1  6
 16 31  1  0
 16 32  1  0
 17 18  1  0
 17 33  1  0
 17 34  1  0
 18 35  1  0
 18 36  1  0
M  END

