
     RDKit          3D

 34 36  0  0  0  0  0  0  0  0999 V2000
    5.1950    2.1131   -5.1435 C   0  0  0  0  0  0  0  0  0  0  0  0
    4.8129    2.2998   -3.7884 O   0  0  0  0  0  0  0  0  0  0  0  0
    4.5082    1.2106   -3.0603 C   0  0  0  0  0  0  0  0  0  0  0  0
    4.1302    1.4195   -1.7161 C   0  0  0  0  0  0  0  0  0  0  0  0
    3.8149    0.3015   -0.9608 C   0  0  0  0  0  0  0  0  0  0  0  0
    3.8803   -0.9769   -1.5414 C   0  0  0  0  0  0  0  0  0  0  0  0
    4.2648   -1.0673   -2.8769 C   0  0  0  0  0  0  0  0  0  0  0  0
    4.3909   -2.3883   -3.6220 C   0  0  0  0  0  0  0  0  0  0  0  0
    3.9930   -3.5659   -2.8858 N   0  0  0  0  0  0  0  0  0  0  0  0
    4.8426   -4.3809   -2.1560 C   0  0  0  0  0  0  0  0  0  0  0  0
    4.1309   -5.3874   -1.5495 C   0  0  0  0  0  0  0  0  0  0  0  0
    2.7483   -5.2022   -1.9114 C   0  0  0  0  0  0  0  0  0  0  0  0
    1.5700   -5.8974   -1.6168 C   0  0  0  0  0  0  0  0  0  0  0  0
    0.3303   -5.4274   -2.1623 C   0  0  0  0  0  0  0  0  0  0  0  0
   -0.8827   -6.0774   -1.9064 C   0  0  0  0  0  0  0  0  0  0  0  0
   -1.0955   -7.1339   -1.1922 O   0  0  0  0  0  0  0  0  0  0  0  0
    0.3306   -4.2479   -2.9992 C   0  0  0  0  0  0  0  0  0  0  0  0
    1.4888   -3.5642   -3.2885 C   0  0  0  0  0  0  0  0  0  0  0  0
    2.7040   -4.0448   -2.7468 C   0  0  0  0  0  0  0  0  0  0  0  0
    4.5712    0.0115   -3.6180 N   0  0  0  0  0  0  0  0  0  0  0  0
    5.3994    3.1161   -5.5405 H   0  0  0  0  0  0  0  0  0  0  0  0
    4.3916    1.6332   -5.7247 H   0  0  0  0  0  0  0  0  0  0  0  0
    6.0957    1.4840   -5.2237 H   0  0  0  0  0  0  0  0  0  0  0  0
    4.0958    2.4334   -1.3156 H   0  0  0  0  0  0  0  0  0  0  0  0
    3.5151    0.4134    0.0844 H   0  0  0  0  0  0  0  0  0  0  0  0
    3.6349   -1.8718   -0.9691 H   0  0  0  0  0  0  0  0  0  0  0  0
    5.4395   -2.5090   -3.9384 H   0  0  0  0  0  0  0  0  0  0  0  0
    3.8047   -2.3192   -4.5528 H   0  0  0  0  0  0  0  0  0  0  0  0
    5.9108   -4.1707   -2.1352 H   0  0  0  0  0  0  0  0  0  0  0  0
    4.5436   -6.1766   -0.9247 H   0  0  0  0  0  0  0  0  0  0  0  0
    1.5909   -6.7843   -0.9819 H   0  0  0  0  0  0  0  0  0  0  0  0
   -1.8279   -5.6913   -2.3436 H   0  0  0  0  0  0  0  0  0  0  0  0
   -0.6191   -3.8926   -3.4078 H   0  0  0  0  0  0  0  0  0  0  0  0
    1.4589   -2.6713   -3.9165 H   0  0  0  0  0  0  0  0  0  0  0  0
  1  2  1  0
  1 21  1  0
  1 22  1  0
  1 23  1  0
  2  3  1  0
  3  4  2  0
  3 20  1  0
  4  5  1  0
  4 24  1  0
  5  6  2  0
  5 25  1  0
  6  7  1  0
  6 26  1  0
  7  8  1  0
  7 20  2  0
  8  9  1  0
  8 27  1  0
  8 28  1  0
  9 10  1  0
  9 19  1  0
 10 11  2  0
 10 29  1  0
 11 12  1  0
 11 30  1  0
 12 13  1  0
 12 19  2  0
 13 14  2  0
 13 31  1  0
 14 15  1  0
 14 17  1  0
 15 16  2  0
 15 32  1  0
 17 18  2  0
 17 33  1  0
 18 19  1  0
 18 34  1  0
M  END

