
     RDKit          3D

 40 42  0  0  0  0  0  0  0  0999 V2000
    2.8062   -0.2902    2.7655 C   0  0  0  0  0  0  0  0  0  0  0  0
    4.0963   -0.1919    2.1572 O   0  0  0  0  0  0  0  0  0  0  0  0
    4.1766   -0.5483    0.8651 C   0  0  0  0  0  0  0  0  0  0  0  0
    3.2252   -0.9122    0.2139 O   0  0  0  0  0  0  0  0  0  0  0  0
    5.5975   -0.4737    0.3431 C   0  0  0  0  0  0  0  0  0  0  0  0
    5.6499   -0.0411   -1.1406 C   0  0  0  0  0  0  0  0  0  0  0  0
    6.9542   -0.3280   -1.8087 C   0  0  0  0  0  0  0  0  0  0  0  0
    7.9914    0.5954   -2.0723 C   0  0  0  0  0  0  0  0  0  0  0  0
    9.0471    0.0494   -2.6396 N   0  0  0  0  0  0  0  0  0  0  0  0
    8.7404   -1.2960   -2.7752 O   0  0  0  0  0  0  0  0  0  0  0  0
    7.4899   -1.5533   -2.2877 C   0  0  0  0  0  0  0  0  0  0  0  0
    7.0310   -2.8966   -2.3685 C   0  0  0  0  0  0  0  0  0  0  0  0
    7.8916   -3.9170   -2.9129 C   0  0  0  0  0  0  0  0  0  0  0  0
    7.4844   -5.2239   -3.0007 C   0  0  0  0  0  0  0  0  0  0  0  0
    6.1784   -5.6555   -2.5649 C   0  0  0  0  0  0  0  0  0  0  0  0
    5.7514   -7.0301   -2.6603 C   0  0  0  0  0  0  0  0  0  0  0  0
    6.6312   -8.0690   -3.1193 C   0  0  0  0  0  0  0  0  0  0  0  0
    6.2162   -9.3882   -3.2053 C   0  0  0  0  0  0  0  0  0  0  0  0
    4.9070   -9.7564   -2.8453 C   0  0  0  0  0  0  0  0  0  0  0  0
    4.0194   -8.7633   -2.3935 C   0  0  0  0  0  0  0  0  0  0  0  0
    4.4221   -7.4406   -2.3005 C   0  0  0  0  0  0  0  0  0  0  0  0
    5.3247   -4.6234   -2.0296 C   0  0  0  0  0  0  0  0  0  0  0  0
    5.7236   -3.3124   -1.9325 C   0  0  0  0  0  0  0  0  0  0  0  0
    2.9337    0.0340    3.8055 H   0  0  0  0  0  0  0  0  0  0  0  0
    2.4357   -1.3260    2.7306 H   0  0  0  0  0  0  0  0  0  0  0  0
    2.0808    0.3562    2.2490 H   0  0  0  0  0  0  0  0  0  0  0  0
    6.0196   -1.4883    0.4513 H   0  0  0  0  0  0  0  0  0  0  0  0
    6.2024    0.1839    0.9833 H   0  0  0  0  0  0  0  0  0  0  0  0
    5.4488    1.0407   -1.2017 H   0  0  0  0  0  0  0  0  0  0  0  0
    4.8177   -0.5337   -1.6679 H   0  0  0  0  0  0  0  0  0  0  0  0
    7.9974    1.6668   -1.8632 H   0  0  0  0  0  0  0  0  0  0  0  0
    8.8850   -3.6295   -3.2584 H   0  0  0  0  0  0  0  0  0  0  0  0
    8.1779   -5.9485   -3.4272 H   0  0  0  0  0  0  0  0  0  0  0  0
    7.6563   -7.8274   -3.4001 H   0  0  0  0  0  0  0  0  0  0  0  0
    6.9178  -10.1498   -3.5559 H   0  0  0  0  0  0  0  0  0  0  0  0
    4.5846  -10.7980   -2.9160 H   0  0  0  0  0  0  0  0  0  0  0  0
    2.9978   -9.0341   -2.1136 H   0  0  0  0  0  0  0  0  0  0  0  0
    3.6999   -6.7008   -1.9550 H   0  0  0  0  0  0  0  0  0  0  0  0
    4.3252   -4.8775   -1.6778 H   0  0  0  0  0  0  0  0  0  0  0  0
    5.0229   -2.5890   -1.5174 H   0  0  0  0  0  0  0  0  0  0  0  0
  1  2  1  0
  1 24  1  0
  1 25  1  0
  1 26  1  0
  2  3  1  0
  3  4  2  0
  3  5  1  0
  5  6  1  0
  5 27  1  0
  5 28  1  0
  6  7  1  0
  6 29  1  0
  6 30  1  0
  7  8  1  0
  7 11  2  0
  8  9  2  0
  8 31  1  0
  9 10  1  0
 10 11  1  0
 11 12  1  0
 12 13  2  0
 12 23  1  0
 13 14  1  0
 13 32  1  0
 14 15  2  0
 14 33  1  0
 15 16  1  0
 15 22  1  0
 16 17  2  0
 16 21  1  0
 17 18  1  0
 17 34  1  0
 18 19  2  0
 18 35  1  0
 19 20  1  0
 19 36  1  0
 20 21  2  0
 20 37  1  0
 21 38  1  0
 22 23  2  0
 22 39  1  0
 23 40  1  0
M  END

