
     RDKit          3D

 32 32  0  0  0  0  0  0  0  0999 V2000
    0.6640   -0.7000    1.7494 C   0  0  0  0  0  0  0  0  0  0  0  0
    2.0637   -1.3104    1.9039 C   0  0  1  0  0  0  0  0  0  0  0  0
    2.0207   -2.7284    1.2919 C   0  0  0  0  0  0  0  0  0  0  0  0
    1.6032   -3.6907    1.8787 O   0  0  0  0  0  0  0  0  0  0  0  0
    2.4449   -2.7656    0.0216 O   0  0  0  0  0  0  0  0  0  0  0  0
    3.1337   -0.5453    1.2408 N   0  0  0  0  0  0  0  0  0  0  0  0
    2.9961    0.9084    1.2199 C   0  0  0  0  0  0  0  0  0  0  0  0
    4.4875   -1.0050    1.6122 C   0  0  0  0  0  0  0  0  0  0  0  0
    4.9154   -0.7996    3.0576 C   0  0  0  0  0  0  0  0  0  0  0  0
    4.7151   -1.7856    4.0336 C   0  0  0  0  0  0  0  0  0  0  0  0
    5.1051   -1.5854    5.3635 C   0  0  0  0  0  0  0  0  0  0  0  0
    4.9076   -2.6960    6.3663 C   0  0  1  0  0  0  0  0  0  0  0  0
    3.7176   -3.2995    6.2082 F   0  0  0  0  0  0  0  0  0  0  0  0
    5.8494   -3.6497    6.2386 F   0  0  0  0  0  0  0  0  0  0  0  0
    4.9710   -2.2449    7.6312 F   0  0  0  0  0  0  0  0  0  0  0  0
    5.7157   -0.3854    5.7418 C   0  0  0  0  0  0  0  0  0  0  0  0
    5.9396    0.6077    4.7881 C   0  0  0  0  0  0  0  0  0  0  0  0
    5.5402    0.3841    3.4740 C   0  0  0  0  0  0  0  0  0  0  0  0
    5.7770    1.3447    2.5640 F   0  0  0  0  0  0  0  0  0  0  0  0
   -0.0679   -1.3941    2.1861 H   0  0  0  0  0  0  0  0  0  0  0  0
    0.4035   -0.5491    0.6898 H   0  0  0  0  0  0  0  0  0  0  0  0
    0.5756    0.2603    2.2771 H   0  0  0  0  0  0  0  0  0  0  0  0
    2.2510   -1.4424    2.9853 H   0  0  0  0  0  0  0  0  0  0  0  0
    2.7771   -1.8542   -0.1554 H   0  0  0  0  0  0  0  0  0  0  0  0
    2.0761    1.2009    0.6970 H   0  0  0  0  0  0  0  0  0  0  0  0
    3.8438    1.3395    0.6690 H   0  0  0  0  0  0  0  0  0  0  0  0
    2.9814    1.3724    2.2265 H   0  0  0  0  0  0  0  0  0  0  0  0
    5.1996   -0.4930    0.9486 H   0  0  0  0  0  0  0  0  0  0  0  0
    4.5555   -2.0798    1.3845 H   0  0  0  0  0  0  0  0  0  0  0  0
    4.2472   -2.7313    3.7480 H   0  0  0  0  0  0  0  0  0  0  0  0
    6.0170   -0.2281    6.7783 H   0  0  0  0  0  0  0  0  0  0  0  0
    6.4220    1.5524    5.0452 H   0  0  0  0  0  0  0  0  0  0  0  0
  1  2  1  0
  1 20  1  0
  1 21  1  0
  1 22  1  0
  2  3  1  0
  2  6  1  0
  2 23  1  1
  3  4  2  0
  3  5  1  0
  5 24  1  0
  6  7  1  0
  6  8  1  0
  7 25  1  0
  7 26  1  0
  7 27  1  0
  8  9  1  0
  8 28  1  0
  8 29  1  0
  9 10  2  0
  9 18  1  0
 10 11  1  0
 10 30  1  0
 11 12  1  0
 11 16  2  0
 12 13  1  6
 12 14  1  0
 12 15  1  0
 16 17  1  0
 16 31  1  0
 17 18  2  0
 17 32  1  0
 18 19  1  0
M  END

