
     RDKit          3D

 55 56  0  0  0  0  0  0  0  0999 V2000
    1.2568   -5.8086    4.2406 C   0  0  0  0  0  0  0  0  0  0  0  0
    1.2660   -4.6840    5.1076 O   0  0  0  0  0  0  0  0  0  0  0  0
    2.4640   -4.0020    5.1191 C   0  0  0  0  0  0  0  0  0  0  0  0
    2.7094   -3.4694    3.8400 O   0  0  0  0  0  0  0  0  0  0  0  0
    3.9591   -3.0541    3.4960 C   0  0  0  0  0  0  0  0  0  0  0  0
    4.8568   -2.6279    4.4637 C   0  0  0  0  0  0  0  0  0  0  0  0
    6.1089   -2.0946    4.1057 C   0  0  0  0  0  0  0  0  0  0  0  0
    6.9291   -1.7138    5.1448 O   0  0  0  0  0  0  0  0  0  0  0  0
    8.1885   -1.1884    4.8451 C   0  0  0  0  0  0  0  0  0  0  0  0
    6.4300   -1.9659    2.7441 C   0  0  0  0  0  0  0  0  0  0  0  0
    5.5341   -2.4012    1.7686 C   0  0  0  0  0  0  0  0  0  0  0  0
    5.8535   -2.2854    0.4231 O   0  0  0  0  0  0  0  0  0  0  0  0
    7.1832   -2.0605    0.0501 C   0  0  0  0  0  0  0  0  0  0  0  0
    4.2584   -3.0154    2.0677 C   0  0  0  0  0  0  0  0  0  0  0  0
    3.3790   -3.6139    1.1111 C   0  0  0  0  0  0  0  0  0  0  0  0
    2.4462   -4.4422    1.3818 O   0  0  0  0  0  0  0  0  0  0  0  0
    3.3949   -3.2951   -0.4354 C   0  0  1  0  0  0  0  0  0  0  0  0
    2.4446   -4.1610   -1.0043 O   0  0  0  0  0  0  0  0  0  0  0  0
    3.0070   -1.8199   -0.6845 C   0  0  0  0  0  0  0  0  0  0  0  0
    2.8442   -1.3960   -2.1170 C   0  0  0  0  0  0  0  0  0  0  0  0
    2.0982   -2.2173   -3.0410 C   0  0  0  0  0  0  0  0  0  0  0  0
    1.8836   -1.8336   -4.3494 C   0  0  0  0  0  0  0  0  0  0  0  0
    2.4006   -0.6103   -4.8150 C   0  0  0  0  0  0  0  0  0  0  0  0
    2.2672   -0.1302   -6.0366 O   0  0  0  0  0  0  0  0  0  0  0  0
    1.5436   -0.8568   -7.0307 C   0  0  0  0  0  0  0  0  0  0  0  0
    3.1644    0.2290   -3.8995 C   0  0  0  0  0  0  0  0  0  0  0  0
    3.6151    1.3522   -4.4273 O   0  0  0  0  0  0  0  0  0  0  0  0
    4.3754    2.2724   -3.6425 C   0  0  0  0  0  0  0  0  0  0  0  0
    3.3663   -0.1890   -2.5763 C   0  0  0  0  0  0  0  0  0  0  0  0
    0.2448   -6.2373    4.2826 H   0  0  0  0  0  0  0  0  0  0  0  0
    1.9792   -6.5775    4.5848 H   0  0  0  0  0  0  0  0  0  0  0  0
    1.5096   -5.5197    3.2077 H   0  0  0  0  0  0  0  0  0  0  0  0
    3.3174   -4.6589    5.4043 H   0  0  0  0  0  0  0  0  0  0  0  0
    2.3595   -3.2000    5.8744 H   0  0  0  0  0  0  0  0  0  0  0  0
    4.5998   -2.6479    5.5224 H   0  0  0  0  0  0  0  0  0  0  0  0
    8.6806   -0.9623    5.8025 H   0  0  0  0  0  0  0  0  0  0  0  0
    8.1270   -0.2526    4.2542 H   0  0  0  0  0  0  0  0  0  0  0  0
    8.8224   -1.9040    4.2850 H   0  0  0  0  0  0  0  0  0  0  0  0
    7.3811   -1.5330    2.4456 H   0  0  0  0  0  0  0  0  0  0  0  0
    7.2347   -2.1751   -1.0434 H   0  0  0  0  0  0  0  0  0  0  0  0
    7.8749   -2.7875    0.5148 H   0  0  0  0  0  0  0  0  0  0  0  0
    7.5348   -1.0424    0.3098 H   0  0  0  0  0  0  0  0  0  0  0  0
    4.3889   -3.4783   -0.8717 H   0  0  0  0  0  0  0  0  0  0  0  0
    2.0990   -4.5800   -0.1467 H   0  0  0  0  0  0  0  0  0  0  0  0
    3.7258   -1.1578   -0.1866 H   0  0  0  0  0  0  0  0  0  0  0  0
    2.0241   -1.6638   -0.2000 H   0  0  0  0  0  0  0  0  0  0  0  0
    1.7439   -3.1732   -2.6498 H   0  0  0  0  0  0  0  0  0  0  0  0
    1.3204   -2.4828   -5.0185 H   0  0  0  0  0  0  0  0  0  0  0  0
    1.5799   -0.2420   -7.9366 H   0  0  0  0  0  0  0  0  0  0  0  0
    0.4981   -1.0031   -6.7197 H   0  0  0  0  0  0  0  0  0  0  0  0
    2.0192   -1.8308   -7.2209 H   0  0  0  0  0  0  0  0  0  0  0  0
    4.6177    3.1061   -4.3107 H   0  0  0  0  0  0  0  0  0  0  0  0
    5.3014    1.8007   -3.2819 H   0  0  0  0  0  0  0  0  0  0  0  0
    3.7826    2.6367   -2.7901 H   0  0  0  0  0  0  0  0  0  0  0  0
    3.9363    0.4351   -1.8906 H   0  0  0  0  0  0  0  0  0  0  0  0
  1  2  1  0
  1 30  1  0
  1 31  1  0
  1 32  1  0
  2  3  1  0
  3  4  1  0
  3 33  1  0
  3 34  1  0
  4  5  1  0
  5  6  2  0
  5 14  1  0
  6  7  1  0
  6 35  1  0
  7  8  1  0
  7 10  2  0
  8  9  1  0
  9 36  1  0
  9 37  1  0
  9 38  1  0
 10 11  1  0
 10 39  1  0
 11 12  1  0
 11 14  2  0
 12 13  1  0
 13 40  1  0
 13 41  1  0
 13 42  1  0
 14 15  1  0
 15 16  2  0
 15 17  1  0
 17 18  1  0
 17 19  1  0
 17 43  1  6
 18 44  1  0
 19 20  1  0
 19 45  1  0
 19 46  1  0
 20 21  2  0
 20 29  1  0
 21 22  1  0
 21 47  1  0
 22 23  2  0
 22 48  1  0
 23 24  1  0
 23 26  1  0
 24 25  1  0
 25 49  1  0
 25 50  1  0
 25 51  1  0
 26 27  1  0
 26 29  2  0
 27 28  1  0
 28 52  1  0
 28 53  1  0
 28 54  1  0
 29 55  1  0
M  END

