
     RDKit          3D

 77 81  0  0  0  0  0  0  0  0999 V2000
    1.9553    2.7215   -0.1216 C   0  0  0  0  0  0  0  0  0  0  0  0
    0.9639    2.0383    0.6122 O   0  0  0  0  0  0  0  0  0  0  0  0
    1.3099    1.3840    1.7525 C   0  0  0  0  0  0  0  0  0  0  0  0
    0.2497    0.9015    2.5364 C   0  0  0  0  0  0  0  0  0  0  0  0
    0.5246    0.2414    3.7343 C   0  0  0  0  0  0  0  0  0  0  0  0
    1.8427    0.0419    4.1595 C   0  0  0  0  0  0  0  0  0  0  0  0
    2.9088    0.4996    3.3729 C   0  0  0  0  0  0  0  0  0  0  0  0
    4.3567    0.2217    3.7912 C   0  0  1  0  0  0  0  0  0  0  0  0
    5.0133    0.8705    3.1798 H   0  0  0  0  0  0  0  0  0  0  0  0
    4.6472    0.3477    5.2730 C   0  0  0  0  0  0  0  0  0  0  0  0
    4.4586    1.4254    6.1555 C   0  0  0  0  0  0  0  0  0  0  0  0
    4.6416    1.1687    7.4675 O   0  0  0  0  0  0  0  0  0  0  0  0
    4.0900    2.8036    5.8519 C   0  0  0  0  0  0  0  0  0  0  0  0
    3.6227    3.6423    6.8984 C   0  0  0  0  0  0  0  0  0  0  0  0
    3.2684    4.9643    6.6689 C   0  0  0  0  0  0  0  0  0  0  0  0
    3.3758    5.5218    5.3842 C   0  0  0  0  0  0  0  0  0  0  0  0
    2.9909    6.8354    5.2554 O   0  0  0  0  0  0  0  0  0  0  0  0
    3.3574    7.5622    4.1064 C   0  0  0  0  0  0  0  0  0  0  0  0
    2.4417    7.3715    2.9086 C   0  0  0  0  0  0  0  0  0  0  0  0
    1.1365    6.8892    3.0640 C   0  0  0  0  0  0  0  0  0  0  0  0
    0.3023    6.7683    1.9499 C   0  0  0  0  0  0  0  0  0  0  0  0
    0.7562    7.1348    0.6803 C   0  0  0  0  0  0  0  0  0  0  0  0
    2.0592    7.6269    0.5013 C   0  0  0  0  0  0  0  0  0  0  0  0
    2.5480    8.0595   -0.8610 C   0  0  0  0  0  0  0  0  0  0  0  0
    2.8879    7.7295    1.6286 C   0  0  0  0  0  0  0  0  0  0  0  0
    3.8572    4.7253    4.3367 C   0  0  0  0  0  0  0  0  0  0  0  0
    4.2088    3.3950    4.5753 C   0  0  0  0  0  0  0  0  0  0  0  0
    5.1000   -0.9083    5.7704 C   0  0  0  0  0  0  0  0  0  0  0  0
    5.3656   -1.2058    6.9790 O   0  0  0  0  0  0  0  0  0  0  0  0
    5.2235   -1.8411    4.6280 C   0  0  0  0  0  0  0  0  0  0  0  0
    5.6518   -2.9939    4.6130 O   0  0  0  0  0  0  0  0  0  0  0  0
    4.7066   -1.1887    3.4817 N   0  0  0  0  0  0  0  0  0  0  0  0
    5.1668   -1.4497    2.1299 C   0  0  0  0  0  0  0  0  0  0  0  0
    5.4619   -2.9121    1.7623 C   0  0  0  0  0  0  0  0  0  0  0  0
    4.4056   -3.9722    2.1031 C   0  0  0  0  0  0  0  0  0  0  0  0
    3.1086   -3.7603    1.4555 N   0  0  0  0  0  0  0  0  0  0  0  0
    2.5949   -4.6834    0.4898 C   0  0  0  0  0  0  0  0  0  0  0  0
    1.5392   -5.5907    1.2239 C   0  0  0  0  0  0  0  0  0  0  0  0
    0.5681   -4.7838    1.8122 O   0  0  0  0  0  0  0  0  0  0  0  0
    1.0814   -3.8935    2.7687 C   0  0  0  0  0  0  0  0  0  0  0  0
    2.1160   -2.9345    2.0891 C   0  0  0  0  0  0  0  0  0  0  0  0
    2.6346    1.1729    2.1720 C   0  0  0  0  0  0  0  0  0  0  0  0
    2.4786    3.4713    0.4970 H   0  0  0  0  0  0  0  0  0  0  0  0
    1.4379    3.2376   -0.9415 H   0  0  0  0  0  0  0  0  0  0  0  0
    2.7030    2.0307   -0.5542 H   0  0  0  0  0  0  0  0  0  0  0  0
   -0.7730    1.0888    2.2026 H   0  0  0  0  0  0  0  0  0  0  0  0
   -0.3055   -0.0974    4.3611 H   0  0  0  0  0  0  0  0  0  0  0  0
    2.0532   -0.4425    5.1151 H   0  0  0  0  0  0  0  0  0  0  0  0
    4.9520    0.1984    7.5298 H   0  0  0  0  0  0  0  0  0  0  0  0
    3.5495    3.2218    7.9015 H   0  0  0  0  0  0  0  0  0  0  0  0
    2.9065    5.5996    7.4807 H   0  0  0  0  0  0  0  0  0  0  0  0
    4.4045    7.3480    3.8215 H   0  0  0  0  0  0  0  0  0  0  0  0
    3.3211    8.6220    4.4138 H   0  0  0  0  0  0  0  0  0  0  0  0
    0.7888    6.6006    4.0577 H   0  0  0  0  0  0  0  0  0  0  0  0
   -0.7131    6.3815    2.0723 H   0  0  0  0  0  0  0  0  0  0  0  0
    0.0924    7.0365   -0.1839 H   0  0  0  0  0  0  0  0  0  0  0  0
    2.0517    7.4980   -1.6677 H   0  0  0  0  0  0  0  0  0  0  0  0
    3.6352    7.9205   -0.9660 H   0  0  0  0  0  0  0  0  0  0  0  0
    2.3400    9.1299   -1.0362 H   0  0  0  0  0  0  0  0  0  0  0  0
    3.9120    8.0986    1.5039 H   0  0  0  0  0  0  0  0  0  0  0  0
    3.9586    5.1286    3.3287 H   0  0  0  0  0  0  0  0  0  0  0  0
    4.6111    2.8197    3.7432 H   0  0  0  0  0  0  0  0  0  0  0  0
    6.0947   -0.8807    1.9058 H   0  0  0  0  0  0  0  0  0  0  0  0
    4.4074   -1.0417    1.4377 H   0  0  0  0  0  0  0  0  0  0  0  0
    6.3544   -3.2502    2.3024 H   0  0  0  0  0  0  0  0  0  0  0  0
    5.6889   -2.9448    0.6822 H   0  0  0  0  0  0  0  0  0  0  0  0
    4.2706   -3.9726    3.1931 H   0  0  0  0  0  0  0  0  0  0  0  0
    4.7726   -4.9614    1.7949 H   0  0  0  0  0  0  0  0  0  0  0  0
    3.3999   -5.2929    0.0617 H   0  0  0  0  0  0  0  0  0  0  0  0
    2.0667   -4.1378   -0.3056 H   0  0  0  0  0  0  0  0  0  0  0  0
    2.0662   -6.2141    1.9696 H   0  0  0  0  0  0  0  0  0  0  0  0
    1.0509   -6.2390    0.4849 H   0  0  0  0  0  0  0  0  0  0  0  0
    1.5759   -4.4310    3.5970 H   0  0  0  0  0  0  0  0  0  0  0  0
    0.2523   -3.2941    3.1598 H   0  0  0  0  0  0  0  0  0  0  0  0
    2.5806   -2.2715    2.8271 H   0  0  0  0  0  0  0  0  0  0  0  0
    1.5831   -2.3471    1.3291 H   0  0  0  0  0  0  0  0  0  0  0  0
    3.4684    1.5576    1.5823 H   0  0  0  0  0  0  0  0  0  0  0  0
  1  2  1  0
  1 43  1  0
  1 44  1  0
  1 45  1  0
  2  3  1  0
  3  4  2  0
  3 42  1  0
  4  5  1  0
  4 46  1  0
  5  6  2  0
  5 47  1  0
  6  7  1  0
  6 48  1  0
  7  8  1  0
  7 42  2  0
  8  9  1  6
  8 10  1  0
  8 32  1  0
 10 11  2  0
 10 28  1  0
 11 12  1  0
 11 13  1  0
 12 49  1  0
 13 14  2  0
 13 27  1  0
 14 15  1  0
 14 50  1  0
 15 16  2  0
 15 51  1  0
 16 17  1  0
 16 26  1  0
 17 18  1  0
 18 19  1  0
 18 52  1  0
 18 53  1  0
 19 20  2  0
 19 25  1  0
 20 21  1  0
 20 54  1  0
 21 22  2  0
 21 55  1  0
 22 23  1  0
 22 56  1  0
 23 24  1  0
 23 25  2  0
 24 57  1  0
 24 58  1  0
 24 59  1  0
 25 60  1  0
 26 27  2  0
 26 61  1  0
 27 62  1  0
 28 29  2  0
 28 30  1  0
 30 31  2  0
 30 32  1  0
 32 33  1  0
 33 34  1  0
 33 63  1  0
 33 64  1  0
 34 35  1  0
 34 65  1  0
 34 66  1  0
 35 36  1  0
 35 67  1  0
 35 68  1  0
 36 37  1  0
 36 41  1  0
 37 38  1  0
 37 69  1  0
 37 70  1  0
 38 39  1  0
 38 71  1  0
 38 72  1  0
 39 40  1  0
 40 41  1  0
 40 73  1  0
 40 74  1  0
 41 75  1  0
 41 76  1  0
 42 77  1  0
M  END

