
     RDKit          3D

 31 33  0  0  0  0  0  0  0  0999 V2000
    1.1211    0.0007   -0.5986 O   0  0  0  0  0  0  0  0  0  0  0  0
    2.3177   -0.0473   -0.3943 C   0  0  0  0  0  0  0  0  0  0  0  0
    3.4148   -0.3506   -1.3515 C   0  0  0  0  0  0  0  0  0  0  0  0
    4.5834   -0.3063   -0.6833 C   0  0  0  0  0  0  0  0  0  0  0  0
    5.8447   -0.5071   -1.0945 O   0  0  0  0  0  0  0  0  0  0  0  0
    4.3905    0.0323    0.7848 C   0  0  2  0  0  0  0  0  0  0  0  0
    5.1289    1.3439    1.1534 C   0  0  0  0  0  0  0  0  0  0  0  0
    5.0062    1.6733    2.6445 C   0  0  0  0  0  0  0  0  0  0  0  0
    5.5049    0.5246    3.5259 C   0  0  2  0  0  0  0  0  0  0  0  0
    4.7863   -0.7841    3.1801 C   0  0  0  0  0  0  0  0  0  0  0  0
    4.8994   -1.1187    1.6891 C   0  0  0  0  0  0  0  0  0  0  0  0
    5.3059    0.8109    4.9053 O   0  0  0  0  0  0  0  0  0  0  0  0
    6.5640    1.0725    5.5021 C   0  0  0  0  0  0  0  0  0  0  0  0
    7.5194    0.2751    4.6180 C   0  0  0  0  0  0  0  0  0  0  0  0
    6.9157    0.3910    3.3419 O   0  0  0  0  0  0  0  0  0  0  0  0
    2.9415    0.1768    0.8220 N   0  0  0  0  0  0  0  0  0  0  0  0
    3.2395   -0.5672   -2.4044 H   0  0  0  0  0  0  0  0  0  0  0  0
    5.8522   -0.7139   -2.0400 H   0  0  0  0  0  0  0  0  0  0  0  0
    4.7245    2.1652    0.5416 H   0  0  0  0  0  0  0  0  0  0  0  0
    6.1927    1.2259    0.8956 H   0  0  0  0  0  0  0  0  0  0  0  0
    3.9569    1.8756    2.9160 H   0  0  0  0  0  0  0  0  0  0  0  0
    5.5831    2.5789    2.8881 H   0  0  0  0  0  0  0  0  0  0  0  0
    3.7313   -0.6860    3.4863 H   0  0  0  0  0  0  0  0  0  0  0  0
    5.2155   -1.5932    3.7917 H   0  0  0  0  0  0  0  0  0  0  0  0
    4.3341   -2.0340    1.4545 H   0  0  0  0  0  0  0  0  0  0  0  0
    5.9560   -1.3052    1.4420 H   0  0  0  0  0  0  0  0  0  0  0  0
    6.5409    0.7371    6.5502 H   0  0  0  0  0  0  0  0  0  0  0  0
    6.8038    2.1533    5.4800 H   0  0  0  0  0  0  0  0  0  0  0  0
    7.5799   -0.7820    4.9428 H   0  0  0  0  0  0  0  0  0  0  0  0
    8.5378    0.6891    4.5704 H   0  0  0  0  0  0  0  0  0  0  0  0
    2.4029    0.3727    1.6554 H   0  0  0  0  0  0  0  0  0  0  0  0
  1  2  2  0
  2  3  1  0
  2 16  1  0
  3  4  2  0
  3 17  1  0
  4  5  1  0
  6  4  1  6
  5 18  1  0
  6  7  1  0
  6 11  1  0
  6 16  1  0
  7  8  1  0
  7 19  1  0
  7 20  1  0
  8  9  1  0
  8 21  1  0
  8 22  1  0
  9 10  1  0
  9 12  1  1
  9 15  1  0
 10 11  1  0
 10 23  1  0
 10 24  1  0
 11 25  1  0
 11 26  1  0
 12 13  1  0
 13 14  1  0
 13 27  1  0
 13 28  1  0
 14 15  1  0
 14 29  1  0
 14 30  1  0
 16 31  1  0
M  END

