
     RDKit          3D

 38 39  0  0  0  0  0  0  0  0999 V2000
    2.7332    0.9534   -1.2028 N   0  0  0  0  0  0  0  0  0  0  0  0
    2.2126   -0.3112   -0.9812 C   0  0  0  0  0  0  0  0  0  0  0  0
    0.8241   -0.5106   -0.8646 C   0  0  0  0  0  0  0  0  0  0  0  0
    0.3183   -1.8002   -0.6919 C   0  0  0  0  0  0  0  0  0  0  0  0
    1.1594   -2.9094   -0.6286 C   0  0  0  0  0  0  0  0  0  0  0  0
    2.5448   -2.7129   -0.7433 C   0  0  0  0  0  0  0  0  0  0  0  0
    3.3189   -3.8379   -0.6716 O   0  0  0  0  0  0  0  0  0  0  0  0
    4.7219   -3.7410   -0.7742 C   0  0  0  0  0  0  0  0  0  0  0  0
    5.3786   -5.1163   -0.6603 C   0  0  0  0  0  0  0  0  0  0  0  0
    6.5920   -5.2177   -0.7292 O   0  0  0  0  0  0  0  0  0  0  0  0
    4.5260   -6.1562   -0.4749 N   0  0  0  0  0  0  0  0  0  0  0  0
    4.9907   -7.5244   -0.3720 C   0  0  0  0  0  0  0  0  0  0  0  0
    4.9635   -8.2813   -1.7065 C   0  0  0  0  0  0  0  0  0  0  0  0
    5.4911   -9.7130   -1.5666 C   0  0  0  0  0  0  0  0  0  0  0  0
    5.4752  -10.4625   -2.8124 N   0  0  0  0  0  0  0  0  0  0  0  0
    6.3668  -10.3479   -3.8600 C   0  0  0  0  0  0  0  0  0  0  0  0
    5.9096  -11.2115   -4.8319 C   0  0  0  0  0  0  0  0  0  0  0  0
    4.7679  -11.8452   -4.4119 N   0  0  0  0  0  0  0  0  0  0  0  0
    4.5339  -11.3759   -3.2079 C   0  0  0  0  0  0  0  0  0  0  0  0
    3.0727   -1.4296   -0.9173 C   0  0  0  0  0  0  0  0  0  0  0  0
    2.1412    1.7387   -0.9602 H   0  0  0  0  0  0  0  0  0  0  0  0
    3.7089    1.0982   -0.9725 H   0  0  0  0  0  0  0  0  0  0  0  0
    0.1473    0.3461   -0.9147 H   0  0  0  0  0  0  0  0  0  0  0  0
   -0.7621   -1.9420   -0.6023 H   0  0  0  0  0  0  0  0  0  0  0  0
    0.7714   -3.9198   -0.4922 H   0  0  0  0  0  0  0  0  0  0  0  0
    5.1477   -3.1066    0.0244 H   0  0  0  0  0  0  0  0  0  0  0  0
    5.0313   -3.3071   -1.7424 H   0  0  0  0  0  0  0  0  0  0  0  0
    3.5340   -5.9451   -0.4685 H   0  0  0  0  0  0  0  0  0  0  0  0
    4.3779   -8.0522    0.3792 H   0  0  0  0  0  0  0  0  0  0  0  0
    6.0228   -7.4850    0.0092 H   0  0  0  0  0  0  0  0  0  0  0  0
    5.5768   -7.7324   -2.4392 H   0  0  0  0  0  0  0  0  0  0  0  0
    3.9351   -8.3095   -2.1059 H   0  0  0  0  0  0  0  0  0  0  0  0
    4.8863  -10.2742   -0.8359 H   0  0  0  0  0  0  0  0  0  0  0  0
    6.5229   -9.7004   -1.1777 H   0  0  0  0  0  0  0  0  0  0  0  0
    7.2269   -9.6837   -3.8152 H   0  0  0  0  0  0  0  0  0  0  0  0
    6.3515  -11.4101   -5.8081 H   0  0  0  0  0  0  0  0  0  0  0  0
    3.7042  -11.6590   -2.5579 H   0  0  0  0  0  0  0  0  0  0  0  0
    4.1474   -1.2719   -1.0130 H   0  0  0  0  0  0  0  0  0  0  0  0
  1  2  1  0
  1 21  1  0
  1 22  1  0
  2  3  2  0
  2 20  1  0
  3  4  1  0
  3 23  1  0
  4  5  2  0
  4 24  1  0
  5  6  1  0
  5 25  1  0
  6  7  1  0
  6 20  2  0
  7  8  1  0
  8  9  1  0
  8 26  1  0
  8 27  1  0
  9 10  2  0
  9 11  1  0
 11 12  1  0
 11 28  1  0
 12 13  1  0
 12 29  1  0
 12 30  1  0
 13 14  1  0
 13 31  1  0
 13 32  1  0
 14 15  1  0
 14 33  1  0
 14 34  1  0
 15 16  1  0
 15 19  1  0
 16 17  2  0
 16 35  1  0
 17 18  1  0
 17 36  1  0
 18 19  2  0
 19 37  1  0
 20 38  1  0
M  END

