
     RDKit          3D

 51 54  0  0  0  0  0  0  0  0999 V2000
   -0.4766   -1.7134   -0.7217 C   0  0  0  0  0  0  0  0  0  0  0  0
    0.9699   -1.6510   -0.6342 N   0  0  0  0  0  0  0  0  0  0  0  0
    1.6896   -2.6165   -1.4587 C   0  0  0  0  0  0  0  0  0  0  0  0
    1.7939   -2.1921   -2.9319 C   0  0  0  0  0  0  0  0  0  0  0  0
    2.3585   -0.8441   -3.0529 N   0  0  0  0  0  0  0  0  0  0  0  0
    3.6660   -0.7351   -3.4816 C   0  0  0  0  0  0  0  0  0  0  0  0
    4.4089   -1.7000   -3.5569 O   0  0  0  0  0  0  0  0  0  0  0  0
    4.1093    0.5676   -3.8704 N   0  0  0  0  0  0  0  0  0  0  0  0
    5.4914    0.7026   -3.9407 C   0  0  0  0  0  0  0  0  0  0  0  0
    6.2182    1.7057   -4.4872 C   0  0  0  0  0  0  0  0  0  0  0  0
    5.7849    2.9352   -5.1140 C   0  0  0  0  0  0  0  0  0  0  0  0
    6.7272    3.7462   -5.7257 N   0  0  0  0  0  0  0  0  0  0  0  0
    7.7086    3.5185   -5.8088 H   0  0  0  0  0  0  0  0  0  0  0  0
    6.1249    4.8648   -6.2410 C   0  0  0  0  0  0  0  0  0  0  0  0
    6.6935    5.9389   -6.9368 C   0  0  0  0  0  0  0  0  0  0  0  0
    5.8518    6.9680   -7.3479 C   0  0  0  0  0  0  0  0  0  0  0  0
    4.4715    6.9173   -7.0650 C   0  0  0  0  0  0  0  0  0  0  0  0
    3.9094    5.8463   -6.3764 C   0  0  0  0  0  0  0  0  0  0  0  0
    4.7276    4.7762   -5.9416 C   0  0  0  0  0  0  0  0  0  0  0  0
    4.5309    3.5318   -5.2232 C   0  0  0  0  0  0  0  0  0  0  0  0
    3.2762    2.9448   -4.5900 C   0  0  2  0  0  0  0  0  0  0  0  0
    1.9986    3.4355   -5.3058 C   0  0  0  0  0  0  0  0  0  0  0  0
    3.2082    3.3759   -3.1080 C   0  0  0  0  0  0  0  0  0  0  0  0
    3.2532    1.3854   -4.7477 C   0  0  0  0  0  0  0  0  0  0  0  0
    1.6680    0.1582   -2.2409 C   0  0  0  0  0  0  0  0  0  0  0  0
    1.5479   -0.3242   -0.7793 C   0  0  0  0  0  0  0  0  0  0  0  0
   -0.8174   -2.7319   -0.4739 H   0  0  0  0  0  0  0  0  0  0  0  0
   -0.9118   -1.4545   -1.7129 H   0  0  0  0  0  0  0  0  0  0  0  0
   -0.9213   -1.0279    0.0180 H   0  0  0  0  0  0  0  0  0  0  0  0
    1.1988   -3.6004   -1.3815 H   0  0  0  0  0  0  0  0  0  0  0  0
    2.7134   -2.7266   -1.0594 H   0  0  0  0  0  0  0  0  0  0  0  0
    0.7930   -2.1869   -3.4011 H   0  0  0  0  0  0  0  0  0  0  0  0
    2.4352   -2.8856   -3.4889 H   0  0  0  0  0  0  0  0  0  0  0  0
    6.0181   -0.1433   -3.5002 H   0  0  0  0  0  0  0  0  0  0  0  0
    7.3018    1.5673   -4.4271 H   0  0  0  0  0  0  0  0  0  0  0  0
    7.7659    5.9660   -7.1476 H   0  0  0  0  0  0  0  0  0  0  0  0
    6.2638    7.8210   -7.8926 H   0  0  0  0  0  0  0  0  0  0  0  0
    3.8272    7.7363   -7.3950 H   0  0  0  0  0  0  0  0  0  0  0  0
    2.8377    5.8515   -6.1845 H   0  0  0  0  0  0  0  0  0  0  0  0
    1.8363    4.5084   -5.1414 H   0  0  0  0  0  0  0  0  0  0  0  0
    1.1133    2.9135   -4.9085 H   0  0  0  0  0  0  0  0  0  0  0  0
    2.0428    3.2583   -6.3916 H   0  0  0  0  0  0  0  0  0  0  0  0
    3.2929    4.4706   -3.0354 H   0  0  0  0  0  0  0  0  0  0  0  0
    4.0295    2.9376   -2.5223 H   0  0  0  0  0  0  0  0  0  0  0  0
    2.2506    3.0881   -2.6444 H   0  0  0  0  0  0  0  0  0  0  0  0
    3.5123    1.1538   -5.7959 H   0  0  0  0  0  0  0  0  0  0  0  0
    2.2269    1.0346   -4.5957 H   0  0  0  0  0  0  0  0  0  0  0  0
    0.6660    0.3515   -2.6676 H   0  0  0  0  0  0  0  0  0  0  0  0
    2.2282    1.0971   -2.2636 H   0  0  0  0  0  0  0  0  0  0  0  0
    0.9536    0.4016   -0.1997 H   0  0  0  0  0  0  0  0  0  0  0  0
    2.5636   -0.3383   -0.3423 H   0  0  0  0  0  0  0  0  0  0  0  0
  1  2  1  0
  1 27  1  0
  1 28  1  0
  1 29  1  0
  2  3  1  0
  2 26  1  0
  3  4  1  0
  3 30  1  0
  3 31  1  0
  4  5  1  0
  4 32  1  0
  4 33  1  0
  5  6  1  0
  5 25  1  0
  6  7  2  0
  6  8  1  0
  8  9  1  0
  8 24  1  0
  9 10  2  0
  9 34  1  0
 10 11  1  0
 10 35  1  0
 11 12  1  0
 11 20  2  0
 12 13  1  0
 12 14  1  0
 14 15  1  0
 14 19  2  0
 15 16  2  0
 15 36  1  0
 16 17  1  0
 16 37  1  0
 17 18  2  0
 17 38  1  0
 18 19  1  0
 18 39  1  0
 19 20  1  0
 20 21  1  0
 21 22  1  6
 21 23  1  0
 21 24  1  0
 22 40  1  0
 22 41  1  0
 22 42  1  0
 23 43  1  0
 23 44  1  0
 23 45  1  0
 24 46  1  0
 24 47  1  0
 25 26  1  0
 25 48  1  0
 25 49  1  0
 26 50  1  0
 26 51  1  0
M  END

