
     RDKit          3D

 35 34  0  0  0  0  0  0  0  0999 V2000
    2.3107    1.2968    0.0012 C   0  0  0  0  0  0  0  0  0  0  0  0
    3.3329    0.1749   -0.1531 C   0  0  0  0  0  0  0  0  0  0  0  0
    3.4106   -0.7125    1.0954 C   0  0  0  0  0  0  0  0  0  0  0  0
    4.5006   -1.7911    0.9093 C   0  0  0  0  0  0  0  0  0  0  0  0
    5.0767   -2.2640    2.1668 N   0  0  0  0  0  0  0  0  0  0  0  0
    4.2459   -2.9065    3.1459 C   0  0  0  0  0  0  0  0  0  0  0  0
    6.4600   -1.9099    2.4919 C   0  0  0  0  0  0  0  0  0  0  0  0
    6.6067   -0.3821    2.6886 C   0  0  1  0  0  0  0  0  0  0  0  0
    6.3031    0.0590    4.1170 C   0  0  0  0  0  0  0  0  0  0  0  0
    7.9340    0.2752    2.1714 C   0  0  1  0  0  0  0  0  0  0  0  0
    8.5006   -0.3301    0.8802 C   0  0  0  0  0  0  0  0  0  0  0  0
    7.6565    1.6365    2.0030 O   0  0  0  0  0  0  0  0  0  0  0  0
    2.2313    1.8813   -0.9296 H   0  0  0  0  0  0  0  0  0  0  0  0
    2.6450    1.9894    0.7958 H   0  0  0  0  0  0  0  0  0  0  0  0
    1.3015    0.9311    0.2570 H   0  0  0  0  0  0  0  0  0  0  0  0
    4.3531    0.6372   -0.2557 H   0  0  0  0  0  0  0  0  0  0  0  0
    3.1255   -0.4353   -1.0514 H   0  0  0  0  0  0  0  0  0  0  0  0
    2.4383   -1.1728    1.3409 H   0  0  0  0  0  0  0  0  0  0  0  0
    3.6945   -0.0588    1.9387 H   0  0  0  0  0  0  0  0  0  0  0  0
    5.3201   -1.3701    0.3129 H   0  0  0  0  0  0  0  0  0  0  0  0
    4.0940   -2.6763    0.3893 H   0  0  0  0  0  0  0  0  0  0  0  0
    3.2781   -3.1860    2.7147 H   0  0  0  0  0  0  0  0  0  0  0  0
    4.0861   -2.2171    3.9941 H   0  0  0  0  0  0  0  0  0  0  0  0
    4.7609   -3.7962    3.5414 H   0  0  0  0  0  0  0  0  0  0  0  0
    7.0554   -2.2481    1.6328 H   0  0  0  0  0  0  0  0  0  0  0  0
    6.7656   -2.4913    3.3749 H   0  0  0  0  0  0  0  0  0  0  0  0
    5.8776    0.1043    2.0038 H   0  0  0  0  0  0  0  0  0  0  0  0
    6.9953   -0.3933    4.8497 H   0  0  0  0  0  0  0  0  0  0  0  0
    5.2694   -0.1713    4.4337 H   0  0  0  0  0  0  0  0  0  0  0  0
    6.4201    1.1515    4.1619 H   0  0  0  0  0  0  0  0  0  0  0  0
    8.7034    0.1940    2.9666 H   0  0  0  0  0  0  0  0  0  0  0  0
    7.7295   -0.2775    0.0870 H   0  0  0  0  0  0  0  0  0  0  0  0
    8.8773   -1.3634    0.9958 H   0  0  0  0  0  0  0  0  0  0  0  0
    9.3443    0.2964    0.5544 H   0  0  0  0  0  0  0  0  0  0  0  0
    6.8935    1.6866    1.3029 H   0  0  0  0  0  0  0  0  0  0  0  0
  1  2  1  0
  1 13  1  0
  1 14  1  0
  1 15  1  0
  2  3  1  0
  2 16  1  0
  2 17  1  0
  3  4  1  0
  3 18  1  0
  3 19  1  0
  4  5  1  0
  4 20  1  0
  4 21  1  0
  5  6  1  0
  5  7  1  0
  6 22  1  0
  6 23  1  0
  6 24  1  0
  7  8  1  0
  7 25  1  0
  7 26  1  0
  8  9  1  0
  8 10  1  0
  8 27  1  6
  9 28  1  0
  9 29  1  0
  9 30  1  0
 10 11  1  0
 10 12  1  0
 10 31  1  1
 11 32  1  0
 11 33  1  0
 11 34  1  0
 12 35  1  0
M  END

