
     RDKit          3D

 86 88  0  0  0  0  0  0  0  0999 V2000
    8.9270   -0.3878    3.7008 C   0  0  0  0  0  0  0  0  0  0  0  0
    8.0808   -1.6551    3.8136 C   0  0  0  0  0  0  0  0  0  0  0  0
    8.4929   -2.7796    2.8304 C   0  0  1  0  0  0  0  0  0  0  0  0
    9.5562   -3.0180    3.0190 H   0  0  0  0  0  0  0  0  0  0  0  0
    7.6743   -4.0215    3.1277 C   0  0  0  0  0  0  0  0  0  0  0  0
    6.9043   -4.5315    2.3522 O   0  0  0  0  0  0  0  0  0  0  0  0
    8.3634   -2.4271    1.4337 N   0  0  0  0  0  0  0  0  0  0  0  0
    9.4434   -2.0764    0.6810 C   0  0  0  0  0  0  0  0  0  0  0  0
   10.5536   -1.8790    1.1456 O   0  0  0  0  0  0  0  0  0  0  0  0
    9.2008   -1.8779   -0.8268 C   0  0  2  0  0  0  0  0  0  0  0  0
    9.9204   -2.5423   -1.3248 H   0  0  0  0  0  0  0  0  0  0  0  0
    9.3831   -0.4036   -1.2201 C   0  0  0  0  0  0  0  0  0  0  0  0
    7.9702    0.1559   -1.0442 C   0  0  1  0  0  0  0  0  0  0  0  0
    7.7690    0.3722    0.0142 H   0  0  0  0  0  0  0  0  0  0  0  0
    7.7523    1.3490   -1.7916 O   0  0  0  0  0  0  0  0  0  0  0  0
    7.4864    2.4967   -1.1032 C   0  0  0  0  0  0  0  0  0  0  0  0
    7.4132    2.5712    0.1020 O   0  0  0  0  0  0  0  0  0  0  0  0
    7.3216    3.5100   -2.0067 N   0  0  0  0  0  0  0  0  0  0  0  0
    7.0287    4.8653   -1.7625 C   0  0  0  0  0  0  0  0  0  0  0  0
    6.8863    5.4037   -0.4717 C   0  0  0  0  0  0  0  0  0  0  0  0
    6.5973    6.7625   -0.3223 C   0  0  0  0  0  0  0  0  0  0  0  0
    6.4465    7.5990   -1.4316 C   0  0  0  0  0  0  0  0  0  0  0  0
    6.5889    7.0599   -2.7137 C   0  0  0  0  0  0  0  0  0  0  0  0
    6.8770    5.7059   -2.8803 C   0  0  0  0  0  0  0  0  0  0  0  0
    7.0599   -0.9680   -1.5642 C   0  0  0  0  0  0  0  0  0  0  0  0
    7.8415   -2.1907   -1.3016 N   0  0  0  0  0  0  0  0  0  0  0  0
    7.5900   -3.4355   -1.8255 C   0  0  0  0  0  0  0  0  0  0  0  0
    8.4015   -4.3457   -1.7301 O   0  0  0  0  0  0  0  0  0  0  0  0
    6.2731   -3.6431   -2.5980 C   0  0  1  0  0  0  0  0  0  0  0  0
    5.7038   -2.7085   -2.6497 H   0  0  0  0  0  0  0  0  0  0  0  0
    6.6268   -3.9521   -3.9767 N   0  0  0  0  0  0  0  0  0  0  0  0
    6.5259   -3.0350   -4.9774 C   0  0  0  0  0  0  0  0  0  0  0  0
    6.0474   -1.9185   -4.8190 O   0  0  0  0  0  0  0  0  0  0  0  0
    7.0286   -3.4896   -6.3639 C   0  0  1  0  0  0  0  0  0  0  0  0
    7.8181   -2.7718   -6.6359 H   0  0  0  0  0  0  0  0  0  0  0  0
    7.6698   -4.7927   -6.3410 N   0  0  0  0  0  0  0  0  0  0  0  0
    9.0156   -4.9554   -6.4987 C   0  0  0  0  0  0  0  0  0  0  0  0
    9.8226   -4.0441   -6.5794 O   0  0  0  0  0  0  0  0  0  0  0  0
    9.4491   -6.4027   -6.5485 C   0  0  0  0  0  0  0  0  0  0  0  0
   10.8107   -6.7195   -6.6701 C   0  0  0  0  0  0  0  0  0  0  0  0
   11.2302   -7.9847   -6.7162 N   0  0  0  0  0  0  0  0  0  0  0  0
   10.2942   -8.9322   -6.6401 C   0  0  0  0  0  0  0  0  0  0  0  0
    8.9333   -8.6212   -6.5189 C   0  0  0  0  0  0  0  0  0  0  0  0
    8.5150   -7.3572   -6.4738 N   0  0  0  0  0  0  0  0  0  0  0  0
    5.9106   -3.4311   -7.4468 C   0  0  1  0  0  0  0  0  0  0  0  0
    4.6622   -4.2297   -7.0475 C   0  0  0  0  0  0  0  0  0  0  0  0
    5.5550   -1.9943   -7.8474 C   0  0  0  0  0  0  0  0  0  0  0  0
    5.3419   -4.7199   -1.9787 C   0  0  1  0  0  0  0  0  0  0  0  0
    5.9070   -6.1458   -2.0074 C   0  0  0  0  0  0  0  0  0  0  0  0
    4.9095   -4.3199   -0.5627 C   0  0  0  0  0  0  0  0  0  0  0  0
    8.6138    0.3509    4.4550 H   0  0  0  0  0  0  0  0  0  0  0  0
    8.8188    0.0820    2.7118 H   0  0  0  0  0  0  0  0  0  0  0  0
    9.9962   -0.6033    3.8475 H   0  0  0  0  0  0  0  0  0  0  0  0
    7.0156   -1.4161    3.6455 H   0  0  0  0  0  0  0  0  0  0  0  0
    8.1502   -2.0589    4.8396 H   0  0  0  0  0  0  0  0  0  0  0  0
    7.8059   -4.4295    4.1621 H   0  0  0  0  0  0  0  0  0  0  0  0
    7.5218   -2.7355    0.9556 H   0  0  0  0  0  0  0  0  0  0  0  0
    9.6758   -0.3246   -2.2790 H   0  0  0  0  0  0  0  0  0  0  0  0
   10.1399    0.0997   -0.6044 H   0  0  0  0  0  0  0  0  0  0  0  0
    7.4162    3.2330   -2.9775 H   0  0  0  0  0  0  0  0  0  0  0  0
    7.0022    4.7567    0.3951 H   0  0  0  0  0  0  0  0  0  0  0  0
    6.4892    7.1702    0.6863 H   0  0  0  0  0  0  0  0  0  0  0  0
    6.2207    8.6596   -1.2995 H   0  0  0  0  0  0  0  0  0  0  0  0
    6.4748    7.6960   -3.5952 H   0  0  0  0  0  0  0  0  0  0  0  0
    6.9864    5.2910   -3.8869 H   0  0  0  0  0  0  0  0  0  0  0  0
    6.8732   -0.8299   -2.6417 H   0  0  0  0  0  0  0  0  0  0  0  0
    6.0887   -0.9813   -1.0451 H   0  0  0  0  0  0  0  0  0  0  0  0
    7.2032   -4.7704   -4.1418 H   0  0  0  0  0  0  0  0  0  0  0  0
    7.1165   -5.6456   -6.3910 H   0  0  0  0  0  0  0  0  0  0  0  0
   11.5515   -5.9172   -6.7278 H   0  0  0  0  0  0  0  0  0  0  0  0
   10.6261   -9.9761   -6.6756 H   0  0  0  0  0  0  0  0  0  0  0  0
    8.1768   -9.4110   -6.4580 H   0  0  0  0  0  0  0  0  0  0  0  0
    6.3606   -3.9210   -8.3287 H   0  0  0  0  0  0  0  0  0  0  0  0
    4.1445   -3.7585   -6.1963 H   0  0  0  0  0  0  0  0  0  0  0  0
    4.8966   -5.2704   -6.7668 H   0  0  0  0  0  0  0  0  0  0  0  0
    3.9490   -4.2747   -7.8855 H   0  0  0  0  0  0  0  0  0  0  0  0
    5.1270   -1.4413   -7.0001 H   0  0  0  0  0  0  0  0  0  0  0  0
    4.8261   -2.0000   -8.6741 H   0  0  0  0  0  0  0  0  0  0  0  0
    6.4474   -1.4457   -8.1891 H   0  0  0  0  0  0  0  0  0  0  0  0
    4.4452   -4.7026   -2.6249 H   0  0  0  0  0  0  0  0  0  0  0  0
    6.8202   -6.2297   -1.4018 H   0  0  0  0  0  0  0  0  0  0  0  0
    6.1491   -6.4700   -3.0325 H   0  0  0  0  0  0  0  0  0  0  0  0
    5.1590   -6.8527   -1.6139 H   0  0  0  0  0  0  0  0  0  0  0  0
    5.7405   -4.3860    0.1576 H   0  0  0  0  0  0  0  0  0  0  0  0
    4.1202   -4.9953   -0.1968 H   0  0  0  0  0  0  0  0  0  0  0  0
    4.5018   -3.2952   -0.5351 H   0  0  0  0  0  0  0  0  0  0  0  0
  1  2  1  0
  1 51  1  0
  1 52  1  0
  1 53  1  0
  2  3  1  0
  2 54  1  0
  2 55  1  0
  3  4  1  6
  3  5  1  0
  3  7  1  0
  5  6  2  0
  5 56  1  0
  7  8  1  0
  7 57  1  0
  8  9  2  0
  8 10  1  0
 10 11  1  6
 10 12  1  0
 10 26  1  0
 12 13  1  0
 12 58  1  0
 12 59  1  0
 13 14  1  1
 13 15  1  0
 13 25  1  0
 15 16  1  0
 16 17  2  0
 16 18  1  0
 18 19  1  0
 18 60  1  0
 19 20  2  0
 19 24  1  0
 20 21  1  0
 20 61  1  0
 21 22  2  0
 21 62  1  0
 22 23  1  0
 22 63  1  0
 23 24  2  0
 23 64  1  0
 24 65  1  0
 25 26  1  0
 25 66  1  0
 25 67  1  0
 26 27  1  0
 27 28  2  0
 27 29  1  0
 29 30  1  6
 29 31  1  0
 29 48  1  0
 31 32  1  0
 31 68  1  0
 32 33  2  0
 32 34  1  0
 34 35  1  6
 34 36  1  0
 34 45  1  0
 36 37  1  0
 36 69  1  0
 37 38  2  0
 37 39  1  0
 39 40  2  0
 39 44  1  0
 40 41  1  0
 40 70  1  0
 41 42  2  0
 42 43  1  0
 42 71  1  0
 43 44  2  0
 43 72  1  0
 45 46  1  0
 45 47  1  0
 45 73  1  6
 46 74  1  0
 46 75  1  0
 46 76  1  0
 47 77  1  0
 47 78  1  0
 47 79  1  0
 48 49  1  0
 48 50  1  0
 48 80  1  6
 49 81  1  0
 49 82  1  0
 49 83  1  0
 50 84  1  0
 50 85  1  0
 50 86  1  0
M  END

