
     RDKit          3D

 40 41  0  0  0  0  0  0  0  0999 V2000
    2.8640   -1.4060    0.2874 C   0  0  0  0  0  0  0  0  0  0  0  0
    2.5174    0.0202   -0.1499 C   0  0  1  0  0  0  0  0  0  0  0  0
    2.7301    0.2352   -1.6512 C   0  0  0  0  0  0  0  0  0  0  0  0
    1.0897    0.3844    0.2576 C   0  0  0  0  0  0  0  0  0  0  0  0
    3.3310    0.9885    0.6115 O   0  0  0  0  0  0  0  0  0  0  0  0
    4.6631    1.0241    0.5456 C   0  0  0  0  0  0  0  0  0  0  0  0
    5.3648    0.2950   -0.1177 O   0  0  0  0  0  0  0  0  0  0  0  0
    5.2113    2.1260    1.4360 C   0  0  0  0  0  0  0  0  0  0  0  0
    6.7245    2.1919    1.3624 C   0  0  0  0  0  0  0  0  0  0  0  0
    7.1468    3.2649    2.2268 O   0  0  0  0  0  0  0  0  0  0  0  0
    8.4282    3.5342    2.3061 C   0  0  0  0  0  0  0  0  0  0  0  0
    9.4034    2.8898    1.6465 N   0  0  0  0  0  0  0  0  0  0  0  0
   10.4952    3.5275    2.0568 C   0  0  0  0  0  0  0  0  0  0  0  0
   10.1380    4.5563    2.9670 N   0  0  0  0  0  0  0  0  0  0  0  0
   11.0069    5.4431    3.6088 C   0  0  0  0  0  0  0  0  0  0  0  0
   12.4232    5.3318    3.3227 C   0  0  0  0  0  0  0  0  0  0  0  0
   13.2827    6.2220    3.9742 C   0  0  0  0  0  0  0  0  0  0  0  0
   12.8082    7.1823    4.8681 C   0  0  0  0  0  0  0  0  0  0  0  0
   11.4036    7.2790    5.1380 C   0  0  0  0  0  0  0  0  0  0  0  0
   10.5216    6.4135    4.5092 C   0  0  0  0  0  0  0  0  0  0  0  0
    8.8238    4.5545    3.1215 N   0  0  0  0  0  0  0  0  0  0  0  0
    2.1769   -2.1160   -0.1987 H   0  0  0  0  0  0  0  0  0  0  0  0
    2.7475   -1.5136    1.3771 H   0  0  0  0  0  0  0  0  0  0  0  0
    3.8927   -1.6706    0.0118 H   0  0  0  0  0  0  0  0  0  0  0  0
    2.0373   -0.4075   -2.2162 H   0  0  0  0  0  0  0  0  0  0  0  0
    3.7572   -0.0111   -1.9497 H   0  0  0  0  0  0  0  0  0  0  0  0
    2.5211    1.2815   -1.9240 H   0  0  0  0  0  0  0  0  0  0  0  0
    0.3699   -0.2751   -0.2502 H   0  0  0  0  0  0  0  0  0  0  0  0
    0.8615    1.4258   -0.0146 H   0  0  0  0  0  0  0  0  0  0  0  0
    0.9565    0.2751    1.3444 H   0  0  0  0  0  0  0  0  0  0  0  0
    4.8748    1.9474    2.4703 H   0  0  0  0  0  0  0  0  0  0  0  0
    4.7610    3.0849    1.1321 H   0  0  0  0  0  0  0  0  0  0  0  0
    7.0863    2.3908    0.3429 H   0  0  0  0  0  0  0  0  0  0  0  0
    7.2013    1.2577    1.6943 H   0  0  0  0  0  0  0  0  0  0  0  0
   11.5204    3.3199    1.7717 H   0  0  0  0  0  0  0  0  0  0  0  0
   12.8176    4.6018    2.6187 H   0  0  0  0  0  0  0  0  0  0  0  0
   14.3564    6.1603    3.7735 H   0  0  0  0  0  0  0  0  0  0  0  0
   13.5068    7.8613    5.3624 H   0  0  0  0  0  0  0  0  0  0  0  0
   11.0259    8.0296    5.8347 H   0  0  0  0  0  0  0  0  0  0  0  0
    9.4484    6.4671    4.6990 H   0  0  0  0  0  0  0  0  0  0  0  0
  1  2  1  0
  1 22  1  0
  1 23  1  0
  1 24  1  0
  2  3  1  0
  2  4  1  0
  2  5  1  1
  3 25  1  0
  3 26  1  0
  3 27  1  0
  4 28  1  0
  4 29  1  0
  4 30  1  0
  5  6  1  0
  6  7  2  0
  6  8  1  0
  8  9  1  0
  8 31  1  0
  8 32  1  0
  9 10  1  0
  9 33  1  0
  9 34  1  0
 10 11  1  0
 11 12  1  0
 11 21  2  0
 12 13  2  0
 13 14  1  0
 13 35  1  0
 14 15  1  0
 14 21  1  0
 15 16  2  0
 15 20  1  0
 16 17  1  0
 16 36  1  0
 17 18  2  0
 17 37  1  0
 18 19  1  0
 18 38  1  0
 19 20  2  0
 19 39  1  0
 20 40  1  0
M  END

