
     RDKit          3D

 46 48  0  0  0  0  0  0  0  0999 V2000
    2.6179   -7.6758    0.3612 C   0  0  0  0  0  0  0  0  0  0  0  0
    2.0900   -6.3405   -0.0160 C   0  0  0  0  0  0  0  0  0  0  0  0
    0.7968   -5.9365    0.1452 N   0  0  0  0  0  0  0  0  0  0  0  0
    0.6708   -4.7160    0.1376 N   0  0  0  0  0  0  0  0  0  0  0  0
    1.8564   -4.0744   -0.0282 C   0  0  0  0  0  0  0  0  0  0  0  0
    2.8227   -5.1153    0.1389 N   0  0  0  0  0  0  0  0  0  0  0  0
    4.1611   -4.8821   -0.3677 C   0  0  0  0  0  0  0  0  0  0  0  0
    4.6602   -3.5008    0.0911 C   0  0  2  0  0  0  0  0  0  0  0  0
    5.0095   -3.4737    1.5941 C   0  0  0  0  0  0  0  0  0  0  0  0
    6.0672   -4.3971    1.9686 N   0  0  0  0  0  0  0  0  0  0  0  0
    7.3927   -4.0627    1.7666 C   0  0  0  0  0  0  0  0  0  0  0  0
    7.7200   -3.0360    1.1819 O   0  0  0  0  0  0  0  0  0  0  0  0
    8.3154   -4.9595    2.2522 N   0  0  0  0  0  0  0  0  0  0  0  0
    9.7475   -4.7508    2.0287 C   0  0  0  0  0  0  0  0  0  0  0  0
   10.3421   -6.1634    2.1619 C   0  0  2  0  0  0  0  0  0  0  0  0
   10.3329   -6.9186    0.8277 C   0  0  0  0  0  0  0  0  0  0  0  0
    9.4289   -6.7820    3.2556 C   0  0  2  0  0  0  0  0  0  0  0  0
    9.4820   -8.2960    3.4377 C   0  0  0  0  0  0  0  0  0  0  0  0
    8.0327   -6.2344    2.8971 C   0  0  0  0  0  0  0  0  0  0  0  0
    3.6413   -2.4022   -0.2859 C   0  0  0  0  0  0  0  0  0  0  0  0
    2.2262   -2.6679    0.2742 C   0  0  0  0  0  0  0  0  0  0  0  0
    1.8395   -8.4376    0.2129 H   0  0  0  0  0  0  0  0  0  0  0  0
    2.9452   -7.7216    1.4252 H   0  0  0  0  0  0  0  0  0  0  0  0
    3.4848   -7.9611   -0.2568 H   0  0  0  0  0  0  0  0  0  0  0  0
    4.1595   -4.9308   -1.4799 H   0  0  0  0  0  0  0  0  0  0  0  0
    4.8354   -5.6688    0.0032 H   0  0  0  0  0  0  0  0  0  0  0  0
    5.5988   -3.2933   -0.4459 H   0  0  0  0  0  0  0  0  0  0  0  0
    4.1242   -3.7248    2.1971 H   0  0  0  0  0  0  0  0  0  0  0  0
    5.3204   -2.4494    1.8561 H   0  0  0  0  0  0  0  0  0  0  0  0
    5.8276   -5.1936    2.5420 H   0  0  0  0  0  0  0  0  0  0  0  0
   10.1707   -4.0634    2.7852 H   0  0  0  0  0  0  0  0  0  0  0  0
    9.9130   -4.2889    1.0449 H   0  0  0  0  0  0  0  0  0  0  0  0
   11.3803   -6.1082    2.5292 H   0  0  0  0  0  0  0  0  0  0  0  0
    9.3174   -6.9881    0.4040 H   0  0  0  0  0  0  0  0  0  0  0  0
   10.7261   -7.9417    0.9319 H   0  0  0  0  0  0  0  0  0  0  0  0
   10.9600   -6.3971    0.0877 H   0  0  0  0  0  0  0  0  0  0  0  0
    9.7246   -6.3118    4.2105 H   0  0  0  0  0  0  0  0  0  0  0  0
    9.1565   -8.8311    2.5316 H   0  0  0  0  0  0  0  0  0  0  0  0
    8.8269   -8.6168    4.2642 H   0  0  0  0  0  0  0  0  0  0  0  0
   10.5035   -8.6318    3.6786 H   0  0  0  0  0  0  0  0  0  0  0  0
    7.4069   -6.1153    3.8016 H   0  0  0  0  0  0  0  0  0  0  0  0
    7.4961   -6.9262    2.2162 H   0  0  0  0  0  0  0  0  0  0  0  0
    3.5785   -2.3508   -1.3857 H   0  0  0  0  0  0  0  0  0  0  0  0
    4.0055   -1.4219    0.0617 H   0  0  0  0  0  0  0  0  0  0  0  0
    1.4967   -1.9720   -0.1681 H   0  0  0  0  0  0  0  0  0  0  0  0
    2.2205   -2.4729    1.3705 H   0  0  0  0  0  0  0  0  0  0  0  0
  1  2  1  0
  1 22  1  0
  1 23  1  0
  1 24  1  0
  2  3  2  0
  2  6  1  0
  3  4  1  0
  4  5  2  0
  5  6  1  0
  5 21  1  0
  6  7  1  0
  7  8  1  0
  7 25  1  0
  7 26  1  0
  8  9  1  0
  8 20  1  0
  8 27  1  6
  9 10  1  0
  9 28  1  0
  9 29  1  0
 10 11  1  0
 10 30  1  0
 11 12  2  0
 11 13  1  0
 13 14  1  0
 13 19  1  0
 14 15  1  0
 14 31  1  0
 14 32  1  0
 15 16  1  0
 15 17  1  0
 15 33  1  1
 16 34  1  0
 16 35  1  0
 16 36  1  0
 17 18  1  0
 17 19  1  0
 17 37  1  1
 18 38  1  0
 18 39  1  0
 18 40  1  0
 19 41  1  0
 19 42  1  0
 20 21  1  0
 20 43  1  0
 20 44  1  0
 21 45  1  0
 21 46  1  0
M  END

