
     RDKit          3D

 46 47  0  0  0  0  0  0  0  0999 V2000
    0.3184    0.3328    1.1768 C   0  0  0  0  0  0  0  0  0  0  0  0
    1.7100    0.1514    1.2364 O   0  0  0  0  0  0  0  0  0  0  0  0
    2.5400    1.2151    1.0385 C   0  0  0  0  0  0  0  0  0  0  0  0
    2.0725    2.5182    0.7881 C   0  0  0  0  0  0  0  0  0  0  0  0
    2.9698    3.5762    0.6029 C   0  0  0  0  0  0  0  0  0  0  0  0
    2.5999    4.8579    0.3553 O   0  0  0  0  0  0  0  0  0  0  0  0
    1.2334    5.1758    0.2690 C   0  0  0  0  0  0  0  0  0  0  0  0
    4.3632    3.3358    0.6762 C   0  0  0  0  0  0  0  0  0  0  0  0
    5.1702    4.4165    0.4919 O   0  0  0  0  0  0  0  0  0  0  0  0
    6.5621    4.2382    0.5548 C   0  0  0  0  0  0  0  0  0  0  0  0
    4.8039    2.0351    0.9285 C   0  0  0  0  0  0  0  0  0  0  0  0
    3.9185    0.9609    1.1146 C   0  0  0  0  0  0  0  0  0  0  0  0
    4.4423   -0.4386    1.3319 C   0  0  0  0  0  0  0  0  0  0  0  0
    4.4774   -1.2007    0.0902 N   0  0  0  0  0  0  0  0  0  0  0  0
    4.9970   -2.5439    0.2206 C   0  0  0  0  0  0  0  0  0  0  0  0
    5.0105   -3.2613   -1.1297 C   0  0  1  0  0  0  0  0  0  0  0  0
    5.9156   -2.5069   -1.9188 O   0  0  0  0  0  0  0  0  0  0  0  0
    6.0396   -2.7978   -3.2855 C   0  0  0  0  0  0  0  0  0  0  0  0
    5.2438   -4.7914   -0.9785 C   0  0  0  0  0  0  0  0  0  0  0  0
    3.7105   -4.9989   -1.0989 C   0  0  0  0  0  0  0  0  0  0  0  0
    3.5761   -3.5571   -1.6577 C   0  0  0  0  0  0  0  0  0  0  0  0
   -0.1358   -0.6510    1.3587 H   0  0  0  0  0  0  0  0  0  0  0  0
   -0.0110    0.6959    0.1855 H   0  0  0  0  0  0  0  0  0  0  0  0
   -0.0443    1.0379    1.9483 H   0  0  0  0  0  0  0  0  0  0  0  0
    1.0041    2.7116    0.7359 H   0  0  0  0  0  0  0  0  0  0  0  0
    1.1743    6.2535    0.0641 H   0  0  0  0  0  0  0  0  0  0  0  0
    0.6969    4.9641    1.2127 H   0  0  0  0  0  0  0  0  0  0  0  0
    0.7312    4.6302   -0.5515 H   0  0  0  0  0  0  0  0  0  0  0  0
    7.0144    5.2247    0.3822 H   0  0  0  0  0  0  0  0  0  0  0  0
    6.9279    3.5391   -0.2208 H   0  0  0  0  0  0  0  0  0  0  0  0
    6.8900    3.8649    1.5434 H   0  0  0  0  0  0  0  0  0  0  0  0
    5.8738    1.8304    0.9929 H   0  0  0  0  0  0  0  0  0  0  0  0
    3.7841   -0.9708    2.0385 H   0  0  0  0  0  0  0  0  0  0  0  0
    5.4419   -0.3726    1.8204 H   0  0  0  0  0  0  0  0  0  0  0  0
    5.0210   -0.7049   -0.6150 H   0  0  0  0  0  0  0  0  0  0  0  0
    4.3610   -3.1078    0.9249 H   0  0  0  0  0  0  0  0  0  0  0  0
    6.0343   -2.5847    0.6289 H   0  0  0  0  0  0  0  0  0  0  0  0
    6.8675   -2.1838   -3.6708 H   0  0  0  0  0  0  0  0  0  0  0  0
    5.1299   -2.5451   -3.8625 H   0  0  0  0  0  0  0  0  0  0  0  0
    6.2856   -3.8594   -3.4800 H   0  0  0  0  0  0  0  0  0  0  0  0
    5.7467   -5.1230   -0.0557 H   0  0  0  0  0  0  0  0  0  0  0  0
    5.7864   -5.2146   -1.8370 H   0  0  0  0  0  0  0  0  0  0  0  0
    3.2200   -5.1253   -0.1220 H   0  0  0  0  0  0  0  0  0  0  0  0
    3.3766   -5.8154   -1.7566 H   0  0  0  0  0  0  0  0  0  0  0  0
    2.7874   -2.9034   -1.2585 H   0  0  0  0  0  0  0  0  0  0  0  0
    3.5183   -3.5506   -2.7557 H   0  0  0  0  0  0  0  0  0  0  0  0
  1  2  1  0
  1 22  1  0
  1 23  1  0
  1 24  1  0
  2  3  1  0
  3  4  2  0
  3 12  1  0
  4  5  1  0
  4 25  1  0
  5  6  1  0
  5  8  2  0
  6  7  1  0
  7 26  1  0
  7 27  1  0
  7 28  1  0
  8  9  1  0
  8 11  1  0
  9 10  1  0
 10 29  1  0
 10 30  1  0
 10 31  1  0
 11 12  2  0
 11 32  1  0
 12 13  1  0
 13 14  1  0
 13 33  1  0
 13 34  1  0
 14 15  1  0
 14 35  1  0
 15 16  1  0
 15 36  1  0
 15 37  1  0
 16 17  1  6
 16 19  1  0
 16 21  1  0
 17 18  1  0
 18 38  1  0
 18 39  1  0
 18 40  1  0
 19 20  1  0
 19 41  1  0
 19 42  1  0
 20 21  1  0
 20 43  1  0
 20 44  1  0
 21 45  1  0
 21 46  1  0
M  END

