
     RDKit          3D

 47 49  0  0  0  0  0  0  0  0999 V2000
    1.6295    0.7036    1.0254 C   0  0  0  0  0  0  0  0  0  0  0  0
    2.2693    0.0901   -0.1909 C   0  0  0  0  0  0  0  0  0  0  0  0
    2.1640    0.6679   -1.4544 C   0  0  0  0  0  0  0  0  0  0  0  0
    2.7660    0.0938   -2.5905 C   0  0  0  0  0  0  0  0  0  0  0  0
    3.4905   -1.0825   -2.4740 C   0  0  0  0  0  0  0  0  0  0  0  0
    3.6161   -1.6927   -1.2126 C   0  0  0  0  0  0  0  0  0  0  0  0
    4.3794   -2.9424   -1.0818 C   0  0  0  0  0  0  0  0  0  0  0  0
    4.9382   -3.5339   -1.9920 O   0  0  0  0  0  0  0  0  0  0  0  0
    4.4266   -3.4445    0.2347 N   0  0  0  0  0  0  0  0  0  0  0  0
    5.1700   -4.6842    0.4717 C   0  0  0  0  0  0  0  0  0  0  0  0
    4.4363   -5.9343   -0.0204 C   0  0  0  0  0  0  0  0  0  0  0  0
    5.1276   -7.1968    0.4885 C   0  0  0  0  0  0  0  0  0  0  0  0
    5.6465   -7.2498    1.5962 O   0  0  0  0  0  0  0  0  0  0  0  0
    5.1081   -8.2578   -0.3607 N   0  0  0  0  0  0  0  0  0  0  0  0
    5.7034   -9.5295   -0.0281 C   0  0  1  0  0  0  0  0  0  0  0  0
    4.7252  -10.4506    0.7727 C   0  0  0  0  0  0  0  0  0  0  0  0
    5.1064  -11.9383    0.9600 C   0  0  0  0  0  0  0  0  0  0  0  0
    5.1002  -12.8209   -0.3134 C   0  0  0  0  0  0  0  0  0  0  0  0
    6.3650  -12.6852   -1.1986 C   0  0  0  0  0  0  0  0  0  0  0  0
    6.9339  -11.3342   -1.0956 N   0  0  0  0  0  0  0  0  0  0  0  0
    6.0286  -10.3034   -1.2977 C   0  0  0  0  0  0  0  0  0  0  0  0
    5.3831  -10.1599   -2.3168 O   0  0  0  0  0  0  0  0  0  0  0  0
    3.8036   -2.7934    1.2739 C   0  0  0  0  0  0  0  0  0  0  0  0
    3.1283   -1.7015    1.1829 N   0  0  0  0  0  0  0  0  0  0  0  0
    3.0120   -1.1171   -0.0673 C   0  0  0  0  0  0  0  0  0  0  0  0
    1.0890    1.6260    0.7677 H   0  0  0  0  0  0  0  0  0  0  0  0
    2.3840    0.9396    1.7925 H   0  0  0  0  0  0  0  0  0  0  0  0
    0.9249    0.0021    1.4993 H   0  0  0  0  0  0  0  0  0  0  0  0
    1.5960    1.5963   -1.5637 H   0  0  0  0  0  0  0  0  0  0  0  0
    2.6589    0.5802   -3.5631 H   0  0  0  0  0  0  0  0  0  0  0  0
    3.9702   -1.5564   -3.3323 H   0  0  0  0  0  0  0  0  0  0  0  0
    5.3568   -4.7787    1.5494 H   0  0  0  0  0  0  0  0  0  0  0  0
    6.1395   -4.5994   -0.0399 H   0  0  0  0  0  0  0  0  0  0  0  0
    4.3603   -5.9250   -1.1171 H   0  0  0  0  0  0  0  0  0  0  0  0
    3.4091   -5.9395    0.3857 H   0  0  0  0  0  0  0  0  0  0  0  0
    4.7032   -8.1905   -1.2910 H   0  0  0  0  0  0  0  0  0  0  0  0
    6.6027   -9.3461    0.5827 H   0  0  0  0  0  0  0  0  0  0  0  0
    3.7521  -10.4015    0.2547 H   0  0  0  0  0  0  0  0  0  0  0  0
    4.5888   -9.9821    1.7598 H   0  0  0  0  0  0  0  0  0  0  0  0
    4.3689  -12.3595    1.6624 H   0  0  0  0  0  0  0  0  0  0  0  0
    6.0780  -12.0237    1.4825 H   0  0  0  0  0  0  0  0  0  0  0  0
    4.2083  -12.5627   -0.9089 H   0  0  0  0  0  0  0  0  0  0  0  0
    4.9788  -13.8782   -0.0259 H   0  0  0  0  0  0  0  0  0  0  0  0
    6.1342  -12.9057   -2.2507 H   0  0  0  0  0  0  0  0  0  0  0  0
    7.1472  -13.3921   -0.8824 H   0  0  0  0  0  0  0  0  0  0  0  0
    7.4391  -11.2200   -0.2218 H   0  0  0  0  0  0  0  0  0  0  0  0
    3.9207   -3.2780    2.2515 H   0  0  0  0  0  0  0  0  0  0  0  0
  1  2  1  0
  1 26  1  0
  1 27  1  0
  1 28  1  0
  2  3  2  0
  2 25  1  0
  3  4  1  0
  3 29  1  0
  4  5  2  0
  4 30  1  0
  5  6  1  0
  5 31  1  0
  6  7  1  0
  6 25  2  0
  7  8  2  0
  7  9  1  0
  9 10  1  0
  9 23  1  0
 10 11  1  0
 10 32  1  0
 10 33  1  0
 11 12  1  0
 11 34  1  0
 11 35  1  0
 12 13  2  0
 12 14  1  0
 14 15  1  0
 14 36  1  0
 15 16  1  0
 15 21  1  0
 15 37  1  1
 16 17  1  0
 16 38  1  0
 16 39  1  0
 17 18  1  0
 17 40  1  0
 17 41  1  0
 18 19  1  0
 18 42  1  0
 18 43  1  0
 19 20  1  0
 19 44  1  0
 19 45  1  0
 20 21  1  0
 20 46  1  0
 21 22  2  0
 23 24  2  0
 23 47  1  0
 24 25  1  0
M  END

