
     RDKit          3D

 51 54  0  0  0  0  0  0  0  0999 V2000
    3.0658   -0.2496    1.2990 O   0  0  0  0  0  0  0  0  0  0  0  0
    2.4112   -0.0971    0.2745 C   0  0  0  0  0  0  0  0  0  0  0  0
    1.2579    0.6211    0.2484 N   0  0  0  0  0  0  0  0  0  0  0  0
    0.7658    1.3401    1.4241 C   0  0  0  0  0  0  0  0  0  0  0  0
    1.2289    2.7791    1.4936 C   0  0  0  0  0  0  0  0  0  0  0  0
    0.3278    3.8189    1.4794 C   0  0  0  0  0  0  0  0  0  0  0  0
    0.7533    5.1950    1.5528 C   0  0  0  0  0  0  0  0  0  0  0  0
    2.1017    5.3012    1.6529 N   0  0  0  0  0  0  0  0  0  0  0  0
    3.0333    4.4099    1.6904 C   0  0  0  0  0  0  0  0  0  0  0  0
    2.6572    3.0414    1.5881 C   0  0  0  0  0  0  0  0  0  0  0  0
    2.9199   -0.6850   -1.0615 C   0  0  1  0  0  0  0  0  0  0  0  0
    3.7839   -1.9309   -0.7978 C   0  0  0  0  0  0  0  0  0  0  0  0
    2.9131   -3.1184   -0.3714 C   0  0  0  0  0  0  0  0  0  0  0  0
    1.7839   -3.3929   -1.3708 C   0  0  0  0  0  0  0  0  0  0  0  0
    1.0456   -2.1717   -1.6816 N   0  0  0  0  0  0  0  0  0  0  0  0
   -0.2989   -2.1471   -1.8271 C   0  0  0  0  0  0  0  0  0  0  0  0
   -0.9933   -1.0912   -2.1934 N   0  0  0  0  0  0  0  0  0  0  0  0
   -2.3257   -1.4035   -2.2293 C   0  0  0  0  0  0  0  0  0  0  0  0
   -3.3295   -0.3440   -2.6178 C   0  0  0  0  0  0  0  0  0  0  0  0
   -3.3290    0.8368   -1.6668 C   0  0  0  0  0  0  0  0  0  0  0  0
   -2.6474    2.0206   -1.9841 C   0  0  0  0  0  0  0  0  0  0  0  0
   -2.6020    3.0929   -1.0890 C   0  0  0  0  0  0  0  0  0  0  0  0
   -3.2499    2.9669    0.1361 C   0  0  0  0  0  0  0  0  0  0  0  0
   -3.1897    3.9861    1.0152 F   0  0  0  0  0  0  0  0  0  0  0  0
   -3.9412    1.8096    0.4854 C   0  0  0  0  0  0  0  0  0  0  0  0
   -3.9750    0.7492   -0.4232 C   0  0  0  0  0  0  0  0  0  0  0  0
   -2.7280   -2.6129   -1.9229 N   0  0  0  0  0  0  0  0  0  0  0  0
   -1.3612   -3.5354   -1.5466 S   0  0  0  0  0  0  0  0  0  0  0  0
    1.8480   -1.0249   -2.1040 C   0  0  0  0  0  0  0  0  0  0  0  0
    0.7485    0.7393   -0.6191 H   0  0  0  0  0  0  0  0  0  0  0  0
    1.1458    0.7901    2.2999 H   0  0  0  0  0  0  0  0  0  0  0  0
   -0.3327    1.2897    1.4286 H   0  0  0  0  0  0  0  0  0  0  0  0
   -0.7497    3.6494    1.4172 H   0  0  0  0  0  0  0  0  0  0  0  0
    0.1128    6.0707    1.5821 H   0  0  0  0  0  0  0  0  0  0  0  0
    4.0721    4.7406    1.8057 H   0  0  0  0  0  0  0  0  0  0  0  0
    3.4014    2.2552    1.6895 H   0  0  0  0  0  0  0  0  0  0  0  0
    3.5602    0.1060   -1.4931 H   0  0  0  0  0  0  0  0  0  0  0  0
    4.5188   -1.7041   -0.0143 H   0  0  0  0  0  0  0  0  0  0  0  0
    4.3379   -2.1800   -1.7201 H   0  0  0  0  0  0  0  0  0  0  0  0
    2.4801   -2.9083    0.6200 H   0  0  0  0  0  0  0  0  0  0  0  0
    3.5245   -4.0297   -0.2684 H   0  0  0  0  0  0  0  0  0  0  0  0
    1.0858   -4.1369   -0.9585 H   0  0  0  0  0  0  0  0  0  0  0  0
    2.1985   -3.8190   -2.3071 H   0  0  0  0  0  0  0  0  0  0  0  0
   -4.3189   -0.8203   -2.6509 H   0  0  0  0  0  0  0  0  0  0  0  0
   -3.0873    0.0029   -3.6353 H   0  0  0  0  0  0  0  0  0  0  0  0
   -2.1372    2.1060   -2.9470 H   0  0  0  0  0  0  0  0  0  0  0  0
   -2.0727    4.0178   -1.3260 H   0  0  0  0  0  0  0  0  0  0  0  0
   -4.4387    1.7520    1.4556 H   0  0  0  0  0  0  0  0  0  0  0  0
   -4.5071   -0.1680   -0.1566 H   0  0  0  0  0  0  0  0  0  0  0  0
    1.1636   -0.1969   -2.3214 H   0  0  0  0  0  0  0  0  0  0  0  0
    2.3530   -1.2693   -3.0593 H   0  0  0  0  0  0  0  0  0  0  0  0
  1  2  2  0
  2  3  1  0
  2 11  1  0
  3  4  1  0
  3 30  1  0
  4  5  1  0
  4 31  1  0
  4 32  1  0
  5  6  2  0
  5 10  1  0
  6  7  1  0
  6 33  1  0
  7  8  2  0
  7 34  1  0
  8  9  1  0
  9 10  2  0
  9 35  1  0
 10 36  1  0
 11 12  1  0
 11 29  1  0
 11 37  1  6
 12 13  1  0
 12 38  1  0
 12 39  1  0
 13 14  1  0
 13 40  1  0
 13 41  1  0
 14 15  1  0
 14 42  1  0
 14 43  1  0
 15 16  1  0
 15 29  1  0
 16 17  2  0
 16 28  1  0
 17 18  1  0
 18 19  1  0
 18 27  2  0
 19 20  1  0
 19 44  1  0
 19 45  1  0
 20 21  2  0
 20 26  1  0
 21 22  1  0
 21 46  1  0
 22 23  2  0
 22 47  1  0
 23 24  1  0
 23 25  1  0
 25 26  2  0
 25 48  1  0
 26 49  1  0
 27 28  1  0
 29 50  1  0
 29 51  1  0
M  END

