
     RDKit          3D

 51 54  0  0  0  0  0  0  0  0999 V2000
   -0.2480    0.3505    1.7234 C   0  0  0  0  0  0  0  0  0  0  0  0
    1.1251   -0.1818    1.2884 C   0  0  1  0  0  0  0  0  0  0  0  0
    1.0951   -0.4463   -0.1518 N   0  0  0  0  0  0  0  0  0  0  0  0
    2.2928    0.6550    1.8247 C   0  0  0  0  0  0  0  0  0  0  0  0
    2.9730    0.1690    2.9424 C   0  0  0  0  0  0  0  0  0  0  0  0
    4.0141    0.8914    3.5399 C   0  0  0  0  0  0  0  0  0  0  0  0
    4.8067    0.1863    4.9442 Cl  0  0  0  0  0  0  0  0  0  0  0  0
    4.4514    2.1489    3.0529 C   0  0  0  0  0  0  0  0  0  0  0  0
    5.4990    2.9298    3.6055 C   0  0  0  0  0  0  0  0  0  0  0  0
    5.8275    4.1584    3.0013 C   0  0  0  0  0  0  0  0  0  0  0  0
    5.1266    4.5741    1.8820 C   0  0  0  0  0  0  0  0  0  0  0  0
    4.1182    3.8599    1.3172 N   0  0  0  0  0  0  0  0  0  0  0  0
    3.7740    2.6722    1.8865 C   0  0  0  0  0  0  0  0  0  0  0  0
    2.7158    1.9116    1.3145 C   0  0  0  0  0  0  0  0  0  0  0  0
    2.0839    2.4845    0.1354 N   0  0  0  0  0  0  0  0  0  0  0  0
    1.0604    3.4806    0.2398 C   0  0  0  0  0  0  0  0  0  0  0  0
    1.5717    4.8654   -0.3205 C   0  0  0  0  0  0  0  0  0  0  0  0
    2.0982    4.6713   -1.6473 N   0  0  0  0  0  0  0  0  0  0  0  0
    1.3285    5.0752   -2.7466 C   0  0  0  0  0  0  0  0  0  0  0  0
    0.2848    5.6764   -2.5731 O   0  0  0  0  0  0  0  0  0  0  0  0
    1.8758    4.7856   -4.1319 C   0  0  1  0  0  0  0  0  0  0  0  0
    1.0724    5.3500   -5.3279 C   0  0  0  0  0  0  0  0  0  0  0  0
    2.4062    5.7811   -5.9897 C   0  0  0  0  0  0  0  0  0  0  0  0
    3.1165    5.6014   -4.6245 C   0  0  0  0  0  0  0  0  0  0  0  0
    3.1803    3.7230   -1.7024 C   0  0  0  0  0  0  0  0  0  0  0  0
    2.6683    2.3292   -1.1646 C   0  0  0  0  0  0  0  0  0  0  0  0
   -1.0385   -0.3500    1.4118 H   0  0  0  0  0  0  0  0  0  0  0  0
   -0.4711    1.3297    1.2688 H   0  0  0  0  0  0  0  0  0  0  0  0
   -0.2912    0.4738    2.8150 H   0  0  0  0  0  0  0  0  0  0  0  0
    1.2393   -1.1656    1.7744 H   0  0  0  0  0  0  0  0  0  0  0  0
    2.0155   -0.6999   -0.5066 H   0  0  0  0  0  0  0  0  0  0  0  0
    0.7565    0.3516   -0.6833 H   0  0  0  0  0  0  0  0  0  0  0  0
    2.6891   -0.7943    3.3698 H   0  0  0  0  0  0  0  0  0  0  0  0
    6.0296    2.5664    4.4843 H   0  0  0  0  0  0  0  0  0  0  0  0
    6.6289    4.7809    3.4061 H   0  0  0  0  0  0  0  0  0  0  0  0
    5.3720    5.5255    1.3968 H   0  0  0  0  0  0  0  0  0  0  0  0
    0.7550    3.5848    1.2857 H   0  0  0  0  0  0  0  0  0  0  0  0
    0.1869    3.2008   -0.3775 H   0  0  0  0  0  0  0  0  0  0  0  0
    2.3695    5.1937    0.3558 H   0  0  0  0  0  0  0  0  0  0  0  0
    0.7304    5.5652   -0.3636 H   0  0  0  0  0  0  0  0  0  0  0  0
    2.0518    3.7036   -4.2496 H   0  0  0  0  0  0  0  0  0  0  0  0
    0.4544    6.2017   -5.0116 H   0  0  0  0  0  0  0  0  0  0  0  0
    0.4353    4.6403   -5.8759 H   0  0  0  0  0  0  0  0  0  0  0  0
    2.4416    6.7839   -6.4401 H   0  0  0  0  0  0  0  0  0  0  0  0
    2.7594    5.0530   -6.7362 H   0  0  0  0  0  0  0  0  0  0  0  0
    3.2178    6.5507   -4.0765 H   0  0  0  0  0  0  0  0  0  0  0  0
    4.0916    5.0906   -4.6169 H   0  0  0  0  0  0  0  0  0  0  0  0
    3.9808    4.0322   -1.0188 H   0  0  0  0  0  0  0  0  0  0  0  0
    3.5582    3.5969   -2.7216 H   0  0  0  0  0  0  0  0  0  0  0  0
    3.4975    1.6162   -1.1097 H   0  0  0  0  0  0  0  0  0  0  0  0
    1.9142    1.9665   -1.8853 H   0  0  0  0  0  0  0  0  0  0  0  0
  1  2  1  0
  1 27  1  0
  1 28  1  0
  1 29  1  0
  2  3  1  0
  2  4  1  0
  2 30  1  1
  3 31  1  0
  3 32  1  0
  4  5  2  0
  4 14  1  0
  5  6  1  0
  5 33  1  0
  6  7  1  0
  6  8  2  0
  8  9  1  0
  8 13  1  0
  9 10  2  0
  9 34  1  0
 10 11  1  0
 10 35  1  0
 11 12  2  0
 11 36  1  0
 12 13  1  0
 13 14  2  0
 14 15  1  0
 15 16  1  0
 15 26  1  0
 16 17  1  0
 16 37  1  0
 16 38  1  0
 17 18  1  0
 17 39  1  0
 17 40  1  0
 18 19  1  0
 18 25  1  0
 19 20  2  0
 19 21  1  0
 21 22  1  0
 21 24  1  0
 21 41  1  6
 22 23  1  0
 22 42  1  0
 22 43  1  0
 23 24  1  0
 23 44  1  0
 23 45  1  0
 24 46  1  0
 24 47  1  0
 25 26  1  0
 25 48  1  0
 25 49  1  0
 26 50  1  0
 26 51  1  0
M  END

