
     RDKit          3D

 53 56  0  0  0  0  0  0  0  0999 V2000
    0.9067    0.1415    0.1268 C   0  0  0  0  0  0  0  0  0  0  0  0
    2.4122    0.1475    0.1689 C   0  0  0  0  0  0  0  0  0  0  0  0
    3.1672   -1.0211    0.0719 C   0  0  0  0  0  0  0  0  0  0  0  0
    4.5697   -0.9399    0.1112 C   0  0  0  0  0  0  0  0  0  0  0  0
    5.2232    0.3083    0.2451 C   0  0  0  0  0  0  0  0  0  0  0  0
    4.4737    1.4945    0.3409 C   0  0  0  0  0  0  0  0  0  0  0  0
    3.0978    1.3802    0.3033 C   0  0  0  0  0  0  0  0  0  0  0  0
    2.3481    2.4950    0.3938 F   0  0  0  0  0  0  0  0  0  0  0  0
    6.6310    0.0269    0.2426 C   0  0  0  0  0  0  0  0  0  0  0  0
    7.6560    1.0066    0.3091 C   0  0  0  0  0  0  0  0  0  0  0  0
    8.4656    1.8393    0.3763 N   0  0  0  0  0  0  0  0  0  0  0  0
    6.7863   -1.3592    0.0973 C   0  0  0  0  0  0  0  0  0  0  0  0
    8.0858   -2.0500   -0.0347 C   0  0  0  0  0  0  0  0  0  0  0  0
    9.1794   -1.6555    0.7641 C   0  0  0  0  0  0  0  0  0  0  0  0
   10.4092   -2.2702    0.5692 C   0  0  0  0  0  0  0  0  0  0  0  0
   10.5406   -3.2680   -0.4095 C   0  0  0  0  0  0  0  0  0  0  0  0
   11.8841   -3.9192   -0.6055 C   0  0  0  0  0  0  0  0  0  0  0  0
   12.8199   -3.5844    0.0950 O   0  0  0  0  0  0  0  0  0  0  0  0
   12.0340   -4.9629   -1.7033 C   0  0  0  0  0  0  0  0  0  0  0  0
   13.4044   -5.6546   -1.7578 C   0  0  1  0  0  0  0  0  0  0  0  0
   13.6081   -6.6075   -0.5723 C   0  0  0  0  0  0  0  0  0  0  0  0
   13.5859   -6.3851   -3.0940 C   0  0  0  0  0  0  0  0  0  0  0  0
    9.3889   -3.5948   -1.1441 C   0  0  0  0  0  0  0  0  0  0  0  0
    8.2056   -3.0118   -0.9650 N   0  0  0  0  0  0  0  0  0  0  0  0
    5.5327   -1.9458    0.0304 N   0  0  0  0  0  0  0  0  0  0  0  0
    5.1509   -3.3568    0.0072 C   0  0  1  0  0  0  0  0  0  0  0  0
    5.2646   -4.2188   -1.2753 C   0  0  0  0  0  0  0  0  0  0  0  0
    5.5943   -5.4284   -0.3587 C   0  0  0  0  0  0  0  0  0  0  0  0
    5.9164   -4.4450    0.8010 C   0  0  0  0  0  0  0  0  0  0  0  0
    0.5174   -0.8806    0.0161 H   0  0  0  0  0  0  0  0  0  0  0  0
    0.5278    0.7481   -0.7121 H   0  0  0  0  0  0  0  0  0  0  0  0
    0.4795    0.5760    1.0454 H   0  0  0  0  0  0  0  0  0  0  0  0
    2.6513   -1.9749   -0.0501 H   0  0  0  0  0  0  0  0  0  0  0  0
    4.9442    2.4738    0.4424 H   0  0  0  0  0  0  0  0  0  0  0  0
    9.0599   -0.8864    1.5271 H   0  0  0  0  0  0  0  0  0  0  0  0
   11.2847   -2.0012    1.1637 H   0  0  0  0  0  0  0  0  0  0  0  0
   11.8265   -4.4467   -2.6598 H   0  0  0  0  0  0  0  0  0  0  0  0
   11.2283   -5.7130   -1.6020 H   0  0  0  0  0  0  0  0  0  0  0  0
   14.1689   -4.8624   -1.6855 H   0  0  0  0  0  0  0  0  0  0  0  0
   12.8632   -7.4227   -0.5876 H   0  0  0  0  0  0  0  0  0  0  0  0
   13.5225   -6.0774    0.3873 H   0  0  0  0  0  0  0  0  0  0  0  0
   14.6066   -7.0719   -0.6098 H   0  0  0  0  0  0  0  0  0  0  0  0
   12.8295   -7.1790   -3.2225 H   0  0  0  0  0  0  0  0  0  0  0  0
   14.5771   -6.8625   -3.1515 H   0  0  0  0  0  0  0  0  0  0  0  0
   13.4959   -5.6973   -3.9509 H   0  0  0  0  0  0  0  0  0  0  0  0
    9.4206   -4.3676   -1.9193 H   0  0  0  0  0  0  0  0  0  0  0  0
    4.1092   -3.3712    0.3521 H   0  0  0  0  0  0  0  0  0  0  0  0
    6.1309   -3.9148   -1.8739 H   0  0  0  0  0  0  0  0  0  0  0  0
    4.3670   -4.2786   -1.9099 H   0  0  0  0  0  0  0  0  0  0  0  0
    6.4140   -6.0841   -0.6852 H   0  0  0  0  0  0  0  0  0  0  0  0
    4.7136   -6.0537   -0.1456 H   0  0  0  0  0  0  0  0  0  0  0  0
    6.9911   -4.2498    0.8826 H   0  0  0  0  0  0  0  0  0  0  0  0
    5.5228   -4.6785    1.8021 H   0  0  0  0  0  0  0  0  0  0  0  0
  1  2  1  0
  1 30  1  0
  1 31  1  0
  1 32  1  0
  2  3  2  0
  2  7  1  0
  3  4  1  0
  3 33  1  0
  4  5  2  0
  4 25  1  0
  5  6  1  0
  5  9  1  0
  6  7  2  0
  6 34  1  0
  7  8  1  0
  9 10  1  0
  9 12  2  0
 10 11  3  0
 12 13  1  0
 12 25  1  0
 13 14  2  0
 13 24  1  0
 14 15  1  0
 14 35  1  0
 15 16  2  0
 15 36  1  0
 16 17  1  0
 16 23  1  0
 17 18  2  0
 17 19  1  0
 19 20  1  0
 19 37  1  0
 19 38  1  0
 20 21  1  0
 20 22  1  0
 20 39  1  6
 21 40  1  0
 21 41  1  0
 21 42  1  0
 22 43  1  0
 22 44  1  0
 22 45  1  0
 23 24  2  0
 23 46  1  0
 25 26  1  0
 26 27  1  0
 26 29  1  0
 26 47  1  1
 27 28  1  0
 27 48  1  0
 27 49  1  0
 28 29  1  0
 28 50  1  0
 28 51  1  0
 29 52  1  0
 29 53  1  0
M  END

