
     RDKit          3D

 61 63  0  0  0  0  0  0  0  0999 V2000
   14.4472    4.6815    3.7746 C   0  0  0  0  0  0  0  0  0  0  0  0
   13.9902    3.3159    3.9059 N   0  0  0  0  0  0  0  0  0  0  0  0
   14.0085    2.4322    2.8727 C   0  0  0  0  0  0  0  0  0  0  0  0
   14.3585    2.6694    1.7356 O   0  0  0  0  0  0  0  0  0  0  0  0
   13.5591    1.2168    3.2957 O   0  0  0  0  0  0  0  0  0  0  0  0
   13.5684    0.1602    2.3286 C   0  0  0  0  0  0  0  0  0  0  0  0
   12.3032    0.1676    1.4745 C   0  0  0  0  0  0  0  0  0  0  0  0
   11.0819    0.0130    2.2463 N   0  0  0  0  0  0  0  0  0  0  0  0
   10.4183   -1.1459    2.5043 C   0  0  0  0  0  0  0  0  0  0  0  0
    9.4859   -1.2564    3.2723 O   0  0  0  0  0  0  0  0  0  0  0  0
   10.9195   -2.1832    1.7720 O   0  0  0  0  0  0  0  0  0  0  0  0
   10.2905   -3.4470    1.9525 C   0  0  0  0  0  0  0  0  0  0  0  0
   10.8082   -4.1599    3.2083 C   0  0  1  0  0  0  0  0  0  0  0  0
   10.2055   -5.4528    3.2013 O   0  0  0  0  0  0  0  0  0  0  0  0
    9.7617   -5.9672    4.3978 C   0  0  0  0  0  0  0  0  0  0  0  0
   10.3524   -7.1381    4.9174 C   0  0  0  0  0  0  0  0  0  0  0  0
    9.8347   -7.6950    6.1112 C   0  0  0  0  0  0  0  0  0  0  0  0
    8.7882   -7.0902    6.7610 C   0  0  0  0  0  0  0  0  0  0  0  0
    8.3077   -7.6241    7.8997 F   0  0  0  0  0  0  0  0  0  0  0  0
    8.1555   -5.8847    6.2920 C   0  0  0  0  0  0  0  0  0  0  0  0
    7.1012   -5.2733    7.0008 C   0  0  0  0  0  0  0  0  0  0  0  0
    6.4839   -4.1359    6.6203 N   0  0  0  0  0  0  0  0  0  0  0  0
    6.6128   -5.7640    8.1191 O   0  0  0  0  0  0  0  0  0  0  0  0
    8.6968   -5.3781    5.0520 C   0  0  0  0  0  0  0  0  0  0  0  0
    8.1343   -4.2662    4.4999 F   0  0  0  0  0  0  0  0  0  0  0  0
   12.3030   -4.2772    3.2417 C   0  0  0  0  0  0  0  0  0  0  0  0
   13.1334   -3.7549    4.0838 N   0  0  0  0  0  0  0  0  0  0  0  0
   14.4062   -4.1548    3.6829 C   0  0  0  0  0  0  0  0  0  0  0  0
   15.5942   -3.7341    4.4419 C   0  0  0  0  0  0  0  0  0  0  0  0
   16.9107   -4.0177    4.0344 C   0  0  0  0  0  0  0  0  0  0  0  0
   17.9995   -3.5936    4.7960 C   0  0  0  0  0  0  0  0  0  0  0  0
   17.7958   -2.8785    5.9801 C   0  0  0  0  0  0  0  0  0  0  0  0
   18.9628   -2.3744    6.7900 C   0  0  1  0  0  0  0  0  0  0  0  0
   20.1032   -3.0221    6.4961 F   0  0  0  0  0  0  0  0  0  0  0  0
   19.1874   -1.0627    6.5725 F   0  0  0  0  0  0  0  0  0  0  0  0
   18.7465   -2.5138    8.1111 F   0  0  0  0  0  0  0  0  0  0  0  0
   16.4898   -2.5916    6.3983 C   0  0  0  0  0  0  0  0  0  0  0  0
   15.4033   -3.0123    5.6379 C   0  0  0  0  0  0  0  0  0  0  0  0
   14.2378   -4.9366    2.5613 C   0  0  0  0  0  0  0  0  0  0  0  0
   15.3651   -5.8858    1.4212 Br  0  0  0  0  0  0  0  0  0  0  0  0
   12.9113   -5.0138    2.2768 O   0  0  0  0  0  0  0  0  0  0  0  0
   13.6726    5.3981    4.0955 H   0  0  0  0  0  0  0  0  0  0  0  0
   14.6759    4.8612    2.7161 H   0  0  0  0  0  0  0  0  0  0  0  0
   15.3609    4.8686    4.3651 H   0  0  0  0  0  0  0  0  0  0  0  0
   13.7255    2.9545    4.8143 H   0  0  0  0  0  0  0  0  0  0  0  0
   13.6346   -0.7682    2.9138 H   0  0  0  0  0  0  0  0  0  0  0  0
   14.4530    0.2575    1.6816 H   0  0  0  0  0  0  0  0  0  0  0  0
   12.3598   -0.6487    0.7425 H   0  0  0  0  0  0  0  0  0  0  0  0
   12.2575    1.1138    0.9129 H   0  0  0  0  0  0  0  0  0  0  0  0
   10.8010    0.7785    2.8484 H   0  0  0  0  0  0  0  0  0  0  0  0
   10.5332   -4.0436    1.0626 H   0  0  0  0  0  0  0  0  0  0  0  0
    9.2025   -3.3345    2.0475 H   0  0  0  0  0  0  0  0  0  0  0  0
   10.5166   -3.5798    4.0949 H   0  0  0  0  0  0  0  0  0  0  0  0
   11.1827   -7.5953    4.3815 H   0  0  0  0  0  0  0  0  0  0  0  0
   10.2555   -8.6057    6.5405 H   0  0  0  0  0  0  0  0  0  0  0  0
    6.7891   -3.6656    5.7785 H   0  0  0  0  0  0  0  0  0  0  0  0
    5.7409   -3.7479    7.1861 H   0  0  0  0  0  0  0  0  0  0  0  0
   17.0952   -4.5726    3.1150 H   0  0  0  0  0  0  0  0  0  0  0  0
   19.0145   -3.8241    4.4684 H   0  0  0  0  0  0  0  0  0  0  0  0
   16.3240   -2.0426    7.3276 H   0  0  0  0  0  0  0  0  0  0  0  0
   14.3849   -2.7938    5.9600 H   0  0  0  0  0  0  0  0  0  0  0  0
  1  2  1  0
  1 42  1  0
  1 43  1  0
  1 44  1  0
  2  3  1  0
  2 45  1  0
  3  4  2  0
  3  5  1  0
  5  6  1  0
  6  7  1  0
  6 46  1  0
  6 47  1  0
  7  8  1  0
  7 48  1  0
  7 49  1  0
  8  9  1  0
  8 50  1  0
  9 10  2  0
  9 11  1  0
 11 12  1  0
 12 13  1  0
 12 51  1  0
 12 52  1  0
 13 14  1  0
 13 26  1  0
 13 53  1  1
 14 15  1  0
 15 16  2  0
 15 24  1  0
 16 17  1  0
 16 54  1  0
 17 18  2  0
 17 55  1  0
 18 19  1  0
 18 20  1  0
 20 21  1  0
 20 24  2  0
 21 22  1  0
 21 23  2  0
 22 56  1  0
 22 57  1  0
 24 25  1  0
 26 27  2  0
 26 41  1  0
 27 28  1  0
 28 29  1  0
 28 39  2  0
 29 30  2  0
 29 38  1  0
 30 31  1  0
 30 58  1  0
 31 32  2  0
 31 59  1  0
 32 33  1  0
 32 37  1  0
 33 34  1  1
 33 35  1  0
 33 36  1  0
 37 38  2  0
 37 60  1  0
 38 61  1  0
 39 40  1  0
 39 41  1  0
M  END

