
     RDKit          3D

 41 42  0  0  0  0  0  0  0  0999 V2000
   11.6246    3.8431   -4.7160 C   0  0  0  0  0  0  0  0  0  0  0  0
   10.1842    3.3336   -4.7580 C   0  0  0  0  0  0  0  0  0  0  0  0
    9.4308    3.1903   -3.4335 C   0  0  1  0  0  0  0  0  0  0  0  0
    8.0256    2.6424   -3.6245 C   0  0  0  0  0  0  0  0  0  0  0  0
   10.1579    2.8187   -2.1645 C   0  0  0  0  0  0  0  0  0  0  0  0
    9.6550    4.2326   -2.3380 C   0  0  2  0  0  0  0  0  0  0  0  0
    8.5069    4.8558   -1.6051 C   0  0  0  0  0  0  0  0  0  0  0  0
    8.0378    5.9343   -1.9896 O   0  0  0  0  0  0  0  0  0  0  0  0
    7.9984    4.2084   -0.5272 N   0  0  0  0  0  0  0  0  0  0  0  0
    7.0122    4.8194    0.3719 C   0  0  2  0  0  0  0  0  0  0  0  0
    7.3162    5.8719    0.5252 H   0  0  0  0  0  0  0  0  0  0  0  0
    6.9764    4.0801    1.7164 C   0  0  0  0  0  0  0  0  0  0  0  0
    8.3158    3.9968    2.4166 C   0  0  0  0  0  0  0  0  0  0  0  0
    8.9247    5.1455    2.9512 C   0  0  0  0  0  0  0  0  0  0  0  0
   10.1652    5.0708    3.5871 C   0  0  0  0  0  0  0  0  0  0  0  0
   10.8250    3.8418    3.7026 C   0  0  0  0  0  0  0  0  0  0  0  0
   10.2317    2.6909    3.1802 C   0  0  0  0  0  0  0  0  0  0  0  0
    8.9874    2.7704    2.5441 C   0  0  0  0  0  0  0  0  0  0  0  0
    5.5941    4.8639   -0.2622 C   0  0  0  0  0  0  0  0  0  0  0  0
    4.6432    4.3335    0.2541 O   0  0  0  0  0  0  0  0  0  0  0  0
    5.5064    5.5500   -1.3955 O   0  0  0  0  0  0  0  0  0  0  0  0
   12.0392    3.8851   -5.7352 H   0  0  0  0  0  0  0  0  0  0  0  0
   12.2840    3.1857   -4.1271 H   0  0  0  0  0  0  0  0  0  0  0  0
   11.6983    4.8601   -4.2994 H   0  0  0  0  0  0  0  0  0  0  0  0
   10.1708    2.3432   -5.2485 H   0  0  0  0  0  0  0  0  0  0  0  0
    9.5862    3.9958   -5.4095 H   0  0  0  0  0  0  0  0  0  0  0  0
    8.0618    1.6540   -4.1115 H   0  0  0  0  0  0  0  0  0  0  0  0
    7.4281    3.3123   -4.2642 H   0  0  0  0  0  0  0  0  0  0  0  0
    7.4880    2.5278   -2.6724 H   0  0  0  0  0  0  0  0  0  0  0  0
   11.2407    2.6712   -2.1813 H   0  0  0  0  0  0  0  0  0  0  0  0
    9.6392    2.1462   -1.4735 H   0  0  0  0  0  0  0  0  0  0  0  0
   10.3995    4.9975   -2.5742 H   0  0  0  0  0  0  0  0  0  0  0  0
    8.5086    3.4074   -0.1719 H   0  0  0  0  0  0  0  0  0  0  0  0
    6.5626    3.0736    1.5504 H   0  0  0  0  0  0  0  0  0  0  0  0
    6.2399    4.5990    2.3477 H   0  0  0  0  0  0  0  0  0  0  0  0
    8.4161    6.1113    2.8756 H   0  0  0  0  0  0  0  0  0  0  0  0
   10.6187    5.9758    3.9999 H   0  0  0  0  0  0  0  0  0  0  0  0
   11.7949    3.7832    4.2030 H   0  0  0  0  0  0  0  0  0  0  0  0
   10.7336    1.7241    3.2725 H   0  0  0  0  0  0  0  0  0  0  0  0
    8.5204    1.8595    2.1561 H   0  0  0  0  0  0  0  0  0  0  0  0
    6.4041    5.8845   -1.6727 H   0  0  0  0  0  0  0  0  0  0  0  0
  1  2  1  0
  1 22  1  0
  1 23  1  0
  1 24  1  0
  3  2  1  6
  2 25  1  0
  2 26  1  0
  3  4  1  0
  3  5  1  0
  3  6  1  0
  4 27  1  0
  4 28  1  0
  4 29  1  0
  5  6  1  0
  5 30  1  0
  5 31  1  0
  6  7  1  0
  6 32  1  6
  7  8  2  0
  7  9  1  0
  9 10  1  0
  9 33  1  0
 10 11  1  1
 10 12  1  0
 10 19  1  0
 12 13  1  0
 12 34  1  0
 12 35  1  0
 13 14  2  0
 13 18  1  0
 14 15  1  0
 14 36  1  0
 15 16  2  0
 15 37  1  0
 16 17  1  0
 16 38  1  0
 17 18  2  0
 17 39  1  0
 18 40  1  0
 19 20  2  0
 19 21  1  0
 21 41  1  0
M  END

