
     RDKit          3D

 72 77  0  0  0  0  0  0  0  0999 V2000
    2.1280    1.5951    3.8594 C   0  0  0  0  0  0  0  0  0  0  0  0
    3.2420    1.2098    2.9163 C   0  0  0  0  0  0  0  0  0  0  0  0
    4.5406    1.7161    3.0607 C   0  0  0  0  0  0  0  0  0  0  0  0
    5.5739    1.3485    2.1961 C   0  0  0  0  0  0  0  0  0  0  0  0
    5.3344    0.4561    1.1349 C   0  0  0  0  0  0  0  0  0  0  0  0
    6.3663    0.0800    0.2620 N   0  0  0  0  0  0  0  0  0  0  0  0
    6.5316   -1.1775   -0.3329 C   0  0  0  0  0  0  0  0  0  0  0  0
    6.0523   -2.4306    0.3310 C   0  0  0  0  0  0  0  0  0  0  0  0
    6.6075   -2.8156    1.5404 C   0  0  0  0  0  0  0  0  0  0  0  0
    6.1814   -3.9594    2.2445 C   0  0  0  0  0  0  0  0  0  0  0  0
    5.1609   -4.7585    1.7164 C   0  0  0  0  0  0  0  0  0  0  0  0
    4.5944   -4.4211    0.4993 C   0  0  0  0  0  0  0  0  0  0  0  0
    5.0300   -3.2739   -0.2513 C   0  0  0  0  0  0  0  0  0  0  0  0
    4.4054   -3.1508   -1.4358 N   0  0  0  0  0  0  0  0  0  0  0  0
    4.7995   -2.1261   -2.6954 S   0  0  1  0  0  0  0  0  0  0  0  0
    4.2704   -0.7737   -2.4602 O   0  0  0  0  0  0  0  0  0  0  0  0
    6.2031   -2.3317   -3.1044 O   0  0  0  0  0  0  0  0  0  0  0  0
    3.7877   -2.8571   -3.9841 C   0  0  0  0  0  0  0  0  0  0  0  0
    2.5121   -2.3476   -4.2258 C   0  0  0  0  0  0  0  0  0  0  0  0
    1.7340   -2.9161   -5.2374 C   0  0  0  0  0  0  0  0  0  0  0  0
    2.2140   -3.9826   -6.0129 C   0  0  0  0  0  0  0  0  0  0  0  0
    1.3797   -4.5882   -7.1145 C   0  0  0  0  0  0  0  0  0  0  0  0
    3.5076   -4.4683   -5.7498 C   0  0  0  0  0  0  0  0  0  0  0  0
    4.2980   -3.9127   -4.7452 C   0  0  0  0  0  0  0  0  0  0  0  0
    7.8087   -1.2106   -0.9300 N   0  0  0  0  0  0  0  0  0  0  0  0
    7.8192   -1.8215   -1.7476 H   0  0  0  0  0  0  0  0  0  0  0  0
    8.1577    0.1685   -1.2631 C   0  0  2  0  0  0  0  0  0  0  0  0
    9.6468    0.4118   -1.4018 C   0  0  0  0  0  0  0  0  0  0  0  0
   10.1143    1.4370   -2.2382 C   0  0  0  0  0  0  0  0  0  0  0  0
   11.4824    1.7026   -2.3458 C   0  0  0  0  0  0  0  0  0  0  0  0
   12.4041    0.9400   -1.6225 C   0  0  0  0  0  0  0  0  0  0  0  0
   11.9482   -0.0892   -0.7928 C   0  0  0  0  0  0  0  0  0  0  0  0
   10.5797   -0.3500   -0.6820 C   0  0  0  0  0  0  0  0  0  0  0  0
    7.4804    0.9674   -0.1021 C   0  0  1  0  0  0  0  0  0  0  0  0
    7.0576    2.3642   -0.5143 C   0  0  0  0  0  0  0  0  0  0  0  0
    5.9702    2.5525   -1.3839 C   0  0  0  0  0  0  0  0  0  0  0  0
    5.6153    3.8376   -1.7989 C   0  0  0  0  0  0  0  0  0  0  0  0
    6.3416    4.9495   -1.3567 C   0  0  0  0  0  0  0  0  0  0  0  0
    7.4248    4.7693   -0.4936 C   0  0  0  0  0  0  0  0  0  0  0  0
    7.7773    3.4822   -0.0738 C   0  0  0  0  0  0  0  0  0  0  0  0
    4.0250   -0.0358    0.9626 C   0  0  0  0  0  0  0  0  0  0  0  0
    3.0118    0.3287    1.8450 C   0  0  0  0  0  0  0  0  0  0  0  0
    2.4563    2.3568    4.5826 H   0  0  0  0  0  0  0  0  0  0  0  0
    1.7643    0.7259    4.4344 H   0  0  0  0  0  0  0  0  0  0  0  0
    1.2598    2.0032    3.3148 H   0  0  0  0  0  0  0  0  0  0  0  0
    4.7581    2.4132    3.8754 H   0  0  0  0  0  0  0  0  0  0  0  0
    6.5722    1.7591    2.3536 H   0  0  0  0  0  0  0  0  0  0  0  0
    7.3895   -2.1876    1.9725 H   0  0  0  0  0  0  0  0  0  0  0  0
    6.6356   -4.2080    3.2063 H   0  0  0  0  0  0  0  0  0  0  0  0
    4.8131   -5.6416    2.2573 H   0  0  0  0  0  0  0  0  0  0  0  0
    3.8052   -5.0243    0.0484 H   0  0  0  0  0  0  0  0  0  0  0  0
    2.1433   -1.5094   -3.6326 H   0  0  0  0  0  0  0  0  0  0  0  0
    0.7340   -2.5179   -5.4301 H   0  0  0  0  0  0  0  0  0  0  0  0
    0.3588   -4.1797   -7.1221 H   0  0  0  0  0  0  0  0  0  0  0  0
    1.3083   -5.6828   -7.0063 H   0  0  0  0  0  0  0  0  0  0  0  0
    1.8271   -4.3919   -8.1037 H   0  0  0  0  0  0  0  0  0  0  0  0
    3.9045   -5.2939   -6.3476 H   0  0  0  0  0  0  0  0  0  0  0  0
    5.3074   -4.2805   -4.5538 H   0  0  0  0  0  0  0  0  0  0  0  0
    7.6582    0.4756   -2.2007 H   0  0  0  0  0  0  0  0  0  0  0  0
    9.3986    2.0303   -2.8136 H   0  0  0  0  0  0  0  0  0  0  0  0
   11.8294    2.5041   -3.0032 H   0  0  0  0  0  0  0  0  0  0  0  0
   13.4748    1.1424   -1.7107 H   0  0  0  0  0  0  0  0  0  0  0  0
   12.6634   -0.6962   -0.2311 H   0  0  0  0  0  0  0  0  0  0  0  0
   10.2171   -1.1621   -0.0484 H   0  0  0  0  0  0  0  0  0  0  0  0
    8.2009    1.0397    0.7351 H   0  0  0  0  0  0  0  0  0  0  0  0
    5.3974    1.6873   -1.7294 H   0  0  0  0  0  0  0  0  0  0  0  0
    4.7639    3.9721   -2.4710 H   0  0  0  0  0  0  0  0  0  0  0  0
    6.0603    5.9544   -1.6827 H   0  0  0  0  0  0  0  0  0  0  0  0
    7.9963    5.6318   -0.1409 H   0  0  0  0  0  0  0  0  0  0  0  0
    8.6241    3.3450    0.6050 H   0  0  0  0  0  0  0  0  0  0  0  0
    3.8015   -0.6633    0.1007 H   0  0  0  0  0  0  0  0  0  0  0  0
    2.0040   -0.0649    1.6803 H   0  0  0  0  0  0  0  0  0  0  0  0
  1  2  1  0
  1 43  1  0
  1 44  1  0
  1 45  1  0
  2  3  2  0
  2 42  1  0
  3  4  1  0
  3 46  1  0
  4  5  2  0
  4 47  1  0
  5  6  1  0
  5 41  1  0
  6  7  1  0
  6 34  1  0
  7  8  2  0
  7 25  1  0
  8  9  1  0
  8 13  1  0
  9 10  2  0
  9 48  1  0
 10 11  1  0
 10 49  1  0
 11 12  2  0
 11 50  1  0
 12 13  1  0
 12 51  1  0
 13 14  2  0
 15 14  1  1
 15 16  2  0
 15 17  2  0
 15 18  1  0
 18 19  2  0
 18 24  1  0
 19 20  1  0
 19 52  1  0
 20 21  2  0
 20 53  1  0
 21 22  1  0
 21 23  1  0
 22 54  1  0
 22 55  1  0
 22 56  1  0
 23 24  2  0
 23 57  1  0
 24 58  1  0
 25 26  1  0
 25 27  1  0
 27 28  1  0
 27 34  1  0
 27 59  1  6
 28 29  2  0
 28 33  1  0
 29 30  1  0
 29 60  1  0
 30 31  2  0
 30 61  1  0
 31 32  1  0
 31 62  1  0
 32 33  2  0
 32 63  1  0
 33 64  1  0
 34 35  1  0
 34 65  1  1
 35 36  2  0
 35 40  1  0
 36 37  1  0
 36 66  1  0
 37 38  2  0
 37 67  1  0
 38 39  1  0
 38 68  1  0
 39 40  2  0
 39 69  1  0
 40 70  1  0
 41 42  2  0
 41 71  1  0
 42 72  1  0
M  END

