
     RDKit          3D

 63 66  0  0  0  0  0  0  0  0999 V2000
    8.6316   -3.1256   -2.1937 C   0  0  0  0  0  0  0  0  0  0  0  0
    7.3874   -2.4276   -1.6450 C   0  0  0  0  0  0  0  0  0  0  0  0
    6.6206   -3.3000   -0.6438 C   0  0  0  0  0  0  0  0  0  0  0  0
    5.4459   -2.6477   -0.0953 N   0  0  0  0  0  0  0  0  0  0  0  0
    4.1778   -2.8326   -0.5528 C   0  0  0  0  0  0  0  0  0  0  0  0
    3.6902   -3.7364   -1.8665 S   0  0  0  0  0  0  0  0  0  0  0  0
    3.3317   -2.1284    0.2778 N   0  0  0  0  0  0  0  0  0  0  0  0
    4.0710   -1.1742    1.0887 C   0  0  1  0  0  0  0  0  0  0  0  0
    4.1963   -0.2099    0.5596 H   0  0  0  0  0  0  0  0  0  0  0  0
    3.4423   -0.8480    2.4256 C   0  0  0  0  0  0  0  0  0  0  0  0
    2.4440   -1.6447    3.0028 C   0  0  0  0  0  0  0  0  0  0  0  0
    1.9063   -1.2579    4.2315 C   0  0  0  0  0  0  0  0  0  0  0  0
    2.3876   -0.0995    4.8448 C   0  0  0  0  0  0  0  0  0  0  0  0
    3.3932    0.6216    4.1923 C   0  0  0  0  0  0  0  0  0  0  0  0
    3.9044    0.2644    3.0131 N   0  0  0  0  0  0  0  0  0  0  0  0
    5.4841   -1.8613    1.1499 C   0  0  1  0  0  0  0  0  0  0  0  0
    6.2518   -1.0774    1.0730 H   0  0  0  0  0  0  0  0  0  0  0  0
    5.7724   -2.7174    2.3567 C   0  0  0  0  0  0  0  0  0  0  0  0
    5.3110   -4.0537    2.5793 C   0  0  0  0  0  0  0  0  0  0  0  0
    5.8067   -4.4809    3.7939 C   0  0  0  0  0  0  0  0  0  0  0  0
    5.6425   -5.7910    4.4957 C   0  0  0  0  0  0  0  0  0  0  0  0
    6.5574   -3.4387    4.3261 N   0  0  0  0  0  0  0  0  0  0  0  0
    7.2626   -3.4862    5.5732 C   0  0  0  0  0  0  0  0  0  0  0  0
    6.6052   -3.0954    6.7549 C   0  0  0  0  0  0  0  0  0  0  0  0
    5.1701   -2.6305    6.7276 C   0  0  0  0  0  0  0  0  0  0  0  0
    7.3181   -3.1508    7.9617 C   0  0  0  0  0  0  0  0  0  0  0  0
    8.6482   -3.5829    8.0182 C   0  0  0  0  0  0  0  0  0  0  0  0
    9.3980   -3.6462    9.3269 C   0  0  0  0  0  0  0  0  0  0  0  0
    9.2712   -3.9662    6.8215 C   0  0  0  0  0  0  0  0  0  0  0  0
    8.6026   -3.9268    5.5926 C   0  0  0  0  0  0  0  0  0  0  0  0
    9.2966   -4.3473    4.3202 C   0  0  0  0  0  0  0  0  0  0  0  0
    6.5417   -2.3568    3.4551 C   0  0  0  0  0  0  0  0  0  0  0  0
    7.2637   -1.0823    3.7644 C   0  0  0  0  0  0  0  0  0  0  0  0
    9.1638   -2.4874   -2.9164 H   0  0  0  0  0  0  0  0  0  0  0  0
    8.3680   -4.0636   -2.7100 H   0  0  0  0  0  0  0  0  0  0  0  0
    9.3422   -3.3801   -1.3888 H   0  0  0  0  0  0  0  0  0  0  0  0
    6.7025   -2.1697   -2.4699 H   0  0  0  0  0  0  0  0  0  0  0  0
    7.6732   -1.4759   -1.1619 H   0  0  0  0  0  0  0  0  0  0  0  0
    7.2721   -3.5910    0.1978 H   0  0  0  0  0  0  0  0  0  0  0  0
    6.2805   -4.2217   -1.1414 H   0  0  0  0  0  0  0  0  0  0  0  0
    2.4183   -1.8999   -0.0975 H   0  0  0  0  0  0  0  0  0  0  0  0
    2.1080   -2.5463    2.4892 H   0  0  0  0  0  0  0  0  0  0  0  0
    1.1216   -1.8548    4.7040 H   0  0  0  0  0  0  0  0  0  0  0  0
    1.9932    0.2441    5.8038 H   0  0  0  0  0  0  0  0  0  0  0  0
    3.7977    1.5359    4.6430 H   0  0  0  0  0  0  0  0  0  0  0  0
    4.6924   -4.6462    1.9072 H   0  0  0  0  0  0  0  0  0  0  0  0
    5.0195   -6.4597    3.8851 H   0  0  0  0  0  0  0  0  0  0  0  0
    5.1565   -5.6841    5.4807 H   0  0  0  0  0  0  0  0  0  0  0  0
    6.6067   -6.2975    4.6731 H   0  0  0  0  0  0  0  0  0  0  0  0
    4.4919   -3.4324    6.3929 H   0  0  0  0  0  0  0  0  0  0  0  0
    5.0232   -1.7936    6.0268 H   0  0  0  0  0  0  0  0  0  0  0  0
    4.8432   -2.3051    7.7256 H   0  0  0  0  0  0  0  0  0  0  0  0
    6.8150   -2.8460    8.8840 H   0  0  0  0  0  0  0  0  0  0  0  0
    8.8056   -3.2298   10.1547 H   0  0  0  0  0  0  0  0  0  0  0  0
   10.3462   -3.0863    9.2734 H   0  0  0  0  0  0  0  0  0  0  0  0
    9.6551   -4.6867    9.5887 H   0  0  0  0  0  0  0  0  0  0  0  0
   10.3109   -4.3068    6.8441 H   0  0  0  0  0  0  0  0  0  0  0  0
   10.3260   -4.6756    4.5223 H   0  0  0  0  0  0  0  0  0  0  0  0
    9.3383   -3.5236    3.5894 H   0  0  0  0  0  0  0  0  0  0  0  0
    8.7645   -5.1741    3.8227 H   0  0  0  0  0  0  0  0  0  0  0  0
    7.0839   -0.7549    4.8008 H   0  0  0  0  0  0  0  0  0  0  0  0
    6.9126   -0.2750    3.1081 H   0  0  0  0  0  0  0  0  0  0  0  0
    8.3582   -1.1739    3.6461 H   0  0  0  0  0  0  0  0  0  0  0  0
  1  2  1  0
  1 34  1  0
  1 35  1  0
  1 36  1  0
  2  3  1  0
  2 37  1  0
  2 38  1  0
  3  4  1  0
  3 39  1  0
  3 40  1  0
  4  5  1  0
  4 16  1  0
  5  6  2  0
  5  7  1  0
  7  8  1  0
  7 41  1  0
  8  9  1  6
  8 10  1  0
  8 16  1  0
 10 11  2  0
 10 15  1  0
 11 12  1  0
 11 42  1  0
 12 13  2  0
 12 43  1  0
 13 14  1  0
 13 44  1  0
 14 15  2  0
 14 45  1  0
 16 17  1  6
 16 18  1  0
 18 19  1  0
 18 32  2  0
 19 20  2  0
 19 46  1  0
 20 21  1  0
 20 22  1  0
 21 47  1  0
 21 48  1  0
 21 49  1  0
 22 23  1  0
 22 32  1  0
 23 24  2  0
 23 30  1  0
 24 25  1  0
 24 26  1  0
 25 50  1  0
 25 51  1  0
 25 52  1  0
 26 27  2  0
 26 53  1  0
 27 28  1  0
 27 29  1  0
 28 54  1  0
 28 55  1  0
 28 56  1  0
 29 30  2  0
 29 57  1  0
 30 31  1  0
 31 58  1  0
 31 59  1  0
 31 60  1  0
 32 33  1  0
 33 61  1  0
 33 62  1  0
 33 63  1  0
M  END

