
     RDKit          3D

 44 46  0  0  0  0  0  0  0  0999 V2000
    1.4677    0.3764    2.3009 O   0  0  0  0  0  0  0  0  0  0  0  0
    2.2878    0.2481    1.4058 C   0  0  0  0  0  0  0  0  0  0  0  0
    3.3280   -0.8720    1.4114 C   0  0  0  0  0  0  0  0  0  0  0  0
    3.5925   -1.3850    2.8416 C   0  0  0  0  0  0  0  0  0  0  0  0
    4.4172   -2.6153    2.8587 C   0  0  0  0  0  0  0  0  0  0  0  0
    5.7547   -2.7172    3.3729 C   0  0  0  0  0  0  0  0  0  0  0  0
    6.1744   -3.9675    3.1373 N   0  0  0  0  0  0  0  0  0  0  0  0
    7.0835   -4.3302    3.4048 H   0  0  0  0  0  0  0  0  0  0  0  0
    5.1803   -4.7405    2.4805 C   0  0  0  0  0  0  0  0  0  0  0  0
    5.2570   -6.0871    2.0458 C   0  0  0  0  0  0  0  0  0  0  0  0
    4.0612   -6.5635    1.4005 C   0  0  0  0  0  0  0  0  0  0  0  0
    2.9388   -5.7703    1.2242 C   0  0  0  0  0  0  0  0  0  0  0  0
    2.8883   -4.4054    1.6694 C   0  0  0  0  0  0  0  0  0  0  0  0
    4.0679   -3.9169    2.3086 C   0  0  0  0  0  0  0  0  0  0  0  0
    2.3301    1.0606    0.3091 N   0  0  0  0  0  0  0  0  0  0  0  0
    1.4011    2.1574    0.0970 C   0  0  0  0  0  0  0  0  0  0  0  0
    2.0582    3.5354    0.2289 C   0  0  0  0  0  0  0  0  0  0  0  0
    1.1037    4.6949   -0.0445 C   0  0  1  0  0  0  0  0  0  0  0  0
    0.6893    4.5691   -1.0647 H   0  0  0  0  0  0  0  0  0  0  0  0
   -0.0876    4.8384    0.9440 C   0  0  0  0  0  0  0  0  0  0  0  0
   -0.3911    6.3599    0.9625 C   0  0  0  0  0  0  0  0  0  0  0  0
    0.7247    6.9794    0.0718 C   0  0  0  0  0  0  0  0  0  0  0  0
    1.7967    5.9877   -0.0287 N   0  0  0  0  0  0  0  0  0  0  0  0
    4.2646   -0.5384    0.9343 H   0  0  0  0  0  0  0  0  0  0  0  0
    2.9407   -1.7029    0.7945 H   0  0  0  0  0  0  0  0  0  0  0  0
    2.6031   -1.5854    3.2910 H   0  0  0  0  0  0  0  0  0  0  0  0
    4.0596   -0.5908    3.4451 H   0  0  0  0  0  0  0  0  0  0  0  0
    6.3631   -1.9730    3.8817 H   0  0  0  0  0  0  0  0  0  0  0  0
    6.1384   -6.7116    2.1839 H   0  0  0  0  0  0  0  0  0  0  0  0
    4.0425   -7.5958    1.0386 H   0  0  0  0  0  0  0  0  0  0  0  0
    2.0606   -6.1987    0.7334 H   0  0  0  0  0  0  0  0  0  0  0  0
    1.9777   -3.8115    1.5960 H   0  0  0  0  0  0  0  0  0  0  0  0
    3.0554    0.9035   -0.3806 H   0  0  0  0  0  0  0  0  0  0  0  0
    0.6056    2.0346    0.8450 H   0  0  0  0  0  0  0  0  0  0  0  0
    0.9376    2.0568   -0.9010 H   0  0  0  0  0  0  0  0  0  0  0  0
    2.9081    3.6139   -0.4715 H   0  0  0  0  0  0  0  0  0  0  0  0
    2.4752    3.6333    1.2483 H   0  0  0  0  0  0  0  0  0  0  0  0
    0.2170    4.4874    1.9445 H   0  0  0  0  0  0  0  0  0  0  0  0
   -0.9582    4.2346    0.6445 H   0  0  0  0  0  0  0  0  0  0  0  0
   -0.3449    6.7568    1.9888 H   0  0  0  0  0  0  0  0  0  0  0  0
   -1.3958    6.5930    0.5769 H   0  0  0  0  0  0  0  0  0  0  0  0
    1.1122    7.9360    0.4537 H   0  0  0  0  0  0  0  0  0  0  0  0
    0.3305    7.1736   -0.9413 H   0  0  0  0  0  0  0  0  0  0  0  0
    2.3720    6.0344    0.8154 H   0  0  0  0  0  0  0  0  0  0  0  0
  1  2  2  0
  2  3  1  0
  2 15  1  0
  3  4  1  0
  3 24  1  0
  3 25  1  0
  4  5  1  0
  4 26  1  0
  4 27  1  0
  5  6  2  0
  5 14  1  0
  6  7  1  0
  6 28  1  0
  7  8  1  0
  7  9  1  0
  9 10  1  0
  9 14  2  0
 10 11  2  0
 10 29  1  0
 11 12  1  0
 11 30  1  0
 12 13  2  0
 12 31  1  0
 13 14  1  0
 13 32  1  0
 15 16  1  0
 15 33  1  0
 16 17  1  0
 16 34  1  0
 16 35  1  0
 17 18  1  0
 17 36  1  0
 17 37  1  0
 18 19  1  6
 18 20  1  0
 18 23  1  0
 20 21  1  0
 20 38  1  0
 20 39  1  0
 21 22  1  0
 21 40  1  0
 21 41  1  0
 22 23  1  0
 22 42  1  0
 22 43  1  0
 23 44  1  0
M  END

