
     RDKit          3D

 31 32  0  0  0  0  0  0  0  0999 V2000
    3.2965    0.7609    0.2771 N   0  0  0  0  0  0  0  0  0  0  0  0
    2.8844   -0.6358    0.2220 C   0  0  0  0  0  0  0  0  0  0  0  0
    3.4828   -1.3093   -0.9668 C   0  0  0  0  0  0  0  0  0  0  0  0
    4.5709   -1.0214   -1.7609 C   0  0  0  0  0  0  0  0  0  0  0  0
    4.6818   -2.0409   -2.7336 C   0  0  0  0  0  0  0  0  0  0  0  0
    3.6219   -2.9417   -2.4694 C   0  0  0  0  0  0  0  0  0  0  0  0
    3.1822   -4.1167   -3.0596 C   0  0  0  0  0  0  0  0  0  0  0  0
    3.8162   -4.6892   -4.0866 O   0  0  0  0  0  0  0  0  0  0  0  0
    2.0478   -4.7681   -2.6539 N   0  0  0  0  0  0  0  0  0  0  0  0
    1.8319   -6.1867   -2.9253 C   0  0  0  0  0  0  0  0  0  0  0  0
    2.5923   -7.1330   -2.0107 C   0  0  0  0  0  0  0  0  0  0  0  0
    3.7873   -7.7279   -2.4479 C   0  0  0  0  0  0  0  0  0  0  0  0
    4.5227   -8.5827   -1.6248 C   0  0  0  0  0  0  0  0  0  0  0  0
    4.0721   -8.8600   -0.3321 C   0  0  0  0  0  0  0  0  0  0  0  0
    2.8912   -8.2769    0.1356 C   0  0  0  0  0  0  0  0  0  0  0  0
    2.1710   -7.4225   -0.7015 C   0  0  0  0  0  0  0  0  0  0  0  0
    0.5669   -6.6280   -0.0040 Br  0  0  0  0  0  0  0  0  0  0  0  0
    2.8884   -2.4771   -1.3816 O   0  0  0  0  0  0  0  0  0  0  0  0
    2.9816    1.1926    1.1447 H   0  0  0  0  0  0  0  0  0  0  0  0
    2.8738    1.2848   -0.4897 H   0  0  0  0  0  0  0  0  0  0  0  0
    1.7848   -0.8088    0.1943 H   0  0  0  0  0  0  0  0  0  0  0  0
    3.2325   -1.1279    1.1529 H   0  0  0  0  0  0  0  0  0  0  0  0
    5.2111   -0.1518   -1.6326 H   0  0  0  0  0  0  0  0  0  0  0  0
    5.4175   -2.1255   -3.5284 H   0  0  0  0  0  0  0  0  0  0  0  0
    1.6632   -4.4037   -1.7865 H   0  0  0  0  0  0  0  0  0  0  0  0
    2.1218   -6.3792   -3.9681 H   0  0  0  0  0  0  0  0  0  0  0  0
    0.7519   -6.3735   -2.8435 H   0  0  0  0  0  0  0  0  0  0  0  0
    4.1448   -7.5013   -3.4558 H   0  0  0  0  0  0  0  0  0  0  0  0
    5.4481   -9.0310   -1.9937 H   0  0  0  0  0  0  0  0  0  0  0  0
    4.6383   -9.5281    0.3214 H   0  0  0  0  0  0  0  0  0  0  0  0
    2.5310   -8.4812    1.1452 H   0  0  0  0  0  0  0  0  0  0  0  0
  1  2  1  0
  1 19  1  0
  1 20  1  0
  2  3  1  0
  2 21  1  0
  2 22  1  0
  3  4  2  0
  3 18  1  0
  4  5  1  0
  4 23  1  0
  5  6  2  0
  5 24  1  0
  6  7  1  0
  6 18  1  0
  7  8  2  0
  7  9  1  0
  9 10  1  0
  9 25  1  0
 10 11  1  0
 10 26  1  0
 10 27  1  0
 11 12  2  0
 11 16  1  0
 12 13  1  0
 12 28  1  0
 13 14  2  0
 13 29  1  0
 14 15  1  0
 14 30  1  0
 15 16  2  0
 15 31  1  0
 16 17  1  0
M  END

