
     RDKit          3D

 38 39  0  0  0  0  0  0  0  0999 V2000
    1.5409    0.6116    3.9018 C   0  0  0  0  0  0  0  0  0  0  0  0
    2.8536    0.5378    3.4185 O   0  0  0  0  0  0  0  0  0  0  0  0
    3.0606    1.2488    2.2275 C   0  0  0  0  0  0  0  0  0  0  0  0
    4.4883    1.1035    1.7508 C   0  0  0  0  0  0  0  0  0  0  0  0
    5.3857    0.2281    2.3741 C   0  0  0  0  0  0  0  0  0  0  0  0
    6.6964    0.1005    1.9062 C   0  0  0  0  0  0  0  0  0  0  0  0
    7.1456    0.8395    0.8025 C   0  0  0  0  0  0  0  0  0  0  0  0
    8.5765    0.7300    0.3157 C   0  0  0  0  0  0  0  0  0  0  0  0
    9.0841   -0.6310    0.3643 N   0  0  0  0  0  0  0  0  0  0  0  0
   10.4589   -0.7745   -0.0882 C   0  0  0  0  0  0  0  0  0  0  0  0
   10.9440   -2.2075   -0.0178 C   0  0  0  0  0  0  0  0  0  0  0  0
   11.6756   -2.7784   -1.0662 C   0  0  0  0  0  0  0  0  0  0  0  0
   12.1539   -4.0902   -0.9904 C   0  0  0  0  0  0  0  0  0  0  0  0
   11.8972   -4.8647    0.1478 C   0  0  0  0  0  0  0  0  0  0  0  0
   12.3310   -6.1464    0.2803 O   0  0  0  0  0  0  0  0  0  0  0  0
   11.1577   -4.3096    1.2038 C   0  0  0  0  0  0  0  0  0  0  0  0
   10.6919   -3.0003    1.1160 C   0  0  0  0  0  0  0  0  0  0  0  0
    6.2399    1.7097    0.1769 C   0  0  0  0  0  0  0  0  0  0  0  0
    4.9328    1.8447    0.6466 C   0  0  0  0  0  0  0  0  0  0  0  0
    1.4899    0.0243    4.8302 H   0  0  0  0  0  0  0  0  0  0  0  0
    0.8076    0.1959    3.1803 H   0  0  0  0  0  0  0  0  0  0  0  0
    1.2387    1.6550    4.1276 H   0  0  0  0  0  0  0  0  0  0  0  0
    2.8246    2.3263    2.3695 H   0  0  0  0  0  0  0  0  0  0  0  0
    2.3672    0.8867    1.4358 H   0  0  0  0  0  0  0  0  0  0  0  0
    5.0454   -0.3498    3.2343 H   0  0  0  0  0  0  0  0  0  0  0  0
    7.3883   -0.5887    2.3953 H   0  0  0  0  0  0  0  0  0  0  0  0
    9.2303    1.3500    0.9598 H   0  0  0  0  0  0  0  0  0  0  0  0
    8.6463    1.1863   -0.6981 H   0  0  0  0  0  0  0  0  0  0  0  0
    8.4731   -1.2546   -0.1637 H   0  0  0  0  0  0  0  0  0  0  0  0
   11.0875   -0.1362    0.5628 H   0  0  0  0  0  0  0  0  0  0  0  0
   10.6206   -0.3910   -1.1214 H   0  0  0  0  0  0  0  0  0  0  0  0
   11.8796   -2.1897   -1.9656 H   0  0  0  0  0  0  0  0  0  0  0  0
   12.7230   -4.5160   -1.8234 H   0  0  0  0  0  0  0  0  0  0  0  0
   12.8231   -6.4019   -0.5109 H   0  0  0  0  0  0  0  0  0  0  0  0
   10.9606   -4.9245    2.0847 H   0  0  0  0  0  0  0  0  0  0  0  0
   10.1099   -2.5753    1.9368 H   0  0  0  0  0  0  0  0  0  0  0  0
    6.5636    2.2917   -0.6915 H   0  0  0  0  0  0  0  0  0  0  0  0
    4.2476    2.5335    0.1418 H   0  0  0  0  0  0  0  0  0  0  0  0
  1  2  1  0
  1 20  1  0
  1 21  1  0
  1 22  1  0
  2  3  1  0
  3  4  1  0
  3 23  1  0
  3 24  1  0
  4  5  2  0
  4 19  1  0
  5  6  1  0
  5 25  1  0
  6  7  2  0
  6 26  1  0
  7  8  1  0
  7 18  1  0
  8  9  1  0
  8 27  1  0
  8 28  1  0
  9 10  1  0
  9 29  1  0
 10 11  1  0
 10 30  1  0
 10 31  1  0
 11 12  2  0
 11 17  1  0
 12 13  1  0
 12 32  1  0
 13 14  2  0
 13 33  1  0
 14 15  1  0
 14 16  1  0
 15 34  1  0
 16 17  2  0
 16 35  1  0
 17 36  1  0
 18 19  2  0
 18 37  1  0
 19 38  1  0
M  END

