
     RDKit          3D

 41 44  0  0  0  0  0  0  0  0999 V2000
    3.5382    2.5425    1.2981 O   0  0  0  0  0  0  0  0  0  0  0  0
    3.4910    1.9613    0.2307 C   0  0  0  0  0  0  0  0  0  0  0  0
    2.1632    2.1959   -0.6094 C   0  0  0  0  0  0  0  0  0  0  0  0
    2.2434    2.2908   -2.1876 C   0  0  2  0  0  0  0  0  0  0  0  0
    1.6284    1.1231   -3.0754 C   0  0  0  0  0  0  0  0  0  0  0  0
    2.8227    0.1109   -3.3377 C   0  0  0  0  0  0  0  0  0  0  0  0
    3.6916    0.5987   -2.1612 C   0  0  1  0  0  0  0  0  0  0  0  0
    4.9163    0.3457   -1.3185 C   0  0  0  0  0  0  0  0  0  0  0  0
    4.5465    1.1004   -0.0956 N   0  0  0  0  0  0  0  0  0  0  0  0
    3.6422    2.0457   -2.3880 N   0  0  0  0  0  0  0  0  0  0  0  0
    4.5307    2.7840   -3.3299 C   0  0  0  0  0  0  0  0  0  0  0  0
    4.2423    2.4877   -4.5141 O   0  0  0  0  0  0  0  0  0  0  0  0
    5.4573    3.6862   -2.7775 C   0  0  0  0  0  0  0  0  0  0  0  0
    6.3513    4.5325   -3.5254 C   0  0  0  0  0  0  0  0  0  0  0  0
    7.0454    5.2343   -2.5829 C   0  0  0  0  0  0  0  0  0  0  0  0
    6.5968    4.8293   -1.3359 N   0  0  0  0  0  0  0  0  0  0  0  0
    6.9726    5.2946   -0.0665 C   0  0  0  0  0  0  0  0  0  0  0  0
    6.1963    4.9595    1.0635 C   0  0  0  0  0  0  0  0  0  0  0  0
    6.5527    5.4017    2.3365 C   0  0  0  0  0  0  0  0  0  0  0  0
    7.6895    6.1930    2.5288 C   0  0  0  0  0  0  0  0  0  0  0  0
    8.4730    6.5332    1.4223 C   0  0  0  0  0  0  0  0  0  0  0  0
    8.1189    6.0851    0.1563 C   0  0  0  0  0  0  0  0  0  0  0  0
    8.9207    6.4274   -0.8771 F   0  0  0  0  0  0  0  0  0  0  0  0
    5.6225    3.8802   -1.4407 N   0  0  0  0  0  0  0  0  0  0  0  0
    1.7957    3.1448   -0.2009 H   0  0  0  0  0  0  0  0  0  0  0  0
    1.4444    1.4174   -0.3031 H   0  0  0  0  0  0  0  0  0  0  0  0
    1.9447    3.2850   -2.5384 H   0  0  0  0  0  0  0  0  0  0  0  0
    1.2585    1.5492   -4.0164 H   0  0  0  0  0  0  0  0  0  0  0  0
    0.7886    0.6351   -2.5579 H   0  0  0  0  0  0  0  0  0  0  0  0
    3.2846    0.2745   -4.3169 H   0  0  0  0  0  0  0  0  0  0  0  0
    2.5150   -0.9368   -3.2186 H   0  0  0  0  0  0  0  0  0  0  0  0
    2.9508    0.3920   -1.3812 H   0  0  0  0  0  0  0  0  0  0  0  0
    5.8478    0.7429   -1.7508 H   0  0  0  0  0  0  0  0  0  0  0  0
    5.0522   -0.7218   -1.0815 H   0  0  0  0  0  0  0  0  0  0  0  0
    5.2873    1.2196    0.5905 H   0  0  0  0  0  0  0  0  0  0  0  0
    6.4429    4.5989   -4.6058 H   0  0  0  0  0  0  0  0  0  0  0  0
    7.8130    5.9920   -2.6854 H   0  0  0  0  0  0  0  0  0  0  0  0
    5.3074    4.3483    0.9174 H   0  0  0  0  0  0  0  0  0  0  0  0
    5.9248    5.1235    3.1862 H   0  0  0  0  0  0  0  0  0  0  0  0
    7.9679    6.5436    3.5248 H   0  0  0  0  0  0  0  0  0  0  0  0
    9.3742    7.1428    1.5154 H   0  0  0  0  0  0  0  0  0  0  0  0
  1  2  2  0
  2  3  1  0
  2  9  1  0
  3  4  1  0
  3 25  1  0
  3 26  1  0
  4  5  1  0
  4 10  1  0
  4 27  1  1
  5  6  1  0
  5 28  1  0
  5 29  1  0
  6  7  1  0
  6 30  1  0
  6 31  1  0
  7  8  1  0
  7 10  1  0
  7 32  1  1
  8  9  1  0
  8 33  1  0
  8 34  1  0
  9 35  1  0
 10 11  1  0
 11 12  2  0
 11 13  1  0
 13 14  1  0
 13 24  2  0
 14 15  2  0
 14 36  1  0
 15 16  1  0
 15 37  1  0
 16 17  1  0
 16 24  1  0
 17 18  2  0
 17 22  1  0
 18 19  1  0
 18 38  1  0
 19 20  2  0
 19 39  1  0
 20 21  1  0
 20 40  1  0
 21 22  2  0
 21 41  1  0
 22 23  1  0
M  END

