
     RDKit          3D

 45 48  0  0  0  0  0  0  0  0999 V2000
    1.9697   -1.1202    0.1822 C   0  0  0  0  0  0  0  0  0  0  0  0
    3.3054   -0.3874   -0.0532 C   0  0  1  0  0  0  0  0  0  0  0  0
    4.3638   -0.9529    0.9076 C   0  0  0  0  0  0  0  0  0  0  0  0
    3.7728   -0.6017   -1.5182 C   0  0  0  0  0  0  0  0  0  0  0  0
    2.9110    0.0602   -2.5969 C   0  0  0  0  0  0  0  0  0  0  0  0
    2.7856   -0.4115   -3.7132 O   0  0  0  0  0  0  0  0  0  0  0  0
    2.3010    1.3257   -2.1840 C   0  0  0  0  0  0  0  0  0  0  0  0
    2.4114    1.7909   -0.8977 C   0  0  0  0  0  0  0  0  0  0  0  0
    1.7748    2.9731   -0.7295 O   0  0  0  0  0  0  0  0  0  0  0  0
    1.2204    3.2993   -1.9498 C   0  0  0  0  0  0  0  0  0  0  0  0
    0.4709    4.4299   -2.2473 C   0  0  0  0  0  0  0  0  0  0  0  0
    0.0057    4.5573   -3.5567 C   0  0  0  0  0  0  0  0  0  0  0  0
    0.2706    3.5662   -4.5310 C   0  0  0  0  0  0  0  0  0  0  0  0
   -0.1690    3.7213   -5.8672 N   0  0  0  0  0  0  0  0  0  0  0  0
   -1.6781    4.3234   -6.3537 S   0  0  1  0  0  0  0  0  0  0  0  0
   -1.9045    3.6669   -7.6417 O   0  0  0  0  0  0  0  0  0  0  0  0
   -2.6360    4.2439   -5.2522 O   0  0  0  0  0  0  0  0  0  0  0  0
   -1.3738    6.0639   -6.6746 C   0  0  0  0  0  0  0  0  0  0  0  0
   -0.5302    6.4308   -7.7287 C   0  0  0  0  0  0  0  0  0  0  0  0
   -0.3253    7.7812   -8.0030 C   0  0  0  0  0  0  0  0  0  0  0  0
   -0.9784    8.7483   -7.2266 C   0  0  0  0  0  0  0  0  0  0  0  0
   -0.7226   10.4378   -7.5723 Cl  0  0  0  0  0  0  0  0  0  0  0  0
   -1.8343    8.3803   -6.1843 C   0  0  0  0  0  0  0  0  0  0  0  0
   -2.0349    7.0255   -5.9084 C   0  0  0  0  0  0  0  0  0  0  0  0
    1.0219    2.4282   -4.2062 C   0  0  0  0  0  0  0  0  0  0  0  0
    1.5106    2.3041   -2.9009 C   0  0  0  0  0  0  0  0  0  0  0  0
    3.1323    1.1349    0.2237 C   0  0  0  0  0  0  0  0  0  0  0  0
    2.0787   -2.1973   -0.0211 H   0  0  0  0  0  0  0  0  0  0  0  0
    1.1658   -0.7388   -0.4662 H   0  0  0  0  0  0  0  0  0  0  0  0
    1.6403   -1.0078    1.2277 H   0  0  0  0  0  0  0  0  0  0  0  0
    4.4986   -2.0348    0.7505 H   0  0  0  0  0  0  0  0  0  0  0  0
    4.0652   -0.8013    1.9579 H   0  0  0  0  0  0  0  0  0  0  0  0
    5.3422   -0.4670    0.7612 H   0  0  0  0  0  0  0  0  0  0  0  0
    3.8438   -1.6739   -1.7568 H   0  0  0  0  0  0  0  0  0  0  0  0
    4.7916   -0.1864   -1.6406 H   0  0  0  0  0  0  0  0  0  0  0  0
    0.2585    5.1898   -1.4937 H   0  0  0  0  0  0  0  0  0  0  0  0
   -0.5764    5.4374   -3.8262 H   0  0  0  0  0  0  0  0  0  0  0  0
    0.0977    2.9794   -6.5110 H   0  0  0  0  0  0  0  0  0  0  0  0
   -0.0404    5.6652   -8.3332 H   0  0  0  0  0  0  0  0  0  0  0  0
    0.3310    8.0920   -8.8173 H   0  0  0  0  0  0  0  0  0  0  0  0
   -2.3407    9.1492   -5.5990 H   0  0  0  0  0  0  0  0  0  0  0  0
   -2.7069    6.7092   -5.1087 H   0  0  0  0  0  0  0  0  0  0  0  0
    1.2304    1.6495   -4.9422 H   0  0  0  0  0  0  0  0  0  0  0  0
    2.5968    1.3042    1.1727 H   0  0  0  0  0  0  0  0  0  0  0  0
    4.1252    1.6094    0.3418 H   0  0  0  0  0  0  0  0  0  0  0  0
  2  1  1  6
  1 28  1  0
  1 29  1  0
  1 30  1  0
  2  3  1  0
  2  4  1  0
  2 27  1  0
  3 31  1  0
  3 32  1  0
  3 33  1  0
  4  5  1  0
  4 34  1  0
  4 35  1  0
  5  6  2  0
  5  7  1  0
  7  8  2  0
  7 26  1  0
  8  9  1  0
  8 27  1  0
  9 10  1  0
 10 11  1  0
 10 26  2  0
 11 12  2  0
 11 36  1  0
 12 13  1  0
 12 37  1  0
 13 14  1  0
 13 25  2  0
 15 14  1  1
 14 38  1  0
 15 16  2  0
 15 17  2  0
 15 18  1  0
 18 19  2  0
 18 24  1  0
 19 20  1  0
 19 39  1  0
 20 21  2  0
 20 40  1  0
 21 22  1  0
 21 23  1  0
 23 24  2  0
 23 41  1  0
 24 42  1  0
 25 26  1  0
 25 43  1  0
 27 44  1  0
 27 45  1  0
M  END

