
     RDKit          3D

 32 34  0  0  0  0  0  0  0  0999 V2000
    1.5096   -0.2595   -0.8154 O   0  0  0  0  0  0  0  0  0  0  0  0
    2.7643   -0.0754   -0.1865 C   0  0  0  0  0  0  0  0  0  0  0  0
    2.6101   -0.4034    1.3000 C   0  0  2  0  0  0  0  0  0  0  0  0
    3.8814   -0.0745    2.1084 C   0  0  0  0  0  0  0  0  0  0  0  0
    5.1095   -0.9264    1.7232 C   0  0  0  0  0  0  0  0  0  0  0  0
    4.7233   -2.3698    1.5478 C   0  0  0  0  0  0  0  0  0  0  0  0
    5.4660   -3.5915    1.4421 C   0  0  0  0  0  0  0  0  0  0  0  0
    6.9198   -3.8306    1.4767 C   0  0  0  0  0  0  0  0  0  0  0  0
    7.8690   -2.8004    1.3650 C   0  0  0  0  0  0  0  0  0  0  0  0
    9.2305   -3.1165    1.4032 C   0  0  0  0  0  0  0  0  0  0  0  0
    9.7046   -4.3558    1.5382 N   0  0  0  0  0  0  0  0  0  0  0  0
    8.8029   -5.3399    1.6384 C   0  0  0  0  0  0  0  0  0  0  0  0
    7.4243   -5.1376    1.6151 C   0  0  0  0  0  0  0  0  0  0  0  0
    4.6362   -4.6331    1.3028 N   0  0  0  0  0  0  0  0  0  0  0  0
    3.4071   -4.1121    1.3096 N   0  0  0  0  0  0  0  0  0  0  0  0
    2.6078   -4.7257    1.2048 H   0  0  0  0  0  0  0  0  0  0  0  0
    3.3959   -2.7591    1.4536 C   0  0  0  0  0  0  0  0  0  0  0  0
    2.1903   -1.8752    1.5184 C   0  0  0  0  0  0  0  0  0  0  0  0
    1.6237   -0.1609   -1.7683 H   0  0  0  0  0  0  0  0  0  0  0  0
    3.1139    0.9729   -0.2854 H   0  0  0  0  0  0  0  0  0  0  0  0
    3.5383   -0.7232   -0.6435 H   0  0  0  0  0  0  0  0  0  0  0  0
    1.7906    0.2367    1.6674 H   0  0  0  0  0  0  0  0  0  0  0  0
    3.6564   -0.2380    3.1763 H   0  0  0  0  0  0  0  0  0  0  0  0
    4.1254    0.9958    2.0056 H   0  0  0  0  0  0  0  0  0  0  0  0
    5.8840   -0.8176    2.5003 H   0  0  0  0  0  0  0  0  0  0  0  0
    5.5654   -0.5354    0.7944 H   0  0  0  0  0  0  0  0  0  0  0  0
    7.5664   -1.7617    1.2350 H   0  0  0  0  0  0  0  0  0  0  0  0
    9.9744   -2.3146    1.3162 H   0  0  0  0  0  0  0  0  0  0  0  0
    9.2012   -6.3562    1.7465 H   0  0  0  0  0  0  0  0  0  0  0  0
    6.7327   -5.9765    1.7019 H   0  0  0  0  0  0  0  0  0  0  0  0
    1.7004   -1.9755    2.5041 H   0  0  0  0  0  0  0  0  0  0  0  0
    1.4394   -2.1547    0.7620 H   0  0  0  0  0  0  0  0  0  0  0  0
  1  2  1  0
  1 19  1  0
  2  3  1  0
  2 20  1  0
  2 21  1  0
  3  4  1  0
  3 18  1  0
  3 22  1  1
  4  5  1  0
  4 23  1  0
  4 24  1  0
  5  6  1  0
  5 25  1  0
  5 26  1  0
  6  7  1  0
  6 17  2  0
  7  8  1  0
  7 14  2  0
  8  9  2  0
  8 13  1  0
  9 10  1  0
  9 27  1  0
 10 11  2  0
 10 28  1  0
 11 12  1  0
 12 13  2  0
 12 29  1  0
 13 30  1  0
 14 15  1  0
 15 16  1  0
 15 17  1  0
 17 18  1  0
 18 31  1  0
 18 32  1  0
M  END

