
     RDKit          3D

129139  0  0  0  0  0  0  0  0999 V2000
    6.6126   -2.2675    0.2451 C   0  0  0  0  0  0  0  0  0  0  0  0
    6.0512   -3.6154   -0.2710 C   0  0  1  0  0  0  0  0  0  0  0  0
    7.2165   -4.6108   -0.4932 C   0  0  0  0  0  0  0  0  0  0  0  0
    5.1163   -4.1958    0.8054 C   0  0  0  0  0  0  0  0  0  0  0  0
    5.3312   -3.3778   -1.6064 C   0  0  0  0  0  0  0  0  0  0  0  0
    6.0554   -2.8545   -2.7067 C   0  0  0  0  0  0  0  0  0  0  0  0
    5.4690   -2.6093   -3.9426 C   0  0  0  0  0  0  0  0  0  0  0  0
    4.1009   -2.9012   -4.0807 C   0  0  0  0  0  0  0  0  0  0  0  0
    3.3373   -3.4283   -3.0004 C   0  0  0  0  0  0  0  0  0  0  0  0
    3.9489   -3.6627   -1.7792 C   0  0  0  0  0  0  0  0  0  0  0  0
    1.9755   -3.5965   -3.5147 C   0  0  0  0  0  0  0  0  0  0  0  0
    0.7844   -4.0553   -2.9740 C   0  0  0  0  0  0  0  0  0  0  0  0
   -0.3940   -4.0890   -3.7684 C   0  0  0  0  0  0  0  0  0  0  0  0
   -1.7372   -4.5870   -3.2147 C   0  0  1  0  0  0  0  0  0  0  0  0
   -2.7804   -3.4474   -3.3194 C   0  0  0  0  0  0  0  0  0  0  0  0
   -2.2091   -5.8013   -4.0517 C   0  0  0  0  0  0  0  0  0  0  0  0
   -1.6404   -5.0215   -1.7410 C   0  0  0  0  0  0  0  0  0  0  0  0
   -0.3145   -3.6462   -5.1115 C   0  0  0  0  0  0  0  0  0  0  0  0
    0.8660   -3.1807   -5.6803 C   0  0  0  0  0  0  0  0  0  0  0  0
    2.0120   -3.1598   -4.8686 C   0  0  0  0  0  0  0  0  0  0  0  0
    3.2906   -2.7501   -5.1839 N   0  0  0  0  0  0  0  0  0  0  0  0
    3.7145   -2.2359   -6.4706 C   0  0  0  0  0  0  0  0  0  0  0  0
    3.5843   -0.8719   -6.7400 C   0  0  0  0  0  0  0  0  0  0  0  0
    3.9994   -0.3819   -7.9800 C   0  0  0  0  0  0  0  0  0  0  0  0
    4.5441   -1.2408   -8.9466 C   0  0  0  0  0  0  0  0  0  0  0  0
    5.0004   -0.6957  -10.2734 C   0  0  0  0  0  0  0  0  0  0  0  0
    4.8207    0.6268  -10.4630 N   0  0  0  0  0  0  0  0  0  0  0  0
    5.2704    1.0651  -11.6754 C   0  0  0  0  0  0  0  0  0  0  0  0
    5.1173    2.5182  -11.9708 C   0  0  0  0  0  0  0  0  0  0  0  0
    5.6138    3.0624  -13.1689 C   0  0  0  0  0  0  0  0  0  0  0  0
    5.4747    4.4205  -13.4459 C   0  0  0  0  0  0  0  0  0  0  0  0
    4.8216    5.2705  -12.5342 C   0  0  0  0  0  0  0  0  0  0  0  0
    4.5563    7.0573  -12.7953 P   0  0  1  0  0  0  0  0  0  0  0  0
    4.3158    7.8088  -11.5088 O   0  0  0  0  0  0  0  0  0  0  0  0
    6.0290    7.6988  -13.6871 C   0  0  0  0  0  0  0  0  0  0  0  0
    6.2481    7.5558  -15.0661 C   0  0  0  0  0  0  0  0  0  0  0  0
    7.4085    8.0714  -15.6512 C   0  0  0  0  0  0  0  0  0  0  0  0
    8.3522    8.7402  -14.8654 C   0  0  0  0  0  0  0  0  0  0  0  0
    8.1304    8.9003  -13.4939 C   0  0  0  0  0  0  0  0  0  0  0  0
    6.9723    8.3854  -12.9060 C   0  0  0  0  0  0  0  0  0  0  0  0
    3.1417    7.2325  -13.9555 C   0  0  0  0  0  0  0  0  0  0  0  0
    2.8257    6.3101  -14.9653 C   0  0  0  0  0  0  0  0  0  0  0  0
    1.7285    6.5338  -15.8031 C   0  0  0  0  0  0  0  0  0  0  0  0
    0.9358    7.6729  -15.6320 C   0  0  0  0  0  0  0  0  0  0  0  0
    1.2363    8.5860  -14.6157 C   0  0  0  0  0  0  0  0  0  0  0  0
    2.3320    8.3661  -13.7775 C   0  0  0  0  0  0  0  0  0  0  0  0
    4.3364    4.7345  -11.3310 C   0  0  0  0  0  0  0  0  0  0  0  0
    4.4832    3.3749  -11.0545 C   0  0  0  0  0  0  0  0  0  0  0  0
    5.8250    0.3054  -12.5927 N   0  0  0  0  0  0  0  0  0  0  0  0
    5.9613   -1.0303  -12.3190 C   0  0  0  0  0  0  0  0  0  0  0  0
    6.5621   -1.8974  -13.2960 C   0  0  0  0  0  0  0  0  0  0  0  0
    7.0283   -1.3962  -14.5482 C   0  0  0  0  0  0  0  0  0  0  0  0
    7.6123   -2.2301  -15.4858 C   0  0  0  0  0  0  0  0  0  0  0  0
    7.7629   -3.6162  -15.2394 C   0  0  0  0  0  0  0  0  0  0  0  0
    8.5191   -4.6055  -16.5435 P   0  0  1  0  0  0  0  0  0  0  0  0
    9.4048   -3.8192  -17.4810 O   0  0  0  0  0  0  0  0  0  0  0  0
    9.4643   -5.9625  -15.7279 C   0  0  0  0  0  0  0  0  0  0  0  0
    8.8972   -7.1431  -15.2245 C   0  0  0  0  0  0  0  0  0  0  0  0
    9.7038   -8.1108  -14.6168 C   0  0  0  0  0  0  0  0  0  0  0  0
   11.0838   -7.9100  -14.5147 C   0  0  0  0  0  0  0  0  0  0  0  0
   11.6571   -6.7421  -15.0286 C   0  0  0  0  0  0  0  0  0  0  0  0
   10.8527   -5.7747  -15.6361 C   0  0  0  0  0  0  0  0  0  0  0  0
    7.1761   -5.4559  -17.4770 C   0  0  0  0  0  0  0  0  0  0  0  0
    5.9419   -5.8197  -16.9172 C   0  0  0  0  0  0  0  0  0  0  0  0
    4.9743   -6.4587  -17.6997 C   0  0  0  0  0  0  0  0  0  0  0  0
    5.2285   -6.7278  -19.0482 C   0  0  0  0  0  0  0  0  0  0  0  0
    6.4499   -6.3499  -19.6162 C   0  0  0  0  0  0  0  0  0  0  0  0
    7.4186   -5.7140  -18.8357 C   0  0  0  0  0  0  0  0  0  0  0  0
    7.3175   -4.1225  -13.9955 C   0  0  0  0  0  0  0  0  0  0  0  0
    6.7328   -3.2925  -13.0525 C   0  0  0  0  0  0  0  0  0  0  0  0
    5.5335   -1.5490  -11.1142 N   0  0  0  0  0  0  0  0  0  0  0  0
    4.6631   -2.6073   -8.6528 C   0  0  0  0  0  0  0  0  0  0  0  0
    4.2509   -3.1132   -7.4203 C   0  0  0  0  0  0  0  0  0  0  0  0
    7.1344   -2.4234    1.2022 H   0  0  0  0  0  0  0  0  0  0  0  0
    5.8052   -1.5376    0.4132 H   0  0  0  0  0  0  0  0  0  0  0  0
    7.3327   -1.8203   -0.4560 H   0  0  0  0  0  0  0  0  0  0  0  0
    7.7395   -4.7904    0.4590 H   0  0  0  0  0  0  0  0  0  0  0  0
    7.9581   -4.2313   -1.2113 H   0  0  0  0  0  0  0  0  0  0  0  0
    6.8485   -5.5795   -0.8662 H   0  0  0  0  0  0  0  0  0  0  0  0
    5.6801   -4.3480    1.7376 H   0  0  0  0  0  0  0  0  0  0  0  0
    4.7021   -5.1732    0.5119 H   0  0  0  0  0  0  0  0  0  0  0  0
    4.2799   -3.5181    1.0375 H   0  0  0  0  0  0  0  0  0  0  0  0
    7.1159   -2.6305   -2.5893 H   0  0  0  0  0  0  0  0  0  0  0  0
    6.0424   -2.2057   -4.7772 H   0  0  0  0  0  0  0  0  0  0  0  0
    3.3654   -4.0647   -0.9524 H   0  0  0  0  0  0  0  0  0  0  0  0
    0.7561   -4.3889   -1.9378 H   0  0  0  0  0  0  0  0  0  0  0  0
   -2.9406   -3.1231   -4.3583 H   0  0  0  0  0  0  0  0  0  0  0  0
   -2.4696   -2.5676   -2.7344 H   0  0  0  0  0  0  0  0  0  0  0  0
   -3.7497   -3.7913   -2.9263 H   0  0  0  0  0  0  0  0  0  0  0  0
   -2.3533   -5.5457   -5.1120 H   0  0  0  0  0  0  0  0  0  0  0  0
   -3.1723   -6.1695   -3.6654 H   0  0  0  0  0  0  0  0  0  0  0  0
   -1.4836   -6.6282   -3.9986 H   0  0  0  0  0  0  0  0  0  0  0  0
   -1.3367   -4.1921   -1.0832 H   0  0  0  0  0  0  0  0  0  0  0  0
   -0.9349   -5.8554   -1.5996 H   0  0  0  0  0  0  0  0  0  0  0  0
   -2.6257   -5.3673   -1.3947 H   0  0  0  0  0  0  0  0  0  0  0  0
   -1.2099   -3.6662   -5.7331 H   0  0  0  0  0  0  0  0  0  0  0  0
    0.9068   -2.8427   -6.7159 H   0  0  0  0  0  0  0  0  0  0  0  0
    3.1654   -0.1991   -5.9877 H   0  0  0  0  0  0  0  0  0  0  0  0
    3.9156    0.6767   -8.2255 H   0  0  0  0  0  0  0  0  0  0  0  0
    6.1184    2.3960  -13.8692 H   0  0  0  0  0  0  0  0  0  0  0  0
    5.8963    4.8199  -14.3716 H   0  0  0  0  0  0  0  0  0  0  0  0
    5.5070    7.0556  -15.6943 H   0  0  0  0  0  0  0  0  0  0  0  0
    7.5725    7.9556  -16.7258 H   0  0  0  0  0  0  0  0  0  0  0  0
    9.2583    9.1438  -15.3250 H   0  0  0  0  0  0  0  0  0  0  0  0
    8.8611    9.4332  -12.8796 H   0  0  0  0  0  0  0  0  0  0  0  0
    6.7748    8.5184  -11.8396 H   0  0  0  0  0  0  0  0  0  0  0  0
    3.4219    5.4031  -15.0906 H   0  0  0  0  0  0  0  0  0  0  0  0
    1.4873    5.8099  -16.5858 H   0  0  0  0  0  0  0  0  0  0  0  0
    0.0766    7.8441  -16.2860 H   0  0  0  0  0  0  0  0  0  0  0  0
    0.6099    9.4704  -14.4713 H   0  0  0  0  0  0  0  0  0  0  0  0
    2.5667    9.0582  -12.9652 H   0  0  0  0  0  0  0  0  0  0  0  0
    3.8561    5.4026  -10.6122 H   0  0  0  0  0  0  0  0  0  0  0  0
    4.1115    2.9517  -10.1213 H   0  0  0  0  0  0  0  0  0  0  0  0
    6.9229   -0.3303  -14.7504 H   0  0  0  0  0  0  0  0  0  0  0  0
    7.9815   -1.8223  -16.4299 H   0  0  0  0  0  0  0  0  0  0  0  0
    7.8231   -7.3210  -15.3196 H   0  0  0  0  0  0  0  0  0  0  0  0
    9.2532   -9.0287  -14.2292 H   0  0  0  0  0  0  0  0  0  0  0  0
   11.7140   -8.6687  -14.0426 H   0  0  0  0  0  0  0  0  0  0  0  0
   12.7375   -6.5873  -14.9619 H   0  0  0  0  0  0  0  0  0  0  0  0
   11.2862   -4.8662  -16.0616 H   0  0  0  0  0  0  0  0  0  0  0  0
    5.7251   -5.5840  -15.8721 H   0  0  0  0  0  0  0  0  0  0  0  0
    4.0138   -6.7363  -17.2571 H   0  0  0  0  0  0  0  0  0  0  0  0
    4.4693   -7.2225  -19.6602 H   0  0  0  0  0  0  0  0  0  0  0  0
    6.6448   -6.5447  -20.6744 H   0  0  0  0  0  0  0  0  0  0  0  0
    8.3685   -5.3909  -19.2687 H   0  0  0  0  0  0  0  0  0  0  0  0
    7.4494   -5.1812  -13.7566 H   0  0  0  0  0  0  0  0  0  0  0  0
    6.4020   -3.6965  -12.0957 H   0  0  0  0  0  0  0  0  0  0  0  0
    5.0894   -3.2595   -9.4157 H   0  0  0  0  0  0  0  0  0  0  0  0
    4.3448   -4.1783   -7.1954 H   0  0  0  0  0  0  0  0  0  0  0  0
  2  1  1  1
  1 74  1  0
  1 75  1  0
  1 76  1  0
  2  3  1  0
  2  4  1  0
  2  5  1  0
  3 77  1  0
  3 78  1  0
  3 79  1  0
  4 80  1  0
  4 81  1  0
  4 82  1  0
  5  6  2  0
  5 10  1  0
  6  7  1  0
  6 83  1  0
  7  8  2  0
  7 84  1  0
  8  9  1  0
  8 21  1  0
  9 10  2  0
  9 11  1  0
 10 85  1  0
 11 12  2  0
 11 20  1  0
 12 13  1  0
 12 86  1  0
 13 14  1  0
 13 18  2  0
 14 15  1  6
 14 16  1  0
 14 17  1  0
 15 87  1  0
 15 88  1  0
 15 89  1  0
 16 90  1  0
 16 91  1  0
 16 92  1  0
 17 93  1  0
 17 94  1  0
 17 95  1  0
 18 19  1  0
 18 96  1  0
 19 20  2  0
 19 97  1  0
 20 21  1  0
 21 22  1  0
 22 23  2  0
 22 73  1  0
 23 24  1  0
 23 98  1  0
 24 25  2  0
 24 99  1  0
 25 26  1  0
 25 72  1  0
 26 27  2  0
 26 71  1  0
 27 28  1  0
 28 29  1  0
 28 49  2  0
 29 30  2  0
 29 48  1  0
 30 31  1  0
 30100  1  0
 31 32  2  0
 31101  1  0
 33 32  1  1
 32 47  1  0
 33 34  2  0
 33 35  1  0
 33 41  1  0
 35 36  2  0
 35 40  1  0
 36 37  1  0
 36102  1  0
 37 38  2  0
 37103  1  0
 38 39  1  0
 38104  1  0
 39 40  2  0
 39105  1  0
 40106  1  0
 41 42  2  0
 41 46  1  0
 42 43  1  0
 42107  1  0
 43 44  2  0
 43108  1  0
 44 45  1  0
 44109  1  0
 45 46  2  0
 45110  1  0
 46111  1  0
 47 48  2  0
 47112  1  0
 48113  1  0
 49 50  1  0
 50 51  1  0
 50 71  2  0
 51 52  2  0
 51 70  1  0
 52 53  1  0
 52114  1  0
 53 54  2  0
 53115  1  0
 55 54  1  1
 54 69  1  0
 55 56  2  0
 55 57  1  0
 55 63  1  0
 57 58  2  0
 57 62  1  0
 58 59  1  0
 58116  1  0
 59 60  2  0
 59117  1  0
 60 61  1  0
 60118  1  0
 61 62  2  0
 61119  1  0
 62120  1  0
 63 64  2  0
 63 68  1  0
 64 65  1  0
 64121  1  0
 65 66  2  0
 65122  1  0
 66 67  1  0
 66123  1  0
 67 68  2  0
 67124  1  0
 68125  1  0
 69 70  2  0
 69126  1  0
 70127  1  0
 72 73  2  0
 72128  1  0
 73129  1  0
M  END

