
     RDKit          3D

 45 46  0  0  0  0  0  0  0  0999 V2000
    2.0461   -1.6236    5.8530 C   0  0  0  0  0  0  0  0  0  0  0  0
    3.0969   -1.6155    4.7590 C   0  0  0  0  0  0  0  0  0  0  0  0
    4.2770   -2.2047    5.2770 O   0  0  0  0  0  0  0  0  0  0  0  0
    5.3794   -2.3064    4.4885 C   0  0  0  0  0  0  0  0  0  0  0  0
    5.4553   -1.8823    3.1572 C   0  0  0  0  0  0  0  0  0  0  0  0
    6.6456   -2.0340    2.4273 C   0  0  0  0  0  0  0  0  0  0  0  0
    7.7708   -2.6079    3.0227 C   0  0  0  0  0  0  0  0  0  0  0  0
    8.9863   -2.7850    2.4093 O   0  0  0  0  0  0  0  0  0  0  0  0
    9.1768   -2.4435    1.0429 C   0  0  2  0  0  0  0  0  0  0  0  0
    8.6706   -1.4868    0.8167 H   0  0  0  0  0  0  0  0  0  0  0  0
    8.6865   -3.5328    0.0929 C   0  0  0  0  0  0  0  0  0  0  0  0
   10.6655   -2.1556    0.8179 C   0  0  0  0  0  0  0  0  0  0  0  0
   11.1281   -1.9796   -0.2964 O   0  0  0  0  0  0  0  0  0  0  0  0
   11.4323   -2.1269    1.9437 N   0  0  0  0  0  0  0  0  0  0  0  0
   12.8020   -1.9089    1.8523 N   0  0  0  0  0  0  0  0  0  0  0  0
   13.2044   -0.2749    2.3682 S   0  0  1  0  0  0  0  0  0  0  0  0
   12.8549    0.7244    1.3559 O   0  0  0  0  0  0  0  0  0  0  0  0
   12.6559   -0.1960    3.7228 O   0  0  0  0  0  0  0  0  0  0  0  0
   14.9868   -0.4289    2.4335 C   0  0  0  0  0  0  0  0  0  0  0  0
   15.7534    0.1580    1.4236 C   0  0  0  0  0  0  0  0  0  0  0  0
   17.1451    0.0404    1.4835 C   0  0  0  0  0  0  0  0  0  0  0  0
   17.7451   -0.6520    2.5398 C   0  0  0  0  0  0  0  0  0  0  0  0
   16.9613   -1.2274    3.5477 C   0  0  0  0  0  0  0  0  0  0  0  0
   15.5709   -1.1165    3.5024 C   0  0  0  0  0  0  0  0  0  0  0  0
    7.6915   -3.0392    4.3586 C   0  0  0  0  0  0  0  0  0  0  0  0
    6.5161   -2.8894    5.0803 C   0  0  0  0  0  0  0  0  0  0  0  0
    1.1111   -1.1713    5.4876 H   0  0  0  0  0  0  0  0  0  0  0  0
    2.3922   -1.0516    6.7275 H   0  0  0  0  0  0  0  0  0  0  0  0
    1.8320   -2.6530    6.1786 H   0  0  0  0  0  0  0  0  0  0  0  0
    3.3048   -0.5811    4.4239 H   0  0  0  0  0  0  0  0  0  0  0  0
    2.7457   -2.1826    3.8753 H   0  0  0  0  0  0  0  0  0  0  0  0
    4.5964   -1.4305    2.6611 H   0  0  0  0  0  0  0  0  0  0  0  0
    6.6635   -1.6942    1.3916 H   0  0  0  0  0  0  0  0  0  0  0  0
    8.9390   -3.2551   -0.9398 H   0  0  0  0  0  0  0  0  0  0  0  0
    7.5989   -3.6690    0.1756 H   0  0  0  0  0  0  0  0  0  0  0  0
    9.1770   -4.4889    0.3317 H   0  0  0  0  0  0  0  0  0  0  0  0
   11.0534   -2.3874    2.8474 H   0  0  0  0  0  0  0  0  0  0  0  0
   13.0436   -1.9974    0.8555 H   0  0  0  0  0  0  0  0  0  0  0  0
   15.2586    0.7025    0.6174 H   0  0  0  0  0  0  0  0  0  0  0  0
   17.7614    0.4946    0.7040 H   0  0  0  0  0  0  0  0  0  0  0  0
   18.8336   -0.7409    2.5822 H   0  0  0  0  0  0  0  0  0  0  0  0
   17.4364   -1.7601    4.3748 H   0  0  0  0  0  0  0  0  0  0  0  0
   14.9402   -1.5453    4.2830 H   0  0  0  0  0  0  0  0  0  0  0  0
    8.5737   -3.4908    4.8172 H   0  0  0  0  0  0  0  0  0  0  0  0
    6.4489   -3.2186    6.1191 H   0  0  0  0  0  0  0  0  0  0  0  0
  1  2  1  0
  1 27  1  0
  1 28  1  0
  1 29  1  0
  2  3  1  0
  2 30  1  0
  2 31  1  0
  3  4  1  0
  4  5  2  0
  4 26  1  0
  5  6  1  0
  5 32  1  0
  6  7  2  0
  6 33  1  0
  7  8  1  0
  7 25  1  0
  8  9  1  0
  9 10  1  6
  9 11  1  0
  9 12  1  0
 11 34  1  0
 11 35  1  0
 11 36  1  0
 12 13  2  0
 12 14  1  0
 14 15  1  0
 14 37  1  0
 16 15  1  6
 15 38  1  0
 16 17  2  0
 16 18  2  0
 16 19  1  0
 19 20  2  0
 19 24  1  0
 20 21  1  0
 20 39  1  0
 21 22  2  0
 21 40  1  0
 22 23  1  0
 22 41  1  0
 23 24  2  0
 23 42  1  0
 24 43  1  0
 25 26  2  0
 25 44  1  0
 26 45  1  0
M  END

