
     RDKit          3D

 38 39  0  0  0  0  0  0  0  0999 V2000
   -2.2853   -4.8565   -0.1145 C   0  0  0  0  0  0  0  0  0  0  0  0
   -0.7921   -4.7334   -0.0990 C   0  0  0  0  0  0  0  0  0  0  0  0
   -0.0249   -3.5881   -0.0928 C   0  0  0  0  0  0  0  0  0  0  0  0
    1.3753   -3.8319   -0.0772 C   0  0  0  0  0  0  0  0  0  0  0  0
    1.6877   -5.1771   -0.0715 C   0  0  0  0  0  0  0  0  0  0  0  0
    2.9917   -5.8155   -0.0557 C   0  0  0  0  0  0  0  0  0  0  0  0
    4.0756   -5.1249   -0.0431 N   0  0  0  0  0  0  0  0  0  0  0  0
    5.2428   -5.7871   -0.0290 N   0  0  0  0  0  0  0  0  0  0  0  0
    6.4594   -5.1265   -0.0122 C   0  0  0  0  0  0  0  0  0  0  0  0
    6.5957   -3.9212   -0.0094 O   0  0  0  0  0  0  0  0  0  0  0  0
    7.6164   -6.0681    0.0002 C   0  0  0  0  0  0  0  0  0  0  0  0
    8.9877   -5.7109    0.0214 C   0  0  0  0  0  0  0  0  0  0  0  0
    9.6738   -6.9159    0.0267 C   0  0  0  0  0  0  0  0  0  0  0  0
   11.1530   -7.2528    0.0473 C   0  0  1  0  0  0  0  0  0  0  0  0
   11.9734   -5.9518    0.0729 C   0  0  0  0  0  0  0  0  0  0  0  0
   11.4778   -8.0866    1.3082 C   0  0  0  0  0  0  0  0  0  0  0  0
   11.5183   -8.0628   -1.2180 C   0  0  0  0  0  0  0  0  0  0  0  0
    8.7014   -7.8805    0.0084 N   0  0  0  0  0  0  0  0  0  0  0  0
    8.8361   -8.8846    0.0066 H   0  0  0  0  0  0  0  0  0  0  0  0
    7.4580   -7.3927   -0.0076 N   0  0  0  0  0  0  0  0  0  0  0  0
    0.2301   -6.1441   -0.0855 S   0  0  0  0  0  0  0  0  0  0  0  0
   -2.7423   -3.8559   -0.1227 H   0  0  0  0  0  0  0  0  0  0  0  0
   -2.6654   -5.3931    0.7713 H   0  0  0  0  0  0  0  0  0  0  0  0
   -2.6465   -5.3990   -1.0046 H   0  0  0  0  0  0  0  0  0  0  0  0
   -0.4661   -2.5892   -0.0993 H   0  0  0  0  0  0  0  0  0  0  0  0
    2.1463   -3.0609   -0.0702 H   0  0  0  0  0  0  0  0  0  0  0  0
    3.0153   -6.9218   -0.0547 H   0  0  0  0  0  0  0  0  0  0  0  0
    5.2692   -6.8112   -0.0294 H   0  0  0  0  0  0  0  0  0  0  0  0
    9.3907   -4.7035    0.0314 H   0  0  0  0  0  0  0  0  0  0  0  0
   11.7446   -5.3504    0.9661 H   0  0  0  0  0  0  0  0  0  0  0  0
   11.7725   -5.3332   -0.8152 H   0  0  0  0  0  0  0  0  0  0  0  0
   13.0501   -6.1828    0.0875 H   0  0  0  0  0  0  0  0  0  0  0  0
   11.2207   -7.5344    2.2253 H   0  0  0  0  0  0  0  0  0  0  0  0
   12.5522   -8.3287    1.3421 H   0  0  0  0  0  0  0  0  0  0  0  0
   10.9246   -9.0401    1.3239 H   0  0  0  0  0  0  0  0  0  0  0  0
   11.2913   -7.4927   -2.1321 H   0  0  0  0  0  0  0  0  0  0  0  0
   10.9653   -9.0150   -1.2697 H   0  0  0  0  0  0  0  0  0  0  0  0
   12.5932   -8.3052   -1.2217 H   0  0  0  0  0  0  0  0  0  0  0  0
  1  2  1  0
  1 22  1  0
  1 23  1  0
  1 24  1  0
  2  3  2  0
  2 21  1  0
  3  4  1  0
  3 25  1  0
  4  5  2  0
  4 26  1  0
  5  6  1  0
  5 21  1  0
  6  7  2  0
  6 27  1  0
  7  8  1  0
  8  9  1  0
  8 28  1  0
  9 10  2  0
  9 11  1  0
 11 12  1  0
 11 20  2  0
 12 13  2  0
 12 29  1  0
 13 14  1  0
 13 18  1  0
 14 15  1  1
 14 16  1  0
 14 17  1  0
 15 30  1  0
 15 31  1  0
 15 32  1  0
 16 33  1  0
 16 34  1  0
 16 35  1  0
 17 36  1  0
 17 37  1  0
 17 38  1  0
 18 19  1  0
 18 20  1  0
M  END

