
     RDKit          3D

 30 31  0  0  0  0  0  0  0  0999 V2000
    6.7773   -1.5159    3.5120 O   0  0  0  0  0  0  0  0  0  0  0  0
    6.6414   -0.3548    3.1527 C   0  0  0  0  0  0  0  0  0  0  0  0
    5.4408    0.2867    3.1653 N   0  0  0  0  0  0  0  0  0  0  0  0
    4.2415   -0.3104    3.7030 C   0  0  0  0  0  0  0  0  0  0  0  0
    3.5349    0.6419    4.6831 C   0  0  2  0  0  0  0  0  0  0  0  0
    2.5845    0.1499    4.9733 H   0  0  0  0  0  0  0  0  0  0  0  0
    3.2820    1.8280    3.9423 O   0  0  0  0  0  0  0  0  0  0  0  0
    4.3276    0.9377    5.9329 C   0  0  0  0  0  0  0  0  0  0  0  0
    5.3502    1.8462    6.0929 C   0  0  0  0  0  0  0  0  0  0  0  0
    5.9040    1.8392    7.4095 C   0  0  0  0  0  0  0  0  0  0  0  0
    5.2981    0.9251    8.2334 C   0  0  0  0  0  0  0  0  0  0  0  0
    4.0393    0.0674    7.4135 S   0  0  0  0  0  0  0  0  0  0  0  0
    7.8344    0.4246    2.6363 C   0  0  0  0  0  0  0  0  0  0  0  0
    9.0057   -0.3134    2.3903 C   0  0  0  0  0  0  0  0  0  0  0  0
   10.1698    0.2929    1.9221 C   0  0  0  0  0  0  0  0  0  0  0  0
   10.1927    1.6734    1.6944 C   0  0  0  0  0  0  0  0  0  0  0  0
    9.0505    2.4371    1.9391 C   0  0  0  0  0  0  0  0  0  0  0  0
    7.8999    1.8051    2.4025 C   0  0  0  0  0  0  0  0  0  0  0  0
    6.8202    2.5921    2.6327 F   0  0  0  0  0  0  0  0  0  0  0  0
    5.3730    1.2502    2.8601 H   0  0  0  0  0  0  0  0  0  0  0  0
    4.5167   -1.2511    4.1972 H   0  0  0  0  0  0  0  0  0  0  0  0
    3.5255   -0.5434    2.8937 H   0  0  0  0  0  0  0  0  0  0  0  0
    2.9968    2.5150    4.5595 H   0  0  0  0  0  0  0  0  0  0  0  0
    5.6987    2.4891    5.2839 H   0  0  0  0  0  0  0  0  0  0  0  0
    6.7216    2.4868    7.7304 H   0  0  0  0  0  0  0  0  0  0  0  0
    5.5168    0.7072    9.2778 H   0  0  0  0  0  0  0  0  0  0  0  0
    8.9589   -1.3857    2.5891 H   0  0  0  0  0  0  0  0  0  0  0  0
   11.0620   -0.3093    1.7365 H   0  0  0  0  0  0  0  0  0  0  0  0
   11.1001    2.1603    1.3286 H   0  0  0  0  0  0  0  0  0  0  0  0
    9.0302    3.5171    1.7810 H   0  0  0  0  0  0  0  0  0  0  0  0
  1  2  2  0
  2  3  1  0
  2 13  1  0
  3  4  1  0
  3 20  1  0
  4  5  1  0
  4 21  1  0
  4 22  1  0
  5  6  1  1
  5  7  1  0
  5  8  1  0
  7 23  1  0
  8  9  2  0
  8 12  1  0
  9 10  1  0
  9 24  1  0
 10 11  2  0
 10 25  1  0
 11 12  1  0
 11 26  1  0
 13 14  2  0
 13 18  1  0
 14 15  1  0
 14 27  1  0
 15 16  2  0
 15 28  1  0
 16 17  1  0
 16 29  1  0
 17 18  2  0
 17 30  1  0
 18 19  1  0
M  END

