
     RDKit          3D

 41 41  0  0  0  0  0  0  0  0999 V2000
    7.8108    3.1346    2.2876 C   0  0  0  0  0  0  0  0  0  0  0  0
    7.1318    2.2304    1.4577 O   0  0  0  0  0  0  0  0  0  0  0  0
    7.4362    2.3661    0.0957 C   0  0  0  0  0  0  0  0  0  0  0  0
    6.6325    1.3274   -0.6680 C   0  0  0  0  0  0  0  0  0  0  0  0
    6.9300    1.4559   -2.0386 O   0  0  0  0  0  0  0  0  0  0  0  0
    6.2525    0.5440   -2.8754 C   0  0  0  0  0  0  0  0  0  0  0  0
    6.7156    0.7843   -4.3029 C   0  0  0  0  0  0  0  0  0  0  0  0
    8.1525    0.6319   -4.4250 N   0  0  0  0  0  0  0  0  0  0  0  0
    8.7494   -0.1975   -5.3243 C   0  0  0  0  0  0  0  0  0  0  0  0
    8.1291   -0.8805   -6.1260 O   0  0  0  0  0  0  0  0  0  0  0  0
   10.2953   -0.1947   -5.3185 C   0  0  1  0  0  0  0  0  0  0  0  0
   10.8318   -1.4440   -5.8338 N   0  0  0  0  0  0  0  0  0  0  0  0
   10.7951    1.0092   -6.1630 C   0  0  0  0  0  0  0  0  0  0  0  0
   12.2641    1.3302   -5.9966 C   0  0  0  0  0  0  0  0  0  0  0  0
   13.2705    0.4524   -6.4366 C   0  0  0  0  0  0  0  0  0  0  0  0
   14.6165    0.7698   -6.2652 C   0  0  0  0  0  0  0  0  0  0  0  0
   14.9960    1.9702   -5.6528 C   0  0  0  0  0  0  0  0  0  0  0  0
   16.6878    2.3375   -5.4604 Cl  0  0  0  0  0  0  0  0  0  0  0  0
   14.0024    2.8549   -5.2087 C   0  0  0  0  0  0  0  0  0  0  0  0
   14.4151    4.3649   -4.4409 Cl  0  0  0  0  0  0  0  0  0  0  0  0
   12.6529    2.5285   -5.3836 C   0  0  0  0  0  0  0  0  0  0  0  0
    7.5008    2.9381    3.3243 H   0  0  0  0  0  0  0  0  0  0  0  0
    7.5683    4.1883    2.0403 H   0  0  0  0  0  0  0  0  0  0  0  0
    8.9114    3.0148    2.2197 H   0  0  0  0  0  0  0  0  0  0  0  0
    8.5190    2.2111   -0.0965 H   0  0  0  0  0  0  0  0  0  0  0  0
    7.1829    3.3793   -0.2809 H   0  0  0  0  0  0  0  0  0  0  0  0
    5.5521    1.4848   -0.4768 H   0  0  0  0  0  0  0  0  0  0  0  0
    6.8863    0.3150   -0.2941 H   0  0  0  0  0  0  0  0  0  0  0  0
    5.1545    0.6858   -2.8070 H   0  0  0  0  0  0  0  0  0  0  0  0
    6.4744   -0.4994   -2.5712 H   0  0  0  0  0  0  0  0  0  0  0  0
    6.4087    1.7991   -4.6142 H   0  0  0  0  0  0  0  0  0  0  0  0
    6.2481    0.0630   -4.9876 H   0  0  0  0  0  0  0  0  0  0  0  0
    8.7177    1.1259   -3.7432 H   0  0  0  0  0  0  0  0  0  0  0  0
   10.6493   -0.0536   -4.2825 H   0  0  0  0  0  0  0  0  0  0  0  0
   10.2273   -1.7356   -6.6076 H   0  0  0  0  0  0  0  0  0  0  0  0
   10.7402   -2.1784   -5.1317 H   0  0  0  0  0  0  0  0  0  0  0  0
   10.2015    1.8983   -5.8990 H   0  0  0  0  0  0  0  0  0  0  0  0
   10.5672    0.7831   -7.2189 H   0  0  0  0  0  0  0  0  0  0  0  0
   12.9859   -0.4959   -6.8926 H   0  0  0  0  0  0  0  0  0  0  0  0
   15.3966    0.0873   -6.6072 H   0  0  0  0  0  0  0  0  0  0  0  0
   11.9020    3.2402   -5.0336 H   0  0  0  0  0  0  0  0  0  0  0  0
  1  2  1  0
  1 22  1  0
  1 23  1  0
  1 24  1  0
  2  3  1  0
  3  4  1  0
  3 25  1  0
  3 26  1  0
  4  5  1  0
  4 27  1  0
  4 28  1  0
  5  6  1  0
  6  7  1  0
  6 29  1  0
  6 30  1  0
  7  8  1  0
  7 31  1  0
  7 32  1  0
  8  9  1  0
  8 33  1  0
  9 10  2  0
  9 11  1  0
 11 12  1  0
 11 13  1  0
 11 34  1  1
 12 35  1  0
 12 36  1  0
 13 14  1  0
 13 37  1  0
 13 38  1  0
 14 15  2  0
 14 21  1  0
 15 16  1  0
 15 39  1  0
 16 17  2  0
 16 40  1  0
 17 18  1  0
 17 19  1  0
 19 20  1  0
 19 21  2  0
 21 41  1  0
M  END

