
     RDKit          3D

 28 30  0  0  0  0  0  0  0  0999 V2000
   -1.2896    0.1024    0.4802 C   0  0  0  0  0  0  0  0  0  0  0  0
   -0.4864    1.2491    0.5478 C   0  0  0  0  0  0  0  0  0  0  0  0
    0.8956    1.1548    0.4091 C   0  0  0  0  0  0  0  0  0  0  0  0
    1.4974   -0.0981    0.1999 C   0  0  0  0  0  0  0  0  0  0  0  0
    2.8552   -0.0916    0.0806 O   0  0  0  0  0  0  0  0  0  0  0  0
    3.5305   -1.3077   -0.1727 C   0  0  0  0  0  0  0  0  0  0  0  0
    4.9891   -1.0053   -0.3325 C   0  0  0  0  0  0  0  0  0  0  0  0
    5.8317   -1.2562    0.6734 N   0  0  0  0  0  0  0  0  0  0  0  0
    7.0592   -1.0286    0.6608 N   0  0  0  0  0  0  0  0  0  0  0  0
    7.6839   -0.4723   -0.4086 C   0  0  0  0  0  0  0  0  0  0  0  0
    9.0466   -0.1767   -0.5129 C   0  0  0  0  0  0  0  0  0  0  0  0
    9.5007    0.3970   -1.7102 C   0  0  0  0  0  0  0  0  0  0  0  0
    8.7165    0.6755   -2.7505 N   0  0  0  0  0  0  0  0  0  0  0  0
    7.4101    0.3983   -2.6670 C   0  0  0  0  0  0  0  0  0  0  0  0
    6.8010   -0.1789   -1.5304 C   0  0  0  0  0  0  0  0  0  0  0  0
    5.4815   -0.4624   -1.4497 N   0  0  0  0  0  0  0  0  0  0  0  0
    0.7016   -1.2510    0.1319 C   0  0  0  0  0  0  0  0  0  0  0  0
   -0.6881   -1.1384    0.2727 C   0  0  0  0  0  0  0  0  0  0  0  0
   -2.3738    0.1798    0.5886 H   0  0  0  0  0  0  0  0  0  0  0  0
   -0.9433    2.2289    0.7097 H   0  0  0  0  0  0  0  0  0  0  0  0
    1.5376    2.0366    0.4573 H   0  0  0  0  0  0  0  0  0  0  0  0
    3.1618   -1.7718   -1.1049 H   0  0  0  0  0  0  0  0  0  0  0  0
    3.3976   -2.0203    0.6599 H   0  0  0  0  0  0  0  0  0  0  0  0
    9.7239   -0.3895    0.3144 H   0  0  0  0  0  0  0  0  0  0  0  0
   10.5643    0.6390   -1.8186 H   0  0  0  0  0  0  0  0  0  0  0  0
    6.7743    0.6308   -3.5267 H   0  0  0  0  0  0  0  0  0  0  0  0
    1.1436   -2.2349   -0.0272 H   0  0  0  0  0  0  0  0  0  0  0  0
   -1.3011   -2.0419    0.2180 H   0  0  0  0  0  0  0  0  0  0  0  0
  1  2  2  0
  1 18  1  0
  1 19  1  0
  2  3  1  0
  2 20  1  0
  3  4  2  0
  3 21  1  0
  4  5  1  0
  4 17  1  0
  5  6  1  0
  6  7  1  0
  6 22  1  0
  6 23  1  0
  7  8  2  0
  7 16  1  0
  8  9  1  0
  9 10  2  0
 10 11  1  0
 10 15  1  0
 11 12  2  0
 11 24  1  0
 12 13  1  0
 12 25  1  0
 13 14  2  0
 14 15  1  0
 14 26  1  0
 15 16  2  0
 17 18  2  0
 17 27  1  0
 18 28  1  0
M  END

