
     RDKit          3D

 37 39  0  0  0  0  0  0  0  0999 V2000
    0.9487   -0.1740    0.5598 C   0  0  0  0  0  0  0  0  0  0  0  0
    2.4242   -0.0847    0.3124 C   0  0  0  0  0  0  0  0  0  0  0  0
    3.2021    1.0960    0.4099 C   0  0  0  0  0  0  0  0  0  0  0  0
    4.4826    1.1249    0.1851 N   0  0  0  0  0  0  0  0  0  0  0  0
    5.2861    0.0707   -0.1731 C   0  0  0  0  0  0  0  0  0  0  0  0
    6.6763    0.1442   -0.4098 C   0  0  0  0  0  0  0  0  0  0  0  0
    7.3855    1.3787   -0.2929 C   0  0  0  0  0  0  0  0  0  0  0  0
    8.7459    1.4401   -0.5215 C   0  0  0  0  0  0  0  0  0  0  0  0
    9.5049    0.2960   -0.8887 C   0  0  0  0  0  0  0  0  0  0  0  0
   10.9540    0.3727   -1.1317 C   0  0  0  0  0  0  0  0  0  0  0  0
   11.7521    1.3836   -0.5441 C   0  0  0  0  0  0  0  0  0  0  0  0
   13.1242    1.4593   -0.7703 C   0  0  0  0  0  0  0  0  0  0  0  0
   13.7372    0.5160   -1.5955 C   0  0  0  0  0  0  0  0  0  0  0  0
   15.1084    0.6290   -1.8661 O   0  0  0  0  0  0  0  0  0  0  0  0
   15.9690   -0.0996   -1.1286 C   0  0  1  0  0  0  0  0  0  0  0  0
   15.8776    0.1705    0.1834 F   0  0  0  0  0  0  0  0  0  0  0  0
   15.7757   -1.4224   -1.2679 F   0  0  0  0  0  0  0  0  0  0  0  0
   17.2017    0.1865   -1.5329 F   0  0  0  0  0  0  0  0  0  0  0  0
   12.9871   -0.4940   -2.1995 C   0  0  0  0  0  0  0  0  0  0  0  0
   11.6155   -0.5597   -1.9668 C   0  0  0  0  0  0  0  0  0  0  0  0
    8.7904   -0.9273   -1.0074 C   0  0  0  0  0  0  0  0  0  0  0  0
    7.4321   -1.0114   -0.7756 C   0  0  0  0  0  0  0  0  0  0  0  0
    4.5259   -1.0666   -0.2653 N   0  0  0  0  0  0  0  0  0  0  0  0
    3.2505   -1.1830   -0.0579 C   0  0  0  0  0  0  0  0  0  0  0  0
    0.5411    0.8114    0.8316 H   0  0  0  0  0  0  0  0  0  0  0  0
    0.7028   -0.8656    1.3849 H   0  0  0  0  0  0  0  0  0  0  0  0
    0.3944   -0.5199   -0.3306 H   0  0  0  0  0  0  0  0  0  0  0  0
    2.7346    2.0517    0.6866 H   0  0  0  0  0  0  0  0  0  0  0  0
    6.8382    2.2861   -0.0298 H   0  0  0  0  0  0  0  0  0  0  0  0
    9.2410    2.4106   -0.4464 H   0  0  0  0  0  0  0  0  0  0  0  0
   11.2944    2.1107    0.1289 H   0  0  0  0  0  0  0  0  0  0  0  0
   13.7296    2.2389   -0.3044 H   0  0  0  0  0  0  0  0  0  0  0  0
   13.4799   -1.2112   -2.8581 H   0  0  0  0  0  0  0  0  0  0  0  0
   11.0390   -1.3367   -2.4718 H   0  0  0  0  0  0  0  0  0  0  0  0
    9.3311   -1.8424   -1.2579 H   0  0  0  0  0  0  0  0  0  0  0  0
    6.9266   -1.9756   -0.8608 H   0  0  0  0  0  0  0  0  0  0  0  0
    2.8252   -2.1891   -0.1834 H   0  0  0  0  0  0  0  0  0  0  0  0
  1  2  1  0
  1 25  1  0
  1 26  1  0
  1 27  1  0
  2  3  2  0
  2 24  1  0
  3  4  1  0
  3 28  1  0
  4  5  2  0
  5  6  1  0
  5 23  1  0
  6  7  2  0
  6 22  1  0
  7  8  1  0
  7 29  1  0
  8  9  2  0
  8 30  1  0
  9 10  1  0
  9 21  1  0
 10 11  2  0
 10 20  1  0
 11 12  1  0
 11 31  1  0
 12 13  2  0
 12 32  1  0
 13 14  1  0
 13 19  1  0
 14 15  1  0
 15 16  1  1
 15 17  1  0
 15 18  1  0
 19 20  2  0
 19 33  1  0
 20 34  1  0
 21 22  2  0
 21 35  1  0
 22 36  1  0
 23 24  2  0
 24 37  1  0
M  END

