
     RDKit          3D

 40 42  0  0  0  0  0  0  0  0999 V2000
    3.0831    1.3572   -0.1392 O   0  0  0  0  0  0  0  0  0  0  0  0
    2.4240    0.4065   -0.5251 C   0  0  0  0  0  0  0  0  0  0  0  0
    0.8602    0.4914   -0.4456 C   0  0  0  0  0  0  0  0  0  0  0  0
    0.2578   -0.5932    0.2598 N   0  0  0  0  0  0  0  0  0  0  0  0
   -0.0548   -1.8191   -0.3636 C   0  0  0  0  0  0  0  0  0  0  0  0
    0.2430   -2.1228   -1.4974 O   0  0  0  0  0  0  0  0  0  0  0  0
   -0.6889   -2.5854    0.5337 O   0  0  0  0  0  0  0  0  0  0  0  0
   -0.7302   -1.8995    1.7551 C   0  0  0  0  0  0  0  0  0  0  0  0
   -1.4768   -2.2776    2.9121 C   0  0  0  0  0  0  0  0  0  0  0  0
   -1.5938   -1.2289    3.8617 C   0  0  0  0  0  0  0  0  0  0  0  0
   -0.9902    0.0387    3.7205 C   0  0  0  0  0  0  0  0  0  0  0  0
   -0.2032    0.3892    2.5759 C   0  0  0  0  0  0  0  0  0  0  0  0
   -0.1516   -0.6381    1.5938 C   0  0  0  0  0  0  0  0  0  0  0  0
    2.9164   -0.7248   -1.0557 N   0  0  0  0  0  0  0  0  0  0  0  0
    4.3391   -0.9624   -1.2344 C   0  0  0  0  0  0  0  0  0  0  0  0
    4.7194   -2.3972   -0.8136 C   0  0  1  0  0  0  0  0  0  0  0  0
    3.8158   -3.2932   -1.4888 O   0  0  0  0  0  0  0  0  0  0  0  0
    6.1534   -2.6752   -1.2156 C   0  0  0  0  0  0  0  0  0  0  0  0
    7.0143   -3.3692   -0.4578 C   0  0  0  0  0  0  0  0  0  0  0  0
    6.6625   -3.9500    0.8847 C   0  0  0  0  0  0  0  0  0  0  0  0
    5.1503   -3.9509    1.1342 C   0  0  0  0  0  0  0  0  0  0  0  0
    4.5192   -2.6285    0.6932 C   0  0  0  0  0  0  0  0  0  0  0  0
    0.4840    0.5014   -1.4807 H   0  0  0  0  0  0  0  0  0  0  0  0
    0.6162    1.4353    0.0530 H   0  0  0  0  0  0  0  0  0  0  0  0
   -1.8556   -3.2841    3.0738 H   0  0  0  0  0  0  0  0  0  0  0  0
   -2.1939   -1.4095    4.7594 H   0  0  0  0  0  0  0  0  0  0  0  0
   -1.1495    0.7813    4.5061 H   0  0  0  0  0  0  0  0  0  0  0  0
    0.4139    1.2865    2.5324 H   0  0  0  0  0  0  0  0  0  0  0  0
    2.2797   -1.4450   -1.4034 H   0  0  0  0  0  0  0  0  0  0  0  0
    4.8901   -0.2082   -0.6556 H   0  0  0  0  0  0  0  0  0  0  0  0
    4.6068   -0.8249   -2.2985 H   0  0  0  0  0  0  0  0  0  0  0  0
    4.2147   -3.5656   -2.3259 H   0  0  0  0  0  0  0  0  0  0  0  0
    6.4771   -2.2833   -2.1881 H   0  0  0  0  0  0  0  0  0  0  0  0
    8.0382   -3.5198   -0.8188 H   0  0  0  0  0  0  0  0  0  0  0  0
    7.1861   -3.3661    1.6676 H   0  0  0  0  0  0  0  0  0  0  0  0
    7.0753   -4.9708    0.9644 H   0  0  0  0  0  0  0  0  0  0  0  0
    4.9360   -4.1450    2.1968 H   0  0  0  0  0  0  0  0  0  0  0  0
    4.6815   -4.7640    0.5561 H   0  0  0  0  0  0  0  0  0  0  0  0
    4.9689   -1.7871    1.2481 H   0  0  0  0  0  0  0  0  0  0  0  0
    3.4406   -2.6226    0.9108 H   0  0  0  0  0  0  0  0  0  0  0  0
  1  2  2  0
  2  3  1  0
  2 14  1  0
  3  4  1  0
  3 23  1  0
  3 24  1  0
  4  5  1  0
  4 13  1  0
  5  6  2  0
  5  7  1  0
  7  8  1  0
  8  9  1  0
  8 13  2  0
  9 10  2  0
  9 25  1  0
 10 11  1  0
 10 26  1  0
 11 12  2  0
 11 27  1  0
 12 13  1  0
 12 28  1  0
 14 15  1  0
 14 29  1  0
 15 16  1  0
 15 30  1  0
 15 31  1  0
 16 17  1  6
 16 18  1  0
 16 22  1  0
 17 32  1  0
 18 19  2  0
 18 33  1  0
 19 20  1  0
 19 34  1  0
 20 21  1  0
 20 35  1  0
 20 36  1  0
 21 22  1  0
 21 37  1  0
 21 38  1  0
 22 39  1  0
 22 40  1  0
M  END

