
     RDKit          3D

 47 50  0  0  0  0  0  0  0  0999 V2000
    4.0917   -3.3541   -0.3225 O   0  0  0  0  0  0  0  0  0  0  0  0
    3.6474   -2.3434    0.1689 C   0  0  0  0  0  0  0  0  0  0  0  0
    2.9214   -1.3629   -0.6164 N   0  0  0  0  0  0  0  0  0  0  0  0
    2.6616   -1.3521   -1.9374 C   0  0  0  0  0  0  0  0  0  0  0  0
    2.9665   -2.4497   -2.7908 C   0  0  0  0  0  0  0  0  0  0  0  0
    2.6429   -2.3789   -4.1302 C   0  0  0  0  0  0  0  0  0  0  0  0
    2.9965   -3.7116   -5.1743 Cl  0  0  0  0  0  0  0  0  0  0  0  0
    2.0030   -1.2395   -4.6973 C   0  0  0  0  0  0  0  0  0  0  0  0
    1.7034   -0.1620   -3.8773 C   0  0  0  0  0  0  0  0  0  0  0  0
    2.0579   -0.1643   -2.5243 C   0  0  0  0  0  0  0  0  0  0  0  0
    1.6377    1.0174   -1.6861 C   0  0  0  0  0  0  0  0  0  0  0  0
    0.4212    1.1665   -1.5919 O   0  0  0  0  0  0  0  0  0  0  0  0
    2.5630    1.8082   -1.1040 N   0  0  0  0  0  0  0  0  0  0  0  0
    4.0113    1.6855   -1.2925 C   0  0  0  0  0  0  0  0  0  0  0  0
    4.6118    3.0029   -1.7982 C   0  0  0  0  0  0  0  0  0  0  0  0
    4.2163    4.1818   -0.9012 C   0  0  0  0  0  0  0  0  0  0  0  0
    2.6930    4.2512   -0.7403 C   0  0  0  0  0  0  0  0  0  0  0  0
    2.1317    2.9173   -0.2406 C   0  0  0  0  0  0  0  0  0  0  0  0
    3.7481   -1.8951    1.5679 C   0  0  0  0  0  0  0  0  0  0  0  0
    4.4047   -2.6455    2.5417 C   0  0  0  0  0  0  0  0  0  0  0  0
    4.5090   -2.2526    3.8090 N   0  0  0  0  0  0  0  0  0  0  0  0
    3.9030   -1.0555    4.1165 C   0  0  0  0  0  0  0  0  0  0  0  0
    3.9570   -0.5710    5.4388 C   0  0  0  0  0  0  0  0  0  0  0  0
    3.3424    0.6303    5.7986 C   0  0  0  0  0  0  0  0  0  0  0  0
    2.6494    1.3809    4.8366 C   0  0  0  0  0  0  0  0  0  0  0  0
    2.5796    0.9362    3.5178 C   0  0  0  0  0  0  0  0  0  0  0  0
    3.2031   -0.2719    3.1186 C   0  0  0  0  0  0  0  0  0  0  0  0
    3.1450   -0.6912    1.8248 N   0  0  0  0  0  0  0  0  0  0  0  0
    2.6489   -0.5940    0.0280 H   0  0  0  0  0  0  0  0  0  0  0  0
    3.4325   -3.3333   -2.3630 H   0  0  0  0  0  0  0  0  0  0  0  0
    1.7608   -1.2299   -5.7602 H   0  0  0  0  0  0  0  0  0  0  0  0
    1.2013    0.7151   -4.2888 H   0  0  0  0  0  0  0  0  0  0  0  0
    4.2188    0.8756   -2.0046 H   0  0  0  0  0  0  0  0  0  0  0  0
    4.4644    1.4007   -0.3268 H   0  0  0  0  0  0  0  0  0  0  0  0
    4.2584    3.1846   -2.8288 H   0  0  0  0  0  0  0  0  0  0  0  0
    5.7076    2.8962   -1.8486 H   0  0  0  0  0  0  0  0  0  0  0  0
    4.6062    5.1251   -1.3163 H   0  0  0  0  0  0  0  0  0  0  0  0
    4.6845    4.0585    0.0920 H   0  0  0  0  0  0  0  0  0  0  0  0
    2.2238    4.5031   -1.7076 H   0  0  0  0  0  0  0  0  0  0  0  0
    2.4093    5.0454   -0.0312 H   0  0  0  0  0  0  0  0  0  0  0  0
    1.0351    2.9147   -0.2183 H   0  0  0  0  0  0  0  0  0  0  0  0
    2.4952    2.7104    0.7802 H   0  0  0  0  0  0  0  0  0  0  0  0
    4.8626   -3.6016    2.2650 H   0  0  0  0  0  0  0  0  0  0  0  0
    4.4949   -1.1784    6.1695 H   0  0  0  0  0  0  0  0  0  0  0  0
    3.3966    0.9821    6.8319 H   0  0  0  0  0  0  0  0  0  0  0  0
    2.1584    2.3150    5.1219 H   0  0  0  0  0  0  0  0  0  0  0  0
    2.0287    1.5008    2.7626 H   0  0  0  0  0  0  0  0  0  0  0  0
  1  2  2  0
  2  3  1  0
  2 19  1  0
  3  4  1  0
  3 29  1  0
  4  5  2  0
  4 10  1  0
  5  6  1  0
  5 30  1  0
  6  7  1  0
  6  8  2  0
  8  9  1  0
  8 31  1  0
  9 10  2  0
  9 32  1  0
 10 11  1  0
 11 12  2  0
 11 13  1  0
 13 14  1  0
 13 18  1  0
 14 15  1  0
 14 33  1  0
 14 34  1  0
 15 16  1  0
 15 35  1  0
 15 36  1  0
 16 17  1  0
 16 37  1  0
 16 38  1  0
 17 18  1  0
 17 39  1  0
 17 40  1  0
 18 41  1  0
 18 42  1  0
 19 20  2  0
 19 28  1  0
 20 21  1  0
 20 43  1  0
 21 22  2  0
 22 23  1  0
 22 27  1  0
 23 24  2  0
 23 44  1  0
 24 25  1  0
 24 45  1  0
 25 26  2  0
 25 46  1  0
 26 27  1  0
 26 47  1  0
 27 28  2  0
M  END

