
     RDKit          3D

 50 53  0  0  0  0  0  0  0  0999 V2000
    1.3889    0.5339   -1.6687 N   0  0  0  0  0  0  0  0  0  0  0  0
    2.4767    0.5265   -1.2616 C   0  0  0  0  0  0  0  0  0  0  0  0
    3.8200    0.4319   -0.7784 C   0  0  0  0  0  0  0  0  0  0  0  0
    4.4048   -0.8067   -0.6396 C   0  0  0  0  0  0  0  0  0  0  0  0
    5.7538   -0.9613   -0.2097 C   0  0  0  0  0  0  0  0  0  0  0  0
    6.2572   -2.3762   -0.0777 C   0  0  0  0  0  0  0  0  0  0  0  0
    5.4723   -3.3100   -0.0381 O   0  0  0  0  0  0  0  0  0  0  0  0
    7.6152   -2.5340   -0.0130 N   0  0  0  0  0  0  0  0  0  0  0  0
    8.2423   -3.8199    0.1344 C   0  0  1  0  0  0  0  0  0  0  0  0
    9.3078   -4.2616   -0.8975 C   0  0  0  0  0  0  0  0  0  0  0  0
   10.2452   -4.5528    0.1470 O   0  0  0  0  0  0  0  0  0  0  0  0
    9.4017   -3.9674    1.1469 C   0  0  0  0  0  0  0  0  0  0  0  0
    6.4819    0.1710    0.0920 C   0  0  0  0  0  0  0  0  0  0  0  0
    5.8975    1.4492   -0.0374 C   0  0  0  0  0  0  0  0  0  0  0  0
    6.4402    2.6331    0.1885 N   0  0  0  0  0  0  0  0  0  0  0  0
    5.4718    3.5303   -0.0907 C   0  0  0  0  0  0  0  0  0  0  0  0
    5.7647    4.9960    0.1055 C   0  0  1  0  0  0  0  0  0  0  0  0
    7.0414    5.2758   -0.1497 F   0  0  0  0  0  0  0  0  0  0  0  0
    5.0065    5.7732   -0.6996 F   0  0  0  0  0  0  0  0  0  0  0  0
    5.5082    5.3848    1.3708 F   0  0  0  0  0  0  0  0  0  0  0  0
    4.2695    2.9335   -0.4908 C   0  0  0  0  0  0  0  0  0  0  0  0
    2.9381    3.5262   -0.8399 C   0  0  0  0  0  0  0  0  0  0  0  0
    1.8694    3.4627    0.2906 C   0  0  1  0  0  0  0  0  0  0  0  0
    2.1883    4.3772    1.4925 C   0  0  0  0  0  0  0  0  0  0  0  0
    1.9885    5.8699    1.1890 C   0  0  0  0  0  0  0  0  0  0  0  0
    0.6092    6.1376    0.6115 C   0  0  2  0  0  0  0  0  0  0  0  0
    0.4983    7.4581    0.2696 F   0  0  0  0  0  0  0  0  0  0  0  0
   -0.3322    5.9176    1.5944 F   0  0  0  0  0  0  0  0  0  0  0  0
    0.2708    5.2661   -0.5870 C   0  0  0  0  0  0  0  0  0  0  0  0
    0.4617    3.7798   -0.2557 C   0  0  0  0  0  0  0  0  0  0  0  0
    4.5548    1.5779   -0.4646 N   0  0  0  0  0  0  0  0  0  0  0  0
    3.8260   -1.7024   -0.8650 H   0  0  0  0  0  0  0  0  0  0  0  0
    8.2121   -1.7307   -0.1700 H   0  0  0  0  0  0  0  0  0  0  0  0
    7.4378   -4.5529    0.2711 H   0  0  0  0  0  0  0  0  0  0  0  0
    9.6507   -3.4446   -1.5631 H   0  0  0  0  0  0  0  0  0  0  0  0
    9.0681   -5.1444   -1.5146 H   0  0  0  0  0  0  0  0  0  0  0  0
    9.7918   -2.9998    1.5209 H   0  0  0  0  0  0  0  0  0  0  0  0
    9.2311   -4.6367    2.0075 H   0  0  0  0  0  0  0  0  0  0  0  0
    7.5101    0.1515    0.4562 H   0  0  0  0  0  0  0  0  0  0  0  0
    2.5368    3.0221   -1.7314 H   0  0  0  0  0  0  0  0  0  0  0  0
    3.1162    4.5660   -1.1394 H   0  0  0  0  0  0  0  0  0  0  0  0
    1.8448    2.4252    0.6620 H   0  0  0  0  0  0  0  0  0  0  0  0
    3.2145    4.2102    1.8548 H   0  0  0  0  0  0  0  0  0  0  0  0
    1.5170    4.0984    2.3210 H   0  0  0  0  0  0  0  0  0  0  0  0
    2.7329    6.2397    0.4678 H   0  0  0  0  0  0  0  0  0  0  0  0
    2.1002    6.4753    2.1018 H   0  0  0  0  0  0  0  0  0  0  0  0
    0.9148    5.5820   -1.4237 H   0  0  0  0  0  0  0  0  0  0  0  0
   -0.7688    5.4783   -0.8814 H   0  0  0  0  0  0  0  0  0  0  0  0
    0.2459    3.1578   -1.1386 H   0  0  0  0  0  0  0  0  0  0  0  0
   -0.2788    3.4988    0.5107 H   0  0  0  0  0  0  0  0  0  0  0  0
  1  2  3  0
  2  3  1  0
  3  4  2  0
  3 31  1  0
  4  5  1  0
  4 32  1  0
  5  6  1  0
  5 13  2  0
  6  7  2  0
  6  8  1  0
  8  9  1  0
  8 33  1  0
  9 10  1  0
  9 12  1  0
  9 34  1  1
 10 11  1  0
 10 35  1  0
 10 36  1  0
 11 12  1  0
 12 37  1  0
 12 38  1  0
 13 14  1  0
 13 39  1  0
 14 15  2  0
 14 31  1  0
 15 16  1  0
 16 17  1  0
 16 21  2  0
 17 18  1  6
 17 19  1  0
 17 20  1  0
 21 22  1  0
 21 31  1  0
 22 23  1  0
 22 40  1  0
 22 41  1  0
 23 24  1  0
 23 30  1  0
 23 42  1  1
 24 25  1  0
 24 43  1  0
 24 44  1  0
 25 26  1  0
 25 45  1  0
 25 46  1  0
 26 27  1  6
 26 28  1  0
 26 29  1  0
 29 30  1  0
 29 47  1  0
 29 48  1  0
 30 49  1  0
 30 50  1  0
M  END

