
     RDKit          3D

 44 44  0  0  0  0  0  0  0  0999 V2000
    5.3854   -1.5899   -3.8301 C   0  0  0  0  0  0  0  0  0  0  0  0
    5.2054   -1.1513   -2.3761 C   0  0  0  0  0  0  0  0  0  0  0  0
    6.0040   -1.9949   -1.3775 C   0  0  0  0  0  0  0  0  0  0  0  0
    5.8302   -1.5594    0.0803 C   0  0  0  0  0  0  0  0  0  0  0  0
    6.6255   -2.4052    1.0781 C   0  0  0  0  0  0  0  0  0  0  0  0
    6.4437   -1.9451    2.5305 C   0  0  0  0  0  0  0  0  0  0  0  0
    7.1684   -2.7475    3.4912 N   0  0  0  0  0  0  0  0  0  0  0  0
    8.3213   -2.3305    4.0826 C   0  0  0  0  0  0  0  0  0  0  0  0
    8.8293   -1.2380    3.8904 O   0  0  0  0  0  0  0  0  0  0  0  0
    8.9111   -3.3737    5.0266 C   0  0  0  0  0  0  0  0  0  0  0  0
    8.2156   -4.5231    5.1248 N   0  0  0  0  0  0  0  0  0  0  0  0
    8.6189   -5.5150    5.9195 C   0  0  0  0  0  0  0  0  0  0  0  0
    7.8464   -6.6433    5.9957 N   0  0  0  0  0  0  0  0  0  0  0  0
    6.6777   -6.8766    5.1696 C   0  0  0  0  0  0  0  0  0  0  0  0
    5.9519   -8.1523    5.5945 C   0  0  0  0  0  0  0  0  0  0  0  0
    4.7100   -8.4375    4.7509 C   0  0  0  0  0  0  0  0  0  0  0  0
    9.8111   -5.3975    6.6820 C   0  0  0  0  0  0  0  0  0  0  0  0
   10.5366   -4.2286    6.5847 C   0  0  0  0  0  0  0  0  0  0  0  0
   10.0971   -3.1815    5.7497 C   0  0  0  0  0  0  0  0  0  0  0  0
   11.0841   -1.7477    5.6999 Cl  0  0  0  0  0  0  0  0  0  0  0  0
    4.7969   -0.9629   -4.5189 H   0  0  0  0  0  0  0  0  0  0  0  0
    5.0654   -2.6354   -3.9764 H   0  0  0  0  0  0  0  0  0  0  0  0
    6.4418   -1.5238   -4.1407 H   0  0  0  0  0  0  0  0  0  0  0  0
    4.1335   -1.1911   -2.1084 H   0  0  0  0  0  0  0  0  0  0  0  0
    5.4998   -0.0912   -2.2712 H   0  0  0  0  0  0  0  0  0  0  0  0
    7.0768   -1.9566   -1.6437 H   0  0  0  0  0  0  0  0  0  0  0  0
    5.7091   -3.0564   -1.4797 H   0  0  0  0  0  0  0  0  0  0  0  0
    4.7563   -1.5933    0.3446 H   0  0  0  0  0  0  0  0  0  0  0  0
    6.1294   -0.4999    0.1825 H   0  0  0  0  0  0  0  0  0  0  0  0
    7.7004   -2.3694    0.8293 H   0  0  0  0  0  0  0  0  0  0  0  0
    6.3231   -3.4654    0.9896 H   0  0  0  0  0  0  0  0  0  0  0  0
    5.3692   -1.9494    2.7902 H   0  0  0  0  0  0  0  0  0  0  0  0
    6.8054   -0.9119    2.6425 H   0  0  0  0  0  0  0  0  0  0  0  0
    6.8732   -3.6916    3.7210 H   0  0  0  0  0  0  0  0  0  0  0  0
    8.2475   -7.4407    6.4723 H   0  0  0  0  0  0  0  0  0  0  0  0
    6.9541   -6.9377    4.0976 H   0  0  0  0  0  0  0  0  0  0  0  0
    6.0008   -6.0101    5.2589 H   0  0  0  0  0  0  0  0  0  0  0  0
    5.6742   -8.0667    6.6599 H   0  0  0  0  0  0  0  0  0  0  0  0
    6.6505   -9.0068    5.5231 H   0  0  0  0  0  0  0  0  0  0  0  0
    3.9770   -7.6176    4.8273 H   0  0  0  0  0  0  0  0  0  0  0  0
    4.2100   -9.3621    5.0780 H   0  0  0  0  0  0  0  0  0  0  0  0
    4.9661   -8.5560    3.6852 H   0  0  0  0  0  0  0  0  0  0  0  0
   10.1426   -6.2108    7.3323 H   0  0  0  0  0  0  0  0  0  0  0  0
   11.4592   -4.0956    7.1529 H   0  0  0  0  0  0  0  0  0  0  0  0
  1  2  1  0
  1 21  1  0
  1 22  1  0
  1 23  1  0
  2  3  1  0
  2 24  1  0
  2 25  1  0
  3  4  1  0
  3 26  1  0
  3 27  1  0
  4  5  1  0
  4 28  1  0
  4 29  1  0
  5  6  1  0
  5 30  1  0
  5 31  1  0
  6  7  1  0
  6 32  1  0
  6 33  1  0
  7  8  1  0
  7 34  1  0
  8  9  2  0
  8 10  1  0
 10 11  2  0
 10 19  1  0
 11 12  1  0
 12 13  1  0
 12 17  2  0
 13 14  1  0
 13 35  1  0
 14 15  1  0
 14 36  1  0
 14 37  1  0
 15 16  1  0
 15 38  1  0
 15 39  1  0
 16 40  1  0
 16 41  1  0
 16 42  1  0
 17 18  1  0
 17 43  1  0
 18 19  2  0
 18 44  1  0
 19 20  1  0
M  END

