
     RDKit          3D

 67 70  0  0  0  0  0  0  0  0999 V2000
    2.0467    0.2871   -1.1450 C   0  0  0  0  0  0  0  0  0  0  0  0
    2.8560   -0.3766   -0.2028 O   0  0  0  0  0  0  0  0  0  0  0  0
    3.5425    0.3513    0.7160 C   0  0  0  0  0  0  0  0  0  0  0  0
    3.5009    1.7425    0.8078 C   0  0  0  0  0  0  0  0  0  0  0  0
    4.2578    2.3992    1.8073 C   0  0  0  0  0  0  0  0  0  0  0  0
    4.2620    3.8578    1.9626 C   0  0  0  0  0  0  0  0  0  0  0  0
    3.6233    4.7778    1.2156 C   0  0  0  0  0  0  0  0  0  0  0  0
    3.7533    6.2288    1.5393 C   0  0  0  0  0  0  0  0  0  0  0  0
    4.4246    6.6495    2.4735 O   0  0  0  0  0  0  0  0  0  0  0  0
    3.0610    7.0642    0.7015 N   0  0  0  0  0  0  0  0  0  0  0  0
    3.0627    8.5153    0.8689 C   0  0  1  0  0  0  0  0  0  0  0  0
    2.9086    9.2174   -0.4911 C   0  0  0  0  0  0  0  0  0  0  0  0
    1.4921    9.0811   -1.0744 C   0  0  0  0  0  0  0  0  0  0  0  0
    0.3864    9.5443   -0.1003 C   0  0  2  0  0  0  0  0  0  0  0  0
    0.3237   11.0733    0.0335 C   0  0  0  0  0  0  0  0  0  0  0  0
    0.5582    8.8334    1.2603 C   0  0  0  0  0  0  0  0  0  0  0  0
    1.9673    8.9901    1.8473 C   0  0  0  0  0  0  0  0  0  0  0  0
    5.0368    1.6439    2.6894 C   0  0  0  0  0  0  0  0  0  0  0  0
    5.0760    0.2400    2.5899 C   0  0  0  0  0  0  0  0  0  0  0  0
    5.8639   -0.3962    3.4904 O   0  0  0  0  0  0  0  0  0  0  0  0
    5.9412   -1.8133    3.4768 C   0  0  0  0  0  0  0  0  0  0  0  0
    6.9083   -2.2162    4.5824 C   0  0  0  0  0  0  0  0  0  0  0  0
    7.0702   -3.7052    4.6521 C   0  0  0  0  0  0  0  0  0  0  0  0
    6.7201   -4.5403    3.6975 N   0  0  0  0  0  0  0  0  0  0  0  0
    6.9944   -5.8011    4.1648 C   0  0  0  0  0  0  0  0  0  0  0  0
    7.5146   -5.7356    5.4329 C   0  0  0  0  0  0  0  0  0  0  0  0
    7.5703   -4.3848    5.7489 N   0  0  0  0  0  0  0  0  0  0  0  0
    8.0172   -3.8495    6.9915 C   0  0  0  0  0  0  0  0  0  0  0  0
    7.4707   -4.3309    8.1902 C   0  0  0  0  0  0  0  0  0  0  0  0
    7.9178   -3.8245    9.4125 C   0  0  0  0  0  0  0  0  0  0  0  0
    8.8982   -2.8280    9.4472 C   0  0  0  0  0  0  0  0  0  0  0  0
    9.4386   -2.3463    8.2513 C   0  0  0  0  0  0  0  0  0  0  0  0
    9.0087   -2.8595    7.0252 C   0  0  0  0  0  0  0  0  0  0  0  0
    4.3293   -0.4091    1.6059 C   0  0  0  0  0  0  0  0  0  0  0  0
    1.6016   -0.4913   -1.7795 H   0  0  0  0  0  0  0  0  0  0  0  0
    2.6339    0.9741   -1.7813 H   0  0  0  0  0  0  0  0  0  0  0  0
    1.2349    0.8602   -0.6610 H   0  0  0  0  0  0  0  0  0  0  0  0
    2.8913    2.3271    0.1218 H   0  0  0  0  0  0  0  0  0  0  0  0
    4.8611    4.2551    2.7894 H   0  0  0  0  0  0  0  0  0  0  0  0
    2.9999    4.4925    0.3618 H   0  0  0  0  0  0  0  0  0  0  0  0
    2.5048    6.6559   -0.0390 H   0  0  0  0  0  0  0  0  0  0  0  0
    4.0423    8.7582    1.3064 H   0  0  0  0  0  0  0  0  0  0  0  0
    3.6565    8.8237   -1.1995 H   0  0  0  0  0  0  0  0  0  0  0  0
    3.1483   10.2844   -0.3507 H   0  0  0  0  0  0  0  0  0  0  0  0
    1.3031    8.0250   -1.3447 H   0  0  0  0  0  0  0  0  0  0  0  0
    1.4234    9.6418   -2.0222 H   0  0  0  0  0  0  0  0  0  0  0  0
   -0.5818    9.2224   -0.5238 H   0  0  0  0  0  0  0  0  0  0  0  0
    1.2501   11.5029    0.4468 H   0  0  0  0  0  0  0  0  0  0  0  0
   -0.5011   11.3753    0.6993 H   0  0  0  0  0  0  0  0  0  0  0  0
    0.1516   11.5481   -0.9464 H   0  0  0  0  0  0  0  0  0  0  0  0
    0.3483    7.7566    1.1281 H   0  0  0  0  0  0  0  0  0  0  0  0
   -0.1950    9.2028    1.9768 H   0  0  0  0  0  0  0  0  0  0  0  0
    2.0640    8.4298    2.7901 H   0  0  0  0  0  0  0  0  0  0  0  0
    2.1618   10.0480    2.0949 H   0  0  0  0  0  0  0  0  0  0  0  0
    5.6286    2.1268    3.4687 H   0  0  0  0  0  0  0  0  0  0  0  0
    6.3004   -2.1823    2.5018 H   0  0  0  0  0  0  0  0  0  0  0  0
    4.9458   -2.2599    3.6476 H   0  0  0  0  0  0  0  0  0  0  0  0
    6.5491   -1.8189    5.5459 H   0  0  0  0  0  0  0  0  0  0  0  0
    7.8752   -1.7185    4.3909 H   0  0  0  0  0  0  0  0  0  0  0  0
    6.8070   -6.6906    3.5644 H   0  0  0  0  0  0  0  0  0  0  0  0
    7.8739   -6.4953    6.1220 H   0  0  0  0  0  0  0  0  0  0  0  0
    6.6892   -5.0928    8.1562 H   0  0  0  0  0  0  0  0  0  0  0  0
    7.4879   -4.2040   10.3427 H   0  0  0  0  0  0  0  0  0  0  0  0
    9.2410   -2.4282   10.4045 H   0  0  0  0  0  0  0  0  0  0  0  0
   10.2106   -1.5732    8.2700 H   0  0  0  0  0  0  0  0  0  0  0  0
    9.4520   -2.5060    6.0929 H   0  0  0  0  0  0  0  0  0  0  0  0
    4.3247   -1.4915    1.4877 H   0  0  0  0  0  0  0  0  0  0  0  0
  1  2  1  0
  1 35  1  0
  1 36  1  0
  1 37  1  0
  2  3  1  0
  3  4  2  0
  3 34  1  0
  4  5  1  0
  4 38  1  0
  5  6  1  0
  5 18  2  0
  6  7  2  0
  6 39  1  0
  7  8  1  0
  7 40  1  0
  8  9  2  0
  8 10  1  0
 10 11  1  0
 10 41  1  0
 11 12  1  0
 11 17  1  0
 11 42  1  1
 12 13  1  0
 12 43  1  0
 12 44  1  0
 13 14  1  0
 13 45  1  0
 13 46  1  0
 14 15  1  0
 14 16  1  0
 14 47  1  6
 15 48  1  0
 15 49  1  0
 15 50  1  0
 16 17  1  0
 16 51  1  0
 16 52  1  0
 17 53  1  0
 17 54  1  0
 18 19  1  0
 18 55  1  0
 19 20  1  0
 19 34  2  0
 20 21  1  0
 21 22  1  0
 21 56  1  0
 21 57  1  0
 22 23  1  0
 22 58  1  0
 22 59  1  0
 23 24  2  0
 23 27  1  0
 24 25  1  0
 25 26  2  0
 25 60  1  0
 26 27  1  0
 26 61  1  0
 27 28  1  0
 28 29  2  0
 28 33  1  0
 29 30  1  0
 29 62  1  0
 30 31  2  0
 30 63  1  0
 31 32  1  0
 31 64  1  0
 32 33  2  0
 32 65  1  0
 33 66  1  0
 34 67  1  0
M  END

