
     RDKit          3D

 75 84  0  0  0  0  0  0  0  0999 V2000
    1.7286   -0.9406   -0.7456 O   0  0  0  0  0  0  0  0  0  0  0  0
    1.9951   -0.0842    0.4591 P   0  0  2  0  0  0  0  0  0  0  0  0
    0.5677   -0.0530    1.6027 C   0  0  0  0  0  0  0  0  0  0  0  0
   -0.5529   -0.8118    1.2354 C   0  0  0  0  0  0  0  0  0  0  0  0
   -1.6791   -0.8385    2.0640 C   0  0  0  0  0  0  0  0  0  0  0  0
   -1.6885   -0.1100    3.2565 C   0  0  0  0  0  0  0  0  0  0  0  0
   -0.5709    0.6491    3.6249 C   0  0  0  0  0  0  0  0  0  0  0  0
    0.5559    0.6791    2.8011 C   0  0  0  0  0  0  0  0  0  0  0  0
    2.5379    1.6496    0.2030 C   0  0  0  0  0  0  0  0  0  0  0  0
    1.9028    2.6422   -0.5395 C   0  0  0  0  0  0  0  0  0  0  0  0
    2.4945    3.9095   -0.6456 C   0  0  0  0  0  0  0  0  0  0  0  0
    1.8372    4.9268   -1.4137 N   0  0  0  0  0  0  0  0  0  0  0  0
    1.0367    5.8771   -0.7285 C   0  0  0  0  0  0  0  0  0  0  0  0
    1.1146    6.0358    0.6674 C   0  0  0  0  0  0  0  0  0  0  0  0
    0.3212    6.9730    1.3351 C   0  0  0  0  0  0  0  0  0  0  0  0
   -0.5527    7.7954    0.6252 C   0  0  0  0  0  0  0  0  0  0  0  0
   -0.6376    7.6551   -0.7625 C   0  0  0  0  0  0  0  0  0  0  0  0
    0.1247    6.6941   -1.4336 C   0  0  0  0  0  0  0  0  0  0  0  0
   -0.1743    6.4274   -3.1647 S   0  0  0  0  0  0  0  0  0  0  0  0
    1.4356    5.8574   -3.6568 C   0  0  0  0  0  0  0  0  0  0  0  0
    1.8471    6.0699   -4.9760 C   0  0  0  0  0  0  0  0  0  0  0  0
    3.0326    5.5064   -5.4550 C   0  0  0  0  0  0  0  0  0  0  0  0
    3.8144    4.7407   -4.5910 C   0  0  0  0  0  0  0  0  0  0  0  0
    3.4294    4.5559   -3.2601 C   0  0  0  0  0  0  0  0  0  0  0  0
    2.2358    5.1109   -2.7637 C   0  0  0  0  0  0  0  0  0  0  0  0
    3.7188    4.1579   -0.0034 C   0  0  0  0  0  0  0  0  0  0  0  0
    4.3588    3.1599    0.7364 C   0  0  0  0  0  0  0  0  0  0  0  0
    3.7734    1.8922    0.8410 C   0  0  0  0  0  0  0  0  0  0  0  0
    4.3168    0.7097    1.5537 C   0  0  0  0  0  0  0  0  0  0  0  0
    5.5205    0.6260    2.2630 C   0  0  0  0  0  0  0  0  0  0  0  0
    5.8929   -0.5861    2.8511 C   0  0  0  0  0  0  0  0  0  0  0  0
    5.0813   -1.7247    2.7394 C   0  0  0  0  0  0  0  0  0  0  0  0
    5.5181   -2.9484    3.3452 N   0  0  0  0  0  0  0  0  0  0  0  0
    4.9975   -3.3046    4.6161 C   0  0  0  0  0  0  0  0  0  0  0  0
    3.8308   -2.7115    5.1314 C   0  0  0  0  0  0  0  0  0  0  0  0
    3.3321   -3.0712    6.3867 C   0  0  0  0  0  0  0  0  0  0  0  0
    3.9690   -4.0505    7.1486 C   0  0  0  0  0  0  0  0  0  0  0  0
    5.1247   -4.6551    6.6473 C   0  0  0  0  0  0  0  0  0  0  0  0
    5.6512   -4.2734    5.4096 C   0  0  0  0  0  0  0  0  0  0  0  0
    7.2264   -4.9276    4.9072 S   0  0  0  0  0  0  0  0  0  0  0  0
    7.0015   -4.8983    3.1434 C   0  0  0  0  0  0  0  0  0  0  0  0
    7.6774   -5.8372    2.3582 C   0  0  0  0  0  0  0  0  0  0  0  0
    7.6418   -5.7580    0.9635 C   0  0  0  0  0  0  0  0  0  0  0  0
    6.9025   -4.7405    0.3605 C   0  0  0  0  0  0  0  0  0  0  0  0
    6.1938   -3.8207    1.1385 C   0  0  0  0  0  0  0  0  0  0  0  0
    6.2297   -3.8796    2.5433 C   0  0  0  0  0  0  0  0  0  0  0  0
    3.8702   -1.6440    2.0318 C   0  0  0  0  0  0  0  0  0  0  0  0
    3.4945   -0.4335    1.4558 C   0  0  0  0  0  0  0  0  0  0  0  0
   -0.5234   -1.3725    0.2980 H   0  0  0  0  0  0  0  0  0  0  0  0
   -2.5518   -1.4301    1.7758 H   0  0  0  0  0  0  0  0  0  0  0  0
   -2.5696   -0.1310    3.9031 H   0  0  0  0  0  0  0  0  0  0  0  0
   -0.5799    1.2205    4.5566 H   0  0  0  0  0  0  0  0  0  0  0  0
    1.4246    1.2758    3.0930 H   0  0  0  0  0  0  0  0  0  0  0  0
    0.9537    2.4527   -1.0460 H   0  0  0  0  0  0  0  0  0  0  0  0
    1.7949    5.4117    1.2451 H   0  0  0  0  0  0  0  0  0  0  0  0
    0.4012    7.0593    2.4216 H   0  0  0  0  0  0  0  0  0  0  0  0
   -1.1671    8.5370    1.1402 H   0  0  0  0  0  0  0  0  0  0  0  0
   -1.3191    8.2836   -1.3413 H   0  0  0  0  0  0  0  0  0  0  0  0
    1.2130    6.6684   -5.6349 H   0  0  0  0  0  0  0  0  0  0  0  0
    3.3340    5.6626   -6.4930 H   0  0  0  0  0  0  0  0  0  0  0  0
    4.7416    4.2827   -4.9440 H   0  0  0  0  0  0  0  0  0  0  0  0
    4.0626    3.9588   -2.6053 H   0  0  0  0  0  0  0  0  0  0  0  0
    4.1721    5.1477   -0.0919 H   0  0  0  0  0  0  0  0  0  0  0  0
    5.3129    3.3775    1.2221 H   0  0  0  0  0  0  0  0  0  0  0  0
    6.1757    1.4949    2.3597 H   0  0  0  0  0  0  0  0  0  0  0  0
    6.8304   -0.6675    3.4049 H   0  0  0  0  0  0  0  0  0  0  0  0
    3.3070   -1.9525    4.5516 H   0  0  0  0  0  0  0  0  0  0  0  0
    2.4287   -2.5823    6.7593 H   0  0  0  0  0  0  0  0  0  0  0  0
    3.5761   -4.3433    8.1248 H   0  0  0  0  0  0  0  0  0  0  0  0
    5.6446   -5.4222    7.2266 H   0  0  0  0  0  0  0  0  0  0  0  0
    8.2504   -6.6245    2.8541 H   0  0  0  0  0  0  0  0  0  0  0  0
    8.1880   -6.4856    0.3592 H   0  0  0  0  0  0  0  0  0  0  0  0
    6.8601   -4.6589   -0.7282 H   0  0  0  0  0  0  0  0  0  0  0  0
    5.6125   -3.0444    0.6423 H   0  0  0  0  0  0  0  0  0  0  0  0
    3.2383   -2.5301    1.9345 H   0  0  0  0  0  0  0  0  0  0  0  0
  1  2  2  0
  2  3  1  1
  2  9  1  0
  2 48  1  0
  3  4  2  0
  3  8  1  0
  4  5  1  0
  4 49  1  0
  5  6  2  0
  5 50  1  0
  6  7  1  0
  6 51  1  0
  7  8  2  0
  7 52  1  0
  8 53  1  0
  9 10  2  0
  9 28  1  0
 10 11  1  0
 10 54  1  0
 11 12  1  0
 11 26  2  0
 12 13  1  0
 12 25  1  0
 13 14  2  0
 13 18  1  0
 14 15  1  0
 14 55  1  0
 15 16  2  0
 15 56  1  0
 16 17  1  0
 16 57  1  0
 17 18  2  0
 17 58  1  0
 18 19  1  0
 19 20  1  0
 20 21  2  0
 20 25  1  0
 21 22  1  0
 21 59  1  0
 22 23  2  0
 22 60  1  0
 23 24  1  0
 23 61  1  0
 24 25  2  0
 24 62  1  0
 26 27  1  0
 26 63  1  0
 27 28  2  0
 27 64  1  0
 28 29  1  0
 29 30  2  0
 29 48  1  0
 30 31  1  0
 30 65  1  0
 31 32  2  0
 31 66  1  0
 32 33  1  0
 32 47  1  0
 33 34  1  0
 33 46  1  0
 34 35  2  0
 34 39  1  0
 35 36  1  0
 35 67  1  0
 36 37  2  0
 36 68  1  0
 37 38  1  0
 37 69  1  0
 38 39  2  0
 38 70  1  0
 39 40  1  0
 40 41  1  0
 41 42  2  0
 41 46  1  0
 42 43  1  0
 42 71  1  0
 43 44  2  0
 43 72  1  0
 44 45  1  0
 44 73  1  0
 45 46  2  0
 45 74  1  0
 47 48  2  0
 47 75  1  0
M  END

