
     RDKit          3D

 42 43  0  0  0  0  0  0  0  0999 V2000
    2.6256   -1.3102    0.4572 O   0  0  0  0  0  0  0  0  0  0  0  0
    2.1124   -0.1968    0.4289 C   0  0  0  0  0  0  0  0  0  0  0  0
    0.6534    0.0341    0.2226 C   0  0  0  0  0  0  0  0  0  0  0  0
   -0.1783   -1.0106    0.0531 C   0  0  0  0  0  0  0  0  0  0  0  0
   -1.6291   -0.9904   -0.1589 C   0  0  0  0  0  0  0  0  0  0  0  0
   -2.3873    0.1982   -0.2142 C   0  0  0  0  0  0  0  0  0  0  0  0
   -3.7653    0.1584   -0.4161 C   0  0  0  0  0  0  0  0  0  0  0  0
   -4.4232   -1.0690   -0.5682 C   0  0  0  0  0  0  0  0  0  0  0  0
   -3.6886   -2.2565   -0.5168 C   0  0  0  0  0  0  0  0  0  0  0  0
   -2.3078   -2.2155   -0.3143 C   0  0  0  0  0  0  0  0  0  0  0  0
    2.8503    0.9393    0.5874 N   0  0  0  0  0  0  0  0  0  0  0  0
    4.2690    0.8980    0.7970 C   0  0  0  0  0  0  0  0  0  0  0  0
    4.7938    2.3368    0.8838 C   0  0  0  0  0  0  0  0  0  0  0  0
    4.0513    3.2953    0.8112 O   0  0  0  0  0  0  0  0  0  0  0  0
    6.1521    2.4070    1.0534 N   0  0  0  0  0  0  0  0  0  0  0  0
    6.8133    3.6193    1.1613 N   0  0  0  0  0  0  0  0  0  0  0  0
    7.4171    3.8492    2.4775 C   0  0  0  0  0  0  0  0  0  0  0  0
    8.7304    3.0772    2.6874 C   0  0  0  0  0  0  0  0  0  0  0  0
    9.7169    3.3654    1.5456 C   0  0  0  0  0  0  0  0  0  0  0  0
    9.0655    3.1151    0.1773 C   0  0  0  0  0  0  0  0  0  0  0  0
    7.7407    3.8863    0.0573 C   0  0  0  0  0  0  0  0  0  0  0  0
    0.2941    1.0678    0.2162 H   0  0  0  0  0  0  0  0  0  0  0  0
    0.2953   -1.9987    0.0786 H   0  0  0  0  0  0  0  0  0  0  0  0
   -1.8923    1.1648   -0.0973 H   0  0  0  0  0  0  0  0  0  0  0  0
   -4.3339    1.0911   -0.4554 H   0  0  0  0  0  0  0  0  0  0  0  0
   -5.5044   -1.0965   -0.7262 H   0  0  0  0  0  0  0  0  0  0  0  0
   -4.1926   -3.2192   -0.6346 H   0  0  0  0  0  0  0  0  0  0  0  0
   -1.7355   -3.1463   -0.2741 H   0  0  0  0  0  0  0  0  0  0  0  0
    2.4432    1.8712    0.5642 H   0  0  0  0  0  0  0  0  0  0  0  0
    4.7782    0.3548   -0.0210 H   0  0  0  0  0  0  0  0  0  0  0  0
    4.5262    0.3494    1.7234 H   0  0  0  0  0  0  0  0  0  0  0  0
    6.6781    1.5330    1.1044 H   0  0  0  0  0  0  0  0  0  0  0  0
    6.6696    3.6012    3.2456 H   0  0  0  0  0  0  0  0  0  0  0  0
    7.6136    4.9332    2.5578 H   0  0  0  0  0  0  0  0  0  0  0  0
    8.5218    1.9916    2.7345 H   0  0  0  0  0  0  0  0  0  0  0  0
    9.1691    3.3448    3.6633 H   0  0  0  0  0  0  0  0  0  0  0  0
   10.6308    2.7592    1.6584 H   0  0  0  0  0  0  0  0  0  0  0  0
   10.0360    4.4228    1.6037 H   0  0  0  0  0  0  0  0  0  0  0  0
    8.8800    2.0323    0.0449 H   0  0  0  0  0  0  0  0  0  0  0  0
    9.7442    3.4089   -0.6409 H   0  0  0  0  0  0  0  0  0  0  0  0
    7.2221    3.6645   -0.8872 H   0  0  0  0  0  0  0  0  0  0  0  0
    7.9470    4.9714    0.0642 H   0  0  0  0  0  0  0  0  0  0  0  0
  1  2  2  0
  2  3  1  0
  2 11  1  0
  3  4  2  0
  3 22  1  0
  4  5  1  0
  4 23  1  0
  5  6  2  0
  5 10  1  0
  6  7  1  0
  6 24  1  0
  7  8  2  0
  7 25  1  0
  8  9  1  0
  8 26  1  0
  9 10  2  0
  9 27  1  0
 10 28  1  0
 11 12  1  0
 11 29  1  0
 12 13  1  0
 12 30  1  0
 12 31  1  0
 13 14  2  0
 13 15  1  0
 15 16  1  0
 15 32  1  0
 16 17  1  0
 16 21  1  0
 17 18  1  0
 17 33  1  0
 17 34  1  0
 18 19  1  0
 18 35  1  0
 18 36  1  0
 19 20  1  0
 19 37  1  0
 19 38  1  0
 20 21  1  0
 20 39  1  0
 20 40  1  0
 21 41  1  0
 21 42  1  0
M  END

