
     RDKit          3D

 47 50  0  0  0  0  0  0  0  0999 V2000
    7.3137    1.7675    0.6771 C   0  0  0  0  0  0  0  0  0  0  0  0
    6.4884    0.6936    1.0670 O   0  0  0  0  0  0  0  0  0  0  0  0
    5.4461    0.9155    1.9166 C   0  0  0  0  0  0  0  0  0  0  0  0
    5.1423    2.1861    2.4248 C   0  0  0  0  0  0  0  0  0  0  0  0
    4.0632    2.3730    3.2938 C   0  0  0  0  0  0  0  0  0  0  0  0
    3.2915    1.2731    3.6472 C   0  0  0  0  0  0  0  0  0  0  0  0
    2.2504    1.4405    4.4809 F   0  0  0  0  0  0  0  0  0  0  0  0
    3.5722    0.0040    3.1580 C   0  0  0  0  0  0  0  0  0  0  0  0
    4.6531   -0.2054    2.2837 C   0  0  0  0  0  0  0  0  0  0  0  0
    4.8931   -1.5823    1.8033 C   0  0  0  0  0  0  0  0  0  0  0  0
    5.8496   -2.0241    0.9152 C   0  0  0  0  0  0  0  0  0  0  0  0
    5.7031   -3.7337    0.6582 S   0  0  0  0  0  0  0  0  0  0  0  0
    4.3477   -3.7346    1.8001 C   0  0  0  0  0  0  0  0  0  0  0  0
    3.7150   -4.9354    2.0839 N   0  0  0  0  0  0  0  0  0  0  0  0
    2.4885   -5.1093    2.7351 C   0  0  0  0  0  0  0  0  0  0  0  0
    1.7830   -4.1888    3.0836 O   0  0  0  0  0  0  0  0  0  0  0  0
    2.0987   -6.5453    2.9461 C   0  0  0  0  0  0  0  0  0  0  0  0
    2.9886   -7.6310    2.9149 C   0  0  0  0  0  0  0  0  0  0  0  0
    2.5590   -8.9396    3.1337 C   0  0  0  0  0  0  0  0  0  0  0  0
    1.1986   -9.1886    3.3964 C   0  0  0  0  0  0  0  0  0  0  0  0
    0.6799  -10.4685    3.6228 N   0  0  0  0  0  0  0  0  0  0  0  0
    1.3379  -11.6816    3.6208 C   0  0  0  0  0  0  0  0  0  0  0  0
    2.5297  -11.8347    3.4124 O   0  0  0  0  0  0  0  0  0  0  0  0
    0.4583  -12.8369    3.9021 C   0  0  0  0  0  0  0  0  0  0  0  0
    0.7457  -14.1742    3.9892 C   0  0  0  0  0  0  0  0  0  0  0  0
   -0.4896  -14.8296    4.2845 C   0  0  0  0  0  0  0  0  0  0  0  0
   -1.4362  -13.8441    4.3551 C   0  0  0  0  0  0  0  0  0  0  0  0
   -0.8748  -12.6326    4.1253 O   0  0  0  0  0  0  0  0  0  0  0  0
    0.3021   -8.1011    3.4452 C   0  0  0  0  0  0  0  0  0  0  0  0
    0.7475   -6.8043    3.2313 C   0  0  0  0  0  0  0  0  0  0  0  0
    4.0637   -2.5771    2.2895 N   0  0  0  0  0  0  0  0  0  0  0  0
    8.0744    1.3492    0.0040 H   0  0  0  0  0  0  0  0  0  0  0  0
    7.8197    2.2327    1.5420 H   0  0  0  0  0  0  0  0  0  0  0  0
    6.7474    2.5462    0.1351 H   0  0  0  0  0  0  0  0  0  0  0  0
    5.7464    3.0491    2.1475 H   0  0  0  0  0  0  0  0  0  0  0  0
    3.8210    3.3597    3.6926 H   0  0  0  0  0  0  0  0  0  0  0  0
    2.9534   -0.8469    3.4447 H   0  0  0  0  0  0  0  0  0  0  0  0
    6.6137   -1.4455    0.4103 H   0  0  0  0  0  0  0  0  0  0  0  0
    4.1392   -5.7634    1.6856 H   0  0  0  0  0  0  0  0  0  0  0  0
    4.0581   -7.4728    2.7507 H   0  0  0  0  0  0  0  0  0  0  0  0
    3.2598   -9.7707    3.1134 H   0  0  0  0  0  0  0  0  0  0  0  0
   -0.3157  -10.5127    3.8142 H   0  0  0  0  0  0  0  0  0  0  0  0
    1.7304  -14.6149    3.8553 H   0  0  0  0  0  0  0  0  0  0  0  0
   -0.6561  -15.8952    4.4267 H   0  0  0  0  0  0  0  0  0  0  0  0
   -2.5053  -13.8485    4.5518 H   0  0  0  0  0  0  0  0  0  0  0  0
   -0.7556   -8.2838    3.6570 H   0  0  0  0  0  0  0  0  0  0  0  0
    0.0576   -5.9599    3.2808 H   0  0  0  0  0  0  0  0  0  0  0  0
  1  2  1  0
  1 32  1  0
  1 33  1  0
  1 34  1  0
  2  3  1  0
  3  4  2  0
  3  9  1  0
  4  5  1  0
  4 35  1  0
  5  6  2  0
  5 36  1  0
  6  7  1  0
  6  8  1  0
  8  9  2  0
  8 37  1  0
  9 10  1  0
 10 11  2  0
 10 31  1  0
 11 12  1  0
 11 38  1  0
 12 13  1  0
 13 14  1  0
 13 31  2  0
 14 15  1  0
 14 39  1  0
 15 16  2  0
 15 17  1  0
 17 18  2  0
 17 30  1  0
 18 19  1  0
 18 40  1  0
 19 20  2  0
 19 41  1  0
 20 21  1  0
 20 29  1  0
 21 22  1  0
 21 42  1  0
 22 23  2  0
 22 24  1  0
 24 25  2  0
 24 28  1  0
 25 26  1  0
 25 43  1  0
 26 27  2  0
 26 44  1  0
 27 28  1  0
 27 45  1  0
 29 30  2  0
 29 46  1  0
 30 47  1  0
M  END

