
     RDKit          3D

 54 56  0  0  0  0  0  0  0  0999 V2000
    3.7077   -1.0219    1.2560 C   0  0  0  0  0  0  0  0  0  0  0  0
    4.0958   -0.1018    0.0921 C   0  0  1  0  0  0  0  0  0  0  0  0
    4.9271   -0.8551   -0.9520 C   0  0  0  0  0  0  0  0  0  0  0  0
    2.8598    0.5436   -0.5838 C   0  0  1  0  0  0  0  0  0  0  0  0
    2.0520    1.3015    0.4210 N   0  0  0  0  0  0  0  0  0  0  0  0
    0.7902    1.0452    0.7290 C   0  0  0  0  0  0  0  0  0  0  0  0
    0.1588    0.0144    0.5444 O   0  0  0  0  0  0  0  0  0  0  0  0
    0.0390    2.2581    1.4307 C   0  0  0  0  0  0  0  0  0  0  0  0
   -1.1966    2.5029    0.7454 N   0  0  0  0  0  0  0  0  0  0  0  0
   -2.2576    1.5839    1.0499 C   0  0  0  0  0  0  0  0  0  0  0  0
   -3.6143    1.8263    0.3893 C   0  0  0  0  0  0  0  0  0  0  0  0
   -4.5480    1.1100    0.6820 O   0  0  0  0  0  0  0  0  0  0  0  0
   -3.6693    2.8385   -0.5154 N   0  0  0  0  0  0  0  0  0  0  0  0
   -2.6231    3.8254   -0.7426 C   0  0  2  0  0  0  0  0  0  0  0  0
   -2.7417    4.4411   -2.1411 C   0  0  0  0  0  0  0  0  0  0  0  0
   -1.6300    5.4642   -2.3931 C   0  0  0  0  0  0  0  0  0  0  0  0
   -0.2470    4.8431   -2.1766 C   0  0  0  0  0  0  0  0  0  0  0  0
   -0.1107    4.1971   -0.7903 C   0  0  0  0  0  0  0  0  0  0  0  0
   -1.2359    3.1819   -0.5615 C   0  0  1  0  0  0  0  0  0  0  0  0
    3.1475    1.5461   -1.6863 C   0  0  0  0  0  0  0  0  0  0  0  0
    2.6119    1.3831   -2.9505 C   0  0  0  0  0  0  0  0  0  0  0  0
    2.6952    2.3960   -3.9455 C   0  0  0  0  0  0  0  0  0  0  0  0
    3.3884    3.6090   -3.6066 C   0  0  0  0  0  0  0  0  0  0  0  0
    3.9191    3.7949   -2.3470 C   0  0  0  0  0  0  0  0  0  0  0  0
    3.7765    2.8110   -1.3075 C   0  0  0  0  0  0  0  0  0  0  0  0
    4.6029   -1.4634    1.7229 H   0  0  0  0  0  0  0  0  0  0  0  0
    3.0692   -1.8528    0.9100 H   0  0  0  0  0  0  0  0  0  0  0  0
    3.1571   -0.4830    2.0430 H   0  0  0  0  0  0  0  0  0  0  0  0
    4.7188    0.7181    0.4922 H   0  0  0  0  0  0  0  0  0  0  0  0
    4.3489   -1.6889   -1.3873 H   0  0  0  0  0  0  0  0  0  0  0  0
    5.8338   -1.2825   -0.4939 H   0  0  0  0  0  0  0  0  0  0  0  0
    5.2296   -0.1930   -1.7752 H   0  0  0  0  0  0  0  0  0  0  0  0
    2.2141   -0.2640   -0.9602 H   0  0  0  0  0  0  0  0  0  0  0  0
    2.3825    2.2697    0.4637 H   0  0  0  0  0  0  0  0  0  0  0  0
    0.6617    3.1563    1.4374 H   0  0  0  0  0  0  0  0  0  0  0  0
   -0.1784    1.9490    2.4619 H   0  0  0  0  0  0  0  0  0  0  0  0
   -2.4034    1.5238    2.1397 H   0  0  0  0  0  0  0  0  0  0  0  0
   -1.8781    0.5718    0.7568 H   0  0  0  0  0  0  0  0  0  0  0  0
   -4.5882    3.0033   -0.9188 H   0  0  0  0  0  0  0  0  0  0  0  0
   -2.7050    4.6424    0.0021 H   0  0  0  0  0  0  0  0  0  0  0  0
   -3.7361    4.9086   -2.2404 H   0  0  0  0  0  0  0  0  0  0  0  0
   -2.6923    3.6297   -2.8880 H   0  0  0  0  0  0  0  0  0  0  0  0
   -1.7665    6.3258   -1.7144 H   0  0  0  0  0  0  0  0  0  0  0  0
   -1.7167    5.8594   -3.4170 H   0  0  0  0  0  0  0  0  0  0  0  0
    0.5457    5.5951   -2.2940 H   0  0  0  0  0  0  0  0  0  0  0  0
   -0.0449    4.0784   -2.9448 H   0  0  0  0  0  0  0  0  0  0  0  0
   -0.1567    4.9725   -0.0042 H   0  0  0  0  0  0  0  0  0  0  0  0
    0.8735    3.7126   -0.7322 H   0  0  0  0  0  0  0  0  0  0  0  0
   -1.1441    2.3710   -1.3104 H   0  0  0  0  0  0  0  0  0  0  0  0
    2.0881    0.4482   -3.1851 H   0  0  0  0  0  0  0  0  0  0  0  0
    2.3277    2.2188   -4.9569 H   0  0  0  0  0  0  0  0  0  0  0  0
    3.5046    4.3929   -4.3622 H   0  0  0  0  0  0  0  0  0  0  0  0
    4.4665    4.7189   -2.1290 H   0  0  0  0  0  0  0  0  0  0  0  0
    4.4697    2.8470   -0.4576 H   0  0  0  0  0  0  0  0  0  0  0  0
  1  2  1  0
  1 26  1  0
  1 27  1  0
  1 28  1  0
  2  3  1  0
  2  4  1  0
  2 29  1  1
  3 30  1  0
  3 31  1  0
  3 32  1  0
  4  5  1  0
  4 20  1  0
  4 33  1  6
  5  6  1  0
  5 34  1  0
  6  7  2  0
  6  8  1  0
  8  9  1  0
  8 35  1  0
  8 36  1  0
  9 10  1  0
  9 19  1  0
 10 11  1  0
 10 37  1  0
 10 38  1  0
 11 12  2  0
 11 13  1  0
 13 14  1  0
 13 39  1  0
 14 15  1  0
 14 19  1  0
 14 40  1  1
 15 16  1  0
 15 41  1  0
 15 42  1  0
 16 17  1  0
 16 43  1  0
 16 44  1  0
 17 18  1  0
 17 45  1  0
 17 46  1  0
 18 19  1  0
 18 47  1  0
 18 48  1  0
 19 49  1  6
 20 21  2  0
 20 25  1  0
 21 22  1  0
 21 50  1  0
 22 23  2  0
 22 51  1  0
 23 24  1  0
 23 52  1  0
 24 25  2  0
 24 53  1  0
 25 54  1  0
M  END

