
     RDKit          3D

108119  0  0  0  0  0  0  0  0999 V2000
    3.2609   -1.6949    3.0797 O   0  0  0  0  0  0  0  0  0  0  0  0
    3.8263   -1.2751    2.0815 C   0  0  0  0  0  0  0  0  0  0  0  0
    3.6008    0.1071    1.5711 C   0  0  0  0  0  0  0  0  0  0  0  0
    2.5208    0.8413    2.0880 C   0  0  0  0  0  0  0  0  0  0  0  0
    2.1894    2.0806    1.5509 C   0  0  0  0  0  0  0  0  0  0  0  0
    2.9358    2.5863    0.4766 C   0  0  0  0  0  0  0  0  0  0  0  0
    4.0281    1.8793   -0.0206 C   0  0  0  0  0  0  0  0  0  0  0  0
    4.4038    0.6405    0.5359 C   0  0  0  0  0  0  0  0  0  0  0  0
    5.5683   -0.1326    0.0402 C   0  0  0  0  0  0  0  0  0  0  0  0
    6.7107    0.4099   -0.4728 C   0  0  0  0  0  0  0  0  0  0  0  0
    7.2013    1.7941   -0.5265 C   0  0  0  0  0  0  0  0  0  0  0  0
    7.0085    2.7310    0.5101 C   0  0  0  0  0  0  0  0  0  0  0  0
    7.5578    4.0060    0.4433 C   0  0  0  0  0  0  0  0  0  0  0  0
    8.3302    4.4153   -0.6685 C   0  0  0  0  0  0  0  0  0  0  0  0
    8.9416    5.7403   -0.7841 C   0  0  0  0  0  0  0  0  0  0  0  0
   10.0540    6.1006   -1.5434 C   0  0  0  0  0  0  0  0  0  0  0  0
   11.0529    5.5756   -2.4637 C   0  0  0  0  0  0  0  0  0  0  0  0
   11.2657    4.4642   -2.9246 O   0  0  0  0  0  0  0  0  0  0  0  0
   11.8573    6.7175   -2.7984 N   0  0  0  0  0  0  0  0  0  0  0  0
   13.1310    6.4973   -3.4887 C   0  0  0  0  0  0  0  0  0  0  0  0
   14.3208    6.3376   -2.5571 C   0  0  0  0  0  0  0  0  0  0  0  0
   14.4648    5.1704   -1.7874 C   0  0  0  0  0  0  0  0  0  0  0  0
   15.5553    5.0181   -0.9286 C   0  0  0  0  0  0  0  0  0  0  0  0
   16.5218    6.0254   -0.8309 C   0  0  0  0  0  0  0  0  0  0  0  0
   16.3910    7.1857   -1.5977 C   0  0  0  0  0  0  0  0  0  0  0  0
   15.2954    7.3401   -2.4538 C   0  0  0  0  0  0  0  0  0  0  0  0
   11.4093    7.8618   -2.1374 C   0  0  0  0  0  0  0  0  0  0  0  0
   11.9569    9.2093   -2.3149 C   0  0  0  0  0  0  0  0  0  0  0  0
   11.9412   10.1124   -1.2291 C   0  0  0  0  0  0  0  0  0  0  0  0
   12.4302   11.4056   -1.3633 C   0  0  0  0  0  0  0  0  0  0  0  0
   12.9407   11.8722   -2.5937 C   0  0  0  0  0  0  0  0  0  0  0  0
   13.3998   13.2506   -2.8182 C   0  0  0  0  0  0  0  0  0  0  0  0
   14.0531   14.1404   -2.0156 C   0  0  0  0  0  0  0  0  0  0  0  0
   14.6374   13.8284   -0.6885 C   0  0  0  0  0  0  0  0  0  0  0  0
   15.1731   12.5632   -0.3767 C   0  0  0  0  0  0  0  0  0  0  0  0
   15.6968   12.2973    0.8864 C   0  0  0  0  0  0  0  0  0  0  0  0
   15.6959   13.2870    1.8798 C   0  0  0  0  0  0  0  0  0  0  0  0
   15.2089   14.5545    1.5789 C   0  0  0  0  0  0  0  0  0  0  0  0
   14.7074   14.8396    0.2985 C   0  0  0  0  0  0  0  0  0  0  0  0
   14.3298   16.2465   -0.0158 C   0  0  0  0  0  0  0  0  0  0  0  0
   14.2282   17.0978    0.8545 O   0  0  0  0  0  0  0  0  0  0  0  0
   14.2020   16.5795   -1.4629 C   0  0  0  0  0  0  0  0  0  0  0  0
   14.1760   17.9346   -1.8329 C   0  0  0  0  0  0  0  0  0  0  0  0
   14.1315   18.3016   -3.1730 C   0  0  0  0  0  0  0  0  0  0  0  0
   14.1145   17.3027   -4.1569 C   0  0  0  0  0  0  0  0  0  0  0  0
   14.1133   15.9568   -3.7984 C   0  0  0  0  0  0  0  0  0  0  0  0
   14.1410   15.5631   -2.4456 C   0  0  0  0  0  0  0  0  0  0  0  0
   12.8859   10.9904   -3.6938 C   0  0  0  0  0  0  0  0  0  0  0  0
   12.4209    9.6861   -3.5585 C   0  0  0  0  0  0  0  0  0  0  0  0
   10.3242    7.4897   -1.3580 C   0  0  0  0  0  0  0  0  0  0  0  0
    9.3144    8.0346   -0.4650 C   0  0  0  0  0  0  0  0  0  0  0  0
    9.1026    9.1483   -0.0218 O   0  0  0  0  0  0  0  0  0  0  0  0
    8.4988    6.8960   -0.1315 N   0  0  0  0  0  0  0  0  0  0  0  0
    7.2715    7.1257    0.6164 C   0  0  0  0  0  0  0  0  0  0  0  0
    7.3536    6.9357    2.1240 C   0  0  0  0  0  0  0  0  0  0  0  0
    8.5605    7.0574    2.8255 C   0  0  0  0  0  0  0  0  0  0  0  0
    8.5898    6.9246    4.2171 C   0  0  0  0  0  0  0  0  0  0  0  0
    7.4130    6.6733    4.9276 C   0  0  0  0  0  0  0  0  0  0  0  0
    6.2034    6.5535    4.2365 C   0  0  0  0  0  0  0  0  0  0  0  0
    6.1765    6.6823    2.8457 C   0  0  0  0  0  0  0  0  0  0  0  0
    8.5650    3.4621   -1.6862 C   0  0  0  0  0  0  0  0  0  0  0  0
    8.0197    2.1868   -1.6073 C   0  0  0  0  0  0  0  0  0  0  0  0
    5.4792   -1.6103    0.1938 C   0  0  0  0  0  0  0  0  0  0  0  0
    6.1953   -2.5091   -0.6215 C   0  0  0  0  0  0  0  0  0  0  0  0
    6.1504   -3.8821   -0.3914 C   0  0  0  0  0  0  0  0  0  0  0  0
    5.3968   -4.4017    0.6708 C   0  0  0  0  0  0  0  0  0  0  0  0
    4.6697   -3.5333    1.4769 C   0  0  0  0  0  0  0  0  0  0  0  0
    4.6873   -2.1495    1.2355 C   0  0  0  0  0  0  0  0  0  0  0  0
    1.9452    0.3943    2.9009 H   0  0  0  0  0  0  0  0  0  0  0  0
    1.3400    2.6440    1.9451 H   0  0  0  0  0  0  0  0  0  0  0  0
    2.6577    3.5387    0.0179 H   0  0  0  0  0  0  0  0  0  0  0  0
    4.5895    2.2827   -0.8632 H   0  0  0  0  0  0  0  0  0  0  0  0
    7.4401   -0.3035   -0.8682 H   0  0  0  0  0  0  0  0  0  0  0  0
    6.4431    2.4457    1.3982 H   0  0  0  0  0  0  0  0  0  0  0  0
    7.4194    4.6683    1.2952 H   0  0  0  0  0  0  0  0  0  0  0  0
   13.3188    7.3061   -4.2026 H   0  0  0  0  0  0  0  0  0  0  0  0
   12.9807    5.5719   -4.0623 H   0  0  0  0  0  0  0  0  0  0  0  0
   13.7176    4.3774   -1.8732 H   0  0  0  0  0  0  0  0  0  0  0  0
   15.6562    4.1041   -0.3375 H   0  0  0  0  0  0  0  0  0  0  0  0
   17.3774    5.9024   -0.1618 H   0  0  0  0  0  0  0  0  0  0  0  0
   17.1449    7.9747   -1.5323 H   0  0  0  0  0  0  0  0  0  0  0  0
   15.1990    8.2511   -3.0510 H   0  0  0  0  0  0  0  0  0  0  0  0
   11.5220    9.7966   -0.2737 H   0  0  0  0  0  0  0  0  0  0  0  0
   12.3945   12.0767   -0.5044 H   0  0  0  0  0  0  0  0  0  0  0  0
   13.0971   13.6313   -3.7983 H   0  0  0  0  0  0  0  0  0  0  0  0
   15.1901   11.7829   -1.1374 H   0  0  0  0  0  0  0  0  0  0  0  0
   16.1127   11.3090    1.0985 H   0  0  0  0  0  0  0  0  0  0  0  0
   16.0955   13.0704    2.8735 H   0  0  0  0  0  0  0  0  0  0  0  0
   15.2217   15.3641    2.3113 H   0  0  0  0  0  0  0  0  0  0  0  0
   14.2032   18.6784   -1.0341 H   0  0  0  0  0  0  0  0  0  0  0  0
   14.1234   19.3563   -3.4580 H   0  0  0  0  0  0  0  0  0  0  0  0
   14.1075   17.5772   -5.2150 H   0  0  0  0  0  0  0  0  0  0  0  0
   14.1145   15.2011   -4.5858 H   0  0  0  0  0  0  0  0  0  0  0  0
   13.2156   11.3399   -4.6760 H   0  0  0  0  0  0  0  0  0  0  0  0
   12.3696    9.0525   -4.4444 H   0  0  0  0  0  0  0  0  0  0  0  0
    6.4676    6.5033    0.1971 H   0  0  0  0  0  0  0  0  0  0  0  0
    7.0095    8.1787    0.4216 H   0  0  0  0  0  0  0  0  0  0  0  0
    9.4856    7.2581    2.2817 H   0  0  0  0  0  0  0  0  0  0  0  0
    9.5400    7.0207    4.7486 H   0  0  0  0  0  0  0  0  0  0  0  0
    7.4379    6.5690    6.0152 H   0  0  0  0  0  0  0  0  0  0  0  0
    5.2771    6.3536    4.7814 H   0  0  0  0  0  0  0  0  0  0  0  0
    5.2263    6.5812    2.3121 H   0  0  0  0  0  0  0  0  0  0  0  0
    9.2063    3.7148   -2.5304 H   0  0  0  0  0  0  0  0  0  0  0  0
    8.2280    1.4719   -2.4078 H   0  0  0  0  0  0  0  0  0  0  0  0
    6.7790   -2.1336   -1.4637 H   0  0  0  0  0  0  0  0  0  0  0  0
    6.7046   -4.5558   -1.0500 H   0  0  0  0  0  0  0  0  0  0  0  0
    5.3711   -5.4787    0.8535 H   0  0  0  0  0  0  0  0  0  0  0  0
    4.0592   -3.8951    2.3066 H   0  0  0  0  0  0  0  0  0  0  0  0
  1  2  2  0
  2  3  1  0
  2 68  1  0
  3  4  1  0
  3  8  2  0
  4  5  2  0
  4 69  1  0
  5  6  1  0
  5 70  1  0
  6  7  2  0
  6 71  1  0
  7  8  1  0
  7 72  1  0
  8  9  1  0
  9 10  2  0
  9 63  1  0
 10 11  1  0
 10 73  1  0
 11 12  2  0
 11 62  1  0
 12 13  1  0
 12 74  1  0
 13 14  2  0
 13 75  1  0
 14 15  1  0
 14 61  1  0
 15 16  2  0
 15 53  1  0
 16 17  1  0
 16 50  1  0
 17 18  2  0
 17 19  1  0
 19 20  1  0
 19 27  1  0
 20 21  1  0
 20 76  1  0
 20 77  1  0
 21 22  2  0
 21 26  1  0
 22 23  1  0
 22 78  1  0
 23 24  2  0
 23 79  1  0
 24 25  1  0
 24 80  1  0
 25 26  2  0
 25 81  1  0
 26 82  1  0
 27 28  1  0
 27 50  2  0
 28 29  2  0
 28 49  1  0
 29 30  1  0
 29 83  1  0
 30 31  2  0
 30 84  1  0
 31 32  1  0
 31 48  1  0
 32 33  2  0
 32 85  1  0
 33 34  1  0
 33 47  1  0
 34 35  2  0
 34 39  1  0
 35 36  1  0
 35 86  1  0
 36 37  2  0
 36 87  1  0
 37 38  1  0
 37 88  1  0
 38 39  2  0
 38 89  1  0
 39 40  1  0
 40 41  2  0
 40 42  1  0
 42 43  2  0
 42 47  1  0
 43 44  1  0
 43 90  1  0
 44 45  2  0
 44 91  1  0
 45 46  1  0
 45 92  1  0
 46 47  2  0
 46 93  1  0
 48 49  2  0
 48 94  1  0
 49 95  1  0
 50 51  1  0
 51 52  2  0
 51 53  1  0
 53 54  1  0
 54 55  1  0
 54 96  1  0
 54 97  1  0
 55 56  2  0
 55 60  1  0
 56 57  1  0
 56 98  1  0
 57 58  2  0
 57 99  1  0
 58 59  1  0
 58100  1  0
 59 60  2  0
 59101  1  0
 60102  1  0
 61 62  2  0
 61103  1  0
 62104  1  0
 63 64  1  0
 63 68  2  0
 64 65  2  0
 64105  1  0
 65 66  1  0
 65106  1  0
 66 67  2  0
 66107  1  0
 67 68  1  0
 67108  1  0
M  END

