
     RDKit          3D

 49 50  0  0  0  0  0  0  0  0999 V2000
    3.1758    1.1158    4.4286 C   0  0  0  0  0  0  0  0  0  0  0  0
    4.0434    1.2763    3.4143 C   0  0  0  0  0  0  0  0  0  0  0  0
    5.3863    1.8243    3.5651 C   0  0  0  0  0  0  0  0  0  0  0  0
    6.2995    2.0251    2.5927 C   0  0  0  0  0  0  0  0  0  0  0  0
    6.1606    1.7321    1.1183 C   0  0  0  0  0  0  0  0  0  0  0  0
    7.3387    0.9522    0.5825 C   0  0  0  0  0  0  0  0  0  0  0  0
    7.3644   -0.3041    0.0996 C   0  0  0  0  0  0  0  0  0  0  0  0
    6.1367   -1.1720   -0.0494 C   0  0  0  0  0  0  0  0  0  0  0  0
    8.6762   -0.9080   -0.3890 C   0  0  0  0  0  0  0  0  0  0  0  0
    9.6250   -1.5635    0.6806 C   0  0  1  0  0  0  0  0  0  0  0  0
   10.1423   -0.4606    1.6278 C   0  0  0  0  0  0  0  0  0  0  0  0
    9.7588   -0.3692    2.9759 C   0  0  0  0  0  0  0  0  0  0  0  0
   10.2370    0.6522    3.8055 C   0  0  0  0  0  0  0  0  0  0  0  0
   11.1161    1.6151    3.3089 C   0  0  0  0  0  0  0  0  0  0  0  0
   11.5090    1.5452    1.9688 C   0  0  0  0  0  0  0  0  0  0  0  0
   11.0276    0.5244    1.1469 C   0  0  0  0  0  0  0  0  0  0  0  0
    8.9087   -2.6902    1.4698 C   0  0  0  0  0  0  0  0  0  0  0  0
    8.5762   -3.9409    0.6434 C   0  0  0  0  0  0  0  0  0  0  0  0
    9.8254   -4.5259   -0.0211 C   0  0  0  0  0  0  0  0  0  0  0  0
   10.5310   -3.4641   -0.8682 C   0  0  0  0  0  0  0  0  0  0  0  0
   10.8469   -2.2012   -0.0543 C   0  0  0  0  0  0  0  0  0  0  0  0
    2.1780    0.6996    4.2688 H   0  0  0  0  0  0  0  0  0  0  0  0
    3.4381    1.3987    5.4534 H   0  0  0  0  0  0  0  0  0  0  0  0
    3.7281    0.9799    2.4079 H   0  0  0  0  0  0  0  0  0  0  0  0
    5.6677    2.1006    4.5885 H   0  0  0  0  0  0  0  0  0  0  0  0
    7.2676    2.4455    2.8897 H   0  0  0  0  0  0  0  0  0  0  0  0
    6.1203    2.7015    0.5817 H   0  0  0  0  0  0  0  0  0  0  0  0
    5.2094    1.2276    0.9046 H   0  0  0  0  0  0  0  0  0  0  0  0
    8.2909    1.4941    0.6226 H   0  0  0  0  0  0  0  0  0  0  0  0
    5.2157   -0.6812    0.2917 H   0  0  0  0  0  0  0  0  0  0  0  0
    6.2337   -2.1152    0.5125 H   0  0  0  0  0  0  0  0  0  0  0  0
    5.9923   -1.4566   -1.1071 H   0  0  0  0  0  0  0  0  0  0  0  0
    9.2607   -0.1278   -0.9012 H   0  0  0  0  0  0  0  0  0  0  0  0
    8.4479   -1.6613   -1.1591 H   0  0  0  0  0  0  0  0  0  0  0  0
    9.0662   -1.0944    3.4019 H   0  0  0  0  0  0  0  0  0  0  0  0
    9.9141    0.6904    4.8494 H   0  0  0  0  0  0  0  0  0  0  0  0
   11.4919    2.4113    3.9566 H   0  0  0  0  0  0  0  0  0  0  0  0
   12.1964    2.2902    1.5587 H   0  0  0  0  0  0  0  0  0  0  0  0
   11.3509    0.5040    0.1040 H   0  0  0  0  0  0  0  0  0  0  0  0
    7.9942   -2.2995    1.9426 H   0  0  0  0  0  0  0  0  0  0  0  0
    9.5695   -3.0007    2.2979 H   0  0  0  0  0  0  0  0  0  0  0  0
    7.8287   -3.7045   -0.1333 H   0  0  0  0  0  0  0  0  0  0  0  0
    8.1031   -4.6908    1.2999 H   0  0  0  0  0  0  0  0  0  0  0  0
    9.5642   -5.4034   -0.6365 H   0  0  0  0  0  0  0  0  0  0  0  0
   10.5175   -4.8880    0.7618 H   0  0  0  0  0  0  0  0  0  0  0  0
    9.8993   -3.2110   -1.7383 H   0  0  0  0  0  0  0  0  0  0  0  0
   11.4697   -3.8656   -1.2865 H   0  0  0  0  0  0  0  0  0  0  0  0
   11.3204   -1.4563   -0.7132 H   0  0  0  0  0  0  0  0  0  0  0  0
   11.6015   -2.4544    0.7112 H   0  0  0  0  0  0  0  0  0  0  0  0
  1  2  2  0
  1 22  1  0
  1 23  1  0
  2  3  1  0
  2 24  1  0
  3  4  2  0
  3 25  1  0
  4  5  1  0
  4 26  1  0
  5  6  1  0
  5 27  1  0
  5 28  1  0
  6  7  2  0
  6 29  1  0
  7  8  1  0
  7  9  1  0
  8 30  1  0
  8 31  1  0
  8 32  1  0
 10  9  1  6
  9 33  1  0
  9 34  1  0
 10 11  1  0
 10 17  1  0
 10 21  1  0
 11 12  2  0
 11 16  1  0
 12 13  1  0
 12 35  1  0
 13 14  2  0
 13 36  1  0
 14 15  1  0
 14 37  1  0
 15 16  2  0
 15 38  1  0
 16 39  1  0
 17 18  1  0
 17 40  1  0
 17 41  1  0
 18 19  1  0
 18 42  1  0
 18 43  1  0
 19 20  1  0
 19 44  1  0
 19 45  1  0
 20 21  1  0
 20 46  1  0
 20 47  1  0
 21 48  1  0
 21 49  1  0
M  END

