
     RDKit          3D

 27 28  0  0  0  0  0  0  0  0999 V2000
    0.8937    0.1759    0.7175 C   0  0  0  0  0  0  0  0  0  0  0  0
    1.9536    0.1298   -0.2132 O   0  0  0  0  0  0  0  0  0  0  0  0
    2.7126    1.2236   -0.4548 C   0  0  0  0  0  0  0  0  0  0  0  0
    2.4772    2.4876    0.1537 C   0  0  0  0  0  0  0  0  0  0  0  0
    3.3249    3.5991   -0.1379 C   0  0  0  0  0  0  0  0  0  0  0  0
    4.3674    3.4108   -1.0946 C   0  0  0  0  0  0  0  0  0  0  0  0
    4.5856    2.1438   -1.6941 C   0  0  0  0  0  0  0  0  0  0  0  0
    5.6091    2.1015   -2.5880 O   0  0  0  0  0  0  0  0  0  0  0  0
    5.8998    0.9197   -3.2952 C   0  0  1  0  0  0  0  0  0  0  0  0
    6.9904    1.1059   -4.3660 C   0  0  0  0  0  0  0  0  0  0  0  0
    7.6406   -0.2135   -3.8927 C   0  0  2  0  0  0  0  0  0  0  0  0
    7.1828   -1.7615   -5.0290 Br  0  0  0  0  0  0  0  0  0  0  0  0
    6.8012   -0.1380   -2.5984 C   0  0  0  0  0  0  0  0  0  0  0  0
    3.7752    1.0089   -1.3884 C   0  0  0  0  0  0  0  0  0  0  0  0
    0.4632   -0.8336    0.7503 H   0  0  0  0  0  0  0  0  0  0  0  0
    0.1130    0.8925    0.4062 H   0  0  0  0  0  0  0  0  0  0  0  0
    1.2520    0.4526    1.7247 H   0  0  0  0  0  0  0  0  0  0  0  0
    1.6319    2.6198    0.8292 H   0  0  0  0  0  0  0  0  0  0  0  0
    3.1678    4.5634    0.3425 H   0  0  0  0  0  0  0  0  0  0  0  0
    5.0096    4.2363   -1.4076 H   0  0  0  0  0  0  0  0  0  0  0  0
    4.9744    0.4780   -3.6975 H   0  0  0  0  0  0  0  0  0  0  0  0
    7.6293    1.9648   -4.1063 H   0  0  0  0  0  0  0  0  0  0  0  0
    6.6810    1.1842   -5.4171 H   0  0  0  0  0  0  0  0  0  0  0  0
    8.7316   -0.2453   -3.7986 H   0  0  0  0  0  0  0  0  0  0  0  0
    7.3804    0.3290   -1.7863 H   0  0  0  0  0  0  0  0  0  0  0  0
    6.3332   -1.0608   -2.2297 H   0  0  0  0  0  0  0  0  0  0  0  0
    3.9881   -0.0019   -1.7259 H   0  0  0  0  0  0  0  0  0  0  0  0
  1  2  1  0
  1 15  1  0
  1 16  1  0
  1 17  1  0
  2  3  1  0
  3  4  2  0
  3 14  1  0
  4  5  1  0
  4 18  1  0
  5  6  2  0
  5 19  1  0
  6  7  1  0
  6 20  1  0
  7  8  1  0
  7 14  2  0
  8  9  1  0
  9 10  1  0
  9 13  1  0
  9 21  1  6
 10 11  1  0
 10 22  1  0
 10 23  1  0
 11 12  1  0
 11 13  1  0
 11 24  1  1
 13 25  1  0
 13 26  1  0
 14 27  1  0
M  END

