
     RDKit          3D

  8  7  0  0  0  0  0  0  0  0999 V2000
    1.0872    0.0227    0.0718 C   0  0  0  0  0  0  0  0  0  0  0  0
    2.5815    0.1891    0.0828 C   0  0  0  0  0  0  0  0  0  0  0  0
    3.2322   -0.7447    0.7825 O   0  0  0  0  0  0  0  0  0  0  0  0
    3.2285    0.4477   -1.0912 O   0  0  0  0  0  0  0  0  0  0  0  0
    0.6969   -0.0814    1.0949 H   0  0  0  0  0  0  0  0  0  0  0  0
    0.7868   -0.8785   -0.5076 H   0  0  0  0  0  0  0  0  0  0  0  0
    0.6151    0.9084   -0.3839 H   0  0  0  0  0  0  0  0  0  0  0  0
    2.8065    1.2172   -1.4959 H   0  0  0  0  0  0  0  0  0  0  0  0
  1  2  1  0
  1  5  1  0
  1  6  1  0
  1  7  1  0
  2  3  2  0
  2  4  1  0
  4  8  1  0
M  END

