
     RDKit          3D

 50 53  0  0  0  0  0  0  0  0999 V2000
    1.4916   -1.1508    0.1016 C   0  0  0  0  0  0  0  0  0  0  0  0
    2.9890   -1.1003    0.1046 C   0  0  0  0  0  0  0  0  0  0  0  0
    3.6980   -0.1673   -0.4593 N   0  0  0  0  0  0  0  0  0  0  0  0
    5.0482   -0.3738   -0.2966 C   0  0  0  0  0  0  0  0  0  0  0  0
    6.0026    0.6200   -0.8940 C   0  0  0  0  0  0  0  0  0  0  0  0
    7.3174    0.2310   -0.6033 O   0  0  0  0  0  0  0  0  0  0  0  0
    8.3565    1.0119   -1.0566 C   0  0  0  0  0  0  0  0  0  0  0  0
    8.2087    2.1920   -1.8123 C   0  0  0  0  0  0  0  0  0  0  0  0
    9.3204    2.9122   -2.2234 C   0  0  0  0  0  0  0  0  0  0  0  0
   10.6572    2.4946   -1.8971 C   0  0  0  0  0  0  0  0  0  0  0  0
   11.7346    3.2847   -2.3541 C   0  0  0  0  0  0  0  0  0  0  0  0
   11.7777    4.3221   -3.0345 O   0  0  0  0  0  0  0  0  0  0  0  0
   13.1348    2.7650   -1.9932 N   0  0  0  0  0  0  0  0  0  0  0  0
   13.9049    3.2349   -1.0291 C   0  0  0  0  0  0  0  0  0  0  0  0
   13.4137    4.1226   -0.0122 C   0  0  0  0  0  0  0  0  0  0  0  0
   14.2581    4.5794    0.9708 C   0  0  0  0  0  0  0  0  0  0  0  0
   15.6197    4.1850    0.9986 C   0  0  0  0  0  0  0  0  0  0  0  0
   16.1418    3.3248    0.0284 C   0  0  0  0  0  0  0  0  0  0  0  0
   15.3106    2.8476   -0.9787 C   0  0  0  0  0  0  0  0  0  0  0  0
   15.6882    2.0182   -1.9689 O   0  0  0  0  0  0  0  0  0  0  0  0
   17.0102    1.5807   -2.0849 C   0  0  0  0  0  0  0  0  0  0  0  0
   17.3836    0.3833   -1.4751 C   0  0  0  0  0  0  0  0  0  0  0  0
   18.6922   -0.0790   -1.6449 C   0  0  0  0  0  0  0  0  0  0  0  0
   19.6032    0.6498   -2.4161 C   0  0  0  0  0  0  0  0  0  0  0  0
   19.2067    1.8452   -3.0243 C   0  0  0  0  0  0  0  0  0  0  0  0
   17.9016    2.3197   -2.8627 C   0  0  0  0  0  0  0  0  0  0  0  0
   10.7735    1.2822   -1.1313 C   0  0  0  0  0  0  0  0  0  0  0  0
    9.6574    0.5739   -0.7289 C   0  0  0  0  0  0  0  0  0  0  0  0
    5.3913   -1.4941    0.4108 C   0  0  0  0  0  0  0  0  0  0  0  0
    3.9581   -2.3367    0.8995 S   0  0  0  0  0  0  0  0  0  0  0  0
    1.1162   -0.2873   -0.4641 H   0  0  0  0  0  0  0  0  0  0  0  0
    1.0814   -1.1091    1.1238 H   0  0  0  0  0  0  0  0  0  0  0  0
    1.1161   -2.0736   -0.3697 H   0  0  0  0  0  0  0  0  0  0  0  0
    5.7770    1.6273   -0.4890 H   0  0  0  0  0  0  0  0  0  0  0  0
    5.8277    0.6777   -1.9875 H   0  0  0  0  0  0  0  0  0  0  0  0
    7.2179    2.5567   -2.0883 H   0  0  0  0  0  0  0  0  0  0  0  0
    9.1974    3.8221   -2.8125 H   0  0  0  0  0  0  0  0  0  0  0  0
   13.6107    2.1938   -2.6917 H   0  0  0  0  0  0  0  0  0  0  0  0
   12.3688    4.4207   -0.0567 H   0  0  0  0  0  0  0  0  0  0  0  0
   13.8799    5.2562    1.7389 H   0  0  0  0  0  0  0  0  0  0  0  0
   16.2747    4.5586    1.7877 H   0  0  0  0  0  0  0  0  0  0  0  0
   17.1899    3.0275    0.0545 H   0  0  0  0  0  0  0  0  0  0  0  0
   16.6538   -0.1762   -0.8867 H   0  0  0  0  0  0  0  0  0  0  0  0
   18.9968   -1.0174   -1.1757 H   0  0  0  0  0  0  0  0  0  0  0  0
   20.6232    0.2821   -2.5485 H   0  0  0  0  0  0  0  0  0  0  0  0
   19.9139    2.4120   -3.6342 H   0  0  0  0  0  0  0  0  0  0  0  0
   17.5684    3.2446   -3.3376 H   0  0  0  0  0  0  0  0  0  0  0  0
   11.7578    0.8979   -0.8576 H   0  0  0  0  0  0  0  0  0  0  0  0
    9.7610   -0.3461   -0.1485 H   0  0  0  0  0  0  0  0  0  0  0  0
    6.3906   -1.8450    0.6539 H   0  0  0  0  0  0  0  0  0  0  0  0
  1  2  1  0
  1 31  1  0
  1 32  1  0
  1 33  1  0
  2  3  2  0
  2 30  1  0
  3  4  1  0
  4  5  1  0
  4 29  2  0
  5  6  1  0
  5 34  1  0
  5 35  1  0
  6  7  1  0
  7  8  2  0
  7 28  1  0
  8  9  1  0
  8 36  1  0
  9 10  2  0
  9 37  1  0
 10 11  1  0
 10 27  1  0
 11 12  2  0
 11 13  1  0
 13 14  1  0
 13 38  1  0
 14 15  2  0
 14 19  1  0
 15 16  1  0
 15 39  1  0
 16 17  2  0
 16 40  1  0
 17 18  1  0
 17 41  1  0
 18 19  2  0
 18 42  1  0
 19 20  1  0
 20 21  1  0
 21 22  2  0
 21 26  1  0
 22 23  1  0
 22 43  1  0
 23 24  2  0
 23 44  1  0
 24 25  1  0
 24 45  1  0
 25 26  2  0
 25 46  1  0
 26 47  1  0
 27 28  2  0
 27 48  1  0
 28 49  1  0
 29 30  1  0
 29 50  1  0
M  END

