
     RDKit          3D

 37 39  0  0  0  0  0  0  0  0999 V2000
   13.3469    2.6839   -7.4166 C   0  0  0  0  0  0  0  0  0  0  0  0
   13.2245    1.6556   -6.3861 N   0  0  0  0  0  0  0  0  0  0  0  0
   12.5441    1.9978   -5.1795 C   0  0  0  0  0  0  0  0  0  0  0  0
   12.0651    3.1072   -4.9888 O   0  0  0  0  0  0  0  0  0  0  0  0
   12.5172    0.8902   -4.2812 C   0  0  0  0  0  0  0  0  0  0  0  0
   11.9574    0.7551   -3.0080 N   0  0  0  0  0  0  0  0  0  0  0  0
   11.5091    1.4992   -2.4886 H   0  0  0  0  0  0  0  0  0  0  0  0
   12.2056   -0.5256   -2.6099 C   0  0  0  0  0  0  0  0  0  0  0  0
   11.8293   -1.0048   -1.3953 N   0  0  0  0  0  0  0  0  0  0  0  0
   11.9963   -2.3882   -0.9924 C   0  0  0  0  0  0  0  0  0  0  0  0
   10.6607   -3.1263   -0.9030 C   0  0  2  0  0  0  0  0  0  0  0  0
   10.8543   -4.1279   -0.4703 H   0  0  0  0  0  0  0  0  0  0  0  0
    9.8689   -3.2673   -2.2344 C   0  0  0  0  0  0  0  0  0  0  0  0
    8.5422   -2.5312   -1.9613 C   0  0  0  0  0  0  0  0  0  0  0  0
    8.4749   -2.5437   -0.4322 C   0  0  0  0  0  0  0  0  0  0  0  0
    9.8213   -2.3825   -0.0153 O   0  0  0  0  0  0  0  0  0  0  0  0
   12.8735   -1.2250   -3.5320 N   0  0  0  0  0  0  0  0  0  0  0  0
   13.0638   -0.3480   -4.5524 C   0  0  0  0  0  0  0  0  0  0  0  0
   13.7025   -0.5957   -5.7437 N   0  0  0  0  0  0  0  0  0  0  0  0
   14.2954   -1.8908   -6.0523 C   0  0  0  0  0  0  0  0  0  0  0  0
   13.8002    0.4170   -6.7019 C   0  0  0  0  0  0  0  0  0  0  0  0
   14.3629    0.2233   -7.7647 O   0  0  0  0  0  0  0  0  0  0  0  0
   12.8489    3.5842   -7.0412 H   0  0  0  0  0  0  0  0  0  0  0  0
   12.8775    2.3468   -8.3523 H   0  0  0  0  0  0  0  0  0  0  0  0
   14.4062    2.8915   -7.6281 H   0  0  0  0  0  0  0  0  0  0  0  0
   11.1558   -0.4762   -0.8534 H   0  0  0  0  0  0  0  0  0  0  0  0
   12.4847   -2.4237   -0.0034 H   0  0  0  0  0  0  0  0  0  0  0  0
   12.6604   -2.8800   -1.7153 H   0  0  0  0  0  0  0  0  0  0  0  0
    9.6938   -4.3309   -2.4570 H   0  0  0  0  0  0  0  0  0  0  0  0
   10.4193   -2.8428   -3.0863 H   0  0  0  0  0  0  0  0  0  0  0  0
    7.6726   -3.0099   -2.4358 H   0  0  0  0  0  0  0  0  0  0  0  0
    8.5924   -1.4919   -2.3238 H   0  0  0  0  0  0  0  0  0  0  0  0
    8.0629   -3.5047   -0.0606 H   0  0  0  0  0  0  0  0  0  0  0  0
    7.8791   -1.7269    0.0027 H   0  0  0  0  0  0  0  0  0  0  0  0
   14.1308   -2.5507   -5.1931 H   0  0  0  0  0  0  0  0  0  0  0  0
   15.3729   -1.7829   -6.2454 H   0  0  0  0  0  0  0  0  0  0  0  0
   13.8333   -2.3204   -6.9536 H   0  0  0  0  0  0  0  0  0  0  0  0
  1  2  1  0
  1 23  1  0
  1 24  1  0
  1 25  1  0
  2  3  1  0
  2 21  1  0
  3  4  2  0
  3  5  1  0
  5  6  1  0
  5 18  2  0
  6  7  1  0
  6  8  1  0
  8  9  1  0
  8 17  2  0
  9 10  1  0
  9 26  1  0
 10 11  1  0
 10 27  1  0
 10 28  1  0
 11 12  1  1
 11 13  1  0
 11 16  1  0
 13 14  1  0
 13 29  1  0
 13 30  1  0
 14 15  1  0
 14 31  1  0
 14 32  1  0
 15 16  1  0
 15 33  1  0
 15 34  1  0
 17 18  1  0
 18 19  1  0
 19 20  1  0
 19 21  1  0
 20 35  1  0
 20 36  1  0
 20 37  1  0
 21 22  2  0
M  END

