
     RDKit          3D

 44 45  0  0  0  0  0  0  0  0999 V2000
    2.6886    0.4255    2.1437 O   0  0  0  0  0  0  0  0  0  0  0  0
    2.2426   -0.2816    1.2500 C   0  0  0  0  0  0  0  0  0  0  0  0
    0.7766   -0.4799    1.0268 C   0  0  0  0  0  0  0  0  0  0  0  0
   -0.1131    0.1333    1.8285 C   0  0  0  0  0  0  0  0  0  0  0  0
   -1.5764    0.0360    1.7621 C   0  0  0  0  0  0  0  0  0  0  0  0
   -2.2168   -0.9753    1.0175 C   0  0  0  0  0  0  0  0  0  0  0  0
   -3.6029   -1.0709    0.9543 C   0  0  0  0  0  0  0  0  0  0  0  0
   -4.4008   -0.1547    1.6421 C   0  0  0  0  0  0  0  0  0  0  0  0
   -3.7990    0.8564    2.3948 C   0  0  0  0  0  0  0  0  0  0  0  0
   -4.8190    1.9839    3.2444 Cl  0  0  0  0  0  0  0  0  0  0  0  0
   -2.3970    0.9573    2.4606 C   0  0  0  0  0  0  0  0  0  0  0  0
   -1.6835    2.2391    3.4002 Cl  0  0  0  0  0  0  0  0  0  0  0  0
    3.0422   -0.9532    0.3669 N   0  0  0  0  0  0  0  0  0  0  0  0
    4.4906   -0.9337    0.4417 C   0  0  0  0  0  0  0  0  0  0  0  0
    5.0865   -2.1090    1.2324 C   0  0  0  0  0  0  0  0  0  0  0  0
    4.5284   -3.4826    0.8354 C   0  0  0  0  0  0  0  0  0  0  0  0
    4.4778   -3.7040   -0.6094 N   0  0  0  0  0  0  0  0  0  0  0  0
    5.7780   -3.8091   -1.2774 C   0  0  0  0  0  0  0  0  0  0  0  0
    6.4670   -5.1721   -1.0887 C   0  0  0  0  0  0  0  0  0  0  0  0
    5.5377   -6.3141   -1.5233 C   0  0  0  0  0  0  0  0  0  0  0  0
    4.1719   -6.1974   -0.8323 C   0  0  0  0  0  0  0  0  0  0  0  0
    3.5882   -4.7873   -1.0308 C   0  0  0  0  0  0  0  0  0  0  0  0
    0.4637   -1.1198    0.1952 H   0  0  0  0  0  0  0  0  0  0  0  0
    0.3104    0.7781    2.6027 H   0  0  0  0  0  0  0  0  0  0  0  0
   -1.6047   -1.7108    0.4930 H   0  0  0  0  0  0  0  0  0  0  0  0
   -4.0718   -1.8675    0.3724 H   0  0  0  0  0  0  0  0  0  0  0  0
   -5.4897   -0.2135    1.6088 H   0  0  0  0  0  0  0  0  0  0  0  0
    2.6254   -1.5696   -0.3204 H   0  0  0  0  0  0  0  0  0  0  0  0
    4.7813    0.0138    0.9173 H   0  0  0  0  0  0  0  0  0  0  0  0
    4.8832   -0.9354   -0.5866 H   0  0  0  0  0  0  0  0  0  0  0  0
    4.8887   -1.9643    2.3075 H   0  0  0  0  0  0  0  0  0  0  0  0
    6.1842   -2.0789    1.1195 H   0  0  0  0  0  0  0  0  0  0  0  0
    3.4906   -3.5504    1.2012 H   0  0  0  0  0  0  0  0  0  0  0  0
    5.0935   -4.2642    1.3884 H   0  0  0  0  0  0  0  0  0  0  0  0
    6.4321   -2.9937   -0.9323 H   0  0  0  0  0  0  0  0  0  0  0  0
    5.6156   -3.6393   -2.3586 H   0  0  0  0  0  0  0  0  0  0  0  0
    6.7467   -5.3049   -0.0283 H   0  0  0  0  0  0  0  0  0  0  0  0
    7.4089   -5.1939   -1.6629 H   0  0  0  0  0  0  0  0  0  0  0  0
    5.9988   -7.2944   -1.3167 H   0  0  0  0  0  0  0  0  0  0  0  0
    5.3927   -6.2637   -2.6191 H   0  0  0  0  0  0  0  0  0  0  0  0
    4.2806   -6.4061    0.2470 H   0  0  0  0  0  0  0  0  0  0  0  0
    3.4682   -6.9506   -1.2263 H   0  0  0  0  0  0  0  0  0  0  0  0
    2.6289   -4.6860   -0.4965 H   0  0  0  0  0  0  0  0  0  0  0  0
    3.3693   -4.6454   -2.1066 H   0  0  0  0  0  0  0  0  0  0  0  0
  1  2  2  0
  2  3  1  0
  2 13  1  0
  3  4  2  0
  3 23  1  0
  4  5  1  0
  4 24  1  0
  5  6  2  0
  5 11  1  0
  6  7  1  0
  6 25  1  0
  7  8  2  0
  7 26  1  0
  8  9  1  0
  8 27  1  0
  9 10  1  0
  9 11  2  0
 11 12  1  0
 13 14  1  0
 13 28  1  0
 14 15  1  0
 14 29  1  0
 14 30  1  0
 15 16  1  0
 15 31  1  0
 15 32  1  0
 16 17  1  0
 16 33  1  0
 16 34  1  0
 17 18  1  0
 17 22  1  0
 18 19  1  0
 18 35  1  0
 18 36  1  0
 19 20  1  0
 19 37  1  0
 19 38  1  0
 20 21  1  0
 20 39  1  0
 20 40  1  0
 21 22  1  0
 21 41  1  0
 21 42  1  0
 22 43  1  0
 22 44  1  0
M  END

