
     RDKit          3D

 40 41  0  0  0  0  0  0  0  0999 V2000
    2.7421    2.8855   -0.1486 C   0  0  0  0  0  0  0  0  0  0  0  0
    2.7439    1.5227   -0.8420 C   0  0  0  0  0  0  0  0  0  0  0  0
    4.0337    1.2601   -1.6017 C   0  0  0  0  0  0  0  0  0  0  0  0
    3.9439   -0.0315   -2.2028 O   0  0  0  0  0  0  0  0  0  0  0  0
    4.9661   -0.4183   -2.9961 C   0  0  0  0  0  0  0  0  0  0  0  0
    6.0017    0.3194   -3.2273 N   0  0  0  0  0  0  0  0  0  0  0  0
    7.0237   -0.1049   -4.0372 C   0  0  0  0  0  0  0  0  0  0  0  0
    7.1665   -1.4423   -4.3522 N   0  0  0  0  0  0  0  0  0  0  0  0
    6.1236   -2.2138   -4.1192 C   0  0  0  0  0  0  0  0  0  0  0  0
    6.1621   -3.5309   -4.5222 N   0  0  0  0  0  0  0  0  0  0  0  0
    7.2545   -4.1503   -5.2191 C   0  0  1  0  0  0  0  0  0  0  0  0
    7.5052   -5.6047   -4.7637 C   0  0  0  0  0  0  0  0  0  0  0  0
    8.2265   -6.2940   -5.9526 C   0  0  0  0  0  0  0  0  0  0  0  0
    8.2106   -5.2636   -7.1078 C   0  0  0  0  0  0  0  0  0  0  0  0
    7.0866   -4.2744   -6.7609 C   0  0  2  0  0  0  0  0  0  0  0  0
    7.1158   -2.9572   -7.5256 C   0  0  0  0  0  0  0  0  0  0  0  0
    4.8933   -1.7889   -3.5149 C   0  0  0  0  0  0  0  0  0  0  0  0
    4.0051   -2.7422   -3.0038 N   0  0  0  0  0  0  0  0  0  0  0  0
    1.7993    3.0540    0.3944 H   0  0  0  0  0  0  0  0  0  0  0  0
    2.8590    3.7079   -0.8739 H   0  0  0  0  0  0  0  0  0  0  0  0
    3.5649    2.9688    0.5809 H   0  0  0  0  0  0  0  0  0  0  0  0
    1.8978    1.4514   -1.5470 H   0  0  0  0  0  0  0  0  0  0  0  0
    2.5994    0.7174   -0.1011 H   0  0  0  0  0  0  0  0  0  0  0  0
    4.9115    1.2944   -0.9318 H   0  0  0  0  0  0  0  0  0  0  0  0
    4.2062    2.0185   -2.3862 H   0  0  0  0  0  0  0  0  0  0  0  0
    7.8392    0.5830   -4.2534 H   0  0  0  0  0  0  0  0  0  0  0  0
    5.2785   -4.0270   -4.4242 H   0  0  0  0  0  0  0  0  0  0  0  0
    8.1342   -3.5154   -5.0262 H   0  0  0  0  0  0  0  0  0  0  0  0
    6.5363   -6.0940   -4.5625 H   0  0  0  0  0  0  0  0  0  0  0  0
    8.0768   -5.6389   -3.8241 H   0  0  0  0  0  0  0  0  0  0  0  0
    7.6986   -7.2166   -6.2397 H   0  0  0  0  0  0  0  0  0  0  0  0
    9.2535   -6.5911   -5.6918 H   0  0  0  0  0  0  0  0  0  0  0  0
    8.0726   -5.7275   -8.0970 H   0  0  0  0  0  0  0  0  0  0  0  0
    9.1672   -4.7140   -7.1432 H   0  0  0  0  0  0  0  0  0  0  0  0
    6.1132   -4.7739   -6.9385 H   0  0  0  0  0  0  0  0  0  0  0  0
    8.0543   -2.4112   -7.3385 H   0  0  0  0  0  0  0  0  0  0  0  0
    6.2886   -2.2962   -7.2253 H   0  0  0  0  0  0  0  0  0  0  0  0
    7.0310   -3.1329   -8.6108 H   0  0  0  0  0  0  0  0  0  0  0  0
    4.2497   -3.1819   -2.1070 H   0  0  0  0  0  0  0  0  0  0  0  0
    3.0286   -2.4560   -2.9898 H   0  0  0  0  0  0  0  0  0  0  0  0
  1  2  1  0
  1 19  1  0
  1 20  1  0
  1 21  1  0
  2  3  1  0
  2 22  1  0
  2 23  1  0
  3  4  1  0
  3 24  1  0
  3 25  1  0
  4  5  1  0
  5  6  2  0
  5 17  1  0
  6  7  1  0
  7  8  2  0
  7 26  1  0
  8  9  1  0
  9 10  1  0
  9 17  2  0
 10 11  1  0
 10 27  1  0
 11 12  1  0
 11 15  1  0
 11 28  1  6
 12 13  1  0
 12 29  1  0
 12 30  1  0
 13 14  1  0
 13 31  1  0
 13 32  1  0
 14 15  1  0
 14 33  1  0
 14 34  1  0
 15 16  1  0
 15 35  1  1
 16 36  1  0
 16 37  1  0
 16 38  1  0
 17 18  1  0
 18 39  1  0
 18 40  1  0
M  END

