
     RDKit          3D

 29 30  0  0  0  0  0  0  0  0999 V2000
    2.9413   -0.8511    1.1318 N   0  0  0  0  0  0  0  0  0  0  0  0
    2.1787    0.0916    0.3247 C   0  0  0  0  0  0  0  0  0  0  0  0
    2.8283    1.4640    0.2710 C   0  0  0  0  0  0  0  0  0  0  0  0
    2.0532    2.6153    0.0704 C   0  0  0  0  0  0  0  0  0  0  0  0
    2.6495    3.8789   -0.0072 C   0  0  0  0  0  0  0  0  0  0  0  0
    4.0298    4.0091    0.1256 C   0  0  0  0  0  0  0  0  0  0  0  0
    4.8256    2.8654    0.3148 C   0  0  0  0  0  0  0  0  0  0  0  0
    6.2959    3.0625    0.5137 C   0  0  0  0  0  0  0  0  0  0  0  0
    6.7457    4.1481    0.8345 O   0  0  0  0  0  0  0  0  0  0  0  0
    7.2538    1.9013    0.3646 C   0  0  0  0  0  0  0  0  0  0  0  0
    8.3072    1.8057    1.2905 C   0  0  0  0  0  0  0  0  0  0  0  0
    9.2507    0.7859    1.1883 C   0  0  0  0  0  0  0  0  0  0  0  0
   10.6457    0.6540    2.4804 Br  0  0  0  0  0  0  0  0  0  0  0  0
    9.1891   -0.1433    0.1433 C   0  0  0  0  0  0  0  0  0  0  0  0
    8.1700   -0.0395   -0.8030 C   0  0  0  0  0  0  0  0  0  0  0  0
    7.2193    0.9726   -0.6838 C   0  0  0  0  0  0  0  0  0  0  0  0
    6.2722    1.0614   -1.6278 F   0  0  0  0  0  0  0  0  0  0  0  0
    4.2167    1.6031    0.3890 C   0  0  0  0  0  0  0  0  0  0  0  0
    2.5710   -1.7950    1.0321 H   0  0  0  0  0  0  0  0  0  0  0  0
    2.8807   -0.6102    2.1217 H   0  0  0  0  0  0  0  0  0  0  0  0
    1.1206    0.2189    0.6382 H   0  0  0  0  0  0  0  0  0  0  0  0
    2.1363   -0.3117   -0.7041 H   0  0  0  0  0  0  0  0  0  0  0  0
    0.9662    2.5236   -0.0193 H   0  0  0  0  0  0  0  0  0  0  0  0
    2.0283    4.7652   -0.1599 H   0  0  0  0  0  0  0  0  0  0  0  0
    4.5155    4.9860    0.0925 H   0  0  0  0  0  0  0  0  0  0  0  0
    8.3664    2.5490    2.0865 H   0  0  0  0  0  0  0  0  0  0  0  0
    9.9350   -0.9356    0.0650 H   0  0  0  0  0  0  0  0  0  0  0  0
    8.1022   -0.7324   -1.6439 H   0  0  0  0  0  0  0  0  0  0  0  0
    4.8046    0.7017    0.5667 H   0  0  0  0  0  0  0  0  0  0  0  0
  1  2  1  0
  1 19  1  0
  1 20  1  0
  2  3  1  0
  2 21  1  0
  2 22  1  0
  3  4  2  0
  3 18  1  0
  4  5  1  0
  4 23  1  0
  5  6  2  0
  5 24  1  0
  6  7  1  0
  6 25  1  0
  7  8  1  0
  7 18  2  0
  8  9  2  0
  8 10  1  0
 10 11  2  0
 10 16  1  0
 11 12  1  0
 11 26  1  0
 12 13  1  0
 12 14  2  0
 14 15  1  0
 14 27  1  0
 15 16  2  0
 15 28  1  0
 16 17  1  0
 18 29  1  0
M  END

