
     RDKit          3D

 50 51  0  0  0  0  0  0  0  0999 V2000
   -1.2112    3.8189   -5.9042 C   0  0  0  0  0  0  0  0  0  0  0  0
   -0.5559    2.7801   -5.1629 O   0  0  0  0  0  0  0  0  0  0  0  0
    0.6099    2.2867   -5.5149 C   0  0  0  0  0  0  0  0  0  0  0  0
    1.3520    2.7282   -6.6550 C   0  0  0  0  0  0  0  0  0  0  0  0
    2.5614    2.1209   -6.9142 C   0  0  0  0  0  0  0  0  0  0  0  0
    3.0490    1.0850   -6.0782 C   0  0  0  0  0  0  0  0  0  0  0  0
    2.3138    0.6364   -4.9353 C   0  0  0  0  0  0  0  0  0  0  0  0
    2.8990   -0.4623   -4.0611 C   0  0  0  0  0  0  0  0  0  0  0  0
    3.2354   -1.6635   -4.7914 N   0  0  0  0  0  0  0  0  0  0  0  0
    4.5932   -1.8050   -5.2293 C   0  0  0  0  0  0  0  0  0  0  0  0
    5.2430   -0.7441   -5.3933 O   0  0  0  0  0  0  0  0  0  0  0  0
    5.0933   -3.1244   -5.4601 C   0  0  0  0  0  0  0  0  0  0  0  0
    6.4739   -3.3000   -5.8662 C   0  0  0  0  0  0  0  0  0  0  0  0
    7.0169   -4.5547   -6.0402 C   0  0  0  0  0  0  0  0  0  0  0  0
    6.2542   -5.7355   -5.8539 C   0  0  0  0  0  0  0  0  0  0  0  0
    4.8903   -5.5599   -5.5005 C   0  0  0  0  0  0  0  0  0  0  0  0
    3.8492   -6.9894   -5.2809 S   0  0  1  0  0  0  0  0  0  0  0  0
    4.7074   -8.1608   -5.0393 O   0  0  0  0  0  0  0  0  0  0  0  0
    2.7786   -6.6746   -4.3181 O   0  0  0  0  0  0  0  0  0  0  0  0
    3.0664   -7.1672   -6.8021 N   0  0  0  0  0  0  0  0  0  0  0  0
    3.9724   -7.6146   -7.8572 C   0  0  0  0  0  0  0  0  0  0  0  0
    1.7298   -7.8193   -6.8123 C   0  0  1  0  0  0  0  0  0  0  0  0
    1.6630   -9.1481   -6.0430 C   0  0  0  0  0  0  0  0  0  0  0  0
    0.6120   -6.8495   -6.4141 C   0  0  0  0  0  0  0  0  0  0  0  0
    4.3157   -4.3188   -5.3046 C   0  0  0  0  0  0  0  0  0  0  0  0
    1.1097    1.2430   -4.6663 C   0  0  0  0  0  0  0  0  0  0  0  0
   -2.1532    4.0063   -5.3789 H   0  0  0  0  0  0  0  0  0  0  0  0
   -1.4137    3.4844   -6.9315 H   0  0  0  0  0  0  0  0  0  0  0  0
   -0.5961    4.7301   -5.9091 H   0  0  0  0  0  0  0  0  0  0  0  0
    0.9723    3.5199   -7.2988 H   0  0  0  0  0  0  0  0  0  0  0  0
    3.1566    2.4345   -7.7730 H   0  0  0  0  0  0  0  0  0  0  0  0
    4.0142    0.5952   -6.2540 H   0  0  0  0  0  0  0  0  0  0  0  0
    2.1740   -0.6962   -3.2668 H   0  0  0  0  0  0  0  0  0  0  0  0
    3.7950   -0.0303   -3.5772 H   0  0  0  0  0  0  0  0  0  0  0  0
    2.8274   -2.5011   -4.3950 H   0  0  0  0  0  0  0  0  0  0  0  0
    7.0761   -2.4026   -6.0099 H   0  0  0  0  0  0  0  0  0  0  0  0
    8.0698   -4.6466   -6.3234 H   0  0  0  0  0  0  0  0  0  0  0  0
    6.6856   -6.7308   -5.9333 H   0  0  0  0  0  0  0  0  0  0  0  0
    4.9047   -7.0342   -7.8213 H   0  0  0  0  0  0  0  0  0  0  0  0
    3.4992   -7.4234   -8.8335 H   0  0  0  0  0  0  0  0  0  0  0  0
    4.2334   -8.6879   -7.7895 H   0  0  0  0  0  0  0  0  0  0  0  0
    1.5805   -8.0533   -7.8805 H   0  0  0  0  0  0  0  0  0  0  0  0
    1.7614   -8.9787   -4.9614 H   0  0  0  0  0  0  0  0  0  0  0  0
    2.4678   -9.8318   -6.3532 H   0  0  0  0  0  0  0  0  0  0  0  0
    0.6981   -9.6477   -6.2298 H   0  0  0  0  0  0  0  0  0  0  0  0
    0.6794   -6.5898   -5.3499 H   0  0  0  0  0  0  0  0  0  0  0  0
   -0.3718   -7.3082   -6.6084 H   0  0  0  0  0  0  0  0  0  0  0  0
    0.6865   -5.9226   -7.0041 H   0  0  0  0  0  0  0  0  0  0  0  0
    3.2582   -4.2911   -5.0391 H   0  0  0  0  0  0  0  0  0  0  0  0
    0.4900    0.9551   -3.8156 H   0  0  0  0  0  0  0  0  0  0  0  0
  1  2  1  0
  1 27  1  0
  1 28  1  0
  1 29  1  0
  2  3  1  0
  3  4  2  0
  3 26  1  0
  4  5  1  0
  4 30  1  0
  5  6  2  0
  5 31  1  0
  6  7  1  0
  6 32  1  0
  7  8  1  0
  7 26  2  0
  8  9  1  0
  8 33  1  0
  8 34  1  0
  9 10  1  0
  9 35  1  0
 10 11  2  0
 10 12  1  0
 12 13  2  0
 12 25  1  0
 13 14  1  0
 13 36  1  0
 14 15  2  0
 14 37  1  0
 15 16  1  0
 15 38  1  0
 16 17  1  0
 16 25  2  0
 17 18  2  0
 17 19  2  0
 17 20  1  6
 20 21  1  0
 20 22  1  0
 21 39  1  0
 21 40  1  0
 21 41  1  0
 22 23  1  0
 22 24  1  0
 22 42  1  6
 23 43  1  0
 23 44  1  0
 23 45  1  0
 24 46  1  0
 24 47  1  0
 24 48  1  0
 25 49  1  0
 26 50  1  0
M  END

