
     RDKit          3D

 60 63  0  0  0  0  0  0  0  0999 V2000
    7.1640   -1.8288    5.0944 C   0  0  0  0  0  0  0  0  0  0  0  0
    6.8586   -0.9311    4.0468 O   0  0  0  0  0  0  0  0  0  0  0  0
    5.9987   -1.3076    3.0746 C   0  0  0  0  0  0  0  0  0  0  0  0
    5.7524   -0.3549    2.0643 C   0  0  0  0  0  0  0  0  0  0  0  0
    4.8847   -0.6557    1.0234 C   0  0  0  0  0  0  0  0  0  0  0  0
    4.2395   -1.9018    0.9679 C   0  0  0  0  0  0  0  0  0  0  0  0
    4.4801   -2.8519    1.9656 C   0  0  0  0  0  0  0  0  0  0  0  0
    3.8124   -4.2293    1.8984 C   0  0  1  0  0  0  0  0  0  0  0  0
    4.7819   -5.3821    1.7256 C   0  0  0  0  0  0  0  0  0  0  0  0
    5.6351   -5.5573    0.5976 C   0  0  0  0  0  0  0  0  0  0  0  0
    6.0440   -4.4631   -0.0991 O   0  0  0  0  0  0  0  0  0  0  0  0
    6.2131   -6.7975    0.1598 C   0  0  0  0  0  0  0  0  0  0  0  0
    7.4948   -6.7831   -0.4557 C   0  0  0  0  0  0  0  0  0  0  0  0
    8.1188   -7.9565   -0.8401 C   0  0  0  0  0  0  0  0  0  0  0  0
    9.7140   -7.9008   -1.5532 Cl  0  0  0  0  0  0  0  0  0  0  0  0
    7.5032   -9.2162   -0.6624 C   0  0  0  0  0  0  0  0  0  0  0  0
    8.1023  -10.3587   -1.0739 O   0  0  0  0  0  0  0  0  0  0  0  0
    8.8999  -11.0401   -0.1099 C   0  0  0  0  0  0  0  0  0  0  0  0
    6.2128   -9.2305   -0.0971 C   0  0  0  0  0  0  0  0  0  0  0  0
    5.4007  -10.7650    0.0728 Cl  0  0  0  0  0  0  0  0  0  0  0  0
    5.5474   -8.0585    0.2892 C   0  0  0  0  0  0  0  0  0  0  0  0
    4.2587   -8.1234    0.7247 O   0  0  0  0  0  0  0  0  0  0  0  0
    3.2634   -8.1147   -0.2907 C   0  0  0  0  0  0  0  0  0  0  0  0
    4.7427   -6.2427    2.8225 C   0  0  0  0  0  0  0  0  0  0  0  0
    5.3934   -7.2382    3.1556 O   0  0  0  0  0  0  0  0  0  0  0  0
    3.5487   -5.7241    3.7239 C   0  0  0  0  0  0  0  0  0  0  0  0
    3.1549   -6.2640    4.7262 O   0  0  0  0  0  0  0  0  0  0  0  0
    3.1019   -4.5656    3.1431 N   0  0  0  0  0  0  0  0  0  0  0  0
    2.0327   -3.7857    3.6593 C   0  0  0  0  0  0  0  0  0  0  0  0
    1.6663   -3.8413    5.0152 C   0  0  0  0  0  0  0  0  0  0  0  0
    0.6105   -3.0541    5.4769 C   0  0  0  0  0  0  0  0  0  0  0  0
   -0.0924   -2.2072    4.6205 C   0  0  0  0  0  0  0  0  0  0  0  0
    0.2849   -2.1581    3.2792 C   0  0  0  0  0  0  0  0  0  0  0  0
   -0.4338   -1.2656    2.4882 O   0  0  0  0  0  0  0  0  0  0  0  0
   -0.6170   -1.4592    1.1659 C   0  0  1  0  0  0  0  0  0  0  0  0
   -1.0634   -2.6894    0.8846 F   0  0  0  0  0  0  0  0  0  0  0  0
   -1.5055   -0.5717    0.7460 F   0  0  0  0  0  0  0  0  0  0  0  0
    0.5159   -1.2789    0.4552 F   0  0  0  0  0  0  0  0  0  0  0  0
    1.3359   -2.9310    2.7864 C   0  0  0  0  0  0  0  0  0  0  0  0
    5.3672   -2.5567    3.0160 C   0  0  0  0  0  0  0  0  0  0  0  0
    7.8700   -1.3079    5.7542 H   0  0  0  0  0  0  0  0  0  0  0  0
    7.6395   -2.7515    4.7174 H   0  0  0  0  0  0  0  0  0  0  0  0
    6.2644   -2.1007    5.6747 H   0  0  0  0  0  0  0  0  0  0  0  0
    6.2605    0.6092    2.1270 H   0  0  0  0  0  0  0  0  0  0  0  0
    4.6964    0.0870    0.2445 H   0  0  0  0  0  0  0  0  0  0  0  0
    3.5488   -2.1231    0.1502 H   0  0  0  0  0  0  0  0  0  0  0  0
    3.0886   -4.2204    1.0661 H   0  0  0  0  0  0  0  0  0  0  0  0
    5.8513   -3.6497    0.3953 H   0  0  0  0  0  0  0  0  0  0  0  0
    8.0051   -5.8312   -0.5937 H   0  0  0  0  0  0  0  0  0  0  0  0
    9.2965  -11.9358   -0.6071 H   0  0  0  0  0  0  0  0  0  0  0  0
    8.2969  -11.3467    0.7614 H   0  0  0  0  0  0  0  0  0  0  0  0
    9.7410  -10.4105    0.2263 H   0  0  0  0  0  0  0  0  0  0  0  0
    3.3571   -8.9904   -0.9547 H   0  0  0  0  0  0  0  0  0  0  0  0
    3.3176   -7.1928   -0.8973 H   0  0  0  0  0  0  0  0  0  0  0  0
    2.2909   -8.1562    0.2193 H   0  0  0  0  0  0  0  0  0  0  0  0
    2.1954   -4.5002    5.6995 H   0  0  0  0  0  0  0  0  0  0  0  0
    0.3311   -3.1056    6.5316 H   0  0  0  0  0  0  0  0  0  0  0  0
   -0.9203   -1.5879    4.9677 H   0  0  0  0  0  0  0  0  0  0  0  0
    1.6088   -2.8649    1.7388 H   0  0  0  0  0  0  0  0  0  0  0  0
    5.5585   -3.3146    3.7757 H   0  0  0  0  0  0  0  0  0  0  0  0
  1  2  1  0
  1 41  1  0
  1 42  1  0
  1 43  1  0
  2  3  1  0
  3  4  2  0
  3 40  1  0
  4  5  1  0
  4 44  1  0
  5  6  2  0
  5 45  1  0
  6  7  1  0
  6 46  1  0
  7  8  1  0
  7 40  2  0
  8  9  1  0
  8 28  1  0
  8 47  1  6
  9 10  2  0
  9 24  1  0
 10 11  1  0
 10 12  1  0
 11 48  1  0
 12 13  2  0
 12 21  1  0
 13 14  1  0
 13 49  1  0
 14 15  1  0
 14 16  2  0
 16 17  1  0
 16 19  1  0
 17 18  1  0
 18 50  1  0
 18 51  1  0
 18 52  1  0
 19 20  1  0
 19 21  2  0
 21 22  1  0
 22 23  1  0
 23 53  1  0
 23 54  1  0
 23 55  1  0
 24 25  2  0
 24 26  1  0
 26 27  2  0
 26 28  1  0
 28 29  1  0
 29 30  2  0
 29 39  1  0
 30 31  1  0
 30 56  1  0
 31 32  2  0
 31 57  1  0
 32 33  1  0
 32 58  1  0
 33 34  1  0
 33 39  2  0
 34 35  1  0
 35 36  1  1
 35 37  1  0
 35 38  1  0
 39 59  1  0
 40 60  1  0
M  END

