
     RDKit          3D

 72 75  0  0  0  0  0  0  0  0999 V2000
    1.9181    3.4786    5.0071 C   0  0  0  0  0  0  0  0  0  0  0  0
    3.2379    3.3363    4.5538 O   0  0  0  0  0  0  0  0  0  0  0  0
    3.6294    2.0055    4.3462 C   0  0  0  0  0  0  0  0  0  0  0  0
    5.0686    2.0316    3.8625 C   0  0  0  0  0  0  0  0  0  0  0  0
    5.4539    0.6749    3.6288 O   0  0  0  0  0  0  0  0  0  0  0  0
    6.6901    0.4238    3.1742 C   0  0  0  0  0  0  0  0  0  0  0  0
    7.5130    1.4406    2.9734 N   0  0  0  0  0  0  0  0  0  0  0  0
    8.7388    1.2071    2.4980 C   0  0  0  0  0  0  0  0  0  0  0  0
    9.1930   -0.0754    2.2016 C   0  0  0  0  0  0  0  0  0  0  0  0
   10.5757   -0.3296    1.6708 C   0  0  1  0  0  0  0  0  0  0  0  0
   11.2751    0.8058    1.5150 F   0  0  0  0  0  0  0  0  0  0  0  0
   11.2832   -1.1304    2.4922 F   0  0  0  0  0  0  0  0  0  0  0  0
   10.5391   -0.9482    0.4738 F   0  0  0  0  0  0  0  0  0  0  0  0
    8.3219   -1.1524    2.4279 C   0  0  0  0  0  0  0  0  0  0  0  0
    7.0348   -0.9390    2.9199 C   0  0  0  0  0  0  0  0  0  0  0  0
    6.1035   -2.0632    3.1361 C   0  0  0  0  0  0  0  0  0  0  0  0
    6.0228   -3.1531    2.3467 C   0  0  0  0  0  0  0  0  0  0  0  0
    5.0515   -4.2080    2.8234 C   0  0  2  0  0  0  0  0  0  0  0  0
    5.7860   -5.5383    3.1144 C   0  0  0  0  0  0  0  0  0  0  0  0
    4.8011   -6.6362    3.4944 C   0  0  0  0  0  0  0  0  0  0  0  0
    3.8368   -6.8948    2.3525 C   0  0  0  0  0  0  0  0  0  0  0  0
    3.1663   -5.6729    1.8690 N   0  0  0  0  0  0  0  0  0  0  0  0
    2.1860   -5.8510    0.8995 C   0  0  0  0  0  0  0  0  0  0  0  0
    1.9085   -5.0252    0.0536 O   0  0  0  0  0  0  0  0  0  0  0  0
    1.5935   -7.0557    1.0199 O   0  0  0  0  0  0  0  0  0  0  0  0
    0.5162   -7.4841    0.1212 C   0  0  1  0  0  0  0  0  0  0  0  0
    1.0284   -7.5561   -1.3213 C   0  0  0  0  0  0  0  0  0  0  0  0
    0.1764   -8.8819    0.6431 C   0  0  0  0  0  0  0  0  0  0  0  0
   -0.6873   -6.5463    0.2604 C   0  0  0  0  0  0  0  0  0  0  0  0
    3.9028   -4.3962    1.7533 C   0  0  1  0  0  0  0  0  0  0  0  0
    4.4171   -4.3811    0.7726 H   0  0  0  0  0  0  0  0  0  0  0  0
    2.9601   -3.1915    1.7794 C   0  0  0  0  0  0  0  0  0  0  0  0
    1.8881   -3.1188    2.6822 C   0  0  0  0  0  0  0  0  0  0  0  0
    1.0719   -1.9858    2.7287 C   0  0  0  0  0  0  0  0  0  0  0  0
    1.3145   -0.9046    1.8754 C   0  0  0  0  0  0  0  0  0  0  0  0
    2.3786   -0.9697    0.9706 C   0  0  0  0  0  0  0  0  0  0  0  0
    3.1903   -2.1057    0.9239 C   0  0  0  0  0  0  0  0  0  0  0  0
    4.5633   -3.5772    4.1619 C   0  0  0  0  0  0  0  0  0  0  0  0
    3.8873   -4.1233    4.9989 O   0  0  0  0  0  0  0  0  0  0  0  0
    5.1374   -2.1689    4.2936 C   0  0  0  0  0  0  0  0  0  0  0  0
    1.7198    4.5530    5.1324 H   0  0  0  0  0  0  0  0  0  0  0  0
    1.7566    2.9738    5.9814 H   0  0  0  0  0  0  0  0  0  0  0  0
    1.1842    3.0657    4.2854 H   0  0  0  0  0  0  0  0  0  0  0  0
    2.9893    1.5029    3.5917 H   0  0  0  0  0  0  0  0  0  0  0  0
    3.5557    1.4105    5.2810 H   0  0  0  0  0  0  0  0  0  0  0  0
    5.7290    2.4955    4.6116 H   0  0  0  0  0  0  0  0  0  0  0  0
    5.1586    2.6193    2.9359 H   0  0  0  0  0  0  0  0  0  0  0  0
    9.3857    2.0767    2.3502 H   0  0  0  0  0  0  0  0  0  0  0  0
    8.6557   -2.1742    2.2352 H   0  0  0  0  0  0  0  0  0  0  0  0
    6.6000   -3.2916    1.4283 H   0  0  0  0  0  0  0  0  0  0  0  0
    6.5299   -5.3723    3.9105 H   0  0  0  0  0  0  0  0  0  0  0  0
    6.3535   -5.8328    2.2118 H   0  0  0  0  0  0  0  0  0  0  0  0
    4.2506   -6.3410    4.3987 H   0  0  0  0  0  0  0  0  0  0  0  0
    5.3354   -7.5744    3.7167 H   0  0  0  0  0  0  0  0  0  0  0  0
    3.0589   -7.6013    2.6619 H   0  0  0  0  0  0  0  0  0  0  0  0
    4.3867   -7.3713    1.5142 H   0  0  0  0  0  0  0  0  0  0  0  0
    1.9234   -8.1958   -1.3783 H   0  0  0  0  0  0  0  0  0  0  0  0
    1.2800   -6.5590   -1.7032 H   0  0  0  0  0  0  0  0  0  0  0  0
    0.2535   -7.9980   -1.9672 H   0  0  0  0  0  0  0  0  0  0  0  0
    1.0525   -9.5451    0.5787 H   0  0  0  0  0  0  0  0  0  0  0  0
   -0.6381   -9.3228    0.0486 H   0  0  0  0  0  0  0  0  0  0  0  0
   -0.1451   -8.8354    1.6946 H   0  0  0  0  0  0  0  0  0  0  0  0
   -0.4431   -5.5365   -0.0921 H   0  0  0  0  0  0  0  0  0  0  0  0
   -1.0073   -6.4876    1.3125 H   0  0  0  0  0  0  0  0  0  0  0  0
   -1.5305   -6.9355   -0.3316 H   0  0  0  0  0  0  0  0  0  0  0  0
    1.6904   -3.9598    3.3490 H   0  0  0  0  0  0  0  0  0  0  0  0
    0.2376   -1.9506    3.4344 H   0  0  0  0  0  0  0  0  0  0  0  0
    0.6703   -0.0218    1.9063 H   0  0  0  0  0  0  0  0  0  0  0  0
    2.5707   -0.1379    0.2878 H   0  0  0  0  0  0  0  0  0  0  0  0
    4.0036   -2.1572    0.1956 H   0  0  0  0  0  0  0  0  0  0  0  0
    5.6006   -2.0330    5.2857 H   0  0  0  0  0  0  0  0  0  0  0  0
    4.3188   -1.4346    4.2272 H   0  0  0  0  0  0  0  0  0  0  0  0
  1  2  1  0
  1 41  1  0
  1 42  1  0
  1 43  1  0
  2  3  1  0
  3  4  1  0
  3 44  1  0
  3 45  1  0
  4  5  1  0
  4 46  1  0
  4 47  1  0
  5  6  1  0
  6  7  2  0
  6 15  1  0
  7  8  1  0
  8  9  2  0
  8 48  1  0
  9 10  1  0
  9 14  1  0
 10 11  1  6
 10 12  1  0
 10 13  1  0
 14 15  2  0
 14 49  1  0
 15 16  1  0
 16 17  2  0
 16 40  1  0
 18 17  1  6
 17 50  1  0
 18 19  1  0
 18 30  1  0
 18 38  1  0
 19 20  1  0
 19 51  1  0
 19 52  1  0
 20 21  1  0
 20 53  1  0
 20 54  1  0
 21 22  1  0
 21 55  1  0
 21 56  1  0
 22 23  1  0
 22 30  1  0
 23 24  2  0
 23 25  1  0
 26 25  1  1
 26 27  1  0
 26 28  1  0
 26 29  1  0
 27 57  1  0
 27 58  1  0
 27 59  1  0
 28 60  1  0
 28 61  1  0
 28 62  1  0
 29 63  1  0
 29 64  1  0
 29 65  1  0
 30 31  1  6
 30 32  1  0
 32 33  2  0
 32 37  1  0
 33 34  1  0
 33 66  1  0
 34 35  2  0
 34 67  1  0
 35 36  1  0
 35 68  1  0
 36 37  2  0
 36 69  1  0
 37 70  1  0
 38 39  2  0
 38 40  1  0
 40 71  1  0
 40 72  1  0
M  END

