
     RDKit          3D

 55 57  0  0  0  0  0  0  0  0999 V2000
    1.4881    1.1083    0.4794 C   0  0  0  0  0  0  0  0  0  0  0  0
    2.5124    0.3035   -0.0637 O   0  0  0  0  0  0  0  0  0  0  0  0
    3.2413    0.7779   -1.0946 C   0  0  0  0  0  0  0  0  0  0  0  0
    3.0811    2.0357   -1.6601 C   0  0  0  0  0  0  0  0  0  0  0  0
    3.8796    2.4554   -2.7520 C   0  0  0  0  0  0  0  0  0  0  0  0
    3.7714    3.7704   -3.3623 C   0  0  0  0  0  0  0  0  0  0  0  0
    2.7244    4.7575   -2.9308 C   0  0  0  0  0  0  0  0  0  0  0  0
    1.5714    4.3927   -2.7286 O   0  0  0  0  0  0  0  0  0  0  0  0
    3.0887    6.0881   -2.8284 N   0  0  0  0  0  0  0  0  0  0  0  0
    2.0302    7.0816   -2.6324 C   0  0  0  0  0  0  0  0  0  0  0  0
    2.0657    7.6886   -1.2259 C   0  0  0  0  0  0  0  0  0  0  0  0
    3.4546    8.2578   -0.9130 C   0  0  0  0  0  0  0  0  0  0  0  0
    4.5367    7.1990   -1.1506 C   0  0  0  0  0  0  0  0  0  0  0  0
    4.4369    6.5883   -2.5573 C   0  0  0  0  0  0  0  0  0  0  0  0
    4.5586    4.0460   -4.4435 C   0  0  0  0  0  0  0  0  0  0  0  0
    5.4681    3.1648   -4.9716 N   0  0  0  0  0  0  0  0  0  0  0  0
    6.2508    3.5606   -6.1479 C   0  0  0  0  0  0  0  0  0  0  0  0
    7.4241    4.5134   -5.8467 C   0  0  1  0  0  0  0  0  0  0  0  0
    8.4257    3.9178   -4.8516 C   0  0  0  0  0  0  0  0  0  0  0  0
    8.1039    4.9092   -7.1634 C   0  0  0  0  0  0  0  0  0  0  0  0
    5.6862    1.8867   -4.4208 C   0  0  0  0  0  0  0  0  0  0  0  0
    6.5235    1.1328   -4.9032 O   0  0  0  0  0  0  0  0  0  0  0  0
    4.8397    1.5550   -3.2664 C   0  0  0  0  0  0  0  0  0  0  0  0
    5.0052    0.2777   -2.6862 C   0  0  0  0  0  0  0  0  0  0  0  0
    4.2307   -0.1222   -1.6107 C   0  0  0  0  0  0  0  0  0  0  0  0
    4.3137   -1.3198   -0.9892 O   0  0  0  0  0  0  0  0  0  0  0  0
    5.2544   -2.2589   -1.4596 C   0  0  0  0  0  0  0  0  0  0  0  0
    1.0226    0.5189    1.2806 H   0  0  0  0  0  0  0  0  0  0  0  0
    0.7239    1.3621   -0.2760 H   0  0  0  0  0  0  0  0  0  0  0  0
    1.8870    2.0456    0.9069 H   0  0  0  0  0  0  0  0  0  0  0  0
    2.3070    2.7072   -1.2978 H   0  0  0  0  0  0  0  0  0  0  0  0
    1.0714    6.5877   -2.8276 H   0  0  0  0  0  0  0  0  0  0  0  0
    2.1717    7.8834   -3.3824 H   0  0  0  0  0  0  0  0  0  0  0  0
    1.8056    6.9045   -0.4936 H   0  0  0  0  0  0  0  0  0  0  0  0
    1.2936    8.4720   -1.1447 H   0  0  0  0  0  0  0  0  0  0  0  0
    3.5007    8.6308    0.1235 H   0  0  0  0  0  0  0  0  0  0  0  0
    3.6473    9.1293   -1.5665 H   0  0  0  0  0  0  0  0  0  0  0  0
    4.4315    6.3889   -0.4073 H   0  0  0  0  0  0  0  0  0  0  0  0
    5.5439    7.6282   -1.0158 H   0  0  0  0  0  0  0  0  0  0  0  0
    5.1589    5.7714   -2.6632 H   0  0  0  0  0  0  0  0  0  0  0  0
    4.6947    7.3570   -3.3120 H   0  0  0  0  0  0  0  0  0  0  0  0
    4.4829    5.0007   -4.9676 H   0  0  0  0  0  0  0  0  0  0  0  0
    5.5640    4.0360   -6.8669 H   0  0  0  0  0  0  0  0  0  0  0  0
    6.6294    2.6323   -6.5962 H   0  0  0  0  0  0  0  0  0  0  0  0
    7.0005    5.4328   -5.3975 H   0  0  0  0  0  0  0  0  0  0  0  0
    8.8577    2.9808   -5.2372 H   0  0  0  0  0  0  0  0  0  0  0  0
    7.9510    3.6858   -3.8860 H   0  0  0  0  0  0  0  0  0  0  0  0
    9.2481    4.6255   -4.6587 H   0  0  0  0  0  0  0  0  0  0  0  0
    8.5423    4.0274   -7.6607 H   0  0  0  0  0  0  0  0  0  0  0  0
    8.9180    5.6296   -6.9866 H   0  0  0  0  0  0  0  0  0  0  0  0
    7.3934    5.3719   -7.8683 H   0  0  0  0  0  0  0  0  0  0  0  0
    5.7616   -0.3704   -3.1264 H   0  0  0  0  0  0  0  0  0  0  0  0
    5.1523   -3.1487   -0.8239 H   0  0  0  0  0  0  0  0  0  0  0  0
    6.2885   -1.8770   -1.3829 H   0  0  0  0  0  0  0  0  0  0  0  0
    5.0613   -2.5416   -2.5101 H   0  0  0  0  0  0  0  0  0  0  0  0
  1  2  1  0
  1 28  1  0
  1 29  1  0
  1 30  1  0
  2  3  1  0
  3  4  2  0
  3 25  1  0
  4  5  1  0
  4 31  1  0
  5  6  1  0
  5 23  2  0
  6  7  1  0
  6 15  2  0
  7  8  2  0
  7  9  1  0
  9 10  1  0
  9 14  1  0
 10 11  1  0
 10 32  1  0
 10 33  1  0
 11 12  1  0
 11 34  1  0
 11 35  1  0
 12 13  1  0
 12 36  1  0
 12 37  1  0
 13 14  1  0
 13 38  1  0
 13 39  1  0
 14 40  1  0
 14 41  1  0
 15 16  1  0
 15 42  1  0
 16 17  1  0
 16 21  1  0
 17 18  1  0
 17 43  1  0
 17 44  1  0
 18 19  1  0
 18 20  1  0
 18 45  1  1
 19 46  1  0
 19 47  1  0
 19 48  1  0
 20 49  1  0
 20 50  1  0
 20 51  1  0
 21 22  2  0
 21 23  1  0
 23 24  1  0
 24 25  2  0
 24 52  1  0
 25 26  1  0
 26 27  1  0
 27 53  1  0
 27 54  1  0
 27 55  1  0
M  END

