
     RDKit          3D

 86 91  0  0  0  0  0  0  0  0999 V2000
   -7.1682   17.4324    3.5863 C   0  0  0  0  0  0  0  0  0  0  0  0
   -6.6023   16.1391    3.7809 O   0  0  0  0  0  0  0  0  0  0  0  0
   -7.3905   15.0816    3.9828 C   0  0  0  0  0  0  0  0  0  0  0  0
   -8.7777   15.1116    4.0319 C   0  0  0  0  0  0  0  0  0  0  0  0
   -9.5020   13.9351    4.2555 C   0  0  0  0  0  0  0  0  0  0  0  0
  -11.0055   14.0764    4.2801 C   0  0  0  0  0  0  0  0  0  0  0  0
  -11.5309   15.1241    3.9225 O   0  0  0  0  0  0  0  0  0  0  0  0
  -11.7091   12.9923    4.7033 N   0  0  0  0  0  0  0  0  0  0  0  0
  -13.1682   13.0196    4.9135 C   0  0  1  0  0  0  0  0  0  0  0  0
  -13.9440   13.1727    3.5877 C   0  0  0  0  0  0  0  0  0  0  0  0
  -13.9175   11.8953    2.7422 C   0  0  0  0  0  0  0  0  0  0  0  0
  -14.3716   10.6924    3.5773 C   0  0  0  0  0  0  0  0  0  0  0  0
  -13.5210   10.5937    4.8514 C   0  0  0  0  0  0  0  0  0  0  0  0
  -13.5054   11.8174    5.6647 N   0  0  0  0  0  0  0  0  0  0  0  0
  -14.6340   11.9658    6.5680 C   0  0  0  0  0  0  0  0  0  0  0  0
   -8.8085   12.6997    4.4110 C   0  0  0  0  0  0  0  0  0  0  0  0
   -7.4368   12.6279    4.3704 C   0  0  0  0  0  0  0  0  0  0  0  0
   -6.6665   13.8185    4.1568 C   0  0  0  0  0  0  0  0  0  0  0  0
   -5.3415   13.8698    4.0959 N   0  0  0  0  0  0  0  0  0  0  0  0
   -4.3163   12.8309    4.2281 C   0  0  0  0  0  0  0  0  0  0  0  0
   -3.1141   13.3500    4.1031 N   0  0  0  0  0  0  0  0  0  0  0  0
   -2.1034   12.4124    4.1700 C   0  0  0  0  0  0  0  0  0  0  0  0
   -2.3263   11.0734    4.3810 C   0  0  0  0  0  0  0  0  0  0  0  0
   -3.7074   10.6734    4.5669 C   0  0  0  0  0  0  0  0  0  0  0  0
   -4.7138   11.6127    4.4399 N   0  0  0  0  0  0  0  0  0  0  0  0
   -3.9635    9.3331    4.8976 C   0  0  0  0  0  0  0  0  0  0  0  0
   -5.1925    8.7502    4.9977 O   0  0  0  0  0  0  0  0  0  0  0  0
   -5.0199    7.4131    5.3742 N   0  0  0  0  0  0  0  0  0  0  0  0
   -3.7011    7.2354    5.4959 C   0  0  0  0  0  0  0  0  0  0  0  0
   -3.1519    5.9052    5.8991 C   0  0  0  0  0  0  0  0  0  0  0  0
   -1.9512    5.7184    6.0582 O   0  0  0  0  0  0  0  0  0  0  0  0
   -4.1015    4.9416    6.0612 N   0  0  0  0  0  0  0  0  0  0  0  0
   -3.8128    3.6113    6.5282 C   0  0  0  0  0  0  0  0  0  0  0  0
   -4.7547    3.1723    7.6731 C   0  0  2  0  0  0  0  0  0  0  0  0
   -4.4662    2.1265    7.9116 H   0  0  0  0  0  0  0  0  0  0  0  0
   -6.1345    3.2874    7.1942 N   0  0  0  0  0  0  0  0  0  0  0  0
   -4.5543    3.9854    8.9425 C   0  0  0  0  0  0  0  0  0  0  0  0
   -3.6976    3.5110    9.9479 C   0  0  0  0  0  0  0  0  0  0  0  0
   -3.4649    4.2562   11.1065 C   0  0  0  0  0  0  0  0  0  0  0  0
   -4.0918    5.4938   11.2792 C   0  0  0  0  0  0  0  0  0  0  0  0
   -4.9493    5.9756   10.2860 C   0  0  0  0  0  0  0  0  0  0  0  0
   -5.1801    5.2292    9.1267 C   0  0  0  0  0  0  0  0  0  0  0  0
   -2.9725    8.4013    5.2093 C   0  0  0  0  0  0  0  0  0  0  0  0
   -1.5394    8.8179    5.2853 C   0  0  0  0  0  0  0  0  0  0  0  0
   -1.2298    9.9950    4.3094 C   0  0  1  0  0  0  0  0  0  0  0  0
   -1.2054    9.4508    2.8591 C   0  0  0  0  0  0  0  0  0  0  0  0
    0.1590   10.5574    4.6540 C   0  0  0  0  0  0  0  0  0  0  0  0
   -6.3234   18.1150    3.4401 H   0  0  0  0  0  0  0  0  0  0  0  0
   -7.7484   17.7405    4.4703 H   0  0  0  0  0  0  0  0  0  0  0  0
   -7.8163   17.4438    2.6959 H   0  0  0  0  0  0  0  0  0  0  0  0
   -9.3454   16.0309    3.8943 H   0  0  0  0  0  0  0  0  0  0  0  0
  -11.2362   12.2794    5.2486 H   0  0  0  0  0  0  0  0  0  0  0  0
  -13.3991   13.8937    5.5461 H   0  0  0  0  0  0  0  0  0  0  0  0
  -13.5489   14.0396    3.0397 H   0  0  0  0  0  0  0  0  0  0  0  0
  -14.9882   13.4156    3.8527 H   0  0  0  0  0  0  0  0  0  0  0  0
  -12.8934   11.7162    2.3682 H   0  0  0  0  0  0  0  0  0  0  0  0
  -14.5547   12.0196    1.8516 H   0  0  0  0  0  0  0  0  0  0  0  0
  -14.2861    9.7548    3.0029 H   0  0  0  0  0  0  0  0  0  0  0  0
  -15.4384   10.8029    3.8425 H   0  0  0  0  0  0  0  0  0  0  0  0
  -12.4826   10.3529    4.5571 H   0  0  0  0  0  0  0  0  0  0  0  0
  -13.8555    9.7646    5.4940 H   0  0  0  0  0  0  0  0  0  0  0  0
  -14.7158   11.0699    7.2031 H   0  0  0  0  0  0  0  0  0  0  0  0
  -15.6160   12.1100    6.0685 H   0  0  0  0  0  0  0  0  0  0  0  0
  -14.4702   12.8289    7.2324 H   0  0  0  0  0  0  0  0  0  0  0  0
   -9.3668   11.7723    4.5465 H   0  0  0  0  0  0  0  0  0  0  0  0
   -6.8865   11.6962    4.4878 H   0  0  0  0  0  0  0  0  0  0  0  0
   -4.9179   14.7820    3.9351 H   0  0  0  0  0  0  0  0  0  0  0  0
   -1.0945   12.8050    4.0251 H   0  0  0  0  0  0  0  0  0  0  0  0
   -5.0739    5.2054    5.9245 H   0  0  0  0  0  0  0  0  0  0  0  0
   -2.7636    3.5883    6.8541 H   0  0  0  0  0  0  0  0  0  0  0  0
   -3.9133    2.8738    5.7054 H   0  0  0  0  0  0  0  0  0  0  0  0
   -6.7947    3.0571    7.9364 H   0  0  0  0  0  0  0  0  0  0  0  0
   -6.3014    2.6311    6.4307 H   0  0  0  0  0  0  0  0  0  0  0  0
   -3.2054    2.5418    9.8209 H   0  0  0  0  0  0  0  0  0  0  0  0
   -2.7940    3.8678   11.8775 H   0  0  0  0  0  0  0  0  0  0  0  0
   -3.9124    6.0801   12.1843 H   0  0  0  0  0  0  0  0  0  0  0  0
   -5.4405    6.9445   10.4102 H   0  0  0  0  0  0  0  0  0  0  0  0
   -5.8463    5.6134    8.3528 H   0  0  0  0  0  0  0  0  0  0  0  0
   -0.8703    7.9701    5.0791 H   0  0  0  0  0  0  0  0  0  0  0  0
   -1.3086    9.1402    6.3191 H   0  0  0  0  0  0  0  0  0  0  0  0
   -2.1733    9.0088    2.5794 H   0  0  0  0  0  0  0  0  0  0  0  0
   -0.4353    8.6681    2.7598 H   0  0  0  0  0  0  0  0  0  0  0  0
   -0.9766   10.2560    2.1435 H   0  0  0  0  0  0  0  0  0  0  0  0
    0.1673   11.0284    5.6497 H   0  0  0  0  0  0  0  0  0  0  0  0
    0.4990   11.3034    3.9191 H   0  0  0  0  0  0  0  0  0  0  0  0
    0.9006    9.7429    4.6589 H   0  0  0  0  0  0  0  0  0  0  0  0
  1  2  1  0
  1 48  1  0
  1 49  1  0
  1 50  1  0
  2  3  1  0
  3  4  2  0
  3 18  1  0
  4  5  1  0
  4 51  1  0
  5  6  1  0
  5 16  2  0
  6  7  2  0
  6  8  1  0
  8  9  1  0
  8 52  1  0
  9 10  1  0
  9 14  1  0
  9 53  1  1
 10 11  1  0
 10 54  1  0
 10 55  1  0
 11 12  1  0
 11 56  1  0
 11 57  1  0
 12 13  1  0
 12 58  1  0
 12 59  1  0
 13 14  1  0
 13 60  1  0
 13 61  1  0
 14 15  1  0
 15 62  1  0
 15 63  1  0
 15 64  1  0
 16 17  1  0
 16 65  1  0
 17 18  2  0
 17 66  1  0
 18 19  1  0
 19 20  1  0
 19 67  1  0
 20 21  2  0
 20 25  1  0
 21 22  1  0
 22 23  2  0
 22 68  1  0
 23 24  1  0
 23 45  1  0
 24 25  2  0
 24 26  1  0
 26 27  1  0
 26 43  2  0
 27 28  1  0
 28 29  2  0
 29 30  1  0
 29 43  1  0
 30 31  2  0
 30 32  1  0
 32 33  1  0
 32 69  1  0
 33 34  1  0
 33 70  1  0
 33 71  1  0
 34 35  1  1
 34 36  1  0
 34 37  1  0
 36 72  1  0
 36 73  1  0
 37 38  2  0
 37 42  1  0
 38 39  1  0
 38 74  1  0
 39 40  2  0
 39 75  1  0
 40 41  1  0
 40 76  1  0
 41 42  2  0
 41 77  1  0
 42 78  1  0
 43 44  1  0
 44 45  1  0
 44 79  1  0
 44 80  1  0
 45 46  1  6
 45 47  1  0
 46 81  1  0
 46 82  1  0
 46 83  1  0
 47 84  1  0
 47 85  1  0
 47 86  1  0
M  END

