
     RDKit          3D

 70 79  0  0  0  0  0  0  0  0999 V2000
   -0.9790    0.8090   -1.3946 C   0  0  0  0  0  0  0  0  0  0  0  0
    0.3976    0.9950   -1.5332 C   0  0  0  0  0  0  0  0  0  0  0  0
    1.2985    0.0561   -0.9975 C   0  0  0  0  0  0  0  0  0  0  0  0
    2.7727    0.1988   -1.1765 C   0  0  0  0  0  0  0  0  0  0  0  0
    3.4755   -0.8620   -1.7737 C   0  0  0  0  0  0  0  0  0  0  0  0
    4.8434   -0.7915   -2.0133 C   0  0  0  0  0  0  0  0  0  0  0  0
    5.5760    0.3558   -1.6642 C   0  0  0  0  0  0  0  0  0  0  0  0
    6.9870    0.4622   -1.9039 C   0  0  0  0  0  0  0  0  0  0  0  0
    7.6860    1.5830   -1.5642 C   0  0  0  0  0  0  0  0  0  0  0  0
    7.0418    2.7144   -0.9477 C   0  0  0  0  0  0  0  0  0  0  0  0
    7.7486    3.8946   -0.5852 C   0  0  0  0  0  0  0  0  0  0  0  0
    9.1893    4.0906   -0.9014 C   0  0  0  0  0  0  0  0  0  0  0  0
    9.6705    4.0161   -2.2497 C   0  0  0  0  0  0  0  0  0  0  0  0
   10.9145    4.2187   -2.6112 N   0  0  0  0  0  0  0  0  0  0  0  0
   11.8332    4.5249   -1.6527 C   0  0  0  0  0  0  0  0  0  0  0  0
   13.1865    4.7368   -2.0345 C   0  0  0  0  0  0  0  0  0  0  0  0
   14.1389    5.0517   -1.0876 C   0  0  0  0  0  0  0  0  0  0  0  0
   13.7826    5.1698    0.2812 C   0  0  0  0  0  0  0  0  0  0  0  0
   12.4779    4.9702    0.6822 C   0  0  0  0  0  0  0  0  0  0  0  0
   11.4730    4.6436   -0.2703 C   0  0  0  0  0  0  0  0  0  0  0  0
   10.1150    4.4176    0.0747 C   0  0  0  0  0  0  0  0  0  0  0  0
    7.0644    4.9206    0.0892 C   0  0  0  0  0  0  0  0  0  0  0  0
    5.7093    4.8237    0.3863 C   0  0  0  0  0  0  0  0  0  0  0  0
    4.9714    3.6875    0.0128 C   0  0  0  0  0  0  0  0  0  0  0  0
    3.5709    3.5587    0.3000 C   0  0  0  0  0  0  0  0  0  0  0  0
    2.8645    2.4538   -0.0741 C   0  0  0  0  0  0  0  0  0  0  0  0
    3.4887    1.3602   -0.7744 C   0  0  0  0  0  0  0  0  0  0  0  0
    4.8985    1.4461   -1.0348 C   0  0  0  0  0  0  0  0  0  0  0  0
    5.6383    2.6166   -0.6603 C   0  0  0  0  0  0  0  0  0  0  0  0
    0.7799   -1.0678   -0.3336 C   0  0  0  0  0  0  0  0  0  0  0  0
   -0.6039   -1.2673   -0.1818 C   0  0  0  0  0  0  0  0  0  0  0  0
   -1.1396   -2.4485    0.5430 C   0  0  0  0  0  0  0  0  0  0  0  0
   -2.2808   -2.3616    1.3634 C   0  0  0  0  0  0  0  0  0  0  0  0
   -2.8142   -3.4697    2.0400 C   0  0  0  0  0  0  0  0  0  0  0  0
   -2.2313   -4.7319    1.9273 C   0  0  0  0  0  0  0  0  0  0  0  0
   -1.0935   -4.8630    1.1205 C   0  0  0  0  0  0  0  0  0  0  0  0
   -0.5738   -3.7303    0.4569 C   0  0  0  0  0  0  0  0  0  0  0  0
    0.5278   -4.0605   -0.2926 O   0  0  0  0  0  0  0  0  0  0  0  0
    0.7336   -5.4039   -0.1246 C   0  0  0  0  0  0  0  0  0  0  0  0
    1.7528   -6.1441   -0.7155 C   0  0  0  0  0  0  0  0  0  0  0  0
    1.7919   -7.5097   -0.4190 C   0  0  0  0  0  0  0  0  0  0  0  0
    0.8433   -8.1000    0.4370 C   0  0  0  0  0  0  0  0  0  0  0  0
   -0.1716   -7.3395    1.0202 C   0  0  0  0  0  0  0  0  0  0  0  0
   -0.2298   -5.9674    0.7366 C   0  0  0  0  0  0  0  0  0  0  0  0
   -1.4790   -0.3087   -0.7252 C   0  0  0  0  0  0  0  0  0  0  0  0
   -1.6711    1.5348   -1.8293 H   0  0  0  0  0  0  0  0  0  0  0  0
    0.7788    1.8591   -2.0819 H   0  0  0  0  0  0  0  0  0  0  0  0
    2.9201   -1.7530   -2.0760 H   0  0  0  0  0  0  0  0  0  0  0  0
    5.3591   -1.6292   -2.4902 H   0  0  0  0  0  0  0  0  0  0  0  0
    7.5011   -0.3862   -2.3636 H   0  0  0  0  0  0  0  0  0  0  0  0
    8.7606    1.6201   -1.7457 H   0  0  0  0  0  0  0  0  0  0  0  0
    8.9548    3.7910   -3.0505 H   0  0  0  0  0  0  0  0  0  0  0  0
   13.4329    4.6412   -3.0938 H   0  0  0  0  0  0  0  0  0  0  0  0
   15.1772    5.2127   -1.3888 H   0  0  0  0  0  0  0  0  0  0  0  0
   14.5494    5.4202    1.0186 H   0  0  0  0  0  0  0  0  0  0  0  0
   12.1997    5.0589    1.7362 H   0  0  0  0  0  0  0  0  0  0  0  0
    9.8095    4.4887    1.1227 H   0  0  0  0  0  0  0  0  0  0  0  0
    7.6117    5.8262    0.3619 H   0  0  0  0  0  0  0  0  0  0  0  0
    5.2032    5.6427    0.9042 H   0  0  0  0  0  0  0  0  0  0  0  0
    3.0752    4.3703    0.8395 H   0  0  0  0  0  0  0  0  0  0  0  0
    1.8058    2.3817    0.1753 H   0  0  0  0  0  0  0  0  0  0  0  0
    1.4736   -1.7944    0.0902 H   0  0  0  0  0  0  0  0  0  0  0  0
   -2.7543   -1.3860    1.4926 H   0  0  0  0  0  0  0  0  0  0  0  0
   -3.6975   -3.3337    2.6685 H   0  0  0  0  0  0  0  0  0  0  0  0
   -2.6491   -5.5931    2.4535 H   0  0  0  0  0  0  0  0  0  0  0  0
    2.4809   -5.6733   -1.3781 H   0  0  0  0  0  0  0  0  0  0  0  0
    2.5751   -8.1299   -0.8618 H   0  0  0  0  0  0  0  0  0  0  0  0
    0.9045   -9.1706    0.6463 H   0  0  0  0  0  0  0  0  0  0  0  0
   -0.9045   -7.8051    1.6835 H   0  0  0  0  0  0  0  0  0  0  0  0
   -2.5586   -0.4541   -0.6464 H   0  0  0  0  0  0  0  0  0  0  0  0
  1  2  2  0
  1 45  1  0
  1 46  1  0
  2  3  1  0
  2 47  1  0
  3  4  1  0
  3 30  2  0
  4  5  2  0
  4 27  1  0
  5  6  1  0
  5 48  1  0
  6  7  2  0
  6 49  1  0
  7  8  1  0
  7 28  1  0
  8  9  2  0
  8 50  1  0
  9 10  1  0
  9 51  1  0
 10 11  2  0
 10 29  1  0
 11 12  1  0
 11 22  1  0
 12 13  2  0
 12 21  1  0
 13 14  1  0
 13 52  1  0
 14 15  2  0
 15 16  1  0
 15 20  1  0
 16 17  2  0
 16 53  1  0
 17 18  1  0
 17 54  1  0
 18 19  2  0
 18 55  1  0
 19 20  1  0
 19 56  1  0
 20 21  2  0
 21 57  1  0
 22 23  2  0
 22 58  1  0
 23 24  1  0
 23 59  1  0
 24 25  2  0
 24 29  1  0
 25 26  1  0
 25 60  1  0
 26 27  2  0
 26 61  1  0
 27 28  1  0
 28 29  2  0
 30 31  1  0
 30 62  1  0
 31 32  1  0
 31 45  2  0
 32 33  2  0
 32 37  1  0
 33 34  1  0
 33 63  1  0
 34 35  2  0
 34 64  1  0
 35 36  1  0
 35 65  1  0
 36 37  2  0
 36 44  1  0
 37 38  1  0
 38 39  1  0
 39 40  1  0
 39 44  2  0
 40 41  2  0
 40 66  1  0
 41 42  1  0
 41 67  1  0
 42 43  2  0
 42 68  1  0
 43 44  1  0
 43 69  1  0
 45 70  1  0
M  END

