
     RDKit          3D

 32 33  0  0  0  0  0  0  0  0999 V2000
    1.4338   -0.5719   -0.6001 C   0  0  0  0  0  0  0  0  0  0  0  0
    2.7851   -1.2924   -0.3749 C   0  0  2  0  0  0  0  0  0  0  0  0
    2.7053   -2.1819    0.8891 C   0  0  0  0  0  0  0  0  0  0  0  0
    3.7252   -0.2350   -0.0344 O   0  0  0  0  0  0  0  0  0  0  0  0
    4.8465   -0.1675   -0.9223 C   0  0  1  0  0  0  0  0  0  0  0  0
    4.8258    1.2715   -1.5142 C   0  0  0  0  0  0  0  0  0  0  0  0
    6.1048   -0.3318   -0.0224 C   0  0  0  0  0  0  0  0  0  0  0  0
    4.6153   -1.2706   -1.9128 C   0  0  0  0  0  0  0  0  0  0  0  0
    5.3915   -1.6440   -2.9793 C   0  0  0  0  0  0  0  0  0  0  0  0
    5.0086   -2.7412   -3.8425 C   0  0  0  0  0  0  0  0  0  0  0  0
    5.9563   -2.9927   -4.9324 C   0  0  0  0  0  0  0  0  0  0  0  0
    6.9740   -2.3189   -5.0653 O   0  0  0  0  0  0  0  0  0  0  0  0
    5.7298   -3.9888   -5.8347 O   0  0  0  0  0  0  0  0  0  0  0  0
    3.7613   -3.3853   -3.4697 C   0  0  0  0  0  0  0  0  0  0  0  0
    3.0465   -4.8832   -4.4628 Br  0  0  0  0  0  0  0  0  0  0  0  0
    2.9825   -3.0020   -2.3895 C   0  0  0  0  0  0  0  0  0  0  0  0
    3.4025   -1.9240   -1.5847 C   0  0  0  0  0  0  0  0  0  0  0  0
    1.0929   -0.0447    0.3031 H   0  0  0  0  0  0  0  0  0  0  0  0
    0.6990   -1.3463   -0.8638 H   0  0  0  0  0  0  0  0  0  0  0  0
    1.5070    0.1319   -1.4399 H   0  0  0  0  0  0  0  0  0  0  0  0
    2.3421   -1.6224    1.7636 H   0  0  0  0  0  0  0  0  0  0  0  0
    3.6844   -2.6280    1.1094 H   0  0  0  0  0  0  0  0  0  0  0  0
    2.0003   -2.9951    0.6639 H   0  0  0  0  0  0  0  0  0  0  0  0
    4.8929    2.0284   -0.7204 H   0  0  0  0  0  0  0  0  0  0  0  0
    3.9148    1.4250   -2.1066 H   0  0  0  0  0  0  0  0  0  0  0  0
    5.6960    1.3511   -2.1791 H   0  0  0  0  0  0  0  0  0  0  0  0
    6.1508    0.4554    0.7430 H   0  0  0  0  0  0  0  0  0  0  0  0
    6.9778   -0.2587   -0.6843 H   0  0  0  0  0  0  0  0  0  0  0  0
    6.1053   -1.3210    0.4528 H   0  0  0  0  0  0  0  0  0  0  0  0
    6.3274   -1.1484   -3.2417 H   0  0  0  0  0  0  0  0  0  0  0  0
    4.9048   -4.4585   -5.6401 H   0  0  0  0  0  0  0  0  0  0  0  0
    2.0573   -3.5427   -2.1811 H   0  0  0  0  0  0  0  0  0  0  0  0
  2  1  1  6
  1 18  1  0
  1 19  1  0
  1 20  1  0
  2  3  1  0
  2  4  1  0
  2 17  1  0
  3 21  1  0
  3 22  1  0
  3 23  1  0
  4  5  1  0
  5  6  1  6
  5  7  1  0
  5  8  1  0
  6 24  1  0
  6 25  1  0
  6 26  1  0
  7 27  1  0
  7 28  1  0
  7 29  1  0
  8  9  2  0
  8 17  1  0
  9 10  1  0
  9 30  1  0
 10 11  1  0
 10 14  2  0
 11 12  2  0
 11 13  1  0
 13 31  1  0
 14 15  1  0
 14 16  1  0
 16 17  2  0
 16 32  1  0
M  END

