
     RDKit          3D

 47 48  0  0  0  0  0  0  0  0999 V2000
    1.0593   -0.2163    0.3975 C   0  0  0  0  0  0  0  0  0  0  0  0
    2.5336    0.0410    0.0831 C   0  0  0  0  0  0  0  0  0  0  0  0
    3.1426   -0.9380   -0.8135 N   0  0  0  0  0  0  0  0  0  0  0  0
    2.4386   -1.1005   -2.0876 C   0  0  0  0  0  0  0  0  0  0  0  0
    2.2742    0.1629   -2.9748 C   0  0  1  0  0  0  0  0  0  0  0  0
    3.5230    0.7554   -3.4729 N   0  0  0  0  0  0  0  0  0  0  0  0
    1.3266   -0.0389   -4.1586 C   0  0  0  0  0  0  0  0  0  0  0  0
    1.0851   -1.3116   -4.6972 C   0  0  0  0  0  0  0  0  0  0  0  0
    0.2496   -1.4948   -5.8042 C   0  0  0  0  0  0  0  0  0  0  0  0
   -0.3622   -0.3902   -6.3937 C   0  0  0  0  0  0  0  0  0  0  0  0
   -0.1287    0.8845   -5.8702 C   0  0  0  0  0  0  0  0  0  0  0  0
    0.7071    1.0857   -4.7626 C   0  0  0  0  0  0  0  0  0  0  0  0
    0.9356    2.4832   -4.2395 C   0  0  0  0  0  0  0  0  0  0  0  0
    4.6178   -0.9400   -0.7762 C   0  0  1  0  0  0  0  0  0  0  0  0
    5.1563   -1.3919    0.6055 C   0  0  0  0  0  0  0  0  0  0  0  0
    4.8734   -2.8702    0.8974 C   0  0  0  0  0  0  0  0  0  0  0  0
    5.4823   -3.7744   -0.1808 C   0  0  0  0  0  0  0  0  0  0  0  0
    5.0219   -3.3542   -1.5824 C   0  0  0  0  0  0  0  0  0  0  0  0
    5.2686   -1.8587   -1.8323 C   0  0  0  0  0  0  0  0  0  0  0  0
    0.7215    0.4712    1.1892 H   0  0  0  0  0  0  0  0  0  0  0  0
    0.9134   -1.2488    0.7532 H   0  0  0  0  0  0  0  0  0  0  0  0
    0.3995   -0.0606   -0.4698 H   0  0  0  0  0  0  0  0  0  0  0  0
    3.0817    0.0193    1.0342 H   0  0  0  0  0  0  0  0  0  0  0  0
    2.6497    1.0848   -0.2928 H   0  0  0  0  0  0  0  0  0  0  0  0
    1.4295   -1.4866   -1.8667 H   0  0  0  0  0  0  0  0  0  0  0  0
    2.9311   -1.8947   -2.6618 H   0  0  0  0  0  0  0  0  0  0  0  0
    1.8134    0.9343   -2.3357 H   0  0  0  0  0  0  0  0  0  0  0  0
    3.9898    0.1254   -4.1248 H   0  0  0  0  0  0  0  0  0  0  0  0
    4.1711    0.9484   -2.7114 H   0  0  0  0  0  0  0  0  0  0  0  0
    1.5531   -2.1908   -4.2513 H   0  0  0  0  0  0  0  0  0  0  0  0
    0.0816   -2.4999   -6.1998 H   0  0  0  0  0  0  0  0  0  0  0  0
   -1.0187   -0.5151   -7.2589 H   0  0  0  0  0  0  0  0  0  0  0  0
   -0.6063    1.7524   -6.3345 H   0  0  0  0  0  0  0  0  0  0  0  0
    0.4613    3.2326   -4.8898 H   0  0  0  0  0  0  0  0  0  0  0  0
    2.0128    2.6964   -4.1690 H   0  0  0  0  0  0  0  0  0  0  0  0
    0.5149    2.6110   -3.2264 H   0  0  0  0  0  0  0  0  0  0  0  0
    5.0124    0.0893   -0.9487 H   0  0  0  0  0  0  0  0  0  0  0  0
    4.7640   -0.7603    1.4162 H   0  0  0  0  0  0  0  0  0  0  0  0
    6.2477   -1.2208    0.6024 H   0  0  0  0  0  0  0  0  0  0  0  0
    3.7818   -3.0261    0.9333 H   0  0  0  0  0  0  0  0  0  0  0  0
    5.2678   -3.1390    1.8919 H   0  0  0  0  0  0  0  0  0  0  0  0
    5.2244   -4.8304    0.0065 H   0  0  0  0  0  0  0  0  0  0  0  0
    6.5854   -3.7101   -0.1273 H   0  0  0  0  0  0  0  0  0  0  0  0
    3.9472   -3.5796   -1.6908 H   0  0  0  0  0  0  0  0  0  0  0  0
    5.5442   -3.9484   -2.3516 H   0  0  0  0  0  0  0  0  0  0  0  0
    4.9605   -1.5718   -2.8478 H   0  0  0  0  0  0  0  0  0  0  0  0
    6.3550   -1.6674   -1.7897 H   0  0  0  0  0  0  0  0  0  0  0  0
  1  2  1  0
  1 20  1  0
  1 21  1  0
  1 22  1  0
  2  3  1  0
  2 23  1  0
  2 24  1  0
  3  4  1  0
  3 14  1  0
  4  5  1  0
  4 25  1  0
  4 26  1  0
  5  6  1  0
  5  7  1  0
  5 27  1  1
  6 28  1  0
  6 29  1  0
  7  8  2  0
  7 12  1  0
  8  9  1  0
  8 30  1  0
  9 10  2  0
  9 31  1  0
 10 11  1  0
 10 32  1  0
 11 12  2  0
 11 33  1  0
 12 13  1  0
 13 34  1  0
 13 35  1  0
 13 36  1  0
 14 15  1  0
 14 19  1  0
 14 37  1  6
 15 16  1  0
 15 38  1  0
 15 39  1  0
 16 17  1  0
 16 40  1  0
 16 41  1  0
 17 18  1  0
 17 42  1  0
 17 43  1  0
 18 19  1  0
 18 44  1  0
 18 45  1  0
 19 46  1  0
 19 47  1  0
M  END

