
     RDKit          3D

 45 46  0  0  0  0  0  0  0  0999 V2000
    0.9419   -0.2692   -1.8544 C   0  0  0  0  0  0  0  0  0  0  0  0
    2.3997   -0.1760   -1.4006 C   0  0  0  0  0  0  0  0  0  0  0  0
    3.0619   -1.5466   -1.2311 C   0  0  0  0  0  0  0  0  0  0  0  0
    4.5350   -1.4765   -0.7958 C   0  0  1  0  0  0  0  0  0  0  0  0
    4.7896   -0.8183    0.4866 N   0  0  0  0  0  0  0  0  0  0  0  0
    5.1541   -2.8922   -0.7965 C   0  0  0  0  0  0  0  0  0  0  0  0
    4.4964   -3.8664   -1.1093 O   0  0  0  0  0  0  0  0  0  0  0  0
    6.4895   -3.0336   -0.4213 N   0  0  0  0  0  0  0  0  0  0  0  0
    7.1020   -4.3422   -0.5297 C   0  0  0  0  0  0  0  0  0  0  0  0
    8.0791   -4.3695   -1.7580 C   0  0  0  0  0  0  0  0  0  0  0  0
    8.9899   -3.2742   -1.6503 N   0  0  0  0  0  0  0  0  0  0  0  0
   10.4638   -3.4741   -1.3332 C   0  0  0  0  0  0  0  0  0  0  0  0
   10.8982   -4.8487   -1.0292 C   0  0  0  0  0  0  0  0  0  0  0  0
   11.4859   -5.6941   -2.0107 C   0  0  0  0  0  0  0  0  0  0  0  0
   11.8502   -6.9983   -1.7473 C   0  0  0  0  0  0  0  0  0  0  0  0
   11.6235   -7.5276   -0.4191 C   0  0  0  0  0  0  0  0  0  0  0  0
   11.9800   -9.2236   -0.0977 Cl  0  0  0  0  0  0  0  0  0  0  0  0
   11.0816   -6.7125    0.5818 C   0  0  0  0  0  0  0  0  0  0  0  0
   10.7184   -5.3965    0.3179 C   0  0  0  0  0  0  0  0  0  0  0  0
    8.4071   -1.9721   -1.5393 C   0  0  0  0  0  0  0  0  0  0  0  0
    7.4432   -1.9577   -0.2999 C   0  0  0  0  0  0  0  0  0  0  0  0
    0.4912    0.7287   -1.9712 H   0  0  0  0  0  0  0  0  0  0  0  0
    0.3323   -0.8285   -1.1257 H   0  0  0  0  0  0  0  0  0  0  0  0
    0.8579   -0.7905   -2.8220 H   0  0  0  0  0  0  0  0  0  0  0  0
    2.4450    0.3827   -0.4483 H   0  0  0  0  0  0  0  0  0  0  0  0
    2.9754    0.4226   -2.1312 H   0  0  0  0  0  0  0  0  0  0  0  0
    2.9993   -2.1096   -2.1759 H   0  0  0  0  0  0  0  0  0  0  0  0
    2.5052   -2.1508   -0.4935 H   0  0  0  0  0  0  0  0  0  0  0  0
    5.0845   -0.8953   -1.5635 H   0  0  0  0  0  0  0  0  0  0  0  0
    4.2929   -1.2963    1.2401 H   0  0  0  0  0  0  0  0  0  0  0  0
    4.4444    0.1403    0.4698 H   0  0  0  0  0  0  0  0  0  0  0  0
    6.3213   -5.0956   -0.6779 H   0  0  0  0  0  0  0  0  0  0  0  0
    7.6846   -4.5741    0.3725 H   0  0  0  0  0  0  0  0  0  0  0  0
    7.4694   -4.2627   -2.6716 H   0  0  0  0  0  0  0  0  0  0  0  0
    8.6517   -5.3033   -1.7769 H   0  0  0  0  0  0  0  0  0  0  0  0
   10.6453   -2.7552   -0.5068 H   0  0  0  0  0  0  0  0  0  0  0  0
   10.9648   -3.0475   -2.2224 H   0  0  0  0  0  0  0  0  0  0  0  0
   11.6711   -5.2937   -3.0156 H   0  0  0  0  0  0  0  0  0  0  0  0
   12.3257   -7.6194   -2.5069 H   0  0  0  0  0  0  0  0  0  0  0  0
   10.9581   -7.1229    1.5880 H   0  0  0  0  0  0  0  0  0  0  0  0
   10.3834   -4.7542    1.1380 H   0  0  0  0  0  0  0  0  0  0  0  0
    7.8161   -1.7349   -2.4399 H   0  0  0  0  0  0  0  0  0  0  0  0
    9.1991   -1.2199   -1.4145 H   0  0  0  0  0  0  0  0  0  0  0  0
    6.9358   -0.9943   -0.1980 H   0  0  0  0  0  0  0  0  0  0  0  0
    8.0556   -2.1068    0.6036 H   0  0  0  0  0  0  0  0  0  0  0  0
  1  2  1  0
  1 22  1  0
  1 23  1  0
  1 24  1  0
  2  3  1  0
  2 25  1  0
  2 26  1  0
  3  4  1  0
  3 27  1  0
  3 28  1  0
  4  5  1  0
  4  6  1  0
  4 29  1  6
  5 30  1  0
  5 31  1  0
  6  7  2  0
  6  8  1  0
  8  9  1  0
  8 21  1  0
  9 10  1  0
  9 32  1  0
  9 33  1  0
 10 11  1  0
 10 34  1  0
 10 35  1  0
 11 12  1  0
 11 20  1  0
 12 13  1  0
 12 36  1  0
 12 37  1  0
 13 14  2  0
 13 19  1  0
 14 15  1  0
 14 38  1  0
 15 16  2  0
 15 39  1  0
 16 17  1  0
 16 18  1  0
 18 19  2  0
 18 40  1  0
 19 41  1  0
 20 21  1  0
 20 42  1  0
 20 43  1  0
 21 44  1  0
 21 45  1  0
M  END

