
     RDKit          3D

 55 58  0  0  0  0  0  0  0  0999 V2000
    3.5867   -1.8538   -0.3986 C   0  0  0  0  0  0  0  0  0  0  0  0
    2.4661   -0.8077   -0.5516 C   0  0  1  0  0  0  0  0  0  0  0  0
    1.1476   -1.2945    0.0855 C   0  0  0  0  0  0  0  0  0  0  0  0
    2.8554    0.5917   -0.1435 C   0  0  0  0  0  0  0  0  0  0  0  0
    2.8487    1.7596   -0.9538 C   0  0  0  0  0  0  0  0  0  0  0  0
    2.4842    1.8545   -2.3281 C   0  0  0  0  0  0  0  0  0  0  0  0
    2.1553    0.9718   -3.1637 O   0  0  0  0  0  0  0  0  0  0  0  0
    2.7347    3.2167   -2.9408 N   0  0  0  0  0  0  0  0  0  0  0  0
    1.8198    4.1269   -3.2399 C   0  0  0  0  0  0  0  0  0  0  0  0
    0.4549    4.0065   -2.7992 C   0  0  0  0  0  0  0  0  0  0  0  0
   -0.4772    4.9665   -3.0968 C   0  0  0  0  0  0  0  0  0  0  0  0
   -0.1245    6.1261   -3.8582 C   0  0  0  0  0  0  0  0  0  0  0  0
   -1.0353    7.1180   -4.1560 N   0  0  0  0  0  0  0  0  0  0  0  0
   -0.6825    8.3289   -4.9023 C   0  0  0  0  0  0  0  0  0  0  0  0
   -1.9441    9.2064   -4.7920 C   0  0  0  0  0  0  0  0  0  0  0  0
   -2.9536    8.2284   -4.4505 N   0  0  0  0  0  0  0  0  0  0  0  0
   -2.4482    7.0642   -3.9381 C   0  0  0  0  0  0  0  0  0  0  0  0
   -3.0667    6.1669   -3.4195 O   0  0  0  0  0  0  0  0  0  0  0  0
    1.2235    6.2497   -4.3107 C   0  0  0  0  0  0  0  0  0  0  0  0
    2.1590    5.2880   -4.0188 C   0  0  0  0  0  0  0  0  0  0  0  0
    3.2642    2.7954   -0.0492 C   0  0  0  0  0  0  0  0  0  0  0  0
    3.4891    2.3370    1.1717 N   0  0  0  0  0  0  0  0  0  0  0  0
    3.2398    1.0165    1.1231 N   0  0  0  0  0  0  0  0  0  0  0  0
    3.4581    0.2482    2.3315 C   0  0  0  0  0  0  0  0  0  0  0  0
    4.8852   -0.2265    2.5728 C   0  0  0  0  0  0  0  0  0  0  0  0
    5.9896    0.5412    2.1751 C   0  0  0  0  0  0  0  0  0  0  0  0
    7.2896    0.1088    2.4522 C   0  0  0  0  0  0  0  0  0  0  0  0
    7.5067   -1.0914    3.1362 C   0  0  0  0  0  0  0  0  0  0  0  0
    6.4118   -1.8603    3.5405 C   0  0  0  0  0  0  0  0  0  0  0  0
    5.1123   -1.4299    3.2568 C   0  0  0  0  0  0  0  0  0  0  0  0
    3.2820   -2.8097   -0.8570 H   0  0  0  0  0  0  0  0  0  0  0  0
    3.8387   -2.0609    0.6535 H   0  0  0  0  0  0  0  0  0  0  0  0
    4.5086   -1.5185   -0.8982 H   0  0  0  0  0  0  0  0  0  0  0  0
    2.2709   -0.7029   -1.6296 H   0  0  0  0  0  0  0  0  0  0  0  0
    1.2324   -1.4504    1.1746 H   0  0  0  0  0  0  0  0  0  0  0  0
    0.8379   -2.2568   -0.3557 H   0  0  0  0  0  0  0  0  0  0  0  0
    0.3375   -0.5687   -0.0852 H   0  0  0  0  0  0  0  0  0  0  0  0
    3.6548    3.3642   -3.3588 H   0  0  0  0  0  0  0  0  0  0  0  0
    0.1759    3.1256   -2.2252 H   0  0  0  0  0  0  0  0  0  0  0  0
   -1.5047    4.8540   -2.7612 H   0  0  0  0  0  0  0  0  0  0  0  0
   -0.4532    8.0771   -5.9521 H   0  0  0  0  0  0  0  0  0  0  0  0
    0.1976    8.8219   -4.4670 H   0  0  0  0  0  0  0  0  0  0  0  0
   -2.1655    9.7191   -5.7400 H   0  0  0  0  0  0  0  0  0  0  0  0
   -1.8302    9.9754   -4.0063 H   0  0  0  0  0  0  0  0  0  0  0  0
   -3.9205    8.4602   -4.2576 H   0  0  0  0  0  0  0  0  0  0  0  0
    1.5284    7.1081   -4.9079 H   0  0  0  0  0  0  0  0  0  0  0  0
    3.1833    5.3973   -4.3813 H   0  0  0  0  0  0  0  0  0  0  0  0
    3.3954    3.8578   -0.2532 H   0  0  0  0  0  0  0  0  0  0  0  0
    2.7778   -0.6139    2.3362 H   0  0  0  0  0  0  0  0  0  0  0  0
    3.1545    0.9016    3.1659 H   0  0  0  0  0  0  0  0  0  0  0  0
    5.8178    1.4848    1.6535 H   0  0  0  0  0  0  0  0  0  0  0  0
    8.1405    0.7167    2.1326 H   0  0  0  0  0  0  0  0  0  0  0  0
    8.5245   -1.4275    3.3513 H   0  0  0  0  0  0  0  0  0  0  0  0
    6.5687   -2.8030    4.0719 H   0  0  0  0  0  0  0  0  0  0  0  0
    4.2605   -2.0422    3.5693 H   0  0  0  0  0  0  0  0  0  0  0  0
  1  2  1  0
  1 31  1  0
  1 32  1  0
  1 33  1  0
  2  3  1  0
  2  4  1  0
  2 34  1  6
  3 35  1  0
  3 36  1  0
  3 37  1  0
  4  5  2  0
  4 23  1  0
  5  6  1  0
  5 21  1  0
  6  7  2  0
  6  8  1  0
  8  9  1  0
  8 38  1  0
  9 10  2  0
  9 20  1  0
 10 11  1  0
 10 39  1  0
 11 12  2  0
 11 40  1  0
 12 13  1  0
 12 19  1  0
 13 14  1  0
 13 17  1  0
 14 15  1  0
 14 41  1  0
 14 42  1  0
 15 16  1  0
 15 43  1  0
 15 44  1  0
 16 17  1  0
 16 45  1  0
 17 18  2  0
 19 20  2  0
 19 46  1  0
 20 47  1  0
 21 22  2  0
 21 48  1  0
 22 23  1  0
 23 24  1  0
 24 25  1  0
 24 49  1  0
 24 50  1  0
 25 26  2  0
 25 30  1  0
 26 27  1  0
 26 51  1  0
 27 28  2  0
 27 52  1  0
 28 29  1  0
 28 53  1  0
 29 30  2  0
 29 54  1  0
 30 55  1  0
M  END

