
     RDKit          3D

 39 41  0  0  0  0  0  0  0  0999 V2000
    0.9926    0.1571   -1.1723 C   0  0  0  0  0  0  0  0  0  0  0  0
    2.4449    0.0320   -0.8521 C   0  0  0  0  0  0  0  0  0  0  0  0
    3.4154    1.1172   -0.8719 C   0  0  0  0  0  0  0  0  0  0  0  0
    3.1817    2.3655   -1.2391 N   0  0  0  0  0  0  0  0  0  0  0  0
    4.0372    3.5160   -1.0082 C   0  0  0  0  0  0  0  0  0  0  0  0
    4.9176    3.8966   -2.0022 C   0  0  0  0  0  0  0  0  0  0  0  0
    5.7997    4.9034   -1.8964 N   0  0  0  0  0  0  0  0  0  0  0  0
    5.7854    5.5545   -0.7034 C   0  0  0  0  0  0  0  0  0  0  0  0
    4.9337    5.2747    0.3442 C   0  0  0  0  0  0  0  0  0  0  0  0
    3.9507    4.2344    0.2408 C   0  0  0  0  0  0  0  0  0  0  0  0
    2.9983    4.0595    1.2933 C   0  0  0  0  0  0  0  0  0  0  0  0
    2.9419    4.6831    2.3544 O   0  0  0  0  0  0  0  0  0  0  0  0
    2.0272    3.0658    1.0607 O   0  0  0  0  0  0  0  0  0  0  0  0
    4.6416    0.6815   -0.4592 N   0  0  0  0  0  0  0  0  0  0  0  0
    4.4744   -0.5861   -0.1798 N   0  0  0  0  0  0  0  0  0  0  0  0
    5.6148   -1.3643    0.2746 C   0  0  0  0  0  0  0  0  0  0  0  0
    3.1591   -1.0456   -0.3910 C   0  0  0  0  0  0  0  0  0  0  0  0
    2.7432   -2.4384   -0.1303 C   0  0  0  0  0  0  0  0  0  0  0  0
    2.8948   -3.0165    1.1437 C   0  0  0  0  0  0  0  0  0  0  0  0
    2.4773   -4.3276    1.3789 C   0  0  0  0  0  0  0  0  0  0  0  0
    1.9001   -5.0767    0.3486 C   0  0  0  0  0  0  0  0  0  0  0  0
    1.7404   -4.5100   -0.9190 C   0  0  0  0  0  0  0  0  0  0  0  0
    2.1595   -3.1995   -1.1591 C   0  0  0  0  0  0  0  0  0  0  0  0
    0.5444    0.9694   -0.5776 H   0  0  0  0  0  0  0  0  0  0  0  0
    0.4529   -0.7724   -0.9471 H   0  0  0  0  0  0  0  0  0  0  0  0
    0.8291    0.3926   -2.2377 H   0  0  0  0  0  0  0  0  0  0  0  0
    2.2159    2.5588   -1.4933 H   0  0  0  0  0  0  0  0  0  0  0  0
    4.9300    3.3289   -2.9422 H   0  0  0  0  0  0  0  0  0  0  0  0
    6.5207    6.3612   -0.5939 H   0  0  0  0  0  0  0  0  0  0  0  0
    4.9744    5.8470    1.2724 H   0  0  0  0  0  0  0  0  0  0  0  0
    1.4693    3.1355    1.8507 H   0  0  0  0  0  0  0  0  0  0  0  0
    6.5201   -0.8732   -0.1001 H   0  0  0  0  0  0  0  0  0  0  0  0
    5.5411   -2.3894   -0.1088 H   0  0  0  0  0  0  0  0  0  0  0  0
    5.6477   -1.3901    1.3746 H   0  0  0  0  0  0  0  0  0  0  0  0
    3.3205   -2.4295    1.9609 H   0  0  0  0  0  0  0  0  0  0  0  0
    2.5952   -4.7629    2.3739 H   0  0  0  0  0  0  0  0  0  0  0  0
    1.5729   -6.1023    0.5351 H   0  0  0  0  0  0  0  0  0  0  0  0
    1.2919   -5.0920   -1.7276 H   0  0  0  0  0  0  0  0  0  0  0  0
    2.0468   -2.7633   -2.1543 H   0  0  0  0  0  0  0  0  0  0  0  0
  1  2  1  0
  1 24  1  0
  1 25  1  0
  1 26  1  0
  2  3  1  0
  2 17  2  0
  3  4  1  0
  3 14  2  0
  4  5  1  0
  4 27  1  0
  5  6  2  0
  5 10  1  0
  6  7  1  0
  6 28  1  0
  7  8  2  0
  8  9  1  0
  8 29  1  0
  9 10  2  0
  9 30  1  0
 10 11  1  0
 11 12  2  0
 11 13  1  0
 13 31  1  0
 14 15  1  0
 15 16  1  0
 15 17  1  0
 16 32  1  0
 16 33  1  0
 16 34  1  0
 17 18  1  0
 18 19  2  0
 18 23  1  0
 19 20  1  0
 19 35  1  0
 20 21  2  0
 20 36  1  0
 21 22  1  0
 21 37  1  0
 22 23  2  0
 22 38  1  0
 23 39  1  0
M  END

