
     RDKit          3D

 52 54  0  0  0  0  0  0  0  0999 V2000
    0.4733   -0.0725    0.4550 C   0  0  0  0  0  0  0  0  0  0  0  0
    1.9839   -0.1226    0.1536 C   0  0  2  0  0  0  0  0  0  0  0  0
    2.5937   -1.5256    0.0241 C   0  0  0  0  0  0  0  0  0  0  0  0
    2.7295   -2.3361    1.3358 C   0  0  1  0  0  0  0  0  0  0  0  0
    1.4298   -3.1133    1.6374 C   0  0  0  0  0  0  0  0  0  0  0  0
    3.8779   -3.3517    1.1323 C   0  0  0  0  0  0  0  0  0  0  0  0
    3.0583   -1.4259    2.4719 N   0  0  0  0  0  0  0  0  0  0  0  0
    3.4406   -2.0442    3.7289 C   0  0  0  0  0  0  0  0  0  0  0  0
    3.2834   -0.0684    2.3157 C   0  0  0  0  0  0  0  0  0  0  0  0
    3.9950    0.6797    3.2929 C   0  0  0  0  0  0  0  0  0  0  0  0
    4.1965    2.0449    3.1569 C   0  0  0  0  0  0  0  0  0  0  0  0
    3.7140    2.7566    2.0382 C   0  0  0  0  0  0  0  0  0  0  0  0
    3.8968    4.1832    1.8411 C   0  0  0  0  0  0  0  0  0  0  0  0
    4.5324    5.0605    2.6658 C   0  0  0  0  0  0  0  0  0  0  0  0
    4.6774    6.4736    2.4174 C   0  0  0  0  0  0  0  0  0  0  0  0
    4.2257    7.2548    1.3445 C   0  0  0  0  0  0  0  0  0  0  0  0
    4.5574    8.6106    1.4516 C   0  0  0  0  0  0  0  0  0  0  0  0
    5.2779    8.9245    2.6117 C   0  0  0  0  0  0  0  0  0  0  0  0
    5.7994   10.1560    3.0971 C   0  0  0  0  0  0  0  0  0  0  0  0
    5.7410   11.4180    2.5541 C   0  0  0  0  0  0  0  0  0  0  0  0
    5.0992   11.7289    1.3224 C   0  0  0  0  0  0  0  0  0  0  0  0
    4.5903   12.0434    0.3220 N   0  0  0  0  0  0  0  0  0  0  0  0
    6.3980   12.5369    3.3145 C   0  0  0  0  0  0  0  0  0  0  0  0
    6.9640   12.3705    4.3647 O   0  0  0  0  0  0  0  0  0  0  0  0
    6.3219   13.7614    2.7585 O   0  0  0  0  0  0  0  0  0  0  0  0
    5.5254    7.4679    3.5620 S   0  0  0  0  0  0  0  0  0  0  0  0
    3.0138    2.0036    1.0689 C   0  0  0  0  0  0  0  0  0  0  0  0
    2.7860    0.6384    1.1846 C   0  0  0  0  0  0  0  0  0  0  0  0
   -0.0967   -0.7078   -0.2432 H   0  0  0  0  0  0  0  0  0  0  0  0
    0.1030    0.9592    0.3522 H   0  0  0  0  0  0  0  0  0  0  0  0
    0.2442   -0.3945    1.4814 H   0  0  0  0  0  0  0  0  0  0  0  0
    2.1292    0.3720   -0.8221 H   0  0  0  0  0  0  0  0  0  0  0  0
    3.6009   -1.3968   -0.4048 H   0  0  0  0  0  0  0  0  0  0  0  0
    2.0256   -2.1342   -0.6974 H   0  0  0  0  0  0  0  0  0  0  0  0
    1.1973   -3.7933    0.8032 H   0  0  0  0  0  0  0  0  0  0  0  0
    0.5744   -2.4415    1.7799 H   0  0  0  0  0  0  0  0  0  0  0  0
    1.5256   -3.7330    2.5419 H   0  0  0  0  0  0  0  0  0  0  0  0
    3.6912   -3.9536    0.2292 H   0  0  0  0  0  0  0  0  0  0  0  0
    3.9732   -4.0504    1.9766 H   0  0  0  0  0  0  0  0  0  0  0  0
    4.8398   -2.8318    1.0026 H   0  0  0  0  0  0  0  0  0  0  0  0
    3.0304   -3.0585    3.7903 H   0  0  0  0  0  0  0  0  0  0  0  0
    3.0326   -1.4761    4.5794 H   0  0  0  0  0  0  0  0  0  0  0  0
    4.5369   -2.1167    3.8634 H   0  0  0  0  0  0  0  0  0  0  0  0
    4.4105    0.1831    4.1679 H   0  0  0  0  0  0  0  0  0  0  0  0
    4.7557    2.5647    3.9381 H   0  0  0  0  0  0  0  0  0  0  0  0
    3.4622    4.5750    0.9147 H   0  0  0  0  0  0  0  0  0  0  0  0
    4.9754    4.6931    3.5960 H   0  0  0  0  0  0  0  0  0  0  0  0
    3.6663    6.8407    0.5053 H   0  0  0  0  0  0  0  0  0  0  0  0
    4.2827    9.3561    0.7056 H   0  0  0  0  0  0  0  0  0  0  0  0
    6.3380   10.1304    4.0508 H   0  0  0  0  0  0  0  0  0  0  0  0
    5.8370   13.7401    1.9179 H   0  0  0  0  0  0  0  0  0  0  0  0
    2.6217    2.5197    0.1861 H   0  0  0  0  0  0  0  0  0  0  0  0
  1  2  1  0
  1 29  1  0
  1 30  1  0
  1 31  1  0
  2  3  1  0
  2 28  1  0
  2 32  1  6
  3  4  1  0
  3 33  1  0
  3 34  1  0
  4  5  1  1
  4  6  1  0
  4  7  1  0
  5 35  1  0
  5 36  1  0
  5 37  1  0
  6 38  1  0
  6 39  1  0
  6 40  1  0
  7  8  1  0
  7  9  1  0
  8 41  1  0
  8 42  1  0
  8 43  1  0
  9 10  1  0
  9 28  2  0
 10 11  2  0
 10 44  1  0
 11 12  1  0
 11 45  1  0
 12 13  1  0
 12 27  2  0
 13 14  2  0
 13 46  1  0
 14 15  1  0
 14 47  1  0
 15 16  2  0
 15 26  1  0
 16 17  1  0
 16 48  1  0
 17 18  2  0
 17 49  1  0
 18 19  1  0
 18 26  1  0
 19 20  2  0
 19 50  1  0
 20 21  1  0
 20 23  1  0
 21 22  3  0
 23 24  2  0
 23 25  1  0
 25 51  1  0
 27 28  1  0
 27 52  1  0
M  END

