
     RDKit          3D

 86 88  0  0  0  0  0  0  0  0999 V2000
    1.3816    0.9776    1.2932 C   0  0  0  0  0  0  0  0  0  0  0  0
    2.7570    0.7155    0.8106 C   0  0  0  0  0  0  0  0  0  0  0  0
    3.7927    1.6702    0.4887 C   0  0  0  0  0  0  0  0  0  0  0  0
    3.6059    3.1538    0.5063 C   0  0  0  0  0  0  0  0  0  0  0  0
    2.6805    3.6774    1.1175 O   0  0  0  0  0  0  0  0  0  0  0  0
    4.5387    3.8633   -0.1872 N   0  0  0  0  0  0  0  0  0  0  0  0
    4.5924    5.3149   -0.1819 C   0  0  0  0  0  0  0  0  0  0  0  0
    4.0544    5.9978   -1.4736 C   0  0  1  0  0  0  0  0  0  0  0  0
    4.8766    5.5503   -2.6993 C   0  0  0  0  0  0  0  0  0  0  0  0
    2.5699    5.6679   -1.6868 C   0  0  0  0  0  0  0  0  0  0  0  0
    4.3471    7.5063   -1.2659 C   0  0  0  0  0  0  0  0  0  0  0  0
    3.2961    8.3680   -1.3429 N   0  0  0  0  0  0  0  0  0  0  0  0
    5.4833    7.8904   -1.0444 O   0  0  0  0  0  0  0  0  0  0  0  0
    4.9398    0.9372    0.2456 C   0  0  0  0  0  0  0  0  0  0  0  0
    4.6389   -0.4639    0.3519 C   0  0  0  0  0  0  0  0  0  0  0  0
    5.5104   -1.6131    0.1907 C   0  0  0  0  0  0  0  0  0  0  0  0
    6.2518   -2.0804    1.3457 C   0  0  0  0  0  0  0  0  0  0  0  0
    7.2901   -2.9781    1.2112 C   0  0  0  0  0  0  0  0  0  0  0  0
    8.0567   -3.5386    2.4255 C   0  0  1  0  0  0  0  0  0  0  0  0
    7.9134   -5.0785    2.4654 C   0  0  0  0  0  0  0  0  0  0  0  0
    9.5555   -3.1731    2.3071 C   0  0  0  0  0  0  0  0  0  0  0  0
    7.5422   -2.9827    3.7654 C   0  0  0  0  0  0  0  0  0  0  0  0
    7.6700   -3.4167   -0.1084 C   0  0  0  0  0  0  0  0  0  0  0  0
    7.0499   -2.8726   -1.2731 C   0  0  0  0  0  0  0  0  0  0  0  0
    7.5632   -3.2267   -2.6918 C   0  0  1  0  0  0  0  0  0  0  0  0
    6.3922   -3.6060   -3.6245 C   0  0  0  0  0  0  0  0  0  0  0  0
    8.3020   -2.0015   -3.2800 C   0  0  0  0  0  0  0  0  0  0  0  0
    8.5461   -4.4139   -2.6799 C   0  0  0  0  0  0  0  0  0  0  0  0
    6.0125   -1.9670   -1.1282 C   0  0  0  0  0  0  0  0  0  0  0  0
    3.2847   -0.5391    0.6794 N   0  0  0  0  0  0  0  0  0  0  0  0
    2.5716   -1.7969    0.9522 C   0  0  0  0  0  0  0  0  0  0  0  0
    1.5991   -2.2446   -0.1606 C   0  0  1  0  0  0  0  0  0  0  0  0
    2.3113   -2.7691   -1.4258 C   0  0  0  0  0  0  0  0  0  0  0  0
    2.9518   -4.1506   -1.2310 C   0  0  0  0  0  0  0  0  0  0  0  0
    1.9467   -5.1774   -0.6948 C   0  0  0  0  0  0  0  0  0  0  0  0
    1.2676   -4.6828    0.5888 C   0  0  0  0  0  0  0  0  0  0  0  0
    0.6165   -3.3085    0.3770 C   0  0  0  0  0  0  0  0  0  0  0  0
    1.1493    2.0433    1.1975 H   0  0  0  0  0  0  0  0  0  0  0  0
    1.3145    0.7189    2.3668 H   0  0  0  0  0  0  0  0  0  0  0  0
    0.6373    0.3591    0.7709 H   0  0  0  0  0  0  0  0  0  0  0  0
    5.2565    3.3561   -0.6891 H   0  0  0  0  0  0  0  0  0  0  0  0
    5.6326    5.6398   -0.0347 H   0  0  0  0  0  0  0  0  0  0  0  0
    4.0049    5.6528    0.6834 H   0  0  0  0  0  0  0  0  0  0  0  0
    4.7811    4.4644   -2.8597 H   0  0  0  0  0  0  0  0  0  0  0  0
    5.9380    5.8052   -2.5678 H   0  0  0  0  0  0  0  0  0  0  0  0
    4.5204    6.0500   -3.6142 H   0  0  0  0  0  0  0  0  0  0  0  0
    2.4397    4.5858   -1.8365 H   0  0  0  0  0  0  0  0  0  0  0  0
    2.1748    6.1635   -2.5886 H   0  0  0  0  0  0  0  0  0  0  0  0
    1.9533    5.9459   -0.8179 H   0  0  0  0  0  0  0  0  0  0  0  0
    2.3448    8.0696   -1.5001 H   0  0  0  0  0  0  0  0  0  0  0  0
    3.4854    9.3538   -1.2023 H   0  0  0  0  0  0  0  0  0  0  0  0
    5.9416    1.2940    0.0189 H   0  0  0  0  0  0  0  0  0  0  0  0
    5.9555   -1.7231    2.3332 H   0  0  0  0  0  0  0  0  0  0  0  0
    8.2852   -5.5464    1.5420 H   0  0  0  0  0  0  0  0  0  0  0  0
    6.8564   -5.3689    2.5802 H   0  0  0  0  0  0  0  0  0  0  0  0
    8.4789   -5.5034    3.3126 H   0  0  0  0  0  0  0  0  0  0  0  0
    9.9969   -3.5641    1.3787 H   0  0  0  0  0  0  0  0  0  0  0  0
   10.1279   -3.5851    3.1560 H   0  0  0  0  0  0  0  0  0  0  0  0
    9.6895   -2.0794    2.3021 H   0  0  0  0  0  0  0  0  0  0  0  0
    6.4824   -3.2338    3.9315 H   0  0  0  0  0  0  0  0  0  0  0  0
    7.6453   -1.8873    3.8182 H   0  0  0  0  0  0  0  0  0  0  0  0
    8.1201   -3.4120    4.5999 H   0  0  0  0  0  0  0  0  0  0  0  0
    8.4791   -4.1337   -0.2102 H   0  0  0  0  0  0  0  0  0  0  0  0
    5.6681   -2.7854   -3.7369 H   0  0  0  0  0  0  0  0  0  0  0  0
    5.8488   -4.4814   -3.2344 H   0  0  0  0  0  0  0  0  0  0  0  0
    6.7648   -3.8581   -4.6322 H   0  0  0  0  0  0  0  0  0  0  0  0
    7.6280   -1.1359   -3.3744 H   0  0  0  0  0  0  0  0  0  0  0  0
    8.7118   -2.2259   -4.2807 H   0  0  0  0  0  0  0  0  0  0  0  0
    9.1382   -1.7030   -2.6277 H   0  0  0  0  0  0  0  0  0  0  0  0
    8.0904   -5.3117   -2.2345 H   0  0  0  0  0  0  0  0  0  0  0  0
    9.4607   -4.1828   -2.1137 H   0  0  0  0  0  0  0  0  0  0  0  0
    8.8488   -4.6619   -3.7106 H   0  0  0  0  0  0  0  0  0  0  0  0
    5.5489   -1.5163   -2.0086 H   0  0  0  0  0  0  0  0  0  0  0  0
    2.0252   -1.6651    1.8986 H   0  0  0  0  0  0  0  0  0  0  0  0
    3.3632   -2.5399    1.1136 H   0  0  0  0  0  0  0  0  0  0  0  0
    1.0007   -1.3634   -0.4512 H   0  0  0  0  0  0  0  0  0  0  0  0
    3.0729   -2.0501   -1.7672 H   0  0  0  0  0  0  0  0  0  0  0  0
    1.5581   -2.8277   -2.2323 H   0  0  0  0  0  0  0  0  0  0  0  0
    3.8109   -4.0648   -0.5449 H   0  0  0  0  0  0  0  0  0  0  0  0
    3.3750   -4.4922   -2.1890 H   0  0  0  0  0  0  0  0  0  0  0  0
    2.4468   -6.1432   -0.5144 H   0  0  0  0  0  0  0  0  0  0  0  0
    1.1705   -5.3679   -1.4601 H   0  0  0  0  0  0  0  0  0  0  0  0
    2.0137   -4.6280    1.4022 H   0  0  0  0  0  0  0  0  0  0  0  0
    0.5047   -5.4044    0.9263 H   0  0  0  0  0  0  0  0  0  0  0  0
    0.1441   -2.9544    1.3104 H   0  0  0  0  0  0  0  0  0  0  0  0
   -0.2009   -3.4152   -0.3581 H   0  0  0  0  0  0  0  0  0  0  0  0
  1  2  1  0
  1 38  1  0
  1 39  1  0
  1 40  1  0
  2  3  2  0
  2 30  1  0
  3  4  1  0
  3 14  1  0
  4  5  2  0
  4  6  1  0
  6  7  1  0
  6 41  1  0
  7  8  1  0
  7 42  1  0
  7 43  1  0
  8  9  1  0
  8 10  1  0
  8 11  1  1
  9 44  1  0
  9 45  1  0
  9 46  1  0
 10 47  1  0
 10 48  1  0
 10 49  1  0
 11 12  1  0
 11 13  2  0
 12 50  1  0
 12 51  1  0
 14 15  2  0
 14 52  1  0
 15 16  1  0
 15 30  1  0
 16 17  2  0
 16 29  1  0
 17 18  1  0
 17 53  1  0
 18 19  1  0
 18 23  2  0
 19 20  1  6
 19 21  1  0
 19 22  1  0
 20 54  1  0
 20 55  1  0
 20 56  1  0
 21 57  1  0
 21 58  1  0
 21 59  1  0
 22 60  1  0
 22 61  1  0
 22 62  1  0
 23 24  1  0
 23 63  1  0
 24 25  1  0
 24 29  2  0
 25 26  1  6
 25 27  1  0
 25 28  1  0
 26 64  1  0
 26 65  1  0
 26 66  1  0
 27 67  1  0
 27 68  1  0
 27 69  1  0
 28 70  1  0
 28 71  1  0
 28 72  1  0
 29 73  1  0
 30 31  1  0
 31 32  1  0
 31 74  1  0
 31 75  1  0
 32 33  1  0
 32 37  1  0
 32 76  1  6
 33 34  1  0
 33 77  1  0
 33 78  1  0
 34 35  1  0
 34 79  1  0
 34 80  1  0
 35 36  1  0
 35 81  1  0
 35 82  1  0
 36 37  1  0
 36 83  1  0
 36 84  1  0
 37 85  1  0
 37 86  1  0
M  END

