
     RDKit          3D

 61 62  0  0  0  0  0  0  0  0999 V2000
    1.4273    2.2490    0.1342 C   0  0  0  0  0  0  0  0  0  0  0  0
    2.6665    1.3531    0.1051 C   0  0  0  0  0  0  0  0  0  0  0  0
    3.2107    1.1223   -1.3068 C   0  0  0  0  0  0  0  0  0  0  0  0
    4.4515    0.2282   -1.3479 C   0  0  0  0  0  0  0  0  0  0  0  0
    5.0667    0.1441   -2.7433 C   0  0  0  0  0  0  0  0  0  0  0  0
    5.0836    1.0940   -3.5104 O   0  0  0  0  0  0  0  0  0  0  0  0
    5.6254   -1.0614   -3.0699 N   0  0  0  0  0  0  0  0  0  0  0  0
    6.3306   -1.2701   -4.3343 C   0  0  1  0  0  0  0  0  0  0  0  0
    7.2963   -2.4591   -4.2239 C   0  0  0  0  0  0  0  0  0  0  0  0
    6.5643   -3.8057   -4.1824 C   0  0  0  0  0  0  0  0  0  0  0  0
    5.6300   -3.9463   -5.2988 N   0  0  0  0  0  0  0  0  0  0  0  0
    5.7055   -5.0725   -6.0762 C   0  0  0  0  0  0  0  0  0  0  0  0
    6.5761   -5.9179   -5.9329 O   0  0  0  0  0  0  0  0  0  0  0  0
    4.6184   -5.2641   -7.1616 C   0  0  1  0  0  0  0  0  0  0  0  0
    4.9162   -6.4647   -8.0423 C   0  0  0  0  0  0  0  0  0  0  0  0
    3.3845   -5.4825   -6.4468 O   0  0  0  0  0  0  0  0  0  0  0  0
    2.2310   -4.8751   -6.7907 C   0  0  0  0  0  0  0  0  0  0  0  0
    1.2107   -4.9427   -5.8087 C   0  0  0  0  0  0  0  0  0  0  0  0
   -0.0531   -4.3465   -6.0862 C   0  0  0  0  0  0  0  0  0  0  0  0
   -0.2525   -3.6470   -7.3068 C   0  0  0  0  0  0  0  0  0  0  0  0
   -1.5891   -2.9960   -7.5836 C   0  0  1  0  0  0  0  0  0  0  0  0
   -1.4617   -1.4676   -7.7503 C   0  0  0  0  0  0  0  0  0  0  0  0
   -2.2946   -3.6258   -8.8033 C   0  0  0  0  0  0  0  0  0  0  0  0
    0.7968   -3.5712   -8.2721 C   0  0  0  0  0  0  0  0  0  0  0  0
    2.0544   -4.2071   -8.0425 C   0  0  0  0  0  0  0  0  0  0  0  0
    4.6555   -2.8583   -5.4195 C   0  0  0  0  0  0  0  0  0  0  0  0
    5.3581   -1.5007   -5.5068 C   0  0  0  0  0  0  0  0  0  0  0  0
    1.0633    2.4040    1.1624 H   0  0  0  0  0  0  0  0  0  0  0  0
    0.6009    1.8092   -0.4489 H   0  0  0  0  0  0  0  0  0  0  0  0
    1.6424    3.2406   -0.2976 H   0  0  0  0  0  0  0  0  0  0  0  0
    2.4289    0.3802    0.5740 H   0  0  0  0  0  0  0  0  0  0  0  0
    3.4600    1.8007    0.7316 H   0  0  0  0  0  0  0  0  0  0  0  0
    3.4674    2.0841   -1.7801 H   0  0  0  0  0  0  0  0  0  0  0  0
    2.4213    0.6776   -1.9396 H   0  0  0  0  0  0  0  0  0  0  0  0
    4.2239   -0.7804   -0.9607 H   0  0  0  0  0  0  0  0  0  0  0  0
    5.2296    0.6461   -0.6820 H   0  0  0  0  0  0  0  0  0  0  0  0
    5.5874   -1.8135   -2.3932 H   0  0  0  0  0  0  0  0  0  0  0  0
    6.8932   -0.3451   -4.5347 H   0  0  0  0  0  0  0  0  0  0  0  0
    7.9350   -2.3540   -3.3310 H   0  0  0  0  0  0  0  0  0  0  0  0
    7.9637   -2.4461   -5.1006 H   0  0  0  0  0  0  0  0  0  0  0  0
    5.9996   -3.9137   -3.2342 H   0  0  0  0  0  0  0  0  0  0  0  0
    7.2707   -4.6425   -4.2334 H   0  0  0  0  0  0  0  0  0  0  0  0
    4.5172   -4.3476   -7.7636 H   0  0  0  0  0  0  0  0  0  0  0  0
    5.0161   -7.3718   -7.4314 H   0  0  0  0  0  0  0  0  0  0  0  0
    5.8658   -6.3085   -8.5740 H   0  0  0  0  0  0  0  0  0  0  0  0
    4.1085   -6.5990   -8.7768 H   0  0  0  0  0  0  0  0  0  0  0  0
    1.4511   -5.3805   -4.8388 H   0  0  0  0  0  0  0  0  0  0  0  0
   -0.8619   -4.4043   -5.3561 H   0  0  0  0  0  0  0  0  0  0  0  0
   -2.2277   -3.1808   -6.7033 H   0  0  0  0  0  0  0  0  0  0  0  0
   -0.8511   -1.2051   -8.6286 H   0  0  0  0  0  0  0  0  0  0  0  0
   -0.9934   -1.0094   -6.8655 H   0  0  0  0  0  0  0  0  0  0  0  0
   -2.4577   -1.0138   -7.8851 H   0  0  0  0  0  0  0  0  0  0  0  0
   -1.7259   -3.4571   -9.7315 H   0  0  0  0  0  0  0  0  0  0  0  0
   -3.2952   -3.1818   -8.9363 H   0  0  0  0  0  0  0  0  0  0  0  0
   -2.4160   -4.7123   -8.6743 H   0  0  0  0  0  0  0  0  0  0  0  0
    0.6245   -3.0583   -9.2194 H   0  0  0  0  0  0  0  0  0  0  0  0
    2.7509   -4.3623   -8.8677 H   0  0  0  0  0  0  0  0  0  0  0  0
    3.9848   -2.8774   -4.5402 H   0  0  0  0  0  0  0  0  0  0  0  0
    4.0199   -3.0011   -6.3014 H   0  0  0  0  0  0  0  0  0  0  0  0
    4.6154   -0.6895   -5.5265 H   0  0  0  0  0  0  0  0  0  0  0  0
    5.9272   -1.4458   -6.4511 H   0  0  0  0  0  0  0  0  0  0  0  0
  1  2  1  0
  1 28  1  0
  1 29  1  0
  1 30  1  0
  2  3  1  0
  2 31  1  0
  2 32  1  0
  3  4  1  0
  3 33  1  0
  3 34  1  0
  4  5  1  0
  4 35  1  0
  4 36  1  0
  5  6  2  0
  5  7  1  0
  7  8  1  0
  7 37  1  0
  8  9  1  0
  8 27  1  0
  8 38  1  6
  9 10  1  0
  9 39  1  0
  9 40  1  0
 10 11  1  0
 10 41  1  0
 10 42  1  0
 11 12  1  0
 11 26  1  0
 12 13  2  0
 12 14  1  0
 14 15  1  0
 14 16  1  0
 14 43  1  6
 15 44  1  0
 15 45  1  0
 15 46  1  0
 16 17  1  0
 17 18  2  0
 17 25  1  0
 18 19  1  0
 18 47  1  0
 19 20  2  0
 19 48  1  0
 20 21  1  0
 20 24  1  0
 21 22  1  0
 21 23  1  0
 21 49  1  1
 22 50  1  0
 22 51  1  0
 22 52  1  0
 23 53  1  0
 23 54  1  0
 23 55  1  0
 24 25  2  0
 24 56  1  0
 25 57  1  0
 26 27  1  0
 26 58  1  0
 26 59  1  0
 27 60  1  0
 27 61  1  0
M  END

