
     RDKit          3D

 50 52  0  0  0  0  0  0  0  0999 V2000
    7.0570   -5.4780   -1.7372 C   0  0  0  0  0  0  0  0  0  0  0  0
    6.5319   -4.1785   -1.1074 C   0  0  1  0  0  0  0  0  0  0  0  0
    7.2991   -2.9290   -1.5951 C   0  0  0  0  0  0  0  0  0  0  0  0
    6.9021   -2.5182   -3.0254 C   0  0  0  0  0  0  0  0  0  0  0  0
    5.4636   -2.3308   -3.2010 N   0  0  0  0  0  0  0  0  0  0  0  0
    4.9337   -1.0504   -2.7419 C   0  0  0  0  0  0  0  0  0  0  0  0
    5.0544    0.0140   -3.8556 C   0  0  1  0  0  0  0  0  0  0  0  0
    4.0920   -0.2258   -5.0254 C   0  0  0  0  0  0  0  0  0  0  0  0
    4.3164    0.6831   -6.2443 C   0  0  0  0  0  0  0  0  0  0  0  0
    4.0381    2.1792   -6.0040 C   0  0  0  0  0  0  0  0  0  0  0  0
    5.1580    3.0012   -5.3377 C   0  0  0  0  0  0  0  0  0  0  0  0
    5.8477    2.3490   -4.1179 C   0  0  0  0  0  0  0  0  0  0  0  0
    5.0054    1.4140   -3.3615 N   0  0  0  0  0  0  0  0  0  0  0  0
    3.9533    1.7944   -2.5652 C   0  0  0  0  0  0  0  0  0  0  0  0
    3.0720    1.0113   -2.2179 O   0  0  0  0  0  0  0  0  0  0  0  0
    3.8295    3.1891   -2.0492 C   0  0  0  0  0  0  0  0  0  0  0  0
    2.7977    3.6738   -1.2820 C   0  0  0  0  0  0  0  0  0  0  0  0
    3.1046    5.0381   -0.9960 C   0  0  0  0  0  0  0  0  0  0  0  0
    4.3019    5.2890   -1.6078 C   0  0  0  0  0  0  0  0  0  0  0  0
    4.7487    4.1823   -2.2458 O   0  0  0  0  0  0  0  0  0  0  0  0
    4.7212   -3.5199   -2.7901 C   0  0  0  0  0  0  0  0  0  0  0  0
    5.0203   -3.9694   -1.3493 C   0  0  0  0  0  0  0  0  0  0  0  0
    8.1279   -5.6178   -1.5161 H   0  0  0  0  0  0  0  0  0  0  0  0
    6.9445   -5.4957   -2.8332 H   0  0  0  0  0  0  0  0  0  0  0  0
    6.5177   -6.3533   -1.3396 H   0  0  0  0  0  0  0  0  0  0  0  0
    6.6906   -4.2656   -0.0178 H   0  0  0  0  0  0  0  0  0  0  0  0
    8.3885   -3.1016   -1.5442 H   0  0  0  0  0  0  0  0  0  0  0  0
    7.0861   -2.0902   -0.9093 H   0  0  0  0  0  0  0  0  0  0  0  0
    7.2430   -3.2883   -3.7415 H   0  0  0  0  0  0  0  0  0  0  0  0
    7.4264   -1.5910   -3.3090 H   0  0  0  0  0  0  0  0  0  0  0  0
    5.4480   -0.6635   -1.8384 H   0  0  0  0  0  0  0  0  0  0  0  0
    3.8803   -1.1700   -2.4649 H   0  0  0  0  0  0  0  0  0  0  0  0
    6.0774   -0.0931   -4.2501 H   0  0  0  0  0  0  0  0  0  0  0  0
    3.0576   -0.1067   -4.6608 H   0  0  0  0  0  0  0  0  0  0  0  0
    4.2116   -1.2795   -5.3242 H   0  0  0  0  0  0  0  0  0  0  0  0
    3.6474    0.3342   -7.0492 H   0  0  0  0  0  0  0  0  0  0  0  0
    5.3433    0.5476   -6.6343 H   0  0  0  0  0  0  0  0  0  0  0  0
    3.1144    2.2665   -5.4050 H   0  0  0  0  0  0  0  0  0  0  0  0
    3.8074    2.6638   -6.9677 H   0  0  0  0  0  0  0  0  0  0  0  0
    4.7372    3.9758   -5.0398 H   0  0  0  0  0  0  0  0  0  0  0  0
    5.9443    3.2269   -6.0798 H   0  0  0  0  0  0  0  0  0  0  0  0
    6.2442    3.1248   -3.4539 H   0  0  0  0  0  0  0  0  0  0  0  0
    6.7132    1.7628   -4.4565 H   0  0  0  0  0  0  0  0  0  0  0  0
    1.9343    3.0931   -0.9697 H   0  0  0  0  0  0  0  0  0  0  0  0
    2.5159    5.7432   -0.4130 H   0  0  0  0  0  0  0  0  0  0  0  0
    4.9359    6.1695   -1.6774 H   0  0  0  0  0  0  0  0  0  0  0  0
    4.9704   -4.3383   -3.4910 H   0  0  0  0  0  0  0  0  0  0  0  0
    3.6443   -3.3267   -2.9150 H   0  0  0  0  0  0  0  0  0  0  0  0
    4.4634   -4.8950   -1.1200 H   0  0  0  0  0  0  0  0  0  0  0  0
    4.6466   -3.1986   -0.6520 H   0  0  0  0  0  0  0  0  0  0  0  0
  1  2  1  0
  1 23  1  0
  1 24  1  0
  1 25  1  0
  2  3  1  0
  2 22  1  0
  2 26  1  1
  3  4  1  0
  3 27  1  0
  3 28  1  0
  4  5  1  0
  4 29  1  0
  4 30  1  0
  5  6  1  0
  5 21  1  0
  6  7  1  0
  6 31  1  0
  6 32  1  0
  7  8  1  0
  7 13  1  0
  7 33  1  6
  8  9  1  0
  8 34  1  0
  8 35  1  0
  9 10  1  0
  9 36  1  0
  9 37  1  0
 10 11  1  0
 10 38  1  0
 10 39  1  0
 11 12  1  0
 11 40  1  0
 11 41  1  0
 12 13  1  0
 12 42  1  0
 12 43  1  0
 13 14  1  0
 14 15  2  0
 14 16  1  0
 16 17  2  0
 16 20  1  0
 17 18  1  0
 17 44  1  0
 18 19  2  0
 18 45  1  0
 19 20  1  0
 19 46  1  0
 21 22  1  0
 21 47  1  0
 21 48  1  0
 22 49  1  0
 22 50  1  0
M  END

