
     RDKit          3D

 45 46  0  0  0  0  0  0  0  0999 V2000
    3.9367    4.9531    0.8468 C   0  0  0  0  0  0  0  0  0  0  0  0
    3.8207    3.5734    0.5727 O   0  0  0  0  0  0  0  0  0  0  0  0
    4.6951    2.7540    1.3148 C   0  0  0  0  0  0  0  0  0  0  0  0
    4.5784    1.3269    0.7677 C   0  0  1  0  0  0  0  0  0  0  0  0
    5.2130    1.2544   -0.6711 C   0  0  0  0  0  0  0  0  0  0  0  0
    6.6486    1.3120   -0.6065 N   0  0  0  0  0  0  0  0  0  0  0  0
    7.3193    0.0240   -0.8379 C   0  0  0  0  0  0  0  0  0  0  0  0
    6.6392   -1.0047   -0.6101 O   0  0  0  0  0  0  0  0  0  0  0  0
    8.6632    0.0750   -1.2995 C   0  0  0  0  0  0  0  0  0  0  0  0
    9.3418   -1.1472   -1.6253 C   0  0  0  0  0  0  0  0  0  0  0  0
   10.6290   -1.1320   -2.1212 C   0  0  0  0  0  0  0  0  0  0  0  0
   11.3600    0.0676   -2.3258 C   0  0  0  0  0  0  0  0  0  0  0  0
   12.7606    0.0820   -2.8728 C   0  0  0  0  0  0  0  0  0  0  0  0
   10.7096    1.2762   -1.9681 C   0  0  0  0  0  0  0  0  0  0  0  0
   11.4744    2.4090   -2.1470 O   0  0  0  0  0  0  0  0  0  0  0  0
   10.9290    3.6573   -1.8360 C   0  0  0  0  0  0  0  0  0  0  0  0
    9.4154    1.3033   -1.4634 C   0  0  0  0  0  0  0  0  0  0  0  0
    5.0701    0.2200    1.7229 C   0  0  0  0  0  0  0  0  0  0  0  0
    4.1794   -0.9877    1.3845 C   0  0  0  0  0  0  0  0  0  0  0  0
    2.8304   -0.3559    1.0055 C   0  0  0  0  0  0  0  0  0  0  0  0
    3.1630    0.9858    0.6260 N   0  0  0  0  0  0  0  0  0  0  0  0
    3.2189    5.4814    0.2043 H   0  0  0  0  0  0  0  0  0  0  0  0
    4.9546    5.3244    0.6274 H   0  0  0  0  0  0  0  0  0  0  0  0
    3.7034    5.1799    1.9049 H   0  0  0  0  0  0  0  0  0  0  0  0
    4.4341    2.7832    2.3920 H   0  0  0  0  0  0  0  0  0  0  0  0
    5.7510    3.0546    1.2061 H   0  0  0  0  0  0  0  0  0  0  0  0
    4.8050    2.1099   -1.2315 H   0  0  0  0  0  0  0  0  0  0  0  0
    4.8788    0.3241   -1.1575 H   0  0  0  0  0  0  0  0  0  0  0  0
    7.0243    2.0347   -1.2132 H   0  0  0  0  0  0  0  0  0  0  0  0
    8.8031   -2.0854   -1.4867 H   0  0  0  0  0  0  0  0  0  0  0  0
   11.1149   -2.0804   -2.3740 H   0  0  0  0  0  0  0  0  0  0  0  0
   13.1045   -0.9418   -3.0888 H   0  0  0  0  0  0  0  0  0  0  0  0
   13.4831    0.5378   -2.1707 H   0  0  0  0  0  0  0  0  0  0  0  0
   12.8416    0.6673   -3.8074 H   0  0  0  0  0  0  0  0  0  0  0  0
   11.6886    4.4126   -2.0869 H   0  0  0  0  0  0  0  0  0  0  0  0
   10.6794    3.7526   -0.7611 H   0  0  0  0  0  0  0  0  0  0  0  0
   10.0109    3.8701   -2.4180 H   0  0  0  0  0  0  0  0  0  0  0  0
    8.9952    2.2484   -1.1235 H   0  0  0  0  0  0  0  0  0  0  0  0
    4.9213    0.5443    2.7673 H   0  0  0  0  0  0  0  0  0  0  0  0
    6.1270   -0.0013    1.5592 H   0  0  0  0  0  0  0  0  0  0  0  0
    4.0766   -1.6966    2.2161 H   0  0  0  0  0  0  0  0  0  0  0  0
    4.6240   -1.5092    0.5265 H   0  0  0  0  0  0  0  0  0  0  0  0
    2.1170   -0.2927    1.8539 H   0  0  0  0  0  0  0  0  0  0  0  0
    2.2722   -0.8462    0.1883 H   0  0  0  0  0  0  0  0  0  0  0  0
    2.5044    1.6703    0.2539 H   0  0  0  0  0  0  0  0  0  0  0  0
  1  2  1  0
  1 22  1  0
  1 23  1  0
  1 24  1  0
  2  3  1  0
  4  3  1  1
  3 25  1  0
  3 26  1  0
  4  5  1  0
  4 18  1  0
  4 21  1  0
  5  6  1  0
  5 27  1  0
  5 28  1  0
  6  7  1  0
  6 29  1  0
  7  8  2  0
  7  9  1  0
  9 10  2  0
  9 17  1  0
 10 11  1  0
 10 30  1  0
 11 12  2  0
 11 31  1  0
 12 13  1  0
 12 14  1  0
 13 32  1  0
 13 33  1  0
 13 34  1  0
 14 15  1  0
 14 17  2  0
 15 16  1  0
 16 35  1  0
 16 36  1  0
 16 37  1  0
 17 38  1  0
 18 19  1  0
 18 39  1  0
 18 40  1  0
 19 20  1  0
 19 41  1  0
 19 42  1  0
 20 21  1  0
 20 43  1  0
 20 44  1  0
 21 45  1  0
M  END

