
     RDKit          3D

 38 40  0  0  0  0  0  0  0  0999 V2000
    4.6064    1.4640   -0.3257 C   0  0  0  0  0  0  0  0  0  0  0  0
    4.6752    0.1524    0.1948 O   0  0  0  0  0  0  0  0  0  0  0  0
    4.5646   -0.9042   -0.6371 C   0  0  0  0  0  0  0  0  0  0  0  0
    4.6411   -2.1778   -0.0317 C   0  0  0  0  0  0  0  0  0  0  0  0
    4.5395   -3.3256   -0.7972 C   0  0  0  0  0  0  0  0  0  0  0  0
    4.3557   -3.2439   -2.1967 C   0  0  0  0  0  0  0  0  0  0  0  0
    4.2346   -4.4356   -3.0292 C   0  0  0  0  0  0  0  0  0  0  0  0
    4.2875   -5.6191   -2.5338 N   0  0  0  0  0  0  0  0  0  0  0  0
    4.2118   -6.6695   -3.4142 N   0  0  0  0  0  0  0  0  0  0  0  0
    4.7166   -6.8200   -4.6904 C   0  0  0  0  0  0  0  0  0  0  0  0
    4.5656   -8.0529   -5.0957 N   0  0  0  0  0  0  0  0  0  0  0  0
    3.9254   -8.7482   -4.1042 N   0  0  0  0  0  0  0  0  0  0  0  0
    3.7371   -7.9226   -3.1045 C   0  0  0  0  0  0  0  0  0  0  0  0
    3.1230   -8.2356   -1.8949 N   0  0  0  0  0  0  0  0  0  0  0  0
    2.1978   -7.3885   -1.3665 N   0  0  0  0  0  0  0  0  0  0  0  0
    1.7444   -7.9846   -0.2771 C   0  0  0  0  0  0  0  0  0  0  0  0
    0.7021   -7.3558    0.5894 C   0  0  0  0  0  0  0  0  0  0  0  0
    2.3873   -9.2483   -0.1115 C   0  0  0  0  0  0  0  0  0  0  0  0
    2.0860  -10.4778    1.2840 Br  0  0  0  0  0  0  0  0  0  0  0  0
    3.2694   -9.3972   -1.1666 C   0  0  0  0  0  0  0  0  0  0  0  0
    4.2069  -10.5008   -1.5207 C   0  0  0  0  0  0  0  0  0  0  0  0
    4.2805   -1.9733   -2.7882 C   0  0  0  0  0  0  0  0  0  0  0  0
    4.3829   -0.8076   -2.0266 C   0  0  0  0  0  0  0  0  0  0  0  0
    4.7181    2.1439    0.5289 H   0  0  0  0  0  0  0  0  0  0  0  0
    3.6357    1.6585   -0.8152 H   0  0  0  0  0  0  0  0  0  0  0  0
    5.4182    1.6596   -1.0485 H   0  0  0  0  0  0  0  0  0  0  0  0
    4.7812   -2.2253    1.0500 H   0  0  0  0  0  0  0  0  0  0  0  0
    4.5946   -4.3112   -0.3315 H   0  0  0  0  0  0  0  0  0  0  0  0
    4.0806   -4.2679   -4.1088 H   0  0  0  0  0  0  0  0  0  0  0  0
    5.2084   -6.0207   -5.2404 H   0  0  0  0  0  0  0  0  0  0  0  0
    0.4171   -6.3788    0.1764 H   0  0  0  0  0  0  0  0  0  0  0  0
    1.0726   -7.2133    1.6177 H   0  0  0  0  0  0  0  0  0  0  0  0
   -0.1964   -7.9906    0.6551 H   0  0  0  0  0  0  0  0  0  0  0  0
    4.1367  -11.2949   -0.7655 H   0  0  0  0  0  0  0  0  0  0  0  0
    5.2498  -10.1450   -1.5565 H   0  0  0  0  0  0  0  0  0  0  0  0
    3.9747  -10.9151   -2.5126 H   0  0  0  0  0  0  0  0  0  0  0  0
    4.1371   -1.8892   -3.8695 H   0  0  0  0  0  0  0  0  0  0  0  0
    4.3195    0.1617   -2.5204 H   0  0  0  0  0  0  0  0  0  0  0  0
  1  2  1  0
  1 24  1  0
  1 25  1  0
  1 26  1  0
  2  3  1  0
  3  4  2  0
  3 23  1  0
  4  5  1  0
  4 27  1  0
  5  6  2  0
  5 28  1  0
  6  7  1  0
  6 22  1  0
  7  8  2  0
  7 29  1  0
  8  9  1  0
  9 10  1  0
  9 13  1  0
 10 11  2  0
 10 30  1  0
 11 12  1  0
 12 13  2  0
 13 14  1  0
 14 15  1  0
 14 20  1  0
 15 16  2  0
 16 17  1  0
 16 18  1  0
 17 31  1  0
 17 32  1  0
 17 33  1  0
 18 19  1  0
 18 20  2  0
 20 21  1  0
 21 34  1  0
 21 35  1  0
 21 36  1  0
 22 23  2  0
 22 37  1  0
 23 38  1  0
M  END

