
     RDKit          3D

 73 77  0  0  0  0  0  0  0  0999 V2000
    3.1274   -0.6353    0.9677 C   0  0  0  0  0  0  0  0  0  0  0  0
    2.3877   -0.3511   -0.3394 C   0  0  0  0  0  0  0  0  0  0  0  0
    3.2430   -0.4104   -1.6377 C   0  0  2  0  0  0  0  0  0  0  0  0
    2.3211   -0.0761   -2.8455 C   0  0  0  0  0  0  0  0  0  0  0  0
    2.9839   -0.0864   -4.2228 C   0  0  0  0  0  0  0  0  0  0  0  0
    3.9300   -1.7679   -1.8034 C   0  0  0  0  0  0  0  0  0  0  0  0
    3.3596   -3.0257   -1.9194 C   0  0  0  0  0  0  0  0  0  0  0  0
    4.1737   -4.1781   -2.0642 C   0  0  0  0  0  0  0  0  0  0  0  0
    3.5271   -5.4773   -2.1783 C   0  0  0  0  0  0  0  0  0  0  0  0
    4.1224   -6.6929   -2.3121 C   0  0  0  0  0  0  0  0  0  0  0  0
    3.4212   -7.9503   -2.4176 C   0  0  0  0  0  0  0  0  0  0  0  0
    2.0468   -8.2213   -2.4150 C   0  0  0  0  0  0  0  0  0  0  0  0
    1.7380   -9.5821   -2.5349 C   0  0  0  0  0  0  0  0  0  0  0  0
    2.8652  -10.4075   -2.6349 C   0  0  0  0  0  0  0  0  0  0  0  0
    2.9949  -11.8195   -2.7691 C   0  0  0  0  0  0  0  0  0  0  0  0
    2.0282  -12.7936   -2.8351 C   0  0  0  0  0  0  0  0  0  0  0  0
    0.6291  -12.5369   -2.7755 C   0  0  0  0  0  0  0  0  0  0  0  0
   -0.5261  -12.3888   -2.7320 N   0  0  0  0  0  0  0  0  0  0  0  0
    2.4828  -14.2211   -2.9786 C   0  0  0  0  0  0  0  0  0  0  0  0
    3.6442  -14.5337   -3.0378 O   0  0  0  0  0  0  0  0  0  0  0  0
    1.5126  -15.1528   -3.0391 O   0  0  0  0  0  0  0  0  0  0  0  0
    4.3204   -9.4277   -2.5740 S   0  0  0  0  0  0  0  0  0  0  0  0
    5.5789   -4.0051   -2.0880 C   0  0  0  0  0  0  0  0  0  0  0  0
    6.1589   -2.7459   -1.9723 C   0  0  0  0  0  0  0  0  0  0  0  0
    5.3362   -1.6172   -1.8286 C   0  0  0  0  0  0  0  0  0  0  0  0
    5.6552   -0.2001   -1.6858 C   0  0  0  0  0  0  0  0  0  0  0  0
    6.8777    0.4862   -1.6518 C   0  0  0  0  0  0  0  0  0  0  0  0
    6.8933    1.8676   -1.5009 C   0  0  0  0  0  0  0  0  0  0  0  0
    5.6885    2.6118   -1.3741 C   0  0  0  0  0  0  0  0  0  0  0  0
    5.7160    3.9959   -1.2444 N   0  0  0  0  0  0  0  0  0  0  0  0
    4.4758    4.7544   -1.2715 C   0  0  0  0  0  0  0  0  0  0  0  0
    6.9069    4.6898   -0.8669 C   0  0  0  0  0  0  0  0  0  0  0  0
    7.4767    5.6442   -1.7284 C   0  0  0  0  0  0  0  0  0  0  0  0
    8.6109    6.3566   -1.3546 C   0  0  0  0  0  0  0  0  0  0  0  0
    9.2213    6.1201   -0.1099 C   0  0  0  0  0  0  0  0  0  0  0  0
   10.3278    6.8543    0.1630 O   0  0  0  0  0  0  0  0  0  0  0  0
   10.9974    6.6671    1.3898 C   0  0  0  0  0  0  0  0  0  0  0  0
    8.6666    5.1624    0.7542 C   0  0  0  0  0  0  0  0  0  0  0  0
    7.5144    4.4664    0.3747 C   0  0  0  0  0  0  0  0  0  0  0  0
    4.4573    1.9070   -1.4154 C   0  0  0  0  0  0  0  0  0  0  0  0
    4.4521    0.5257   -1.5706 C   0  0  0  0  0  0  0  0  0  0  0  0
    2.4369   -0.5664    1.8234 H   0  0  0  0  0  0  0  0  0  0  0  0
    3.9418    0.0862    1.1367 H   0  0  0  0  0  0  0  0  0  0  0  0
    3.5670   -1.6449    0.9758 H   0  0  0  0  0  0  0  0  0  0  0  0
    1.9215    0.6487   -0.2877 H   0  0  0  0  0  0  0  0  0  0  0  0
    1.5518   -1.0637   -0.4536 H   0  0  0  0  0  0  0  0  0  0  0  0
    1.8721    0.9158   -2.6610 H   0  0  0  0  0  0  0  0  0  0  0  0
    1.4785   -0.7901   -2.8363 H   0  0  0  0  0  0  0  0  0  0  0  0
    3.7995    0.6505   -4.2865 H   0  0  0  0  0  0  0  0  0  0  0  0
    2.2487    0.1613   -5.0051 H   0  0  0  0  0  0  0  0  0  0  0  0
    3.4057   -1.0746   -4.4642 H   0  0  0  0  0  0  0  0  0  0  0  0
    2.2722   -3.1471   -1.9000 H   0  0  0  0  0  0  0  0  0  0  0  0
    2.4326   -5.4444   -2.1478 H   0  0  0  0  0  0  0  0  0  0  0  0
    5.2140   -6.7535   -2.3430 H   0  0  0  0  0  0  0  0  0  0  0  0
    1.2895   -7.4418   -2.3278 H   0  0  0  0  0  0  0  0  0  0  0  0
    0.7186   -9.9671   -2.5499 H   0  0  0  0  0  0  0  0  0  0  0  0
    4.0107  -12.2254   -2.8318 H   0  0  0  0  0  0  0  0  0  0  0  0
    0.6304  -14.7523   -2.9785 H   0  0  0  0  0  0  0  0  0  0  0  0
    6.2293   -4.8752   -2.1995 H   0  0  0  0  0  0  0  0  0  0  0  0
    7.2468   -2.6436   -1.9933 H   0  0  0  0  0  0  0  0  0  0  0  0
    7.8244   -0.0518   -1.7511 H   0  0  0  0  0  0  0  0  0  0  0  0
    7.8476    2.3941   -1.4904 H   0  0  0  0  0  0  0  0  0  0  0  0
    3.8814    4.5207   -2.1706 H   0  0  0  0  0  0  0  0  0  0  0  0
    4.7120    5.8257   -1.2862 H   0  0  0  0  0  0  0  0  0  0  0  0
    3.8413    4.5610   -0.3845 H   0  0  0  0  0  0  0  0  0  0  0  0
    7.0207    5.8206   -2.7057 H   0  0  0  0  0  0  0  0  0  0  0  0
    9.0579    7.0995   -2.0182 H   0  0  0  0  0  0  0  0  0  0  0  0
   11.8536    7.3548    1.3872 H   0  0  0  0  0  0  0  0  0  0  0  0
   11.3701    5.6328    1.5013 H   0  0  0  0  0  0  0  0  0  0  0  0
   10.3502    6.9062    2.2530 H   0  0  0  0  0  0  0  0  0  0  0  0
    9.1129    4.9576    1.7275 H   0  0  0  0  0  0  0  0  0  0  0  0
    7.0820    3.7303    1.0563 H   0  0  0  0  0  0  0  0  0  0  0  0
    3.5127    2.4414   -1.3176 H   0  0  0  0  0  0  0  0  0  0  0  0
  1  2  1  0
  1 42  1  0
  1 43  1  0
  1 44  1  0
  3  2  1  1
  2 45  1  0
  2 46  1  0
  3  4  1  0
  3  6  1  0
  3 41  1  0
  4  5  1  0
  4 47  1  0
  4 48  1  0
  5 49  1  0
  5 50  1  0
  5 51  1  0
  6  7  2  0
  6 25  1  0
  7  8  1  0
  7 52  1  0
  8  9  1  0
  8 23  2  0
  9 10  2  0
  9 53  1  0
 10 11  1  0
 10 54  1  0
 11 12  2  0
 11 22  1  0
 12 13  1  0
 12 55  1  0
 13 14  2  0
 13 56  1  0
 14 15  1  0
 14 22  1  0
 15 16  2  0
 15 57  1  0
 16 17  1  0
 16 19  1  0
 17 18  3  0
 19 20  2  0
 19 21  1  0
 21 58  1  0
 23 24  1  0
 23 59  1  0
 24 25  2  0
 24 60  1  0
 25 26  1  0
 26 27  2  0
 26 41  1  0
 27 28  1  0
 27 61  1  0
 28 29  2  0
 28 62  1  0
 29 30  1  0
 29 40  1  0
 30 31  1  0
 30 32  1  0
 31 63  1  0
 31 64  1  0
 31 65  1  0
 32 33  2  0
 32 39  1  0
 33 34  1  0
 33 66  1  0
 34 35  2  0
 34 67  1  0
 35 36  1  0
 35 38  1  0
 36 37  1  0
 37 68  1  0
 37 69  1  0
 37 70  1  0
 38 39  2  0
 38 71  1  0
 39 72  1  0
 40 41  2  0
 40 73  1  0
M  END

