
     RDKit          3D

 67 68  0  0  0  0  0  0  0  0999 V2000
    0.8615   -0.6329   -0.6768 C   0  0  0  0  0  0  0  0  0  0  0  0
    2.1590   -0.3343   -0.5283 C   0  0  0  0  0  0  0  0  0  0  0  0
    2.6965    1.0714   -0.4417 C   0  0  0  0  0  0  0  0  0  0  0  0
    3.5695    1.4376   -1.6300 C   0  0  0  0  0  0  0  0  0  0  0  0
    3.4288    1.0343   -2.7561 O   0  0  0  0  0  0  0  0  0  0  0  0
    4.5319    2.3181   -1.2742 O   0  0  0  0  0  0  0  0  0  0  0  0
    5.3369    2.8379   -2.3332 C   0  0  1  0  0  0  0  0  0  0  0  0
    4.4779    3.7597   -3.2124 C   0  0  0  0  0  0  0  0  0  0  0  0
    3.4360    4.2538   -2.8691 O   0  0  0  0  0  0  0  0  0  0  0  0
    5.0811    3.9565   -4.3916 O   0  0  0  0  0  0  0  0  0  0  0  0
    4.4441    4.8336   -5.3336 C   0  0  0  0  0  0  0  0  0  0  0  0
    4.8830    6.2745   -5.1107 C   0  0  0  0  0  0  0  0  0  0  0  0
    4.3307    7.0388   -6.1491 O   0  0  0  0  0  0  0  0  0  0  0  0
    4.6222    8.4090   -6.0676 C   0  0  0  0  0  0  0  0  0  0  0  0
    6.4947    3.6048   -1.7280 C   0  0  0  0  0  0  0  0  0  0  0  0
    7.7994    3.4086   -2.1977 C   0  0  0  0  0  0  0  0  0  0  0  0
    8.8621    4.1363   -1.6533 C   0  0  0  0  0  0  0  0  0  0  0  0
    8.6271    5.0622   -0.6328 C   0  0  0  0  0  0  0  0  0  0  0  0
    7.3249    5.2614   -0.1605 C   0  0  0  0  0  0  0  0  0  0  0  0
    6.2618    4.5403   -0.7078 C   0  0  0  0  0  0  0  0  0  0  0  0
    3.1323   -1.4708   -0.4512 C   0  0  0  0  0  0  0  0  0  0  0  0
    2.8780   -2.6326   -0.6599 O   0  0  0  0  0  0  0  0  0  0  0  0
    4.3684   -1.0378   -0.1070 O   0  0  0  0  0  0  0  0  0  0  0  0
    5.4063   -2.0181   -0.0800 C   0  0  1  0  0  0  0  0  0  0  0  0
    5.7376   -2.5448   -1.4882 C   0  0  0  0  0  0  0  0  0  0  0  0
    6.2720   -3.6070   -1.6677 O   0  0  0  0  0  0  0  0  0  0  0  0
    5.4027   -1.6606   -2.4356 O   0  0  0  0  0  0  0  0  0  0  0  0
    5.5591   -2.0219   -3.8168 C   0  0  0  0  0  0  0  0  0  0  0  0
    4.1841   -2.0625   -4.4671 C   0  0  0  0  0  0  0  0  0  0  0  0
    4.3806   -2.3309   -5.8326 O   0  0  0  0  0  0  0  0  0  0  0  0
    3.1926   -2.3859   -6.5755 C   0  0  0  0  0  0  0  0  0  0  0  0
    6.6444   -1.4216    0.5625 C   0  0  0  0  0  0  0  0  0  0  0  0
    7.5580   -2.2714    1.2025 C   0  0  0  0  0  0  0  0  0  0  0  0
    8.7291   -1.7549    1.7616 C   0  0  0  0  0  0  0  0  0  0  0  0
    8.9964   -0.3843    1.6884 C   0  0  0  0  0  0  0  0  0  0  0  0
    8.0889    0.4658    1.0496 C   0  0  0  0  0  0  0  0  0  0  0  0
    6.9188   -0.0490    0.4833 C   0  0  0  0  0  0  0  0  0  0  0  0
    0.1007    0.1486   -0.7466 H   0  0  0  0  0  0  0  0  0  0  0  0
    0.5414   -1.6759   -0.7336 H   0  0  0  0  0  0  0  0  0  0  0  0
    3.2717    1.2292    0.4813 H   0  0  0  0  0  0  0  0  0  0  0  0
    1.8634    1.7936   -0.4379 H   0  0  0  0  0  0  0  0  0  0  0  0
    5.7017    2.0162   -2.9655 H   0  0  0  0  0  0  0  0  0  0  0  0
    3.3521    4.7481   -5.2474 H   0  0  0  0  0  0  0  0  0  0  0  0
    4.7635    4.4929   -6.3276 H   0  0  0  0  0  0  0  0  0  0  0  0
    5.9920    6.3297   -5.1089 H   0  0  0  0  0  0  0  0  0  0  0  0
    4.5313    6.6259   -4.1193 H   0  0  0  0  0  0  0  0  0  0  0  0
    4.1398    8.9062   -6.9217 H   0  0  0  0  0  0  0  0  0  0  0  0
    5.7129    8.6046   -6.1149 H   0  0  0  0  0  0  0  0  0  0  0  0
    4.2357    8.8601   -5.1314 H   0  0  0  0  0  0  0  0  0  0  0  0
    7.9861    2.6805   -2.9912 H   0  0  0  0  0  0  0  0  0  0  0  0
    9.8772    3.9734   -2.0239 H   0  0  0  0  0  0  0  0  0  0  0  0
    9.4583    5.6278   -0.2040 H   0  0  0  0  0  0  0  0  0  0  0  0
    7.1364    5.9836    0.6380 H   0  0  0  0  0  0  0  0  0  0  0  0
    5.2441    4.6922   -0.3418 H   0  0  0  0  0  0  0  0  0  0  0  0
    5.0661   -2.9000    0.4815 H   0  0  0  0  0  0  0  0  0  0  0  0
    6.0680   -2.9918   -3.8950 H   0  0  0  0  0  0  0  0  0  0  0  0
    6.1784   -1.2463   -4.2914 H   0  0  0  0  0  0  0  0  0  0  0  0
    3.6707   -1.0936   -4.3082 H   0  0  0  0  0  0  0  0  0  0  0  0
    3.5666   -2.8475   -3.9828 H   0  0  0  0  0  0  0  0  0  0  0  0
    3.4594   -2.5905   -7.6230 H   0  0  0  0  0  0  0  0  0  0  0  0
    2.6315   -1.4303   -6.5331 H   0  0  0  0  0  0  0  0  0  0  0  0
    2.5173   -3.1911   -6.2204 H   0  0  0  0  0  0  0  0  0  0  0  0
    7.3529   -3.3435    1.2566 H   0  0  0  0  0  0  0  0  0  0  0  0
    9.4329   -2.4260    2.2605 H   0  0  0  0  0  0  0  0  0  0  0  0
    9.9106    0.0205    2.1303 H   0  0  0  0  0  0  0  0  0  0  0  0
    8.2901    1.5381    0.9863 H   0  0  0  0  0  0  0  0  0  0  0  0
    6.2141    0.6198   -0.0121 H   0  0  0  0  0  0  0  0  0  0  0  0
  1  2  2  0
  1 38  1  0
  1 39  1  0
  2  3  1  0
  2 21  1  0
  3  4  1  0
  3 40  1  0
  3 41  1  0
  4  5  2  0
  4  6  1  0
  6  7  1  0
  7  8  1  0
  7 15  1  0
  7 42  1  6
  8  9  2  0
  8 10  1  0
 10 11  1  0
 11 12  1  0
 11 43  1  0
 11 44  1  0
 12 13  1  0
 12 45  1  0
 12 46  1  0
 13 14  1  0
 14 47  1  0
 14 48  1  0
 14 49  1  0
 15 16  2  0
 15 20  1  0
 16 17  1  0
 16 50  1  0
 17 18  2  0
 17 51  1  0
 18 19  1  0
 18 52  1  0
 19 20  2  0
 19 53  1  0
 20 54  1  0
 21 22  2  0
 21 23  1  0
 23 24  1  0
 24 25  1  0
 24 32  1  0
 24 55  1  1
 25 26  2  0
 25 27  1  0
 27 28  1  0
 28 29  1  0
 28 56  1  0
 28 57  1  0
 29 30  1  0
 29 58  1  0
 29 59  1  0
 30 31  1  0
 31 60  1  0
 31 61  1  0
 31 62  1  0
 32 33  2  0
 32 37  1  0
 33 34  1  0
 33 63  1  0
 34 35  2  0
 34 64  1  0
 35 36  1  0
 35 65  1  0
 36 37  2  0
 36 66  1  0
 37 67  1  0
M  END

