
     RDKit          3D

194198  0  0  0  0  0  0  0  0999 V2000
   14.9607    7.2017    1.9932 C   0  0  0  0  0  0  0  0  0  0  0  0
   14.2711    6.0359    1.6327 O   0  0  0  0  0  0  0  0  0  0  0  0
   15.0387    4.8655    1.7320 C   0  0  0  0  0  0  0  0  0  0  0  0
   14.1652    3.6937    1.3176 C   0  0  0  0  0  0  0  0  0  0  0  0
   14.9347    2.5201    1.4073 O   0  0  0  0  0  0  0  0  0  0  0  0
   14.2465    1.3464    1.0615 C   0  0  0  0  0  0  0  0  0  0  0  0
   15.2103    0.1802    1.2019 C   0  0  0  0  0  0  0  0  0  0  0  0
   14.5228   -0.9987    0.8603 O   0  0  0  0  0  0  0  0  0  0  0  0
   15.2949   -2.1671    0.9380 C   0  0  0  0  0  0  0  0  0  0  0  0
   14.4010   -3.3365    0.5613 C   0  0  0  0  0  0  0  0  0  0  0  0
   15.1738   -4.5159    0.6067 O   0  0  0  0  0  0  0  0  0  0  0  0
   14.4639   -5.6855    0.2993 C   0  0  0  0  0  0  0  0  0  0  0  0
   15.4396   -6.8575    0.3873 C   0  0  1  0  0  0  0  0  0  0  0  0
   16.0600   -7.0217    1.7718 C   0  0  0  0  0  0  0  0  0  0  0  0
   15.0487   -7.1919    2.7283 O   0  0  0  0  0  0  0  0  0  0  0  0
   15.5334   -7.4568    4.0320 C   0  0  0  0  0  0  0  0  0  0  0  0
   14.3836   -7.6027    5.0189 C   0  0  0  0  0  0  0  0  0  0  0  0
   13.8050   -6.3963    5.4486 O   0  0  0  0  0  0  0  0  0  0  0  0
   13.0288   -5.6450    4.5366 C   0  0  0  0  0  0  0  0  0  0  0  0
   11.9096   -6.3989    3.8351 C   0  0  0  0  0  0  0  0  0  0  0  0
   11.0415   -6.9733    4.7776 O   0  0  0  0  0  0  0  0  0  0  0  0
    9.9416   -7.6353    4.2003 C   0  0  0  0  0  0  0  0  0  0  0  0
    9.0598   -8.1810    5.3104 C   0  0  0  0  0  0  0  0  0  0  0  0
    7.9548   -8.8086    4.7133 O   0  0  0  0  0  0  0  0  0  0  0  0
    7.0014   -9.2940    5.6248 C   0  0  0  0  0  0  0  0  0  0  0  0
   14.6742   -8.0083    0.0102 O   0  0  0  0  0  0  0  0  0  0  0  0
   15.2357   -9.1771   -0.3494 C   0  0  0  0  0  0  0  0  0  0  0  0
   16.5782   -9.3105   -0.6871 C   0  0  0  0  0  0  0  0  0  0  0  0
   17.1618  -10.5489   -1.0333 C   0  0  0  0  0  0  0  0  0  0  0  0
   18.5442  -10.7113   -1.3906 C   0  0  0  0  0  0  0  0  0  0  0  0
   19.4683   -9.7042   -1.5346 C   0  0  0  0  0  0  0  0  0  0  0  0
   20.8611   -9.8510   -1.8779 C   0  0  0  0  0  0  0  0  0  0  0  0
   21.4907  -11.1094   -2.0852 C   0  0  0  0  0  0  0  0  0  0  0  0
   22.8294  -11.2079   -2.4127 C   0  0  0  0  0  0  0  0  0  0  0  0
   23.6416  -10.0457   -2.5576 C   0  0  0  0  0  0  0  0  0  0  0  0
   25.0422  -10.0363   -2.8954 C   0  0  0  0  0  0  0  0  0  0  0  0
   25.9454  -11.0442   -3.1764 C   0  0  0  0  0  0  0  0  0  0  0  0
   25.5974  -12.4259   -3.1292 C   0  0  0  0  0  0  0  0  0  0  0  0
   25.2943  -13.5494   -3.0691 N   0  0  0  0  0  0  0  0  0  0  0  0
   27.3631  -10.6131   -3.4499 C   0  0  0  0  0  0  0  0  0  0  0  0
   27.6903   -9.4551   -3.2245 O   0  0  0  0  0  0  0  0  0  0  0  0
   28.3849  -11.5777   -3.9761 C   0  0  0  0  0  0  0  0  0  0  0  0
   28.0851  -12.6681   -4.8118 C   0  0  0  0  0  0  0  0  0  0  0  0
   29.1092  -13.4761   -5.3127 C   0  0  0  0  0  0  0  0  0  0  0  0
   30.4409  -13.2137   -4.9802 C   0  0  0  0  0  0  0  0  0  0  0  0
   30.7507  -12.1247   -4.1564 C   0  0  0  0  0  0  0  0  0  0  0  0
   29.7329  -11.3073   -3.6700 C   0  0  0  0  0  0  0  0  0  0  0  0
   23.0103   -8.7874   -2.3481 C   0  0  0  0  0  0  0  0  0  0  0  0
   21.6704   -8.6927   -2.0203 C   0  0  0  0  0  0  0  0  0  0  0  0
   16.2981  -11.7105   -1.0019 C   0  0  0  0  0  0  0  0  0  0  0  0
   16.8908  -12.8716   -1.3290 O   0  0  0  0  0  0  0  0  0  0  0  0
   16.2110  -14.1305   -1.2680 C   0  0  1  0  0  0  0  0  0  0  0  0
   15.5147  -14.3952   -2.6054 C   0  0  0  0  0  0  0  0  0  0  0  0
   14.7213  -15.5404   -2.4591 O   0  0  0  0  0  0  0  0  0  0  0  0
   14.0283  -15.9282   -3.6253 C   0  0  0  0  0  0  0  0  0  0  0  0
   13.2054  -17.1765   -3.3389 C   0  0  0  0  0  0  0  0  0  0  0  0
   12.2704  -17.0494   -2.2947 O   0  0  0  0  0  0  0  0  0  0  0  0
   11.2275  -16.1172   -2.4407 C   0  0  0  0  0  0  0  0  0  0  0  0
   10.4086  -16.2446   -3.7322 C   0  0  0  0  0  0  0  0  0  0  0  0
   10.0568  -17.5692   -4.0547 O   0  0  0  0  0  0  0  0  0  0  0  0
    9.0082  -18.1493   -3.3049 C   0  0  0  0  0  0  0  0  0  0  0  0
    7.6796  -18.0308   -4.0448 C   0  0  0  0  0  0  0  0  0  0  0  0
    6.6877  -18.6312   -3.2545 O   0  0  0  0  0  0  0  0  0  0  0  0
    5.4080  -18.6134   -3.8274 C   0  0  0  0  0  0  0  0  0  0  0  0
   17.2438  -15.1902   -0.9302 C   0  0  0  0  0  0  0  0  0  0  0  0
   17.6817  -14.9937    0.3862 O   0  0  0  0  0  0  0  0  0  0  0  0
   18.6316  -15.9368    0.8259 C   0  0  0  0  0  0  0  0  0  0  0  0
   19.0119  -15.5953    2.2566 C   0  0  0  0  0  0  0  0  0  0  0  0
   19.9508  -16.5446    2.6881 O   0  0  0  0  0  0  0  0  0  0  0  0
   20.4232  -16.3464    3.9977 C   0  0  0  0  0  0  0  0  0  0  0  0
   21.4230  -17.4473    4.3094 C   0  0  0  0  0  0  0  0  0  0  0  0
   21.8982  -17.2454    5.6153 O   0  0  0  0  0  0  0  0  0  0  0  0
   22.8371  -18.1995    6.0453 C   0  0  0  0  0  0  0  0  0  0  0  0
   23.2665  -17.8388    7.4572 C   0  0  0  0  0  0  0  0  0  0  0  0
   24.1972  -18.7974    7.8866 O   0  0  0  0  0  0  0  0  0  0  0  0
   24.6842  -18.5780    9.1823 C   0  0  0  0  0  0  0  0  0  0  0  0
   14.9568  -11.5792   -0.6652 C   0  0  0  0  0  0  0  0  0  0  0  0
   14.3606  -10.3332   -0.3539 C   0  0  0  0  0  0  0  0  0  0  0  0
   12.9596  -10.3179   -0.0361 C   0  0  0  0  0  0  0  0  0  0  0  0
   12.0948   -9.2497    0.0327 C   0  0  0  0  0  0  0  0  0  0  0  0
   10.7037   -9.3033    0.4095 C   0  0  0  0  0  0  0  0  0  0  0  0
   10.0857  -10.4404    0.9986 C   0  0  0  0  0  0  0  0  0  0  0  0
    8.7626  -10.4036    1.3925 C   0  0  0  0  0  0  0  0  0  0  0  0
    7.9534   -9.2451    1.2162 C   0  0  0  0  0  0  0  0  0  0  0  0
    6.6028   -9.3052    1.7138 C   0  0  0  0  0  0  0  0  0  0  0  0
    5.5547   -8.4079    1.6816 C   0  0  0  0  0  0  0  0  0  0  0  0
    5.6591   -7.1173    1.0839 C   0  0  0  0  0  0  0  0  0  0  0  0
    5.7679   -6.0604    0.6061 N   0  0  0  0  0  0  0  0  0  0  0  0
    4.2992   -8.8133    2.4047 C   0  0  0  0  0  0  0  0  0  0  0  0
    4.3410   -9.7391    3.2078 O   0  0  0  0  0  0  0  0  0  0  0  0
    3.0021   -8.1004    2.1679 C   0  0  0  0  0  0  0  0  0  0  0  0
    2.0459   -8.1462    3.2011 C   0  0  0  0  0  0  0  0  0  0  0  0
    0.7986   -7.5466    3.0422 C   0  0  0  0  0  0  0  0  0  0  0  0
    0.4756   -6.9110    1.8370 C   0  0  0  0  0  0  0  0  0  0  0  0
    1.4069   -6.8813    0.7954 C   0  0  0  0  0  0  0  0  0  0  0  0
    2.6645   -7.4675    0.9584 C   0  0  0  0  0  0  0  0  0  0  0  0
    8.5627   -8.1174    0.6007 C   0  0  0  0  0  0  0  0  0  0  0  0
    9.8944   -8.1502    0.2258 C   0  0  0  0  0  0  0  0  0  0  0  0
   14.2712    8.0510    1.8782 H   0  0  0  0  0  0  0  0  0  0  0  0
   15.8467    7.3772    1.3489 H   0  0  0  0  0  0  0  0  0  0  0  0
   15.3090    7.1706    3.0460 H   0  0  0  0  0  0  0  0  0  0  0  0
   15.4047    4.7046    2.7677 H   0  0  0  0  0  0  0  0  0  0  0  0
   15.9334    4.9081    1.0760 H   0  0  0  0  0  0  0  0  0  0  0  0
   13.7956    3.8564    0.2846 H   0  0  0  0  0  0  0  0  0  0  0  0
   13.2754    3.6446    1.9777 H   0  0  0  0  0  0  0  0  0  0  0  0
   13.8681    1.3893    0.0195 H   0  0  0  0  0  0  0  0  0  0  0  0
   13.3686    1.1813    1.7192 H   0  0  0  0  0  0  0  0  0  0  0  0
   15.5904    0.1379    2.2429 H   0  0  0  0  0  0  0  0  0  0  0  0
   16.0859    0.3422    0.5407 H   0  0  0  0  0  0  0  0  0  0  0  0
   15.6980   -2.3209    1.9601 H   0  0  0  0  0  0  0  0  0  0  0  0
   16.1632   -2.1283    0.2482 H   0  0  0  0  0  0  0  0  0  0  0  0
   13.9847   -3.1711   -0.4522 H   0  0  0  0  0  0  0  0  0  0  0  0
   13.5465   -3.3930    1.2641 H   0  0  0  0  0  0  0  0  0  0  0  0
   14.0437   -5.6467   -0.7259 H   0  0  0  0  0  0  0  0  0  0  0  0
   13.6279   -5.8518    1.0045 H   0  0  0  0  0  0  0  0  0  0  0  0
   16.2515   -6.6751   -0.3365 H   0  0  0  0  0  0  0  0  0  0  0  0
   16.6637   -6.1157    1.9754 H   0  0  0  0  0  0  0  0  0  0  0  0
   16.7490   -7.8902    1.7720 H   0  0  0  0  0  0  0  0  0  0  0  0
   16.2049   -6.6421    4.3712 H   0  0  0  0  0  0  0  0  0  0  0  0
   16.1256   -8.3961    4.0283 H   0  0  0  0  0  0  0  0  0  0  0  0
   14.7893   -8.0706    5.9307 H   0  0  0  0  0  0  0  0  0  0  0  0
   13.6329   -8.3016    4.6039 H   0  0  0  0  0  0  0  0  0  0  0  0
   13.6610   -5.1824    3.7534 H   0  0  0  0  0  0  0  0  0  0  0  0
   12.5892   -4.8355    5.1403 H   0  0  0  0  0  0  0  0  0  0  0  0
   12.3238   -7.1721    3.1571 H   0  0  0  0  0  0  0  0  0  0  0  0
   11.3728   -5.6703    3.1890 H   0  0  0  0  0  0  0  0  0  0  0  0
   10.2711   -8.4654    3.5437 H   0  0  0  0  0  0  0  0  0  0  0  0
    9.3440   -6.9455    3.5707 H   0  0  0  0  0  0  0  0  0  0  0  0
    8.7436   -7.3471    5.9710 H   0  0  0  0  0  0  0  0  0  0  0  0
    9.6411   -8.8881    5.9391 H   0  0  0  0  0  0  0  0  0  0  0  0
    6.1584   -9.6966    5.0450 H   0  0  0  0  0  0  0  0  0  0  0  0
    6.6222   -8.4894    6.2872 H   0  0  0  0  0  0  0  0  0  0  0  0
    7.4174  -10.0947    6.2705 H   0  0  0  0  0  0  0  0  0  0  0  0
   17.2167   -8.4304   -0.6728 H   0  0  0  0  0  0  0  0  0  0  0  0
   18.8572  -11.7411   -1.5611 H   0  0  0  0  0  0  0  0  0  0  0  0
   19.1438   -8.6685   -1.3884 H   0  0  0  0  0  0  0  0  0  0  0  0
   20.9108  -12.0284   -1.9804 H   0  0  0  0  0  0  0  0  0  0  0  0
   23.2622  -12.1964   -2.5572 H   0  0  0  0  0  0  0  0  0  0  0  0
   25.5047   -9.0453   -2.9411 H   0  0  0  0  0  0  0  0  0  0  0  0
   27.0552  -12.8857   -5.0942 H   0  0  0  0  0  0  0  0  0  0  0  0
   28.8624  -14.3153   -5.9678 H   0  0  0  0  0  0  0  0  0  0  0  0
   31.2384  -13.8538   -5.3667 H   0  0  0  0  0  0  0  0  0  0  0  0
   31.7912  -11.9115   -3.8983 H   0  0  0  0  0  0  0  0  0  0  0  0
   29.9575  -10.4412   -3.0450 H   0  0  0  0  0  0  0  0  0  0  0  0
   23.6070   -7.8775   -2.4507 H   0  0  0  0  0  0  0  0  0  0  0  0
   21.2201   -7.7077   -1.8670 H   0  0  0  0  0  0  0  0  0  0  0  0
   15.4640  -14.1199   -0.4592 H   0  0  0  0  0  0  0  0  0  0  0  0
   16.2774  -14.5227   -3.4021 H   0  0  0  0  0  0  0  0  0  0  0  0
   14.9035  -13.5129   -2.8838 H   0  0  0  0  0  0  0  0  0  0  0  0
   14.7362  -16.1569   -4.4493 H   0  0  0  0  0  0  0  0  0  0  0  0
   13.3881  -15.0948   -3.9814 H   0  0  0  0  0  0  0  0  0  0  0  0
   13.8886  -17.9791   -3.0196 H   0  0  0  0  0  0  0  0  0  0  0  0
   12.7255  -17.5071   -4.2799 H   0  0  0  0  0  0  0  0  0  0  0  0
   11.5894  -15.0688   -2.3715 H   0  0  0  0  0  0  0  0  0  0  0  0
   10.5805  -16.2806   -1.5644 H   0  0  0  0  0  0  0  0  0  0  0  0
   10.9869  -15.8737   -4.5939 H   0  0  0  0  0  0  0  0  0  0  0  0
    9.5233  -15.5823   -3.6416 H   0  0  0  0  0  0  0  0  0  0  0  0
    8.9077  -17.6960   -2.3025 H   0  0  0  0  0  0  0  0  0  0  0  0
    9.2471  -19.2141   -3.1540 H   0  0  0  0  0  0  0  0  0  0  0  0
    7.7657  -18.5233   -5.0359 H   0  0  0  0  0  0  0  0  0  0  0  0
    7.4442  -16.9614   -4.2377 H   0  0  0  0  0  0  0  0  0  0  0  0
    4.7181  -19.1081   -3.1281 H   0  0  0  0  0  0  0  0  0  0  0  0
    5.3782  -19.1550   -4.7949 H   0  0  0  0  0  0  0  0  0  0  0  0
    5.0469  -17.5798   -4.0065 H   0  0  0  0  0  0  0  0  0  0  0  0
   18.0865  -15.1243   -1.6499 H   0  0  0  0  0  0  0  0  0  0  0  0
   16.7656  -16.1804   -1.0596 H   0  0  0  0  0  0  0  0  0  0  0  0
   19.5390  -15.9207    0.1892 H   0  0  0  0  0  0  0  0  0  0  0  0
   18.2227  -16.9666    0.7871 H   0  0  0  0  0  0  0  0  0  0  0  0
   18.1032  -15.6026    2.8933 H   0  0  0  0  0  0  0  0  0  0  0  0
   19.4268  -14.5671    2.2931 H   0  0  0  0  0  0  0  0  0  0  0  0
   19.5951  -16.3787    4.7349 H   0  0  0  0  0  0  0  0  0  0  0  0
   20.9163  -15.3587    4.1036 H   0  0  0  0  0  0  0  0  0  0  0  0
   22.2477  -17.4170    3.5682 H   0  0  0  0  0  0  0  0  0  0  0  0
   20.9288  -18.4351    4.2057 H   0  0  0  0  0  0  0  0  0  0  0  0
   23.7263  -18.2186    5.3828 H   0  0  0  0  0  0  0  0  0  0  0  0
   22.4058  -19.2214    6.0408 H   0  0  0  0  0  0  0  0  0  0  0  0
   22.3749  -17.8119    8.1183 H   0  0  0  0  0  0  0  0  0  0  0  0
   23.7024  -16.8179    7.4606 H   0  0  0  0  0  0  0  0  0  0  0  0
   25.4007  -19.3798    9.4140 H   0  0  0  0  0  0  0  0  0  0  0  0
   23.8746  -18.5990    9.9406 H   0  0  0  0  0  0  0  0  0  0  0  0
   25.2056  -17.6029    9.2714 H   0  0  0  0  0  0  0  0  0  0  0  0
   14.3099  -12.4553   -0.6581 H   0  0  0  0  0  0  0  0  0  0  0  0
   12.5378  -11.3156    0.1224 H   0  0  0  0  0  0  0  0  0  0  0  0
   12.4712   -8.2626   -0.2332 H   0  0  0  0  0  0  0  0  0  0  0  0
   10.6686  -11.3456    1.1811 H   0  0  0  0  0  0  0  0  0  0  0  0
    8.3208  -11.2792    1.8744 H   0  0  0  0  0  0  0  0  0  0  0  0
    6.3428  -10.2326    2.2317 H   0  0  0  0  0  0  0  0  0  0  0  0
    2.3076   -8.6638    4.1256 H   0  0  0  0  0  0  0  0  0  0  0  0
    0.0711   -7.5770    3.8575 H   0  0  0  0  0  0  0  0  0  0  0  0
   -0.5041   -6.4432    1.7090 H   0  0  0  0  0  0  0  0  0  0  0  0
    1.1549   -6.3990   -0.1523 H   0  0  0  0  0  0  0  0  0  0  0  0
    3.3716   -7.4413    0.1292 H   0  0  0  0  0  0  0  0  0  0  0  0
    7.9902   -7.2060    0.4366 H   0  0  0  0  0  0  0  0  0  0  0  0
   10.3421   -7.2613   -0.2272 H   0  0  0  0  0  0  0  0  0  0  0  0
  1  2  1  0
  1 99  1  0
  1100  1  0
  1101  1  0
  2  3  1  0
  3  4  1  0
  3102  1  0
  3103  1  0
  4  5  1  0
  4104  1  0
  4105  1  0
  5  6  1  0
  6  7  1  0
  6106  1  0
  6107  1  0
  7  8  1  0
  7108  1  0
  7109  1  0
  8  9  1  0
  9 10  1  0
  9110  1  0
  9111  1  0
 10 11  1  0
 10112  1  0
 10113  1  0
 11 12  1  0
 12 13  1  0
 12114  1  0
 12115  1  0
 13 14  1  0
 13 26  1  0
 13116  1  6
 14 15  1  0
 14117  1  0
 14118  1  0
 15 16  1  0
 16 17  1  0
 16119  1  0
 16120  1  0
 17 18  1  0
 17121  1  0
 17122  1  0
 18 19  1  0
 19 20  1  0
 19123  1  0
 19124  1  0
 20 21  1  0
 20125  1  0
 20126  1  0
 21 22  1  0
 22 23  1  0
 22127  1  0
 22128  1  0
 23 24  1  0
 23129  1  0
 23130  1  0
 24 25  1  0
 25131  1  0
 25132  1  0
 25133  1  0
 26 27  1  0
 27 28  2  0
 27 78  1  0
 28 29  1  0
 28134  1  0
 29 30  1  0
 29 50  2  0
 30 31  2  0
 30135  1  0
 31 32  1  0
 31136  1  0
 32 33  2  0
 32 49  1  0
 33 34  1  0
 33137  1  0
 34 35  2  0
 34138  1  0
 35 36  1  0
 35 48  1  0
 36 37  2  0
 36139  1  0
 37 38  1  0
 37 40  1  0
 38 39  3  0
 40 41  2  0
 40 42  1  0
 42 43  2  0
 42 47  1  0
 43 44  1  0
 43140  1  0
 44 45  2  0
 44141  1  0
 45 46  1  0
 45142  1  0
 46 47  2  0
 46143  1  0
 47144  1  0
 48 49  2  0
 48145  1  0
 49146  1  0
 50 51  1  0
 50 77  1  0
 51 52  1  0
 52 53  1  0
 52 65  1  0
 52147  1  1
 53 54  1  0
 53148  1  0
 53149  1  0
 54 55  1  0
 55 56  1  0
 55150  1  0
 55151  1  0
 56 57  1  0
 56152  1  0
 56153  1  0
 57 58  1  0
 58 59  1  0
 58154  1  0
 58155  1  0
 59 60  1  0
 59156  1  0
 59157  1  0
 60 61  1  0
 61 62  1  0
 61158  1  0
 61159  1  0
 62 63  1  0
 62160  1  0
 62161  1  0
 63 64  1  0
 64162  1  0
 64163  1  0
 64164  1  0
 65 66  1  0
 65165  1  0
 65166  1  0
 66 67  1  0
 67 68  1  0
 67167  1  0
 67168  1  0
 68 69  1  0
 68169  1  0
 68170  1  0
 69 70  1  0
 70 71  1  0
 70171  1  0
 70172  1  0
 71 72  1  0
 71173  1  0
 71174  1  0
 72 73  1  0
 73 74  1  0
 73175  1  0
 73176  1  0
 74 75  1  0
 74177  1  0
 74178  1  0
 75 76  1  0
 76179  1  0
 76180  1  0
 76181  1  0
 77 78  2  0
 77182  1  0
 78 79  1  0
 79 80  2  0
 79183  1  0
 80 81  1  0
 80184  1  0
 81 82  2  0
 81 98  1  0
 82 83  1  0
 82185  1  0
 83 84  2  0
 83186  1  0
 84 85  1  0
 84 97  1  0
 85 86  2  0
 85187  1  0
 86 87  1  0
 86 89  1  0
 87 88  3  0
 89 90  2  0
 89 91  1  0
 91 92  2  0
 91 96  1  0
 92 93  1  0
 92188  1  0
 93 94  2  0
 93189  1  0
 94 95  1  0
 94190  1  0
 95 96  2  0
 95191  1  0
 96192  1  0
 97 98  2  0
 97193  1  0
 98194  1  0
M  END

