
     RDKit          3D

 45 46  0  0  0  0  0  0  0  0999 V2000
    4.6126   -1.8519    3.7277 C   0  0  0  0  0  0  0  0  0  0  0  0
    5.1297   -1.7501    2.4012 O   0  0  0  0  0  0  0  0  0  0  0  0
    5.0257   -0.5336    1.8282 C   0  0  0  0  0  0  0  0  0  0  0  0
    4.6081    0.4317    2.4222 O   0  0  0  0  0  0  0  0  0  0  0  0
    5.5630   -0.4779    0.4303 C   0  0  0  0  0  0  0  0  0  0  0  0
    6.0396    0.7758    0.0106 C   0  0  0  0  0  0  0  0  0  0  0  0
    6.6181    0.9476   -1.2445 C   0  0  0  0  0  0  0  0  0  0  0  0
    6.7043   -0.1405   -2.1192 C   0  0  0  0  0  0  0  0  0  0  0  0
    6.1971   -1.3816   -1.7377 C   0  0  0  0  0  0  0  0  0  0  0  0
    5.6265   -1.5654   -0.4680 C   0  0  0  0  0  0  0  0  0  0  0  0
    5.0907   -2.8436   -0.1677 N   0  0  0  0  0  0  0  0  0  0  0  0
    5.9091   -4.0536   -0.1463 C   0  0  0  0  0  0  0  0  0  0  0  0
    4.8771   -5.1858   -0.2535 C   0  0  2  0  0  0  0  0  0  0  0  0
    4.6505   -5.5773   -1.7327 C   0  0  0  0  0  0  0  0  0  0  0  0
    5.2473   -5.0287   -2.6491 O   0  0  0  0  0  0  0  0  0  0  0  0
    3.7464   -6.5775   -1.9135 N   0  0  0  0  0  0  0  0  0  0  0  0
    3.3236   -7.1525   -3.2136 C   0  0  1  0  0  0  0  0  0  0  0  0
    4.5337   -7.7788   -3.9311 C   0  0  0  0  0  0  0  0  0  0  0  0
    2.2871   -8.2387   -2.8905 C   0  0  0  0  0  0  0  0  0  0  0  0
    2.6829   -6.0592   -4.0881 C   0  0  0  0  0  0  0  0  0  0  0  0
    3.6230   -4.5722    0.4038 C   0  0  0  0  0  0  0  0  0  0  0  0
    3.7826   -3.0632    0.2028 C   0  0  0  0  0  0  0  0  0  0  0  0
    2.9235   -2.2215    0.3539 O   0  0  0  0  0  0  0  0  0  0  0  0
    4.8040   -2.8826    4.0524 H   0  0  0  0  0  0  0  0  0  0  0  0
    3.5322   -1.6428    3.7380 H   0  0  0  0  0  0  0  0  0  0  0  0
    5.1137   -1.1406    4.4010 H   0  0  0  0  0  0  0  0  0  0  0  0
    5.9513    1.6115    0.7071 H   0  0  0  0  0  0  0  0  0  0  0  0
    6.9952    1.9286   -1.5431 H   0  0  0  0  0  0  0  0  0  0  0  0
    7.1454   -0.0179   -3.1117 H   0  0  0  0  0  0  0  0  0  0  0  0
    6.2048   -2.2265   -2.4302 H   0  0  0  0  0  0  0  0  0  0  0  0
    6.4762   -4.1126    0.8008 H   0  0  0  0  0  0  0  0  0  0  0  0
    6.6111   -4.0755   -0.9888 H   0  0  0  0  0  0  0  0  0  0  0  0
    5.2209   -6.0850    0.2828 H   0  0  0  0  0  0  0  0  0  0  0  0
    3.3255   -6.9778   -1.0833 H   0  0  0  0  0  0  0  0  0  0  0  0
    4.9853   -8.5702   -3.3117 H   0  0  0  0  0  0  0  0  0  0  0  0
    5.2974   -7.0168   -4.1370 H   0  0  0  0  0  0  0  0  0  0  0  0
    4.2190   -8.2280   -4.8862 H   0  0  0  0  0  0  0  0  0  0  0  0
    2.7224   -9.0320   -2.2599 H   0  0  0  0  0  0  0  0  0  0  0  0
    1.9270   -8.7085   -3.8176 H   0  0  0  0  0  0  0  0  0  0  0  0
    1.4141   -7.8148   -2.3672 H   0  0  0  0  0  0  0  0  0  0  0  0
    3.4031   -5.2547   -4.2878 H   0  0  0  0  0  0  0  0  0  0  0  0
    1.8031   -5.6248   -3.5873 H   0  0  0  0  0  0  0  0  0  0  0  0
    2.3555   -6.4851   -5.0496 H   0  0  0  0  0  0  0  0  0  0  0  0
    3.5947   -4.7670    1.4893 H   0  0  0  0  0  0  0  0  0  0  0  0
    2.6632   -4.9034   -0.0163 H   0  0  0  0  0  0  0  0  0  0  0  0
  1  2  1  0
  1 24  1  0
  1 25  1  0
  1 26  1  0
  2  3  1  0
  3  4  2  0
  3  5  1  0
  5  6  2  0
  5 10  1  0
  6  7  1  0
  6 27  1  0
  7  8  2  0
  7 28  1  0
  8  9  1  0
  8 29  1  0
  9 10  2  0
  9 30  1  0
 10 11  1  0
 11 12  1  0
 11 22  1  0
 12 13  1  0
 12 31  1  0
 12 32  1  0
 13 14  1  0
 13 21  1  0
 13 33  1  1
 14 15  2  0
 14 16  1  0
 17 16  1  1
 16 34  1  0
 17 18  1  0
 17 19  1  0
 17 20  1  0
 18 35  1  0
 18 36  1  0
 18 37  1  0
 19 38  1  0
 19 39  1  0
 19 40  1  0
 20 41  1  0
 20 42  1  0
 20 43  1  0
 21 22  1  0
 21 44  1  0
 21 45  1  0
 22 23  2  0
M  END

