
     RDKit          3D

 54 58  0  0  0  0  0  0  0  0999 V2000
    1.4663    1.2890    1.0685 C   0  0  0  0  0  0  0  0  0  0  0  0
    2.8991    1.0019    0.6952 C   0  0  0  0  0  0  0  0  0  0  0  0
    3.3877   -0.3102    0.6205 C   0  0  0  0  0  0  0  0  0  0  0  0
    4.7199   -0.5710    0.2945 C   0  0  0  0  0  0  0  0  0  0  0  0
    5.6187    0.4768    0.0301 C   0  0  0  0  0  0  0  0  0  0  0  0
    7.0477    0.2413   -0.3164 C   0  0  0  0  0  0  0  0  0  0  0  0
    7.5339   -1.0689   -0.6142 C   0  0  0  0  0  0  0  0  0  0  0  0
    8.8604   -1.2676   -0.9415 C   0  0  0  0  0  0  0  0  0  0  0  0
    9.3005   -2.6439   -1.2579 C   0  0  0  0  0  0  0  0  0  0  0  0
    9.1356   -3.6726   -0.4633 N   0  0  0  0  0  0  0  0  0  0  0  0
    9.5997   -4.7785   -1.1149 N   0  0  0  0  0  0  0  0  0  0  0  0
   10.0404   -4.4123   -2.2992 C   0  0  0  0  0  0  0  0  0  0  0  0
   10.7013   -5.4723   -3.5343 S   0  0  0  0  0  0  0  0  0  0  0  0
   11.0587   -6.9604   -2.5084 C   0  0  0  0  0  0  0  0  0  0  0  0
    9.8560   -7.8681   -2.1946 C   0  0  0  0  0  0  0  0  0  0  0  0
    9.7659   -8.9625   -2.6901 O   0  0  0  0  0  0  0  0  0  0  0  0
    8.9682   -7.3894   -1.3340 O   0  0  0  0  0  0  0  0  0  0  0  0
    9.8822   -3.0567   -2.4558 N   0  0  0  0  0  0  0  0  0  0  0  0
   10.1232   -2.2950   -3.6465 C   0  0  0  0  0  0  0  0  0  0  0  0
    9.0579   -1.6654   -4.2982 C   0  0  0  0  0  0  0  0  0  0  0  0
    9.2879   -0.9231   -5.4560 C   0  0  0  0  0  0  0  0  0  0  0  0
   10.5843   -0.8183   -5.9828 C   0  0  0  0  0  0  0  0  0  0  0  0
   10.8655   -0.1188   -7.1046 O   0  0  0  0  0  0  0  0  0  0  0  0
   11.6498   -1.4619   -5.3320 C   0  0  0  0  0  0  0  0  0  0  0  0
   11.4204   -2.1884   -4.1683 C   0  0  0  0  0  0  0  0  0  0  0  0
    9.7514   -0.1468   -0.9301 C   0  0  0  0  0  0  0  0  0  0  0  0
   11.1530   -0.2290   -1.1452 C   0  0  0  0  0  0  0  0  0  0  0  0
   11.9386    0.9054   -1.1119 C   0  0  0  0  0  0  0  0  0  0  0  0
   11.3570    2.1742   -0.8650 C   0  0  0  0  0  0  0  0  0  0  0  0
   10.0030    2.2852   -0.6334 C   0  0  0  0  0  0  0  0  0  0  0  0
    9.1661    1.1325   -0.6433 C   0  0  0  0  0  0  0  0  0  0  0  0
    7.8498    1.2918   -0.3608 N   0  0  0  0  0  0  0  0  0  0  0  0
    5.1300    1.7955    0.1089 C   0  0  0  0  0  0  0  0  0  0  0  0
    3.8003    2.0488    0.4303 C   0  0  0  0  0  0  0  0  0  0  0  0
    0.8405    0.3867    1.0029 H   0  0  0  0  0  0  0  0  0  0  0  0
    1.0265    2.0594    0.4149 H   0  0  0  0  0  0  0  0  0  0  0  0
    1.3952    1.6674    2.1032 H   0  0  0  0  0  0  0  0  0  0  0  0
    2.7148   -1.1480    0.8242 H   0  0  0  0  0  0  0  0  0  0  0  0
    5.0507   -1.6107    0.2646 H   0  0  0  0  0  0  0  0  0  0  0  0
    6.8629   -1.9264   -0.6084 H   0  0  0  0  0  0  0  0  0  0  0  0
   11.5596   -6.6257   -1.5874 H   0  0  0  0  0  0  0  0  0  0  0  0
   11.7595   -7.5408   -3.1211 H   0  0  0  0  0  0  0  0  0  0  0  0
    9.1828   -6.4528   -1.0579 H   0  0  0  0  0  0  0  0  0  0  0  0
    8.0457   -1.7545   -3.9002 H   0  0  0  0  0  0  0  0  0  0  0  0
    8.4514   -0.4285   -5.9587 H   0  0  0  0  0  0  0  0  0  0  0  0
   10.0584    0.2768   -7.4602 H   0  0  0  0  0  0  0  0  0  0  0  0
   12.6531   -1.3725   -5.7520 H   0  0  0  0  0  0  0  0  0  0  0  0
   12.2516   -2.6823   -3.6619 H   0  0  0  0  0  0  0  0  0  0  0  0
   11.6134   -1.2028   -1.3191 H   0  0  0  0  0  0  0  0  0  0  0  0
   13.0167    0.8257   -1.2710 H   0  0  0  0  0  0  0  0  0  0  0  0
   11.9909    3.0643   -0.8462 H   0  0  0  0  0  0  0  0  0  0  0  0
    9.5297    3.2455   -0.4207 H   0  0  0  0  0  0  0  0  0  0  0  0
    5.8225    2.6141   -0.0904 H   0  0  0  0  0  0  0  0  0  0  0  0
    3.4489    3.0840    0.4777 H   0  0  0  0  0  0  0  0  0  0  0  0
  1  2  1  0
  1 35  1  0
  1 36  1  0
  1 37  1  0
  2  3  2  0
  2 34  1  0
  3  4  1  0
  3 38  1  0
  4  5  2  0
  4 39  1  0
  5  6  1  0
  5 33  1  0
  6  7  2  0
  6 32  1  0
  7  8  1  0
  7 40  1  0
  8  9  1  0
  8 26  2  0
  9 10  2  0
  9 18  1  0
 10 11  1  0
 11 12  2  0
 12 13  1  0
 12 18  1  0
 13 14  1  0
 14 15  1  0
 14 41  1  0
 14 42  1  0
 15 16  2  0
 15 17  1  0
 17 43  1  0
 18 19  1  0
 19 20  2  0
 19 25  1  0
 20 21  1  0
 20 44  1  0
 21 22  2  0
 21 45  1  0
 22 23  1  0
 22 24  1  0
 23 46  1  0
 24 25  2  0
 24 47  1  0
 25 48  1  0
 26 27  1  0
 26 31  1  0
 27 28  2  0
 27 49  1  0
 28 29  1  0
 28 50  1  0
 29 30  2  0
 29 51  1  0
 30 31  1  0
 30 52  1  0
 31 32  2  0
 33 34  2  0
 33 53  1  0
 34 54  1  0
M  END

