
     RDKit          3D

 39 41  0  0  0  0  0  0  0  0999 V2000
    1.2857    0.4030    0.4024 N   0  0  0  0  0  0  0  0  0  0  0  0
    2.3262    0.1460   -0.0368 C   0  0  0  0  0  0  0  0  0  0  0  0
    3.6519   -0.1628   -0.5872 C   0  0  1  0  0  0  0  0  0  0  0  0
    3.4986   -1.1957   -1.7251 C   0  0  0  0  0  0  0  0  0  0  0  0
    3.5120   -2.3880   -1.5342 O   0  0  0  0  0  0  0  0  0  0  0  0
    3.3278   -0.6355   -2.9735 N   0  0  0  0  0  0  0  0  0  0  0  0
    3.3700    0.7141   -3.3212 C   0  0  0  0  0  0  0  0  0  0  0  0
    2.9908    1.2121   -4.8546 S   0  0  0  0  0  0  0  0  0  0  0  0
    3.7307    1.5491   -2.3151 N   0  0  0  0  0  0  0  0  0  0  0  0
    4.3679    1.1235   -1.0635 C   0  0  2  0  0  0  0  0  0  0  0  0
    5.8849    1.0037   -1.1766 C   0  0  0  0  0  0  0  0  0  0  0  0
    6.6654    2.1576   -0.9964 C   0  0  0  0  0  0  0  0  0  0  0  0
    8.0478    2.1235   -1.1498 C   0  0  0  0  0  0  0  0  0  0  0  0
    8.7191    0.9330   -1.4758 C   0  0  0  0  0  0  0  0  0  0  0  0
   10.0645    0.9988   -1.5704 O   0  0  0  0  0  0  0  0  0  0  0  0
   10.8235    0.0384   -2.3000 C   0  0  0  0  0  0  0  0  0  0  0  0
   12.2316    0.5507   -2.5011 C   0  0  0  0  0  0  0  0  0  0  0  0
   13.0886   -0.1438   -3.3703 C   0  0  0  0  0  0  0  0  0  0  0  0
   14.4043    0.2847   -3.5556 C   0  0  0  0  0  0  0  0  0  0  0  0
   14.8870    1.4116   -2.8830 C   0  0  0  0  0  0  0  0  0  0  0  0
   14.0226    2.0883   -2.0277 C   0  0  0  0  0  0  0  0  0  0  0  0
   14.4667    3.1730   -1.3754 F   0  0  0  0  0  0  0  0  0  0  0  0
   12.7062    1.6781   -1.8231 C   0  0  0  0  0  0  0  0  0  0  0  0
    7.9300   -0.2220   -1.6277 C   0  0  0  0  0  0  0  0  0  0  0  0
    8.5080   -1.4076   -1.8984 F   0  0  0  0  0  0  0  0  0  0  0  0
    6.5451   -0.1907   -1.4933 C   0  0  0  0  0  0  0  0  0  0  0  0
    4.2379   -0.6578    0.2009 H   0  0  0  0  0  0  0  0  0  0  0  0
    3.1286   -1.2759   -3.7391 H   0  0  0  0  0  0  0  0  0  0  0  0
    3.8112    2.5218   -2.5914 H   0  0  0  0  0  0  0  0  0  0  0  0
    4.1567    1.9141   -0.3291 H   0  0  0  0  0  0  0  0  0  0  0  0
    6.1859    3.1047   -0.7337 H   0  0  0  0  0  0  0  0  0  0  0  0
    8.6527    3.0223   -1.0160 H   0  0  0  0  0  0  0  0  0  0  0  0
   10.3490   -0.1542   -3.2780 H   0  0  0  0  0  0  0  0  0  0  0  0
   10.8467   -0.9195   -1.7541 H   0  0  0  0  0  0  0  0  0  0  0  0
   12.7242   -1.0243   -3.9070 H   0  0  0  0  0  0  0  0  0  0  0  0
   15.0637   -0.2608   -4.2352 H   0  0  0  0  0  0  0  0  0  0  0  0
   15.9096    1.7705   -3.0124 H   0  0  0  0  0  0  0  0  0  0  0  0
   12.0648    2.2393   -1.1445 H   0  0  0  0  0  0  0  0  0  0  0  0
    6.0263   -1.1422   -1.6224 H   0  0  0  0  0  0  0  0  0  0  0  0
  1  2  3  0
  2  3  1  0
  3  4  1  0
  3 10  1  0
  3 27  1  1
  4  5  2  0
  4  6  1  0
  6  7  1  0
  6 28  1  0
  7  8  2  0
  7  9  1  0
  9 10  1  0
  9 29  1  0
 10 11  1  0
 10 30  1  1
 11 12  2  0
 11 26  1  0
 12 13  1  0
 12 31  1  0
 13 14  2  0
 13 32  1  0
 14 15  1  0
 14 24  1  0
 15 16  1  0
 16 17  1  0
 16 33  1  0
 16 34  1  0
 17 18  2  0
 17 23  1  0
 18 19  1  0
 18 35  1  0
 19 20  2  0
 19 36  1  0
 20 21  1  0
 20 37  1  0
 21 22  1  0
 21 23  2  0
 23 38  1  0
 24 25  1  0
 24 26  2  0
 26 39  1  0
M  END

