
     RDKit          3D

 48 51  0  0  0  0  0  0  0  0999 V2000
    0.5536   -0.5292   -2.1868 C   0  0  0  0  0  0  0  0  0  0  0  0
    1.9934   -0.9695   -2.4458 C   0  0  0  0  0  0  0  0  0  0  0  0
    2.8453   -1.1383   -1.1491 C   0  0  1  0  0  0  0  0  0  0  0  0
    2.7101   -0.2483   -0.5204 H   0  0  0  0  0  0  0  0  0  0  0  0
    2.2769   -2.3026   -0.3410 C   0  0  0  0  0  0  0  0  0  0  0  0
    1.3824   -2.1480    0.4676 O   0  0  0  0  0  0  0  0  0  0  0  0
    2.7869   -3.5556   -0.6718 N   0  0  0  0  0  0  0  0  0  0  0  0
    2.1919   -4.7384   -0.0523 C   0  0  0  0  0  0  0  0  0  0  0  0
    3.9157   -3.6712   -1.4703 C   0  0  0  0  0  0  0  0  0  0  0  0
    4.4255   -4.9140   -1.9393 C   0  0  0  0  0  0  0  0  0  0  0  0
    5.5709   -5.0209   -2.5527 N   0  0  0  0  0  0  0  0  0  0  0  0
    6.3595   -3.8933   -2.6984 C   0  0  0  0  0  0  0  0  0  0  0  0
    7.6503   -4.0460   -3.2562 C   0  0  0  0  0  0  0  0  0  0  0  0
    8.5548   -2.9706   -3.5653 C   0  0  0  0  0  0  0  0  0  0  0  0
    9.6637   -3.3905   -4.1219 N   0  0  0  0  0  0  0  0  0  0  0  0
    9.5290   -4.7405   -4.1855 N   0  0  0  0  0  0  0  0  0  0  0  0
   10.2517   -5.3423   -4.5668 H   0  0  0  0  0  0  0  0  0  0  0  0
    8.3570   -5.2356   -3.6886 C   0  0  0  0  0  0  0  0  0  0  0  0
    8.1954   -6.6531   -3.7204 C   0  0  0  0  0  0  0  0  0  0  0  0
    9.1670   -7.3993   -4.2895 N   0  0  0  0  0  0  0  0  0  0  0  0
    8.8876   -8.7118   -4.2218 C   0  0  0  0  0  0  0  0  0  0  0  0
    7.7096   -9.0680   -3.5920 C   0  0  0  0  0  0  0  0  0  0  0  0
    6.8742   -7.6400   -3.0398 S   0  0  0  0  0  0  0  0  0  0  0  0
    5.9162   -2.6565   -2.3644 N   0  0  0  0  0  0  0  0  0  0  0  0
    4.7284   -2.5271   -1.7937 C   0  0  0  0  0  0  0  0  0  0  0  0
    4.2667   -1.2908   -1.4379 N   0  0  0  0  0  0  0  0  0  0  0  0
    5.1860   -0.1337   -1.3515 C   0  0  1  0  0  0  0  0  0  0  0  0
    4.7441    1.0490   -2.2177 C   0  0  0  0  0  0  0  0  0  0  0  0
    5.4060    0.2630    0.1151 C   0  0  0  0  0  0  0  0  0  0  0  0
    0.0108   -0.4324   -3.1396 H   0  0  0  0  0  0  0  0  0  0  0  0
    0.5204    0.4501   -1.6821 H   0  0  0  0  0  0  0  0  0  0  0  0
    0.0059   -1.2426   -1.5537 H   0  0  0  0  0  0  0  0  0  0  0  0
    2.5046   -0.2287   -3.0771 H   0  0  0  0  0  0  0  0  0  0  0  0
    2.0173   -1.9198   -3.0058 H   0  0  0  0  0  0  0  0  0  0  0  0
    1.3952   -4.3977    0.6174 H   0  0  0  0  0  0  0  0  0  0  0  0
    2.9491   -5.2952    0.5202 H   0  0  0  0  0  0  0  0  0  0  0  0
    1.7659   -5.4014   -0.8212 H   0  0  0  0  0  0  0  0  0  0  0  0
    3.8380   -5.8317   -1.8186 H   0  0  0  0  0  0  0  0  0  0  0  0
    8.3833   -1.9091   -3.3933 H   0  0  0  0  0  0  0  0  0  0  0  0
    9.5852   -9.4343   -4.6557 H   0  0  0  0  0  0  0  0  0  0  0  0
    7.2957  -10.0626   -3.4394 H   0  0  0  0  0  0  0  0  0  0  0  0
    6.1298   -0.5214   -1.7551 H   0  0  0  0  0  0  0  0  0  0  0  0
    3.7954    1.4940   -1.8761 H   0  0  0  0  0  0  0  0  0  0  0  0
    4.6399    0.7564   -3.2729 H   0  0  0  0  0  0  0  0  0  0  0  0
    5.5106    1.8370   -2.1634 H   0  0  0  0  0  0  0  0  0  0  0  0
    4.4869    0.6501    0.5851 H   0  0  0  0  0  0  0  0  0  0  0  0
    6.1655    1.0578    0.1721 H   0  0  0  0  0  0  0  0  0  0  0  0
    5.7657   -0.5922    0.7068 H   0  0  0  0  0  0  0  0  0  0  0  0
  1  2  1  0
  1 30  1  0
  1 31  1  0
  1 32  1  0
  2  3  1  0
  2 33  1  0
  2 34  1  0
  3  4  1  1
  3  5  1  0
  3 26  1  0
  5  6  2  0
  5  7  1  0
  7  8  1  0
  7  9  1  0
  8 35  1  0
  8 36  1  0
  8 37  1  0
  9 10  1  0
  9 25  2  0
 10 11  2  0
 10 38  1  0
 11 12  1  0
 12 13  1  0
 12 24  2  0
 13 14  1  0
 13 18  2  0
 14 15  2  0
 14 39  1  0
 15 16  1  0
 16 17  1  0
 16 18  1  0
 18 19  1  0
 19 20  2  0
 19 23  1  0
 20 21  1  0
 21 22  2  0
 21 40  1  0
 22 23  1  0
 22 41  1  0
 24 25  1  0
 25 26  1  0
 26 27  1  0
 27 28  1  0
 27 29  1  0
 27 42  1  6
 28 43  1  0
 28 44  1  0
 28 45  1  0
 29 46  1  0
 29 47  1  0
 29 48  1  0
M  END

