
     RDKit          3D

101100  0  0  0  0  0  0  0  0999 V2000
    3.2860   -1.6608   -3.3393 C   0  0  0  0  0  0  0  0  0  0  0  0
    3.0009   -2.9240   -4.1528 C   0  0  0  0  0  0  0  0  0  0  0  0
    2.9943   -4.2207   -3.3201 C   0  0  1  0  0  0  0  0  0  0  0  0
    1.9446   -4.2596   -2.1753 C   0  0  0  0  0  0  0  0  0  0  0  0
    0.4910   -3.9820   -2.5736 C   0  0  0  0  0  0  0  0  0  0  0  0
   -0.4896   -4.1699   -1.4092 C   0  0  0  0  0  0  0  0  0  0  0  0
   -1.9494   -3.8194   -1.7304 C   0  0  0  0  0  0  0  0  0  0  0  0
   -2.6132   -4.7080   -2.7886 C   0  0  0  0  0  0  0  0  0  0  0  0
   -4.0893   -4.3776   -3.0306 C   0  0  0  0  0  0  0  0  0  0  0  0
   -4.7448   -5.2346   -4.1175 C   0  0  0  0  0  0  0  0  0  0  0  0
   -6.2198   -4.9057   -4.3666 C   0  0  0  0  0  0  0  0  0  0  0  0
   -6.8587   -5.7391   -5.4813 C   0  0  0  0  0  0  0  0  0  0  0  0
   -8.3308   -5.4073   -5.7426 C   0  0  0  0  0  0  0  0  0  0  0  0
   -8.9472   -6.2235   -6.8817 C   0  0  0  0  0  0  0  0  0  0  0  0
  -10.4106   -5.8792   -7.1471 C   0  0  0  0  0  0  0  0  0  0  0  0
  -11.0188   -6.6533   -8.2988 C   0  0  0  0  0  0  0  0  0  0  0  0
  -10.4415   -7.4697   -8.9754 O   0  0  0  0  0  0  0  0  0  0  0  0
  -12.3090   -6.3050   -8.4852 O   0  0  0  0  0  0  0  0  0  0  0  0
  -13.0225   -6.9441   -9.5566 C   0  0  0  0  0  0  0  0  0  0  0  0
  -13.6404   -8.2681   -9.1230 C   0  0  0  0  0  0  0  0  0  0  0  0
  -14.4780   -8.9132  -10.2311 C   0  0  0  0  0  0  0  0  0  0  0  0
  -15.1089  -10.2487   -9.8231 C   0  0  0  0  0  0  0  0  0  0  0  0
  -15.9470  -10.8887  -10.9345 C   0  0  0  0  0  0  0  0  0  0  0  0
  -16.5287  -12.2796  -10.6174 C   0  0  1  0  0  0  0  0  0  0  0  0
  -17.5159  -12.2576   -9.4425 C   0  0  0  0  0  0  0  0  0  0  0  0
  -17.1846  -12.8864  -11.8647 C   0  0  0  0  0  0  0  0  0  0  0  0
    2.9223   -5.4494   -4.2087 C   0  0  0  0  0  0  0  0  0  0  0  0
    1.8408   -5.6046   -4.9728 O   0  0  0  0  0  0  0  0  0  0  0  0
    3.2845   -6.6020   -3.5510 O   0  0  0  0  0  0  0  0  0  0  0  0
    3.1623   -7.8683   -4.2085 C   0  0  0  0  0  0  0  0  0  0  0  0
    3.9194   -7.9597   -5.5294 C   0  0  0  0  0  0  0  0  0  0  0  0
    3.8595   -9.3665   -6.1325 C   0  0  0  0  0  0  0  0  0  0  0  0
    4.5822   -9.4871   -7.4785 C   0  0  0  0  0  0  0  0  0  0  0  0
    4.5241  -10.8972   -8.0745 C   0  0  0  0  0  0  0  0  0  0  0  0
    5.1460  -11.0564   -9.4750 C   0  0  1  0  0  0  0  0  0  0  0  0
    6.6525  -10.7631   -9.4923 C   0  0  0  0  0  0  0  0  0  0  0  0
    4.8601  -12.4553  -10.0366 C   0  0  0  0  0  0  0  0  0  0  0  0
    3.3540   -0.7784   -3.9953 H   0  0  0  0  0  0  0  0  0  0  0  0
    4.2415   -1.7423   -2.7937 H   0  0  0  0  0  0  0  0  0  0  0  0
    2.4984   -1.4567   -2.5964 H   0  0  0  0  0  0  0  0  0  0  0  0
    3.7665   -3.0349   -4.9389 H   0  0  0  0  0  0  0  0  0  0  0  0
    2.0400   -2.8165   -4.6840 H   0  0  0  0  0  0  0  0  0  0  0  0
    3.9867   -4.3268   -2.8430 H   0  0  0  0  0  0  0  0  0  0  0  0
    2.2541   -3.5393   -1.3959 H   0  0  0  0  0  0  0  0  0  0  0  0
    2.0116   -5.2544   -1.7027 H   0  0  0  0  0  0  0  0  0  0  0  0
    0.2195   -4.6460   -3.4100 H   0  0  0  0  0  0  0  0  0  0  0  0
    0.3941   -2.9499   -2.9565 H   0  0  0  0  0  0  0  0  0  0  0  0
   -0.1561   -3.5496   -0.5573 H   0  0  0  0  0  0  0  0  0  0  0  0
   -0.4354   -5.2165   -1.0551 H   0  0  0  0  0  0  0  0  0  0  0  0
   -2.0062   -2.7637   -2.0565 H   0  0  0  0  0  0  0  0  0  0  0  0
   -2.5403   -3.8756   -0.7983 H   0  0  0  0  0  0  0  0  0  0  0  0
   -2.5213   -5.7674   -2.4833 H   0  0  0  0  0  0  0  0  0  0  0  0
   -2.0675   -4.6246   -3.7449 H   0  0  0  0  0  0  0  0  0  0  0  0
   -4.1829   -3.3100   -3.3046 H   0  0  0  0  0  0  0  0  0  0  0  0
   -4.6508   -4.4921   -2.0844 H   0  0  0  0  0  0  0  0  0  0  0  0
   -4.6496   -6.3031   -3.8482 H   0  0  0  0  0  0  0  0  0  0  0  0
   -4.1820   -5.1151   -5.0620 H   0  0  0  0  0  0  0  0  0  0  0  0
   -6.3163   -3.8320   -4.6147 H   0  0  0  0  0  0  0  0  0  0  0  0
   -6.7900   -5.0473   -3.4294 H   0  0  0  0  0  0  0  0  0  0  0  0
   -6.7656   -6.8133   -5.2356 H   0  0  0  0  0  0  0  0  0  0  0  0
   -6.2848   -5.5973   -6.4158 H   0  0  0  0  0  0  0  0  0  0  0  0
   -8.4258   -4.3290   -5.9711 H   0  0  0  0  0  0  0  0  0  0  0  0
   -8.9126   -5.5673   -4.8154 H   0  0  0  0  0  0  0  0  0  0  0  0
   -8.8632   -7.3014   -6.6612 H   0  0  0  0  0  0  0  0  0  0  0  0
   -8.3686   -6.0698   -7.8083 H   0  0  0  0  0  0  0  0  0  0  0  0
  -10.5375   -4.8050   -7.3702 H   0  0  0  0  0  0  0  0  0  0  0  0
  -11.0381   -6.0606   -6.2566 H   0  0  0  0  0  0  0  0  0  0  0  0
  -12.3382   -7.0955  -10.4054 H   0  0  0  0  0  0  0  0  0  0  0  0
  -13.8015   -6.2236   -9.8489 H   0  0  0  0  0  0  0  0  0  0  0  0
  -14.2645   -8.0941   -8.2288 H   0  0  0  0  0  0  0  0  0  0  0  0
  -12.8306   -8.9534   -8.8213 H   0  0  0  0  0  0  0  0  0  0  0  0
  -13.8462   -9.0671  -11.1253 H   0  0  0  0  0  0  0  0  0  0  0  0
  -15.2767   -8.2148  -10.5442 H   0  0  0  0  0  0  0  0  0  0  0  0
  -15.7286  -10.0894   -8.9234 H   0  0  0  0  0  0  0  0  0  0  0  0
  -14.3089  -10.9491   -9.5189 H   0  0  0  0  0  0  0  0  0  0  0  0
  -15.3215  -10.9724  -11.8419 H   0  0  0  0  0  0  0  0  0  0  0  0
  -16.7765  -10.2076  -11.2062 H   0  0  0  0  0  0  0  0  0  0  0  0
  -15.6821  -12.9339  -10.3326 H   0  0  0  0  0  0  0  0  0  0  0  0
  -18.3686  -11.5894   -9.6566 H   0  0  0  0  0  0  0  0  0  0  0  0
  -17.0462  -11.9107   -8.5092 H   0  0  0  0  0  0  0  0  0  0  0  0
  -17.9238  -13.2632   -9.2499 H   0  0  0  0  0  0  0  0  0  0  0  0
  -18.0387  -12.2724  -12.1998 H   0  0  0  0  0  0  0  0  0  0  0  0
  -17.5643  -13.9019  -11.6667 H   0  0  0  0  0  0  0  0  0  0  0  0
  -16.4735  -12.9514  -12.7044 H   0  0  0  0  0  0  0  0  0  0  0  0
    2.0957   -8.1124   -4.3543 H   0  0  0  0  0  0  0  0  0  0  0  0
    3.5714   -8.5830   -3.4779 H   0  0  0  0  0  0  0  0  0  0  0  0
    4.9686   -7.6612   -5.3611 H   0  0  0  0  0  0  0  0  0  0  0  0
    3.4899   -7.2316   -6.2384 H   0  0  0  0  0  0  0  0  0  0  0  0
    2.8027   -9.6669   -6.2593 H   0  0  0  0  0  0  0  0  0  0  0  0
    4.2944  -10.0927   -5.4204 H   0  0  0  0  0  0  0  0  0  0  0  0
    5.6322   -9.1724   -7.3478 H   0  0  0  0  0  0  0  0  0  0  0  0
    4.1384   -8.7693   -8.1929 H   0  0  0  0  0  0  0  0  0  0  0  0
    3.4660  -11.2132   -8.1255 H   0  0  0  0  0  0  0  0  0  0  0  0
    5.0147  -11.6086   -7.3825 H   0  0  0  0  0  0  0  0  0  0  0  0
    4.6527  -10.3214  -10.1401 H   0  0  0  0  0  0  0  0  0  0  0  0
    7.1948  -11.4503   -8.8193 H   0  0  0  0  0  0  0  0  0  0  0  0
    6.8811   -9.7342   -9.1741 H   0  0  0  0  0  0  0  0  0  0  0  0
    7.0691  -10.8936  -10.5042 H   0  0  0  0  0  0  0  0  0  0  0  0
    5.3261  -13.2354   -9.4097 H   0  0  0  0  0  0  0  0  0  0  0  0
    5.2596  -12.5688  -11.0576 H   0  0  0  0  0  0  0  0  0  0  0  0
    3.7782  -12.6629  -10.0747 H   0  0  0  0  0  0  0  0  0  0  0  0
  1  2  1  0
  1 38  1  0
  1 39  1  0
  1 40  1  0
  2  3  1  0
  2 41  1  0
  2 42  1  0
  3  4  1  0
  3 27  1  0
  3 43  1  1
  4  5  1  0
  4 44  1  0
  4 45  1  0
  5  6  1  0
  5 46  1  0
  5 47  1  0
  6  7  1  0
  6 48  1  0
  6 49  1  0
  7  8  1  0
  7 50  1  0
  7 51  1  0
  8  9  1  0
  8 52  1  0
  8 53  1  0
  9 10  1  0
  9 54  1  0
  9 55  1  0
 10 11  1  0
 10 56  1  0
 10 57  1  0
 11 12  1  0
 11 58  1  0
 11 59  1  0
 12 13  1  0
 12 60  1  0
 12 61  1  0
 13 14  1  0
 13 62  1  0
 13 63  1  0
 14 15  1  0
 14 64  1  0
 14 65  1  0
 15 16  1  0
 15 66  1  0
 15 67  1  0
 16 17  2  0
 16 18  1  0
 18 19  1  0
 19 20  1  0
 19 68  1  0
 19 69  1  0
 20 21  1  0
 20 70  1  0
 20 71  1  0
 21 22  1  0
 21 72  1  0
 21 73  1  0
 22 23  1  0
 22 74  1  0
 22 75  1  0
 23 24  1  0
 23 76  1  0
 23 77  1  0
 24 25  1  0
 24 26  1  0
 24 78  1  1
 25 79  1  0
 25 80  1  0
 25 81  1  0
 26 82  1  0
 26 83  1  0
 26 84  1  0
 27 28  2  0
 27 29  1  0
 29 30  1  0
 30 31  1  0
 30 85  1  0
 30 86  1  0
 31 32  1  0
 31 87  1  0
 31 88  1  0
 32 33  1  0
 32 89  1  0
 32 90  1  0
 33 34  1  0
 33 91  1  0
 33 92  1  0
 34 35  1  0
 34 93  1  0
 34 94  1  0
 35 36  1  0
 35 37  1  0
 35 95  1  6
 36 96  1  0
 36 97  1  0
 36 98  1  0
 37 99  1  0
 37100  1  0
 37101  1  0
M  END

