
     RDKit          3D

 26 27  0  0  0  0  0  0  0  0999 V2000
    2.9708    1.1143   -2.2826 N   0  0  0  0  0  0  0  0  0  0  0  0
    2.5319   -0.2539   -2.1420 C   0  0  1  0  0  0  0  0  0  0  0  0
    2.8236   -0.8811   -0.7381 C   0  0  0  0  0  0  0  0  0  0  0  0
    2.4250   -2.3291   -0.5878 C   0  0  0  0  0  0  0  0  0  0  0  0
    3.1592   -3.3547   -1.1474 C   0  0  0  0  0  0  0  0  0  0  0  0
    2.7494   -4.7219   -1.0137 C   0  0  0  0  0  0  0  0  0  0  0  0
    1.6195   -5.0447   -0.3235 C   0  0  0  0  0  0  0  0  0  0  0  0
    0.8742   -4.0292    0.2417 N   0  0  0  0  0  0  0  0  0  0  0  0
   -0.2810   -4.0484    0.9802 C   0  0  0  0  0  0  0  0  0  0  0  0
   -1.0692   -5.5309    1.3594 Cl  0  0  0  0  0  0  0  0  0  0  0  0
   -0.6711   -2.8501    1.3340 N   0  0  0  0  0  0  0  0  0  0  0  0
    0.2413   -1.9794    0.8247 C   0  0  0  0  0  0  0  0  0  0  0  0
    1.2363   -2.6657    0.1299 C   0  0  0  0  0  0  0  0  0  0  0  0
    1.0222   -0.2958   -2.4241 C   0  0  0  0  0  0  0  0  0  0  0  0
    0.2921    0.6256   -2.1768 O   0  0  0  0  0  0  0  0  0  0  0  0
    0.5426   -1.4470   -2.9279 O   0  0  0  0  0  0  0  0  0  0  0  0
    3.8523    1.2832   -1.8027 H   0  0  0  0  0  0  0  0  0  0  0  0
    2.2610    1.7403   -1.9000 H   0  0  0  0  0  0  0  0  0  0  0  0
    3.0434   -0.8862   -2.8936 H   0  0  0  0  0  0  0  0  0  0  0  0
    2.3249   -0.2580    0.0197 H   0  0  0  0  0  0  0  0  0  0  0  0
    3.9093   -0.7852   -0.5706 H   0  0  0  0  0  0  0  0  0  0  0  0
    4.0844   -3.1303   -1.6849 H   0  0  0  0  0  0  0  0  0  0  0  0
    3.3448   -5.5208   -1.4582 H   0  0  0  0  0  0  0  0  0  0  0  0
    1.2464   -6.0574   -0.1733 H   0  0  0  0  0  0  0  0  0  0  0  0
    0.1415   -0.9041    0.9595 H   0  0  0  0  0  0  0  0  0  0  0  0
    1.2557   -2.0956   -3.0297 H   0  0  0  0  0  0  0  0  0  0  0  0
  1  2  1  0
  1 17  1  0
  1 18  1  0
  2  3  1  0
  2 14  1  0
  2 19  1  6
  3  4  1  0
  3 20  1  0
  3 21  1  0
  4  5  2  0
  4 13  1  0
  5  6  1  0
  5 22  1  0
  6  7  2  0
  6 23  1  0
  7  8  1  0
  7 24  1  0
  8  9  1  0
  8 13  1  0
  9 10  1  0
  9 11  2  0
 11 12  1  0
 12 13  2  0
 12 25  1  0
 14 15  2  0
 14 16  1  0
 16 26  1  0
M  END

