
     RDKit          3D

 49 51  0  0  0  0  0  0  0  0999 V2000
    2.4653    0.2088    4.1476 O   0  0  0  0  0  0  0  0  0  0  0  0
    3.5374    0.4506    3.6563 C   0  0  0  0  0  0  0  0  0  0  0  0
    4.6502   -0.1607    4.1213 O   0  0  0  0  0  0  0  0  0  0  0  0
    3.7204    1.4267    2.5253 C   0  0  0  0  0  0  0  0  0  0  0  0
    2.6560    2.2928    2.2272 C   0  0  0  0  0  0  0  0  0  0  0  0
    2.7774    3.2044    1.1800 C   0  0  0  0  0  0  0  0  0  0  0  0
    3.9497    3.2496    0.4158 C   0  0  0  0  0  0  0  0  0  0  0  0
    5.0174    2.3858    0.6913 C   0  0  0  0  0  0  0  0  0  0  0  0
    6.3141    2.4440   -0.1002 C   0  0  0  0  0  0  0  0  0  0  0  0
    6.9269    1.1363   -0.2272 N   0  0  0  0  0  0  0  0  0  0  0  0
    8.3372    1.0750   -0.5636 C   0  0  0  0  0  0  0  0  0  0  0  0
    8.9901   -0.2741   -0.1312 C   0  0  1  0  0  0  0  0  0  0  0  0
    8.7835   -0.4120    1.3919 C   0  0  0  0  0  0  0  0  0  0  0  0
    7.9152   -1.3558    1.9651 C   0  0  0  0  0  0  0  0  0  0  0  0
    7.7043   -1.4045    3.3479 C   0  0  0  0  0  0  0  0  0  0  0  0
    8.3573   -0.5156    4.2043 C   0  0  0  0  0  0  0  0  0  0  0  0
    9.2323    0.4176    3.6415 C   0  0  0  0  0  0  0  0  0  0  0  0
   10.0767    1.5458    4.6823 Cl  0  0  0  0  0  0  0  0  0  0  0  0
    9.4450    0.4724    2.2631 C   0  0  0  0  0  0  0  0  0  0  0  0
    8.3549   -1.4625   -0.9000 C   0  0  0  0  0  0  0  0  0  0  0  0
    8.6699   -1.4821   -2.4019 C   0  0  0  0  0  0  0  0  0  0  0  0
   10.1800   -1.4775   -2.6586 C   0  0  0  0  0  0  0  0  0  0  0  0
   10.8505   -0.2936   -1.9557 C   0  0  0  0  0  0  0  0  0  0  0  0
   10.5135   -0.2505   -0.4571 C   0  0  0  0  0  0  0  0  0  0  0  0
    4.8852    1.4742    1.7482 C   0  0  0  0  0  0  0  0  0  0  0  0
    5.4511    0.1975    3.7102 H   0  0  0  0  0  0  0  0  0  0  0  0
    1.7465    2.2281    2.8271 H   0  0  0  0  0  0  0  0  0  0  0  0
    1.9513    3.8810    0.9473 H   0  0  0  0  0  0  0  0  0  0  0  0
    4.0316    3.9623   -0.4105 H   0  0  0  0  0  0  0  0  0  0  0  0
    7.0255    3.0910    0.4456 H   0  0  0  0  0  0  0  0  0  0  0  0
    6.1278    2.9593   -1.0682 H   0  0  0  0  0  0  0  0  0  0  0  0
    6.3662    0.5335   -0.8253 H   0  0  0  0  0  0  0  0  0  0  0  0
    8.8453    1.8884   -0.0205 H   0  0  0  0  0  0  0  0  0  0  0  0
    8.5367    1.2644   -1.6378 H   0  0  0  0  0  0  0  0  0  0  0  0
    7.3761   -2.0638    1.3371 H   0  0  0  0  0  0  0  0  0  0  0  0
    7.0134   -2.1415    3.7649 H   0  0  0  0  0  0  0  0  0  0  0  0
    8.2005   -0.5448    5.2836 H   0  0  0  0  0  0  0  0  0  0  0  0
   10.1318    1.2280    1.8804 H   0  0  0  0  0  0  0  0  0  0  0  0
    7.2638   -1.4750   -0.7461 H   0  0  0  0  0  0  0  0  0  0  0  0
    8.7312   -2.4005   -0.4566 H   0  0  0  0  0  0  0  0  0  0  0  0
    8.2085   -0.6125   -2.9037 H   0  0  0  0  0  0  0  0  0  0  0  0
    8.2059   -2.3733   -2.8566 H   0  0  0  0  0  0  0  0  0  0  0  0
   10.3900   -1.4539   -3.7410 H   0  0  0  0  0  0  0  0  0  0  0  0
   10.6136   -2.4206   -2.2775 H   0  0  0  0  0  0  0  0  0  0  0  0
   10.5380    0.6464   -2.4432 H   0  0  0  0  0  0  0  0  0  0  0  0
   11.9456   -0.3456   -2.0763 H   0  0  0  0  0  0  0  0  0  0  0  0
   10.9835    0.6377   -0.0050 H   0  0  0  0  0  0  0  0  0  0  0  0
   10.9757   -1.1232    0.0366 H   0  0  0  0  0  0  0  0  0  0  0  0
    5.7167    0.7832    1.9098 H   0  0  0  0  0  0  0  0  0  0  0  0
  1  2  2  0
  2  3  1  0
  2  4  1  0
  3 26  1  0
  4  5  2  0
  4 25  1  0
  5  6  1  0
  5 27  1  0
  6  7  2  0
  6 28  1  0
  7  8  1  0
  7 29  1  0
  8  9  1  0
  8 25  2  0
  9 10  1  0
  9 30  1  0
  9 31  1  0
 10 11  1  0
 10 32  1  0
 12 11  1  6
 11 33  1  0
 11 34  1  0
 12 13  1  0
 12 20  1  0
 12 24  1  0
 13 14  2  0
 13 19  1  0
 14 15  1  0
 14 35  1  0
 15 16  2  0
 15 36  1  0
 16 17  1  0
 16 37  1  0
 17 18  1  0
 17 19  2  0
 19 38  1  0
 20 21  1  0
 20 39  1  0
 20 40  1  0
 21 22  1  0
 21 41  1  0
 21 42  1  0
 22 23  1  0
 22 43  1  0
 22 44  1  0
 23 24  1  0
 23 45  1  0
 23 46  1  0
 24 47  1  0
 24 48  1  0
 25 49  1  0
M  END

