
     RDKit          3D

 80 84  0  0  0  0  0  0  0  0999 V2000
    3.4178   -3.1843   -2.3169 C   0  0  0  0  0  0  0  0  0  0  0  0
    4.1648   -3.0531   -1.1204 O   0  0  0  0  0  0  0  0  0  0  0  0
    3.6369   -3.4269    0.0770 C   0  0  0  0  0  0  0  0  0  0  0  0
    4.4969   -4.1927    0.8801 C   0  0  0  0  0  0  0  0  0  0  0  0
    4.1096   -4.6217    2.1487 C   0  0  0  0  0  0  0  0  0  0  0  0
    5.0769   -5.3965    3.0082 C   0  0  1  0  0  0  0  0  0  0  0  0
    5.9184   -6.1442    2.2721 F   0  0  0  0  0  0  0  0  0  0  0  0
    5.8391   -4.5765    3.7589 F   0  0  0  0  0  0  0  0  0  0  0  0
    4.4399   -6.2223    3.8576 F   0  0  0  0  0  0  0  0  0  0  0  0
    2.8382   -4.2982    2.6320 C   0  0  0  0  0  0  0  0  0  0  0  0
    1.9931   -3.5254    1.8390 C   0  0  0  0  0  0  0  0  0  0  0  0
    2.3561   -3.0631    0.5621 C   0  0  0  0  0  0  0  0  0  0  0  0
    1.3658   -2.1906   -0.1899 C   0  0  0  0  0  0  0  0  0  0  0  0
    1.8970   -0.9119   -0.6471 N   0  0  0  0  0  0  0  0  0  0  0  0
    2.4370   -0.0811    0.4285 C   0  0  0  0  0  0  0  0  0  0  0  0
    3.1193    1.1617   -0.1405 C   0  0  0  0  0  0  0  0  0  0  0  0
    2.1633    1.9823   -1.0168 C   0  0  2  0  0  0  0  0  0  0  0  0
    1.5288    1.0747   -2.0704 C   0  0  0  0  0  0  0  0  0  0  0  0
    0.9172   -0.1805   -1.4459 C   0  0  0  0  0  0  0  0  0  0  0  0
    2.8212    3.2558   -1.6019 C   0  0  0  0  0  0  0  0  0  0  0  0
    2.3536    4.2777   -0.6913 N   0  0  0  0  0  0  0  0  0  0  0  0
    2.6637    5.6957   -0.7996 C   0  0  0  0  0  0  0  0  0  0  0  0
    3.6387    6.2139    0.2783 C   0  0  1  0  0  0  0  0  0  0  0  0
    5.0345    5.5630    0.2287 C   0  0  0  0  0  0  0  0  0  0  0  0
    5.8912    6.0497   -0.9509 C   0  0  0  0  0  0  0  0  0  0  0  0
    6.0037    7.5882   -1.0451 C   0  0  2  0  0  0  0  0  0  0  0  0
    6.9231    8.1734    0.0306 C   0  0  0  0  0  0  0  0  0  0  0  0
    6.8581    7.8593    1.2110 O   0  0  0  0  0  0  0  0  0  0  0  0
    7.8063    9.1192   -0.4177 N   0  0  0  0  0  0  0  0  0  0  0  0
    8.7123    9.8264    0.4688 C   0  0  0  0  0  0  0  0  0  0  0  0
   10.0955    9.1793    0.5721 C   0  0  1  0  0  0  0  0  0  0  0  0
   10.9306    9.1559   -0.7152 C   0  0  0  0  0  0  0  0  0  0  0  0
   12.3589    9.1514   -0.1572 C   0  0  0  0  0  0  0  0  0  0  0  0
   12.2169   10.0569    1.0737 C   0  0  0  0  0  0  0  0  0  0  0  0
   10.8644    9.9368    1.5039 O   0  0  0  0  0  0  0  0  0  0  0  0
    4.5997    8.2400   -0.9714 C   0  0  0  0  0  0  0  0  0  0  0  0
    3.7736    7.7490    0.2263 C   0  0  0  0  0  0  0  0  0  0  0  0
    1.2785    3.8428    0.0469 C   0  0  0  0  0  0  0  0  0  0  0  0
    0.5731    4.4960    0.7706 O   0  0  0  0  0  0  0  0  0  0  0  0
    1.1066    2.5061   -0.1743 O   0  0  0  0  0  0  0  0  0  0  0  0
    4.1490   -3.2358   -3.1368 H   0  0  0  0  0  0  0  0  0  0  0  0
    2.7630   -2.3145   -2.4768 H   0  0  0  0  0  0  0  0  0  0  0  0
    2.8213   -4.1132   -2.3207 H   0  0  0  0  0  0  0  0  0  0  0  0
    5.4752   -4.4494    0.4720 H   0  0  0  0  0  0  0  0  0  0  0  0
    2.5164   -4.6394    3.6169 H   0  0  0  0  0  0  0  0  0  0  0  0
    1.0081   -3.2512    2.2264 H   0  0  0  0  0  0  0  0  0  0  0  0
    0.4808   -2.0468    0.4695 H   0  0  0  0  0  0  0  0  0  0  0  0
    0.9885   -2.7262   -1.0779 H   0  0  0  0  0  0  0  0  0  0  0  0
    3.1695   -0.6689    1.0002 H   0  0  0  0  0  0  0  0  0  0  0  0
    1.6396    0.2292    1.1395 H   0  0  0  0  0  0  0  0  0  0  0  0
    3.9786    0.8488   -0.7568 H   0  0  0  0  0  0  0  0  0  0  0  0
    3.5022    1.7936    0.6770 H   0  0  0  0  0  0  0  0  0  0  0  0
    2.3101    0.7863   -2.7940 H   0  0  0  0  0  0  0  0  0  0  0  0
    0.7538    1.6362   -2.6162 H   0  0  0  0  0  0  0  0  0  0  0  0
    0.5465   -0.8442   -2.2449 H   0  0  0  0  0  0  0  0  0  0  0  0
    0.0334    0.1138   -0.8370 H   0  0  0  0  0  0  0  0  0  0  0  0
    2.4841    3.4480   -2.6404 H   0  0  0  0  0  0  0  0  0  0  0  0
    3.9200    3.1741   -1.6148 H   0  0  0  0  0  0  0  0  0  0  0  0
    1.7165    6.2513   -0.7046 H   0  0  0  0  0  0  0  0  0  0  0  0
    3.0467    5.8760   -1.8176 H   0  0  0  0  0  0  0  0  0  0  0  0
    3.1731    5.9513    1.2427 H   0  0  0  0  0  0  0  0  0  0  0  0
    4.9396    4.4646    0.1908 H   0  0  0  0  0  0  0  0  0  0  0  0
    5.5625    5.8041    1.1622 H   0  0  0  0  0  0  0  0  0  0  0  0
    5.4607    5.6927   -1.9041 H   0  0  0  0  0  0  0  0  0  0  0  0
    6.8981    5.6038   -0.8894 H   0  0  0  0  0  0  0  0  0  0  0  0
    6.4393    7.8376   -2.0285 H   0  0  0  0  0  0  0  0  0  0  0  0
    7.8427    9.3167   -1.4095 H   0  0  0  0  0  0  0  0  0  0  0  0
    8.2595    9.8428    1.4697 H   0  0  0  0  0  0  0  0  0  0  0  0
    8.8281   10.8680    0.1257 H   0  0  0  0  0  0  0  0  0  0  0  0
    9.9627    8.1460    0.9517 H   0  0  0  0  0  0  0  0  0  0  0  0
   10.7508   10.0763   -1.2999 H   0  0  0  0  0  0  0  0  0  0  0  0
   10.7061    8.2925   -1.3587 H   0  0  0  0  0  0  0  0  0  0  0  0
   13.1139    9.5125   -0.8716 H   0  0  0  0  0  0  0  0  0  0  0  0
   12.6436    8.1304    0.1455 H   0  0  0  0  0  0  0  0  0  0  0  0
   12.4315   11.1135    0.8221 H   0  0  0  0  0  0  0  0  0  0  0  0
   12.8923    9.7676    1.8970 H   0  0  0  0  0  0  0  0  0  0  0  0
    4.0723    8.0144   -1.9151 H   0  0  0  0  0  0  0  0  0  0  0  0
    4.7002    9.3381   -0.9377 H   0  0  0  0  0  0  0  0  0  0  0  0
    2.7748    8.2178    0.2017 H   0  0  0  0  0  0  0  0  0  0  0  0
    4.2595    8.0851    1.1552 H   0  0  0  0  0  0  0  0  0  0  0  0
  1  2  1  0
  1 41  1  0
  1 42  1  0
  1 43  1  0
  2  3  1  0
  3  4  2  0
  3 12  1  0
  4  5  1  0
  4 44  1  0
  5  6  1  0
  5 10  2  0
  6  7  1  6
  6  8  1  0
  6  9  1  0
 10 11  1  0
 10 45  1  0
 11 12  2  0
 11 46  1  0
 12 13  1  0
 13 14  1  0
 13 47  1  0
 13 48  1  0
 14 15  1  0
 14 19  1  0
 15 16  1  0
 15 49  1  0
 15 50  1  0
 16 17  1  0
 16 51  1  0
 16 52  1  0
 17 18  1  0
 17 20  1  0
 17 40  1  1
 18 19  1  0
 18 53  1  0
 18 54  1  0
 19 55  1  0
 19 56  1  0
 20 21  1  0
 20 57  1  0
 20 58  1  0
 21 22  1  0
 21 38  1  0
 22 23  1  0
 22 59  1  0
 22 60  1  0
 23 24  1  0
 23 37  1  0
 23 61  1  1
 24 25  1  0
 24 62  1  0
 24 63  1  0
 25 26  1  0
 25 64  1  0
 25 65  1  0
 26 27  1  0
 26 36  1  0
 26 66  1  6
 27 28  2  0
 27 29  1  0
 29 30  1  0
 29 67  1  0
 30 31  1  0
 30 68  1  0
 30 69  1  0
 31 32  1  0
 31 35  1  0
 31 70  1  1
 32 33  1  0
 32 71  1  0
 32 72  1  0
 33 34  1  0
 33 73  1  0
 33 74  1  0
 34 35  1  0
 34 75  1  0
 34 76  1  0
 36 37  1  0
 36 77  1  0
 36 78  1  0
 37 79  1  0
 37 80  1  0
 38 39  2  0
 38 40  1  0
M  END

