
     RDKit          3D

 35 37  0  0  0  0  0  0  0  0999 V2000
    3.3151   -0.5522   -1.3356 C   0  0  0  0  0  0  0  0  0  0  0  0
    2.3503   -0.0857   -0.2313 C   0  0  0  0  0  0  0  0  0  0  0  0
    2.8642    1.0837    0.5597 C   0  0  0  0  0  0  0  0  0  0  0  0
    2.6092    2.4109    0.3682 C   0  0  0  0  0  0  0  0  0  0  0  0
    1.7410    3.0981   -0.6320 C   0  0  0  0  0  0  0  0  0  0  0  0
    3.3653    3.2080    1.3650 C   0  0  0  0  0  0  0  0  0  0  0  0
    3.3864    4.4040    1.5110 O   0  0  0  0  0  0  0  0  0  0  0  0
    4.0896    2.2391    2.1496 N   0  0  0  0  0  0  0  0  0  0  0  0
    3.7917    0.9457    1.6742 C   0  0  0  0  0  0  0  0  0  0  0  0
    4.3439   -0.1474    2.2654 C   0  0  0  0  0  0  0  0  0  0  0  0
    5.2305    0.0408    3.3646 C   0  0  0  0  0  0  0  0  0  0  0  0
    5.9527   -0.8303    4.1728 C   0  0  0  0  0  0  0  0  0  0  0  0
    5.9842   -2.3253    4.0867 C   0  0  0  0  0  0  0  0  0  0  0  0
    6.6640   -0.0185    5.1048 C   0  0  0  0  0  0  0  0  0  0  0  0
    6.3830    1.3146    4.8710 C   0  0  0  0  0  0  0  0  0  0  0  0
    6.8984    2.5136    5.5971 C   0  0  0  0  0  0  0  0  0  0  0  0
    5.4970    1.3579    3.7960 N   0  0  0  0  0  0  0  0  0  0  0  0
    4.9423    2.5248    3.2181 C   0  0  0  0  0  0  0  0  0  0  0  0
    5.1904    3.6330    3.6194 O   0  0  0  0  0  0  0  0  0  0  0  0
    2.8968   -1.4144   -1.8785 H   0  0  0  0  0  0  0  0  0  0  0  0
    4.2888   -0.8532   -0.9186 H   0  0  0  0  0  0  0  0  0  0  0  0
    3.5015    0.2512   -2.0652 H   0  0  0  0  0  0  0  0  0  0  0  0
    2.1439   -0.9259    0.4531 H   0  0  0  0  0  0  0  0  0  0  0  0
    1.3826    0.1832   -0.6833 H   0  0  0  0  0  0  0  0  0  0  0  0
    1.1336    2.3883   -1.2111 H   0  0  0  0  0  0  0  0  0  0  0  0
    2.3477    3.6883   -1.3402 H   0  0  0  0  0  0  0  0  0  0  0  0
    1.0695    3.8153   -0.1327 H   0  0  0  0  0  0  0  0  0  0  0  0
    4.1179   -1.1521    1.9102 H   0  0  0  0  0  0  0  0  0  0  0  0
    5.3446   -2.7071    3.2775 H   0  0  0  0  0  0  0  0  0  0  0  0
    5.6412   -2.7886    5.0274 H   0  0  0  0  0  0  0  0  0  0  0  0
    7.0074   -2.6950    3.9033 H   0  0  0  0  0  0  0  0  0  0  0  0
    7.3310   -0.3769    5.8879 H   0  0  0  0  0  0  0  0  0  0  0  0
    7.5780    2.1806    6.3947 H   0  0  0  0  0  0  0  0  0  0  0  0
    6.0858    3.1053    6.0452 H   0  0  0  0  0  0  0  0  0  0  0  0
    7.4420    3.1984    4.9287 H   0  0  0  0  0  0  0  0  0  0  0  0
  1  2  1  0
  1 20  1  0
  1 21  1  0
  1 22  1  0
  2  3  1  0
  2 23  1  0
  2 24  1  0
  3  4  2  0
  3  9  1  0
  4  5  1  0
  4  6  1  0
  5 25  1  0
  5 26  1  0
  5 27  1  0
  6  7  2  0
  6  8  1  0
  8  9  1  0
  8 18  1  0
  9 10  2  0
 10 11  1  0
 10 28  1  0
 11 12  2  0
 11 17  1  0
 12 13  1  0
 12 14  1  0
 13 29  1  0
 13 30  1  0
 13 31  1  0
 14 15  2  0
 14 32  1  0
 15 16  1  0
 15 17  1  0
 16 33  1  0
 16 34  1  0
 16 35  1  0
 17 18  1  0
 18 19  2  0
M  END

