
     RDKit          3D

 43 44  0  0  0  0  0  0  0  0999 V2000
    2.7815    1.4883    2.7017 C   0  0  0  0  0  0  0  0  0  0  0  0
    3.7156    0.3844    2.2441 C   0  0  0  0  0  0  0  0  0  0  0  0
    4.6765    0.9543    1.3710 O   0  0  0  0  0  0  0  0  0  0  0  0
    5.6351    0.1667    0.8187 C   0  0  0  0  0  0  0  0  0  0  0  0
    5.7698   -1.2105    1.0440 C   0  0  0  0  0  0  0  0  0  0  0  0
    6.7921   -1.9401    0.4257 C   0  0  0  0  0  0  0  0  0  0  0  0
    7.6993   -1.3013   -0.4307 C   0  0  0  0  0  0  0  0  0  0  0  0
    8.7552   -1.9667   -1.0944 N   0  0  0  0  0  0  0  0  0  0  0  0
    9.1108   -3.2761   -1.0164 C   0  0  0  0  0  0  0  0  0  0  0  0
    8.5497   -4.1388   -0.3604 O   0  0  0  0  0  0  0  0  0  0  0  0
   10.2935   -3.7034   -1.9260 C   0  0  1  0  0  0  0  0  0  0  0  0
    9.7952   -4.0911   -3.3240 C   0  0  0  0  0  0  0  0  0  0  0  0
   11.3852   -2.7270   -1.9980 N   0  0  0  0  0  0  0  0  0  0  0  0
   11.1745   -1.5078   -2.5570 N   0  0  0  0  0  0  0  0  0  0  0  0
   12.2801   -0.8474   -2.5090 N   0  0  0  0  0  0  0  0  0  0  0  0
   13.2413   -1.6216   -1.9276 C   0  0  0  0  0  0  0  0  0  0  0  0
   14.6345   -1.1510   -1.7301 C   0  0  0  0  0  0  0  0  0  0  0  0
   14.9484    0.2502   -2.2045 C   0  0  0  0  0  0  0  0  0  0  0  0
   15.4728   -1.8675   -1.2117 O   0  0  0  0  0  0  0  0  0  0  0  0
   12.6717   -2.8520   -1.5839 C   0  0  0  0  0  0  0  0  0  0  0  0
   13.2464   -4.0595   -0.9248 C   0  0  0  0  0  0  0  0  0  0  0  0
    7.5617    0.0828   -0.6528 C   0  0  0  0  0  0  0  0  0  0  0  0
    6.5472    0.8057   -0.0399 C   0  0  0  0  0  0  0  0  0  0  0  0
    2.0175    1.0836    3.3836 H   0  0  0  0  0  0  0  0  0  0  0  0
    2.2725    1.9483    1.8409 H   0  0  0  0  0  0  0  0  0  0  0  0
    3.3402    2.2752    3.2312 H   0  0  0  0  0  0  0  0  0  0  0  0
    3.1534   -0.4124    1.7203 H   0  0  0  0  0  0  0  0  0  0  0  0
    4.2207   -0.0849    3.1099 H   0  0  0  0  0  0  0  0  0  0  0  0
    5.0823   -1.7399    1.7039 H   0  0  0  0  0  0  0  0  0  0  0  0
    6.8907   -3.0081    0.6065 H   0  0  0  0  0  0  0  0  0  0  0  0
    9.3388   -1.3866   -1.7000 H   0  0  0  0  0  0  0  0  0  0  0  0
   10.7039   -4.5889   -1.4257 H   0  0  0  0  0  0  0  0  0  0  0  0
    9.3939   -3.2161   -3.8546 H   0  0  0  0  0  0  0  0  0  0  0  0
    8.9998   -4.8439   -3.2265 H   0  0  0  0  0  0  0  0  0  0  0  0
   10.6142   -4.5185   -3.9225 H   0  0  0  0  0  0  0  0  0  0  0  0
   14.3019    0.9806   -1.6931 H   0  0  0  0  0  0  0  0  0  0  0  0
   14.7319    0.3486   -3.2798 H   0  0  0  0  0  0  0  0  0  0  0  0
   16.0047    0.4701   -2.0052 H   0  0  0  0  0  0  0  0  0  0  0  0
   14.3036   -3.8671   -0.7078 H   0  0  0  0  0  0  0  0  0  0  0  0
   13.1726   -4.9481   -1.5730 H   0  0  0  0  0  0  0  0  0  0  0  0
   12.7243   -4.2884    0.0187 H   0  0  0  0  0  0  0  0  0  0  0  0
    8.2628    0.5970   -1.3167 H   0  0  0  0  0  0  0  0  0  0  0  0
    6.4383    1.8784   -0.2113 H   0  0  0  0  0  0  0  0  0  0  0  0
  1  2  1  0
  1 24  1  0
  1 25  1  0
  1 26  1  0
  2  3  1  0
  2 27  1  0
  2 28  1  0
  3  4  1  0
  4  5  2  0
  4 23  1  0
  5  6  1  0
  5 29  1  0
  6  7  2  0
  6 30  1  0
  7  8  1  0
  7 22  1  0
  8  9  1  0
  8 31  1  0
  9 10  2  0
  9 11  1  0
 11 12  1  0
 11 13  1  0
 11 32  1  1
 12 33  1  0
 12 34  1  0
 12 35  1  0
 13 14  1  0
 13 20  1  0
 14 15  2  0
 15 16  1  0
 16 17  1  0
 16 20  2  0
 17 18  1  0
 17 19  2  0
 18 36  1  0
 18 37  1  0
 18 38  1  0
 20 21  1  0
 21 39  1  0
 21 40  1  0
 21 41  1  0
 22 23  2  0
 22 42  1  0
 23 43  1  0
M  END

