
     RDKit          3D

126153  0  0  0  0  0  0  0  0999 V2000
    1.1429   -1.2689   -3.2274 C   0  0  0  0  0  0  0  0  0  0  0  0
    0.6675   -2.3509   -2.4368 C   0  0  0  0  0  0  0  0  0  0  0  0
    0.0170   -2.0838   -1.2396 C   0  0  0  0  0  0  0  0  0  0  0  0
   -0.0640   -0.7318   -0.8243 C   0  0  0  0  0  0  0  0  0  0  0  0
   -0.6009   -0.6275    0.4869 C   0  0  0  0  0  0  0  0  0  0  0  0
   -0.9374    0.6494    0.9201 C   0  0  0  0  0  0  0  0  0  0  0  0
   -0.6343    1.7749    0.1031 C   0  0  0  0  0  0  0  0  0  0  0  0
    0.0093    1.6574   -1.1171 C   0  0  0  0  0  0  0  0  0  0  0  0
    0.3160    0.3628   -1.6256 C   0  0  0  0  0  0  0  0  0  0  0  0
    0.9502    0.0544   -2.8632 C   0  0  0  0  0  0  0  0  0  0  0  0
   -0.7549   -2.0290    0.9835 C   0  0  0  0  0  0  0  0  0  0  0  0
   -0.5817   -2.8877   -0.1448 C   0  0  0  0  0  0  0  0  0  0  0  0
   -0.9942   -4.2441   -0.0981 C   0  0  0  0  0  0  0  0  0  0  0  0
   -1.3034   -5.0456   -1.2866 C   0  0  0  0  0  0  0  0  0  0  0  0
   -1.5680   -4.4499   -2.5450 C   0  0  0  0  0  0  0  0  0  0  0  0
   -1.8654   -5.2046   -3.6675 C   0  0  0  0  0  0  0  0  0  0  0  0
   -1.9176   -6.6051   -3.5719 C   0  0  0  0  0  0  0  0  0  0  0  0
   -1.7513   -7.2079   -2.3371 C   0  0  0  0  0  0  0  0  0  0  0  0
   -1.4892   -6.4520   -1.1674 C   0  0  0  0  0  0  0  0  0  0  0  0
   -1.4938   -7.0636    0.1554 C   0  0  0  0  0  0  0  0  0  0  0  0
   -1.7020   -8.4479    0.3372 C   0  0  0  0  0  0  0  0  0  0  0  0
   -1.7286   -9.0182    1.5919 C   0  0  0  0  0  0  0  0  0  0  0  0
   -1.5453   -8.2493    2.7610 C   0  0  0  0  0  0  0  0  0  0  0  0
   -1.5005   -8.8458    4.0925 C   0  0  0  0  0  0  0  0  0  0  0  0
   -1.2306  -10.2184    4.3374 C   0  0  0  0  0  0  0  0  0  0  0  0
   -1.5101  -10.7928    5.6137 C   0  0  0  0  0  0  0  0  0  0  0  0
   -1.7265   -9.9665    6.7480 C   0  0  0  0  0  0  0  0  0  0  0  0
   -1.6179  -10.4421    8.1310 C   0  0  0  0  0  0  0  0  0  0  0  0
   -0.9300  -11.6344    8.4669 C   0  0  0  0  0  0  0  0  0  0  0  0
   -0.8538  -12.0972    9.7701 C   0  0  0  0  0  0  0  0  0  0  0  0
   -1.4654  -11.3694   10.8043 C   0  0  0  0  0  0  0  0  0  0  0  0
   -2.0553  -10.1504   10.5186 C   0  0  0  0  0  0  0  0  0  0  0  0
   -2.1001   -9.6350    9.1988 C   0  0  0  0  0  0  0  0  0  0  0  0
   -2.5162   -8.2654    8.9265 C   0  0  0  0  0  0  0  0  0  0  0  0
   -2.9314   -7.4013    9.9614 C   0  0  0  0  0  0  0  0  0  0  0  0
   -3.2066   -6.0718    9.7310 C   0  0  0  0  0  0  0  0  0  0  0  0
   -3.1026   -5.5005    8.4440 C   0  0  0  0  0  0  0  0  0  0  0  0
   -3.3144   -4.0720    8.2190 C   0  0  0  0  0  0  0  0  0  0  0  0
   -3.9279   -3.1965    9.1543 C   0  0  0  0  0  0  0  0  0  0  0  0
   -3.6605   -1.7930    9.1246 C   0  0  0  0  0  0  0  0  0  0  0  0
   -3.0739   -1.1956    7.9759 C   0  0  0  0  0  0  0  0  0  0  0  0
   -2.9870    0.2519    7.7453 C   0  0  0  0  0  0  0  0  0  0  0  0
   -3.8242    1.1812    8.4073 C   0  0  0  0  0  0  0  0  0  0  0  0
   -3.6891    2.5496    8.2299 C   0  0  0  0  0  0  0  0  0  0  0  0
   -2.7036    3.0475    7.3612 C   0  0  0  0  0  0  0  0  0  0  0  0
   -1.9471    2.1594    6.6152 C   0  0  0  0  0  0  0  0  0  0  0  0
   -2.1042    0.7582    6.7475 C   0  0  0  0  0  0  0  0  0  0  0  0
   -1.5249   -0.1607    5.7793 C   0  0  0  0  0  0  0  0  0  0  0  0
   -0.6523    0.2558    4.7489 C   0  0  0  0  0  0  0  0  0  0  0  0
   -0.4134   -0.5436    3.6485 C   0  0  0  0  0  0  0  0  0  0  0  0
   -1.0245   -1.8097    3.5085 C   0  0  0  0  0  0  0  0  0  0  0  0
   -1.0108   -2.5815    2.2699 C   0  0  0  0  0  0  0  0  0  0  0  0
   -1.2427   -3.9910    2.3578 C   0  0  0  0  0  0  0  0  0  0  0  0
   -1.2235   -4.8155    1.1879 C   0  0  0  0  0  0  0  0  0  0  0  0
   -1.4158   -6.2432    1.3112 C   0  0  0  0  0  0  0  0  0  0  0  0
   -1.5076   -6.8379    2.6109 C   0  0  0  0  0  0  0  0  0  0  0  0
   -1.6531   -6.0004    3.7650 C   0  0  0  0  0  0  0  0  0  0  0  0
   -1.5711   -4.5888    3.6306 C   0  0  0  0  0  0  0  0  0  0  0  0
   -1.8572   -3.7670    4.7533 C   0  0  0  0  0  0  0  0  0  0  0  0
   -1.6235   -2.3568    4.6753 C   0  0  0  0  0  0  0  0  0  0  0  0
   -1.9235   -1.5206    5.7945 C   0  0  0  0  0  0  0  0  0  0  0  0
   -2.6080   -2.0661    6.9428 C   0  0  0  0  0  0  0  0  0  0  0  0
   -2.7399   -3.4870    7.0537 C   0  0  0  0  0  0  0  0  0  0  0  0
   -2.3038   -4.3401    5.9745 C   0  0  0  0  0  0  0  0  0  0  0  0
   -2.3138   -5.7554    6.1179 C   0  0  0  0  0  0  0  0  0  0  0  0
   -2.6213   -6.3328    7.3954 C   0  0  0  0  0  0  0  0  0  0  0  0
   -2.3672   -7.7261    7.6211 C   0  0  0  0  0  0  0  0  0  0  0  0
   -1.9611   -8.5756    6.5222 C   0  0  0  0  0  0  0  0  0  0  0  0
   -1.8280   -8.0176    5.2095 C   0  0  0  0  0  0  0  0  0  0  0  0
   -1.9468   -6.5901    5.0275 C   0  0  0  0  0  0  0  0  0  0  0  0
   -4.1156   -1.2359   10.4327 C   0  0  0  0  0  0  0  0  0  0  0  0
   -3.8965   -0.0818   11.1742 C   0  0  0  0  0  0  0  0  0  0  0  0
   -4.5163    0.0644   12.4472 C   0  0  0  0  0  0  0  0  0  0  0  0
   -5.3593   -0.8973   12.9787 C   0  0  0  0  0  0  0  0  0  0  0  0
   -5.5656   -2.1179   12.2742 C   0  0  0  0  0  0  0  0  0  0  0  0
   -6.3828   -3.2144   12.6734 C   0  0  0  0  0  0  0  0  0  0  0  0
   -6.4515   -4.3472   11.8776 C   0  0  0  0  0  0  0  0  0  0  0  0
   -5.6769   -4.4929   10.6937 C   0  0  0  0  0  0  0  0  0  0  0  0
   -4.8433   -3.4568   10.2941 C   0  0  0  0  0  0  0  0  0  0  0  0
   -4.8775   -2.2605   11.0536 C   0  0  0  0  0  0  0  0  0  0  0  0
   -1.4794  -12.2721    5.4523 C   0  0  0  0  0  0  0  0  0  0  0  0
   -1.9294  -13.3726    6.1699 C   0  0  0  0  0  0  0  0  0  0  0  0
   -1.7269  -14.6794    5.6457 C   0  0  0  0  0  0  0  0  0  0  0  0
   -1.0659  -14.9046    4.4489 C   0  0  0  0  0  0  0  0  0  0  0  0
   -0.6299  -13.7983    3.6647 C   0  0  0  0  0  0  0  0  0  0  0  0
    0.0685  -13.8456    2.4241 C   0  0  0  0  0  0  0  0  0  0  0  0
    0.4162  -12.6648    1.7887 C   0  0  0  0  0  0  0  0  0  0  0  0
    0.0386  -11.3881    2.2908 C   0  0  0  0  0  0  0  0  0  0  0  0
   -0.6830  -11.3039    3.4749 C   0  0  0  0  0  0  0  0  0  0  0  0
   -0.9189  -12.5167    4.1729 C   0  0  0  0  0  0  0  0  0  0  0  0
    1.6546   -1.4968   -4.1661 H   0  0  0  0  0  0  0  0  0  0  0  0
    0.8165   -3.3703   -2.7944 H   0  0  0  0  0  0  0  0  0  0  0  0
   -1.4349    0.8235    1.8726 H   0  0  0  0  0  0  0  0  0  0  0  0
   -0.9062    2.7674    0.4718 H   0  0  0  0  0  0  0  0  0  0  0  0
    0.2618    2.5476   -1.6994 H   0  0  0  0  0  0  0  0  0  0  0  0
    1.2898    0.8624   -3.5167 H   0  0  0  0  0  0  0  0  0  0  0  0
   -1.5775   -3.3666   -2.6285 H   0  0  0  0  0  0  0  0  0  0  0  0
   -2.0717   -4.7066   -4.6182 H   0  0  0  0  0  0  0  0  0  0  0  0
   -2.1281   -7.2142   -4.4544 H   0  0  0  0  0  0  0  0  0  0  0  0
   -1.8552   -8.2904   -2.2704 H   0  0  0  0  0  0  0  0  0  0  0  0
   -1.8626   -9.0959   -0.5235 H   0  0  0  0  0  0  0  0  0  0  0  0
   -1.9345  -10.0811    1.6763 H   0  0  0  0  0  0  0  0  0  0  0  0
   -0.4147  -12.1870    7.6868 H   0  0  0  0  0  0  0  0  0  0  0  0
   -0.3076  -13.0182    9.9889 H   0  0  0  0  0  0  0  0  0  0  0  0
   -1.4371  -11.7361   11.8334 H   0  0  0  0  0  0  0  0  0  0  0  0
   -2.4623   -9.5659   11.3428 H   0  0  0  0  0  0  0  0  0  0  0  0
   -3.0052   -7.7677   10.9843 H   0  0  0  0  0  0  0  0  0  0  0  0
   -3.4524   -5.4429   10.5805 H   0  0  0  0  0  0  0  0  0  0  0  0
   -4.6229    0.8131    9.0449 H   0  0  0  0  0  0  0  0  0  0  0  0
   -4.3600    3.2344    8.7546 H   0  0  0  0  0  0  0  0  0  0  0  0
   -2.5718    4.1244    7.2309 H   0  0  0  0  0  0  0  0  0  0  0  0
   -1.2534    2.5548    5.8727 H   0  0  0  0  0  0  0  0  0  0  0  0
   -0.1801    1.2379    4.7943 H   0  0  0  0  0  0  0  0  0  0  0  0
    0.2610   -0.1888    2.8738 H   0  0  0  0  0  0  0  0  0  0  0  0
   -3.2601    0.7247   10.8117 H   0  0  0  0  0  0  0  0  0  0  0  0
   -4.3313    0.9835   13.0092 H   0  0  0  0  0  0  0  0  0  0  0  0
   -5.8506   -0.7323   13.9414 H   0  0  0  0  0  0  0  0  0  0  0  0
   -6.9602   -3.1542   13.5999 H   0  0  0  0  0  0  0  0  0  0  0  0
   -7.1030   -5.1724   12.1764 H   0  0  0  0  0  0  0  0  0  0  0  0
   -5.7494   -5.4226   10.1281 H   0  0  0  0  0  0  0  0  0  0  0  0
   -2.4287  -13.2663    7.1330 H   0  0  0  0  0  0  0  0  0  0  0  0
   -2.0875  -15.5323    6.2266 H   0  0  0  0  0  0  0  0  0  0  0  0
   -0.8905  -15.9249    4.0975 H   0  0  0  0  0  0  0  0  0  0  0  0
    0.3403  -14.8102    1.9871 H   0  0  0  0  0  0  0  0  0  0  0  0
    0.9827  -12.7063    0.8547 H   0  0  0  0  0  0  0  0  0  0  0  0
    0.3260  -10.5012    1.7265 H   0  0  0  0  0  0  0  0  0  0  0  0
  1  2  2  0
  1 10  1  0
  1 91  1  0
  2  3  1  0
  2 92  1  0
  3  4  2  0
  3 12  1  0
  4  5  1  0
  4  9  1  0
  5  6  2  0
  5 11  1  0
  6  7  1  0
  6 93  1  0
  7  8  2  0
  7 94  1  0
  8  9  1  0
  8 95  1  0
  9 10  2  0
 10 96  1  0
 11 12  2  0
 11 52  1  0
 12 13  1  0
 13 14  2  0
 13 54  1  0
 14 15  1  0
 14 19  1  0
 15 16  2  0
 15 97  1  0
 16 17  1  0
 16 98  1  0
 17 18  2  0
 17 99  1  0
 18 19  1  0
 18100  1  0
 19 20  2  0
 20 21  1  0
 20 55  1  0
 21 22  2  0
 21101  1  0
 22 23  1  0
 22102  1  0
 23 24  2  0
 23 56  1  0
 24 25  1  0
 24 69  1  0
 25 26  2  0
 25 89  1  0
 26 27  1  0
 26 81  1  0
 27 28  2  0
 27 68  1  0
 28 29  1  0
 28 33  1  0
 29 30  2  0
 29103  1  0
 30 31  1  0
 30104  1  0
 31 32  2  0
 31105  1  0
 32 33  1  0
 32106  1  0
 33 34  2  0
 34 35  1  0
 34 67  1  0
 35 36  2  0
 35107  1  0
 36 37  1  0
 36108  1  0
 37 38  2  0
 37 66  1  0
 38 39  1  0
 38 63  1  0
 39 40  2  0
 39 79  1  0
 40 41  1  0
 40 71  1  0
 41 42  1  0
 41 62  2  0
 42 43  1  0
 42 47  2  0
 43 44  2  0
 43109  1  0
 44 45  1  0
 44110  1  0
 45 46  2  0
 45111  1  0
 46 47  1  0
 46112  1  0
 47 48  1  0
 48 49  1  0
 48 61  2  0
 49 50  2  0
 49113  1  0
 50 51  1  0
 50114  1  0
 51 52  2  0
 51 60  1  0
 52 53  1  0
 53 54  2  0
 53 58  1  0
 54 55  1  0
 55 56  2  0
 56 57  1  0
 57 58  2  0
 57 70  1  0
 58 59  1  0
 59 60  2  0
 59 64  1  0
 60 61  1  0
 61 62  1  0
 62 63  1  0
 63 64  2  0
 64 65  1  0
 65 66  1  0
 65 70  2  0
 66 67  2  0
 67 68  1  0
 68 69  2  0
 69 70  1  0
 71 72  2  0
 71 80  1  0
 72 73  1  0
 72115  1  0
 73 74  2  0
 73116  1  0
 74 75  1  0
 74117  1  0
 75 76  1  0
 75 80  2  0
 76 77  2  0
 76118  1  0
 77 78  1  0
 77119  1  0
 78 79  2  0
 78120  1  0
 79 80  1  0
 81 82  2  0
 81 90  1  0
 82 83  1  0
 82121  1  0
 83 84  2  0
 83122  1  0
 84 85  1  0
 84123  1  0
 85 86  1  0
 85 90  2  0
 86 87  2  0
 86124  1  0
 87 88  1  0
 87125  1  0
 88 89  2  0
 88126  1  0
 89 90  1  0
M  END

