
     RDKit          3D

 42 43  0  0  0  0  0  0  0  0999 V2000
   10.9261    2.6898   -5.0008 C   0  0  0  0  0  0  0  0  0  0  0  0
    9.9166    2.0218   -4.1127 C   0  0  0  0  0  0  0  0  0  0  0  0
    9.5988    0.6345   -4.2564 C   0  0  0  0  0  0  0  0  0  0  0  0
    8.6737    0.0228   -3.4402 C   0  0  0  0  0  0  0  0  0  0  0  0
    8.4503   -1.3040   -3.5855 F   0  0  0  0  0  0  0  0  0  0  0  0
    7.9673    0.7203   -2.4154 C   0  0  0  0  0  0  0  0  0  0  0  0
    6.8075   -0.0613   -1.4085 S   0  0  1  0  0  0  0  0  0  0  0  0
    6.3337    0.9191   -0.4175 O   0  0  0  0  0  0  0  0  0  0  0  0
    5.8703   -0.8935   -2.1736 O   0  0  0  0  0  0  0  0  0  0  0  0
    7.6304   -1.2645   -0.4383 N   0  0  0  0  0  0  0  0  0  0  0  0
    8.4436   -0.8707    0.6772 C   0  0  0  0  0  0  0  0  0  0  0  0
    8.1112   -1.7731    1.8910 C   0  0  2  0  0  0  0  0  0  0  0  0
    9.0773   -1.5788    3.0478 C   0  0  0  0  0  0  0  0  0  0  0  0
    8.1701   -3.1355    1.5097 O   0  0  0  0  0  0  0  0  0  0  0  0
    7.3519   -3.5448    0.4051 C   0  0  2  0  0  0  0  0  0  0  0  0
    5.8575   -3.4317    0.7413 C   0  0  0  0  0  0  0  0  0  0  0  0
    7.7504   -4.9927    0.1320 C   0  0  0  0  0  0  0  0  0  0  0  0
    7.7030   -2.6471   -0.8185 C   0  0  0  0  0  0  0  0  0  0  0  0
    8.3013    2.1144   -2.2283 C   0  0  0  0  0  0  0  0  0  0  0  0
    9.2358    2.7279   -3.0726 C   0  0  0  0  0  0  0  0  0  0  0  0
    9.4997    4.0762   -2.8980 N   0  0  0  0  0  0  0  0  0  0  0  0
   11.3996    1.9544   -5.6680 H   0  0  0  0  0  0  0  0  0  0  0  0
   11.7478    3.1766   -4.4379 H   0  0  0  0  0  0  0  0  0  0  0  0
   10.4869    3.4682   -5.6591 H   0  0  0  0  0  0  0  0  0  0  0  0
   10.0994    0.0185   -5.0061 H   0  0  0  0  0  0  0  0  0  0  0  0
    8.2363    0.1796    0.9210 H   0  0  0  0  0  0  0  0  0  0  0  0
    9.5208   -0.9817    0.4382 H   0  0  0  0  0  0  0  0  0  0  0  0
    7.0860   -1.5154    2.2162 H   0  0  0  0  0  0  0  0  0  0  0  0
   10.1048   -1.8272    2.7394 H   0  0  0  0  0  0  0  0  0  0  0  0
    8.8023   -2.2401    3.8824 H   0  0  0  0  0  0  0  0  0  0  0  0
    9.0556   -0.5374    3.4038 H   0  0  0  0  0  0  0  0  0  0  0  0
    5.6539   -3.9143    1.7093 H   0  0  0  0  0  0  0  0  0  0  0  0
    5.2554   -3.9304   -0.0324 H   0  0  0  0  0  0  0  0  0  0  0  0
    5.5270   -2.3837    0.7852 H   0  0  0  0  0  0  0  0  0  0  0  0
    7.5015   -5.6225    0.9993 H   0  0  0  0  0  0  0  0  0  0  0  0
    8.8344   -5.0651   -0.0419 H   0  0  0  0  0  0  0  0  0  0  0  0
    7.2217   -5.3849   -0.7497 H   0  0  0  0  0  0  0  0  0  0  0  0
    7.0032   -2.8243   -1.6436 H   0  0  0  0  0  0  0  0  0  0  0  0
    8.7261   -2.9004   -1.1576 H   0  0  0  0  0  0  0  0  0  0  0  0
    7.7692    2.6904   -1.4712 H   0  0  0  0  0  0  0  0  0  0  0  0
    9.0384    4.6004   -2.1684 H   0  0  0  0  0  0  0  0  0  0  0  0
   10.1294    4.5699   -3.5126 H   0  0  0  0  0  0  0  0  0  0  0  0
  1  2  1  0
  1 22  1  0
  1 23  1  0
  1 24  1  0
  2  3  2  0
  2 20  1  0
  3  4  1  0
  3 25  1  0
  4  5  1  0
  4  6  2  0
  7  6  1  6
  6 19  1  0
  7  8  2  0
  7  9  2  0
  7 10  1  0
 10 11  1  0
 10 18  1  0
 11 12  1  0
 11 26  1  0
 11 27  1  0
 12 13  1  0
 12 14  1  0
 12 28  1  1
 13 29  1  0
 13 30  1  0
 13 31  1  0
 14 15  1  0
 15 16  1  1
 15 17  1  0
 15 18  1  0
 16 32  1  0
 16 33  1  0
 16 34  1  0
 17 35  1  0
 17 36  1  0
 17 37  1  0
 18 38  1  0
 18 39  1  0
 19 20  2  0
 19 40  1  0
 20 21  1  0
 21 41  1  0
 21 42  1  0
M  END

