
     RDKit          3D

 53 57  0  0  0  0  0  0  0  0999 V2000
   12.2669   -3.4990    1.0055 C   0  0  0  0  0  0  0  0  0  0  0  0
   11.0643   -2.7350    0.5081 C   0  0  0  0  0  0  0  0  0  0  0  0
   11.1256   -1.3347    0.3409 C   0  0  0  0  0  0  0  0  0  0  0  0
   10.0323   -0.6095   -0.1154 C   0  0  0  0  0  0  0  0  0  0  0  0
    8.8382   -1.2751   -0.4189 C   0  0  0  0  0  0  0  0  0  0  0  0
    7.7998   -0.5222   -0.8611 O   0  0  0  0  0  0  0  0  0  0  0  0
    6.5621   -1.0574   -1.1964 C   0  0  0  0  0  0  0  0  0  0  0  0
    5.7024   -0.3103   -1.5791 O   0  0  0  0  0  0  0  0  0  0  0  0
    6.4378   -2.5056   -1.0434 C   0  0  0  0  0  0  0  0  0  0  0  0
    7.4566   -3.2862   -0.6041 C   0  0  0  0  0  0  0  0  0  0  0  0
    7.3034   -4.7778   -0.4534 C   0  0  0  0  0  0  0  0  0  0  0  0
    6.0047   -5.1728   -0.8326 O   0  0  0  0  0  0  0  0  0  0  0  0
    5.6513   -6.4790   -0.7804 C   0  0  0  0  0  0  0  0  0  0  0  0
    6.4933   -7.5164   -0.3515 C   0  0  0  0  0  0  0  0  0  0  0  0
    6.0221   -8.8313   -0.3433 C   0  0  0  0  0  0  0  0  0  0  0  0
    4.7168   -9.1466   -0.7532 C   0  0  0  0  0  0  0  0  0  0  0  0
    4.2227  -10.5389   -0.7354 C   0  0  0  0  0  0  0  0  0  0  0  0
    2.9157  -10.9001   -0.4830 C   0  0  0  0  0  0  0  0  0  0  0  0
    2.5912  -12.2950   -0.4883 C   0  0  0  0  0  0  0  0  0  0  0  0
    1.1984  -12.7646   -0.2452 C   0  0  0  0  0  0  0  0  0  0  0  0
    0.1117  -11.8786   -0.1259 C   0  0  0  0  0  0  0  0  0  0  0  0
   -1.1794  -12.3595    0.1000 C   0  0  0  0  0  0  0  0  0  0  0  0
   -1.4069  -13.7340    0.2123 C   0  0  0  0  0  0  0  0  0  0  0  0
   -0.3346  -14.6256    0.0932 C   0  0  0  0  0  0  0  0  0  0  0  0
    0.9543  -14.1474   -0.1348 C   0  0  0  0  0  0  0  0  0  0  0  0
    3.5049  -13.2264   -0.6942 N   0  0  0  0  0  0  0  0  0  0  0  0
    4.8057  -12.9078   -0.9292 C   0  0  0  0  0  0  0  0  0  0  0  0
    6.0274  -14.0104   -1.1852 S   0  0  0  0  0  0  0  0  0  0  0  0
    5.1150  -11.5392   -0.9646 N   0  0  0  0  0  0  0  0  0  0  0  0
    6.0801  -11.3307   -1.2051 H   0  0  0  0  0  0  0  0  0  0  0  0
    3.8845   -8.0900   -1.1786 C   0  0  0  0  0  0  0  0  0  0  0  0
    4.3405   -6.7801   -1.1945 C   0  0  0  0  0  0  0  0  0  0  0  0
    8.7343   -2.6729   -0.2661 C   0  0  0  0  0  0  0  0  0  0  0  0
    9.8660   -3.3781    0.2002 C   0  0  0  0  0  0  0  0  0  0  0  0
   12.5824   -3.1448    2.0011 H   0  0  0  0  0  0  0  0  0  0  0  0
   13.1298   -3.3703    0.3311 H   0  0  0  0  0  0  0  0  0  0  0  0
   12.0602   -4.5764    1.0833 H   0  0  0  0  0  0  0  0  0  0  0  0
   12.0543   -0.8070    0.5755 H   0  0  0  0  0  0  0  0  0  0  0  0
   10.0743    0.4731   -0.2465 H   0  0  0  0  0  0  0  0  0  0  0  0
    5.4690   -2.9271   -1.3051 H   0  0  0  0  0  0  0  0  0  0  0  0
    7.5042   -5.0620    0.5977 H   0  0  0  0  0  0  0  0  0  0  0  0
    8.0617   -5.2898   -1.0767 H   0  0  0  0  0  0  0  0  0  0  0  0
    7.5098   -7.3178   -0.0130 H   0  0  0  0  0  0  0  0  0  0  0  0
    6.6874   -9.6162    0.0251 H   0  0  0  0  0  0  0  0  0  0  0  0
    2.1818  -10.1367   -0.2425 H   0  0  0  0  0  0  0  0  0  0  0  0
    0.2588  -10.8015   -0.2186 H   0  0  0  0  0  0  0  0  0  0  0  0
   -2.0117  -11.6565    0.1869 H   0  0  0  0  0  0  0  0  0  0  0  0
   -2.4178  -14.1096    0.3906 H   0  0  0  0  0  0  0  0  0  0  0  0
   -0.5058  -15.7017    0.1786 H   0  0  0  0  0  0  0  0  0  0  0  0
    1.8027  -14.8257   -0.2334 H   0  0  0  0  0  0  0  0  0  0  0  0
    2.8729   -8.3053   -1.5280 H   0  0  0  0  0  0  0  0  0  0  0  0
    3.7013   -5.9640   -1.5361 H   0  0  0  0  0  0  0  0  0  0  0  0
    9.8096   -4.4617    0.3261 H   0  0  0  0  0  0  0  0  0  0  0  0
  1  2  1  0
  1 35  1  0
  1 36  1  0
  1 37  1  0
  2  3  2  0
  2 34  1  0
  3  4  1  0
  3 38  1  0
  4  5  2  0
  4 39  1  0
  5  6  1  0
  5 33  1  0
  6  7  1  0
  7  8  2  0
  7  9  1  0
  9 10  2  0
  9 40  1  0
 10 11  1  0
 10 33  1  0
 11 12  1  0
 11 41  1  0
 11 42  1  0
 12 13  1  0
 13 14  2  0
 13 32  1  0
 14 15  1  0
 14 43  1  0
 15 16  2  0
 15 44  1  0
 16 17  1  0
 16 31  1  0
 17 18  2  0
 17 29  1  0
 18 19  1  0
 18 45  1  0
 19 20  1  0
 19 26  2  0
 20 21  2  0
 20 25  1  0
 21 22  1  0
 21 46  1  0
 22 23  2  0
 22 47  1  0
 23 24  1  0
 23 48  1  0
 24 25  2  0
 24 49  1  0
 25 50  1  0
 26 27  1  0
 27 28  2  0
 27 29  1  0
 29 30  1  0
 31 32  2  0
 31 51  1  0
 32 52  1  0
 33 34  2  0
 34 53  1  0
M  END

