
     RDKit          3D

 37 38  0  0  0  0  0  0  0  0999 V2000
    4.8853    2.8176   -0.4163 C   0  0  0  0  0  0  0  0  0  0  0  0
    4.4191    1.4677    0.0687 C   0  0  0  0  0  0  0  0  0  0  0  0
    3.3750    1.3338    0.9970 C   0  0  0  0  0  0  0  0  0  0  0  0
    2.9916    0.0524    1.3978 C   0  0  0  0  0  0  0  0  0  0  0  0
    3.6566   -1.0521    0.8680 C   0  0  0  0  0  0  0  0  0  0  0  0
    4.6891   -0.8288   -0.0554 C   0  0  0  0  0  0  0  0  0  0  0  0
    5.5033   -1.9722   -0.6456 C   0  0  0  0  0  0  0  0  0  0  0  0
    4.7996   -3.2455   -0.6694 N   0  0  0  0  0  0  0  0  0  0  0  0
    3.8062   -3.3614   -1.7254 C   0  0  0  0  0  0  0  0  0  0  0  0
    5.5849   -4.4289   -0.4303 C   0  0  0  0  0  0  0  0  0  0  0  0
    6.5630   -4.8317   -1.5578 C   0  0  0  0  0  0  0  0  0  0  0  0
    6.7633   -4.0762   -2.4835 O   0  0  0  0  0  0  0  0  0  0  0  0
    7.2392   -6.1784   -1.4597 C   0  0  0  0  0  0  0  0  0  0  0  0
    7.4162   -6.7661   -0.1897 C   0  0  0  0  0  0  0  0  0  0  0  0
    8.0671   -7.9865   -0.0216 C   0  0  0  0  0  0  0  0  0  0  0  0
    8.5462   -8.6684   -1.1421 C   0  0  0  0  0  0  0  0  0  0  0  0
    8.3720   -8.1238   -2.4149 C   0  0  0  0  0  0  0  0  0  0  0  0
    7.7324   -6.8893   -2.5777 C   0  0  0  0  0  0  0  0  0  0  0  0
    7.5355   -6.2867   -4.3756 Br  0  0  0  0  0  0  0  0  0  0  0  0
    5.0498    0.3998   -0.4397 N   0  0  0  0  0  0  0  0  0  0  0  0
    4.3384    3.6420    0.0636 H   0  0  0  0  0  0  0  0  0  0  0  0
    4.7548    2.8954   -1.5079 H   0  0  0  0  0  0  0  0  0  0  0  0
    5.9618    2.9421   -0.2178 H   0  0  0  0  0  0  0  0  0  0  0  0
    2.8725    2.2194    1.3931 H   0  0  0  0  0  0  0  0  0  0  0  0
    2.1801   -0.0813    2.1188 H   0  0  0  0  0  0  0  0  0  0  0  0
    3.3978   -2.0753    1.1444 H   0  0  0  0  0  0  0  0  0  0  0  0
    6.4094   -2.0850   -0.0242 H   0  0  0  0  0  0  0  0  0  0  0  0
    5.8651   -1.6516   -1.6398 H   0  0  0  0  0  0  0  0  0  0  0  0
    3.1112   -2.5084   -1.6735 H   0  0  0  0  0  0  0  0  0  0  0  0
    3.2116   -4.2786   -1.5809 H   0  0  0  0  0  0  0  0  0  0  0  0
    4.2428   -3.3853   -2.7433 H   0  0  0  0  0  0  0  0  0  0  0  0
    4.9132   -5.2845   -0.2330 H   0  0  0  0  0  0  0  0  0  0  0  0
    6.1707   -4.2902    0.4964 H   0  0  0  0  0  0  0  0  0  0  0  0
    7.0509   -6.2436    0.6952 H   0  0  0  0  0  0  0  0  0  0  0  0
    8.1978   -8.4027    0.9798 H   0  0  0  0  0  0  0  0  0  0  0  0
    9.0548   -9.6294   -1.0318 H   0  0  0  0  0  0  0  0  0  0  0  0
    8.7330   -8.6556   -3.2967 H   0  0  0  0  0  0  0  0  0  0  0  0
  1  2  1  0
  1 21  1  0
  1 22  1  0
  1 23  1  0
  2  3  2  0
  2 20  1  0
  3  4  1  0
  3 24  1  0
  4  5  2  0
  4 25  1  0
  5  6  1  0
  5 26  1  0
  6  7  1  0
  6 20  2  0
  7  8  1  0
  7 27  1  0
  7 28  1  0
  8  9  1  0
  8 10  1  0
  9 29  1  0
  9 30  1  0
  9 31  1  0
 10 11  1  0
 10 32  1  0
 10 33  1  0
 11 12  2  0
 11 13  1  0
 13 14  2  0
 13 18  1  0
 14 15  1  0
 14 34  1  0
 15 16  2  0
 15 35  1  0
 16 17  1  0
 16 36  1  0
 17 18  2  0
 17 37  1  0
 18 19  1  0
M  END

