
     RDKit          3D

 74 78  0  0  0  0  0  0  0  0999 V2000
    4.4682   -1.0094    1.3474 C   0  0  0  0  0  0  0  0  0  0  0  0
    5.2015    0.3305    1.4473 C   0  0  1  0  0  0  0  0  0  0  0  0
    4.5255    1.3088    2.4122 C   0  0  0  0  0  0  0  0  0  0  0  0
    6.6712    0.1264    1.8154 C   0  0  0  0  0  0  0  0  0  0  0  0
    5.2924    0.9516    0.1129 O   0  0  0  0  0  0  0  0  0  0  0  0
    4.2386    1.3983   -0.5369 C   0  0  0  0  0  0  0  0  0  0  0  0
    3.0798    1.1862   -0.2503 O   0  0  0  0  0  0  0  0  0  0  0  0
    4.6590    2.1811   -1.6562 N   0  0  0  0  0  0  0  0  0  0  0  0
    3.7740    2.6963   -2.5663 C   0  0  0  0  0  0  0  0  0  0  0  0
    2.3471    2.6417   -2.4404 C   0  0  0  0  0  0  0  0  0  0  0  0
    1.5221    3.1806   -3.3995 C   0  0  0  0  0  0  0  0  0  0  0  0
    2.0321    3.8202   -4.5718 C   0  0  0  0  0  0  0  0  0  0  0  0
    1.2030    4.3422   -5.5257 N   0  0  0  0  0  0  0  0  0  0  0  0
    1.6456    5.2156   -6.6154 C   0  0  0  0  0  0  0  0  0  0  0  0
    1.1316    4.6964   -7.9615 C   0  0  0  0  0  0  0  0  0  0  0  0
   -0.2700    4.5564   -7.9454 O   0  0  0  0  0  0  0  0  0  0  0  0
   -0.6915    3.6692   -6.9378 C   0  0  0  0  0  0  0  0  0  0  0  0
   -0.2478    4.1416   -5.5467 C   0  0  0  0  0  0  0  0  0  0  0  0
    3.4564    3.8816   -4.6908 C   0  0  0  0  0  0  0  0  0  0  0  0
    4.2848    3.3459   -3.7378 C   0  0  0  0  0  0  0  0  0  0  0  0
    6.0785    2.4941   -1.7846 C   0  0  0  0  0  0  0  0  0  0  0  0
    6.8142    1.7834   -2.6566 N   0  0  0  0  0  0  0  0  0  0  0  0
    8.1096    2.0713   -2.7421 C   0  0  0  0  0  0  0  0  0  0  0  0
    8.7981    3.0542   -1.9873 C   0  0  0  0  0  0  0  0  0  0  0  0
   10.2798    3.3290   -2.1517 B   0  0  0  0  0  0  0  0  0  0  0  0
   11.0727    2.6988   -3.1074 O   0  0  0  0  0  0  0  0  0  0  0  0
   12.4473    2.9927   -2.8147 C   0  0  2  0  0  0  0  0  0  0  0  0
   13.2179    3.0970   -4.1300 C   0  0  0  0  0  0  0  0  0  0  0  0
   13.0013    1.8288   -1.9792 C   0  0  0  0  0  0  0  0  0  0  0  0
   12.3346    4.3421   -1.9934 C   0  0  2  0  0  0  0  0  0  0  0  0
   12.3083    5.5888   -2.8896 C   0  0  0  0  0  0  0  0  0  0  0  0
   13.3761    4.5175   -0.8896 C   0  0  0  0  0  0  0  0  0  0  0  0
   11.0348    4.2197   -1.3893 O   0  0  0  0  0  0  0  0  0  0  0  0
    7.9759    3.7541   -1.0586 N   0  0  0  0  0  0  0  0  0  0  0  0
    8.2685    4.7297   -0.1306 C   0  0  0  0  0  0  0  0  0  0  0  0
    7.0723    5.0092    0.5040 C   0  0  0  0  0  0  0  0  0  0  0  0
    6.0480    4.2441    0.0079 N   0  0  0  0  0  0  0  0  0  0  0  0
    6.6146    3.4942   -0.9382 C   0  0  0  0  0  0  0  0  0  0  0  0
    4.4958   -1.5144    2.3257 H   0  0  0  0  0  0  0  0  0  0  0  0
    4.9618   -1.6638    0.6121 H   0  0  0  0  0  0  0  0  0  0  0  0
    3.4200   -0.8707    1.0535 H   0  0  0  0  0  0  0  0  0  0  0  0
    4.6421    0.9441    3.4446 H   0  0  0  0  0  0  0  0  0  0  0  0
    3.4538    1.4120    2.1972 H   0  0  0  0  0  0  0  0  0  0  0  0
    4.9976    2.2997    2.3308 H   0  0  0  0  0  0  0  0  0  0  0  0
    6.7478   -0.3662    2.7966 H   0  0  0  0  0  0  0  0  0  0  0  0
    7.1958    1.0916    1.8609 H   0  0  0  0  0  0  0  0  0  0  0  0
    7.1725   -0.5025    1.0648 H   0  0  0  0  0  0  0  0  0  0  0  0
    1.9206    2.1837   -1.5547 H   0  0  0  0  0  0  0  0  0  0  0  0
    0.4500    3.1415   -3.2152 H   0  0  0  0  0  0  0  0  0  0  0  0
    2.7351    5.3063   -6.6312 H   0  0  0  0  0  0  0  0  0  0  0  0
    1.2275    6.2223   -6.4358 H   0  0  0  0  0  0  0  0  0  0  0  0
    1.6208    3.7295   -8.1965 H   0  0  0  0  0  0  0  0  0  0  0  0
    1.3821    5.4138   -8.7562 H   0  0  0  0  0  0  0  0  0  0  0  0
   -0.2931    2.6505   -7.1202 H   0  0  0  0  0  0  0  0  0  0  0  0
   -1.7895    3.6231   -6.9767 H   0  0  0  0  0  0  0  0  0  0  0  0
   -0.5479    3.3982   -4.8023 H   0  0  0  0  0  0  0  0  0  0  0  0
   -0.7460    5.0975   -5.3056 H   0  0  0  0  0  0  0  0  0  0  0  0
    3.9226    4.3281   -5.5667 H   0  0  0  0  0  0  0  0  0  0  0  0
    5.3592    3.3718   -3.8873 H   0  0  0  0  0  0  0  0  0  0  0  0
    8.6970    1.4970   -3.4657 H   0  0  0  0  0  0  0  0  0  0  0  0
   13.2201    2.1174   -4.6322 H   0  0  0  0  0  0  0  0  0  0  0  0
   14.2650    3.3935   -3.9576 H   0  0  0  0  0  0  0  0  0  0  0  0
   12.7544    3.8204   -4.8136 H   0  0  0  0  0  0  0  0  0  0  0  0
   12.8500    0.8921   -2.5364 H   0  0  0  0  0  0  0  0  0  0  0  0
   12.4689    1.7387   -1.0208 H   0  0  0  0  0  0  0  0  0  0  0  0
   14.0769    1.9408   -1.7733 H   0  0  0  0  0  0  0  0  0  0  0  0
   13.2934    5.8013   -3.3325 H   0  0  0  0  0  0  0  0  0  0  0  0
   12.0079    6.4554   -2.2813 H   0  0  0  0  0  0  0  0  0  0  0  0
   11.5753    5.4774   -3.7023 H   0  0  0  0  0  0  0  0  0  0  0  0
   14.3967    4.5312   -1.3046 H   0  0  0  0  0  0  0  0  0  0  0  0
   13.3106    3.7166   -0.1417 H   0  0  0  0  0  0  0  0  0  0  0  0
   13.2075    5.4738   -0.3707 H   0  0  0  0  0  0  0  0  0  0  0  0
    9.2764    5.1143   -0.0156 H   0  0  0  0  0  0  0  0  0  0  0  0
    6.9078    5.7326    1.3027 H   0  0  0  0  0  0  0  0  0  0  0  0
  1  2  1  0
  1 39  1  0
  1 40  1  0
  1 41  1  0
  2  3  1  0
  2  4  1  0
  2  5  1  6
  3 42  1  0
  3 43  1  0
  3 44  1  0
  4 45  1  0
  4 46  1  0
  4 47  1  0
  5  6  1  0
  6  7  2  0
  6  8  1  0
  8  9  1  0
  8 21  1  0
  9 10  2  0
  9 20  1  0
 10 11  1  0
 10 48  1  0
 11 12  2  0
 11 49  1  0
 12 13  1  0
 12 19  1  0
 13 14  1  0
 13 18  1  0
 14 15  1  0
 14 50  1  0
 14 51  1  0
 15 16  1  0
 15 52  1  0
 15 53  1  0
 16 17  1  0
 17 18  1  0
 17 54  1  0
 17 55  1  0
 18 56  1  0
 18 57  1  0
 19 20  2  0
 19 58  1  0
 20 59  1  0
 21 22  2  0
 21 38  1  0
 22 23  1  0
 23 24  2  0
 23 60  1  0
 24 25  1  0
 24 34  1  0
 25 26  1  0
 25 33  1  0
 26 27  1  0
 27 28  1  6
 27 29  1  0
 27 30  1  0
 28 61  1  0
 28 62  1  0
 28 63  1  0
 29 64  1  0
 29 65  1  0
 29 66  1  0
 30 31  1  6
 30 32  1  0
 30 33  1  0
 31 67  1  0
 31 68  1  0
 31 69  1  0
 32 70  1  0
 32 71  1  0
 32 72  1  0
 34 35  1  0
 34 38  1  0
 35 36  2  0
 35 73  1  0
 36 37  1  0
 36 74  1  0
 37 38  2  0
M  END

