
     RDKit          3D

 43 45  0  0  0  0  0  0  0  0999 V2000
    1.9206    0.2346   -0.3885 O   0  0  0  0  0  0  0  0  0  0  0  0
    1.8742   -0.8954    0.2336 C   0  0  0  0  0  0  0  0  0  0  0  0
    2.2746   -2.1457   -0.5585 C   0  0  0  0  0  0  0  0  0  0  0  0
    1.5920   -2.1694   -1.9231 C   0  0  0  0  0  0  0  0  0  0  0  0
    1.8875   -1.0246   -2.7929 N   0  0  0  0  0  0  0  0  0  0  0  0
    0.8071   -0.1105   -3.1317 C   0  0  0  0  0  0  0  0  0  0  0  0
    1.0354    0.7596   -4.3735 C   0  0  0  0  0  0  0  0  0  0  0  0
    2.4573    1.3039   -4.3604 C   0  0  2  0  0  0  0  0  0  0  0  0
    2.8998    1.9950   -5.5572 N   0  0  0  0  0  0  0  0  0  0  0  0
    4.3759    1.9376   -5.6027 C   0  0  0  0  0  0  0  0  0  0  0  0
    4.7764    0.8245   -4.5939 C   0  0  0  0  0  0  0  0  0  0  0  0
    3.4393    0.1345   -4.3047 C   0  0  1  0  0  0  0  0  0  0  0  0
    3.2841   -0.6428   -3.0082 C   0  0  0  0  0  0  0  0  0  0  0  0
    2.2807   -1.0118    1.5989 N   0  0  0  0  0  0  0  0  0  0  0  0
    2.5231   -0.0370    2.5405 C   0  0  0  0  0  0  0  0  0  0  0  0
    2.6892    1.3386    2.2225 C   0  0  0  0  0  0  0  0  0  0  0  0
    2.9499    2.2591    3.2315 C   0  0  0  0  0  0  0  0  0  0  0  0
    3.0608    1.8866    4.5804 C   0  0  0  0  0  0  0  0  0  0  0  0
    2.8867    0.5321    4.8837 C   0  0  0  0  0  0  0  0  0  0  0  0
    3.0074    0.0065    6.5624 Cl  0  0  0  0  0  0  0  0  0  0  0  0
    2.6178   -0.4187    3.9074 C   0  0  0  0  0  0  0  0  0  0  0  0
    1.9658   -3.0796   -0.0562 H   0  0  0  0  0  0  0  0  0  0  0  0
    3.3786   -2.2398   -0.6770 H   0  0  0  0  0  0  0  0  0  0  0  0
    0.5025   -2.2056   -1.7983 H   0  0  0  0  0  0  0  0  0  0  0  0
    1.8980   -3.0592   -2.5047 H   0  0  0  0  0  0  0  0  0  0  0  0
    0.7318    0.4926   -2.2040 H   0  0  0  0  0  0  0  0  0  0  0  0
   -0.1174   -0.7005   -3.2080 H   0  0  0  0  0  0  0  0  0  0  0  0
    0.2814    1.5622   -4.3609 H   0  0  0  0  0  0  0  0  0  0  0  0
    0.8808    0.1826   -5.3003 H   0  0  0  0  0  0  0  0  0  0  0  0
    2.5862    1.9058   -3.4313 H   0  0  0  0  0  0  0  0  0  0  0  0
    2.5381    2.9417   -5.6348 H   0  0  0  0  0  0  0  0  0  0  0  0
    4.8507    2.8961   -5.3244 H   0  0  0  0  0  0  0  0  0  0  0  0
    4.7168    1.6979   -6.6245 H   0  0  0  0  0  0  0  0  0  0  0  0
    5.1793    1.2655   -3.6678 H   0  0  0  0  0  0  0  0  0  0  0  0
    5.5408    0.1430   -4.9953 H   0  0  0  0  0  0  0  0  0  0  0  0
    3.1958   -0.5298   -5.1536 H   0  0  0  0  0  0  0  0  0  0  0  0
    3.5428   -0.0346   -2.1278 H   0  0  0  0  0  0  0  0  0  0  0  0
    3.8913   -1.5593   -2.9793 H   0  0  0  0  0  0  0  0  0  0  0  0
    2.1257   -1.9307    1.9971 H   0  0  0  0  0  0  0  0  0  0  0  0
    2.5892    1.6367    1.1814 H   0  0  0  0  0  0  0  0  0  0  0  0
    3.0720    3.3130    2.9634 H   0  0  0  0  0  0  0  0  0  0  0  0
    3.2690    2.6116    5.3668 H   0  0  0  0  0  0  0  0  0  0  0  0
    2.4853   -1.4636    4.1983 H   0  0  0  0  0  0  0  0  0  0  0  0
  1  2  2  0
  2  3  1  0
  2 14  1  0
  3  4  1  0
  3 22  1  0
  3 23  1  0
  4  5  1  0
  4 24  1  0
  4 25  1  0
  5  6  1  0
  5 13  1  0
  6  7  1  0
  6 26  1  0
  6 27  1  0
  7  8  1  0
  7 28  1  0
  7 29  1  0
  8  9  1  0
  8 12  1  0
  8 30  1  6
  9 10  1  0
  9 31  1  0
 10 11  1  0
 10 32  1  0
 10 33  1  0
 11 12  1  0
 11 34  1  0
 11 35  1  0
 12 13  1  0
 12 36  1  1
 13 37  1  0
 13 38  1  0
 14 15  1  0
 14 39  1  0
 15 16  2  0
 15 21  1  0
 16 17  1  0
 16 40  1  0
 17 18  2  0
 17 41  1  0
 18 19  1  0
 18 42  1  0
 19 20  1  0
 19 21  2  0
 21 43  1  0
M  END

