
     RDKit          3D

 43 45  0  0  0  0  0  0  0  0999 V2000
    1.4538   -0.4804   -0.6529 C   0  0  0  0  0  0  0  0  0  0  0  0
    2.2222    0.4895    0.2295 C   0  0  0  0  0  0  0  0  0  0  0  0
    2.7517    1.5950   -0.5246 O   0  0  0  0  0  0  0  0  0  0  0  0
    3.9410    1.4179   -1.1345 C   0  0  0  0  0  0  0  0  0  0  0  0
    4.5780    0.3910   -1.0728 O   0  0  0  0  0  0  0  0  0  0  0  0
    4.3781    2.6327   -1.8855 C   0  0  0  0  0  0  0  0  0  0  0  0
    3.6038    3.8154   -1.9304 C   0  0  0  0  0  0  0  0  0  0  0  0
    4.0431    4.9226   -2.6377 C   0  0  0  0  0  0  0  0  0  0  0  0
    5.2761    4.8916   -3.3290 C   0  0  0  0  0  0  0  0  0  0  0  0
    5.6753    6.0128   -4.0299 N   0  0  0  0  0  0  0  0  0  0  0  0
    6.8095    5.9750   -4.6601 C   0  0  0  0  0  0  0  0  0  0  0  0
    7.2585    7.1101   -5.5081 C   0  0  0  0  0  0  0  0  0  0  0  0
    7.7331    6.8048   -6.8055 C   0  0  0  0  0  0  0  0  0  0  0  0
    8.0515    7.7778   -7.7516 C   0  0  0  0  0  0  0  0  0  0  0  0
    8.5333    7.4144   -9.1347 C   0  0  0  0  0  0  0  0  0  0  0  0
    7.8869    9.1226   -7.3703 C   0  0  0  0  0  0  0  0  0  0  0  0
    7.4510    9.4568   -6.0964 C   0  0  0  0  0  0  0  0  0  0  0  0
    7.1427    8.4718   -5.1386 C   0  0  0  0  0  0  0  0  0  0  0  0
    6.7636    8.9562   -3.9345 O   0  0  0  0  0  0  0  0  0  0  0  0
    7.1121    8.3280   -2.7129 C   0  0  0  0  0  0  0  0  0  0  0  0
    7.6281    4.8641   -4.6418 N   0  0  0  0  0  0  0  0  0  0  0  0
    8.5289    4.8962   -5.1115 H   0  0  0  0  0  0  0  0  0  0  0  0
    7.3413    3.6585   -3.9840 C   0  0  0  0  0  0  0  0  0  0  0  0
    8.1216    2.7274   -4.0209 O   0  0  0  0  0  0  0  0  0  0  0  0
    6.0489    3.6998   -3.2803 C   0  0  0  0  0  0  0  0  0  0  0  0
    5.5968    2.5853   -2.5622 C   0  0  0  0  0  0  0  0  0  0  0  0
    0.9992   -1.2695   -0.0325 H   0  0  0  0  0  0  0  0  0  0  0  0
    2.1242   -0.9615   -1.3801 H   0  0  0  0  0  0  0  0  0  0  0  0
    0.6481    0.0354   -1.1983 H   0  0  0  0  0  0  0  0  0  0  0  0
    3.0508   -0.0196    0.7436 H   0  0  0  0  0  0  0  0  0  0  0  0
    1.5648    0.9540    0.9788 H   0  0  0  0  0  0  0  0  0  0  0  0
    2.6513    3.8434   -1.4000 H   0  0  0  0  0  0  0  0  0  0  0  0
    3.4527    5.8394   -2.6860 H   0  0  0  0  0  0  0  0  0  0  0  0
    7.8006    5.7534   -7.0989 H   0  0  0  0  0  0  0  0  0  0  0  0
    8.5755    6.3244   -9.2763 H   0  0  0  0  0  0  0  0  0  0  0  0
    9.5426    7.8164   -9.3264 H   0  0  0  0  0  0  0  0  0  0  0  0
    7.8704    7.8281   -9.9129 H   0  0  0  0  0  0  0  0  0  0  0  0
    8.1185    9.9201   -8.0824 H   0  0  0  0  0  0  0  0  0  0  0  0
    7.3499   10.4993   -5.7880 H   0  0  0  0  0  0  0  0  0  0  0  0
    7.2585    9.1319   -1.9760 H   0  0  0  0  0  0  0  0  0  0  0  0
    8.0521    7.7571   -2.8055 H   0  0  0  0  0  0  0  0  0  0  0  0
    6.3147    7.6542   -2.3700 H   0  0  0  0  0  0  0  0  0  0  0  0
    6.2051    1.6796   -2.5341 H   0  0  0  0  0  0  0  0  0  0  0  0
  1  2  1  0
  1 27  1  0
  1 28  1  0
  1 29  1  0
  2  3  1  0
  2 30  1  0
  2 31  1  0
  3  4  1  0
  4  5  2  0
  4  6  1  0
  6  7  2  0
  6 26  1  0
  7  8  1  0
  7 32  1  0
  8  9  2  0
  8 33  1  0
  9 10  1  0
  9 25  1  0
 10 11  2  0
 11 12  1  0
 11 21  1  0
 12 13  2  0
 12 18  1  0
 13 14  1  0
 13 34  1  0
 14 15  1  0
 14 16  2  0
 15 35  1  0
 15 36  1  0
 15 37  1  0
 16 17  1  0
 16 38  1  0
 17 18  2  0
 17 39  1  0
 18 19  1  0
 19 20  1  0
 20 40  1  0
 20 41  1  0
 20 42  1  0
 21 22  1  0
 21 23  1  0
 23 24  2  0
 23 25  1  0
 25 26  2  0
 26 43  1  0
M  END

