
     RDKit          3D

 35 36  0  0  0  0  0  0  0  0999 V2000
    3.5348   -2.7111   -2.7765 C   0  0  0  0  0  0  0  0  0  0  0  0
    2.6862   -2.0679   -1.6769 C   0  0  0  0  0  0  0  0  0  0  0  0
    2.9598   -0.5684   -1.4255 C   0  0  1  0  0  0  0  0  0  0  0  0
    2.5525    0.3441   -2.6133 C   0  0  0  0  0  0  0  0  0  0  0  0
    1.0633    0.4416   -2.8817 C   0  0  0  0  0  0  0  0  0  0  0  0
    0.2704    1.3491   -2.1291 C   0  0  0  0  0  0  0  0  0  0  0  0
   -1.1045    1.4794   -2.3195 C   0  0  0  0  0  0  0  0  0  0  0  0
   -1.6903    0.6694   -3.2990 C   0  0  0  0  0  0  0  0  0  0  0  0
   -0.9282   -0.2451   -4.0706 C   0  0  0  0  0  0  0  0  0  0  0  0
    0.4546   -0.3544   -3.8580 C   0  0  0  0  0  0  0  0  0  0  0  0
   -1.7487   -0.9088   -4.9672 N   0  0  0  0  0  0  0  0  0  0  0  0
   -2.9407   -0.4225   -4.7496 C   0  0  0  0  0  0  0  0  0  0  0  0
   -2.9896    0.5351   -3.7580 N   0  0  0  0  0  0  0  0  0  0  0  0
   -4.1503    1.2603   -3.2951 C   0  0  0  0  0  0  0  0  0  0  0  0
    2.3619   -0.0617   -0.1905 N   0  0  0  0  0  0  0  0  0  0  0  0
    2.9960   -0.4647    1.0494 C   0  0  0  0  0  0  0  0  0  0  0  0
    3.3342   -3.7918   -2.8518 H   0  0  0  0  0  0  0  0  0  0  0  0
    4.6127   -2.5887   -2.5746 H   0  0  0  0  0  0  0  0  0  0  0  0
    3.3349   -2.2747   -3.7682 H   0  0  0  0  0  0  0  0  0  0  0  0
    2.8656   -2.6096   -0.7325 H   0  0  0  0  0  0  0  0  0  0  0  0
    1.6136   -2.2018   -1.9055 H   0  0  0  0  0  0  0  0  0  0  0  0
    4.0535   -0.4463   -1.3097 H   0  0  0  0  0  0  0  0  0  0  0  0
    3.0640   -0.0071   -3.5232 H   0  0  0  0  0  0  0  0  0  0  0  0
    2.9470    1.3484   -2.3939 H   0  0  0  0  0  0  0  0  0  0  0  0
    0.7656    1.9620   -1.3727 H   0  0  0  0  0  0  0  0  0  0  0  0
   -1.6871    2.1913   -1.7300 H   0  0  0  0  0  0  0  0  0  0  0  0
    1.0372   -1.0514   -4.4649 H   0  0  0  0  0  0  0  0  0  0  0  0
   -3.8492   -0.7174   -5.2799 H   0  0  0  0  0  0  0  0  0  0  0  0
   -5.0355    0.9208   -3.8505 H   0  0  0  0  0  0  0  0  0  0  0  0
   -4.0323    2.3448   -3.4562 H   0  0  0  0  0  0  0  0  0  0  0  0
   -4.3255    1.0854   -2.2207 H   0  0  0  0  0  0  0  0  0  0  0  0
    1.3656   -0.2753   -0.1726 H   0  0  0  0  0  0  0  0  0  0  0  0
    4.0255   -0.0689    1.0910 H   0  0  0  0  0  0  0  0  0  0  0  0
    3.0626   -1.5616    1.2226 H   0  0  0  0  0  0  0  0  0  0  0  0
    2.4483   -0.0317    1.9019 H   0  0  0  0  0  0  0  0  0  0  0  0
  1  2  1  0
  1 17  1  0
  1 18  1  0
  1 19  1  0
  2  3  1  0
  2 20  1  0
  2 21  1  0
  3  4  1  0
  3 15  1  0
  3 22  1  1
  4  5  1  0
  4 23  1  0
  4 24  1  0
  5  6  2  0
  5 10  1  0
  6  7  1  0
  6 25  1  0
  7  8  2  0
  7 26  1  0
  8  9  1  0
  8 13  1  0
  9 10  2  0
  9 11  1  0
 10 27  1  0
 11 12  2  0
 12 13  1  0
 12 28  1  0
 13 14  1  0
 14 29  1  0
 14 30  1  0
 14 31  1  0
 15 16  1  0
 15 32  1  0
 16 33  1  0
 16 34  1  0
 16 35  1  0
M  END

