
     RDKit          3D

 45 48  0  0  0  0  0  0  0  0999 V2000
    4.6165   -2.5144   -1.3730 C   0  0  0  0  0  0  0  0  0  0  0  0
    4.0854   -3.6950   -0.6259 C   0  0  0  0  0  0  0  0  0  0  0  0
    4.4221   -4.9476   -0.8593 N   0  0  0  0  0  0  0  0  0  0  0  0
    3.7395   -5.7044    0.0579 C   0  0  0  0  0  0  0  0  0  0  0  0
    2.9729   -4.8993    0.8652 C   0  0  0  0  0  0  0  0  0  0  0  0
    3.1938   -3.6051    0.4239 N   0  0  0  0  0  0  0  0  0  0  0  0
    2.5816   -2.4020    0.9638 C   0  0  0  0  0  0  0  0  0  0  0  0
    1.2769   -1.9888    0.2456 C   0  0  1  0  0  0  0  0  0  0  0  0
    0.1679   -3.0659    0.3230 C   0  0  0  0  0  0  0  0  0  0  0  0
   -1.1336   -2.2730    0.4856 C   0  0  0  0  0  0  0  0  0  0  0  0
   -0.7001   -1.1115    1.3767 C   0  0  0  0  0  0  0  0  0  0  0  0
    0.6475   -0.8084    0.8785 N   0  0  0  0  0  0  0  0  0  0  0  0
    1.2002    0.4102    1.2013 C   0  0  0  0  0  0  0  0  0  0  0  0
    0.6649    1.1386    2.0273 O   0  0  0  0  0  0  0  0  0  0  0  0
    2.4473    0.8657    0.4898 C   0  0  0  0  0  0  0  0  0  0  0  0
    3.4090    1.5722    1.2573 C   0  0  0  0  0  0  0  0  0  0  0  0
    4.5575    2.1093    0.6852 C   0  0  0  0  0  0  0  0  0  0  0  0
    4.7137    1.9472   -0.6983 C   0  0  0  0  0  0  0  0  0  0  0  0
    3.7494    1.2735   -1.4932 C   0  0  0  0  0  0  0  0  0  0  0  0
    2.6066    0.7277   -0.8923 C   0  0  0  0  0  0  0  0  0  0  0  0
    4.1440    1.2688   -2.8190 N   0  0  0  0  0  0  0  0  0  0  0  0
    5.2844    1.9042   -2.8270 C   0  0  0  0  0  0  0  0  0  0  0  0
    5.6953    2.3453   -1.5854 N   0  0  0  0  0  0  0  0  0  0  0  0
    6.9016    3.0802   -1.2722 C   0  0  0  0  0  0  0  0  0  0  0  0
    5.3449   -2.8819   -2.1068 H   0  0  0  0  0  0  0  0  0  0  0  0
    5.1246   -1.7949   -0.7087 H   0  0  0  0  0  0  0  0  0  0  0  0
    3.8352   -1.9576   -1.9149 H   0  0  0  0  0  0  0  0  0  0  0  0
    3.8390   -6.7888    0.0973 H   0  0  0  0  0  0  0  0  0  0  0  0
    2.3188   -5.1162    1.7059 H   0  0  0  0  0  0  0  0  0  0  0  0
    3.3108   -1.5827    0.9059 H   0  0  0  0  0  0  0  0  0  0  0  0
    2.3652   -2.5692    2.0305 H   0  0  0  0  0  0  0  0  0  0  0  0
    1.5166   -1.7825   -0.8099 H   0  0  0  0  0  0  0  0  0  0  0  0
    0.3242   -3.6954    1.2141 H   0  0  0  0  0  0  0  0  0  0  0  0
    0.1794   -3.7340   -0.5494 H   0  0  0  0  0  0  0  0  0  0  0  0
   -1.9482   -2.8693    0.9227 H   0  0  0  0  0  0  0  0  0  0  0  0
   -1.4807   -1.8906   -0.4886 H   0  0  0  0  0  0  0  0  0  0  0  0
   -0.6770   -1.4023    2.4440 H   0  0  0  0  0  0  0  0  0  0  0  0
   -1.3324   -0.2161    1.3054 H   0  0  0  0  0  0  0  0  0  0  0  0
    3.2179    1.6989    2.3245 H   0  0  0  0  0  0  0  0  0  0  0  0
    5.2914    2.6422    1.2937 H   0  0  0  0  0  0  0  0  0  0  0  0
    1.8553    0.2374   -1.5127 H   0  0  0  0  0  0  0  0  0  0  0  0
    5.8958    2.0923   -3.7125 H   0  0  0  0  0  0  0  0  0  0  0  0
    7.4778    3.2377   -2.1941 H   0  0  0  0  0  0  0  0  0  0  0  0
    7.5302    2.5228   -0.5588 H   0  0  0  0  0  0  0  0  0  0  0  0
    6.6640    4.0641   -0.8362 H   0  0  0  0  0  0  0  0  0  0  0  0
  1  2  1  0
  1 25  1  0
  1 26  1  0
  1 27  1  0
  2  3  2  0
  2  6  1  0
  3  4  1  0
  4  5  2  0
  4 28  1  0
  5  6  1  0
  5 29  1  0
  6  7  1  0
  7  8  1  0
  7 30  1  0
  7 31  1  0
  8  9  1  0
  8 12  1  0
  8 32  1  6
  9 10  1  0
  9 33  1  0
  9 34  1  0
 10 11  1  0
 10 35  1  0
 10 36  1  0
 11 12  1  0
 11 37  1  0
 11 38  1  0
 12 13  1  0
 13 14  2  0
 13 15  1  0
 15 16  2  0
 15 20  1  0
 16 17  1  0
 16 39  1  0
 17 18  2  0
 17 40  1  0
 18 19  1  0
 18 23  1  0
 19 20  2  0
 19 21  1  0
 20 41  1  0
 21 22  2  0
 22 23  1  0
 22 42  1  0
 23 24  1  0
 24 43  1  0
 24 44  1  0
 24 45  1  0
M  END

