
     RDKit          3D

 50 50  0  0  0  0  0  0  0  0999 V2000
    4.1819    0.1318    3.0005 C   0  0  0  0  0  0  0  0  0  0  0  0
    4.8977    0.1544    1.6504 C   0  0  0  0  0  0  0  0  0  0  0  0
    4.3807    1.2461    0.7231 C   0  0  0  0  0  0  0  0  0  0  0  0
    5.0973    1.1806   -0.4845 O   0  0  0  0  0  0  0  0  0  0  0  0
    4.8423    2.1013   -1.4705 C   0  0  0  0  0  0  0  0  0  0  0  0
    3.8699    3.0803   -1.3903 C   0  0  0  0  0  0  0  0  0  0  0  0
    3.6864    4.0154   -2.4729 C   0  0  0  0  0  0  0  0  0  0  0  0
    4.4954    3.8768   -3.6459 C   0  0  0  0  0  0  0  0  0  0  0  0
    4.1565    4.7674   -4.8207 C   0  0  0  0  0  0  0  0  0  0  0  0
    5.1979    4.9228   -5.8075 N   0  0  0  0  0  0  0  0  0  0  0  0
    5.0927    5.7284   -7.0007 C   0  0  1  0  0  0  0  0  0  0  0  0
    6.3292    6.6344   -7.1144 C   0  0  0  0  0  0  0  0  0  0  0  0
    4.9469    4.7990   -8.2223 C   0  0  0  0  0  0  0  0  0  0  0  0
    5.4640    2.8897   -3.6843 C   0  0  0  0  0  0  0  0  0  0  0  0
    6.2712    2.7585   -4.8526 O   0  0  0  0  0  0  0  0  0  0  0  0
    6.0997    1.5637   -5.6143 C   0  0  0  0  0  0  0  0  0  0  0  0
    7.3171    1.4018   -6.5250 C   0  0  1  0  0  0  0  0  0  0  0  0
    7.5684    2.6241   -7.2319 O   0  0  0  0  0  0  0  0  0  0  0  0
    8.5664    0.9272   -5.7759 C   0  0  0  0  0  0  0  0  0  0  0  0
    9.7907    0.7367   -6.6712 C   0  0  0  0  0  0  0  0  0  0  0  0
    5.6894    1.9683   -2.6201 C   0  0  0  0  0  0  0  0  0  0  0  0
    4.5759   -0.6658    3.6500 H   0  0  0  0  0  0  0  0  0  0  0  0
    3.0991   -0.0431    2.8819 H   0  0  0  0  0  0  0  0  0  0  0  0
    4.3034    1.0870    3.5388 H   0  0  0  0  0  0  0  0  0  0  0  0
    4.7857   -0.8176    1.1399 H   0  0  0  0  0  0  0  0  0  0  0  0
    5.9818    0.3036    1.7926 H   0  0  0  0  0  0  0  0  0  0  0  0
    4.5020    2.2433    1.1936 H   0  0  0  0  0  0  0  0  0  0  0  0
    3.2948    1.1117    0.5402 H   0  0  0  0  0  0  0  0  0  0  0  0
    3.2175    3.1514   -0.5196 H   0  0  0  0  0  0  0  0  0  0  0  0
    2.9961    4.8528   -2.3632 H   0  0  0  0  0  0  0  0  0  0  0  0
    3.8637    5.7831   -4.4986 H   0  0  0  0  0  0  0  0  0  0  0  0
    3.2765    4.4054   -5.3975 H   0  0  0  0  0  0  0  0  0  0  0  0
    5.9423    4.1965   -5.7122 H   0  0  0  0  0  0  0  0  0  0  0  0
    4.1905    6.3516   -6.8964 H   0  0  0  0  0  0  0  0  0  0  0  0
    7.2468    6.0360   -7.2219 H   0  0  0  0  0  0  0  0  0  0  0  0
    6.4328    7.2855   -6.2343 H   0  0  0  0  0  0  0  0  0  0  0  0
    6.2289    7.2690   -8.0061 H   0  0  0  0  0  0  0  0  0  0  0  0
    5.8056    4.1136   -8.2903 H   0  0  0  0  0  0  0  0  0  0  0  0
    4.8983    5.4136   -9.1324 H   0  0  0  0  0  0  0  0  0  0  0  0
    4.0249    4.2027   -8.1569 H   0  0  0  0  0  0  0  0  0  0  0  0
    5.1746    1.6321   -6.2198 H   0  0  0  0  0  0  0  0  0  0  0  0
    5.9887    0.7047   -4.9341 H   0  0  0  0  0  0  0  0  0  0  0  0
    7.0617    0.6624   -7.3040 H   0  0  0  0  0  0  0  0  0  0  0  0
    8.0132    3.2084   -6.6013 H   0  0  0  0  0  0  0  0  0  0  0  0
    8.3207   -0.0189   -5.2647 H   0  0  0  0  0  0  0  0  0  0  0  0
    8.7805    1.6528   -4.9699 H   0  0  0  0  0  0  0  0  0  0  0  0
    9.6067   -0.0317   -7.4408 H   0  0  0  0  0  0  0  0  0  0  0  0
   10.6668    0.4196   -6.0846 H   0  0  0  0  0  0  0  0  0  0  0  0
   10.0521    1.6677   -7.1973 H   0  0  0  0  0  0  0  0  0  0  0  0
    6.6159    1.3973   -2.5464 H   0  0  0  0  0  0  0  0  0  0  0  0
  1  2  1  0
  1 22  1  0
  1 23  1  0
  1 24  1  0
  2  3  1  0
  2 25  1  0
  2 26  1  0
  3  4  1  0
  3 27  1  0
  3 28  1  0
  4  5  1  0
  5  6  2  0
  5 21  1  0
  6  7  1  0
  6 29  1  0
  7  8  2  0
  7 30  1  0
  8  9  1  0
  8 14  1  0
  9 10  1  0
  9 31  1  0
  9 32  1  0
 10 11  1  0
 10 33  1  0
 11 12  1  0
 11 13  1  0
 11 34  1  1
 12 35  1  0
 12 36  1  0
 12 37  1  0
 13 38  1  0
 13 39  1  0
 13 40  1  0
 14 15  1  0
 14 21  2  0
 15 16  1  0
 16 17  1  0
 16 41  1  0
 16 42  1  0
 17 18  1  0
 17 19  1  0
 17 43  1  6
 18 44  1  0
 19 20  1  0
 19 45  1  0
 19 46  1  0
 20 47  1  0
 20 48  1  0
 20 49  1  0
 21 50  1  0
M  END

