
     RDKit          3D

 37 37  0  0  0  0  0  0  0  0999 V2000
    1.1092    0.4978   -0.4906 C   0  0  0  0  0  0  0  0  0  0  0  0
    2.5492    0.3574   -0.4316 N   0  0  0  0  0  0  0  0  0  0  0  0
    3.1736   -0.6435   -1.2799 C   0  0  0  0  0  0  0  0  0  0  0  0
    3.2686   -2.0495   -0.6647 C   0  0  0  0  0  0  0  0  0  0  0  0
    3.9403   -3.0630   -1.5949 C   0  0  0  0  0  0  0  0  0  0  0  0
    4.0251   -4.4741   -1.0078 C   0  0  0  0  0  0  0  0  0  0  0  0
    4.7130   -5.4819   -1.9283 C   0  0  0  0  0  0  0  0  0  0  0  0
    4.7169   -6.7946   -1.4087 O   0  0  0  0  0  0  0  0  0  0  0  0
    3.2590    1.0070    0.5699 C   0  0  0  0  0  0  0  0  0  0  0  0
    2.6243    1.8959    1.4826 C   0  0  0  0  0  0  0  0  0  0  0  0
    3.3437    2.5794    2.4357 C   0  0  0  0  0  0  0  0  0  0  0  0
    4.7706    2.4662    2.6211 C   0  0  0  0  0  0  0  0  0  0  0  0
    5.3836    3.2499    3.6211 C   0  0  0  0  0  0  0  0  0  0  0  0
    6.7240    3.4101    3.8131 N   0  0  0  0  0  0  0  0  0  0  0  0
    4.4280    4.2426    4.7539 S   0  0  0  0  0  0  0  0  0  0  0  0
    5.3749    1.5242    1.7055 C   0  0  0  0  0  0  0  0  0  0  0  0
    7.2436    1.0263    1.7836 Br  0  0  0  0  0  0  0  0  0  0  0  0
    4.6579    0.8390    0.7396 C   0  0  0  0  0  0  0  0  0  0  0  0
    0.7279   -0.0532   -1.3608 H   0  0  0  0  0  0  0  0  0  0  0  0
    0.8069    1.5536   -0.6077 H   0  0  0  0  0  0  0  0  0  0  0  0
    0.5975    0.1037    0.4091 H   0  0  0  0  0  0  0  0  0  0  0  0
    4.1781   -0.2974   -1.5753 H   0  0  0  0  0  0  0  0  0  0  0  0
    2.5965   -0.6962   -2.2182 H   0  0  0  0  0  0  0  0  0  0  0  0
    2.2524   -2.3976   -0.4070 H   0  0  0  0  0  0  0  0  0  0  0  0
    3.8220   -1.9920    0.2885 H   0  0  0  0  0  0  0  0  0  0  0  0
    4.9572   -2.7083   -1.8473 H   0  0  0  0  0  0  0  0  0  0  0  0
    3.3907   -3.1010   -2.5543 H   0  0  0  0  0  0  0  0  0  0  0  0
    3.0145   -4.8527   -0.7747 H   0  0  0  0  0  0  0  0  0  0  0  0
    4.5699   -4.4384   -0.0447 H   0  0  0  0  0  0  0  0  0  0  0  0
    5.7402   -5.1315   -2.1648 H   0  0  0  0  0  0  0  0  0  0  0  0
    4.1740   -5.5363   -2.8893 H   0  0  0  0  0  0  0  0  0  0  0  0
    5.2139   -6.7874   -0.5801 H   0  0  0  0  0  0  0  0  0  0  0  0
    1.5490    2.0626    1.4354 H   0  0  0  0  0  0  0  0  0  0  0  0
    2.7945    3.2662    3.0822 H   0  0  0  0  0  0  0  0  0  0  0  0
    7.3622    2.8377    3.2700 H   0  0  0  0  0  0  0  0  0  0  0  0
    7.0506    3.6928    4.7303 H   0  0  0  0  0  0  0  0  0  0  0  0
    5.2059    0.1430    0.1082 H   0  0  0  0  0  0  0  0  0  0  0  0
  1  2  1  0
  1 19  1  0
  1 20  1  0
  1 21  1  0
  2  3  1  0
  2  9  1  0
  3  4  1  0
  3 22  1  0
  3 23  1  0
  4  5  1  0
  4 24  1  0
  4 25  1  0
  5  6  1  0
  5 26  1  0
  5 27  1  0
  6  7  1  0
  6 28  1  0
  6 29  1  0
  7  8  1  0
  7 30  1  0
  7 31  1  0
  8 32  1  0
  9 10  2  0
  9 18  1  0
 10 11  1  0
 10 33  1  0
 11 12  2  0
 11 34  1  0
 12 13  1  0
 12 16  1  0
 13 14  1  0
 13 15  2  0
 14 35  1  0
 14 36  1  0
 16 17  1  0
 16 18  2  0
 18 37  1  0
M  END

