
     RDKit          3D

 34 35  0  0  0  0  0  0  0  0999 V2000
   -0.1663    0.0972   -2.9157 C   0  0  0  0  0  0  0  0  0  0  0  0
    1.0643   -0.5048   -2.5569 O   0  0  0  0  0  0  0  0  0  0  0  0
    2.1514    0.2755   -2.3376 C   0  0  0  0  0  0  0  0  0  0  0  0
    2.1903    1.6563   -2.5730 C   0  0  0  0  0  0  0  0  0  0  0  0
    3.3605    2.3672   -2.2973 C   0  0  0  0  0  0  0  0  0  0  0  0
    4.4879    1.7198   -1.7793 C   0  0  0  0  0  0  0  0  0  0  0  0
    4.4406    0.3474   -1.5402 C   0  0  0  0  0  0  0  0  0  0  0  0
    3.2922   -0.4007   -1.8329 C   0  0  0  0  0  0  0  0  0  0  0  0
    3.2370   -1.8717   -1.6001 C   0  0  0  0  0  0  0  0  0  0  0  0
    2.3624   -2.2134   -0.2836 C   0  0  1  0  0  0  0  0  0  0  0  0
    2.2774   -3.6341   -0.2172 N   0  0  0  0  0  0  0  0  0  0  0  0
    2.8570   -1.6261    1.0024 C   0  0  0  0  0  0  0  0  0  0  0  0
    4.0915   -2.1565    1.5943 C   0  0  0  0  0  0  0  0  0  0  0  0
    4.3997   -1.7712    2.9092 C   0  0  0  0  0  0  0  0  0  0  0  0
    5.8771   -2.4381    3.6285 Cl  0  0  0  0  0  0  0  0  0  0  0  0
    3.6184   -0.9183    3.6656 C   0  0  0  0  0  0  0  0  0  0  0  0
    2.4446   -0.3278    3.0541 C   0  0  0  0  0  0  0  0  0  0  0  0
    2.1060   -0.7303    1.7672 C   0  0  0  0  0  0  0  0  0  0  0  0
    0.5967   -0.0513    1.0772 Cl  0  0  0  0  0  0  0  0  0  0  0  0
   -0.9014   -0.7151   -2.9855 H   0  0  0  0  0  0  0  0  0  0  0  0
   -0.0979    0.6051   -3.8930 H   0  0  0  0  0  0  0  0  0  0  0  0
   -0.4934    0.8180   -2.1482 H   0  0  0  0  0  0  0  0  0  0  0  0
    1.3176    2.1824   -2.9587 H   0  0  0  0  0  0  0  0  0  0  0  0
    3.3846    3.4444   -2.4799 H   0  0  0  0  0  0  0  0  0  0  0  0
    5.3941    2.2854   -1.5547 H   0  0  0  0  0  0  0  0  0  0  0  0
    5.3063   -0.1649   -1.1146 H   0  0  0  0  0  0  0  0  0  0  0  0
    4.2465   -2.2759   -1.4482 H   0  0  0  0  0  0  0  0  0  0  0  0
    2.7675   -2.3832   -2.4550 H   0  0  0  0  0  0  0  0  0  0  0  0
    1.3619   -1.8312   -0.5588 H   0  0  0  0  0  0  0  0  0  0  0  0
    2.7212   -4.1067    0.5707 H   0  0  0  0  0  0  0  0  0  0  0  0
    2.0052   -4.1948   -1.0221 H   0  0  0  0  0  0  0  0  0  0  0  0
    4.8613   -2.6380    0.9858 H   0  0  0  0  0  0  0  0  0  0  0  0
    3.8713   -0.7075    4.7046 H   0  0  0  0  0  0  0  0  0  0  0  0
    1.8641    0.4357    3.5691 H   0  0  0  0  0  0  0  0  0  0  0  0
  1  2  1  0
  1 20  1  0
  1 21  1  0
  1 22  1  0
  2  3  1  0
  3  4  2  0
  3  8  1  0
  4  5  1  0
  4 23  1  0
  5  6  2  0
  5 24  1  0
  6  7  1  0
  6 25  1  0
  7  8  2  0
  7 26  1  0
  8  9  1  0
  9 10  1  0
  9 27  1  0
  9 28  1  0
 10 11  1  0
 10 12  1  0
 10 29  1  6
 11 30  1  0
 11 31  1  0
 12 13  2  0
 12 18  1  0
 13 14  1  0
 13 32  1  0
 14 15  1  0
 14 16  2  0
 16 17  1  0
 16 33  1  0
 17 18  2  0
 17 34  1  0
 18 19  1  0
M  END

