
     RDKit          3D

 42 45  0  0  0  0  0  0  0  0999 V2000
    1.3314   -0.1422    0.5335 O   0  0  0  0  0  0  0  0  0  0  0  0
    2.6825    0.0103   -0.0067 S   0  0  2  0  0  0  0  0  0  0  0  0
    3.8546    0.2143    0.8484 O   0  0  0  0  0  0  0  0  0  0  0  0
    2.6672    1.3783   -1.3031 C   0  0  0  0  0  0  0  0  0  0  0  0
    3.3635    0.6677   -2.4422 C   0  0  2  0  0  0  0  0  0  0  0  0
    3.3865    1.0962   -3.8134 N   0  0  0  0  0  0  0  0  0  0  0  0
    3.5697   -0.0660   -4.5084 C   0  0  0  0  0  0  0  0  0  0  0  0
    4.0342   -0.1491   -6.1710 S   0  0  0  0  0  0  0  0  0  0  0  0
    4.2418    1.6898   -6.5445 C   0  0  0  0  0  0  0  0  0  0  0  0
    4.4612    1.8504   -8.0215 C   0  0  0  0  0  0  0  0  0  0  0  0
    3.3707    1.9884   -8.8974 C   0  0  0  0  0  0  0  0  0  0  0  0
    3.5644    2.1237  -10.2722 C   0  0  0  0  0  0  0  0  0  0  0  0
    4.8655    2.1139  -10.7725 C   0  0  0  0  0  0  0  0  0  0  0  0
    5.0591    2.2462  -12.0893 F   0  0  0  0  0  0  0  0  0  0  0  0
    5.9695    1.9724   -9.9336 C   0  0  0  0  0  0  0  0  0  0  0  0
    5.7586    1.8380   -8.5608 C   0  0  0  0  0  0  0  0  0  0  0  0
    3.3271   -1.1791   -3.8154 N   0  0  0  0  0  0  0  0  0  0  0  0
    3.3755   -2.5122   -4.3874 C   0  0  0  0  0  0  0  0  0  0  0  0
    4.4365   -3.3767   -3.9046 C   0  0  0  0  0  0  0  0  0  0  0  0
    4.2920   -4.7462   -3.9376 C   0  0  0  0  0  0  0  0  0  0  0  0
    3.0718   -5.3335   -4.3636 C   0  0  0  0  0  0  0  0  0  0  0  0
    2.8942   -7.0792   -4.3820 Cl  0  0  0  0  0  0  0  0  0  0  0  0
    1.9739   -4.5025   -4.7121 C   0  0  0  0  0  0  0  0  0  0  0  0
    2.0970   -3.1313   -4.6852 C   0  0  0  0  0  0  0  0  0  0  0  0
    2.7782   -0.7549   -2.5145 C   0  0  1  0  0  0  0  0  0  0  0  0
    3.0479   -1.4199   -1.1871 C   0  0  0  0  0  0  0  0  0  0  0  0
    3.2122    2.2227   -0.8638 H   0  0  0  0  0  0  0  0  0  0  0  0
    1.6195    1.6355   -1.5072 H   0  0  0  0  0  0  0  0  0  0  0  0
    4.4319    0.5472   -2.1448 H   0  0  0  0  0  0  0  0  0  0  0  0
    5.0976    2.0524   -5.9608 H   0  0  0  0  0  0  0  0  0  0  0  0
    3.3344    2.1986   -6.1971 H   0  0  0  0  0  0  0  0  0  0  0  0
    2.3525    1.9945   -8.4991 H   0  0  0  0  0  0  0  0  0  0  0  0
    2.7255    2.2375  -10.9612 H   0  0  0  0  0  0  0  0  0  0  0  0
    6.9730    1.9697  -10.3629 H   0  0  0  0  0  0  0  0  0  0  0  0
    6.6207    1.7263   -7.8976 H   0  0  0  0  0  0  0  0  0  0  0  0
    5.3887   -2.9421   -3.5872 H   0  0  0  0  0  0  0  0  0  0  0  0
    5.1234   -5.3932   -3.6492 H   0  0  0  0  0  0  0  0  0  0  0  0
    1.0308   -4.9633   -5.0137 H   0  0  0  0  0  0  0  0  0  0  0  0
    1.2436   -2.5084   -4.9689 H   0  0  0  0  0  0  0  0  0  0  0  0
    1.6823   -0.6685   -2.6421 H   0  0  0  0  0  0  0  0  0  0  0  0
    4.0940   -1.7095   -1.0263 H   0  0  0  0  0  0  0  0  0  0  0  0
    2.3623   -2.2338   -0.9249 H   0  0  0  0  0  0  0  0  0  0  0  0
  1  2  2  0
  2  3  2  0
  2  4  1  6
  2 26  1  0
  4  5  1  0
  4 27  1  0
  4 28  1  0
  5  6  1  0
  5 25  1  0
  5 29  1  1
  6  7  2  0
  7  8  1  0
  7 17  1  0
  8  9  1  0
  9 10  1  0
  9 30  1  0
  9 31  1  0
 10 11  2  0
 10 16  1  0
 11 12  1  0
 11 32  1  0
 12 13  2  0
 12 33  1  0
 13 14  1  0
 13 15  1  0
 15 16  2  0
 15 34  1  0
 16 35  1  0
 17 18  1  0
 17 25  1  0
 18 19  2  0
 18 24  1  0
 19 20  1  0
 19 36  1  0
 20 21  2  0
 20 37  1  0
 21 22  1  0
 21 23  1  0
 23 24  2  0
 23 38  1  0
 24 39  1  0
 25 26  1  0
 25 40  1  6
 26 41  1  0
 26 42  1  0
M  END

