
     RDKit          3D

 53 55  0  0  0  0  0  0  0  0999 V2000
    8.8102    2.5430   -1.4264 C   0  0  0  0  0  0  0  0  0  0  0  0
    8.3509    1.0905   -1.4082 C   0  0  0  0  0  0  0  0  0  0  0  0
    7.9217    0.5572   -2.4185 O   0  0  0  0  0  0  0  0  0  0  0  0
    8.4385    0.4108   -0.2105 N   0  0  0  0  0  0  0  0  0  0  0  0
    8.9480    0.9441    1.0445 C   0  0  0  0  0  0  0  0  0  0  0  0
    7.9508    0.6980    2.1848 C   0  0  0  0  0  0  0  0  0  0  0  0
    7.5897   -0.7149    2.2441 N   0  0  0  0  0  0  0  0  0  0  0  0
    7.8421   -1.4142    3.3890 C   0  0  0  0  0  0  0  0  0  0  0  0
    8.2780   -0.8904    4.4079 O   0  0  0  0  0  0  0  0  0  0  0  0
    7.6479   -2.9434    3.3382 C   0  0  0  0  0  0  0  0  0  0  0  0
    8.0768   -3.5971    2.3909 O   0  0  0  0  0  0  0  0  0  0  0  0
    7.0604   -3.5190    4.4118 N   0  0  0  0  0  0  0  0  0  0  0  0
    6.8467   -4.9694    4.4201 C   0  0  0  0  0  0  0  0  0  0  0  0
    6.1234   -5.2286    5.7626 C   0  0  2  0  0  0  0  0  0  0  0  0
    5.2532   -6.4856    5.6995 C   0  0  0  0  0  0  0  0  0  0  0  0
    5.3232   -3.9143    5.8965 C   0  0  0  0  0  0  0  0  0  0  0  0
    6.4184   -2.8866    5.5878 C   0  0  1  0  0  0  0  0  0  0  0  0
    7.3997   -2.7413    6.7684 C   0  0  0  0  0  0  0  0  0  0  0  0
    7.5918   -4.0183    7.6504 C   0  0  1  0  0  0  0  0  0  0  0  0
    9.0774   -4.1325    8.0434 C   0  0  0  0  0  0  0  0  0  0  0  0
    6.7757   -3.8724    8.9557 C   0  0  0  0  0  0  0  0  0  0  0  0
    7.1640   -5.3385    6.9197 C   0  0  0  0  0  0  0  0  0  0  0  0
    7.0495   -1.2331    0.9859 C   0  0  0  0  0  0  0  0  0  0  0  0
    8.0450   -0.9942   -0.1511 C   0  0  0  0  0  0  0  0  0  0  0  0
    8.6878    2.9086   -2.4528 H   0  0  0  0  0  0  0  0  0  0  0  0
    9.8672    2.6448   -1.1332 H   0  0  0  0  0  0  0  0  0  0  0  0
    8.2104    3.1737   -0.7509 H   0  0  0  0  0  0  0  0  0  0  0  0
    9.1393    2.0199    0.9559 H   0  0  0  0  0  0  0  0  0  0  0  0
    9.9079    0.4547    1.2993 H   0  0  0  0  0  0  0  0  0  0  0  0
    7.0397    1.2994    2.0101 H   0  0  0  0  0  0  0  0  0  0  0  0
    8.3805    0.9814    3.1535 H   0  0  0  0  0  0  0  0  0  0  0  0
    7.7992   -5.5126    4.3230 H   0  0  0  0  0  0  0  0  0  0  0  0
    6.2233   -5.2595    3.5555 H   0  0  0  0  0  0  0  0  0  0  0  0
    4.5316   -6.4348    4.8677 H   0  0  0  0  0  0  0  0  0  0  0  0
    4.6848   -6.6180    6.6340 H   0  0  0  0  0  0  0  0  0  0  0  0
    5.8693   -7.3889    5.5557 H   0  0  0  0  0  0  0  0  0  0  0  0
    4.8624   -3.7733    6.8832 H   0  0  0  0  0  0  0  0  0  0  0  0
    4.5225   -3.8730    5.1393 H   0  0  0  0  0  0  0  0  0  0  0  0
    6.0275   -1.8999    5.3085 H   0  0  0  0  0  0  0  0  0  0  0  0
    7.0437   -1.9164    7.4078 H   0  0  0  0  0  0  0  0  0  0  0  0
    8.3551   -2.3968    6.3516 H   0  0  0  0  0  0  0  0  0  0  0  0
    9.4105   -3.2390    8.5969 H   0  0  0  0  0  0  0  0  0  0  0  0
    9.7176   -4.2315    7.1520 H   0  0  0  0  0  0  0  0  0  0  0  0
    9.2538   -5.0109    8.6869 H   0  0  0  0  0  0  0  0  0  0  0  0
    7.0826   -2.9707    9.5107 H   0  0  0  0  0  0  0  0  0  0  0  0
    6.9333   -4.7410    9.6162 H   0  0  0  0  0  0  0  0  0  0  0  0
    5.6933   -3.7919    8.7711 H   0  0  0  0  0  0  0  0  0  0  0  0
    6.7666   -6.0269    7.6834 H   0  0  0  0  0  0  0  0  0  0  0  0
    8.0596   -5.8395    6.5177 H   0  0  0  0  0  0  0  0  0  0  0  0
    6.1054   -0.7010    0.7670 H   0  0  0  0  0  0  0  0  0  0  0  0
    6.8454   -2.3035    1.0750 H   0  0  0  0  0  0  0  0  0  0  0  0
    7.6086   -1.2584   -1.1221 H   0  0  0  0  0  0  0  0  0  0  0  0
    8.9324   -1.6297    0.0240 H   0  0  0  0  0  0  0  0  0  0  0  0
  1  2  1  0
  1 25  1  0
  1 26  1  0
  1 27  1  0
  2  3  2  0
  2  4  1  0
  4  5  1  0
  4 24  1  0
  5  6  1  0
  5 28  1  0
  5 29  1  0
  6  7  1  0
  6 30  1  0
  6 31  1  0
  7  8  1  0
  7 23  1  0
  8  9  2  0
  8 10  1  0
 10 11  2  0
 10 12  1  0
 12 13  1  0
 12 17  1  0
 13 14  1  0
 13 32  1  0
 13 33  1  0
 14 15  1  6
 14 16  1  0
 14 22  1  0
 15 34  1  0
 15 35  1  0
 15 36  1  0
 16 17  1  0
 16 37  1  0
 16 38  1  0
 17 18  1  0
 17 39  1  6
 18 19  1  0
 18 40  1  0
 18 41  1  0
 19 20  1  1
 19 21  1  0
 19 22  1  0
 20 42  1  0
 20 43  1  0
 20 44  1  0
 21 45  1  0
 21 46  1  0
 21 47  1  0
 22 48  1  0
 22 49  1  0
 23 24  1  0
 23 50  1  0
 23 51  1  0
 24 52  1  0
 24 53  1  0
M  END

