
     RDKit          3D

 25 26  0  0  0  0  0  0  0  0999 V2000
    1.0464   -0.0007   -0.4142 N   0  0  0  0  0  0  0  0  0  0  0  0
    2.6656   -0.0583    0.0934 S   0  0  1  0  0  0  0  0  0  0  0  0
    3.2842    1.2289   -0.2262 O   0  0  0  0  0  0  0  0  0  0  0  0
    2.6559   -0.6092    1.4535 O   0  0  0  0  0  0  0  0  0  0  0  0
    3.3488   -1.3313   -1.0583 C   0  0  0  0  0  0  0  0  0  0  0  0
    4.8291   -1.4548   -0.9463 C   0  0  0  0  0  0  0  0  0  0  0  0
    5.6267   -1.0533   -2.0571 C   0  0  0  0  0  0  0  0  0  0  0  0
    7.0441   -1.1585   -2.0289 C   0  0  0  0  0  0  0  0  0  0  0  0
    7.5780   -1.6655   -0.8235 C   0  0  0  0  0  0  0  0  0  0  0  0
    6.8223   -2.0628    0.3058 C   0  0  0  0  0  0  0  0  0  0  0  0
    5.3956   -1.9598    0.2621 C   0  0  0  0  0  0  0  0  0  0  0  0
    7.7581   -2.4981    1.3792 C   0  0  0  0  0  0  0  0  0  0  0  0
    9.1321   -2.3493    0.6971 C   0  0  0  0  0  0  0  0  0  0  0  0
    8.9000   -1.8115   -0.6244 O   0  0  0  0  0  0  0  0  0  0  0  0
    0.8428    0.9195   -0.8057 H   0  0  0  0  0  0  0  0  0  0  0  0
    0.4390   -0.2130    0.3776 H   0  0  0  0  0  0  0  0  0  0  0  0
    3.0148   -1.0218   -2.0567 H   0  0  0  0  0  0  0  0  0  0  0  0
    2.8203   -2.2487   -0.7512 H   0  0  0  0  0  0  0  0  0  0  0  0
    5.1291   -0.6578   -2.9444 H   0  0  0  0  0  0  0  0  0  0  0  0
    7.6841   -0.8735   -2.8619 H   0  0  0  0  0  0  0  0  0  0  0  0
    4.7628   -2.2241    1.1073 H   0  0  0  0  0  0  0  0  0  0  0  0
    7.5816   -3.5407    1.7215 H   0  0  0  0  0  0  0  0  0  0  0  0
    7.6881   -1.8744    2.2977 H   0  0  0  0  0  0  0  0  0  0  0  0
    9.6656   -3.3053    0.5640 H   0  0  0  0  0  0  0  0  0  0  0  0
    9.8136   -1.6522    1.2113 H   0  0  0  0  0  0  0  0  0  0  0  0
  2  1  1  1
  1 15  1  0
  1 16  1  0
  2  3  2  0
  2  4  2  0
  2  5  1  0
  5  6  1  0
  5 17  1  0
  5 18  1  0
  6  7  2  0
  6 11  1  0
  7  8  1  0
  7 19  1  0
  8  9  2  0
  8 20  1  0
  9 10  1  0
  9 14  1  0
 10 11  2  0
 10 12  1  0
 11 21  1  0
 12 13  1  0
 12 22  1  0
 12 23  1  0
 13 14  1  0
 13 24  1  0
 13 25  1  0
M  END

