
     RDKit          3D

 71 74  0  0  0  0  0  0  0  0999 V2000
    1.9604    3.0609    3.0852 C   0  0  0  0  0  0  0  0  0  0  0  0
    2.6033    1.7245    3.4284 C   0  0  0  0  0  0  0  0  0  0  0  0
    2.9645    0.9499    2.2799 O   0  0  0  0  0  0  0  0  0  0  0  0
    4.1418    1.2515    1.6430 C   0  0  0  0  0  0  0  0  0  0  0  0
    4.1394    2.1759    0.5840 C   0  0  0  0  0  0  0  0  0  0  0  0
    5.3002    2.4723   -0.1136 C   0  0  0  0  0  0  0  0  0  0  0  0
    6.5338    1.8408    0.2234 C   0  0  0  0  0  0  0  0  0  0  0  0
    7.7438    2.2106   -0.4528 C   0  0  0  0  0  0  0  0  0  0  0  0
    7.8006    3.4201   -1.0651 O   0  0  0  0  0  0  0  0  0  0  0  0
    8.9394    1.4328   -0.5668 C   0  0  0  0  0  0  0  0  0  0  0  0
   10.1812    2.0189   -0.7997 C   0  0  0  0  0  0  0  0  0  0  0  0
   10.6063    3.1746   -0.8302 O   0  0  0  0  0  0  0  0  0  0  0  0
   11.1855    0.8015   -1.0561 C   0  0  0  0  0  0  0  0  0  0  0  0
   12.3615    0.9311   -1.2799 O   0  0  0  0  0  0  0  0  0  0  0  0
   10.4457   -0.3383   -0.9260 N   0  0  0  0  0  0  0  0  0  0  0  0
   10.9884   -1.6555   -0.9723 C   0  0  0  0  0  0  0  0  0  0  0  0
   12.3082   -1.9070   -1.3952 C   0  0  0  0  0  0  0  0  0  0  0  0
   12.7874   -3.2177   -1.4510 C   0  0  0  0  0  0  0  0  0  0  0  0
   11.9757   -4.2976   -1.1073 C   0  0  0  0  0  0  0  0  0  0  0  0
   10.6632   -4.0535   -0.6849 C   0  0  0  0  0  0  0  0  0  0  0  0
    9.7847   -5.2259   -0.3694 C   0  0  0  0  0  0  0  0  0  0  0  0
   10.1426   -6.3778   -0.4675 O   0  0  0  0  0  0  0  0  0  0  0  0
    8.5506   -4.8522    0.0091 O   0  0  0  0  0  0  0  0  0  0  0  0
    7.5545   -5.8873    0.2336 C   0  0  1  0  0  0  0  0  0  0  0  0
    7.7113   -6.4629    1.6360 C   0  0  0  0  0  0  0  0  0  0  0  0
    6.2016   -5.2388   -0.0151 C   0  0  0  0  0  0  0  0  0  0  0  0
   10.1799   -2.7425   -0.6032 C   0  0  0  0  0  0  0  0  0  0  0  0
    9.0077   -0.0741   -0.7118 C   0  0  2  0  0  0  0  0  0  0  0  0
    8.1480   -0.6175   -1.8497 C   0  0  0  0  0  0  0  0  0  0  0  0
    8.3702   -0.2541   -3.1834 C   0  0  0  0  0  0  0  0  0  0  0  0
    7.5516   -0.7901   -4.1758 C   0  0  0  0  0  0  0  0  0  0  0  0
    6.5318   -1.6723   -3.7986 C   0  0  0  0  0  0  0  0  0  0  0  0
    6.3007   -2.0191   -2.5318 N   0  0  0  0  0  0  0  0  0  0  0  0
    7.0896   -1.4979   -1.5900 C   0  0  0  0  0  0  0  0  0  0  0  0
    6.5028    0.8919    1.2844 C   0  0  0  0  0  0  0  0  0  0  0  0
    5.3427    0.5836    1.9942 C   0  0  0  0  0  0  0  0  0  0  0  0
    5.3641   -0.4485    3.1171 C   0  0  1  0  0  0  0  0  0  0  0  0
    5.7639   -1.8421    2.6025 C   0  0  0  0  0  0  0  0  0  0  0  0
    6.2545   -0.0123    4.2933 C   0  0  0  0  0  0  0  0  0  0  0  0
    1.6299    3.5653    4.0079 H   0  0  0  0  0  0  0  0  0  0  0  0
    1.0810    2.9146    2.4386 H   0  0  0  0  0  0  0  0  0  0  0  0
    2.6643    3.7321    2.5697 H   0  0  0  0  0  0  0  0  0  0  0  0
    1.8926    1.0946    3.9866 H   0  0  0  0  0  0  0  0  0  0  0  0
    3.4894    1.8764    4.0718 H   0  0  0  0  0  0  0  0  0  0  0  0
    3.1906    2.6335    0.2974 H   0  0  0  0  0  0  0  0  0  0  0  0
    5.2493    3.1550   -0.9655 H   0  0  0  0  0  0  0  0  0  0  0  0
    7.1365    4.0078   -0.6742 H   0  0  0  0  0  0  0  0  0  0  0  0
   12.9582   -1.0812   -1.6748 H   0  0  0  0  0  0  0  0  0  0  0  0
   13.8153   -3.3891   -1.7792 H   0  0  0  0  0  0  0  0  0  0  0  0
   12.3311   -5.3275   -1.1643 H   0  0  0  0  0  0  0  0  0  0  0  0
    7.7452   -6.6805   -0.5062 H   0  0  0  0  0  0  0  0  0  0  0  0
    7.5939   -5.6735    2.3958 H   0  0  0  0  0  0  0  0  0  0  0  0
    8.6978   -6.9325    1.7569 H   0  0  0  0  0  0  0  0  0  0  0  0
    6.9423   -7.2307    1.8157 H   0  0  0  0  0  0  0  0  0  0  0  0
    5.9971   -4.4593    0.7363 H   0  0  0  0  0  0  0  0  0  0  0  0
    5.4040   -5.9948    0.0530 H   0  0  0  0  0  0  0  0  0  0  0  0
    6.1575   -4.7731   -1.0112 H   0  0  0  0  0  0  0  0  0  0  0  0
    9.1593   -2.6022   -0.2640 H   0  0  0  0  0  0  0  0  0  0  0  0
    8.7089   -0.5829    0.2172 H   0  0  0  0  0  0  0  0  0  0  0  0
    9.1727    0.4422   -3.4423 H   0  0  0  0  0  0  0  0  0  0  0  0
    7.6980   -0.5320   -5.2270 H   0  0  0  0  0  0  0  0  0  0  0  0
    5.8760   -2.1156   -4.5573 H   0  0  0  0  0  0  0  0  0  0  0  0
    6.8751   -1.8011   -0.5579 H   0  0  0  0  0  0  0  0  0  0  0  0
    7.4394    0.4251    1.5931 H   0  0  0  0  0  0  0  0  0  0  0  0
    4.3317   -0.5304    3.4872 H   0  0  0  0  0  0  0  0  0  0  0  0
    6.8030   -1.8582    2.2330 H   0  0  0  0  0  0  0  0  0  0  0  0
    5.1075   -2.1662    1.7800 H   0  0  0  0  0  0  0  0  0  0  0  0
    5.6921   -2.5893    3.4099 H   0  0  0  0  0  0  0  0  0  0  0  0
    7.3129    0.0655    3.9943 H   0  0  0  0  0  0  0  0  0  0  0  0
    6.1962   -0.7421    5.1175 H   0  0  0  0  0  0  0  0  0  0  0  0
    5.9501    0.9697    4.6884 H   0  0  0  0  0  0  0  0  0  0  0  0
  1  2  1  0
  1 40  1  0
  1 41  1  0
  1 42  1  0
  2  3  1  0
  2 43  1  0
  2 44  1  0
  3  4  1  0
  4  5  2  0
  4 36  1  0
  5  6  1  0
  5 45  1  0
  6  7  2  0
  6 46  1  0
  7  8  1  0
  7 35  1  0
  8  9  1  0
  8 10  2  0
  9 47  1  0
 10 11  1  0
 10 28  1  0
 11 12  2  0
 11 13  1  0
 13 14  2  0
 13 15  1  0
 15 16  1  0
 15 28  1  0
 16 17  2  0
 16 27  1  0
 17 18  1  0
 17 48  1  0
 18 19  2  0
 18 49  1  0
 19 20  1  0
 19 50  1  0
 20 21  1  0
 20 27  2  0
 21 22  2  0
 21 23  1  0
 23 24  1  0
 24 25  1  0
 24 26  1  0
 24 51  1  6
 25 52  1  0
 25 53  1  0
 25 54  1  0
 26 55  1  0
 26 56  1  0
 26 57  1  0
 27 58  1  0
 28 29  1  0
 28 59  1  1
 29 30  2  0
 29 34  1  0
 30 31  1  0
 30 60  1  0
 31 32  2  0
 31 61  1  0
 32 33  1  0
 32 62  1  0
 33 34  2  0
 34 63  1  0
 35 36  2  0
 35 64  1  0
 36 37  1  0
 37 38  1  0
 37 39  1  0
 37 65  1  1
 38 66  1  0
 38 67  1  0
 38 68  1  0
 39 69  1  0
 39 70  1  0
 39 71  1  0
M  END

