
     RDKit          3D

 42 44  0  0  0  0  0  0  0  0999 V2000
    2.1022   -0.2506   -1.2893 C   0  0  0  0  0  0  0  0  0  0  0  0
    3.4672   -0.0894   -0.6191 C   0  0  1  0  0  0  0  0  0  0  0  0
    3.3942    1.0806    0.1785 O   0  0  0  0  0  0  0  0  0  0  0  0
    4.6413    1.6555    0.5773 C   0  0  1  0  0  0  0  0  0  0  0  0
    5.2117    2.5645   -0.5255 C   0  0  0  0  0  0  0  0  0  0  0  0
    4.3411    3.8072   -0.7321 C   0  0  0  0  0  0  0  0  0  0  0  0
    4.1901    4.5197    0.5321 N   0  0  0  0  0  0  0  0  0  0  0  0
    3.5382    3.7114    1.5584 C   0  0  0  0  0  0  0  0  0  0  0  0
    4.3866    2.4713    1.8486 C   0  0  0  0  0  0  0  0  0  0  0  0
    3.8524   -1.3197    0.1964 C   0  0  0  0  0  0  0  0  0  0  0  0
    3.3531   -1.5048    1.4936 C   0  0  0  0  0  0  0  0  0  0  0  0
    3.6714   -2.6483    2.2252 C   0  0  0  0  0  0  0  0  0  0  0  0
    4.4889   -3.6401    1.6647 C   0  0  0  0  0  0  0  0  0  0  0  0
    4.9926   -3.4817    0.3579 C   0  0  0  0  0  0  0  0  0  0  0  0
    4.6734   -2.3178   -0.3467 C   0  0  0  0  0  0  0  0  0  0  0  0
    5.8190   -4.6075   -0.2191 C   0  0  0  0  0  0  0  0  0  0  0  0
    6.6605   -5.2884    0.8657 C   0  0  0  0  0  0  0  0  0  0  0  0
    5.8436   -5.6732    2.0910 C   0  0  0  0  0  0  0  0  0  0  0  0
    6.0783   -6.6390    2.7894 O   0  0  0  0  0  0  0  0  0  0  0  0
    4.8143   -4.7996    2.3856 N   0  0  0  0  0  0  0  0  0  0  0  0
    1.8700    0.6384   -1.8956 H   0  0  0  0  0  0  0  0  0  0  0  0
    1.3164   -0.3650   -0.5265 H   0  0  0  0  0  0  0  0  0  0  0  0
    2.0868   -1.1397   -1.9375 H   0  0  0  0  0  0  0  0  0  0  0  0
    4.2281    0.0409   -1.4140 H   0  0  0  0  0  0  0  0  0  0  0  0
    5.3598    0.8450    0.8013 H   0  0  0  0  0  0  0  0  0  0  0  0
    5.3114    2.0068   -1.4716 H   0  0  0  0  0  0  0  0  0  0  0  0
    6.2261    2.8790   -0.2268 H   0  0  0  0  0  0  0  0  0  0  0  0
    3.3668    3.4883   -1.1656 H   0  0  0  0  0  0  0  0  0  0  0  0
    4.8176    4.4791   -1.4649 H   0  0  0  0  0  0  0  0  0  0  0  0
    3.6830    5.3907    0.3898 H   0  0  0  0  0  0  0  0  0  0  0  0
    2.5178    3.3801    1.2650 H   0  0  0  0  0  0  0  0  0  0  0  0
    3.4346    4.3159    2.4745 H   0  0  0  0  0  0  0  0  0  0  0  0
    3.8951    1.8333    2.6001 H   0  0  0  0  0  0  0  0  0  0  0  0
    5.3594    2.7906    2.2581 H   0  0  0  0  0  0  0  0  0  0  0  0
    2.7224   -0.7314    1.9375 H   0  0  0  0  0  0  0  0  0  0  0  0
    3.2905   -2.7741    3.2427 H   0  0  0  0  0  0  0  0  0  0  0  0
    5.0751   -2.1909   -1.3577 H   0  0  0  0  0  0  0  0  0  0  0  0
    6.4614   -4.2397   -1.0338 H   0  0  0  0  0  0  0  0  0  0  0  0
    5.1416   -5.3563   -0.6730 H   0  0  0  0  0  0  0  0  0  0  0  0
    7.4534   -4.6021    1.2162 H   0  0  0  0  0  0  0  0  0  0  0  0
    7.1581   -6.1986    0.5044 H   0  0  0  0  0  0  0  0  0  0  0  0
    4.3234   -4.9933    3.2536 H   0  0  0  0  0  0  0  0  0  0  0  0
  1  2  1  0
  1 21  1  0
  1 22  1  0
  1 23  1  0
  2  3  1  0
  2 10  1  0
  2 24  1  6
  3  4  1  0
  4  5  1  0
  4  9  1  0
  4 25  1  1
  5  6  1  0
  5 26  1  0
  5 27  1  0
  6  7  1  0
  6 28  1  0
  6 29  1  0
  7  8  1  0
  7 30  1  0
  8  9  1  0
  8 31  1  0
  8 32  1  0
  9 33  1  0
  9 34  1  0
 10 11  2  0
 10 15  1  0
 11 12  1  0
 11 35  1  0
 12 13  2  0
 12 36  1  0
 13 14  1  0
 13 20  1  0
 14 15  2  0
 14 16  1  0
 15 37  1  0
 16 17  1  0
 16 38  1  0
 16 39  1  0
 17 18  1  0
 17 40  1  0
 17 41  1  0
 18 19  2  0
 18 20  1  0
 20 42  1  0
M  END

