
     RDKit          3D

 62 66  0  0  0  0  0  0  0  0999 V2000
    1.1474    0.5119   -0.2335 C   0  0  0  0  0  0  0  0  0  0  0  0
    2.6314    0.1570   -0.1058 C   0  0  0  0  0  0  0  0  0  0  0  0
    2.9877   -1.1681    0.6091 C   0  0  2  0  0  0  0  0  0  0  0  0
    2.4796   -1.1841    2.0670 C   0  0  0  0  0  0  0  0  0  0  0  0
    2.8887   -2.4849    2.7884 C   0  0  2  0  0  0  0  0  0  0  0  0
    2.3373   -2.5378    4.2328 C   0  0  0  0  0  0  0  0  0  0  0  0
    2.7899   -1.4381    5.1974 C   0  0  0  0  0  0  0  0  0  0  0  0
    4.4284   -2.6035    2.7668 C   0  0  0  0  0  0  0  0  0  0  0  0
    4.9858   -2.6102    1.3169 C   0  0  2  0  0  0  0  0  0  0  0  0
    6.5143   -2.7580    1.3393 C   0  0  0  0  0  0  0  0  0  0  0  0
    7.1054   -3.8846    1.9455 C   0  0  0  0  0  0  0  0  0  0  0  0
    8.4865   -4.0627    1.9877 C   0  0  0  0  0  0  0  0  0  0  0  0
    9.3042   -3.0942    1.4111 C   0  0  0  0  0  0  0  0  0  0  0  0
   10.6892   -3.3356    1.4879 O   0  0  0  0  0  0  0  0  0  0  0  0
   11.5230   -2.4935    0.9833 C   0  0  0  0  0  0  0  0  0  0  0  0
   12.3116   -1.7615    0.5424 N   0  0  0  0  0  0  0  0  0  0  0  0
    8.7722   -1.9657    0.8018 C   0  0  0  0  0  0  0  0  0  0  0  0
    7.3810   -1.8101    0.7730 C   0  0  0  0  0  0  0  0  0  0  0  0
    4.5266   -1.3068    0.6309 C   0  0  0  0  0  0  0  0  0  0  0  0
    4.3549   -3.7991    0.5450 C   0  0  0  0  0  0  0  0  0  0  0  0
    2.8054   -3.7157    0.5307 C   0  0  2  0  0  0  0  0  0  0  0  0
    2.2260   -4.9405   -0.1927 C   0  0  0  0  0  0  0  0  0  0  0  0
    2.4761   -6.2361    0.3032 C   0  0  0  0  0  0  0  0  0  0  0  0
    1.9686   -7.3762   -0.3159 C   0  0  0  0  0  0  0  0  0  0  0  0
    1.1909   -7.2257   -1.4611 C   0  0  0  0  0  0  0  0  0  0  0  0
    0.7079   -8.4170   -2.0356 O   0  0  0  0  0  0  0  0  0  0  0  0
   -0.0254   -8.3757   -3.0936 C   0  0  0  0  0  0  0  0  0  0  0  0
   -0.6906   -8.3864   -4.0473 N   0  0  0  0  0  0  0  0  0  0  0  0
    0.9172   -5.9721   -1.9919 C   0  0  0  0  0  0  0  0  0  0  0  0
    1.4391   -4.8419   -1.3508 C   0  0  0  0  0  0  0  0  0  0  0  0
    2.4011   -2.3845   -0.1390 C   0  0  0  0  0  0  0  0  0  0  0  0
    2.3031   -3.6776    1.9984 C   0  0  0  0  0  0  0  0  0  0  0  0
    1.0290    1.4724   -0.7595 H   0  0  0  0  0  0  0  0  0  0  0  0
    0.6584    0.6182    0.7474 H   0  0  0  0  0  0  0  0  0  0  0  0
    0.5846   -0.2412   -0.8076 H   0  0  0  0  0  0  0  0  0  0  0  0
    3.1484    0.9762    0.4259 H   0  0  0  0  0  0  0  0  0  0  0  0
    3.0797    0.1287   -1.1155 H   0  0  0  0  0  0  0  0  0  0  0  0
    1.3806   -1.0901    2.0905 H   0  0  0  0  0  0  0  0  0  0  0  0
    2.8845   -0.3070    2.5997 H   0  0  0  0  0  0  0  0  0  0  0  0
    2.6026   -3.5209    4.6626 H   0  0  0  0  0  0  0  0  0  0  0  0
    1.2339   -2.5280    4.1724 H   0  0  0  0  0  0  0  0  0  0  0  0
    3.8811   -1.4370    5.3475 H   0  0  0  0  0  0  0  0  0  0  0  0
    2.3282   -1.5845    6.1867 H   0  0  0  0  0  0  0  0  0  0  0  0
    2.4994   -0.4339    4.8507 H   0  0  0  0  0  0  0  0  0  0  0  0
    4.7276   -3.5252    3.2942 H   0  0  0  0  0  0  0  0  0  0  0  0
    4.8862   -1.7655    3.3171 H   0  0  0  0  0  0  0  0  0  0  0  0
    6.4766   -4.6521    2.4014 H   0  0  0  0  0  0  0  0  0  0  0  0
    8.9362   -4.9385    2.4589 H   0  0  0  0  0  0  0  0  0  0  0  0
    9.4260   -1.2143    0.3535 H   0  0  0  0  0  0  0  0  0  0  0  0
    6.9844   -0.9177    0.2898 H   0  0  0  0  0  0  0  0  0  0  0  0
    4.9021   -1.2753   -0.4061 H   0  0  0  0  0  0  0  0  0  0  0  0
    4.9566   -0.4353    1.1536 H   0  0  0  0  0  0  0  0  0  0  0  0
    4.6694   -4.7487    1.0041 H   0  0  0  0  0  0  0  0  0  0  0  0
    4.7350   -3.8123   -0.4903 H   0  0  0  0  0  0  0  0  0  0  0  0
    3.0829   -6.3690    1.2012 H   0  0  0  0  0  0  0  0  0  0  0  0
    2.1656   -8.3756    0.0758 H   0  0  0  0  0  0  0  0  0  0  0  0
    0.3062   -5.8696   -2.8914 H   0  0  0  0  0  0  0  0  0  0  0  0
    1.2119   -3.8680   -1.7834 H   0  0  0  0  0  0  0  0  0  0  0  0
    1.3024   -2.3077   -0.1671 H   0  0  0  0  0  0  0  0  0  0  0  0
    2.7523   -2.3666   -1.1853 H   0  0  0  0  0  0  0  0  0  0  0  0
    2.5697   -4.6146    2.5149 H   0  0  0  0  0  0  0  0  0  0  0  0
    1.2007   -3.6225    2.0036 H   0  0  0  0  0  0  0  0  0  0  0  0
  1  2  1  0
  1 33  1  0
  1 34  1  0
  1 35  1  0
  3  2  1  6
  2 36  1  0
  2 37  1  0
  3  4  1  0
  3 19  1  0
  3 31  1  0
  4  5  1  0
  4 38  1  0
  4 39  1  0
  5  6  1  1
  5  8  1  0
  5 32  1  0
  6  7  1  0
  6 40  1  0
  6 41  1  0
  7 42  1  0
  7 43  1  0
  7 44  1  0
  8  9  1  0
  8 45  1  0
  8 46  1  0
  9 10  1  1
  9 19  1  0
  9 20  1  0
 10 11  2  0
 10 18  1  0
 11 12  1  0
 11 47  1  0
 12 13  2  0
 12 48  1  0
 13 14  1  0
 13 17  1  0
 14 15  1  0
 15 16  3  0
 17 18  2  0
 17 49  1  0
 18 50  1  0
 19 51  1  0
 19 52  1  0
 20 21  1  0
 20 53  1  0
 20 54  1  0
 21 22  1  6
 21 31  1  0
 21 32  1  0
 22 23  2  0
 22 30  1  0
 23 24  1  0
 23 55  1  0
 24 25  2  0
 24 56  1  0
 25 26  1  0
 25 29  1  0
 26 27  1  0
 27 28  3  0
 29 30  2  0
 29 57  1  0
 30 58  1  0
 31 59  1  0
 31 60  1  0
 32 61  1  0
 32 62  1  0
M  END

