
     RDKit          3D

 38 40  0  0  0  0  0  0  0  0999 V2000
    0.4377   -2.1235    0.3999 C   0  0  0  0  0  0  0  0  0  0  0  0
    1.1808   -0.8654    0.8547 C   0  0  0  0  0  0  0  0  0  0  0  0
    2.3996   -0.5134   -0.0072 C   0  0  2  0  0  0  0  0  0  0  0  0
    2.0547   -0.4146   -1.0499 H   0  0  0  0  0  0  0  0  0  0  0  0
    3.5332   -1.5766    0.0193 C   0  0  0  0  0  0  0  0  0  0  0  0
    4.7333   -0.7792   -0.0530 N   0  0  0  0  0  0  0  0  0  0  0  0
    6.0494   -1.3656   -0.1086 C   0  0  0  0  0  0  0  0  0  0  0  0
    7.0337   -0.3454   -0.7116 C   0  0  0  0  0  0  0  0  0  0  0  0
    6.7615    1.0418   -0.2008 C   0  0  0  0  0  0  0  0  0  0  0  0
    5.6421    1.3960    0.4567 C   0  0  0  0  0  0  0  0  0  0  0  0
    5.6231    2.8733    0.7824 C   0  0  0  0  0  0  0  0  0  0  0  0
    7.0799    3.3157    0.4953 C   0  0  0  0  0  0  0  0  0  0  0  0
    7.6604    2.2333   -0.4474 C   0  0  0  0  0  0  0  0  0  0  0  0
    4.5540    0.4048    0.7963 C   0  0  2  0  0  0  0  0  0  0  0  0
    4.6138    0.0918    2.3179 C   0  0  0  0  0  0  0  0  0  0  0  0
    3.1123    0.8163    0.3952 C   0  0  0  0  0  0  0  0  0  0  0  0
   -0.4442   -2.3192    1.0308 H   0  0  0  0  0  0  0  0  0  0  0  0
    1.0800   -3.0181    0.4472 H   0  0  0  0  0  0  0  0  0  0  0  0
    0.0863   -2.0244   -0.6412 H   0  0  0  0  0  0  0  0  0  0  0  0
    1.4989   -0.9824    1.9070 H   0  0  0  0  0  0  0  0  0  0  0  0
    0.4826   -0.0097    0.8454 H   0  0  0  0  0  0  0  0  0  0  0  0
    3.4822   -2.2761   -0.8323 H   0  0  0  0  0  0  0  0  0  0  0  0
    3.4605   -2.1969    0.9443 H   0  0  0  0  0  0  0  0  0  0  0  0
    6.0080   -2.2700   -0.7374 H   0  0  0  0  0  0  0  0  0  0  0  0
    6.4231   -1.6981    0.8878 H   0  0  0  0  0  0  0  0  0  0  0  0
    6.9424   -0.3469   -1.8147 H   0  0  0  0  0  0  0  0  0  0  0  0
    8.0756   -0.6428   -0.4931 H   0  0  0  0  0  0  0  0  0  0  0  0
    5.3136    3.0908    1.8193 H   0  0  0  0  0  0  0  0  0  0  0  0
    4.8980    3.4017    0.1333 H   0  0  0  0  0  0  0  0  0  0  0  0
    7.6499    3.3169    1.4387 H   0  0  0  0  0  0  0  0  0  0  0  0
    7.1459    4.3323    0.0783 H   0  0  0  0  0  0  0  0  0  0  0  0
    8.7247    2.0194   -0.2451 H   0  0  0  0  0  0  0  0  0  0  0  0
    7.6087    2.5393   -1.5113 H   0  0  0  0  0  0  0  0  0  0  0  0
    5.5823   -0.3523    2.5939 H   0  0  0  0  0  0  0  0  0  0  0  0
    3.8157   -0.6023    2.6241 H   0  0  0  0  0  0  0  0  0  0  0  0
    4.4914    1.0138    2.9072 H   0  0  0  0  0  0  0  0  0  0  0  0
    3.1482    1.5011   -0.4641 H   0  0  0  0  0  0  0  0  0  0  0  0
    2.5910    1.3382    1.2130 H   0  0  0  0  0  0  0  0  0  0  0  0
  1  2  1  0
  1 17  1  0
  1 18  1  0
  1 19  1  0
  2  3  1  0
  2 20  1  0
  2 21  1  0
  3  4  1  6
  3  5  1  0
  3 16  1  0
  5  6  1  0
  5 22  1  0
  5 23  1  0
  6  7  1  0
  6 14  1  0
  7  8  1  0
  7 24  1  0
  7 25  1  0
  8  9  1  0
  8 26  1  0
  8 27  1  0
  9 10  2  0
  9 13  1  0
 10 11  1  0
 10 14  1  0
 11 12  1  0
 11 28  1  0
 11 29  1  0
 12 13  1  0
 12 30  1  0
 12 31  1  0
 13 32  1  0
 13 33  1  0
 14 15  1  1
 14 16  1  0
 15 34  1  0
 15 35  1  0
 15 36  1  0
 16 37  1  0
 16 38  1  0
M  END

