
     RDKit          3D

 54 56  0  0  0  0  0  0  0  0999 V2000
   -9.3660   -2.4428    3.0155 C   0  0  0  0  0  0  0  0  0  0  0  0
   -9.0320   -0.9945    2.7714 C   0  0  0  0  0  0  0  0  0  0  0  0
  -10.0527   -0.0781    2.4744 C   0  0  0  0  0  0  0  0  0  0  0  0
   -9.7717    1.2582    2.1947 C   0  0  0  0  0  0  0  0  0  0  0  0
   -8.4493    1.7045    2.2045 C   0  0  0  0  0  0  0  0  0  0  0  0
   -7.3992    0.8314    2.5121 C   0  0  0  0  0  0  0  0  0  0  0  0
   -5.9714    1.3208    2.5375 C   0  0  0  0  0  0  0  0  0  0  0  0
   -7.7026   -0.5185    2.8053 C   0  0  0  0  0  0  0  0  0  0  0  0
   -6.6164   -1.3932    3.0885 N   0  0  0  0  0  0  0  0  0  0  0  0
   -6.4596   -2.1436    4.2242 C   0  0  0  0  0  0  0  0  0  0  0  0
   -7.2502   -2.1941    5.1472 O   0  0  0  0  0  0  0  0  0  0  0  0
   -5.1341   -2.9334    4.2651 C   0  0  0  0  0  0  0  0  0  0  0  0
   -4.9166   -3.8440    3.1504 N   0  0  0  0  0  0  0  0  0  0  0  0
   -4.4169   -3.4278    1.9690 C   0  0  0  0  0  0  0  0  0  0  0  0
   -4.2036   -2.2466    1.7023 O   0  0  0  0  0  0  0  0  0  0  0  0
   -4.1702   -4.4845    0.8719 C   0  0  2  0  0  0  0  0  0  0  0  0
   -3.5678   -3.9449    0.1317 H   0  0  0  0  0  0  0  0  0  0  0  0
   -5.4563   -4.9797    0.2149 C   0  0  0  0  0  0  0  0  0  0  0  0
   -3.2738   -5.5643    1.2646 O   0  0  0  0  0  0  0  0  0  0  0  0
   -3.6361   -6.5616    2.0748 C   0  0  0  0  0  0  0  0  0  0  0  0
   -4.6915   -6.5999    2.6751 O   0  0  0  0  0  0  0  0  0  0  0  0
   -2.5744   -7.6217    2.2414 C   0  0  0  0  0  0  0  0  0  0  0  0
   -2.6391   -8.2933    3.4271 C   0  0  0  0  0  0  0  0  0  0  0  0
   -1.6849   -9.3360    3.8125 C   0  0  0  0  0  0  0  0  0  0  0  0
   -1.7030   -9.9462    4.8675 O   0  0  0  0  0  0  0  0  0  0  0  0
   -0.7168   -9.5818    2.8444 N   0  0  0  0  0  0  0  0  0  0  0  0
   -0.0446  -10.3038    3.0908 H   0  0  0  0  0  0  0  0  0  0  0  0
   -0.6151   -8.9667    1.6141 C   0  0  0  0  0  0  0  0  0  0  0  0
    0.4008   -9.3554    0.7191 C   0  0  0  0  0  0  0  0  0  0  0  0
    0.5005   -8.7550   -0.5273 C   0  0  0  0  0  0  0  0  0  0  0  0
   -0.4132   -7.7575   -0.9038 C   0  0  0  0  0  0  0  0  0  0  0  0
   -1.4137   -7.3632   -0.0255 C   0  0  0  0  0  0  0  0  0  0  0  0
   -1.5442   -7.9465    1.2563 C   0  0  0  0  0  0  0  0  0  0  0  0
  -10.3818   -2.6751    2.6644 H   0  0  0  0  0  0  0  0  0  0  0  0
   -9.2920   -2.6877    4.0865 H   0  0  0  0  0  0  0  0  0  0  0  0
   -8.6581   -3.1065    2.4924 H   0  0  0  0  0  0  0  0  0  0  0  0
  -11.0867   -0.4331    2.4490 H   0  0  0  0  0  0  0  0  0  0  0  0
  -10.5832    1.9520    1.9610 H   0  0  0  0  0  0  0  0  0  0  0  0
   -8.2232    2.7507    1.9806 H   0  0  0  0  0  0  0  0  0  0  0  0
   -5.9251    2.4070    2.3744 H   0  0  0  0  0  0  0  0  0  0  0  0
   -5.3530    0.8433    1.7573 H   0  0  0  0  0  0  0  0  0  0  0  0
   -5.4865    1.0993    3.5026 H   0  0  0  0  0  0  0  0  0  0  0  0
   -5.7936   -1.3394    2.4831 H   0  0  0  0  0  0  0  0  0  0  0  0
   -5.1453   -3.5085    5.1987 H   0  0  0  0  0  0  0  0  0  0  0  0
   -4.2979   -2.2151    4.2992 H   0  0  0  0  0  0  0  0  0  0  0  0
   -5.1239   -4.8373    3.2587 H   0  0  0  0  0  0  0  0  0  0  0  0
   -5.2181   -5.6521   -0.6234 H   0  0  0  0  0  0  0  0  0  0  0  0
   -5.9987   -4.1111   -0.1884 H   0  0  0  0  0  0  0  0  0  0  0  0
   -6.1103   -5.5090    0.9194 H   0  0  0  0  0  0  0  0  0  0  0  0
   -3.4205   -8.0665    4.1521 H   0  0  0  0  0  0  0  0  0  0  0  0
    1.1036  -10.1373    1.0182 H   0  0  0  0  0  0  0  0  0  0  0  0
    1.2912   -9.0647   -1.2149 H   0  0  0  0  0  0  0  0  0  0  0  0
   -0.3386   -7.2877   -1.8867 H   0  0  0  0  0  0  0  0  0  0  0  0
   -2.1106   -6.5846   -0.3235 H   0  0  0  0  0  0  0  0  0  0  0  0
  1  2  1  0
  1 34  1  0
  1 35  1  0
  1 36  1  0
  2  3  2  0
  2  8  1  0
  3  4  1  0
  3 37  1  0
  4  5  2  0
  4 38  1  0
  5  6  1  0
  5 39  1  0
  6  7  1  0
  6  8  2  0
  7 40  1  0
  7 41  1  0
  7 42  1  0
  8  9  1  0
  9 10  1  0
  9 43  1  0
 10 11  2  0
 10 12  1  0
 12 13  1  0
 12 44  1  0
 12 45  1  0
 13 14  1  0
 13 46  1  0
 14 15  2  0
 14 16  1  0
 16 17  1  6
 16 18  1  0
 16 19  1  0
 18 47  1  0
 18 48  1  0
 18 49  1  0
 19 20  1  0
 20 21  2  0
 20 22  1  0
 22 23  2  0
 22 33  1  0
 23 24  1  0
 23 50  1  0
 24 25  2  0
 24 26  1  0
 26 27  1  0
 26 28  1  0
 28 29  1  0
 28 33  2  0
 29 30  2  0
 29 51  1  0
 30 31  1  0
 30 52  1  0
 31 32  2  0
 31 53  1  0
 32 33  1  0
 32 54  1  0
M  END

