
     RDKit          3D

 37 37  0  0  0  0  0  0  0  0999 V2000
    0.8422   -4.5051    1.1051 C   0  0  0  0  0  0  0  0  0  0  0  0
    2.3677   -4.4017    1.1328 C   0  0  0  0  0  0  0  0  0  0  0  0
    2.9558   -3.6613   -0.0725 C   0  0  0  0  0  0  0  0  0  0  0  0
    4.4838   -3.5691   -0.0561 C   0  0  0  0  0  0  0  0  0  0  0  0
    5.0690   -2.8193   -1.2573 C   0  0  0  0  0  0  0  0  0  0  0  0
    6.5979   -2.7614   -1.2865 C   0  0  0  0  0  0  0  0  0  0  0  0
    7.1758   -4.0815   -1.4262 N   0  0  0  0  0  0  0  0  0  0  0  0
    8.5571   -4.2873   -1.4710 C   0  0  0  0  0  0  0  0  0  0  0  0
    9.4906   -3.3037   -1.1019 C   0  0  0  0  0  0  0  0  0  0  0  0
   10.8608   -3.5805   -1.1314 C   0  0  0  0  0  0  0  0  0  0  0  0
   11.3563   -4.8296   -1.5269 C   0  0  0  0  0  0  0  0  0  0  0  0
   12.7312   -5.1159   -1.4904 N   0  0  0  0  0  0  0  0  0  0  0  0
   10.4273   -5.8314   -1.9050 C   0  0  0  0  0  0  0  0  0  0  0  0
   10.9238   -7.1933   -2.3193 C   0  0  0  0  0  0  0  0  0  0  0  0
    9.0626   -5.5415   -1.8726 C   0  0  0  0  0  0  0  0  0  0  0  0
    0.4563   -5.0436    1.9854 H   0  0  0  0  0  0  0  0  0  0  0  0
    0.4928   -5.0425    0.2073 H   0  0  0  0  0  0  0  0  0  0  0  0
    0.3720   -3.5073    1.0937 H   0  0  0  0  0  0  0  0  0  0  0  0
    2.8062   -5.4150    1.1829 H   0  0  0  0  0  0  0  0  0  0  0  0
    2.6865   -3.8932    2.0609 H   0  0  0  0  0  0  0  0  0  0  0  0
    2.5252   -2.6431   -0.1201 H   0  0  0  0  0  0  0  0  0  0  0  0
    2.6300   -4.1650   -1.0023 H   0  0  0  0  0  0  0  0  0  0  0  0
    4.9173   -4.5831   -0.0143 H   0  0  0  0  0  0  0  0  0  0  0  0
    4.8120   -3.0685    0.8736 H   0  0  0  0  0  0  0  0  0  0  0  0
    4.6848   -1.7844   -1.2730 H   0  0  0  0  0  0  0  0  0  0  0  0
    4.7088   -3.2821   -2.1967 H   0  0  0  0  0  0  0  0  0  0  0  0
    6.9568   -2.3129   -0.3428 H   0  0  0  0  0  0  0  0  0  0  0  0
    6.9256   -2.0740   -2.0972 H   0  0  0  0  0  0  0  0  0  0  0  0
    6.6548   -4.6927   -2.0465 H   0  0  0  0  0  0  0  0  0  0  0  0
    9.1612   -2.3114   -0.7916 H   0  0  0  0  0  0  0  0  0  0  0  0
   11.5660   -2.7953   -0.8409 H   0  0  0  0  0  0  0  0  0  0  0  0
   13.3218   -4.2926   -1.4288 H   0  0  0  0  0  0  0  0  0  0  0  0
   13.0593   -5.7331   -2.2272 H   0  0  0  0  0  0  0  0  0  0  0  0
   11.5265   -7.1494   -3.2463 H   0  0  0  0  0  0  0  0  0  0  0  0
   10.0913   -7.8869   -2.5061 H   0  0  0  0  0  0  0  0  0  0  0  0
   11.5714   -7.6348   -1.5421 H   0  0  0  0  0  0  0  0  0  0  0  0
    8.3544   -6.3270   -2.1573 H   0  0  0  0  0  0  0  0  0  0  0  0
  1  2  1  0
  1 16  1  0
  1 17  1  0
  1 18  1  0
  2  3  1  0
  2 19  1  0
  2 20  1  0
  3  4  1  0
  3 21  1  0
  3 22  1  0
  4  5  1  0
  4 23  1  0
  4 24  1  0
  5  6  1  0
  5 25  1  0
  5 26  1  0
  6  7  1  0
  6 27  1  0
  6 28  1  0
  7  8  1  0
  7 29  1  0
  8  9  2  0
  8 15  1  0
  9 10  1  0
  9 30  1  0
 10 11  2  0
 10 31  1  0
 11 12  1  0
 11 13  1  0
 12 32  1  0
 12 33  1  0
 13 14  1  0
 13 15  2  0
 14 34  1  0
 14 35  1  0
 14 36  1  0
 15 37  1  0
M  END

