
     RDKit          3D

 43 46  0  0  0  0  0  0  0  0999 V2000
    1.6324   -0.9104   -0.2757 C   0  0  0  0  0  0  0  0  0  0  0  0
    2.6751   -0.3690    0.0216 C   0  0  0  0  0  0  0  0  0  0  0  0
    3.9286    0.2976    0.4034 C   0  0  0  0  0  0  0  0  0  0  0  0
    4.5196    1.0767   -0.6870 N   0  0  0  0  0  0  0  0  0  0  0  0
    3.8429    2.3517   -0.8860 C   0  0  0  0  0  0  0  0  0  0  0  0
    4.0684    3.3876    0.1430 C   0  0  0  0  0  0  0  0  0  0  0  0
    4.2432    4.2387    0.9883 C   0  0  0  0  0  0  0  0  0  0  0  0
    5.9562    0.9344   -0.8682 C   0  0  1  0  0  0  0  0  0  0  0  0
    6.2427   -0.4697   -1.4523 C   0  0  0  0  0  0  0  0  0  0  0  0
    7.7303   -0.8926   -1.4280 C   0  0  2  0  0  0  0  0  0  0  0  0
    8.3295   -0.5720   -0.0404 C   0  0  0  0  0  0  0  0  0  0  0  0
    7.9896    0.8452    0.4345 C   0  0  1  0  0  0  0  0  0  0  0  0
    8.6446    1.9728   -0.3707 C   0  0  0  0  0  0  0  0  0  0  0  0
    8.0815    2.0766   -1.8055 C   0  0  2  0  0  0  0  0  0  0  0  0
    6.5338    2.0606   -1.7477 C   0  0  0  0  0  0  0  0  0  0  0  0
    8.6866    1.0681   -2.7693 C   0  0  0  0  0  0  0  0  0  0  0  0
    9.4279    1.5300   -3.8674 C   0  0  0  0  0  0  0  0  0  0  0  0
   10.0168    0.6488   -4.7781 C   0  0  0  0  0  0  0  0  0  0  0  0
    9.8668   -0.7262   -4.5960 C   0  0  0  0  0  0  0  0  0  0  0  0
    9.1286   -1.1984   -3.5076 C   0  0  0  0  0  0  0  0  0  0  0  0
    8.5331   -0.3236   -2.5865 C   0  0  0  0  0  0  0  0  0  0  0  0
    6.5720    1.0275    0.4375 O   0  0  0  0  0  0  0  0  0  0  0  0
    0.7131   -1.3946   -0.5461 H   0  0  0  0  0  0  0  0  0  0  0  0
    4.6529   -0.4511    0.7503 H   0  0  0  0  0  0  0  0  0  0  0  0
    3.7404    0.9360    1.2894 H   0  0  0  0  0  0  0  0  0  0  0  0
    2.7612    2.1360   -0.9275 H   0  0  0  0  0  0  0  0  0  0  0  0
    4.0895    2.7637   -1.8753 H   0  0  0  0  0  0  0  0  0  0  0  0
    4.4047    4.9876    1.7406 H   0  0  0  0  0  0  0  0  0  0  0  0
    5.8411   -0.5170   -2.4755 H   0  0  0  0  0  0  0  0  0  0  0  0
    5.6734   -1.2006   -0.8589 H   0  0  0  0  0  0  0  0  0  0  0  0
    7.7528   -1.9870   -1.5488 H   0  0  0  0  0  0  0  0  0  0  0  0
    7.9066   -1.2769    0.6953 H   0  0  0  0  0  0  0  0  0  0  0  0
    9.4208   -0.7246   -0.0453 H   0  0  0  0  0  0  0  0  0  0  0  0
    8.2900    0.9456    1.4902 H   0  0  0  0  0  0  0  0  0  0  0  0
    9.7390    1.8470   -0.3939 H   0  0  0  0  0  0  0  0  0  0  0  0
    8.4343    2.9181    0.1567 H   0  0  0  0  0  0  0  0  0  0  0  0
    8.3607    3.0691   -2.1917 H   0  0  0  0  0  0  0  0  0  0  0  0
    6.1158    2.0044   -2.7647 H   0  0  0  0  0  0  0  0  0  0  0  0
    6.2270    3.0192   -1.3064 H   0  0  0  0  0  0  0  0  0  0  0  0
    9.5462    2.6084   -4.0101 H   0  0  0  0  0  0  0  0  0  0  0  0
   10.5890    1.0375   -5.6244 H   0  0  0  0  0  0  0  0  0  0  0  0
   10.3199   -1.4315   -5.2976 H   0  0  0  0  0  0  0  0  0  0  0  0
    9.0077   -2.2767   -3.3672 H   0  0  0  0  0  0  0  0  0  0  0  0
  1  2  3  0
  1 23  1  0
  2  3  1  0
  3  4  1  0
  3 24  1  0
  3 25  1  0
  4  5  1  0
  8  4  1  1
  5  6  1  0
  5 26  1  0
  5 27  1  0
  6  7  3  0
  7 28  1  0
  8  9  1  0
  8 15  1  0
  8 22  1  0
  9 10  1  0
  9 29  1  0
  9 30  1  0
 10 11  1  0
 10 21  1  0
 10 31  1  6
 11 12  1  0
 11 32  1  0
 11 33  1  0
 12 13  1  0
 12 22  1  0
 12 34  1  1
 13 14  1  0
 13 35  1  0
 13 36  1  0
 14 15  1  0
 14 16  1  0
 14 37  1  6
 15 38  1  0
 15 39  1  0
 16 17  1  0
 16 21  2  0
 17 18  2  0
 17 40  1  0
 18 19  1  0
 18 41  1  0
 19 20  2  0
 19 42  1  0
 20 21  1  0
 20 43  1  0
M  END

