
     RDKit          3D

 22 23  0  0  0  0  0  0  0  0999 V2000
    1.0597   -0.1817    0.5879 O   0  0  0  0  0  0  0  0  0  0  0  0
    2.0624    0.0008   -0.0566 C   0  0  0  0  0  0  0  0  0  0  0  0
    2.5413    1.2570   -0.2324 O   0  0  0  0  0  0  0  0  0  0  0  0
    2.8436   -1.0867   -0.6898 C   0  0  0  0  0  0  0  0  0  0  0  0
    3.9439   -1.0253   -1.5861 C   0  0  0  0  0  0  0  0  0  0  0  0
    4.3002   -2.3640   -1.8963 C   0  0  0  0  0  0  0  0  0  0  0  0
    3.4144   -3.1988   -1.1869 N   0  0  0  0  0  0  0  0  0  0  0  0
    2.5502   -2.4327   -0.4686 C   0  0  0  0  0  0  0  0  0  0  0  0
    3.5523   -4.6433   -1.1731 C   0  0  0  0  0  0  0  0  0  0  0  0
    4.0859   -5.1201   -2.5244 C   0  0  0  0  0  0  0  0  0  0  0  0
    5.4018   -4.4262   -2.8966 C   0  0  0  0  0  0  0  0  0  0  0  0
    5.2768   -2.9142   -2.7224 C   0  0  0  0  0  0  0  0  0  0  0  0
    6.1717   -2.2317   -3.3831 O   0  0  0  0  0  0  0  0  0  0  0  0
    3.3845    1.2305   -0.7054 H   0  0  0  0  0  0  0  0  0  0  0  0
    4.4183   -0.1468   -2.0189 H   0  0  0  0  0  0  0  0  0  0  0  0
    1.7754   -2.8626    0.1621 H   0  0  0  0  0  0  0  0  0  0  0  0
    2.5708   -5.0915   -0.9577 H   0  0  0  0  0  0  0  0  0  0  0  0
    4.2418   -4.9485   -0.3629 H   0  0  0  0  0  0  0  0  0  0  0  0
    3.3316   -4.9231   -3.3032 H   0  0  0  0  0  0  0  0  0  0  0  0
    4.2473   -6.2092   -2.4914 H   0  0  0  0  0  0  0  0  0  0  0  0
    5.6768   -4.6427   -3.9416 H   0  0  0  0  0  0  0  0  0  0  0  0
    6.2409   -4.7888   -2.2727 H   0  0  0  0  0  0  0  0  0  0  0  0
  1  2  2  0
  2  3  1  0
  2  4  1  0
  3 14  1  0
  4  5  1  0
  4  8  2  0
  5  6  2  0
  5 15  1  0
  6  7  1  0
  6 12  1  0
  7  8  1  0
  7  9  1  0
  8 16  1  0
  9 10  1  0
  9 17  1  0
  9 18  1  0
 10 11  1  0
 10 19  1  0
 10 20  1  0
 11 12  1  0
 11 21  1  0
 11 22  1  0
 12 13  2  0
M  END

