
     RDKit          3D

 36 37  0  0  0  0  0  0  0  0999 V2000
    1.8999   -2.6126   -0.2294 C   0  0  0  0  0  0  0  0  0  0  0  0
    2.9350   -1.6287    0.2240 C   0  0  0  0  0  0  0  0  0  0  0  0
    3.4848   -0.5810   -0.4668 C   0  0  0  0  0  0  0  0  0  0  0  0
    4.4600    0.1605    0.2859 C   0  0  0  0  0  0  0  0  0  0  0  0
    5.2118    1.3454   -0.2930 C   0  0  1  0  0  0  0  0  0  0  0  0
    6.1557    0.9960   -1.4445 C   0  0  0  0  0  0  0  0  0  0  0  0
    4.2468    2.3781   -0.6301 N   0  0  0  0  0  0  0  0  0  0  0  0
    4.2156    3.2267   -1.8064 C   0  0  0  0  0  0  0  0  0  0  0  0
    3.0036    4.1662   -1.8659 C   0  0  0  0  0  0  0  0  0  0  0  0
    3.1193    5.1915   -2.9593 C   0  0  0  0  0  0  0  0  0  0  0  0
    1.9630    5.6709   -3.6681 C   0  0  0  0  0  0  0  0  0  0  0  0
    1.9944    7.0268   -3.9936 C   0  0  0  0  0  0  0  0  0  0  0  0
    3.1190    7.7162   -3.5257 C   0  0  0  0  0  0  0  0  0  0  0  0
    4.1759    6.6260   -2.6070 S   0  0  0  0  0  0  0  0  0  0  0  0
    4.6471   -0.3309    1.5637 C   0  0  0  0  0  0  0  0  0  0  0  0
    5.5420    0.1635    2.6636 C   0  0  0  0  0  0  0  0  0  0  0  0
    3.6285   -1.7138    1.8233 S   0  0  0  0  0  0  0  0  0  0  0  0
    1.6089   -2.3978   -1.2677 H   0  0  0  0  0  0  0  0  0  0  0  0
    0.9914   -2.5657    0.3930 H   0  0  0  0  0  0  0  0  0  0  0  0
    2.2741   -3.6485   -0.1891 H   0  0  0  0  0  0  0  0  0  0  0  0
    3.2041   -0.3495   -1.4966 H   0  0  0  0  0  0  0  0  0  0  0  0
    5.8119    1.7908    0.5268 H   0  0  0  0  0  0  0  0  0  0  0  0
    5.6117    0.5513   -2.2901 H   0  0  0  0  0  0  0  0  0  0  0  0
    6.8834    0.2553   -1.0866 H   0  0  0  0  0  0  0  0  0  0  0  0
    6.7073    1.8758   -1.8045 H   0  0  0  0  0  0  0  0  0  0  0  0
    3.5459    2.5661    0.0878 H   0  0  0  0  0  0  0  0  0  0  0  0
    4.2806    2.5766   -2.6939 H   0  0  0  0  0  0  0  0  0  0  0  0
    5.1684    3.7868   -1.7986 H   0  0  0  0  0  0  0  0  0  0  0  0
    2.8660    4.6164   -0.8510 H   0  0  0  0  0  0  0  0  0  0  0  0
    2.1041    3.5511   -2.0513 H   0  0  0  0  0  0  0  0  0  0  0  0
    1.1384    5.0072   -3.9438 H   0  0  0  0  0  0  0  0  0  0  0  0
    1.2160    7.5207   -4.5822 H   0  0  0  0  0  0  0  0  0  0  0  0
    3.3700    8.7689   -3.6287 H   0  0  0  0  0  0  0  0  0  0  0  0
    5.0480    0.9331    3.2812 H   0  0  0  0  0  0  0  0  0  0  0  0
    6.4703    0.6005    2.2640 H   0  0  0  0  0  0  0  0  0  0  0  0
    5.8353   -0.6545    3.3376 H   0  0  0  0  0  0  0  0  0  0  0  0
  1  2  1  0
  1 18  1  0
  1 19  1  0
  1 20  1  0
  2  3  2  0
  2 17  1  0
  3  4  1  0
  3 21  1  0
  4  5  1  0
  4 15  2  0
  5  6  1  0
  5  7  1  0
  5 22  1  1
  6 23  1  0
  6 24  1  0
  6 25  1  0
  7  8  1  0
  7 26  1  0
  8  9  1  0
  8 27  1  0
  8 28  1  0
  9 10  1  0
  9 29  1  0
  9 30  1  0
 10 11  2  0
 10 14  1  0
 11 12  1  0
 11 31  1  0
 12 13  2  0
 12 32  1  0
 13 14  1  0
 13 33  1  0
 15 16  1  0
 15 17  1  0
 16 34  1  0
 16 35  1  0
 16 36  1  0
M  END

