
     RDKit          3D

 45 47  0  0  0  0  0  0  0  0999 V2000
    3.4040   -1.4862   -0.0155 C   0  0  0  0  0  0  0  0  0  0  0  0
    3.0230   -1.7017   -1.4883 C   0  0  1  0  0  0  0  0  0  0  0  0
    1.5179   -1.9848   -1.6782 C   0  0  0  0  0  0  0  0  0  0  0  0
    0.6505   -0.7321   -1.4982 C   0  0  0  0  0  0  0  0  0  0  0  0
    1.1105    0.4092   -2.4153 C   0  0  0  0  0  0  0  0  0  0  0  0
    2.6054    0.7414   -2.2207 C   0  0  2  0  0  0  0  0  0  0  0  0
    3.1333    1.7768   -3.1074 N   0  0  0  0  0  0  0  0  0  0  0  0
    2.5729    3.1253   -3.0430 C   0  0  1  0  0  0  0  0  0  0  0  0
    2.7889    3.7549   -1.6555 C   0  0  0  0  0  0  0  0  0  0  0  0
    3.2029    4.0017   -4.1206 C   0  0  0  0  0  0  0  0  0  0  0  0
    2.4516    5.0770   -4.6758 C   0  0  0  0  0  0  0  0  0  0  0  0
    3.0000    5.9233   -5.6142 C   0  0  0  0  0  0  0  0  0  0  0  0
    4.3391    5.7482   -6.0632 C   0  0  0  0  0  0  0  0  0  0  0  0
    4.9412    6.5990   -7.0318 C   0  0  0  0  0  0  0  0  0  0  0  0
    6.2428    6.3945   -7.4405 C   0  0  0  0  0  0  0  0  0  0  0  0
    7.0020    5.3260   -6.8980 C   0  0  0  0  0  0  0  0  0  0  0  0
    6.4454    4.4829   -5.9587 C   0  0  0  0  0  0  0  0  0  0  0  0
    5.1052    4.6663   -5.5143 C   0  0  0  0  0  0  0  0  0  0  0  0
    4.5062    3.8144   -4.5442 C   0  0  0  0  0  0  0  0  0  0  0  0
    3.4555   -0.5287   -2.3916 C   0  0  0  0  0  0  0  0  0  0  0  0
    3.1395   -2.3672    0.5920 H   0  0  0  0  0  0  0  0  0  0  0  0
    2.8969   -0.6168    0.4324 H   0  0  0  0  0  0  0  0  0  0  0  0
    4.4887   -1.3216    0.0906 H   0  0  0  0  0  0  0  0  0  0  0  0
    3.5742   -2.5959   -1.8301 H   0  0  0  0  0  0  0  0  0  0  0  0
    1.1928   -2.7803   -0.9858 H   0  0  0  0  0  0  0  0  0  0  0  0
    1.3592   -2.3790   -2.6985 H   0  0  0  0  0  0  0  0  0  0  0  0
    0.6896   -0.3944   -0.4471 H   0  0  0  0  0  0  0  0  0  0  0  0
   -0.4072   -0.9747   -1.6965 H   0  0  0  0  0  0  0  0  0  0  0  0
    0.4899    1.3045   -2.2435 H   0  0  0  0  0  0  0  0  0  0  0  0
    0.9547    0.1191   -3.4725 H   0  0  0  0  0  0  0  0  0  0  0  0
    2.7395    1.0994   -1.1854 H   0  0  0  0  0  0  0  0  0  0  0  0
    3.0999    1.4464   -4.0720 H   0  0  0  0  0  0  0  0  0  0  0  0
    1.4767    3.1354   -3.2329 H   0  0  0  0  0  0  0  0  0  0  0  0
    3.8588    3.7405   -1.3952 H   0  0  0  0  0  0  0  0  0  0  0  0
    2.2309    3.2197   -0.8715 H   0  0  0  0  0  0  0  0  0  0  0  0
    2.4442    4.7998   -1.6526 H   0  0  0  0  0  0  0  0  0  0  0  0
    1.4175    5.2256   -4.3502 H   0  0  0  0  0  0  0  0  0  0  0  0
    2.4059    6.7411   -6.0318 H   0  0  0  0  0  0  0  0  0  0  0  0
    4.3533    7.4220   -7.4482 H   0  0  0  0  0  0  0  0  0  0  0  0
    6.6945    7.0557   -8.1845 H   0  0  0  0  0  0  0  0  0  0  0  0
    8.0327    5.1734   -7.2287 H   0  0  0  0  0  0  0  0  0  0  0  0
    7.0295    3.6589   -5.5394 H   0  0  0  0  0  0  0  0  0  0  0  0
    5.0880    2.9906   -4.1247 H   0  0  0  0  0  0  0  0  0  0  0  0
    4.5136   -0.2726   -2.2195 H   0  0  0  0  0  0  0  0  0  0  0  0
    3.3811   -0.8489   -3.4486 H   0  0  0  0  0  0  0  0  0  0  0  0
  1  2  1  0
  1 21  1  0
  1 22  1  0
  1 23  1  0
  2  3  1  0
  2 20  1  0
  2 24  1  6
  3  4  1  0
  3 25  1  0
  3 26  1  0
  4  5  1  0
  4 27  1  0
  4 28  1  0
  5  6  1  0
  5 29  1  0
  5 30  1  0
  6  7  1  0
  6 20  1  0
  6 31  1  1
  7  8  1  0
  7 32  1  0
  8  9  1  0
  8 10  1  0
  8 33  1  6
  9 34  1  0
  9 35  1  0
  9 36  1  0
 10 11  2  0
 10 19  1  0
 11 12  1  0
 11 37  1  0
 12 13  2  0
 12 38  1  0
 13 14  1  0
 13 18  1  0
 14 15  2  0
 14 39  1  0
 15 16  1  0
 15 40  1  0
 16 17  2  0
 16 41  1  0
 17 18  1  0
 17 42  1  0
 18 19  2  0
 19 43  1  0
 20 44  1  0
 20 45  1  0
M  END

