
     RDKit          3D

 45 47  0  0  0  0  0  0  0  0999 V2000
    1.3171   -0.3993    0.7814 C   0  0  0  0  0  0  0  0  0  0  0  0
    2.7114   -0.1121    0.2834 C   0  0  0  0  0  0  0  0  0  0  0  0
    3.3836    1.0595    0.6396 C   0  0  0  0  0  0  0  0  0  0  0  0
    4.6928    1.3045    0.1961 C   0  0  0  0  0  0  0  0  0  0  0  0
    5.3925    2.5377    0.5766 C   0  0  0  0  0  0  0  0  0  0  0  0
    4.8540    3.4779    1.3247 N   0  0  0  0  0  0  0  0  0  0  0  0
    5.8476    4.4380    1.4283 O   0  0  0  0  0  0  0  0  0  0  0  0
    6.8852    3.9788    0.7291 C   0  0  0  0  0  0  0  0  0  0  0  0
    8.1451    4.8180    0.7101 C   0  0  1  0  0  0  0  0  0  0  0  0
    7.8501    6.1004    0.4770 F   0  0  0  0  0  0  0  0  0  0  0  0
    8.7684    4.7436    1.8925 F   0  0  0  0  0  0  0  0  0  0  0  0
    8.9746    4.3875   -0.2349 F   0  0  0  0  0  0  0  0  0  0  0  0
    6.6875    2.8281    0.1824 N   0  0  0  0  0  0  0  0  0  0  0  0
    5.3439    0.3550   -0.6035 C   0  0  0  0  0  0  0  0  0  0  0  0
    4.7034   -0.8301   -0.9813 C   0  0  0  0  0  0  0  0  0  0  0  0
    5.4082   -1.8700   -1.8159 C   0  0  0  0  0  0  0  0  0  0  0  0
    3.3828   -1.0391   -0.5403 C   0  0  0  0  0  0  0  0  0  0  0  0
    2.7516   -2.2219   -0.8626 O   0  0  0  0  0  0  0  0  0  0  0  0
    1.9868   -2.2368   -2.0576 C   0  0  0  0  0  0  0  0  0  0  0  0
    1.4385   -3.6459   -2.2053 C   0  0  0  0  0  0  0  0  0  0  0  0
    0.6487   -3.6606   -3.3812 O   0  0  0  0  0  0  0  0  0  0  0  0
    0.0419   -4.8001   -3.7641 C   0  0  0  0  0  0  0  0  0  0  0  0
    0.1133   -6.0288   -3.0924 C   0  0  0  0  0  0  0  0  0  0  0  0
   -0.5598   -7.1482   -3.5871 C   0  0  0  0  0  0  0  0  0  0  0  0
   -1.3194   -7.0613   -4.7638 C   0  0  0  0  0  0  0  0  0  0  0  0
   -2.0105   -8.2113   -5.2720 C   0  0  0  0  0  0  0  0  0  0  0  0
   -2.5692   -9.1434   -5.6818 N   0  0  0  0  0  0  0  0  0  0  0  0
   -1.3988   -5.8287   -5.4465 C   0  0  0  0  0  0  0  0  0  0  0  0
   -0.7278   -4.7284   -4.9470 C   0  0  0  0  0  0  0  0  0  0  0  0
   -0.7976   -3.5588   -5.5865 F   0  0  0  0  0  0  0  0  0  0  0  0
    1.0268    0.3108    1.5684 H   0  0  0  0  0  0  0  0  0  0  0  0
    1.2445   -1.4207    1.1855 H   0  0  0  0  0  0  0  0  0  0  0  0
    0.5692   -0.3204   -0.0259 H   0  0  0  0  0  0  0  0  0  0  0  0
    2.8895    1.7942    1.2788 H   0  0  0  0  0  0  0  0  0  0  0  0
    6.3688    0.5473   -0.9263 H   0  0  0  0  0  0  0  0  0  0  0  0
    6.4848   -1.6583   -1.8805 H   0  0  0  0  0  0  0  0  0  0  0  0
    5.0170   -1.9024   -2.8472 H   0  0  0  0  0  0  0  0  0  0  0  0
    5.2730   -2.8762   -1.3906 H   0  0  0  0  0  0  0  0  0  0  0  0
    2.6050   -1.9797   -2.9359 H   0  0  0  0  0  0  0  0  0  0  0  0
    1.1523   -1.5146   -2.0131 H   0  0  0  0  0  0  0  0  0  0  0  0
    0.8336   -3.9076   -1.3186 H   0  0  0  0  0  0  0  0  0  0  0  0
    2.2704   -4.3690   -2.2778 H   0  0  0  0  0  0  0  0  0  0  0  0
    0.6965   -6.1198   -2.1762 H   0  0  0  0  0  0  0  0  0  0  0  0
   -0.4950   -8.0983   -3.0545 H   0  0  0  0  0  0  0  0  0  0  0  0
   -1.9800   -5.7231   -6.3635 H   0  0  0  0  0  0  0  0  0  0  0  0
  1  2  1  0
  1 31  1  0
  1 32  1  0
  1 33  1  0
  2  3  2  0
  2 17  1  0
  3  4  1  0
  3 34  1  0
  4  5  1  0
  4 14  2  0
  5  6  2  0
  5 13  1  0
  6  7  1  0
  7  8  1  0
  8  9  1  0
  8 13  2  0
  9 10  1  6
  9 11  1  0
  9 12  1  0
 14 15  1  0
 14 35  1  0
 15 16  1  0
 15 17  2  0
 16 36  1  0
 16 37  1  0
 16 38  1  0
 17 18  1  0
 18 19  1  0
 19 20  1  0
 19 39  1  0
 19 40  1  0
 20 21  1  0
 20 41  1  0
 20 42  1  0
 21 22  1  0
 22 23  2  0
 22 29  1  0
 23 24  1  0
 23 43  1  0
 24 25  2  0
 24 44  1  0
 25 26  1  0
 25 28  1  0
 26 27  3  0
 28 29  2  0
 28 45  1  0
 29 30  1  0
M  END

