
     RDKit          3D

 43 46  0  0  0  0  0  0  0  0999 V2000
    5.9688    3.1726    1.3998 C   0  0  0  0  0  0  0  0  0  0  0  0
    5.2110    4.2687    1.9981 N   0  0  0  0  0  0  0  0  0  0  0  0
    3.8729    4.5220    1.7796 C   0  0  0  0  0  0  0  0  0  0  0  0
    2.9062    3.6336    0.7002 S   0  0  0  0  0  0  0  0  0  0  0  0
    1.2264    4.3787    0.8624 C   0  0  0  0  0  0  0  0  0  0  0  0
    1.0071    5.6280   -0.0120 C   0  0  0  0  0  0  0  0  0  0  0  0
   -0.3916    5.9072   -0.1529 N   0  0  0  0  0  0  0  0  0  0  0  0
   -1.2344    5.0279   -0.9604 C   0  0  0  0  0  0  0  0  0  0  0  0
   -0.6988    4.1847   -1.6921 O   0  0  0  0  0  0  0  0  0  0  0  0
   -2.5938    5.3359   -0.6744 C   0  0  0  0  0  0  0  0  0  0  0  0
   -3.7718    4.8215   -1.2887 C   0  0  0  0  0  0  0  0  0  0  0  0
   -5.0105    5.2960   -0.9105 C   0  0  0  0  0  0  0  0  0  0  0  0
   -5.1543    6.3026    0.0991 C   0  0  0  0  0  0  0  0  0  0  0  0
   -4.0207    6.8061    0.7393 C   0  0  0  0  0  0  0  0  0  0  0  0
   -2.7700    6.3289    0.3613 C   0  0  0  0  0  0  0  0  0  0  0  0
   -1.2362    6.7003    1.1116 S   0  0  2  0  0  0  0  0  0  0  0  0
   -0.9061    8.1316    1.1448 O   0  0  0  0  0  0  0  0  0  0  0  0
   -0.9701    5.9565    2.3667 O   0  0  0  0  0  0  0  0  0  0  0  0
    3.4765    5.5590    2.5625 N   0  0  0  0  0  0  0  0  0  0  0  0
    4.5083    5.9607    3.2515 N   0  0  0  0  0  0  0  0  0  0  0  0
    5.5962    5.2045    2.9227 C   0  0  0  0  0  0  0  0  0  0  0  0
    6.8913    5.4475    3.5180 C   0  0  0  0  0  0  0  0  0  0  0  0
    6.9217    6.3078    4.6473 C   0  0  0  0  0  0  0  0  0  0  0  0
    8.1263    6.5962    5.2764 C   0  0  0  0  0  0  0  0  0  0  0  0
    9.3208    6.0509    4.7901 C   0  0  0  0  0  0  0  0  0  0  0  0
    9.3078    5.2174    3.6629 C   0  0  0  0  0  0  0  0  0  0  0  0
    8.1084    4.9141    3.0288 C   0  0  0  0  0  0  0  0  0  0  0  0
    5.2621    2.4320    1.0052 H   0  0  0  0  0  0  0  0  0  0  0  0
    6.5890    2.6895    2.1648 H   0  0  0  0  0  0  0  0  0  0  0  0
    6.5997    3.5346    0.5754 H   0  0  0  0  0  0  0  0  0  0  0  0
    1.0127    4.5624    1.9224 H   0  0  0  0  0  0  0  0  0  0  0  0
    0.6017    3.5590    0.4822 H   0  0  0  0  0  0  0  0  0  0  0  0
    1.4137    5.4488   -1.0188 H   0  0  0  0  0  0  0  0  0  0  0  0
    1.5127    6.5021    0.4254 H   0  0  0  0  0  0  0  0  0  0  0  0
   -3.6708    4.0602   -2.0654 H   0  0  0  0  0  0  0  0  0  0  0  0
   -5.9074    4.8986   -1.3929 H   0  0  0  0  0  0  0  0  0  0  0  0
   -6.1452    6.6716    0.3679 H   0  0  0  0  0  0  0  0  0  0  0  0
   -4.1088    7.5616    1.5241 H   0  0  0  0  0  0  0  0  0  0  0  0
    5.9843    6.7310    5.0085 H   0  0  0  0  0  0  0  0  0  0  0  0
    8.1375    7.2524    6.1487 H   0  0  0  0  0  0  0  0  0  0  0  0
   10.2674    6.2816    5.2838 H   0  0  0  0  0  0  0  0  0  0  0  0
   10.2429    4.8098    3.2739 H   0  0  0  0  0  0  0  0  0  0  0  0
    8.1319    4.2905    2.1379 H   0  0  0  0  0  0  0  0  0  0  0  0
  1  2  1  0
  1 28  1  0
  1 29  1  0
  1 30  1  0
  2  3  1  0
  2 21  1  0
  3  4  1  0
  3 19  2  0
  4  5  1  0
  5  6  1  0
  5 31  1  0
  5 32  1  0
  6  7  1  0
  6 33  1  0
  6 34  1  0
  7  8  1  0
 16  7  1  6
  8  9  2  0
  8 10  1  0
 10 11  1  0
 10 15  2  0
 11 12  2  0
 11 35  1  0
 12 13  1  0
 12 36  1  0
 13 14  2  0
 13 37  1  0
 14 15  1  0
 14 38  1  0
 15 16  1  0
 16 17  2  0
 16 18  2  0
 19 20  1  0
 20 21  2  0
 21 22  1  0
 22 23  2  0
 22 27  1  0
 23 24  1  0
 23 39  1  0
 24 25  2  0
 24 40  1  0
 25 26  1  0
 25 41  1  0
 26 27  2  0
 26 42  1  0
 27 43  1  0
M  END

