
     RDKit          3D

101112  0  0  0  0  0  0  0  0999 V2000
    0.1130    1.4691    2.3129 C   0  0  0  0  0  0  0  0  0  0  0  0
   -1.1457    1.0946    2.6259 C   0  0  0  0  0  0  0  0  0  0  0  0
   -1.8807   -0.1167    2.2927 C   0  0  0  0  0  0  0  0  0  0  0  0
   -3.0249   -0.3552    3.0909 C   0  0  0  0  0  0  0  0  0  0  0  0
   -3.8608   -1.4449    2.9196 C   0  0  0  0  0  0  0  0  0  0  0  0
   -3.5730   -2.3655    1.9006 C   0  0  0  0  0  0  0  0  0  0  0  0
   -4.4184   -3.4834    1.6891 N   0  0  0  0  0  0  0  0  0  0  0  0
   -4.6586   -4.0047    0.3927 C   0  0  0  0  0  0  0  0  0  0  0  0
   -4.7964   -5.3905    0.1924 C   0  0  0  0  0  0  0  0  0  0  0  0
   -5.0711   -5.8985   -1.0790 C   0  0  0  0  0  0  0  0  0  0  0  0
   -5.1997   -5.0441   -2.1770 C   0  0  0  0  0  0  0  0  0  0  0  0
   -5.0584   -3.6653   -1.9839 C   0  0  0  0  0  0  0  0  0  0  0  0
   -4.8009   -3.1457   -0.7158 C   0  0  0  0  0  0  0  0  0  0  0  0
   -4.8920   -4.1975    2.8331 C   0  0  0  0  0  0  0  0  0  0  0  0
   -3.9830   -4.7351    3.7303 C   0  0  0  0  0  0  0  0  0  0  0  0
   -4.4167   -5.4467    4.8726 C   0  0  0  0  0  0  0  0  0  0  0  0
   -5.7621   -5.6338    5.1065 C   0  0  0  0  0  0  0  0  0  0  0  0
   -6.7325   -5.0922    4.2180 C   0  0  0  0  0  0  0  0  0  0  0  0
   -8.1279   -5.2518    4.4527 C   0  0  0  0  0  0  0  0  0  0  0  0
   -9.0599   -4.6892    3.6074 C   0  0  0  0  0  0  0  0  0  0  0  0
   -8.6347   -3.9321    2.4877 C   0  0  0  0  0  0  0  0  0  0  0  0
   -7.2908   -3.7655    2.2237 C   0  0  0  0  0  0  0  0  0  0  0  0
   -6.3021   -4.3455    3.0675 C   0  0  0  0  0  0  0  0  0  0  0  0
   -2.4327   -2.1501    1.1088 C   0  0  0  0  0  0  0  0  0  0  0  0
   -1.5698   -1.0511    1.2647 C   0  0  0  0  0  0  0  0  0  0  0  0
   -0.4384   -0.8674    0.1997 C   0  0  1  0  0  0  0  0  0  0  0  0
    0.9540   -0.3271    0.6690 C   0  0  0  0  0  0  0  0  0  0  0  0
    2.1006   -0.8678    0.0648 C   0  0  0  0  0  0  0  0  0  0  0  0
    3.4020   -0.3783    0.2740 C   0  0  0  0  0  0  0  0  0  0  0  0
    4.4955   -0.9736   -0.4023 N   0  0  0  0  0  0  0  0  0  0  0  0
    5.7907   -1.0012    0.1748 C   0  0  0  0  0  0  0  0  0  0  0  0
    5.9622   -1.2722    1.5475 C   0  0  0  0  0  0  0  0  0  0  0  0
    7.2394   -1.3173    2.1055 C   0  0  0  0  0  0  0  0  0  0  0  0
    8.3739   -1.1130    1.3119 C   0  0  0  0  0  0  0  0  0  0  0  0
    8.2098   -0.8569   -0.0517 C   0  0  0  0  0  0  0  0  0  0  0  0
    6.9345   -0.7940   -0.6177 C   0  0  0  0  0  0  0  0  0  0  0  0
    4.3341   -1.3529   -1.7721 C   0  0  0  0  0  0  0  0  0  0  0  0
    3.9335   -0.4092   -2.7041 C   0  0  0  0  0  0  0  0  0  0  0  0
    3.7664   -0.7526   -4.0655 C   0  0  0  0  0  0  0  0  0  0  0  0
    4.0180   -2.0379   -4.4946 C   0  0  0  0  0  0  0  0  0  0  0  0
    4.4237   -3.0421   -3.5722 C   0  0  0  0  0  0  0  0  0  0  0  0
    4.6670   -4.3816   -3.9892 C   0  0  0  0  0  0  0  0  0  0  0  0
    5.0241   -5.3552   -3.0814 C   0  0  0  0  0  0  0  0  0  0  0  0
    5.1472   -5.0313   -1.7075 C   0  0  0  0  0  0  0  0  0  0  0  0
    4.9279   -3.7417   -1.2692 C   0  0  0  0  0  0  0  0  0  0  0  0
    4.5725   -2.7090   -2.1820 C   0  0  0  0  0  0  0  0  0  0  0  0
    3.5702    0.7195    1.1311 C   0  0  0  0  0  0  0  0  0  0  0  0
    2.4538    1.2635    1.7445 C   0  0  0  0  0  0  0  0  0  0  0  0
    1.1408    0.7735    1.5539 C   0  0  0  0  0  0  0  0  0  0  0  0
   -0.2406   -2.1871   -0.5704 C   0  0  0  0  0  0  0  0  0  0  0  0
    0.2235   -3.4107   -0.0868 C   0  0  0  0  0  0  0  0  0  0  0  0
    0.3387   -4.4943   -0.9649 C   0  0  0  0  0  0  0  0  0  0  0  0
   -0.0085   -4.3558   -2.3167 C   0  0  0  0  0  0  0  0  0  0  0  0
   -0.4760   -3.1338   -2.8051 C   0  0  0  0  0  0  0  0  0  0  0  0
   -0.5903   -2.0501   -1.9249 C   0  0  0  0  0  0  0  0  0  0  0  0
   -1.0429   -0.6737   -2.1565 C   0  0  0  0  0  0  0  0  0  0  0  0
   -1.4965   -0.0559   -3.3265 C   0  0  0  0  0  0  0  0  0  0  0  0
   -1.8772    1.2885   -3.2788 C   0  0  0  0  0  0  0  0  0  0  0  0
   -1.8040    2.0002   -2.0753 C   0  0  0  0  0  0  0  0  0  0  0  0
   -1.3500    1.3826   -0.9015 C   0  0  0  0  0  0  0  0  0  0  0  0
   -0.9678    0.0419   -0.9422 C   0  0  0  0  0  0  0  0  0  0  0  0
    0.4492    2.4158    2.7481 H   0  0  0  0  0  0  0  0  0  0  0  0
   -1.6952    1.7773    3.2819 H   0  0  0  0  0  0  0  0  0  0  0  0
   -3.2587    0.3679    3.8767 H   0  0  0  0  0  0  0  0  0  0  0  0
   -4.7370   -1.5801    3.5556 H   0  0  0  0  0  0  0  0  0  0  0  0
   -4.6871   -6.0699    1.0391 H   0  0  0  0  0  0  0  0  0  0  0  0
   -5.1753   -6.9789   -1.2104 H   0  0  0  0  0  0  0  0  0  0  0  0
   -5.4088   -5.4461   -3.1711 H   0  0  0  0  0  0  0  0  0  0  0  0
   -5.1621   -2.9796   -2.8290 H   0  0  0  0  0  0  0  0  0  0  0  0
   -4.7096   -2.0670   -0.5785 H   0  0  0  0  0  0  0  0  0  0  0  0
   -2.9154   -4.6062    3.5402 H   0  0  0  0  0  0  0  0  0  0  0  0
   -3.6744   -5.8603    5.5597 H   0  0  0  0  0  0  0  0  0  0  0  0
   -6.1024   -6.1941    5.9813 H   0  0  0  0  0  0  0  0  0  0  0  0
   -8.4481   -5.8274    5.3256 H   0  0  0  0  0  0  0  0  0  0  0  0
  -10.1276   -4.8190    3.8019 H   0  0  0  0  0  0  0  0  0  0  0  0
   -9.3780   -3.4753    1.8293 H   0  0  0  0  0  0  0  0  0  0  0  0
   -6.9738   -3.1794    1.3611 H   0  0  0  0  0  0  0  0  0  0  0  0
   -2.2367   -2.8740    0.3237 H   0  0  0  0  0  0  0  0  0  0  0  0
    2.0006   -1.6993   -0.6261 H   0  0  0  0  0  0  0  0  0  0  0  0
    5.0869   -1.4512    2.1747 H   0  0  0  0  0  0  0  0  0  0  0  0
    7.3487   -1.5291    3.1726 H   0  0  0  0  0  0  0  0  0  0  0  0
    9.3729   -1.1562    1.7521 H   0  0  0  0  0  0  0  0  0  0  0  0
    9.0841   -0.6936   -0.6875 H   0  0  0  0  0  0  0  0  0  0  0  0
    6.8199   -0.5836   -1.6821 H   0  0  0  0  0  0  0  0  0  0  0  0
    3.7465    0.6145   -2.3736 H   0  0  0  0  0  0  0  0  0  0  0  0
    3.4492    0.0148   -4.7757 H   0  0  0  0  0  0  0  0  0  0  0  0
    3.9021   -2.3054   -5.5482 H   0  0  0  0  0  0  0  0  0  0  0  0
    4.5599   -4.6259   -5.0497 H   0  0  0  0  0  0  0  0  0  0  0  0
    5.2069   -6.3793   -3.4170 H   0  0  0  0  0  0  0  0  0  0  0  0
    5.4165   -5.8103   -0.9897 H   0  0  0  0  0  0  0  0  0  0  0  0
    5.0212   -3.5038   -0.2097 H   0  0  0  0  0  0  0  0  0  0  0  0
    4.5590    1.1451    1.3060 H   0  0  0  0  0  0  0  0  0  0  0  0
    2.5869    2.1206    2.4099 H   0  0  0  0  0  0  0  0  0  0  0  0
    0.4978   -3.5234    0.9650 H   0  0  0  0  0  0  0  0  0  0  0  0
    0.7049   -5.4553   -0.5954 H   0  0  0  0  0  0  0  0  0  0  0  0
    0.0886   -5.2100   -2.9913 H   0  0  0  0  0  0  0  0  0  0  0  0
   -0.7467   -3.0274   -3.8584 H   0  0  0  0  0  0  0  0  0  0  0  0
   -1.5529   -0.6140   -4.2647 H   0  0  0  0  0  0  0  0  0  0  0  0
   -2.2340    1.7859   -4.1845 H   0  0  0  0  0  0  0  0  0  0  0  0
   -2.1049    3.0508   -2.0475 H   0  0  0  0  0  0  0  0  0  0  0  0
   -1.3001    1.9502    0.0277 H   0  0  0  0  0  0  0  0  0  0  0  0
  1  2  2  0
  1 49  1  0
  1 62  1  0
  2  3  1  0
  2 63  1  0
  3  4  2  0
  3 25  1  0
  4  5  1  0
  4 64  1  0
  5  6  2  0
  5 65  1  0
  6  7  1  0
  6 24  1  0
  7  8  1  0
  7 14  1  0
  8  9  2  0
  8 13  1  0
  9 10  1  0
  9 66  1  0
 10 11  2  0
 10 67  1  0
 11 12  1  0
 11 68  1  0
 12 13  2  0
 12 69  1  0
 13 70  1  0
 14 15  2  0
 14 23  1  0
 15 16  1  0
 15 71  1  0
 16 17  2  0
 16 72  1  0
 17 18  1  0
 17 73  1  0
 18 19  1  0
 18 23  2  0
 19 20  2  0
 19 74  1  0
 20 21  1  0
 20 75  1  0
 21 22  2  0
 21 76  1  0
 22 23  1  0
 22 77  1  0
 24 25  2  0
 24 78  1  0
 26 25  1  1
 26 27  1  0
 26 50  1  0
 26 61  1  0
 27 28  2  0
 27 49  1  0
 28 29  1  0
 28 79  1  0
 29 30  1  0
 29 47  2  0
 30 31  1  0
 30 37  1  0
 31 32  2  0
 31 36  1  0
 32 33  1  0
 32 80  1  0
 33 34  2  0
 33 81  1  0
 34 35  1  0
 34 82  1  0
 35 36  2  0
 35 83  1  0
 36 84  1  0
 37 38  2  0
 37 46  1  0
 38 39  1  0
 38 85  1  0
 39 40  2  0
 39 86  1  0
 40 41  1  0
 40 87  1  0
 41 42  1  0
 41 46  2  0
 42 43  2  0
 42 88  1  0
 43 44  1  0
 43 89  1  0
 44 45  2  0
 44 90  1  0
 45 46  1  0
 45 91  1  0
 47 48  1  0
 47 92  1  0
 48 49  2  0
 48 93  1  0
 50 51  2  0
 50 55  1  0
 51 52  1  0
 51 94  1  0
 52 53  2  0
 52 95  1  0
 53 54  1  0
 53 96  1  0
 54 55  2  0
 54 97  1  0
 55 56  1  0
 56 57  2  0
 56 61  1  0
 57 58  1  0
 57 98  1  0
 58 59  2  0
 58 99  1  0
 59 60  1  0
 59100  1  0
 60 61  2  0
 60101  1  0
M  END

