
     RDKit          3D

 54 58  0  0  0  0  0  0  0  0999 V2000
    2.6992   -1.0566   -0.6079 O   0  0  0  0  0  0  0  0  0  0  0  0
    3.1024   -0.1291    0.0799 C   0  0  0  0  0  0  0  0  0  0  0  0
    2.6254   -0.0234    1.5114 C   0  0  0  0  0  0  0  0  0  0  0  0
    3.4841    0.2067    2.5961 C   0  0  0  0  0  0  0  0  0  0  0  0
    2.9877    0.1749    3.9031 C   0  0  0  0  0  0  0  0  0  0  0  0
    1.6400   -0.0864    4.1469 C   0  0  0  0  0  0  0  0  0  0  0  0
    0.7882   -0.3314    3.0611 C   0  0  0  0  0  0  0  0  0  0  0  0
   -0.5838   -0.6190    3.3037 N   0  0  0  0  0  0  0  0  0  0  0  0
   -1.4949   -1.2924    2.5580 C   0  0  0  0  0  0  0  0  0  0  0  0
   -2.6376   -1.3070    3.2038 N   0  0  0  0  0  0  0  0  0  0  0  0
   -2.4207   -0.6346    4.3595 N   0  0  0  0  0  0  0  0  0  0  0  0
   -1.2075   -0.2211    4.4365 N   0  0  0  0  0  0  0  0  0  0  0  0
    1.2744   -0.3069    1.7524 C   0  0  0  0  0  0  0  0  0  0  0  0
    4.0035    0.7993   -0.3857 N   0  0  0  0  0  0  0  0  0  0  0  0
    4.5956    0.6112   -1.7106 C   0  0  0  0  0  0  0  0  0  0  0  0
    4.1756    1.7114   -2.6814 C   0  0  0  0  0  0  0  0  0  0  0  0
    4.4595    3.0267   -2.1099 N   0  0  0  0  0  0  0  0  0  0  0  0
    4.6110    4.1066   -2.9854 C   0  0  0  0  0  0  0  0  0  0  0  0
    4.8756    5.4275   -2.5384 C   0  0  0  0  0  0  0  0  0  0  0  0
    5.0549    6.4137   -3.4801 C   0  0  0  0  0  0  0  0  0  0  0  0
    4.9656    6.0586   -4.8546 C   0  0  0  0  0  0  0  0  0  0  0  0
    5.0718    6.9808   -5.8872 N   0  0  0  0  0  0  0  0  0  0  0  0
    5.2259    6.4888   -7.2569 C   0  0  0  0  0  0  0  0  0  0  0  0
    4.7515    7.5413   -8.2501 C   0  0  0  0  0  0  0  0  0  0  0  0
    5.4004    8.7823   -8.0462 O   0  0  0  0  0  0  0  0  0  0  0  0
    5.1558    9.2721   -6.7492 C   0  0  0  0  0  0  0  0  0  0  0  0
    5.6408    8.3029   -5.6697 C   0  0  0  0  0  0  0  0  0  0  0  0
    4.7512    4.7843   -5.1991 N   0  0  0  0  0  0  0  0  0  0  0  0
    4.5569    3.8437   -4.2917 N   0  0  0  0  0  0  0  0  0  0  0  0
    3.8401    3.2230   -0.8087 C   0  0  0  0  0  0  0  0  0  0  0  0
    4.2535    2.1210    0.1747 C   0  0  0  0  0  0  0  0  0  0  0  0
    4.5470    0.3882    2.4240 H   0  0  0  0  0  0  0  0  0  0  0  0
    3.6620    0.3450    4.7457 H   0  0  0  0  0  0  0  0  0  0  0  0
    1.2380   -0.1114    5.1597 H   0  0  0  0  0  0  0  0  0  0  0  0
   -1.2884   -1.7561    1.5963 H   0  0  0  0  0  0  0  0  0  0  0  0
    0.6248   -0.5107    0.9005 H   0  0  0  0  0  0  0  0  0  0  0  0
    4.2782   -0.3691   -2.0845 H   0  0  0  0  0  0  0  0  0  0  0  0
    5.6955    0.6184   -1.6040 H   0  0  0  0  0  0  0  0  0  0  0  0
    3.0970    1.6099   -2.9206 H   0  0  0  0  0  0  0  0  0  0  0  0
    4.7189    1.6149   -3.6284 H   0  0  0  0  0  0  0  0  0  0  0  0
    4.9634    5.6702   -1.4788 H   0  0  0  0  0  0  0  0  0  0  0  0
    5.2692    7.4325   -3.1590 H   0  0  0  0  0  0  0  0  0  0  0  0
    4.6519    5.5609   -7.3633 H   0  0  0  0  0  0  0  0  0  0  0  0
    6.2891    6.2430   -7.4593 H   0  0  0  0  0  0  0  0  0  0  0  0
    3.6525    7.6679   -8.1624 H   0  0  0  0  0  0  0  0  0  0  0  0
    4.9817    7.2223   -9.2777 H   0  0  0  0  0  0  0  0  0  0  0  0
    4.0706    9.4579   -6.6055 H   0  0  0  0  0  0  0  0  0  0  0  0
    5.6861   10.2323   -6.6560 H   0  0  0  0  0  0  0  0  0  0  0  0
    5.3307    8.7010   -4.6937 H   0  0  0  0  0  0  0  0  0  0  0  0
    6.7513    8.2662   -5.6802 H   0  0  0  0  0  0  0  0  0  0  0  0
    2.7313    3.2301   -0.8942 H   0  0  0  0  0  0  0  0  0  0  0  0
    4.1392    4.1883   -0.3800 H   0  0  0  0  0  0  0  0  0  0  0  0
    3.6936    2.2508    1.1079 H   0  0  0  0  0  0  0  0  0  0  0  0
    5.3309    2.2273    0.4005 H   0  0  0  0  0  0  0  0  0  0  0  0
  1  2  2  0
  2  3  1  0
  2 14  1  0
  3  4  2  0
  3 13  1  0
  4  5  1  0
  4 32  1  0
  5  6  2  0
  5 33  1  0
  6  7  1  0
  6 34  1  0
  7  8  1  0
  7 13  2  0
  8  9  1  0
  8 12  1  0
  9 10  2  0
  9 35  1  0
 10 11  1  0
 11 12  2  0
 13 36  1  0
 14 15  1  0
 14 31  1  0
 15 16  1  0
 15 37  1  0
 15 38  1  0
 16 17  1  0
 16 39  1  0
 16 40  1  0
 17 18  1  0
 17 30  1  0
 18 19  2  0
 18 29  1  0
 19 20  1  0
 19 41  1  0
 20 21  2  0
 20 42  1  0
 21 22  1  0
 21 28  1  0
 22 23  1  0
 22 27  1  0
 23 24  1  0
 23 43  1  0
 23 44  1  0
 24 25  1  0
 24 45  1  0
 24 46  1  0
 25 26  1  0
 26 27  1  0
 26 47  1  0
 26 48  1  0
 27 49  1  0
 27 50  1  0
 28 29  2  0
 30 31  1  0
 30 51  1  0
 30 52  1  0
 31 53  1  0
 31 54  1  0
M  END

