
     RDKit          3D

 41 41  0  0  0  0  0  0  0  0999 V2000
    3.1671    1.2831   -0.2625 C   0  0  0  0  0  0  0  0  0  0  0  0
    2.3872    0.0959   -0.2781 O   0  0  0  0  0  0  0  0  0  0  0  0
    3.0343   -1.0807   -0.2996 C   0  0  0  0  0  0  0  0  0  0  0  0
    4.3570   -1.0934   -0.2202 N   0  0  0  0  0  0  0  0  0  0  0  0
    4.9730   -2.2780   -0.1542 C   0  0  0  0  0  0  0  0  0  0  0  0
    4.3070   -3.4959   -0.1843 C   0  0  0  0  0  0  0  0  0  0  0  0
    2.9009   -3.5014   -0.3203 C   0  0  0  0  0  0  0  0  0  0  0  0
    2.1457   -4.6903   -0.3620 N   0  0  0  0  0  0  0  0  0  0  0  0
    2.7426   -5.8852    0.2046 C   0  0  0  0  0  0  0  0  0  0  0  0
    1.4098   -4.9613   -1.5952 C   0  0  0  0  0  0  0  0  0  0  0  0
    2.2426   -2.2544   -0.3685 C   0  0  0  0  0  0  0  0  0  0  0  0
    0.8350   -2.1874   -0.3712 N   0  0  0  0  0  0  0  0  0  0  0  0
    0.0642   -1.5195   -1.3032 C   0  0  0  0  0  0  0  0  0  0  0  0
    0.5415   -0.9508   -2.2663 O   0  0  0  0  0  0  0  0  0  0  0  0
   -1.4313   -1.5274   -1.0006 C   0  0  0  0  0  0  0  0  0  0  0  0
   -1.8292   -0.6141    0.1738 C   0  0  0  0  0  0  0  0  0  0  0  0
   -1.3411    0.8421    0.0901 C   0  0  1  0  0  0  0  0  0  0  0  0
   -1.7458    1.5369   -1.2188 C   0  0  0  0  0  0  0  0  0  0  0  0
   -1.7953    1.5309    1.3028 N   0  0  0  0  0  0  0  0  0  0  0  0
    2.4483    2.1128   -0.2584 H   0  0  0  0  0  0  0  0  0  0  0  0
    3.8111    1.3467   -1.1531 H   0  0  0  0  0  0  0  0  0  0  0  0
    3.8098    1.3304    0.6304 H   0  0  0  0  0  0  0  0  0  0  0  0
    6.0661   -2.2538   -0.0744 H   0  0  0  0  0  0  0  0  0  0  0  0
    4.8722   -4.4263   -0.1385 H   0  0  0  0  0  0  0  0  0  0  0  0
    3.1893   -5.6643    1.1845 H   0  0  0  0  0  0  0  0  0  0  0  0
    3.5234   -6.3406   -0.4411 H   0  0  0  0  0  0  0  0  0  0  0  0
    1.9567   -6.6433    0.3516 H   0  0  0  0  0  0  0  0  0  0  0  0
    1.0111   -4.0365   -2.0271 H   0  0  0  0  0  0  0  0  0  0  0  0
    0.5683   -5.6443   -1.3921 H   0  0  0  0  0  0  0  0  0  0  0  0
    2.0574   -5.4378   -2.3600 H   0  0  0  0  0  0  0  0  0  0  0  0
    0.3668   -2.8262    0.2651 H   0  0  0  0  0  0  0  0  0  0  0  0
   -1.7597   -2.5580   -0.7770 H   0  0  0  0  0  0  0  0  0  0  0  0
   -1.9342   -1.2211   -1.9281 H   0  0  0  0  0  0  0  0  0  0  0  0
   -1.4589   -1.0295    1.1250 H   0  0  0  0  0  0  0  0  0  0  0  0
   -2.9328   -0.6161    0.2505 H   0  0  0  0  0  0  0  0  0  0  0  0
   -0.2378    0.8220    0.1357 H   0  0  0  0  0  0  0  0  0  0  0  0
   -2.8416    1.5112   -1.3596 H   0  0  0  0  0  0  0  0  0  0  0  0
   -1.2682    1.0693   -2.0936 H   0  0  0  0  0  0  0  0  0  0  0  0
   -1.4374    2.5955   -1.1993 H   0  0  0  0  0  0  0  0  0  0  0  0
   -2.8099    1.6566    1.2672 H   0  0  0  0  0  0  0  0  0  0  0  0
   -1.4033    2.4727    1.3357 H   0  0  0  0  0  0  0  0  0  0  0  0
  1  2  1  0
  1 20  1  0
  1 21  1  0
  1 22  1  0
  2  3  1  0
  3  4  2  0
  3 11  1  0
  4  5  1  0
  5  6  2  0
  5 23  1  0
  6  7  1  0
  6 24  1  0
  7  8  1  0
  7 11  2  0
  8  9  1  0
  8 10  1  0
  9 25  1  0
  9 26  1  0
  9 27  1  0
 10 28  1  0
 10 29  1  0
 10 30  1  0
 11 12  1  0
 12 13  1  0
 12 31  1  0
 13 14  2  0
 13 15  1  0
 15 16  1  0
 15 32  1  0
 15 33  1  0
 16 17  1  0
 16 34  1  0
 16 35  1  0
 17 18  1  0
 17 19  1  0
 17 36  1  6
 18 37  1  0
 18 38  1  0
 18 39  1  0
 19 40  1  0
 19 41  1  0
M  END

