
     RDKit          3D

 26 27  0  0  0  0  0  0  0  0999 V2000
    2.5747   -0.7146    1.0316 C   0  0  0  0  0  0  0  0  0  0  0  0
    2.3970    0.0770   -0.1612 N   0  0  0  0  0  0  0  0  0  0  0  0
    1.9117    1.4252    0.0417 C   0  0  0  0  0  0  0  0  0  0  0  0
    3.3008   -0.1196   -1.2080 C   0  0  0  0  0  0  0  0  0  0  0  0
    3.4765    0.8278   -2.1237 N   0  0  0  0  0  0  0  0  0  0  0  0
    4.3793    0.2313   -3.0404 O   0  0  0  0  0  0  0  0  0  0  0  0
    4.7983   -0.9805   -2.4696 C   0  0  0  0  0  0  0  0  0  0  0  0
    4.9511   -2.0483   -3.5328 C   0  0  0  0  0  0  0  0  0  0  0  0
    5.5118   -3.3368   -3.0243 C   0  0  0  0  0  0  0  0  0  0  0  0
    5.3957   -3.7417   -1.6572 C   0  0  0  0  0  0  0  0  0  0  0  0
    6.0952   -5.2679   -1.3923 S   0  0  0  0  0  0  0  0  0  0  0  0
    6.5142   -5.2967   -3.1381 C   0  0  0  0  0  0  0  0  0  0  0  0
    7.1609   -6.3209   -3.6884 N   0  0  0  0  0  0  0  0  0  0  0  0
    6.1340   -4.2272   -3.8116 N   0  0  0  0  0  0  0  0  0  0  0  0
    4.0051   -1.2508   -1.3587 N   0  0  0  0  0  0  0  0  0  0  0  0
    1.6537   -0.6809    1.6375 H   0  0  0  0  0  0  0  0  0  0  0  0
    3.4141   -0.3664    1.6751 H   0  0  0  0  0  0  0  0  0  0  0  0
    2.7736   -1.7589    0.7592 H   0  0  0  0  0  0  0  0  0  0  0  0
    0.9922    1.4002    0.6504 H   0  0  0  0  0  0  0  0  0  0  0  0
    1.6869    1.8836   -0.9296 H   0  0  0  0  0  0  0  0  0  0  0  0
    2.6474    2.0815    0.5557 H   0  0  0  0  0  0  0  0  0  0  0  0
    5.5922   -1.6991   -4.3563 H   0  0  0  0  0  0  0  0  0  0  0  0
    3.9810   -2.3223   -4.0122 H   0  0  0  0  0  0  0  0  0  0  0  0
    4.8950   -3.1113   -0.9118 H   0  0  0  0  0  0  0  0  0  0  0  0
    7.4508   -7.1313   -3.1539 H   0  0  0  0  0  0  0  0  0  0  0  0
    7.3744   -6.2763   -4.6814 H   0  0  0  0  0  0  0  0  0  0  0  0
  1  2  1  0
  1 16  1  0
  1 17  1  0
  1 18  1  0
  2  3  1  0
  2  4  1  0
  3 19  1  0
  3 20  1  0
  3 21  1  0
  4  5  2  0
  4 15  1  0
  5  6  1  0
  6  7  1  0
  7  8  1  0
  7 15  2  0
  8  9  1  0
  8 22  1  0
  8 23  1  0
  9 10  2  0
  9 14  1  0
 10 11  1  0
 10 24  1  0
 11 12  1  0
 12 13  1  0
 12 14  2  0
 13 25  1  0
 13 26  1  0
M  END

