
     RDKit          3D

 49 51  0  0  0  0  0  0  0  0999 V2000
    1.3863    0.5031    0.9483 C   0  0  0  0  0  0  0  0  0  0  0  0
    2.4316    0.1934    0.0527 O   0  0  0  0  0  0  0  0  0  0  0  0
    2.9660    1.1885   -0.6970 C   0  0  0  0  0  0  0  0  0  0  0  0
    2.5463    2.5074   -0.6734 C   0  0  0  0  0  0  0  0  0  0  0  0
    3.1775    3.4738   -1.5034 C   0  0  0  0  0  0  0  0  0  0  0  0
    2.7615    4.7625   -1.4464 N   0  0  0  0  0  0  0  0  0  0  0  0
    3.3229    5.6941   -2.2003 C   0  0  0  0  0  0  0  0  0  0  0  0
    2.7971    6.9830   -2.0983 N   0  0  0  0  0  0  0  0  0  0  0  0
    1.5239    7.1224   -1.4128 C   0  0  0  0  0  0  0  0  0  0  0  0
    3.6809    8.1251   -1.8925 C   0  0  0  0  0  0  0  0  0  0  0  0
    4.3616    5.3758   -3.1627 C   0  0  0  0  0  0  0  0  0  0  0  0
    4.9050    6.3514   -4.1848 C   0  0  0  0  0  0  0  0  0  0  0  0
    6.1138    7.0414   -3.7281 N   0  0  0  0  0  0  0  0  0  0  0  0
    6.7276    7.8929   -4.7079 C   0  0  1  0  0  0  0  0  0  0  0  0
    8.2154    8.0662   -4.7287 C   0  0  0  0  0  0  0  0  0  0  0  0
    7.5323    7.3518   -5.8761 C   0  0  0  0  0  0  0  0  0  0  0  0
    4.7998    4.0682   -3.1999 C   0  0  0  0  0  0  0  0  0  0  0  0
    4.2470    3.0727   -2.3575 C   0  0  0  0  0  0  0  0  0  0  0  0
    4.6637    1.7073   -2.3733 C   0  0  0  0  0  0  0  0  0  0  0  0
    5.6579    1.3552   -3.2420 O   0  0  0  0  0  0  0  0  0  0  0  0
    6.8597    0.8303   -2.6886 C   0  0  0  0  0  0  0  0  0  0  0  0
    4.0360    0.7747   -1.5592 C   0  0  0  0  0  0  0  0  0  0  0  0
    4.4502   -0.5298   -1.5554 O   0  0  0  0  0  0  0  0  0  0  0  0
    3.6306   -1.4400   -2.2762 C   0  0  0  0  0  0  0  0  0  0  0  0
    1.1161   -0.4357    1.4501 H   0  0  0  0  0  0  0  0  0  0  0  0
    0.4999    0.9002    0.4220 H   0  0  0  0  0  0  0  0  0  0  0  0
    1.7058    1.2393    1.7068 H   0  0  0  0  0  0  0  0  0  0  0  0
    1.7393    2.8535   -0.0303 H   0  0  0  0  0  0  0  0  0  0  0  0
    1.6191    7.0397   -0.3123 H   0  0  0  0  0  0  0  0  0  0  0  0
    0.8233    6.3444   -1.7405 H   0  0  0  0  0  0  0  0  0  0  0  0
    1.1046    8.1130   -1.6525 H   0  0  0  0  0  0  0  0  0  0  0  0
    3.2687    9.0238   -2.3830 H   0  0  0  0  0  0  0  0  0  0  0  0
    4.6860    7.9348   -2.2903 H   0  0  0  0  0  0  0  0  0  0  0  0
    3.7819    8.3527   -0.8108 H   0  0  0  0  0  0  0  0  0  0  0  0
    4.1399    7.1111   -4.4160 H   0  0  0  0  0  0  0  0  0  0  0  0
    5.0855    5.7958   -5.1285 H   0  0  0  0  0  0  0  0  0  0  0  0
    6.7795    6.3710   -3.3475 H   0  0  0  0  0  0  0  0  0  0  0  0
    6.1300    8.7899   -4.9149 H   0  0  0  0  0  0  0  0  0  0  0  0
    8.8071    7.4618   -4.0328 H   0  0  0  0  0  0  0  0  0  0  0  0
    8.6228    9.0672   -4.8959 H   0  0  0  0  0  0  0  0  0  0  0  0
    7.6613    6.2666   -5.9408 H   0  0  0  0  0  0  0  0  0  0  0  0
    7.4689    7.8561   -6.8452 H   0  0  0  0  0  0  0  0  0  0  0  0
    5.5561    3.7649   -3.9284 H   0  0  0  0  0  0  0  0  0  0  0  0
    7.5413    0.6541   -3.5329 H   0  0  0  0  0  0  0  0  0  0  0  0
    6.6808   -0.1142   -2.1537 H   0  0  0  0  0  0  0  0  0  0  0  0
    7.3261    1.5559   -1.9978 H   0  0  0  0  0  0  0  0  0  0  0  0
    4.1088   -2.4272   -2.2019 H   0  0  0  0  0  0  0  0  0  0  0  0
    3.5565   -1.1544   -3.3405 H   0  0  0  0  0  0  0  0  0  0  0  0
    2.6187   -1.4986   -1.8424 H   0  0  0  0  0  0  0  0  0  0  0  0
  1  2  1  0
  1 25  1  0
  1 26  1  0
  1 27  1  0
  2  3  1  0
  3  4  2  0
  3 22  1  0
  4  5  1  0
  4 28  1  0
  5  6  2  0
  5 18  1  0
  6  7  1  0
  7  8  1  0
  7 11  2  0
  8  9  1  0
  8 10  1  0
  9 29  1  0
  9 30  1  0
  9 31  1  0
 10 32  1  0
 10 33  1  0
 10 34  1  0
 11 12  1  0
 11 17  1  0
 12 13  1  0
 12 35  1  0
 12 36  1  0
 13 14  1  0
 13 37  1  0
 14 15  1  0
 14 16  1  0
 14 38  1  6
 15 16  1  0
 15 39  1  0
 15 40  1  0
 16 41  1  0
 16 42  1  0
 17 18  2  0
 17 43  1  0
 18 19  1  0
 19 20  1  0
 19 22  2  0
 20 21  1  0
 21 44  1  0
 21 45  1  0
 21 46  1  0
 22 23  1  0
 23 24  1  0
 24 47  1  0
 24 48  1  0
 24 49  1  0
M  END

