
     RDKit          3D

 70 72  0  0  0  0  0  0  0  0999 V2000
    1.3717   -1.8160    0.5681 C   0  0  0  0  0  0  0  0  0  0  0  0
    2.7952   -1.4570    0.2210 C   0  0  0  0  0  0  0  0  0  0  0  0
    3.2243   -0.1202    0.2417 C   0  0  0  0  0  0  0  0  0  0  0  0
    4.5297    0.1930   -0.1177 C   0  0  0  0  0  0  0  0  0  0  0  0
    5.4462   -0.7892   -0.5269 C   0  0  0  0  0  0  0  0  0  0  0  0
    6.7941   -0.2711   -0.9548 C   0  0  0  0  0  0  0  0  0  0  0  0
    7.2629    0.7531   -0.4862 O   0  0  0  0  0  0  0  0  0  0  0  0
    7.4215   -0.9999   -1.9524 N   0  0  0  0  0  0  0  0  0  0  0  0
    8.6407   -0.7410   -2.6013 C   0  0  0  0  0  0  0  0  0  0  0  0
    9.5202    0.2946   -2.2310 C   0  0  0  0  0  0  0  0  0  0  0  0
   10.7193    0.4606   -2.9218 C   0  0  0  0  0  0  0  0  0  0  0  0
   11.0839   -0.3726   -3.9912 C   0  0  0  0  0  0  0  0  0  0  0  0
   12.3908   -0.1810   -4.6975 C   0  0  0  0  0  0  0  0  0  0  0  0
   13.4844    0.2134   -4.1549 N   0  0  0  0  0  0  0  0  0  0  0  0
   12.3808   -0.5189   -6.0409 N   0  0  0  0  0  0  0  0  0  0  0  0
   10.1933   -1.3956   -4.3596 C   0  0  0  0  0  0  0  0  0  0  0  0
    8.9958   -1.5804   -3.6749 C   0  0  0  0  0  0  0  0  0  0  0  0
    5.0408   -2.1537   -0.5018 C   0  0  0  0  0  0  0  0  0  0  0  0
    5.9353   -3.1742   -0.8463 N   0  0  0  0  0  0  0  0  0  0  0  0
    5.6142   -4.5829   -0.7597 C   0  0  0  0  0  0  0  0  0  0  0  0
    5.5463   -5.1929    0.6387 C   0  0  0  0  0  0  0  0  0  0  0  0
    6.0623   -4.5366    1.7635 C   0  0  0  0  0  0  0  0  0  0  0  0
    6.0237   -5.1360    3.0255 C   0  0  0  0  0  0  0  0  0  0  0  0
    6.6154   -4.4366    4.2370 C   0  0  0  0  0  0  0  0  0  0  0  0
    6.0229   -4.8134    5.4606 O   0  0  0  0  0  0  0  0  0  0  0  0
    5.4646   -6.4125    3.1708 C   0  0  0  0  0  0  0  0  0  0  0  0
    4.9526   -7.0977    2.0615 C   0  0  0  0  0  0  0  0  0  0  0  0
    4.4270   -8.3470    2.0853 O   0  0  0  0  0  0  0  0  0  0  0  0
    4.3476   -9.1092    3.3039 C   0  0  1  0  0  0  0  0  0  0  0  0
    3.1193   -8.7021    4.1139 C   0  0  0  0  0  0  0  0  0  0  0  0
    4.3235  -10.5729    2.8852 C   0  0  0  0  0  0  0  0  0  0  0  0
    4.9897   -6.4695    0.7950 C   0  0  0  0  0  0  0  0  0  0  0  0
    4.5315   -7.1248   -0.3292 O   0  0  0  0  0  0  0  0  0  0  0  0
    3.1619   -7.5133   -0.4005 C   0  0  0  0  0  0  0  0  0  0  0  0
    2.7508   -7.6242   -1.8687 C   0  0  0  0  0  0  0  0  0  0  0  0
    1.6338   -7.9141   -2.1964 O   0  0  0  0  0  0  0  0  0  0  0  0
    3.7324   -7.3681   -2.7442 O   0  0  0  0  0  0  0  0  0  0  0  0
    3.7137   -2.4513   -0.1333 C   0  0  0  0  0  0  0  0  0  0  0  0
    0.9865   -1.1876    1.3861 H   0  0  0  0  0  0  0  0  0  0  0  0
    1.2763   -2.8701    0.8688 H   0  0  0  0  0  0  0  0  0  0  0  0
    0.7065   -1.6599   -0.2993 H   0  0  0  0  0  0  0  0  0  0  0  0
    2.5335    0.6729    0.5386 H   0  0  0  0  0  0  0  0  0  0  0  0
    4.8784    1.2274   -0.1046 H   0  0  0  0  0  0  0  0  0  0  0  0
    6.8861   -1.7748   -2.3328 H   0  0  0  0  0  0  0  0  0  0  0  0
    9.2454    0.9601   -1.4166 H   0  0  0  0  0  0  0  0  0  0  0  0
   11.3846    1.2780   -2.6318 H   0  0  0  0  0  0  0  0  0  0  0  0
   13.3689    0.3091   -3.1441 H   0  0  0  0  0  0  0  0  0  0  0  0
   11.5346   -0.3179   -6.5624 H   0  0  0  0  0  0  0  0  0  0  0  0
   13.2423   -0.2839   -6.5250 H   0  0  0  0  0  0  0  0  0  0  0  0
   10.4559   -2.0678   -5.1792 H   0  0  0  0  0  0  0  0  0  0  0  0
    8.3227   -2.3905   -3.9723 H   0  0  0  0  0  0  0  0  0  0  0  0
    6.9093   -2.9594   -0.6644 H   0  0  0  0  0  0  0  0  0  0  0  0
    6.3833   -5.1247   -1.3382 H   0  0  0  0  0  0  0  0  0  0  0  0
    4.6724   -4.7744   -1.2954 H   0  0  0  0  0  0  0  0  0  0  0  0
    6.4800   -3.5331    1.6559 H   0  0  0  0  0  0  0  0  0  0  0  0
    6.5840   -3.3405    4.0796 H   0  0  0  0  0  0  0  0  0  0  0  0
    7.6821   -4.7061    4.3294 H   0  0  0  0  0  0  0  0  0  0  0  0
    5.0950   -4.5416    5.4385 H   0  0  0  0  0  0  0  0  0  0  0  0
    5.4415   -6.8511    4.1674 H   0  0  0  0  0  0  0  0  0  0  0  0
    5.2627   -8.9231    3.8925 H   0  0  0  0  0  0  0  0  0  0  0  0
    2.2005   -8.8938    3.5373 H   0  0  0  0  0  0  0  0  0  0  0  0
    3.1419   -7.6351    4.3800 H   0  0  0  0  0  0  0  0  0  0  0  0
    3.0680   -9.2834    5.0478 H   0  0  0  0  0  0  0  0  0  0  0  0
    3.4333  -10.7871    2.2728 H   0  0  0  0  0  0  0  0  0  0  0  0
    4.2971  -11.2244    3.7720 H   0  0  0  0  0  0  0  0  0  0  0  0
    5.2175  -10.8220    2.2947 H   0  0  0  0  0  0  0  0  0  0  0  0
    2.5077   -6.7685    0.0843 H   0  0  0  0  0  0  0  0  0  0  0  0
    2.9950   -8.4825    0.0930 H   0  0  0  0  0  0  0  0  0  0  0  0
    4.5406   -7.1897   -2.2266 H   0  0  0  0  0  0  0  0  0  0  0  0
    3.3902   -3.4916   -0.0973 H   0  0  0  0  0  0  0  0  0  0  0  0
  1  2  1  0
  1 39  1  0
  1 40  1  0
  1 41  1  0
  2  3  2  0
  2 38  1  0
  3  4  1  0
  3 42  1  0
  4  5  2  0
  4 43  1  0
  5  6  1  0
  5 18  1  0
  6  7  2  0
  6  8  1  0
  8  9  1  0
  8 44  1  0
  9 10  2  0
  9 17  1  0
 10 11  1  0
 10 45  1  0
 11 12  2  0
 11 46  1  0
 12 13  1  0
 12 16  1  0
 13 14  2  0
 13 15  1  0
 14 47  1  0
 15 48  1  0
 15 49  1  0
 16 17  2  0
 16 50  1  0
 17 51  1  0
 18 19  1  0
 18 38  2  0
 19 20  1  0
 19 52  1  0
 20 21  1  0
 20 53  1  0
 20 54  1  0
 21 22  2  0
 21 32  1  0
 22 23  1  0
 22 55  1  0
 23 24  1  0
 23 26  2  0
 24 25  1  0
 24 56  1  0
 24 57  1  0
 25 58  1  0
 26 27  1  0
 26 59  1  0
 27 28  1  0
 27 32  2  0
 28 29  1  0
 29 30  1  0
 29 31  1  0
 29 60  1  1
 30 61  1  0
 30 62  1  0
 30 63  1  0
 31 64  1  0
 31 65  1  0
 31 66  1  0
 32 33  1  0
 33 34  1  0
 34 35  1  0
 34 67  1  0
 34 68  1  0
 35 36  2  0
 35 37  1  0
 37 69  1  0
 38 70  1  0
M  END

