
     RDKit          3D

 34 35  0  0  0  0  0  0  0  0999 V2000
    0.9110   -0.3277    0.1534 C   0  0  0  0  0  0  0  0  0  0  0  0
    2.3995   -0.1563    0.0682 C   0  0  0  0  0  0  0  0  0  0  0  0
    3.0179    1.0734    0.3804 C   0  0  0  0  0  0  0  0  0  0  0  0
    4.3913    1.2149    0.3080 C   0  0  0  0  0  0  0  0  0  0  0  0
    5.2127    0.1269   -0.0964 C   0  0  0  0  0  0  0  0  0  0  0  0
    6.9313    0.2040   -0.2310 S   0  0  0  0  0  0  0  0  0  0  0  0
    7.3842    1.9413    0.1262 C   0  0  0  0  0  0  0  0  0  0  0  0
    8.9285    1.8378    0.2430 C   0  0  0  0  0  0  0  0  0  0  0  0
    9.2967    0.6843    0.6037 O   0  0  0  0  0  0  0  0  0  0  0  0
    9.7509    2.9658   -0.0232 C   0  0  0  0  0  0  0  0  0  0  0  0
    9.2853    4.3004   -0.3002 C   0  0  0  0  0  0  0  0  0  0  0  0
    7.9330    4.5186   -0.2894 F   0  0  0  0  0  0  0  0  0  0  0  0
   10.0950    5.3843   -0.5464 C   0  0  0  0  0  0  0  0  0  0  0  0
   11.4960    5.2322   -0.5349 C   0  0  0  0  0  0  0  0  0  0  0  0
   12.0262    3.9560   -0.2552 C   0  0  0  0  0  0  0  0  0  0  0  0
   11.1951    2.8845   -0.0073 C   0  0  0  0  0  0  0  0  0  0  0  0
   11.7654    1.6951    0.2442 F   0  0  0  0  0  0  0  0  0  0  0  0
    4.6012   -1.1412   -0.4109 C   0  0  0  0  0  0  0  0  0  0  0  0
    5.4258   -2.3310   -0.8244 C   0  0  0  0  0  0  0  0  0  0  0  0
    3.2185   -1.2375   -0.3210 C   0  0  0  0  0  0  0  0  0  0  0  0
    0.4032    0.6092    0.4193 H   0  0  0  0  0  0  0  0  0  0  0  0
    0.6505   -1.0873    0.9099 H   0  0  0  0  0  0  0  0  0  0  0  0
    0.5022   -0.6851   -0.8061 H   0  0  0  0  0  0  0  0  0  0  0  0
    2.4042    1.9239    0.6847 H   0  0  0  0  0  0  0  0  0  0  0  0
    4.8427    2.1731    0.5566 H   0  0  0  0  0  0  0  0  0  0  0  0
    6.9391    2.2270    1.0906 H   0  0  0  0  0  0  0  0  0  0  0  0
    6.9725    2.5792   -0.6632 H   0  0  0  0  0  0  0  0  0  0  0  0
    9.6217    6.3497   -0.7357 H   0  0  0  0  0  0  0  0  0  0  0  0
   12.1518    6.0800   -0.7318 H   0  0  0  0  0  0  0  0  0  0  0  0
   13.1032    3.7779   -0.2302 H   0  0  0  0  0  0  0  0  0  0  0  0
    6.0171   -2.1170   -1.7291 H   0  0  0  0  0  0  0  0  0  0  0  0
    4.7827   -3.1966   -1.0321 H   0  0  0  0  0  0  0  0  0  0  0  0
    6.1430   -2.6168   -0.0383 H   0  0  0  0  0  0  0  0  0  0  0  0
    2.7456   -2.1932   -0.5622 H   0  0  0  0  0  0  0  0  0  0  0  0
  1  2  1  0
  1 21  1  0
  1 22  1  0
  1 23  1  0
  2  3  2  0
  2 20  1  0
  3  4  1  0
  3 24  1  0
  4  5  2  0
  4 25  1  0
  5  6  1  0
  5 18  1  0
  6  7  1  0
  7  8  1  0
  7 26  1  0
  7 27  1  0
  8  9  2  0
  8 10  1  0
 10 11  2  0
 10 16  1  0
 11 12  1  0
 11 13  1  0
 13 14  2  0
 13 28  1  0
 14 15  1  0
 14 29  1  0
 15 16  2  0
 15 30  1  0
 16 17  1  0
 18 19  1  0
 18 20  2  0
 19 31  1  0
 19 32  1  0
 19 33  1  0
 20 34  1  0
M  END

