
     RDKit          3D

 45 45  0  0  0  0  0  0  0  0999 V2000
    0.8484    0.5127    0.6377 C   0  0  0  0  0  0  0  0  0  0  0  0
    2.3270    0.2725    0.4268 C   0  0  0  0  0  0  0  0  0  0  0  0
    3.1826    1.3740    0.3448 C   0  0  0  0  0  0  0  0  0  0  0  0
    4.5650    1.2485    0.1786 C   0  0  0  0  0  0  0  0  0  0  0  0
    5.3997    2.5092    0.1032 C   0  0  0  0  0  0  0  0  0  0  0  0
    5.1305   -0.0458    0.1163 C   0  0  0  0  0  0  0  0  0  0  0  0
    6.6318   -0.2082   -0.0678 C   0  0  0  0  0  0  0  0  0  0  0  0
    7.0957   -0.6796   -1.4705 C   0  0  1  0  0  0  0  0  0  0  0  0
    6.7455    0.3222   -2.5771 C   0  0  0  0  0  0  0  0  0  0  0  0
    8.5987   -0.9847   -1.4605 C   0  0  0  0  0  0  0  0  0  0  0  0
    4.2832   -1.1798    0.2281 C   0  0  0  0  0  0  0  0  0  0  0  0
    4.8779   -2.5764    0.2593 C   0  0  0  0  0  0  0  0  0  0  0  0
    2.8775   -1.0268    0.3475 C   0  0  0  0  0  0  0  0  0  0  0  0
    1.9448   -2.2258    0.3995 C   0  0  0  0  0  0  0  0  0  0  0  0
    1.2121   -2.5751   -0.9247 C   0  0  1  0  0  0  0  0  0  0  0  0
    2.1649   -2.9803   -2.0551 C   0  0  0  0  0  0  0  0  0  0  0  0
    0.1630   -3.6660   -0.6755 C   0  0  0  0  0  0  0  0  0  0  0  0
    0.6353    1.5891    0.7110 H   0  0  0  0  0  0  0  0  0  0  0  0
    0.4861    0.0404    1.5668 H   0  0  0  0  0  0  0  0  0  0  0  0
    0.2312    0.1094   -0.1808 H   0  0  0  0  0  0  0  0  0  0  0  0
    2.7522    2.3776    0.4152 H   0  0  0  0  0  0  0  0  0  0  0  0
    4.7604    3.4007    0.1821 H   0  0  0  0  0  0  0  0  0  0  0  0
    5.9580    2.5867   -0.8430 H   0  0  0  0  0  0  0  0  0  0  0  0
    6.1418    2.5645    0.9175 H   0  0  0  0  0  0  0  0  0  0  0  0
    7.0206   -0.9230    0.6763 H   0  0  0  0  0  0  0  0  0  0  0  0
    7.1418    0.7405    0.1561 H   0  0  0  0  0  0  0  0  0  0  0  0
    6.5652   -1.6208   -1.6995 H   0  0  0  0  0  0  0  0  0  0  0  0
    7.2980    1.2687   -2.4458 H   0  0  0  0  0  0  0  0  0  0  0  0
    5.6696    0.5564   -2.5890 H   0  0  0  0  0  0  0  0  0  0  0  0
    7.0126   -0.0781   -3.5688 H   0  0  0  0  0  0  0  0  0  0  0  0
    9.1844   -0.0811   -1.2176 H   0  0  0  0  0  0  0  0  0  0  0  0
    8.9414   -1.3473   -2.4433 H   0  0  0  0  0  0  0  0  0  0  0  0
    8.8519   -1.7540   -0.7125 H   0  0  0  0  0  0  0  0  0  0  0  0
    5.9669   -2.5660    0.3766 H   0  0  0  0  0  0  0  0  0  0  0  0
    4.6561   -3.1454   -0.6573 H   0  0  0  0  0  0  0  0  0  0  0  0
    4.4734   -3.1625    1.0990 H   0  0  0  0  0  0  0  0  0  0  0  0
    1.1717   -2.0436    1.1644 H   0  0  0  0  0  0  0  0  0  0  0  0
    2.4807   -3.1258    0.7356 H   0  0  0  0  0  0  0  0  0  0  0  0
    0.6776   -1.6686   -1.2599 H   0  0  0  0  0  0  0  0  0  0  0  0
    2.6896   -3.9215   -1.8167 H   0  0  0  0  0  0  0  0  0  0  0  0
    2.9232   -2.2053   -2.2465 H   0  0  0  0  0  0  0  0  0  0  0  0
    1.6103   -3.1437   -2.9936 H   0  0  0  0  0  0  0  0  0  0  0  0
    0.6385   -4.5983   -0.3243 H   0  0  0  0  0  0  0  0  0  0  0  0
   -0.3942   -3.9047   -1.5960 H   0  0  0  0  0  0  0  0  0  0  0  0
   -0.5684   -3.3583    0.0898 H   0  0  0  0  0  0  0  0  0  0  0  0
  1  2  1  0
  1 18  1  0
  1 19  1  0
  1 20  1  0
  2  3  2  0
  2 13  1  0
  3  4  1  0
  3 21  1  0
  4  5  1  0
  4  6  2  0
  5 22  1  0
  5 23  1  0
  5 24  1  0
  6  7  1  0
  6 11  1  0
  7  8  1  0
  7 25  1  0
  7 26  1  0
  8  9  1  0
  8 10  1  0
  8 27  1  6
  9 28  1  0
  9 29  1  0
  9 30  1  0
 10 31  1  0
 10 32  1  0
 10 33  1  0
 11 12  1  0
 11 13  2  0
 12 34  1  0
 12 35  1  0
 12 36  1  0
 13 14  1  0
 14 15  1  0
 14 37  1  0
 14 38  1  0
 15 16  1  0
 15 17  1  0
 15 39  1  6
 16 40  1  0
 16 41  1  0
 16 42  1  0
 17 43  1  0
 17 44  1  0
 17 45  1  0
M  END

