
     RDKit          3D

 41 42  0  0  0  0  0  0  0  0999 V2000
    1.9478    0.5917    1.6070 C   0  0  0  0  0  0  0  0  0  0  0  0
    2.9199    0.4061    0.4656 C   0  0  0  0  0  0  0  0  0  0  0  0
    3.5299    1.5051   -0.1023 C   0  0  0  0  0  0  0  0  0  0  0  0
    4.4697    1.3914   -1.1834 C   0  0  0  0  0  0  0  0  0  0  0  0
    5.1658    2.5731   -1.7086 C   0  0  1  0  0  0  0  0  0  0  0  0
    4.4286    3.7102   -1.6076 F   0  0  0  0  0  0  0  0  0  0  0  0
    6.3510    2.8773   -1.0744 F   0  0  0  0  0  0  0  0  0  0  0  0
    5.5153    2.4398   -3.0170 F   0  0  0  0  0  0  0  0  0  0  0  0
    4.8251    0.0760   -1.6249 C   0  0  0  0  0  0  0  0  0  0  0  0
    4.2255   -1.0293   -1.0704 C   0  0  0  0  0  0  0  0  0  0  0  0
    3.2342   -0.9190   -0.0298 C   0  0  0  0  0  0  0  0  0  0  0  0
    2.5654   -2.1462    0.4672 C   0  0  0  0  0  0  0  0  0  0  0  0
    1.3427   -2.6072   -0.2737 N   0  0  0  0  0  0  0  0  0  0  0  0
    0.7825   -1.8846   -1.3870 C   0  0  0  0  0  0  0  0  0  0  0  0
    0.8880   -2.7423   -2.6714 C   0  0  0  0  0  0  0  0  0  0  0  0
    0.3020   -4.1410   -2.4634 C   0  0  0  0  0  0  0  0  0  0  0  0
    0.9101   -4.8272   -1.2346 C   0  0  2  0  0  0  0  0  0  0  0  0
    0.3013   -6.2040   -0.9376 C   0  0  0  0  0  0  0  0  0  0  0  0
    0.9184   -6.8211    0.2285 N   0  0  0  0  0  0  0  0  0  0  0  0
    0.7775   -3.9009    0.0061 C   0  0  0  0  0  0  0  0  0  0  0  0
    1.8398    1.6559    1.8632 H   0  0  0  0  0  0  0  0  0  0  0  0
    2.2784    0.0707    2.5254 H   0  0  0  0  0  0  0  0  0  0  0  0
    0.9336    0.2110    1.3796 H   0  0  0  0  0  0  0  0  0  0  0  0
    3.2904    2.5004    0.2796 H   0  0  0  0  0  0  0  0  0  0  0  0
    5.5795   -0.0440   -2.4055 H   0  0  0  0  0  0  0  0  0  0  0  0
    4.5256   -2.0244   -1.4187 H   0  0  0  0  0  0  0  0  0  0  0  0
    2.2088   -2.0807    1.5112 H   0  0  0  0  0  0  0  0  0  0  0  0
    3.2228   -3.0373    0.4472 H   0  0  0  0  0  0  0  0  0  0  0  0
    1.3160   -0.9337   -1.4830 H   0  0  0  0  0  0  0  0  0  0  0  0
   -0.2830   -1.6959   -1.1615 H   0  0  0  0  0  0  0  0  0  0  0  0
    1.9496   -2.8057   -2.9567 H   0  0  0  0  0  0  0  0  0  0  0  0
    0.3706   -2.2044   -3.4793 H   0  0  0  0  0  0  0  0  0  0  0  0
    0.4785   -4.7572   -3.3604 H   0  0  0  0  0  0  0  0  0  0  0  0
   -0.7947   -4.0753   -2.3389 H   0  0  0  0  0  0  0  0  0  0  0  0
    1.9929   -4.9637   -1.4150 H   0  0  0  0  0  0  0  0  0  0  0  0
    0.3680   -6.8081   -1.8669 H   0  0  0  0  0  0  0  0  0  0  0  0
   -0.7763   -6.0785   -0.7323 H   0  0  0  0  0  0  0  0  0  0  0  0
    1.8424   -7.1900    0.0021 H   0  0  0  0  0  0  0  0  0  0  0  0
    0.3655   -7.6079    0.5640 H   0  0  0  0  0  0  0  0  0  0  0  0
    1.2725   -4.3531    0.8739 H   0  0  0  0  0  0  0  0  0  0  0  0
   -0.2963   -3.7765    0.2377 H   0  0  0  0  0  0  0  0  0  0  0  0
  1  2  1  0
  1 21  1  0
  1 22  1  0
  1 23  1  0
  2  3  2  0
  2 11  1  0
  3  4  1  0
  3 24  1  0
  4  5  1  0
  4  9  2  0
  5  6  1  1
  5  7  1  0
  5  8  1  0
  9 10  1  0
  9 25  1  0
 10 11  2  0
 10 26  1  0
 11 12  1  0
 12 13  1  0
 12 27  1  0
 12 28  1  0
 13 14  1  0
 13 20  1  0
 14 15  1  0
 14 29  1  0
 14 30  1  0
 15 16  1  0
 15 31  1  0
 15 32  1  0
 16 17  1  0
 16 33  1  0
 16 34  1  0
 17 18  1  0
 17 20  1  0
 17 35  1  6
 18 19  1  0
 18 36  1  0
 18 37  1  0
 19 38  1  0
 19 39  1  0
 20 40  1  0
 20 41  1  0
M  END

