
     RDKit          3D

 52 55  0  0  0  0  0  0  0  0999 V2000
    1.5211   -0.2584    0.5768 O   0  0  0  0  0  0  0  0  0  0  0  0
    2.7242   -0.1829    0.3619 C   0  0  0  0  0  0  0  0  0  0  0  0
    3.2726    0.8194   -0.3932 N   0  0  0  0  0  0  0  0  0  0  0  0
    2.4515    1.8583   -1.0027 C   0  0  0  0  0  0  0  0  0  0  0  0
    2.0057    1.5463   -2.4175 C   0  0  0  0  0  0  0  0  0  0  0  0
    1.0339    0.5680   -2.6810 C   0  0  0  0  0  0  0  0  0  0  0  0
    0.6762    0.3128   -4.0040 C   0  0  0  0  0  0  0  0  0  0  0  0
    1.3009    1.0444   -5.0216 C   0  0  0  0  0  0  0  0  0  0  0  0
    2.2229    1.9796   -4.7880 N   0  0  0  0  0  0  0  0  0  0  0  0
    2.5585    2.2169   -3.5179 C   0  0  0  0  0  0  0  0  0  0  0  0
    3.6852   -1.1899    0.9235 C   0  0  0  0  0  0  0  0  0  0  0  0
    5.0624   -0.9825    1.0857 C   0  0  0  0  0  0  0  0  0  0  0  0
    5.8496   -1.9878    1.6383 C   0  0  0  0  0  0  0  0  0  0  0  0
    5.2367   -3.1956    2.0267 C   0  0  0  0  0  0  0  0  0  0  0  0
    5.9954   -4.3011    2.6129 C   0  0  0  0  0  0  0  0  0  0  0  0
    5.4787   -5.5184    3.0546 C   0  0  0  0  0  0  0  0  0  0  0  0
    6.5251   -6.2563    3.5015 N   0  0  0  0  0  0  0  0  0  0  0  0
    6.5029   -7.5335    4.0326 N   0  0  0  0  0  0  0  0  0  0  0  0
    6.2011   -7.5880    5.4648 C   0  0  0  0  0  0  0  0  0  0  0  0
    6.3460   -9.0282    5.9715 C   0  0  0  0  0  0  0  0  0  0  0  0
    6.1073   -9.1473    7.4608 C   0  0  0  0  0  0  0  0  0  0  0  0
    7.1492   -8.9110    8.3730 C   0  0  0  0  0  0  0  0  0  0  0  0
    6.9227   -8.9862    9.7498 C   0  0  0  0  0  0  0  0  0  0  0  0
    5.6541   -9.2977   10.2466 C   0  0  0  0  0  0  0  0  0  0  0  0
    4.6281   -9.5302    9.3343 C   0  0  0  0  0  0  0  0  0  0  0  0
    3.4040   -9.8354    9.7905 F   0  0  0  0  0  0  0  0  0  0  0  0
    4.8334   -9.4593    7.9582 C   0  0  0  0  0  0  0  0  0  0  0  0
    7.7044   -5.6102    3.4026 N   0  0  0  0  0  0  0  0  0  0  0  0
    7.3843   -4.4492    2.8826 C   0  0  0  0  0  0  0  0  0  0  0  0
    8.3289   -3.5441    2.6491 F   0  0  0  0  0  0  0  0  0  0  0  0
    3.9109   -3.3928    1.8851 N   0  0  0  0  0  0  0  0  0  0  0  0
    3.1705   -2.4236    1.3616 C   0  0  0  0  0  0  0  0  0  0  0  0
    4.2228    0.7130   -0.7266 H   0  0  0  0  0  0  0  0  0  0  0  0
    3.0187    2.8026   -0.9917 H   0  0  0  0  0  0  0  0  0  0  0  0
    1.5741    1.9816   -0.3524 H   0  0  0  0  0  0  0  0  0  0  0  0
    0.5746    0.0248   -1.8507 H   0  0  0  0  0  0  0  0  0  0  0  0
   -0.0785   -0.4385   -4.2488 H   0  0  0  0  0  0  0  0  0  0  0  0
    1.0395    0.8643   -6.0714 H   0  0  0  0  0  0  0  0  0  0  0  0
    3.3151    2.9963   -3.3529 H   0  0  0  0  0  0  0  0  0  0  0  0
    5.5263   -0.0317    0.8099 H   0  0  0  0  0  0  0  0  0  0  0  0
    6.9209   -1.8460    1.7804 H   0  0  0  0  0  0  0  0  0  0  0  0
    4.4514   -5.8749    3.0618 H   0  0  0  0  0  0  0  0  0  0  0  0
    5.8761   -8.1106    3.4742 H   0  0  0  0  0  0  0  0  0  0  0  0
    5.1903   -7.1995    5.7066 H   0  0  0  0  0  0  0  0  0  0  0  0
    6.9285   -6.9381    5.9750 H   0  0  0  0  0  0  0  0  0  0  0  0
    7.3572   -9.3813    5.7151 H   0  0  0  0  0  0  0  0  0  0  0  0
    5.6353   -9.6769    5.4303 H   0  0  0  0  0  0  0  0  0  0  0  0
    8.1489   -8.6727    7.9999 H   0  0  0  0  0  0  0  0  0  0  0  0
    7.7441   -8.8044   10.4474 H   0  0  0  0  0  0  0  0  0  0  0  0
    5.4502   -9.3669   11.3167 H   0  0  0  0  0  0  0  0  0  0  0  0
    3.9925   -9.6577    7.2894 H   0  0  0  0  0  0  0  0  0  0  0  0
    2.0945   -2.6032    1.2690 H   0  0  0  0  0  0  0  0  0  0  0  0
  1  2  2  0
  2  3  1  0
  2 11  1  0
  3  4  1  0
  3 33  1  0
  4  5  1  0
  4 34  1  0
  4 35  1  0
  5  6  2  0
  5 10  1  0
  6  7  1  0
  6 36  1  0
  7  8  2  0
  7 37  1  0
  8  9  1  0
  8 38  1  0
  9 10  2  0
 10 39  1  0
 11 12  2  0
 11 32  1  0
 12 13  1  0
 12 40  1  0
 13 14  2  0
 13 41  1  0
 14 15  1  0
 14 31  1  0
 15 16  2  0
 15 29  1  0
 16 17  1  0
 16 42  1  0
 17 18  1  0
 17 28  1  0
 18 19  1  0
 18 43  1  0
 19 20  1  0
 19 44  1  0
 19 45  1  0
 20 21  1  0
 20 46  1  0
 20 47  1  0
 21 22  2  0
 21 27  1  0
 22 23  1  0
 22 48  1  0
 23 24  2  0
 23 49  1  0
 24 25  1  0
 24 50  1  0
 25 26  1  0
 25 27  2  0
 27 51  1  0
 28 29  2  0
 29 30  1  0
 31 32  2  0
 32 52  1  0
M  END

