
     RDKit          3D

 53 56  0  0  0  0  0  0  0  0999 V2000
    2.2505    2.0488   -4.2722 C   0  0  0  0  0  0  0  0  0  0  0  0
    3.4672    1.4408   -3.6206 C   0  0  0  0  0  0  0  0  0  0  0  0
    3.9290    0.1650   -3.9733 C   0  0  0  0  0  0  0  0  0  0  0  0
    5.0404   -0.4221   -3.3632 C   0  0  0  0  0  0  0  0  0  0  0  0
    5.7250    0.2826   -2.3631 C   0  0  0  0  0  0  0  0  0  0  0  0
    6.8650   -0.2207   -1.6826 N   0  0  0  0  0  0  0  0  0  0  0  0
    7.4843   -1.4240   -1.8603 C   0  0  0  0  0  0  0  0  0  0  0  0
    7.1675   -2.2870   -2.6461 O   0  0  0  0  0  0  0  0  0  0  0  0
    8.6010   -1.5725   -0.9792 N   0  0  0  0  0  0  0  0  0  0  0  0
    9.4682   -2.6255   -0.8848 C   0  0  0  0  0  0  0  0  0  0  0  0
   10.5055   -2.5292    0.0975 C   0  0  0  0  0  0  0  0  0  0  0  0
   11.4295   -3.5288    0.2689 C   0  0  0  0  0  0  0  0  0  0  0  0
   11.3627   -4.7025   -0.5510 C   0  0  0  0  0  0  0  0  0  0  0  0
   12.1770   -5.7036   -0.4777 O   0  0  0  0  0  0  0  0  0  0  0  0
   13.3002   -5.7622    0.4803 C   0  0  0  0  0  0  0  0  0  0  0  0
   14.1414   -6.9831    0.1990 C   0  0  0  0  0  0  0  0  0  0  0  0
   13.8808   -8.1617    0.8802 C   0  0  0  0  0  0  0  0  0  0  0  0
   14.6869   -9.3207    0.5959 C   0  0  0  0  0  0  0  0  0  0  0  0
   14.5664  -10.4266    1.1183 O   0  0  0  0  0  0  0  0  0  0  0  0
   15.6940   -9.0953   -0.3859 N   0  0  0  0  0  0  0  0  0  0  0  0
   16.5363  -10.1823   -0.7208 C   0  0  0  0  0  0  0  0  0  0  0  0
   17.5378  -10.0301   -1.6582 C   0  0  0  0  0  0  0  0  0  0  0  0
   17.7700   -8.8157   -2.3172 C   0  0  0  0  0  0  0  0  0  0  0  0
   18.8548   -8.6295   -3.3368 C   0  0  0  0  0  0  0  0  0  0  0  0
   16.9026   -7.7261   -1.9628 C   0  0  0  0  0  0  0  0  0  0  0  0
   15.8890   -7.8482   -1.0245 C   0  0  0  0  0  0  0  0  0  0  0  0
   15.0879   -6.7859   -0.7100 N   0  0  0  0  0  0  0  0  0  0  0  0
   10.3199   -4.7970   -1.5337 C   0  0  0  0  0  0  0  0  0  0  0  0
    9.3980   -3.7975   -1.7030 C   0  0  0  0  0  0  0  0  0  0  0  0
    5.2802    1.5636   -1.9969 C   0  0  0  0  0  0  0  0  0  0  0  0
    4.1707    2.1294   -2.6181 C   0  0  0  0  0  0  0  0  0  0  0  0
    2.0021    1.5428   -5.2165 H   0  0  0  0  0  0  0  0  0  0  0  0
    2.3999    3.1186   -4.4863 H   0  0  0  0  0  0  0  0  0  0  0  0
    1.3683    1.9708   -3.6135 H   0  0  0  0  0  0  0  0  0  0  0  0
    3.4081   -0.3964   -4.7535 H   0  0  0  0  0  0  0  0  0  0  0  0
    5.3741   -1.4128   -3.6614 H   0  0  0  0  0  0  0  0  0  0  0  0
    7.2471    0.4178   -0.9945 H   0  0  0  0  0  0  0  0  0  0  0  0
    8.7860   -0.8125   -0.3318 H   0  0  0  0  0  0  0  0  0  0  0  0
   10.5610   -1.6355    0.7245 H   0  0  0  0  0  0  0  0  0  0  0  0
   12.2077   -3.4274    1.0215 H   0  0  0  0  0  0  0  0  0  0  0  0
   12.8509   -5.7779    1.4833 H   0  0  0  0  0  0  0  0  0  0  0  0
   13.9034   -4.8585    0.3239 H   0  0  0  0  0  0  0  0  0  0  0  0
   13.0936   -8.2681    1.6253 H   0  0  0  0  0  0  0  0  0  0  0  0
   16.3114  -11.0950   -0.1800 H   0  0  0  0  0  0  0  0  0  0  0  0
   18.1616  -10.9016   -1.8791 H   0  0  0  0  0  0  0  0  0  0  0  0
   19.4307   -9.5564   -3.4877 H   0  0  0  0  0  0  0  0  0  0  0  0
   19.5730   -7.8390   -3.0434 H   0  0  0  0  0  0  0  0  0  0  0  0
   18.4544   -8.3253   -4.3237 H   0  0  0  0  0  0  0  0  0  0  0  0
   17.0092   -6.7433   -2.4221 H   0  0  0  0  0  0  0  0  0  0  0  0
   10.2934   -5.7001   -2.1438 H   0  0  0  0  0  0  0  0  0  0  0  0
    8.6115   -3.8755   -2.4482 H   0  0  0  0  0  0  0  0  0  0  0  0
    5.8090    2.1256   -1.2203 H   0  0  0  0  0  0  0  0  0  0  0  0
    3.8467    3.1294   -2.3173 H   0  0  0  0  0  0  0  0  0  0  0  0
  1  2  1  0
  1 32  1  0
  1 33  1  0
  1 34  1  0
  2  3  2  0
  2 31  1  0
  3  4  1  0
  3 35  1  0
  4  5  2  0
  4 36  1  0
  5  6  1  0
  5 30  1  0
  6  7  1  0
  6 37  1  0
  7  8  2  0
  7  9  1  0
  9 10  1  0
  9 38  1  0
 10 11  2  0
 10 29  1  0
 11 12  1  0
 11 39  1  0
 12 13  2  0
 12 40  1  0
 13 14  1  0
 13 28  1  0
 14 15  1  0
 15 16  1  0
 15 41  1  0
 15 42  1  0
 16 17  2  0
 16 27  1  0
 17 18  1  0
 17 43  1  0
 18 19  2  0
 18 20  1  0
 20 21  1  0
 20 26  1  0
 21 22  2  0
 21 44  1  0
 22 23  1  0
 22 45  1  0
 23 24  1  0
 23 25  2  0
 24 46  1  0
 24 47  1  0
 24 48  1  0
 25 26  1  0
 25 49  1  0
 26 27  2  0
 28 29  2  0
 28 50  1  0
 29 51  1  0
 30 31  2  0
 30 52  1  0
 31 53  1  0
M  END

