
     RDKit          3D

 55 57  0  0  0  0  0  0  0  0999 V2000
    8.0220   -4.1717   -4.3447 C   0  0  0  0  0  0  0  0  0  0  0  0
    7.2572   -3.0587   -3.6699 C   0  0  0  0  0  0  0  0  0  0  0  0
    7.0630   -1.8464   -4.3457 C   0  0  0  0  0  0  0  0  0  0  0  0
    6.3408   -0.8058   -3.7638 C   0  0  0  0  0  0  0  0  0  0  0  0
    5.8026   -0.9819   -2.4911 C   0  0  0  0  0  0  0  0  0  0  0  0
    5.9909   -2.1789   -1.7792 C   0  0  0  0  0  0  0  0  0  0  0  0
    5.3910   -2.2340   -0.3804 C   0  0  2  0  0  0  0  0  0  0  0  0
    4.7047   -1.3798   -0.2893 H   0  0  0  0  0  0  0  0  0  0  0  0
    6.4285   -2.1444    0.7591 C   0  0  0  0  0  0  0  0  0  0  0  0
    7.1472   -0.7970    0.8396 C   0  0  0  0  0  0  0  0  0  0  0  0
    6.2697    0.3501    1.3258 C   0  0  0  0  0  0  0  0  0  0  0  0
    5.1212    0.2386    1.6689 O   0  0  0  0  0  0  0  0  0  0  0  0
    6.8693    1.5581    1.3675 O   0  0  0  0  0  0  0  0  0  0  0  0
    4.6225   -3.4412   -0.2495 O   0  0  0  0  0  0  0  0  0  0  0  0
    3.5345   -3.5063    0.5455 C   0  0  0  0  0  0  0  0  0  0  0  0
    3.0909   -2.4761    1.3743 C   0  0  0  0  0  0  0  0  0  0  0  0
    1.9366   -2.6492    2.1576 C   0  0  0  0  0  0  0  0  0  0  0  0
    1.6051   -1.5839    2.9218 O   0  0  0  0  0  0  0  0  0  0  0  0
    0.4789   -1.6319    3.7723 C   0  0  0  0  0  0  0  0  0  0  0  0
    0.3551   -0.3209    4.5137 C   0  0  0  0  0  0  0  0  0  0  0  0
    1.3313    0.6789    4.4490 C   0  0  0  0  0  0  0  0  0  0  0  0
    1.1365    1.8533    5.1801 C   0  0  0  0  0  0  0  0  0  0  0  0
   -0.0232    1.9846    5.9477 C   0  0  0  0  0  0  0  0  0  0  0  0
   -0.9637    1.0374    6.0154 N   0  0  0  0  0  0  0  0  0  0  0  0
   -0.7727   -0.0788    5.3144 C   0  0  0  0  0  0  0  0  0  0  0  0
    1.2166   -3.8548    2.1238 C   0  0  0  0  0  0  0  0  0  0  0  0
    1.6702   -4.8821    1.2972 C   0  0  0  0  0  0  0  0  0  0  0  0
    2.8178   -4.7361    0.5045 C   0  0  0  0  0  0  0  0  0  0  0  0
    3.2732   -5.7991   -0.3385 C   0  0  0  0  0  0  0  0  0  0  0  0
    3.6391   -6.6697   -1.0161 N   0  0  0  0  0  0  0  0  0  0  0  0
    6.7275   -3.2358   -2.3662 C   0  0  0  0  0  0  0  0  0  0  0  0
    6.9527   -4.5671   -1.6845 C   0  0  0  0  0  0  0  0  0  0  0  0
    8.3372   -3.8791   -5.3566 H   0  0  0  0  0  0  0  0  0  0  0  0
    7.4146   -5.0880   -4.4319 H   0  0  0  0  0  0  0  0  0  0  0  0
    8.9271   -4.4517   -3.7791 H   0  0  0  0  0  0  0  0  0  0  0  0
    7.4782   -1.7248   -5.3502 H   0  0  0  0  0  0  0  0  0  0  0  0
    6.1844    0.1305   -4.3051 H   0  0  0  0  0  0  0  0  0  0  0  0
    5.2112   -0.1799   -2.0398 H   0  0  0  0  0  0  0  0  0  0  0  0
    7.1767   -2.9392    0.6287 H   0  0  0  0  0  0  0  0  0  0  0  0
    5.9172   -2.3334    1.7151 H   0  0  0  0  0  0  0  0  0  0  0  0
    7.5747   -0.5200   -0.1408 H   0  0  0  0  0  0  0  0  0  0  0  0
    8.0032   -0.8710    1.5342 H   0  0  0  0  0  0  0  0  0  0  0  0
    7.7845    1.4978    1.0572 H   0  0  0  0  0  0  0  0  0  0  0  0
    3.6210   -1.5278    1.4606 H   0  0  0  0  0  0  0  0  0  0  0  0
    0.5819   -2.4660    4.4937 H   0  0  0  0  0  0  0  0  0  0  0  0
   -0.4398   -1.8228    3.1855 H   0  0  0  0  0  0  0  0  0  0  0  0
    2.2204    0.5371    3.8324 H   0  0  0  0  0  0  0  0  0  0  0  0
    1.8755    2.6575    5.1531 H   0  0  0  0  0  0  0  0  0  0  0  0
   -0.2019    2.8952    6.5318 H   0  0  0  0  0  0  0  0  0  0  0  0
   -1.5641   -0.8378    5.3855 H   0  0  0  0  0  0  0  0  0  0  0  0
    0.3207   -4.0022    2.7251 H   0  0  0  0  0  0  0  0  0  0  0  0
    1.1235   -5.8263    1.2583 H   0  0  0  0  0  0  0  0  0  0  0  0
    6.5930   -4.5952   -0.6532 H   0  0  0  0  0  0  0  0  0  0  0  0
    8.0205   -4.8402   -1.6921 H   0  0  0  0  0  0  0  0  0  0  0  0
    6.4153   -5.3702   -2.2166 H   0  0  0  0  0  0  0  0  0  0  0  0
  1  2  1  0
  1 33  1  0
  1 34  1  0
  1 35  1  0
  2  3  2  0
  2 31  1  0
  3  4  1  0
  3 36  1  0
  4  5  2  0
  4 37  1  0
  5  6  1  0
  5 38  1  0
  6  7  1  0
  6 31  2  0
  7  8  1  1
  7  9  1  0
  7 14  1  0
  9 10  1  0
  9 39  1  0
  9 40  1  0
 10 11  1  0
 10 41  1  0
 10 42  1  0
 11 12  2  0
 11 13  1  0
 13 43  1  0
 14 15  1  0
 15 16  2  0
 15 28  1  0
 16 17  1  0
 16 44  1  0
 17 18  1  0
 17 26  2  0
 18 19  1  0
 19 20  1  0
 19 45  1  0
 19 46  1  0
 20 21  2  0
 20 25  1  0
 21 22  1  0
 21 47  1  0
 22 23  2  0
 22 48  1  0
 23 24  1  0
 23 49  1  0
 24 25  2  0
 25 50  1  0
 26 27  1  0
 26 51  1  0
 27 28  2  0
 27 52  1  0
 28 29  1  0
 29 30  3  0
 31 32  1  0
 32 53  1  0
 32 54  1  0
 32 55  1  0
M  END

