
     RDKit          3D

 41 42  0  0  0  0  0  0  0  0999 V2000
    2.2654    1.0523    2.9663 O   0  0  0  0  0  0  0  0  0  0  0  0
    2.0707    0.6801    1.8107 C   0  0  0  0  0  0  0  0  0  0  0  0
    0.8540    0.2278    1.3713 N   0  0  0  0  0  0  0  0  0  0  0  0
   -0.3256    0.1923    2.2273 C   0  0  0  0  0  0  0  0  0  0  0  0
   -0.5474   -1.1219    2.9870 C   0  0  0  0  0  0  0  0  0  0  0  0
    0.5697   -1.4600    3.9863 C   0  0  0  0  0  0  0  0  0  0  0  0
    0.8287   -0.4176    4.8887 O   0  0  0  0  0  0  0  0  0  0  0  0
    3.0477    0.6976    0.8335 N   0  0  0  0  0  0  0  0  0  0  0  0
    4.4134    0.9703    0.9577 C   0  0  0  0  0  0  0  0  0  0  0  0
    5.0662    1.1577    2.1846 C   0  0  0  0  0  0  0  0  0  0  0  0
    6.4500    1.3427    2.1990 C   0  0  0  0  0  0  0  0  0  0  0  0
    7.2571    1.5676    3.7352 Cl  0  0  0  0  0  0  0  0  0  0  0  0
    7.2013    1.3449    1.0236 C   0  0  0  0  0  0  0  0  0  0  0  0
    6.5372    1.1908   -0.1962 C   0  0  0  0  0  0  0  0  0  0  0  0
    5.1497    1.0154   -0.2618 C   0  0  0  0  0  0  0  0  0  0  0  0
    4.4123    0.8468   -1.4736 N   0  0  0  0  0  0  0  0  0  0  0  0
    3.7401    2.0405   -2.0183 C   0  0  0  0  0  0  0  0  0  0  0  0
    4.6023    2.7530   -3.0593 C   0  0  0  0  0  0  0  0  0  0  0  0
    4.9659    1.8619   -4.0972 O   0  0  0  0  0  0  0  0  0  0  0  0
    5.7196    0.7676   -3.6140 C   0  0  0  0  0  0  0  0  0  0  0  0
    4.9474   -0.0073   -2.5383 C   0  0  0  0  0  0  0  0  0  0  0  0
    0.7850   -0.1824    0.4479 H   0  0  0  0  0  0  0  0  0  0  0  0
   -1.2040    0.4183    1.6014 H   0  0  0  0  0  0  0  0  0  0  0  0
   -0.2265    1.0104    2.9551 H   0  0  0  0  0  0  0  0  0  0  0  0
   -0.6713   -1.9592    2.2752 H   0  0  0  0  0  0  0  0  0  0  0  0
   -1.5003   -1.0242    3.5360 H   0  0  0  0  0  0  0  0  0  0  0  0
    1.4840   -1.7585    3.4325 H   0  0  0  0  0  0  0  0  0  0  0  0
    0.2626   -2.3447    4.5708 H   0  0  0  0  0  0  0  0  0  0  0  0
    1.3784    0.2345    4.4142 H   0  0  0  0  0  0  0  0  0  0  0  0
    2.8149    0.4241   -0.1200 H   0  0  0  0  0  0  0  0  0  0  0  0
    4.4924    1.1450    3.1074 H   0  0  0  0  0  0  0  0  0  0  0  0
    8.2823    1.4843    1.0603 H   0  0  0  0  0  0  0  0  0  0  0  0
    7.1179    1.2184   -1.1188 H   0  0  0  0  0  0  0  0  0  0  0  0
    3.4790    2.7210   -1.1943 H   0  0  0  0  0  0  0  0  0  0  0  0
    2.8000    1.7257   -2.5100 H   0  0  0  0  0  0  0  0  0  0  0  0
    5.5073    3.1779   -2.5772 H   0  0  0  0  0  0  0  0  0  0  0  0
    4.0450    3.5802   -3.5262 H   0  0  0  0  0  0  0  0  0  0  0  0
    6.6945    1.1225   -3.2212 H   0  0  0  0  0  0  0  0  0  0  0  0
    5.9266    0.1148   -4.4765 H   0  0  0  0  0  0  0  0  0  0  0  0
    5.5784   -0.7915   -2.0937 H   0  0  0  0  0  0  0  0  0  0  0  0
    4.0945   -0.5090   -3.0334 H   0  0  0  0  0  0  0  0  0  0  0  0
  1  2  2  0
  2  3  1  0
  2  8  1  0
  3  4  1  0
  3 22  1  0
  4  5  1  0
  4 23  1  0
  4 24  1  0
  5  6  1  0
  5 25  1  0
  5 26  1  0
  6  7  1  0
  6 27  1  0
  6 28  1  0
  7 29  1  0
  8  9  1  0
  8 30  1  0
  9 10  2  0
  9 15  1  0
 10 11  1  0
 10 31  1  0
 11 12  1  0
 11 13  2  0
 13 14  1  0
 13 32  1  0
 14 15  2  0
 14 33  1  0
 15 16  1  0
 16 17  1  0
 16 21  1  0
 17 18  1  0
 17 34  1  0
 17 35  1  0
 18 19  1  0
 18 36  1  0
 18 37  1  0
 19 20  1  0
 20 21  1  0
 20 38  1  0
 20 39  1  0
 21 40  1  0
 21 41  1  0
M  END

