
     RDKit          3D

 63 63  0  0  0  0  0  0  0  0999 V2000
    9.9515    6.7547   12.0869 C   0  0  0  0  0  0  0  0  0  0  0  0
    9.2595    7.6221   11.0529 C   0  0  0  0  0  0  0  0  0  0  0  0
    9.9958    7.5621    9.8402 O   0  0  0  0  0  0  0  0  0  0  0  0
    9.4902    8.3348    8.7924 C   0  0  1  0  0  0  0  0  0  0  0  0
    9.5978    9.7174    9.1380 O   0  0  0  0  0  0  0  0  0  0  0  0
    8.5489   10.5477    8.6910 C   0  0  0  0  0  0  0  0  0  0  0  0
    8.8094   11.9648    9.1691 C   0  0  0  0  0  0  0  0  0  0  0  0
   10.5185    7.9335    7.2089 Si  0  0  0  0  0  4  0  0  0  0  0  0
   10.0302    8.8720    6.1468 H   0  0  0  0  0  0  0  0  0  0  0  0
   11.9426    8.2628    7.5078 H   0  0  0  0  0  0  0  0  0  0  0  0
   10.2958    6.1577    6.5721 C   0  0  0  0  0  0  0  0  0  0  0  0
   10.8395    5.0423    7.4765 C   0  0  0  0  0  0  0  0  0  0  0  0
   10.4810    3.6178    7.0565 C   0  0  0  0  0  0  0  0  0  0  0  0
   10.7457    3.2880    5.6853 O   0  0  0  0  0  0  0  0  0  0  0  0
   12.0890    2.9610    5.3455 C   0  0  1  0  0  0  0  0  0  0  0  0
   12.3711    1.4696    5.3746 C   0  0  0  0  0  0  0  0  0  0  0  0
   11.5965    0.6239    4.3442 C   0  0  2  0  0  0  0  0  0  0  0  0
   10.2112    0.2092    4.8834 C   0  0  0  0  0  0  0  0  0  0  0  0
   12.4305   -0.6158    3.9734 C   0  0  0  0  0  0  0  0  0  0  0  0
   11.3260    1.4201    3.0775 N   0  0  0  0  0  0  0  0  0  0  0  0
   10.9045    0.5971    2.1266 O   0  0  0  0  0  0  0  0  0  0  0  0
    9.8602    0.9301    1.1889 C   0  0  0  0  0  0  0  0  0  0  0  0
   11.5830    2.8895    2.7973 C   0  0  2  0  0  0  0  0  0  0  0  0
   10.2490    3.6573    2.6875 C   0  0  0  0  0  0  0  0  0  0  0  0
   12.4230    2.9989    1.5096 C   0  0  0  0  0  0  0  0  0  0  0  0
   12.4331    3.4536    3.9592 C   0  0  0  0  0  0  0  0  0  0  0  0
    9.4088    6.7883   13.0451 H   0  0  0  0  0  0  0  0  0  0  0  0
   10.9806    7.1072   12.2567 H   0  0  0  0  0  0  0  0  0  0  0  0
   10.0015    5.7069   11.7509 H   0  0  0  0  0  0  0  0  0  0  0  0
    9.1960    8.6689   11.3994 H   0  0  0  0  0  0  0  0  0  0  0  0
    8.2215    7.2693   10.8739 H   0  0  0  0  0  0  0  0  0  0  0  0
    8.4082    8.1028    8.6393 H   0  0  0  0  0  0  0  0  0  0  0  0
    7.5746   10.1793    9.0788 H   0  0  0  0  0  0  0  0  0  0  0  0
    8.4766   10.5299    7.5843 H   0  0  0  0  0  0  0  0  0  0  0  0
    8.8654   12.0007   10.2684 H   0  0  0  0  0  0  0  0  0  0  0  0
    8.0043   12.6400    8.8378 H   0  0  0  0  0  0  0  0  0  0  0  0
    9.7646   12.3370    8.7677 H   0  0  0  0  0  0  0  0  0  0  0  0
   10.7937    6.1138    5.5754 H   0  0  0  0  0  0  0  0  0  0  0  0
    9.2179    6.0080    6.3707 H   0  0  0  0  0  0  0  0  0  0  0  0
   10.4509    5.1764    8.5052 H   0  0  0  0  0  0  0  0  0  0  0  0
   11.9399    5.1370    7.5487 H   0  0  0  0  0  0  0  0  0  0  0  0
    9.3947    3.4610    7.1746 H   0  0  0  0  0  0  0  0  0  0  0  0
   10.9993    2.8911    7.7189 H   0  0  0  0  0  0  0  0  0  0  0  0
   12.7857    3.4641    6.0652 H   0  0  0  0  0  0  0  0  0  0  0  0
   12.1681    1.0468    6.3780 H   0  0  0  0  0  0  0  0  0  0  0  0
   13.4605    1.3473    5.1860 H   0  0  0  0  0  0  0  0  0  0  0  0
   10.3689   -0.3837    5.7961 H   0  0  0  0  0  0  0  0  0  0  0  0
    9.6649   -0.4133    4.1575 H   0  0  0  0  0  0  0  0  0  0  0  0
    9.6179    1.0940    5.1518 H   0  0  0  0  0  0  0  0  0  0  0  0
   12.6820   -1.1360    4.9100 H   0  0  0  0  0  0  0  0  0  0  0  0
   13.3741   -0.3139    3.4884 H   0  0  0  0  0  0  0  0  0  0  0  0
   11.8870   -1.3138    3.3232 H   0  0  0  0  0  0  0  0  0  0  0  0
    8.9540    1.2093    1.7398 H   0  0  0  0  0  0  0  0  0  0  0  0
    9.7020   -0.0127    0.6492 H   0  0  0  0  0  0  0  0  0  0  0  0
   10.1609    1.7211    0.4949 H   0  0  0  0  0  0  0  0  0  0  0  0
    9.7061    3.4584    1.7533 H   0  0  0  0  0  0  0  0  0  0  0  0
   10.4955    4.7305    2.7072 H   0  0  0  0  0  0  0  0  0  0  0  0
    9.6090    3.4670    3.5594 H   0  0  0  0  0  0  0  0  0  0  0  0
   11.8937    2.6965    0.5958 H   0  0  0  0  0  0  0  0  0  0  0  0
   13.3519    2.4101    1.6063 H   0  0  0  0  0  0  0  0  0  0  0  0
   12.7005    4.0589    1.3969 H   0  0  0  0  0  0  0  0  0  0  0  0
   12.3668    4.5611    3.9115 H   0  0  0  0  0  0  0  0  0  0  0  0
   13.4965    3.1756    3.7794 H   0  0  0  0  0  0  0  0  0  0  0  0
  1  2  1  0
  1 27  1  0
  1 28  1  0
  1 29  1  0
  2  3  1  0
  2 30  1  0
  2 31  1  0
  3  4  1  0
  4  5  1  0
  4  8  1  0
  4 32  1  6
  5  6  1  0
  6  7  1  0
  6 33  1  0
  6 34  1  0
  7 35  1  0
  7 36  1  0
  7 37  1  0
  8  9  1  0
  8 10  1  0
  8 11  1  0
 11 12  1  0
 11 38  1  0
 11 39  1  0
 12 13  1  0
 12 40  1  0
 12 41  1  0
 13 14  1  0
 13 42  1  0
 13 43  1  0
 14 15  1  0
 15 16  1  0
 15 26  1  0
 15 44  1  1
 16 17  1  0
 16 45  1  0
 16 46  1  0
 17 18  1  1
 17 19  1  0
 17 20  1  0
 18 47  1  0
 18 48  1  0
 18 49  1  0
 19 50  1  0
 19 51  1  0
 19 52  1  0
 20 21  1  0
 20 23  1  0
 21 22  1  0
 22 53  1  0
 22 54  1  0
 22 55  1  0
 23 24  1  6
 23 25  1  0
 23 26  1  0
 24 56  1  0
 24 57  1  0
 24 58  1  0
 25 59  1  0
 25 60  1  0
 25 61  1  0
 26 62  1  0
 26 63  1  0
M  END

