
     RDKit          3D

 38 39  0  0  0  0  0  0  0  0999 V2000
    3.9274   -0.2619    1.6516 C   0  0  0  0  0  0  0  0  0  0  0  0
    4.8773    0.8816    1.2902 C   0  0  0  0  0  0  0  0  0  0  0  0
    4.8583    1.1887   -0.2062 C   0  0  0  0  0  0  0  0  0  0  0  0
    5.9764    2.5490   -0.6085 S   0  0  1  0  0  0  0  0  0  0  0  0
    5.3885    3.8256   -0.1846 O   0  0  0  0  0  0  0  0  0  0  0  0
    7.3251    2.1742   -0.1830 O   0  0  0  0  0  0  0  0  0  0  0  0
    5.8895    2.6151   -2.3068 N   0  0  0  0  0  0  0  0  0  0  0  0
    6.4520    1.6514   -3.1762 C   0  0  0  0  0  0  0  0  0  0  0  0
    6.4717    0.4536   -2.8683 O   0  0  0  0  0  0  0  0  0  0  0  0
    6.9608    2.1905   -4.4262 C   0  0  0  0  0  0  0  0  0  0  0  0
    7.2235    3.5106   -4.7831 C   0  0  0  0  0  0  0  0  0  0  0  0
    7.7242    3.4391   -6.1283 N   0  0  0  0  0  0  0  0  0  0  0  0
    8.0199    4.4799   -6.9348 C   0  0  0  0  0  0  0  0  0  0  0  0
    7.8629    5.8322   -6.4633 C   0  0  0  0  0  0  0  0  0  0  0  0
    8.1683    6.8905   -7.2986 C   0  0  0  0  0  0  0  0  0  0  0  0
    8.6375    6.6483   -8.6053 C   0  0  0  0  0  0  0  0  0  0  0  0
    9.0319    7.9726   -9.6350 Cl  0  0  0  0  0  0  0  0  0  0  0  0
    8.7948    5.3203   -9.0863 C   0  0  0  0  0  0  0  0  0  0  0  0
    8.4908    4.2542   -8.2725 C   0  0  0  0  0  0  0  0  0  0  0  0
    7.7627    2.1424   -6.5871 N   0  0  0  0  0  0  0  0  0  0  0  0
    7.3198    1.3947   -5.6051 C   0  0  0  0  0  0  0  0  0  0  0  0
    7.2249   -0.0836   -5.7383 C   0  0  0  0  0  0  0  0  0  0  0  0
    3.9631   -0.4743    2.7316 H   0  0  0  0  0  0  0  0  0  0  0  0
    4.1950   -1.1889    1.1184 H   0  0  0  0  0  0  0  0  0  0  0  0
    2.8835   -0.0180    1.3935 H   0  0  0  0  0  0  0  0  0  0  0  0
    5.9087    0.6289    1.5834 H   0  0  0  0  0  0  0  0  0  0  0  0
    4.6041    1.7928    1.8483 H   0  0  0  0  0  0  0  0  0  0  0  0
    3.8683    1.5133   -0.5611 H   0  0  0  0  0  0  0  0  0  0  0  0
    5.2126    0.3527   -0.8289 H   0  0  0  0  0  0  0  0  0  0  0  0
    5.7025    3.5610   -2.6316 H   0  0  0  0  0  0  0  0  0  0  0  0
    7.4284    4.3781   -4.1589 H   0  0  0  0  0  0  0  0  0  0  0  0
    7.4839    6.0193   -5.4608 H   0  0  0  0  0  0  0  0  0  0  0  0
    8.0497    7.9190   -6.9540 H   0  0  0  0  0  0  0  0  0  0  0  0
    9.1569    5.1594  -10.1029 H   0  0  0  0  0  0  0  0  0  0  0  0
    8.5950    3.2234   -8.6079 H   0  0  0  0  0  0  0  0  0  0  0  0
    7.5741   -0.4007   -6.7301 H   0  0  0  0  0  0  0  0  0  0  0  0
    6.1865   -0.4170   -5.5801 H   0  0  0  0  0  0  0  0  0  0  0  0
    7.8111   -0.5747   -4.9465 H   0  0  0  0  0  0  0  0  0  0  0  0
  1  2  1  0
  1 23  1  0
  1 24  1  0
  1 25  1  0
  2  3  1  0
  2 26  1  0
  2 27  1  0
  3  4  1  0
  3 28  1  0
  3 29  1  0
  4  5  2  0
  4  6  2  0
  4  7  1  6
  7  8  1  0
  7 30  1  0
  8  9  2  0
  8 10  1  0
 10 11  2  0
 10 21  1  0
 11 12  1  0
 11 31  1  0
 12 13  1  0
 12 20  1  0
 13 14  2  0
 13 19  1  0
 14 15  1  0
 14 32  1  0
 15 16  2  0
 15 33  1  0
 16 17  1  0
 16 18  1  0
 18 19  2  0
 18 34  1  0
 19 35  1  0
 20 21  2  0
 21 22  1  0
 22 36  1  0
 22 37  1  0
 22 38  1  0
M  END

