
     RDKit          3D

 93 97  0  0  0  0  0  0  0  0999 V2000
    4.3721   -0.3820    4.4575 C   0  0  0  0  0  0  0  0  0  0  0  0
    5.3811    0.6885    4.0412 C   0  0  0  0  0  0  0  0  0  0  0  0
    4.7571    1.8388    3.2443 C   0  0  0  0  0  0  0  0  0  0  0  0
    5.7736    2.9014    2.8186 C   0  0  0  0  0  0  0  0  0  0  0  0
    5.1621    4.0471    2.0064 C   0  0  0  0  0  0  0  0  0  0  0  0
    6.1722    5.0900    1.5580 C   0  0  0  0  0  0  0  0  0  0  0  0
    7.1015    4.4606    0.6663 O   0  0  0  0  0  0  0  0  0  0  0  0
    8.1880    5.0809    0.2282 C   0  0  0  0  0  0  0  0  0  0  0  0
    8.4823    6.4148    0.4821 C   0  0  0  0  0  0  0  0  0  0  0  0
    9.6857    6.9962   -0.0086 C   0  0  0  0  0  0  0  0  0  0  0  0
   10.0011    8.2997    0.2406 N   0  0  0  0  0  0  0  0  0  0  0  0
    9.1311    9.1507    1.0688 C   0  0  0  0  0  0  0  0  0  0  0  0
    9.3189    8.9702    2.5783 C   0  0  0  0  0  0  0  0  0  0  0  0
   11.2584    8.9041   -0.2348 C   0  0  0  0  0  0  0  0  0  0  0  0
   12.4695    8.6369    0.6631 C   0  0  0  0  0  0  0  0  0  0  0  0
   10.5730    6.1687   -0.7793 C   0  0  0  0  0  0  0  0  0  0  0  0
   10.2633    4.8379   -1.0171 C   0  0  0  0  0  0  0  0  0  0  0  0
    9.0908    4.2442   -0.5371 C   0  0  0  0  0  0  0  0  0  0  0  0
    8.7745    2.8129   -0.7755 C   0  0  0  0  0  0  0  0  0  0  0  0
    9.0987    1.8139    0.1116 C   0  0  0  0  0  0  0  0  0  0  0  0
    9.7592    2.2349    1.3265 C   0  0  0  0  0  0  0  0  0  0  0  0
   10.2771    2.6491    2.2805 N   0  0  0  0  0  0  0  0  0  0  0  0
    8.8270    0.4070   -0.0544 C   0  0  0  0  0  0  0  0  0  0  0  0
    8.3160   -0.2422   -1.1831 C   0  0  0  0  0  0  0  0  0  0  0  0
    8.1331   -1.6162   -1.0170 C   0  0  0  0  0  0  0  0  0  0  0  0
    8.4921   -2.0983    0.2581 C   0  0  0  0  0  0  0  0  0  0  0  0
    8.4080   -3.4360    0.7092 C   0  0  0  0  0  0  0  0  0  0  0  0
    8.7603   -3.8883    1.9778 C   0  0  0  0  0  0  0  0  0  0  0  0
    8.7144   -5.2015    2.5174 C   0  0  0  0  0  0  0  0  0  0  0  0
    8.4016   -6.3907    1.8053 C   0  0  0  0  0  0  0  0  0  0  0  0
    8.1800   -7.6374    2.4635 C   0  0  0  0  0  0  0  0  0  0  0  0
    7.9876   -8.6749    2.9602 N   0  0  0  0  0  0  0  0  0  0  0  0
    8.2460   -6.4567    0.3918 C   0  0  0  0  0  0  0  0  0  0  0  0
    8.1138   -6.5381   -0.7648 N   0  0  0  0  0  0  0  0  0  0  0  0
    9.0282   -5.3175    3.9746 C   0  0  0  0  0  0  0  0  0  0  0  0
    9.9736   -6.2629    4.4436 C   0  0  0  0  0  0  0  0  0  0  0  0
   10.3085   -6.3761    5.7903 C   0  0  0  0  0  0  0  0  0  0  0  0
    9.6731   -5.5249    6.7035 C   0  0  0  0  0  0  0  0  0  0  0  0
    8.7264   -4.5610    6.2646 C   0  0  0  0  0  0  0  0  0  0  0  0
    8.4127   -4.4645    4.9032 C   0  0  0  0  0  0  0  0  0  0  0  0
    8.2723   -3.8611    7.4517 C   0  0  0  0  0  0  0  0  0  0  0  0
    7.3574   -2.8246    7.6806 C   0  0  0  0  0  0  0  0  0  0  0  0
    7.1483   -2.3736    8.9846 C   0  0  0  0  0  0  0  0  0  0  0  0
    7.8473   -2.9496   10.0615 C   0  0  0  0  0  0  0  0  0  0  0  0
    8.7651   -3.9829    9.8627 C   0  0  0  0  0  0  0  0  0  0  0  0
    8.9700   -4.4373    8.5526 C   0  0  0  0  0  0  0  0  0  0  0  0
    9.8029   -5.4465    8.0865 N   0  0  0  0  0  0  0  0  0  0  0  0
   10.6978   -6.2502    8.8965 C   0  0  0  0  0  0  0  0  0  0  0  0
   12.0944   -5.6461    9.0653 C   0  0  0  0  0  0  0  0  0  0  0  0
    9.0806   -0.7607    1.2475 S   0  0  0  0  0  0  0  0  0  0  0  0
    4.8549   -1.1879    5.0323 H   0  0  0  0  0  0  0  0  0  0  0  0
    3.8937   -0.8461    3.5791 H   0  0  0  0  0  0  0  0  0  0  0  0
    3.5704    0.0410    5.0867 H   0  0  0  0  0  0  0  0  0  0  0  0
    6.1841    0.2275    3.4396 H   0  0  0  0  0  0  0  0  0  0  0  0
    5.8773    1.0992    4.9395 H   0  0  0  0  0  0  0  0  0  0  0  0
    3.9552    2.3108    3.8437 H   0  0  0  0  0  0  0  0  0  0  0  0
    4.2598    1.4304    2.3450 H   0  0  0  0  0  0  0  0  0  0  0  0
    6.5700    2.4240    2.2244 H   0  0  0  0  0  0  0  0  0  0  0  0
    6.2706    3.3166    3.7152 H   0  0  0  0  0  0  0  0  0  0  0  0
    4.3926    4.5719    2.6001 H   0  0  0  0  0  0  0  0  0  0  0  0
    4.6478    3.6513    1.1138 H   0  0  0  0  0  0  0  0  0  0  0  0
    6.7293    5.4975    2.4212 H   0  0  0  0  0  0  0  0  0  0  0  0
    5.6809    5.9283    1.0310 H   0  0  0  0  0  0  0  0  0  0  0  0
    7.7922    7.0034    1.0760 H   0  0  0  0  0  0  0  0  0  0  0  0
    8.0870    8.9618    0.7824 H   0  0  0  0  0  0  0  0  0  0  0  0
    9.3426   10.1906    0.7856 H   0  0  0  0  0  0  0  0  0  0  0  0
    9.1332    7.9328    2.8926 H   0  0  0  0  0  0  0  0  0  0  0  0
    8.6105    9.6224    3.1107 H   0  0  0  0  0  0  0  0  0  0  0  0
   10.3345    9.2456    2.8964 H   0  0  0  0  0  0  0  0  0  0  0  0
   11.0773    9.9848   -0.3098 H   0  0  0  0  0  0  0  0  0  0  0  0
   11.4511    8.5574   -1.2588 H   0  0  0  0  0  0  0  0  0  0  0  0
   12.3270    9.0485    1.6725 H   0  0  0  0  0  0  0  0  0  0  0  0
   13.3573    9.1174    0.2254 H   0  0  0  0  0  0  0  0  0  0  0  0
   12.6752    7.5605    0.7600 H   0  0  0  0  0  0  0  0  0  0  0  0
   11.5031    6.5693   -1.1735 H   0  0  0  0  0  0  0  0  0  0  0  0
   10.9574    4.2205   -1.5885 H   0  0  0  0  0  0  0  0  0  0  0  0
    8.1990    2.5796   -1.6736 H   0  0  0  0  0  0  0  0  0  0  0  0
    8.0971    0.2790   -2.1170 H   0  0  0  0  0  0  0  0  0  0  0  0
    7.7565   -2.2843   -1.7931 H   0  0  0  0  0  0  0  0  0  0  0  0
    8.0239   -4.1351   -0.0345 H   0  0  0  0  0  0  0  0  0  0  0  0
    9.1324   -3.1330    2.6775 H   0  0  0  0  0  0  0  0  0  0  0  0
   10.4672   -6.9169    3.7230 H   0  0  0  0  0  0  0  0  0  0  0  0
   11.0489   -7.1122    6.1094 H   0  0  0  0  0  0  0  0  0  0  0  0
    7.6717   -3.7386    4.5608 H   0  0  0  0  0  0  0  0  0  0  0  0
    6.8134   -2.3756    6.8455 H   0  0  0  0  0  0  0  0  0  0  0  0
    6.4366   -1.5662    9.1738 H   0  0  0  0  0  0  0  0  0  0  0  0
    7.6712   -2.5816   11.0759 H   0  0  0  0  0  0  0  0  0  0  0  0
    9.3034   -4.4163   10.7081 H   0  0  0  0  0  0  0  0  0  0  0  0
   10.7666   -7.2489    8.4365 H   0  0  0  0  0  0  0  0  0  0  0  0
   10.2246   -6.4009    9.8802 H   0  0  0  0  0  0  0  0  0  0  0  0
   12.5892   -5.5170    8.0903 H   0  0  0  0  0  0  0  0  0  0  0  0
   12.7251   -6.3032    9.6857 H   0  0  0  0  0  0  0  0  0  0  0  0
   12.0432   -4.6597    9.5522 H   0  0  0  0  0  0  0  0  0  0  0  0
  1  2  1  0
  1 51  1  0
  1 52  1  0
  1 53  1  0
  2  3  1  0
  2 54  1  0
  2 55  1  0
  3  4  1  0
  3 56  1  0
  3 57  1  0
  4  5  1  0
  4 58  1  0
  4 59  1  0
  5  6  1  0
  5 60  1  0
  5 61  1  0
  6  7  1  0
  6 62  1  0
  6 63  1  0
  7  8  1  0
  8  9  2  0
  8 18  1  0
  9 10  1  0
  9 64  1  0
 10 11  1  0
 10 16  2  0
 11 12  1  0
 11 14  1  0
 12 13  1  0
 12 65  1  0
 12 66  1  0
 13 67  1  0
 13 68  1  0
 13 69  1  0
 14 15  1  0
 14 70  1  0
 14 71  1  0
 15 72  1  0
 15 73  1  0
 15 74  1  0
 16 17  1  0
 16 75  1  0
 17 18  2  0
 17 76  1  0
 18 19  1  0
 19 20  2  0
 19 77  1  0
 20 21  1  0
 20 23  1  0
 21 22  3  0
 23 24  2  0
 23 50  1  0
 24 25  1  0
 24 78  1  0
 25 26  2  0
 25 79  1  0
 26 27  1  0
 26 50  1  0
 27 28  2  0
 27 80  1  0
 28 29  1  0
 28 81  1  0
 29 30  2  0
 29 35  1  0
 30 31  1  0
 30 33  1  0
 31 32  3  0
 33 34  3  0
 35 36  2  0
 35 40  1  0
 36 37  1  0
 36 82  1  0
 37 38  2  0
 37 83  1  0
 38 39  1  0
 38 47  1  0
 39 40  2  0
 39 41  1  0
 40 84  1  0
 41 42  2  0
 41 46  1  0
 42 43  1  0
 42 85  1  0
 43 44  2  0
 43 86  1  0
 44 45  1  0
 44 87  1  0
 45 46  2  0
 45 88  1  0
 46 47  1  0
 47 48  1  0
 48 49  1  0
 48 89  1  0
 48 90  1  0
 49 91  1  0
 49 92  1  0
 49 93  1  0
M  END

