
     RDKit          3D

 66 67  0  0  0  0  0  0  0  0999 V2000
    9.9810   -5.0175    2.5689 C   0  0  0  0  0  0  0  0  0  0  0  0
   10.5435   -3.8677    1.9383 O   0  0  0  0  0  0  0  0  0  0  0  0
   11.5708   -3.2754    2.5812 C   0  0  0  0  0  0  0  0  0  0  0  0
   12.0034   -3.6694    3.6364 O   0  0  0  0  0  0  0  0  0  0  0  0
   12.0843   -2.0828    1.8013 C   0  0  0  0  0  0  0  0  0  0  0  0
   13.2098   -1.3303    2.5098 C   0  0  0  0  0  0  0  0  0  0  0  0
   13.7757   -0.1486    1.7114 C   0  0  0  0  0  0  0  0  0  0  0  0
   12.8173    1.0359    1.5367 C   0  0  0  0  0  0  0  0  0  0  0  0
   13.4395    2.2001    0.7623 C   0  0  0  0  0  0  0  0  0  0  0  0
   12.5270    3.4188    0.5702 C   0  0  0  0  0  0  0  0  0  0  0  0
   12.1485    4.0918    1.8107 N   0  0  0  0  0  0  0  0  0  0  0  0
   13.0634    4.8717    2.4838 C   0  0  0  0  0  0  0  0  0  0  0  0
   14.2533    4.9203    2.2408 O   0  0  0  0  0  0  0  0  0  0  0  0
   12.3059    5.6901    3.5278 C   0  0  0  0  0  0  0  0  0  0  0  0
   10.9173    5.0497    3.5665 C   0  0  0  0  0  0  0  0  0  0  0  0
   10.7575    4.4053    2.1657 C   0  0  2  0  0  0  0  0  0  0  0  0
   10.3482    5.1542    1.4564 H   0  0  0  0  0  0  0  0  0  0  0  0
    9.8479    3.2089    2.1698 C   0  0  0  0  0  0  0  0  0  0  0  0
    8.6761    3.1329    1.5257 C   0  0  0  0  0  0  0  0  0  0  0  0
    7.7262    1.9649    1.6157 C   0  0  1  0  0  0  0  0  0  0  0  0
    8.1819    1.2005    2.2774 H   0  0  0  0  0  0  0  0  0  0  0  0
    6.4753    2.3917    2.1473 O   0  0  0  0  0  0  0  0  0  0  0  0
    7.4180    1.2641    0.2750 C   0  0  2  0  0  0  0  0  0  0  0  0
    6.6871    0.4783    0.5318 H   0  0  0  0  0  0  0  0  0  0  0  0
    8.6572    0.6006   -0.3273 C   0  0  0  0  0  0  0  0  0  0  0  0
    6.7135    2.2177   -0.7227 C   0  0  0  0  0  0  0  0  0  0  0  0
    6.1333    1.5349   -1.8776 C   0  0  0  0  0  0  0  0  0  0  0  0
    5.6481    0.9537   -2.8301 C   0  0  0  0  0  0  0  0  0  0  0  0
    5.0716    0.2759   -3.9537 C   0  0  0  0  0  0  0  0  0  0  0  0
    5.6732    0.3523   -5.2281 C   0  0  0  0  0  0  0  0  0  0  0  0
    5.1088   -0.3084   -6.3193 C   0  0  0  0  0  0  0  0  0  0  0  0
    3.9376   -1.0572   -6.1631 C   0  0  0  0  0  0  0  0  0  0  0  0
    3.3319   -1.1408   -4.9049 C   0  0  0  0  0  0  0  0  0  0  0  0
    3.8900   -0.4821   -3.8092 C   0  0  0  0  0  0  0  0  0  0  0  0
    9.1707   -5.3617    1.9141 H   0  0  0  0  0  0  0  0  0  0  0  0
    9.5852   -4.7662    3.5649 H   0  0  0  0  0  0  0  0  0  0  0  0
   10.7363   -5.8096    2.6880 H   0  0  0  0  0  0  0  0  0  0  0  0
   11.2178   -1.4348    1.5868 H   0  0  0  0  0  0  0  0  0  0  0  0
   12.4135   -2.4535    0.8138 H   0  0  0  0  0  0  0  0  0  0  0  0
   14.0183   -2.0447    2.7335 H   0  0  0  0  0  0  0  0  0  0  0  0
   12.8493   -0.9806    3.4927 H   0  0  0  0  0  0  0  0  0  0  0  0
   14.1057   -0.5025    0.7165 H   0  0  0  0  0  0  0  0  0  0  0  0
   14.6887    0.2119    2.2166 H   0  0  0  0  0  0  0  0  0  0  0  0
   12.5010    1.3885    2.5348 H   0  0  0  0  0  0  0  0  0  0  0  0
   11.8958    0.7090    1.0214 H   0  0  0  0  0  0  0  0  0  0  0  0
   13.7379    1.8529   -0.2433 H   0  0  0  0  0  0  0  0  0  0  0  0
   14.3625    2.5376    1.2596 H   0  0  0  0  0  0  0  0  0  0  0  0
   11.5976    3.1205    0.0603 H   0  0  0  0  0  0  0  0  0  0  0  0
   13.0456    4.1457   -0.0799 H   0  0  0  0  0  0  0  0  0  0  0  0
   12.2767    6.7339    3.1699 H   0  0  0  0  0  0  0  0  0  0  0  0
   12.8431    5.6913    4.4867 H   0  0  0  0  0  0  0  0  0  0  0  0
   10.0986    5.7508    3.7819 H   0  0  0  0  0  0  0  0  0  0  0  0
   10.8856    4.2561    4.3308 H   0  0  0  0  0  0  0  0  0  0  0  0
   10.1837    2.3630    2.7838 H   0  0  0  0  0  0  0  0  0  0  0  0
    8.3383    3.9839    0.9206 H   0  0  0  0  0  0  0  0  0  0  0  0
    6.6443    2.8653    2.9723 H   0  0  0  0  0  0  0  0  0  0  0  0
    8.3938    0.0478   -1.2412 H   0  0  0  0  0  0  0  0  0  0  0  0
    9.1136   -0.1133    0.3777 H   0  0  0  0  0  0  0  0  0  0  0  0
    9.4244    1.3466   -0.5935 H   0  0  0  0  0  0  0  0  0  0  0  0
    7.4283    2.9806   -1.0813 H   0  0  0  0  0  0  0  0  0  0  0  0
    5.9198    2.7567   -0.1799 H   0  0  0  0  0  0  0  0  0  0  0  0
    6.5877    0.9367   -5.3494 H   0  0  0  0  0  0  0  0  0  0  0  0
    5.5870   -0.2388   -7.2998 H   0  0  0  0  0  0  0  0  0  0  0  0
    3.4978   -1.5742   -7.0198 H   0  0  0  0  0  0  0  0  0  0  0  0
    2.4164   -1.7240   -4.7761 H   0  0  0  0  0  0  0  0  0  0  0  0
    3.4174   -0.5462   -2.8268 H   0  0  0  0  0  0  0  0  0  0  0  0
  1  2  1  0
  1 35  1  0
  1 36  1  0
  1 37  1  0
  2  3  1  0
  3  4  2  0
  3  5  1  0
  5  6  1  0
  5 38  1  0
  5 39  1  0
  6  7  1  0
  6 40  1  0
  6 41  1  0
  7  8  1  0
  7 42  1  0
  7 43  1  0
  8  9  1  0
  8 44  1  0
  8 45  1  0
  9 10  1  0
  9 46  1  0
  9 47  1  0
 10 11  1  0
 10 48  1  0
 10 49  1  0
 11 12  1  0
 11 16  1  0
 12 13  2  0
 12 14  1  0
 14 15  1  0
 14 50  1  0
 14 51  1  0
 15 16  1  0
 15 52  1  0
 15 53  1  0
 16 17  1  6
 16 18  1  0
 18 19  2  0
 18 54  1  0
 19 20  1  0
 19 55  1  0
 20 21  1  1
 20 22  1  0
 20 23  1  0
 22 56  1  0
 23 24  1  1
 23 25  1  0
 23 26  1  0
 25 57  1  0
 25 58  1  0
 25 59  1  0
 26 27  1  0
 26 60  1  0
 26 61  1  0
 27 28  3  0
 28 29  1  0
 29 30  2  0
 29 34  1  0
 30 31  1  0
 30 62  1  0
 31 32  2  0
 31 63  1  0
 32 33  1  0
 32 64  1  0
 33 34  2  0
 33 65  1  0
 34 66  1  0
M  END

