
     RDKit          3D

 39 40  0  0  0  0  0  0  0  0999 V2000
    7.8413    1.8309   -3.4427 N   0  0  0  0  0  0  0  0  0  0  0  0
    6.8929    0.7457   -3.1845 C   0  0  0  0  0  0  0  0  0  0  0  0
    5.4559    1.1317   -3.4779 C   0  0  0  0  0  0  0  0  0  0  0  0
    5.1483    2.3350   -4.0813 C   0  0  0  0  0  0  0  0  0  0  0  0
    3.8194    2.7540   -4.3506 C   0  0  0  0  0  0  0  0  0  0  0  0
    2.7523    1.9016   -3.9790 C   0  0  0  0  0  0  0  0  0  0  0  0
    2.9876    0.6817   -3.3860 C   0  0  0  0  0  0  0  0  0  0  0  0
    4.3459    0.2504   -3.1005 C   0  0  0  0  0  0  0  0  0  0  0  0
    4.5673   -1.3828   -2.7503 S   0  0  1  0  0  0  0  0  0  0  0  0
    5.7273   -1.7271   -1.8935 O   0  0  0  0  0  0  0  0  0  0  0  0
    3.2677   -2.0145   -2.3507 O   0  0  0  0  0  0  0  0  0  0  0  0
    5.0115   -2.2220   -4.2535 N   0  0  0  0  0  0  0  0  0  0  0  0
    5.3788   -3.6116   -4.1651 C   0  0  0  0  0  0  0  0  0  0  0  0
    4.3946   -4.5805   -3.4774 C   0  0  0  0  0  0  0  0  0  0  0  0
    4.6604   -4.5773   -2.0475 O   0  0  0  0  0  0  0  0  0  0  0  0
    3.7952   -4.4213   -1.1000 C   0  0  0  0  0  0  0  0  0  0  0  0
    4.3630   -4.1376    0.1941 C   0  0  0  0  0  0  0  0  0  0  0  0
    3.5429   -4.0378    1.2911 C   0  0  0  0  0  0  0  0  0  0  0  0
    2.1490   -4.2202    1.1453 C   0  0  0  0  0  0  0  0  0  0  0  0
    1.5814   -4.4964   -0.1239 C   0  0  0  0  0  0  0  0  0  0  0  0
    2.3748   -4.5888   -1.2409 C   0  0  0  0  0  0  0  0  0  0  0  0
    8.7890    1.4965   -3.2719 H   0  0  0  0  0  0  0  0  0  0  0  0
    7.6844    2.5849   -2.7712 H   0  0  0  0  0  0  0  0  0  0  0  0
    6.9407    0.3490   -2.1525 H   0  0  0  0  0  0  0  0  0  0  0  0
    7.1771   -0.1085   -3.8269 H   0  0  0  0  0  0  0  0  0  0  0  0
    5.9835    2.9808   -4.3587 H   0  0  0  0  0  0  0  0  0  0  0  0
    3.6301    3.7150   -4.8303 H   0  0  0  0  0  0  0  0  0  0  0  0
    1.7181    2.2143   -4.1537 H   0  0  0  0  0  0  0  0  0  0  0  0
    2.1642    0.0323   -3.0932 H   0  0  0  0  0  0  0  0  0  0  0  0
    4.2789   -2.0359   -4.9388 H   0  0  0  0  0  0  0  0  0  0  0  0
    6.3473   -3.7030   -3.6477 H   0  0  0  0  0  0  0  0  0  0  0  0
    5.5268   -3.9998   -5.1879 H   0  0  0  0  0  0  0  0  0  0  0  0
    4.5837   -5.6171   -3.7941 H   0  0  0  0  0  0  0  0  0  0  0  0
    3.3532   -4.2986   -3.6677 H   0  0  0  0  0  0  0  0  0  0  0  0
    5.4372   -3.9656    0.2345 H   0  0  0  0  0  0  0  0  0  0  0  0
    3.9607   -3.8035    2.2707 H   0  0  0  0  0  0  0  0  0  0  0  0
    1.4984   -4.1370    2.0169 H   0  0  0  0  0  0  0  0  0  0  0  0
    0.5022   -4.6266   -0.2119 H   0  0  0  0  0  0  0  0  0  0  0  0
    1.9432   -4.7853   -2.2185 H   0  0  0  0  0  0  0  0  0  0  0  0
  1  2  1  0
  1 22  1  0
  1 23  1  0
  2  3  1  0
  2 24  1  0
  2 25  1  0
  3  4  2  0
  3  8  1  0
  4  5  1  0
  4 26  1  0
  5  6  2  0
  5 27  1  0
  6  7  1  0
  6 28  1  0
  7  8  2  0
  7 29  1  0
  8  9  1  0
  9 10  2  0
  9 11  2  0
  9 12  1  6
 12 13  1  0
 12 30  1  0
 13 14  1  0
 13 31  1  0
 13 32  1  0
 14 15  1  0
 14 33  1  0
 14 34  1  0
 15 16  1  0
 16 17  2  0
 16 21  1  0
 17 18  1  0
 17 35  1  0
 18 19  2  0
 18 36  1  0
 19 20  1  0
 19 37  1  0
 20 21  2  0
 20 38  1  0
 21 39  1  0
M  END

