
     RDKit          3D

 54 58  0  0  0  0  0  0  0  0999 V2000
   -0.9697    2.1909   -0.6611 O   0  0  0  0  0  0  0  0  0  0  0  0
   -0.0534    1.4758   -1.0506 C   0  0  0  0  0  0  0  0  0  0  0  0
    0.1169    0.0963   -0.4807 C   0  0  1  0  0  0  0  0  0  0  0  0
   -0.1788   -0.0665    1.0023 C   0  0  0  0  0  0  0  0  0  0  0  0
   -1.1473   -0.5948   -0.0015 C   0  0  0  0  0  0  0  0  0  0  0  0
    0.8327    1.9150   -2.0139 N   0  0  0  0  0  0  0  0  0  0  0  0
    0.6255    3.2349   -2.6007 C   0  0  0  0  0  0  0  0  0  0  0  0
    1.8650    4.1185   -2.4198 C   0  0  0  0  0  0  0  0  0  0  0  0
    3.0511    3.4224   -2.9203 N   0  0  0  0  0  0  0  0  0  0  0  0
    3.8160    3.9209   -3.9156 C   0  0  0  0  0  0  0  0  0  0  0  0
    3.8579    5.2740   -4.0649 O   0  0  0  0  0  0  0  0  0  0  0  0
    4.7463    5.5223   -5.0905 C   0  0  0  0  0  0  0  0  0  0  0  0
    4.9662    6.9029   -5.5048 C   0  0  0  0  0  0  0  0  0  0  0  0
    4.3252    7.9765   -4.8608 C   0  0  0  0  0  0  0  0  0  0  0  0
    4.5611    9.2841   -5.2876 C   0  0  0  0  0  0  0  0  0  0  0  0
    5.4311    9.5448   -6.3489 C   0  0  0  0  0  0  0  0  0  0  0  0
    6.0663    8.4695   -6.9823 C   0  0  0  0  0  0  0  0  0  0  0  0
    7.1579    8.7815   -8.3134 Cl  0  0  0  0  0  0  0  0  0  0  0  0
    5.8449    7.1565   -6.5751 C   0  0  0  0  0  0  0  0  0  0  0  0
    5.2608    4.4351   -5.5711 N   0  0  0  0  0  0  0  0  0  0  0  0
    4.6842    3.4031   -4.8710 C   0  0  0  0  0  0  0  0  0  0  0  0
    4.9876    1.6948   -5.2700 S   0  0  1  0  0  0  0  0  0  0  0  0
    5.9914    1.1463   -4.3401 O   0  0  0  0  0  0  0  0  0  0  0  0
    3.6721    1.0318   -5.3659 O   0  0  0  0  0  0  0  0  0  0  0  0
    5.7169    1.7599   -6.9069 C   0  0  0  0  0  0  0  0  0  0  0  0
    7.1059    1.8443   -7.0274 C   0  0  0  0  0  0  0  0  0  0  0  0
    7.6669    1.8645   -8.3061 C   0  0  0  0  0  0  0  0  0  0  0  0
    6.8430    1.7951   -9.4352 C   0  0  0  0  0  0  0  0  0  0  0  0
    5.4540    1.6996   -9.2947 C   0  0  0  0  0  0  0  0  0  0  0  0
    4.8792    1.6798   -8.0218 C   0  0  0  0  0  0  0  0  0  0  0  0
    3.2568    2.0980   -2.3379 C   0  0  0  0  0  0  0  0  0  0  0  0
    2.0126    1.2239   -2.5277 C   0  0  0  0  0  0  0  0  0  0  0  0
    0.8879   -0.5529   -0.8937 H   0  0  0  0  0  0  0  0  0  0  0  0
   -0.4600    0.8452    1.5352 H   0  0  0  0  0  0  0  0  0  0  0  0
    0.4452   -0.7681    1.5628 H   0  0  0  0  0  0  0  0  0  0  0  0
   -2.0756   -0.0363   -0.1420 H   0  0  0  0  0  0  0  0  0  0  0  0
   -1.2124   -1.6749   -0.1583 H   0  0  0  0  0  0  0  0  0  0  0  0
   -0.2480    3.6841   -2.1123 H   0  0  0  0  0  0  0  0  0  0  0  0
    0.4147    3.1266   -3.6810 H   0  0  0  0  0  0  0  0  0  0  0  0
    2.0038    4.3498   -1.3480 H   0  0  0  0  0  0  0  0  0  0  0  0
    1.7423    5.0670   -2.9575 H   0  0  0  0  0  0  0  0  0  0  0  0
    3.6476    7.7829   -4.0282 H   0  0  0  0  0  0  0  0  0  0  0  0
    4.0617   10.1166   -4.7858 H   0  0  0  0  0  0  0  0  0  0  0  0
    5.6207   10.5645   -6.6871 H   0  0  0  0  0  0  0  0  0  0  0  0
    6.3422    6.3250   -7.0749 H   0  0  0  0  0  0  0  0  0  0  0  0
    7.7263    1.8839   -6.1307 H   0  0  0  0  0  0  0  0  0  0  0  0
    8.7514    1.9305   -8.4217 H   0  0  0  0  0  0  0  0  0  0  0  0
    7.2877    1.8099  -10.4334 H   0  0  0  0  0  0  0  0  0  0  0  0
    4.8162    1.6352  -10.1795 H   0  0  0  0  0  0  0  0  0  0  0  0
    3.8002    1.5919   -7.8832 H   0  0  0  0  0  0  0  0  0  0  0  0
    3.4463    2.2280   -1.2552 H   0  0  0  0  0  0  0  0  0  0  0  0
    4.1432    1.6224   -2.7733 H   0  0  0  0  0  0  0  0  0  0  0  0
    2.1645    0.2709   -2.0107 H   0  0  0  0  0  0  0  0  0  0  0  0
    1.8970    1.0107   -3.6041 H   0  0  0  0  0  0  0  0  0  0  0  0
  1  2  2  0
  2  3  1  0
  2  6  1  0
  3  4  1  0
  3  5  1  0
  3 33  1  1
  4  5  1  0
  4 34  1  0
  4 35  1  0
  5 36  1  0
  5 37  1  0
  6  7  1  0
  6 32  1  0
  7  8  1  0
  7 38  1  0
  7 39  1  0
  8  9  1  0
  8 40  1  0
  8 41  1  0
  9 10  1  0
  9 31  1  0
 10 11  1  0
 10 21  2  0
 11 12  1  0
 12 13  1  0
 12 20  2  0
 13 14  2  0
 13 19  1  0
 14 15  1  0
 14 42  1  0
 15 16  2  0
 15 43  1  0
 16 17  1  0
 16 44  1  0
 17 18  1  0
 17 19  2  0
 19 45  1  0
 20 21  1  0
 22 21  1  1
 22 23  2  0
 22 24  2  0
 22 25  1  0
 25 26  2  0
 25 30  1  0
 26 27  1  0
 26 46  1  0
 27 28  2  0
 27 47  1  0
 28 29  1  0
 28 48  1  0
 29 30  2  0
 29 49  1  0
 30 50  1  0
 31 32  1  0
 31 51  1  0
 31 52  1  0
 32 53  1  0
 32 54  1  0
M  END

