
     RDKit          3D

 42 44  0  0  0  0  0  0  0  0999 V2000
    1.8124   -0.1666    0.8475 N   0  0  0  0  0  0  0  0  0  0  0  0
    3.1152    0.2172    0.6817 C   0  0  0  0  0  0  0  0  0  0  0  0
    3.9842   -0.0750    1.4855 O   0  0  0  0  0  0  0  0  0  0  0  0
    3.4207    1.0338   -0.5503 C   0  0  0  0  0  0  0  0  0  0  0  0
    2.4436    1.6912   -1.3159 C   0  0  0  0  0  0  0  0  0  0  0  0
    2.8060    2.4439   -2.4322 C   0  0  0  0  0  0  0  0  0  0  0  0
    4.1497    2.5337   -2.8253 C   0  0  0  0  0  0  0  0  0  0  0  0
    4.4871    3.4389   -3.9856 C   0  0  0  0  0  0  0  0  0  0  0  0
    3.9519    4.5354   -4.0666 O   0  0  0  0  0  0  0  0  0  0  0  0
    5.4246    3.0102   -4.9007 N   0  0  0  0  0  0  0  0  0  0  0  0
    5.8419    1.6341   -5.1358 C   0  0  0  0  0  0  0  0  0  0  0  0
    5.4412    1.1641   -6.5403 C   0  0  0  0  0  0  0  0  0  0  0  0
    5.9291    2.0797   -7.5566 N   0  0  0  0  0  0  0  0  0  0  0  0
    6.0162    1.6252   -8.8904 C   0  0  0  0  0  0  0  0  0  0  0  0
    5.4390    0.4115   -9.3148 C   0  0  0  0  0  0  0  0  0  0  0  0
    5.5788   -0.0366  -10.6325 C   0  0  0  0  0  0  0  0  0  0  0  0
    6.2817    0.7366  -11.5477 C   0  0  0  0  0  0  0  0  0  0  0  0
    6.4129    0.3137  -12.8166 F   0  0  0  0  0  0  0  0  0  0  0  0
    6.8574    1.9476  -11.1654 C   0  0  0  0  0  0  0  0  0  0  0  0
    6.7300    2.3801   -9.8477 C   0  0  0  0  0  0  0  0  0  0  0  0
    5.4733    3.4518   -7.3259 C   0  0  0  0  0  0  0  0  0  0  0  0
    5.8775    3.9350   -5.9350 C   0  0  0  0  0  0  0  0  0  0  0  0
    5.1295    1.8992   -2.0437 C   0  0  0  0  0  0  0  0  0  0  0  0
    4.7684    1.1673   -0.9137 C   0  0  0  0  0  0  0  0  0  0  0  0
    1.6116   -0.7717    1.6352 H   0  0  0  0  0  0  0  0  0  0  0  0
    1.1418   -0.1319    0.0924 H   0  0  0  0  0  0  0  0  0  0  0  0
    1.3911    1.6545   -1.0244 H   0  0  0  0  0  0  0  0  0  0  0  0
    2.0516    2.9878   -3.0040 H   0  0  0  0  0  0  0  0  0  0  0  0
    5.3858    0.9681   -4.3948 H   0  0  0  0  0  0  0  0  0  0  0  0
    6.9404    1.5601   -5.0343 H   0  0  0  0  0  0  0  0  0  0  0  0
    4.3341    1.0511   -6.5774 H   0  0  0  0  0  0  0  0  0  0  0  0
    5.8808    0.1695   -6.7066 H   0  0  0  0  0  0  0  0  0  0  0  0
    4.8601   -0.1981   -8.6214 H   0  0  0  0  0  0  0  0  0  0  0  0
    5.1318   -0.9786  -10.9570 H   0  0  0  0  0  0  0  0  0  0  0  0
    7.4155    2.5316  -11.9000 H   0  0  0  0  0  0  0  0  0  0  0  0
    7.2162    3.3107   -9.5496 H   0  0  0  0  0  0  0  0  0  0  0  0
    4.3685    3.5194   -7.4288 H   0  0  0  0  0  0  0  0  0  0  0  0
    5.9100    4.1220   -8.0775 H   0  0  0  0  0  0  0  0  0  0  0  0
    5.4357    4.9167   -5.7261 H   0  0  0  0  0  0  0  0  0  0  0  0
    6.9789    4.0122   -5.8829 H   0  0  0  0  0  0  0  0  0  0  0  0
    6.1855    1.9998   -2.3053 H   0  0  0  0  0  0  0  0  0  0  0  0
    5.5202    0.6882   -0.2837 H   0  0  0  0  0  0  0  0  0  0  0  0
  1  2  1  0
  1 25  1  0
  1 26  1  0
  2  3  2  0
  2  4  1  0
  4  5  2  0
  4 24  1  0
  5  6  1  0
  5 27  1  0
  6  7  2  0
  6 28  1  0
  7  8  1  0
  7 23  1  0
  8  9  2  0
  8 10  1  0
 10 11  1  0
 10 22  1  0
 11 12  1  0
 11 29  1  0
 11 30  1  0
 12 13  1  0
 12 31  1  0
 12 32  1  0
 13 14  1  0
 13 21  1  0
 14 15  2  0
 14 20  1  0
 15 16  1  0
 15 33  1  0
 16 17  2  0
 16 34  1  0
 17 18  1  0
 17 19  1  0
 19 20  2  0
 19 35  1  0
 20 36  1  0
 21 22  1  0
 21 37  1  0
 21 38  1  0
 22 39  1  0
 22 40  1  0
 23 24  2  0
 23 41  1  0
 24 42  1  0
M  END

