
     RDKit          3D

 44 44  0  0  0  0  0  0  0  0999 V2000
    4.7488    0.5449   -6.5241 C   0  0  0  0  0  0  0  0  0  0  0  0
    4.5246    0.7650   -5.1350 O   0  0  0  0  0  0  0  0  0  0  0  0
    4.7801    1.9949   -4.6709 C   0  0  0  0  0  0  0  0  0  0  0  0
    5.1233    2.9123   -5.3810 O   0  0  0  0  0  0  0  0  0  0  0  0
    4.5177    2.1164   -3.1525 C   0  0  1  0  0  0  0  0  0  0  0  0
    5.0886    3.4517   -2.6508 C   0  0  0  0  0  0  0  0  0  0  0  0
    3.0545    2.0273   -2.9975 N   0  0  0  0  0  0  0  0  0  0  0  0
    5.1125    0.9019   -2.4036 C   0  0  0  0  0  0  0  0  0  0  0  0
    6.6418    0.8285   -2.3135 C   0  0  1  0  0  0  0  0  0  0  0  0
    7.0991   -0.5472   -1.8301 C   0  0  0  0  0  0  0  0  0  0  0  0
    7.1728    1.1093   -3.6172 O   0  0  0  0  0  0  0  0  0  0  0  0
    8.3451    1.7896   -3.7680 C   0  0  0  0  0  0  0  0  0  0  0  0
    9.3845    1.8104   -2.7874 C   0  0  0  0  0  0  0  0  0  0  0  0
   10.5868    2.5253   -3.0710 C   0  0  0  0  0  0  0  0  0  0  0  0
   11.5179    2.4922   -2.0836 O   0  0  0  0  0  0  0  0  0  0  0  0
   12.7570    3.1371   -2.2662 C   0  0  0  0  0  0  0  0  0  0  0  0
   10.7719    3.2114   -4.3091 C   0  0  0  0  0  0  0  0  0  0  0  0
    9.7147    3.1818   -5.2685 C   0  0  0  0  0  0  0  0  0  0  0  0
    9.9514    3.8768   -6.4102 O   0  0  0  0  0  0  0  0  0  0  0  0
    8.9581    3.9366   -7.4094 C   0  0  0  0  0  0  0  0  0  0  0  0
    8.4993    2.4816   -5.0093 C   0  0  0  0  0  0  0  0  0  0  0  0
    4.3599   -0.4574   -6.7435 H   0  0  0  0  0  0  0  0  0  0  0  0
    5.8263    0.5856   -6.7499 H   0  0  0  0  0  0  0  0  0  0  0  0
    4.2308    1.3002   -7.1336 H   0  0  0  0  0  0  0  0  0  0  0  0
    4.5988    4.2905   -3.1669 H   0  0  0  0  0  0  0  0  0  0  0  0
    6.1685    3.5453   -2.8364 H   0  0  0  0  0  0  0  0  0  0  0  0
    4.9055    3.5511   -1.5681 H   0  0  0  0  0  0  0  0  0  0  0  0
    2.6105    2.8308   -3.4453 H   0  0  0  0  0  0  0  0  0  0  0  0
    2.8157    2.0905   -2.0065 H   0  0  0  0  0  0  0  0  0  0  0  0
    4.7171   -0.0074   -2.8774 H   0  0  0  0  0  0  0  0  0  0  0  0
    4.7236    0.9159   -1.3701 H   0  0  0  0  0  0  0  0  0  0  0  0
    7.0093    1.6081   -1.6236 H   0  0  0  0  0  0  0  0  0  0  0  0
    6.7703   -1.3226   -2.5395 H   0  0  0  0  0  0  0  0  0  0  0  0
    6.6625   -0.7724   -0.8440 H   0  0  0  0  0  0  0  0  0  0  0  0
    8.1936   -0.6047   -1.7446 H   0  0  0  0  0  0  0  0  0  0  0  0
    9.3195    1.2746   -1.8437 H   0  0  0  0  0  0  0  0  0  0  0  0
   13.3387    2.9661   -1.3503 H   0  0  0  0  0  0  0  0  0  0  0  0
   12.6327    4.2247   -2.4168 H   0  0  0  0  0  0  0  0  0  0  0  0
   13.3095    2.7220   -3.1284 H   0  0  0  0  0  0  0  0  0  0  0  0
   11.6742    3.7676   -4.5510 H   0  0  0  0  0  0  0  0  0  0  0  0
    9.3671    4.5527   -8.2216 H   0  0  0  0  0  0  0  0  0  0  0  0
    8.0280    4.3993   -7.0342 H   0  0  0  0  0  0  0  0  0  0  0  0
    8.7171    2.9327   -7.8033 H   0  0  0  0  0  0  0  0  0  0  0  0
    7.6508    2.5160   -5.6884 H   0  0  0  0  0  0  0  0  0  0  0  0
  1  2  1  0
  1 22  1  0
  1 23  1  0
  1 24  1  0
  2  3  1  0
  3  4  2  0
  5  3  1  6
  5  6  1  0
  5  7  1  0
  5  8  1  0
  6 25  1  0
  6 26  1  0
  6 27  1  0
  7 28  1  0
  7 29  1  0
  8  9  1  0
  8 30  1  0
  8 31  1  0
  9 10  1  0
  9 11  1  0
  9 32  1  1
 10 33  1  0
 10 34  1  0
 10 35  1  0
 11 12  1  0
 12 13  2  0
 12 21  1  0
 13 14  1  0
 13 36  1  0
 14 15  1  0
 14 17  2  0
 15 16  1  0
 16 37  1  0
 16 38  1  0
 16 39  1  0
 17 18  1  0
 17 40  1  0
 18 19  1  0
 18 21  2  0
 19 20  1  0
 20 41  1  0
 20 42  1  0
 20 43  1  0
 21 44  1  0
M  END

