
     RDKit          3D

 44 45  0  0  0  0  0  0  0  0999 V2000
    1.2422   -0.6099    1.7446 C   0  0  0  0  0  0  0  0  0  0  0  0
    2.6947   -0.3612    1.4143 C   0  0  0  0  0  0  0  0  0  0  0  0
    3.5596    0.2360    2.3398 C   0  0  0  0  0  0  0  0  0  0  0  0
    4.9092    0.4797    2.0473 C   0  0  0  0  0  0  0  0  0  0  0  0
    5.8232    1.1431    3.0472 C   0  0  0  0  0  0  0  0  0  0  0  0
    5.3873    0.1003    0.7824 C   0  0  0  0  0  0  0  0  0  0  0  0
    6.7083    0.3783    0.4586 O   0  0  0  0  0  0  0  0  0  0  0  0
    7.6548   -0.6578    0.6663 C   0  0  0  0  0  0  0  0  0  0  0  0
    9.0340   -0.2610    0.1382 C   0  0  0  0  0  0  0  0  0  0  0  0
    9.9950   -0.9777    0.3424 O   0  0  0  0  0  0  0  0  0  0  0  0
    9.0479    0.9139   -0.5642 N   0  0  0  0  0  0  0  0  0  0  0  0
   10.1961    1.5643   -1.0860 C   0  0  0  0  0  0  0  0  0  0  0  0
   11.0567    0.9303   -2.0049 C   0  0  0  0  0  0  0  0  0  0  0  0
   10.8080   -0.4602   -2.5188 C   0  0  0  0  0  0  0  0  0  0  0  0
   12.1570    1.6776   -2.4489 C   0  0  0  0  0  0  0  0  0  0  0  0
   12.3365    2.9833   -1.9989 C   0  0  0  0  0  0  0  0  0  0  0  0
   11.4997    3.5869   -1.1532 N   0  0  0  0  0  0  0  0  0  0  0  0
   10.4495    2.9008   -0.6949 C   0  0  0  0  0  0  0  0  0  0  0  0
    9.5277    3.6183    0.2609 C   0  0  0  0  0  0  0  0  0  0  0  0
    4.5503   -0.4888   -0.1836 C   0  0  0  0  0  0  0  0  0  0  0  0
    5.0821   -0.8609   -1.5460 C   0  0  0  0  0  0  0  0  0  0  0  0
    3.2103   -0.7100    0.1577 C   0  0  0  0  0  0  0  0  0  0  0  0
    0.9999   -0.2902    2.7687 H   0  0  0  0  0  0  0  0  0  0  0  0
    0.9872   -1.6793    1.6570 H   0  0  0  0  0  0  0  0  0  0  0  0
    0.5752   -0.0643    1.0562 H   0  0  0  0  0  0  0  0  0  0  0  0
    3.1740    0.5295    3.3208 H   0  0  0  0  0  0  0  0  0  0  0  0
    5.2526    1.5436    3.8973 H   0  0  0  0  0  0  0  0  0  0  0  0
    6.3873    1.9686    2.5861 H   0  0  0  0  0  0  0  0  0  0  0  0
    6.5686    0.4380    3.4536 H   0  0  0  0  0  0  0  0  0  0  0  0
    7.3568   -1.5890    0.1520 H   0  0  0  0  0  0  0  0  0  0  0  0
    7.7693   -0.8980    1.7378 H   0  0  0  0  0  0  0  0  0  0  0  0
    8.1795    1.4408   -0.5114 H   0  0  0  0  0  0  0  0  0  0  0  0
    9.7490   -0.5935   -2.7932 H   0  0  0  0  0  0  0  0  0  0  0  0
   11.0256   -1.2035   -1.7366 H   0  0  0  0  0  0  0  0  0  0  0  0
   11.4276   -0.6697   -3.4022 H   0  0  0  0  0  0  0  0  0  0  0  0
   12.8629    1.2400   -3.1594 H   0  0  0  0  0  0  0  0  0  0  0  0
   13.1945    3.5730   -2.3435 H   0  0  0  0  0  0  0  0  0  0  0  0
    9.9696    4.5896    0.5158 H   0  0  0  0  0  0  0  0  0  0  0  0
    9.3650    3.0387    1.1839 H   0  0  0  0  0  0  0  0  0  0  0  0
    8.5341    3.8032   -0.1860 H   0  0  0  0  0  0  0  0  0  0  0  0
    5.8275   -0.1323   -1.8975 H   0  0  0  0  0  0  0  0  0  0  0  0
    4.2698   -0.9165   -2.2851 H   0  0  0  0  0  0  0  0  0  0  0  0
    5.5778   -1.8478   -1.5342 H   0  0  0  0  0  0  0  0  0  0  0  0
    2.5468   -1.1613   -0.5869 H   0  0  0  0  0  0  0  0  0  0  0  0
  1  2  1  0
  1 23  1  0
  1 24  1  0
  1 25  1  0
  2  3  2  0
  2 22  1  0
  3  4  1  0
  3 26  1  0
  4  5  1  0
  4  6  2  0
  5 27  1  0
  5 28  1  0
  5 29  1  0
  6  7  1  0
  6 20  1  0
  7  8  1  0
  8  9  1  0
  8 30  1  0
  8 31  1  0
  9 10  2  0
  9 11  1  0
 11 12  1  0
 11 32  1  0
 12 13  2  0
 12 18  1  0
 13 14  1  0
 13 15  1  0
 14 33  1  0
 14 34  1  0
 14 35  1  0
 15 16  2  0
 15 36  1  0
 16 17  1  0
 16 37  1  0
 17 18  2  0
 18 19  1  0
 19 38  1  0
 19 39  1  0
 19 40  1  0
 20 21  1  0
 20 22  2  0
 21 41  1  0
 21 42  1  0
 21 43  1  0
 22 44  1  0
M  END

