
     RDKit          3D

 51 53  0  0  0  0  0  0  0  0999 V2000
    3.8491    0.6715   -2.9557 C   0  0  0  0  0  0  0  0  0  0  0  0
    4.9038    1.1771   -2.0011 C   0  0  0  0  0  0  0  0  0  0  0  0
    5.5395    0.3305   -1.0862 C   0  0  0  0  0  0  0  0  0  0  0  0
    6.5197    0.8021   -0.2104 C   0  0  0  0  0  0  0  0  0  0  0  0
    6.8906    2.1550   -0.2322 C   0  0  0  0  0  0  0  0  0  0  0  0
    7.8711    2.6866    0.6324 N   0  0  0  0  0  0  0  0  0  0  0  0
    8.6282    2.0486    1.5745 C   0  0  0  0  0  0  0  0  0  0  0  0
    8.5716    0.8655    1.8534 O   0  0  0  0  0  0  0  0  0  0  0  0
    9.5761    2.9488    2.3861 C   0  0  0  0  0  0  0  0  0  0  0  0
   10.0687    4.5633    1.6951 S   0  0  0  0  0  0  0  0  0  0  0  0
   11.1852    4.0289    0.4090 C   0  0  0  0  0  0  0  0  0  0  0  0
   11.3820    2.7536    0.2186 N   0  0  0  0  0  0  0  0  0  0  0  0
   12.2321    2.3293   -0.7565 C   0  0  0  0  0  0  0  0  0  0  0  0
   12.4284    0.9385   -0.9574 C   0  0  0  0  0  0  0  0  0  0  0  0
   13.2872    0.4930   -1.9402 C   0  0  0  0  0  0  0  0  0  0  0  0
   14.0049    1.3934   -2.7829 C   0  0  0  0  0  0  0  0  0  0  0  0
   14.9502    0.8703   -3.8552 C   0  0  1  0  0  0  0  0  0  0  0  0
   16.1119    0.0625   -3.2503 C   0  0  0  0  0  0  0  0  0  0  0  0
   14.2056    0.0614   -4.9319 C   0  0  0  0  0  0  0  0  0  0  0  0
   13.8159    2.7520   -2.5969 C   0  0  0  0  0  0  0  0  0  0  0  0
   12.9379    3.2487   -1.5963 C   0  0  0  0  0  0  0  0  0  0  0  0
   12.7116    4.6298   -1.3759 C   0  0  0  0  0  0  0  0  0  0  0  0
   11.8398    5.0443   -0.3823 C   0  0  0  0  0  0  0  0  0  0  0  0
   11.5982    6.4377   -0.1526 C   0  0  0  0  0  0  0  0  0  0  0  0
   11.4052    7.5698    0.0222 N   0  0  0  0  0  0  0  0  0  0  0  0
    6.2651    3.0396   -1.1471 C   0  0  0  0  0  0  0  0  0  0  0  0
    6.6381    4.5024   -1.1967 C   0  0  0  0  0  0  0  0  0  0  0  0
    5.2889    2.5270   -2.0064 C   0  0  0  0  0  0  0  0  0  0  0  0
    3.5958   -0.3802   -2.7556 H   0  0  0  0  0  0  0  0  0  0  0  0
    4.1876    0.7386   -4.0042 H   0  0  0  0  0  0  0  0  0  0  0  0
    2.9201    1.2610   -2.8813 H   0  0  0  0  0  0  0  0  0  0  0  0
    5.2661   -0.7280   -1.0493 H   0  0  0  0  0  0  0  0  0  0  0  0
    7.0056    0.1342    0.4969 H   0  0  0  0  0  0  0  0  0  0  0  0
    8.0706    3.6766    0.5273 H   0  0  0  0  0  0  0  0  0  0  0  0
   10.4709    2.3532    2.6035 H   0  0  0  0  0  0  0  0  0  0  0  0
    9.0850    3.1966    3.3412 H   0  0  0  0  0  0  0  0  0  0  0  0
   11.8788    0.2468   -0.3162 H   0  0  0  0  0  0  0  0  0  0  0  0
   13.4193   -0.5836   -2.0756 H   0  0  0  0  0  0  0  0  0  0  0  0
   15.3862    1.7547   -4.3508 H   0  0  0  0  0  0  0  0  0  0  0  0
   15.7522   -0.8526   -2.7520 H   0  0  0  0  0  0  0  0  0  0  0  0
   16.6678    0.6533   -2.5057 H   0  0  0  0  0  0  0  0  0  0  0  0
   16.8191   -0.2466   -4.0369 H   0  0  0  0  0  0  0  0  0  0  0  0
   13.7495   -0.8504   -4.5121 H   0  0  0  0  0  0  0  0  0  0  0  0
   14.8999   -0.2534   -5.7277 H   0  0  0  0  0  0  0  0  0  0  0  0
   13.4021    0.6546   -5.3955 H   0  0  0  0  0  0  0  0  0  0  0  0
   14.3495    3.4692   -3.2279 H   0  0  0  0  0  0  0  0  0  0  0  0
   13.2249    5.3728   -1.9911 H   0  0  0  0  0  0  0  0  0  0  0  0
    6.4396    5.0157   -0.2389 H   0  0  0  0  0  0  0  0  0  0  0  0
    6.0633    5.0287   -1.9714 H   0  0  0  0  0  0  0  0  0  0  0  0
    7.7081    4.6523   -1.4261 H   0  0  0  0  0  0  0  0  0  0  0  0
    4.8076    3.2140   -2.7100 H   0  0  0  0  0  0  0  0  0  0  0  0
  1  2  1  0
  1 29  1  0
  1 30  1  0
  1 31  1  0
  2  3  2  0
  2 28  1  0
  3  4  1  0
  3 32  1  0
  4  5  2  0
  4 33  1  0
  5  6  1  0
  5 26  1  0
  6  7  1  0
  6 34  1  0
  7  8  2  0
  7  9  1  0
  9 10  1  0
  9 35  1  0
  9 36  1  0
 10 11  1  0
 11 12  2  0
 11 23  1  0
 12 13  1  0
 13 14  2  0
 13 21  1  0
 14 15  1  0
 14 37  1  0
 15 16  2  0
 15 38  1  0
 16 17  1  0
 16 20  1  0
 17 18  1  0
 17 19  1  0
 17 39  1  6
 18 40  1  0
 18 41  1  0
 18 42  1  0
 19 43  1  0
 19 44  1  0
 19 45  1  0
 20 21  2  0
 20 46  1  0
 21 22  1  0
 22 23  2  0
 22 47  1  0
 23 24  1  0
 24 25  3  0
 26 27  1  0
 26 28  2  0
 27 48  1  0
 27 49  1  0
 27 50  1  0
 28 51  1  0
M  END

