
     RDKit          3D

 32 32  0  0  0  0  0  0  0  0999 V2000
    1.3654    2.1411    0.1448 C   0  0  0  0  0  0  0  0  0  0  0  0
    2.7980    1.7354    0.4960 C   0  0  0  0  0  0  0  0  0  0  0  0
    2.9074    0.5836    1.5161 C   0  0  1  0  0  0  0  0  0  0  0  0
    2.3242    0.8650    2.4084 H   0  0  0  0  0  0  0  0  0  0  0  0
    2.3873   -0.7646    1.0005 C   0  0  0  0  0  0  0  0  0  0  0  0
    3.2353   -1.3117    0.0012 O   0  0  0  0  0  0  0  0  0  0  0  0
    4.2818    0.3692    1.9465 N   0  0  0  0  0  0  0  0  0  0  0  0
    4.8720    1.1460    2.9077 C   0  0  0  0  0  0  0  0  0  0  0  0
    4.2786    2.0282    3.5063 O   0  0  0  0  0  0  0  0  0  0  0  0
    6.2091    0.8117    3.1401 N   0  0  0  0  0  0  0  0  0  0  0  0
    7.1048    1.3911    4.0403 C   0  0  0  0  0  0  0  0  0  0  0  0
    8.4078    0.8523    4.1026 C   0  0  0  0  0  0  0  0  0  0  0  0
    9.3577    1.3734    4.9706 C   0  0  0  0  0  0  0  0  0  0  0  0
    9.0337    2.4575    5.8088 C   0  0  0  0  0  0  0  0  0  0  0  0
   10.0099    3.0009    6.7077 C   0  0  0  0  0  0  0  0  0  0  0  0
   10.8026    3.4399    7.4351 N   0  0  0  0  0  0  0  0  0  0  0  0
    7.7341    2.9952    5.7457 C   0  0  0  0  0  0  0  0  0  0  0  0
    6.7777    2.4770    4.8786 C   0  0  0  0  0  0  0  0  0  0  0  0
    1.3583    3.0179   -0.5213 H   0  0  0  0  0  0  0  0  0  0  0  0
    0.7965    2.4105    1.0501 H   0  0  0  0  0  0  0  0  0  0  0  0
    0.8091    1.3395   -0.3687 H   0  0  0  0  0  0  0  0  0  0  0  0
    3.3242    2.6001    0.9295 H   0  0  0  0  0  0  0  0  0  0  0  0
    3.3578    1.4627   -0.4185 H   0  0  0  0  0  0  0  0  0  0  0  0
    1.3459   -0.6668    0.6453 H   0  0  0  0  0  0  0  0  0  0  0  0
    2.3868   -1.4890    1.8293 H   0  0  0  0  0  0  0  0  0  0  0  0
    3.0909   -0.8307   -0.8240 H   0  0  0  0  0  0  0  0  0  0  0  0
    4.8194   -0.2678    1.3670 H   0  0  0  0  0  0  0  0  0  0  0  0
    6.5775    0.0236    2.6207 H   0  0  0  0  0  0  0  0  0  0  0  0
    8.6752    0.0103    3.4573 H   0  0  0  0  0  0  0  0  0  0  0  0
   10.3600    0.9422    5.0045 H   0  0  0  0  0  0  0  0  0  0  0  0
    7.4707    3.8356    6.3913 H   0  0  0  0  0  0  0  0  0  0  0  0
    5.7747    2.8946    4.8376 H   0  0  0  0  0  0  0  0  0  0  0  0
  1  2  1  0
  1 19  1  0
  1 20  1  0
  1 21  1  0
  2  3  1  0
  2 22  1  0
  2 23  1  0
  3  4  1  1
  3  5  1  0
  3  7  1  0
  5  6  1  0
  5 24  1  0
  5 25  1  0
  6 26  1  0
  7  8  1  0
  7 27  1  0
  8  9  2  0
  8 10  1  0
 10 11  1  0
 10 28  1  0
 11 12  2  0
 11 18  1  0
 12 13  1  0
 12 29  1  0
 13 14  2  0
 13 30  1  0
 14 15  1  0
 14 17  1  0
 15 16  3  0
 17 18  2  0
 17 31  1  0
 18 32  1  0
M  END

