
     RDKit          3D

135143  0  0  0  0  0  0  0  0999 V2000
    7.2259   -0.2811   -2.1761 C   0  0  0  0  0  0  0  0  0  0  0  0
    7.0495    1.2377   -2.1585 C   0  0  0  0  0  0  0  0  0  0  0  0
    6.8538    1.8092   -0.7511 C   0  0  0  0  0  0  0  0  0  0  0  0
    6.6781    3.3416   -0.7367 C   0  0  0  0  0  0  0  0  0  0  0  0
    6.4875    3.9080    0.6473 C   0  0  0  0  0  0  0  0  0  0  0  0
    7.5922    4.2611    1.4481 C   0  0  0  0  0  0  0  0  0  0  0  0
    7.4337    4.7430    2.7398 C   0  0  0  0  0  0  0  0  0  0  0  0
    6.1378    4.9084    3.2850 C   0  0  0  0  0  0  0  0  0  0  0  0
    5.9792    5.3866    4.5912 N   0  0  0  0  0  0  0  0  0  0  0  0
    4.8730    6.1470    4.9872 C   0  0  0  0  0  0  0  0  0  0  0  0
    4.3971    6.0682    6.3187 C   0  0  0  0  0  0  0  0  0  0  0  0
    3.3096    6.8304    6.7187 C   0  0  0  0  0  0  0  0  0  0  0  0
    2.6574    7.7156    5.8352 C   0  0  0  0  0  0  0  0  0  0  0  0
    1.4934    8.5542    6.3050 C   0  0  0  0  0  0  0  0  0  0  0  0
    1.8817    9.7264    7.2324 C   0  0  0  0  0  0  0  0  0  0  0  0
    2.7267   10.8174    6.5685 C   0  0  0  0  0  0  0  0  0  0  0  0
    3.0675   11.9710    7.5130 C   0  0  0  0  0  0  0  0  0  0  0  0
    3.1514    7.8031    4.5204 C   0  0  0  0  0  0  0  0  0  0  0  0
    4.2344    7.0424    4.0957 C   0  0  0  0  0  0  0  0  0  0  0  0
    7.0047    5.0955    5.5666 C   0  0  0  0  0  0  0  0  0  0  0  0
    7.7390    6.1386    6.1501 C   0  0  0  0  0  0  0  0  0  0  0  0
    8.7288    5.8567    7.0839 C   0  0  0  0  0  0  0  0  0  0  0  0
    9.0386    4.5269    7.4751 C   0  0  0  0  0  0  0  0  0  0  0  0
   10.0961    4.2367    8.4505 C   0  0  0  0  0  0  0  0  0  0  0  0
   10.1384    3.0019    9.1736 C   0  0  0  0  0  0  0  0  0  0  0  0
   11.1302    2.7087   10.0933 C   0  0  0  0  0  0  0  0  0  0  0  0
   12.1701    3.6379   10.3530 C   0  0  0  0  0  0  0  0  0  0  0  0
   12.1172    4.8653    9.6233 C   0  0  0  0  0  0  0  0  0  0  0  0
   11.1314    5.1698    8.7129 C   0  0  0  0  0  0  0  0  0  0  0  0
   13.5033    5.9203   10.0442 S   0  0  1  0  0  0  0  0  0  0  0  0
   14.4111    6.0890    8.8949 O   0  0  0  0  0  0  0  0  0  0  0  0
   13.0461    7.1400   10.7351 O   0  0  0  0  0  0  0  0  0  0  0  0
   14.1321    4.7110   11.2061 C   0  0  0  0  0  0  0  0  0  0  0  0
   15.2749    4.8502   11.9650 C   0  0  0  0  0  0  0  0  0  0  0  0
   15.6744    3.8101   12.8387 C   0  0  0  0  0  0  0  0  0  0  0  0
   16.8940    3.9215   13.6561 C   0  0  0  0  0  0  0  0  0  0  0  0
   17.4483    5.1781   13.9998 C   0  0  0  0  0  0  0  0  0  0  0  0
   18.6114    5.2888   14.7537 C   0  0  0  0  0  0  0  0  0  0  0  0
   19.2733    4.1417   15.2270 C   0  0  0  0  0  0  0  0  0  0  0  0
   20.4645    4.2521   16.0023 N   0  0  0  0  0  0  0  0  0  0  0  0
   20.5094    5.1553   17.0892 C   0  0  0  0  0  0  0  0  0  0  0  0
   19.3815    5.3475   17.9122 C   0  0  0  0  0  0  0  0  0  0  0  0
   19.4219    6.2542   18.9687 C   0  0  0  0  0  0  0  0  0  0  0  0
   20.5786    6.9978   19.2620 C   0  0  0  0  0  0  0  0  0  0  0  0
   20.6093    7.9632   20.4273 C   0  0  0  0  0  0  0  0  0  0  0  0
   20.7331    7.2999   21.8146 C   0  0  0  0  0  0  0  0  0  0  0  0
   22.0597    6.5762   22.0621 C   0  0  0  0  0  0  0  0  0  0  0  0
   22.1523    5.9416   23.4507 C   0  0  0  0  0  0  0  0  0  0  0  0
   21.6974    6.7968   18.4378 C   0  0  0  0  0  0  0  0  0  0  0  0
   21.6698    5.9024   17.3682 C   0  0  0  0  0  0  0  0  0  0  0  0
   21.5907    3.4654   15.6651 C   0  0  0  0  0  0  0  0  0  0  0  0
   21.9078    3.2032   14.3171 C   0  0  0  0  0  0  0  0  0  0  0  0
   23.0077    2.4143   13.9894 C   0  0  0  0  0  0  0  0  0  0  0  0
   23.8446    1.8639   14.9762 C   0  0  0  0  0  0  0  0  0  0  0  0
   25.0505    1.0313   14.5969 C   0  0  0  0  0  0  0  0  0  0  0  0
   26.2527    1.8403   14.0683 C   0  0  0  0  0  0  0  0  0  0  0  0
   26.9077    2.7624   15.1007 C   0  0  0  0  0  0  0  0  0  0  0  0
   28.0986    3.5439   14.5437 C   0  0  0  0  0  0  0  0  0  0  0  0
   23.5204    2.1319   16.3158 C   0  0  0  0  0  0  0  0  0  0  0  0
   22.4145    2.9084   16.6617 C   0  0  0  0  0  0  0  0  0  0  0  0
   18.7315    2.8839   14.9104 C   0  0  0  0  0  0  0  0  0  0  0  0
   17.5791    2.7802   14.1375 C   0  0  0  0  0  0  0  0  0  0  0  0
   14.8443    2.6488   12.8842 C   0  0  0  0  0  0  0  0  0  0  0  0
   13.6972    2.5171   12.1192 C   0  0  0  0  0  0  0  0  0  0  0  0
   13.2967    3.5541   11.2397 C   0  0  0  0  0  0  0  0  0  0  0  0
    8.2722    3.4969    6.8677 C   0  0  0  0  0  0  0  0  0  0  0  0
    7.2770    3.7706    5.9352 C   0  0  0  0  0  0  0  0  0  0  0  0
    5.0216    4.5384    2.4955 C   0  0  0  0  0  0  0  0  0  0  0  0
    5.2037    4.0526    1.2072 C   0  0  0  0  0  0  0  0  0  0  0  0
    7.3602   -0.6585   -3.2021 H   0  0  0  0  0  0  0  0  0  0  0  0
    6.3485   -0.7921   -1.7459 H   0  0  0  0  0  0  0  0  0  0  0  0
    8.1075   -0.5900   -1.5902 H   0  0  0  0  0  0  0  0  0  0  0  0
    6.1846    1.5178   -2.7870 H   0  0  0  0  0  0  0  0  0  0  0  0
    7.9278    1.7186   -2.6259 H   0  0  0  0  0  0  0  0  0  0  0  0
    7.7164    1.5385   -0.1164 H   0  0  0  0  0  0  0  0  0  0  0  0
    5.9728    1.3393   -0.2783 H   0  0  0  0  0  0  0  0  0  0  0  0
    5.8128    3.6099   -1.3661 H   0  0  0  0  0  0  0  0  0  0  0  0
    7.5629    3.8067   -1.2036 H   0  0  0  0  0  0  0  0  0  0  0  0
    8.6019    4.1640    1.0403 H   0  0  0  0  0  0  0  0  0  0  0  0
    8.3042    5.0174    3.3358 H   0  0  0  0  0  0  0  0  0  0  0  0
    4.8807    5.3870    7.0189 H   0  0  0  0  0  0  0  0  0  0  0  0
    2.9464    6.7333    7.7453 H   0  0  0  0  0  0  0  0  0  0  0  0
    0.7869    7.9030    6.8477 H   0  0  0  0  0  0  0  0  0  0  0  0
    0.9488    8.9478    5.4308 H   0  0  0  0  0  0  0  0  0  0  0  0
    2.4182    9.3300    8.1134 H   0  0  0  0  0  0  0  0  0  0  0  0
    0.9509   10.1743    7.6230 H   0  0  0  0  0  0  0  0  0  0  0  0
    2.1848   11.2086    5.6876 H   0  0  0  0  0  0  0  0  0  0  0  0
    3.6605   10.3763    6.1773 H   0  0  0  0  0  0  0  0  0  0  0  0
    2.1563   12.4598    7.8966 H   0  0  0  0  0  0  0  0  0  0  0  0
    3.6698   12.7413    7.0062 H   0  0  0  0  0  0  0  0  0  0  0  0
    3.6444   11.6187    8.3842 H   0  0  0  0  0  0  0  0  0  0  0  0
    2.6836    8.4975    3.8178 H   0  0  0  0  0  0  0  0  0  0  0  0
    4.6181    7.1623    3.0820 H   0  0  0  0  0  0  0  0  0  0  0  0
    7.5277    7.1739    5.8717 H   0  0  0  0  0  0  0  0  0  0  0  0
    9.2654    6.6898    7.5390 H   0  0  0  0  0  0  0  0  0  0  0  0
    9.3419    2.2698    9.0255 H   0  0  0  0  0  0  0  0  0  0  0  0
   11.1038    1.7559   10.6284 H   0  0  0  0  0  0  0  0  0  0  0  0
   11.1830    6.1198    8.1772 H   0  0  0  0  0  0  0  0  0  0  0  0
   15.8782    5.7542   11.8594 H   0  0  0  0  0  0  0  0  0  0  0  0
   16.9496    6.0938   13.6767 H   0  0  0  0  0  0  0  0  0  0  0  0
   19.0125    6.2765   14.9910 H   0  0  0  0  0  0  0  0  0  0  0  0
   18.4700    4.7816   17.7132 H   0  0  0  0  0  0  0  0  0  0  0  0
   18.5276    6.3847   19.5857 H   0  0  0  0  0  0  0  0  0  0  0  0
   19.6873    8.5698   20.4145 H   0  0  0  0  0  0  0  0  0  0  0  0
   21.4453    8.6707   20.2920 H   0  0  0  0  0  0  0  0  0  0  0  0
   19.8976    6.5894   21.9524 H   0  0  0  0  0  0  0  0  0  0  0  0
   20.5970    8.0794   22.5864 H   0  0  0  0  0  0  0  0  0  0  0  0
   22.8920    7.2917   21.9273 H   0  0  0  0  0  0  0  0  0  0  0  0
   22.2039    5.7988   21.2916 H   0  0  0  0  0  0  0  0  0  0  0  0
   22.0479    6.6975   24.2474 H   0  0  0  0  0  0  0  0  0  0  0  0
   23.1186    5.4334   23.5998 H   0  0  0  0  0  0  0  0  0  0  0  0
   21.3568    5.1927   23.6027 H   0  0  0  0  0  0  0  0  0  0  0  0
   22.6100    7.3707   18.6233 H   0  0  0  0  0  0  0  0  0  0  0  0
   22.5502    5.7857   16.7340 H   0  0  0  0  0  0  0  0  0  0  0  0
   21.2815    3.6221   13.5278 H   0  0  0  0  0  0  0  0  0  0  0  0
   23.2248    2.2258   12.9335 H   0  0  0  0  0  0  0  0  0  0  0  0
   24.7546    0.3041   13.8212 H   0  0  0  0  0  0  0  0  0  0  0  0
   25.3729    0.4374   15.4693 H   0  0  0  0  0  0  0  0  0  0  0  0
   25.9309    2.4380   13.1959 H   0  0  0  0  0  0  0  0  0  0  0  0
   27.0091    1.1309   13.6858 H   0  0  0  0  0  0  0  0  0  0  0  0
   27.2354    2.1587   15.9674 H   0  0  0  0  0  0  0  0  0  0  0  0
   26.1551    3.4682   15.4932 H   0  0  0  0  0  0  0  0  0  0  0  0
   28.8873    2.8675   14.1729 H   0  0  0  0  0  0  0  0  0  0  0  0
   28.5514    4.1925   15.3108 H   0  0  0  0  0  0  0  0  0  0  0  0
   27.7959    4.1882   13.7012 H   0  0  0  0  0  0  0  0  0  0  0  0
   24.1375    1.7061   17.1125 H   0  0  0  0  0  0  0  0  0  0  0  0
   22.1787    3.0817   17.7131 H   0  0  0  0  0  0  0  0  0  0  0  0
   19.2307    1.9797   15.2655 H   0  0  0  0  0  0  0  0  0  0  0  0
   17.2096    1.7843   13.8864 H   0  0  0  0  0  0  0  0  0  0  0  0
   15.1039    1.8400   13.5704 H   0  0  0  0  0  0  0  0  0  0  0  0
   13.0936    1.6097   12.2047 H   0  0  0  0  0  0  0  0  0  0  0  0
    8.4817    2.4553    7.1143 H   0  0  0  0  0  0  0  0  0  0  0  0
    6.7104    2.9536    5.4820 H   0  0  0  0  0  0  0  0  0  0  0  0
    4.0170    4.6054    2.9145 H   0  0  0  0  0  0  0  0  0  0  0  0
    4.3274    3.7627    0.6210 H   0  0  0  0  0  0  0  0  0  0  0  0
  1  2  1  0
  1 70  1  0
  1 71  1  0
  1 72  1  0
  2  3  1  0
  2 73  1  0
  2 74  1  0
  3  4  1  0
  3 75  1  0
  3 76  1  0
  4  5  1  0
  4 77  1  0
  4 78  1  0
  5  6  2  0
  5 69  1  0
  6  7  1  0
  6 79  1  0
  7  8  2  0
  7 80  1  0
  8  9  1  0
  8 68  1  0
  9 10  1  0
  9 20  1  0
 10 11  2  0
 10 19  1  0
 11 12  1  0
 11 81  1  0
 12 13  2  0
 12 82  1  0
 13 14  1  0
 13 18  1  0
 14 15  1  0
 14 83  1  0
 14 84  1  0
 15 16  1  0
 15 85  1  0
 15 86  1  0
 16 17  1  0
 16 87  1  0
 16 88  1  0
 17 89  1  0
 17 90  1  0
 17 91  1  0
 18 19  2  0
 18 92  1  0
 19 93  1  0
 20 21  2  0
 20 67  1  0
 21 22  1  0
 21 94  1  0
 22 23  2  0
 22 95  1  0
 23 24  1  0
 23 66  1  0
 24 25  2  0
 24 29  1  0
 25 26  1  0
 25 96  1  0
 26 27  2  0
 26 97  1  0
 27 28  1  0
 27 65  1  0
 28 29  2  0
 30 28  1  6
 29 98  1  0
 30 31  2  0
 30 32  2  0
 30 33  1  0
 33 34  1  0
 33 65  2  0
 34 35  2  0
 34 99  1  0
 35 36  1  0
 35 63  1  0
 36 37  2  0
 36 62  1  0
 37 38  1  0
 37100  1  0
 38 39  2  0
 38101  1  0
 39 40  1  0
 39 61  1  0
 40 41  1  0
 40 51  1  0
 41 42  2  0
 41 50  1  0
 42 43  1  0
 42102  1  0
 43 44  2  0
 43103  1  0
 44 45  1  0
 44 49  1  0
 45 46  1  0
 45104  1  0
 45105  1  0
 46 47  1  0
 46106  1  0
 46107  1  0
 47 48  1  0
 47108  1  0
 47109  1  0
 48110  1  0
 48111  1  0
 48112  1  0
 49 50  2  0
 49113  1  0
 50114  1  0
 51 52  2  0
 51 60  1  0
 52 53  1  0
 52115  1  0
 53 54  2  0
 53116  1  0
 54 55  1  0
 54 59  1  0
 55 56  1  0
 55117  1  0
 55118  1  0
 56 57  1  0
 56119  1  0
 56120  1  0
 57 58  1  0
 57121  1  0
 57122  1  0
 58123  1  0
 58124  1  0
 58125  1  0
 59 60  2  0
 59126  1  0
 60127  1  0
 61 62  2  0
 61128  1  0
 62129  1  0
 63 64  2  0
 63130  1  0
 64 65  1  0
 64131  1  0
 66 67  2  0
 66132  1  0
 67133  1  0
 68 69  2  0
 68134  1  0
 69135  1  0
M  END

