
     RDKit          3D

 71 76  0  0  0  0  0  0  0  0999 V2000
    8.8329    3.0983   -2.0487 C   0  0  0  0  0  0  0  0  0  0  0  0
    8.7381    4.1652   -2.9971 O   0  0  0  0  0  0  0  0  0  0  0  0
    7.5440    4.4455   -3.5364 C   0  0  0  0  0  0  0  0  0  0  0  0
    6.3788    3.7676   -3.2241 C   0  0  0  0  0  0  0  0  0  0  0  0
    5.1562    4.1370   -3.8048 C   0  0  0  0  0  0  0  0  0  0  0  0
    3.9188    3.4169   -3.2820 C   0  0  1  0  0  0  0  0  0  0  0  0
    4.2568    2.3959   -3.0490 H   0  0  0  0  0  0  0  0  0  0  0  0
    3.5103    4.0068   -1.9416 C   0  0  0  0  0  0  0  0  0  0  0  0
    2.7578    5.1837   -1.8580 C   0  0  0  0  0  0  0  0  0  0  0  0
    2.3969    5.7515   -0.5093 C   0  0  0  0  0  0  0  0  0  0  0  0
    2.4027    4.6675    0.6011 C   0  0  2  0  0  0  0  0  0  0  0  0
    1.6136    3.9432    0.3375 H   0  0  0  0  0  0  0  0  0  0  0  0
    2.0608    5.2407    1.9616 C   0  0  0  0  0  0  0  0  0  0  0  0
    0.8788    4.8670    2.6228 C   0  0  0  0  0  0  0  0  0  0  0  0
    0.5447    5.3966    3.8726 C   0  0  0  0  0  0  0  0  0  0  0  0
    1.3909    6.3211    4.4925 C   0  0  0  0  0  0  0  0  0  0  0  0
    2.5713    6.7058    3.8491 C   0  0  0  0  0  0  0  0  0  0  0  0
    2.9011    6.1716    2.6005 C   0  0  0  0  0  0  0  0  0  0  0  0
    3.7422    3.9095    0.5689 C   0  0  0  0  0  0  0  0  0  0  0  0
    4.1074    3.3705   -0.8081 C   0  0  0  0  0  0  0  0  0  0  0  0
    4.9680    2.4366   -0.8965 O   0  0  0  0  0  0  0  0  0  0  0  0
    2.0042    5.6425   -3.0053 N   0  0  0  0  0  0  0  0  0  0  0  0
    1.0318    4.7295   -3.4576 C   0  0  0  0  0  0  0  0  0  0  0  0
   -0.3470    4.9599   -3.3435 C   0  0  0  0  0  0  0  0  0  0  0  0
   -1.2736    3.9785   -3.7054 C   0  0  0  0  0  0  0  0  0  0  0  0
   -0.8284    2.7312   -4.1493 C   0  0  0  0  0  0  0  0  0  0  0  0
    0.5428    2.4961   -4.2840 C   0  0  0  0  0  0  0  0  0  0  0  0
    1.4760    3.5019   -4.0014 C   0  0  0  0  0  0  0  0  0  0  0  0
    2.8599    3.3238   -4.3155 N   0  0  0  0  0  0  0  0  0  0  0  0
    3.2847    2.8237   -5.5294 C   0  0  0  0  0  0  0  0  0  0  0  0
    4.4534    2.4631   -5.6724 O   0  0  0  0  0  0  0  0  0  0  0  0
    2.3462    2.8141   -6.7006 C   0  0  1  0  0  0  0  0  0  0  0  0
    2.9833    2.8990   -8.0750 C   0  0  0  0  0  0  0  0  0  0  0  0
    2.3929    1.6051   -7.6196 C   0  0  0  0  0  0  0  0  0  0  0  0
    5.1084    5.2066   -4.7372 C   0  0  0  0  0  0  0  0  0  0  0  0
    6.2508    5.8898   -5.0947 C   0  0  0  0  0  0  0  0  0  0  0  0
    6.1512    6.9424   -5.9374 O   0  0  0  0  0  0  0  0  0  0  0  0
    6.9374    6.9924   -7.1247 C   0  0  0  0  0  0  0  0  0  0  0  0
    7.5098    5.5409   -4.4877 C   0  0  0  0  0  0  0  0  0  0  0  0
    8.5403    6.2905   -4.8489 O   0  0  0  0  0  0  0  0  0  0  0  0
    9.8707    6.2199   -4.3268 C   0  0  0  0  0  0  0  0  0  0  0  0
    9.8730    3.0966   -1.7015 H   0  0  0  0  0  0  0  0  0  0  0  0
    8.5945    2.1360   -2.5272 H   0  0  0  0  0  0  0  0  0  0  0  0
    8.1468    3.2591   -1.2045 H   0  0  0  0  0  0  0  0  0  0  0  0
    6.3506    2.9782   -2.4721 H   0  0  0  0  0  0  0  0  0  0  0  0
    1.4000    6.2266   -0.5488 H   0  0  0  0  0  0  0  0  0  0  0  0
    3.0998    6.5569   -0.2104 H   0  0  0  0  0  0  0  0  0  0  0  0
    0.2103    4.1435    2.1465 H   0  0  0  0  0  0  0  0  0  0  0  0
   -0.3805    5.0840    4.3648 H   0  0  0  0  0  0  0  0  0  0  0  0
    1.1337    6.7373    5.4701 H   0  0  0  0  0  0  0  0  0  0  0  0
    3.2424    7.4269    4.3244 H   0  0  0  0  0  0  0  0  0  0  0  0
    3.8311    6.4817    2.1164 H   0  0  0  0  0  0  0  0  0  0  0  0
    3.7243    3.0565    1.2669 H   0  0  0  0  0  0  0  0  0  0  0  0
    4.5553    4.5713    0.9268 H   0  0  0  0  0  0  0  0  0  0  0  0
    1.6110    6.5646   -2.8462 H   0  0  0  0  0  0  0  0  0  0  0  0
   -0.6895    5.9179   -2.9418 H   0  0  0  0  0  0  0  0  0  0  0  0
   -2.3435    4.1791   -3.6055 H   0  0  0  0  0  0  0  0  0  0  0  0
   -1.5425    1.9405   -4.3907 H   0  0  0  0  0  0  0  0  0  0  0  0
    0.8996    1.5282   -4.6412 H   0  0  0  0  0  0  0  0  0  0  0  0
    1.3802    3.2995   -6.5709 H   0  0  0  0  0  0  0  0  0  0  0  0
    4.0730    2.9710   -8.0949 H   0  0  0  0  0  0  0  0  0  0  0  0
    2.4520    3.4851   -8.8299 H   0  0  0  0  0  0  0  0  0  0  0  0
    3.0878    0.8101   -7.3362 H   0  0  0  0  0  0  0  0  0  0  0  0
    1.4466    1.2678   -8.0512 H   0  0  0  0  0  0  0  0  0  0  0  0
    4.1587    5.5165   -5.1691 H   0  0  0  0  0  0  0  0  0  0  0  0
    6.3965    7.6433   -7.8252 H   0  0  0  0  0  0  0  0  0  0  0  0
    7.0419    5.9917   -7.5769 H   0  0  0  0  0  0  0  0  0  0  0  0
    7.9361    7.4138   -6.9357 H   0  0  0  0  0  0  0  0  0  0  0  0
   10.4150    7.0281   -4.8298 H   0  0  0  0  0  0  0  0  0  0  0  0
   10.3279    5.2484   -4.5562 H   0  0  0  0  0  0  0  0  0  0  0  0
    9.8728    6.3743   -3.2404 H   0  0  0  0  0  0  0  0  0  0  0  0
  1  2  1  0
  1 42  1  0
  1 43  1  0
  1 44  1  0
  2  3  1  0
  3  4  2  0
  3 39  1  0
  4  5  1  0
  4 45  1  0
  5  6  1  0
  5 35  2  0
  6  7  1  1
  6  8  1  0
  6 29  1  0
  8  9  2  0
  8 20  1  0
  9 10  1  0
  9 22  1  0
 10 11  1  0
 10 46  1  0
 10 47  1  0
 11 12  1  6
 11 13  1  0
 11 19  1  0
 13 14  2  0
 13 18  1  0
 14 15  1  0
 14 48  1  0
 15 16  2  0
 15 49  1  0
 16 17  1  0
 16 50  1  0
 17 18  2  0
 17 51  1  0
 18 52  1  0
 19 20  1  0
 19 53  1  0
 19 54  1  0
 20 21  2  0
 22 23  1  0
 22 55  1  0
 23 24  1  0
 23 28  2  0
 24 25  2  0
 24 56  1  0
 25 26  1  0
 25 57  1  0
 26 27  2  0
 26 58  1  0
 27 28  1  0
 27 59  1  0
 28 29  1  0
 29 30  1  0
 30 31  2  0
 30 32  1  0
 32 33  1  0
 32 34  1  0
 32 60  1  1
 33 34  1  0
 33 61  1  0
 33 62  1  0
 34 63  1  0
 34 64  1  0
 35 36  1  0
 35 65  1  0
 36 37  1  0
 36 39  2  0
 37 38  1  0
 38 66  1  0
 38 67  1  0
 38 68  1  0
 39 40  1  0
 40 41  1  0
 41 69  1  0
 41 70  1  0
 41 71  1  0
M  END

