
     RDKit          3D

 46 47  0  0  0  0  0  0  0  0999 V2000
    0.5914   -1.7914    0.1933 C   0  0  0  0  0  0  0  0  0  0  0  0
    2.0337   -2.2884    0.2992 C   0  0  0  0  0  0  0  0  0  0  0  0
    3.0673   -1.1804   -0.0005 C   0  0  0  0  0  0  0  0  0  0  0  0
    4.5183   -1.6354    0.0533 C   0  0  0  0  0  0  0  0  0  0  0  0
    4.8741   -2.4374   -0.9121 O   0  0  0  0  0  0  0  0  0  0  0  0
    5.1959   -1.8656    1.3911 C   0  0  0  0  0  0  0  0  0  0  0  0
    6.7254   -1.7333    1.3507 C   0  0  0  0  0  0  0  0  0  0  0  0
    7.3746   -1.9458    2.7302 C   0  0  0  0  0  0  0  0  0  0  0  0
    8.8825   -1.8257    2.7081 C   0  0  0  0  0  0  0  0  0  0  0  0
    9.5212   -0.6052    2.9560 C   0  0  0  0  0  0  0  0  0  0  0  0
   10.9141   -0.4721    2.8998 C   0  0  0  0  0  0  0  0  0  0  0  0
   11.7053   -1.5867    2.5874 C   0  0  0  0  0  0  0  0  0  0  0  0
   13.0633   -1.5737    2.5076 O   0  0  0  0  0  0  0  0  0  0  0  0
   13.7646   -0.3723    2.7533 C   0  0  0  0  0  0  0  0  0  0  0  0
   15.2534   -0.6114    2.6467 C   0  0  0  0  0  0  0  0  0  0  0  0
   16.1073    0.4625    2.3551 C   0  0  0  0  0  0  0  0  0  0  0  0
   17.4913    0.2788    2.3043 C   0  0  0  0  0  0  0  0  0  0  0  0
   18.0389   -0.9867    2.5363 C   0  0  0  0  0  0  0  0  0  0  0  0
   17.1929   -2.0630    2.8189 C   0  0  0  0  0  0  0  0  0  0  0  0
   15.8085   -1.8775    2.8763 C   0  0  0  0  0  0  0  0  0  0  0  0
   11.0813   -2.8207    2.3356 C   0  0  0  0  0  0  0  0  0  0  0  0
    9.6960   -2.9306    2.3953 C   0  0  0  0  0  0  0  0  0  0  0  0
   -0.1270   -2.5977    0.4117 H   0  0  0  0  0  0  0  0  0  0  0  0
    0.3705   -1.4136   -0.8189 H   0  0  0  0  0  0  0  0  0  0  0  0
    0.3943   -0.9698    0.9025 H   0  0  0  0  0  0  0  0  0  0  0  0
    2.2010   -3.1229   -0.4013 H   0  0  0  0  0  0  0  0  0  0  0  0
    2.2160   -2.6924    1.3103 H   0  0  0  0  0  0  0  0  0  0  0  0
    2.9627   -0.3528    0.7217 H   0  0  0  0  0  0  0  0  0  0  0  0
    2.8663   -0.7644   -1.0035 H   0  0  0  0  0  0  0  0  0  0  0  0
    4.9360   -2.8798    1.7720 H   0  0  0  0  0  0  0  0  0  0  0  0
    4.7634   -1.1400    2.1002 H   0  0  0  0  0  0  0  0  0  0  0  0
    6.9947   -0.7363    0.9641 H   0  0  0  0  0  0  0  0  0  0  0  0
    7.1374   -2.4617    0.6327 H   0  0  0  0  0  0  0  0  0  0  0  0
    7.0885   -2.9415    3.1117 H   0  0  0  0  0  0  0  0  0  0  0  0
    6.9573   -1.2121    3.4420 H   0  0  0  0  0  0  0  0  0  0  0  0
    8.9204    0.2749    3.2050 H   0  0  0  0  0  0  0  0  0  0  0  0
   11.3637    0.4999    3.1030 H   0  0  0  0  0  0  0  0  0  0  0  0
   13.5185    0.0056    3.7664 H   0  0  0  0  0  0  0  0  0  0  0  0
   13.4558    0.4107    2.0350 H   0  0  0  0  0  0  0  0  0  0  0  0
   15.6857    1.4537    2.1616 H   0  0  0  0  0  0  0  0  0  0  0  0
   18.1435    1.1254    2.0744 H   0  0  0  0  0  0  0  0  0  0  0  0
   19.1211   -1.1339    2.4917 H   0  0  0  0  0  0  0  0  0  0  0  0
   17.6130   -3.0567    2.9956 H   0  0  0  0  0  0  0  0  0  0  0  0
   15.1463   -2.7178    3.0902 H   0  0  0  0  0  0  0  0  0  0  0  0
   11.7090   -3.6815    2.0960 H   0  0  0  0  0  0  0  0  0  0  0  0
    9.2321   -3.9019    2.1985 H   0  0  0  0  0  0  0  0  0  0  0  0
  1  2  1  0
  1 23  1  0
  1 24  1  0
  1 25  1  0
  2  3  1  0
  2 26  1  0
  2 27  1  0
  3  4  1  0
  3 28  1  0
  3 29  1  0
  4  5  2  0
  4  6  1  0
  6  7  1  0
  6 30  1  0
  6 31  1  0
  7  8  1  0
  7 32  1  0
  7 33  1  0
  8  9  1  0
  8 34  1  0
  8 35  1  0
  9 10  2  0
  9 22  1  0
 10 11  1  0
 10 36  1  0
 11 12  2  0
 11 37  1  0
 12 13  1  0
 12 21  1  0
 13 14  1  0
 14 15  1  0
 14 38  1  0
 14 39  1  0
 15 16  2  0
 15 20  1  0
 16 17  1  0
 16 40  1  0
 17 18  2  0
 17 41  1  0
 18 19  1  0
 18 42  1  0
 19 20  2  0
 19 43  1  0
 20 44  1  0
 21 22  2  0
 21 45  1  0
 22 46  1  0
M  END

