
     RDKit          3D

 37 40  0  0  0  0  0  0  0  0999 V2000
    0.5189   -0.0025   -0.0678 C   0  0  0  0  0  0  0  0  0  0  0  0
    0.4483   -0.4397   -1.4498 N   0  0  0  0  0  0  0  0  0  0  0  0
    0.8569    0.5433   -2.4379 C   0  0  0  0  0  0  0  0  0  0  0  0
    2.3858    0.6817   -2.6114 C   0  0  0  0  0  0  0  0  0  0  0  0
    2.9904   -0.6253   -2.8398 N   0  0  0  0  0  0  0  0  0  0  0  0
    3.8049   -0.9511   -3.8960 C   0  0  0  0  0  0  0  0  0  0  0  0
    3.9916   -2.2228   -4.1670 N   0  0  0  0  0  0  0  0  0  0  0  0
    4.7576   -2.6159   -5.2318 C   0  0  0  0  0  0  0  0  0  0  0  0
    4.9185   -3.9927   -5.5113 C   0  0  0  0  0  0  0  0  0  0  0  0
    5.6547   -4.4333   -6.6021 C   0  0  0  0  0  0  0  0  0  0  0  0
    6.2574   -3.4939   -7.4544 C   0  0  0  0  0  0  0  0  0  0  0  0
    7.1792   -4.0432   -8.8355 Cl  0  0  0  0  0  0  0  0  0  0  0  0
    6.1321   -2.1278   -7.2169 C   0  0  0  0  0  0  0  0  0  0  0  0
    5.3904   -1.6980   -6.1096 C   0  0  0  0  0  0  0  0  0  0  0  0
    5.2414   -0.3443   -5.7763 N   0  0  0  0  0  0  0  0  0  0  0  0
    5.8297    0.7697   -6.3070 C   0  0  0  0  0  0  0  0  0  0  0  0
    5.5206    1.8573   -5.6324 N   0  0  0  0  0  0  0  0  0  0  0  0
    4.7016    1.4591   -4.6238 C   0  0  0  0  0  0  0  0  0  0  0  0
    4.4853    0.0810   -4.6757 C   0  0  0  0  0  0  0  0  0  0  0  0
    2.6000   -1.6471   -1.8647 C   0  0  0  0  0  0  0  0  0  0  0  0
    1.0725   -1.7270   -1.7318 C   0  0  0  0  0  0  0  0  0  0  0  0
   -0.0744    0.9176    0.0590 H   0  0  0  0  0  0  0  0  0  0  0  0
    1.5409    0.2087    0.3188 H   0  0  0  0  0  0  0  0  0  0  0  0
    0.0768   -0.7726    0.5850 H   0  0  0  0  0  0  0  0  0  0  0  0
    0.4311    1.5266   -2.1793 H   0  0  0  0  0  0  0  0  0  0  0  0
    0.4335    0.2493   -3.4160 H   0  0  0  0  0  0  0  0  0  0  0  0
    2.8351    1.1594   -1.7186 H   0  0  0  0  0  0  0  0  0  0  0  0
    2.5709    1.3341   -3.4695 H   0  0  0  0  0  0  0  0  0  0  0  0
    4.4342   -4.7032   -4.8390 H   0  0  0  0  0  0  0  0  0  0  0  0
    5.7679   -5.4988   -6.8075 H   0  0  0  0  0  0  0  0  0  0  0  0
    6.6097   -1.4174   -7.8911 H   0  0  0  0  0  0  0  0  0  0  0  0
    6.4811    0.7285   -7.1778 H   0  0  0  0  0  0  0  0  0  0  0  0
    4.3269    2.1750   -3.8976 H   0  0  0  0  0  0  0  0  0  0  0  0
    3.0520   -1.3872   -0.8877 H   0  0  0  0  0  0  0  0  0  0  0  0
    3.0155   -2.6058   -2.1934 H   0  0  0  0  0  0  0  0  0  0  0  0
    0.8058   -2.4444   -0.9389 H   0  0  0  0  0  0  0  0  0  0  0  0
    0.6588   -2.1158   -2.6798 H   0  0  0  0  0  0  0  0  0  0  0  0
  1  2  1  0
  1 22  1  0
  1 23  1  0
  1 24  1  0
  2  3  1  0
  2 21  1  0
  3  4  1  0
  3 25  1  0
  3 26  1  0
  4  5  1  0
  4 27  1  0
  4 28  1  0
  5  6  1  0
  5 20  1  0
  6  7  2  0
  6 19  1  0
  7  8  1  0
  8  9  2  0
  8 14  1  0
  9 10  1  0
  9 29  1  0
 10 11  2  0
 10 30  1  0
 11 12  1  0
 11 13  1  0
 13 14  2  0
 13 31  1  0
 14 15  1  0
 15 16  1  0
 15 19  1  0
 16 17  2  0
 16 32  1  0
 17 18  1  0
 18 19  2  0
 18 33  1  0
 20 21  1  0
 20 34  1  0
 20 35  1  0
 21 36  1  0
 21 37  1  0
M  END

