
     RDKit          3D

 18 19  0  0  0  0  0  0  0  0999 V2000
   -1.1484    0.8226    0.8593 C   0  0  0  0  0  0  0  0  0  0  0  0
   -0.0476    1.6474    0.1401 C   0  0  0  0  0  0  0  0  0  0  0  0
    0.8936    0.6814   -0.6150 C   0  0  1  0  0  0  0  0  0  0  0  0
    1.6294    1.2174   -1.2280 H   0  0  0  0  0  0  0  0  0  0  0  0
    1.5653   -0.2887    0.3835 C   0  0  0  0  0  0  0  0  0  0  0  0
    0.4660   -1.1123    1.1060 C   0  0  0  0  0  0  0  0  0  0  0  0
   -0.9192   -0.6793    0.5747 C   0  0  2  0  0  0  0  0  0  0  0  0
   -1.7282   -1.3031    0.9758 H   0  0  0  0  0  0  0  0  0  0  0  0
   -0.8636   -0.8216   -0.9008 N   0  0  0  0  0  0  0  0  0  0  0  0
    0.0276   -0.1493   -1.4870 N   0  0  0  0  0  0  0  0  0  0  0  0
   -2.1490    1.1074    0.5035 H   0  0  0  0  0  0  0  0  0  0  0  0
   -1.1311    0.9860    1.9509 H   0  0  0  0  0  0  0  0  0  0  0  0
    0.5487    2.2405    0.8553 H   0  0  0  0  0  0  0  0  0  0  0  0
   -0.4907    2.3527   -0.5777 H   0  0  0  0  0  0  0  0  0  0  0  0
    2.1711    0.2956    1.0976 H   0  0  0  0  0  0  0  0  0  0  0  0
    2.2543   -0.9479   -0.1641 H   0  0  0  0  0  0  0  0  0  0  0  0
    0.4939   -0.9575    2.1986 H   0  0  0  0  0  0  0  0  0  0  0  0
    0.5993   -2.1889    0.9263 H   0  0  0  0  0  0  0  0  0  0  0  0
  1  2  1  0
  1  7  1  0
  1 11  1  0
  1 12  1  0
  2  3  1  0
  2 13  1  0
  2 14  1  0
  3  4  1  6
  3  5  1  0
  3 10  1  0
  5  6  1  0
  5 15  1  0
  5 16  1  0
  6  7  1  0
  6 17  1  0
  6 18  1  0
  7  8  1  1
  7  9  1  0
  9 10  2  0
M  END

