
     RDKit          3D

 75 77  0  0  0  0  0  0  0  0999 V2000
    2.9584   -0.4343    1.5331 C   0  0  0  0  0  0  0  0  0  0  0  0
    2.7010    0.1332    0.1354 C   0  0  0  0  0  0  0  0  0  0  0  0
    3.2456   -0.7109   -1.0573 C   0  0  1  0  0  0  0  0  0  0  0  0
    2.5811   -2.1205   -1.0605 C   0  0  0  0  0  0  0  0  0  0  0  0
    1.0609   -2.1410   -1.2334 C   0  0  0  0  0  0  0  0  0  0  0  0
    2.9485   -0.0277   -2.4135 C   0  0  0  0  0  0  0  0  0  0  0  0
    3.4807   -0.5754   -3.5898 C   0  0  0  0  0  0  0  0  0  0  0  0
    3.2280   -0.0161   -4.8436 C   0  0  0  0  0  0  0  0  0  0  0  0
    2.4302    1.1306   -4.9538 C   0  0  0  0  0  0  0  0  0  0  0  0
    2.1481    1.7658   -6.1284 O   0  0  0  0  0  0  0  0  0  0  0  0
    2.5443    1.2343   -7.4022 C   0  0  1  0  0  0  0  0  0  0  0  0
    1.5792    0.1329   -7.8361 C   0  0  0  0  0  0  0  0  0  0  0  0
    2.5226    2.4300   -8.3832 C   0  0  1  0  0  0  0  0  0  0  0  0
    1.3027    3.1300   -8.2314 O   0  0  0  0  0  0  0  0  0  0  0  0
    3.7611    3.3865   -8.3672 C   0  0  1  0  0  0  0  0  0  0  0  0
    5.0469    2.5944   -8.6695 C   0  0  0  0  0  0  0  0  0  0  0  0
    3.5425    4.4230   -9.4879 C   0  0  0  0  0  0  0  0  0  0  0  0
    3.9110    4.1254   -7.0250 C   0  0  0  0  0  0  0  0  0  0  0  0
    1.8778    1.7119   -3.7934 C   0  0  0  0  0  0  0  0  0  0  0  0
    1.0185    2.9443   -3.9072 C   0  0  0  0  0  0  0  0  0  0  0  0
    2.1499    1.1188   -2.5539 C   0  0  0  0  0  0  0  0  0  0  0  0
    4.7810   -0.8165   -0.9004 C   0  0  0  0  0  0  0  0  0  0  0  0
    5.4529   -2.0093   -0.6035 C   0  0  0  0  0  0  0  0  0  0  0  0
    6.8396   -2.0186   -0.4369 C   0  0  0  0  0  0  0  0  0  0  0  0
    7.6067   -0.8520   -0.5653 C   0  0  0  0  0  0  0  0  0  0  0  0
    9.1009   -0.9045   -0.4125 C   0  0  0  0  0  0  0  0  0  0  0  0
    9.8694   -0.1998   -1.0286 O   0  0  0  0  0  0  0  0  0  0  0  0
    9.5369   -1.8528    0.5211 N   0  0  0  0  0  0  0  0  0  0  0  0
   10.8492   -2.1518    0.8358 C   0  0  0  0  0  0  0  0  0  0  0  0
   11.9224   -2.0207    0.0116 N   0  0  0  0  0  0  0  0  0  0  0  0
   12.9477   -2.4554    0.6877 N   0  0  0  0  0  0  0  0  0  0  0  0
   12.4822   -2.8358    1.8614 N   0  0  0  0  0  0  0  0  0  0  0  0
   13.0808   -3.2224    2.5853 H   0  0  0  0  0  0  0  0  0  0  0  0
   11.1762   -2.6666    2.0199 N   0  0  0  0  0  0  0  0  0  0  0  0
    6.9545    0.3659   -0.8898 C   0  0  0  0  0  0  0  0  0  0  0  0
    7.6968    1.6662   -1.0810 C   0  0  0  0  0  0  0  0  0  0  0  0
    5.5634    0.3443   -1.0384 C   0  0  0  0  0  0  0  0  0  0  0  0
    2.5897    0.2660    2.2993 H   0  0  0  0  0  0  0  0  0  0  0  0
    4.0315   -0.5956    1.7206 H   0  0  0  0  0  0  0  0  0  0  0  0
    2.4428   -1.3935    1.6984 H   0  0  0  0  0  0  0  0  0  0  0  0
    3.1406    1.1417    0.0772 H   0  0  0  0  0  0  0  0  0  0  0  0
    1.6164    0.2729    0.0058 H   0  0  0  0  0  0  0  0  0  0  0  0
    2.8361   -2.6425   -0.1245 H   0  0  0  0  0  0  0  0  0  0  0  0
    3.0361   -2.7167   -1.8677 H   0  0  0  0  0  0  0  0  0  0  0  0
    0.5375   -1.6539   -0.3955 H   0  0  0  0  0  0  0  0  0  0  0  0
    0.6988   -3.1804   -1.2794 H   0  0  0  0  0  0  0  0  0  0  0  0
    0.7477   -1.6379   -2.1612 H   0  0  0  0  0  0  0  0  0  0  0  0
    4.1226   -1.4581   -3.5371 H   0  0  0  0  0  0  0  0  0  0  0  0
    3.6639   -0.4813   -5.7276 H   0  0  0  0  0  0  0  0  0  0  0  0
    3.5686    0.8382   -7.3322 H   0  0  0  0  0  0  0  0  0  0  0  0
    0.5844    0.5664   -8.0168 H   0  0  0  0  0  0  0  0  0  0  0  0
    1.4911   -0.6505   -7.0691 H   0  0  0  0  0  0  0  0  0  0  0  0
    1.9286   -0.3379   -8.7683 H   0  0  0  0  0  0  0  0  0  0  0  0
    2.4954    1.9927   -9.3971 H   0  0  0  0  0  0  0  0  0  0  0  0
    1.1615    3.2286   -7.2781 H   0  0  0  0  0  0  0  0  0  0  0  0
    4.9471    1.9961   -9.5913 H   0  0  0  0  0  0  0  0  0  0  0  0
    5.3263    1.9133   -7.8500 H   0  0  0  0  0  0  0  0  0  0  0  0
    5.8942    3.2833   -8.8165 H   0  0  0  0  0  0  0  0  0  0  0  0
    3.4887    3.9362  -10.4761 H   0  0  0  0  0  0  0  0  0  0  0  0
    4.3723    5.1475   -9.5150 H   0  0  0  0  0  0  0  0  0  0  0  0
    2.6021    4.9706   -9.3336 H   0  0  0  0  0  0  0  0  0  0  0  0
    4.1354    3.4401   -6.1944 H   0  0  0  0  0  0  0  0  0  0  0  0
    2.9937    4.6803   -6.7725 H   0  0  0  0  0  0  0  0  0  0  0  0
    4.7316    4.8589   -7.0856 H   0  0  0  0  0  0  0  0  0  0  0  0
    0.1404    2.7635   -4.5498 H   0  0  0  0  0  0  0  0  0  0  0  0
    1.5742    3.7814   -4.3620 H   0  0  0  0  0  0  0  0  0  0  0  0
    0.6586    3.2697   -2.9204 H   0  0  0  0  0  0  0  0  0  0  0  0
    1.7083    1.5900   -1.6751 H   0  0  0  0  0  0  0  0  0  0  0  0
    4.9119   -2.9494   -0.5008 H   0  0  0  0  0  0  0  0  0  0  0  0
    7.3349   -2.9714   -0.2334 H   0  0  0  0  0  0  0  0  0  0  0  0
    8.8548   -2.2164    1.1765 H   0  0  0  0  0  0  0  0  0  0  0  0
    8.3837    1.8757   -0.2470 H   0  0  0  0  0  0  0  0  0  0  0  0
    6.9896    2.5034   -1.1721 H   0  0  0  0  0  0  0  0  0  0  0  0
    8.3263    1.6307   -1.9823 H   0  0  0  0  0  0  0  0  0  0  0  0
    5.0653    1.2831   -1.2926 H   0  0  0  0  0  0  0  0  0  0  0  0
  1  2  1  0
  1 38  1  0
  1 39  1  0
  1 40  1  0
  3  2  1  1
  2 41  1  0
  2 42  1  0
  3  4  1  0
  3  6  1  0
  3 22  1  0
  4  5  1  0
  4 43  1  0
  4 44  1  0
  5 45  1  0
  5 46  1  0
  5 47  1  0
  6  7  2  0
  6 21  1  0
  7  8  1  0
  7 48  1  0
  8  9  2  0
  8 49  1  0
  9 10  1  0
  9 19  1  0
 10 11  1  0
 11 12  1  0
 11 13  1  0
 11 50  1  1
 12 51  1  0
 12 52  1  0
 12 53  1  0
 13 14  1  0
 13 15  1  0
 13 54  1  6
 14 55  1  0
 15 16  1  6
 15 17  1  0
 15 18  1  0
 16 56  1  0
 16 57  1  0
 16 58  1  0
 17 59  1  0
 17 60  1  0
 17 61  1  0
 18 62  1  0
 18 63  1  0
 18 64  1  0
 19 20  1  0
 19 21  2  0
 20 65  1  0
 20 66  1  0
 20 67  1  0
 21 68  1  0
 22 23  2  0
 22 37  1  0
 23 24  1  0
 23 69  1  0
 24 25  2  0
 24 70  1  0
 25 26  1  0
 25 35  1  0
 26 27  2  0
 26 28  1  0
 28 29  1  0
 28 71  1  0
 29 30  1  0
 29 34  2  0
 30 31  2  0
 31 32  1  0
 32 33  1  0
 32 34  1  0
 35 36  1  0
 35 37  2  0
 36 72  1  0
 36 73  1  0
 36 74  1  0
 37 75  1  0
M  END

