
     RDKit          3D

 37 38  0  0  0  0  0  0  0  0999 V2000
    1.0794    0.6992   -0.7088 C   0  0  0  0  0  0  0  0  0  0  0  0
    2.3767    0.0233   -0.2160 C   0  0  0  0  0  0  0  0  0  0  0  0
    2.9357   -0.9344   -1.2027 C   0  0  0  0  0  0  0  0  0  0  0  0
    4.1153   -0.8832   -1.9545 C   0  0  0  0  0  0  0  0  0  0  0  0
    4.0906   -1.9915   -2.7835 C   0  0  0  0  0  0  0  0  0  0  0  0
    4.9414   -2.3626   -3.9180 C   0  0  0  0  0  0  0  0  0  0  0  0
    4.2214   -1.5356   -5.5264 S   0  0  1  0  0  0  0  0  0  0  0  0
    5.3235   -1.8475   -6.4502 O   0  0  0  0  0  0  0  0  0  0  0  0
    2.9056   -2.2145   -5.6310 O   0  0  0  0  0  0  0  0  0  0  0  0
    4.0316    0.1248   -5.2641 C   0  0  0  0  0  0  0  0  0  0  0  0
    5.1581    1.0102   -5.4362 C   0  0  0  0  0  0  0  0  0  0  0  0
    5.0268    2.3444   -5.1178 C   0  0  0  0  0  0  0  0  0  0  0  0
    3.8091    2.8825   -4.6117 C   0  0  0  0  0  0  0  0  0  0  0  0
    2.7182    1.9990   -4.4852 C   0  0  0  0  0  0  0  0  0  0  0  0
    1.5499    2.5020   -4.0066 F   0  0  0  0  0  0  0  0  0  0  0  0
    2.7676    0.6638   -4.7992 C   0  0  0  0  0  0  0  0  0  0  0  0
    2.8850   -2.6797   -2.4562 N   0  0  0  0  0  0  0  0  0  0  0  0
    2.4196   -3.9044   -3.1135 C   0  0  0  0  0  0  0  0  0  0  0  0
    1.0521   -4.3535   -2.6376 C   0  0  0  0  0  0  0  0  0  0  0  0
    2.2080   -2.0767   -1.5403 N   0  0  0  0  0  0  0  0  0  0  0  0
    0.6975    1.3746    0.0709 H   0  0  0  0  0  0  0  0  0  0  0  0
    0.3036   -0.0515   -0.9213 H   0  0  0  0  0  0  0  0  0  0  0  0
    1.2535    1.2839   -1.6234 H   0  0  0  0  0  0  0  0  0  0  0  0
    2.1600   -0.5328    0.7145 H   0  0  0  0  0  0  0  0  0  0  0  0
    3.1406    0.7776    0.0200 H   0  0  0  0  0  0  0  0  0  0  0  0
    4.8690   -0.1023   -1.9477 H   0  0  0  0  0  0  0  0  0  0  0  0
    4.9924   -3.4370   -4.1331 H   0  0  0  0  0  0  0  0  0  0  0  0
    5.9493   -1.9449   -3.8137 H   0  0  0  0  0  0  0  0  0  0  0  0
    6.0927    0.6187   -5.8389 H   0  0  0  0  0  0  0  0  0  0  0  0
    5.8807    3.0113   -5.2653 H   0  0  0  0  0  0  0  0  0  0  0  0
    3.6955    3.9335   -4.3513 H   0  0  0  0  0  0  0  0  0  0  0  0
    1.8793    0.0412   -4.7181 H   0  0  0  0  0  0  0  0  0  0  0  0
    3.1888   -4.6757   -2.9325 H   0  0  0  0  0  0  0  0  0  0  0  0
    2.4327   -3.6717   -4.1943 H   0  0  0  0  0  0  0  0  0  0  0  0
    1.0396   -4.5682   -1.5592 H   0  0  0  0  0  0  0  0  0  0  0  0
    0.7787   -5.2695   -3.1811 H   0  0  0  0  0  0  0  0  0  0  0  0
    0.2891   -3.5891   -2.8431 H   0  0  0  0  0  0  0  0  0  0  0  0
  1  2  1  0
  1 21  1  0
  1 22  1  0
  1 23  1  0
  2  3  1  0
  2 24  1  0
  2 25  1  0
  3  4  1  0
  3 20  2  0
  4  5  2  0
  4 26  1  0
  5  6  1  0
  5 17  1  0
  7  6  1  1
  6 27  1  0
  6 28  1  0
  7  8  2  0
  7  9  2  0
  7 10  1  0
 10 11  2  0
 10 16  1  0
 11 12  1  0
 11 29  1  0
 12 13  2  0
 12 30  1  0
 13 14  1  0
 13 31  1  0
 14 15  1  0
 14 16  2  0
 16 32  1  0
 17 18  1  0
 17 20  1  0
 18 19  1  0
 18 33  1  0
 18 34  1  0
 19 35  1  0
 19 36  1  0
 19 37  1  0
M  END

