
     RDKit          3D

 63 68  0  0  0  0  0  0  0  0999 V2000
    0.5524   -5.2609    0.1922 O   0  0  0  0  0  0  0  0  0  0  0  0
    0.9630   -4.1134    0.4539 C   0  0  0  0  0  0  0  0  0  0  0  0
    0.6338   -3.0223   -0.3610 N   0  0  0  0  0  0  0  0  0  0  0  0
   -0.0064   -3.2344   -1.6400 C   0  0  0  0  0  0  0  0  0  0  0  0
    0.9403   -3.5465   -2.7874 C   0  0  0  0  0  0  0  0  0  0  0  0
    1.6561   -4.7546   -2.8302 C   0  0  0  0  0  0  0  0  0  0  0  0
    2.5237   -4.9869   -3.8969 C   0  0  0  0  0  0  0  0  0  0  0  0
    2.6512   -4.0063   -4.8879 C   0  0  0  0  0  0  0  0  0  0  0  0
    1.9802   -2.8535   -4.8649 N   0  0  0  0  0  0  0  0  0  0  0  0
    1.1506   -2.6420   -3.8379 C   0  0  0  0  0  0  0  0  0  0  0  0
    1.7758   -3.8164    1.5929 C   0  0  0  0  0  0  0  0  0  0  0  0
    2.2750   -4.6320    2.6226 C   0  0  0  0  0  0  0  0  0  0  0  0
    3.0410   -3.8067    3.4747 C   0  0  0  0  0  0  0  0  0  0  0  0
    3.8015   -3.9834    4.6642 C   0  0  0  0  0  0  0  0  0  0  0  0
    4.4698   -2.8850    5.2446 C   0  0  0  0  0  0  0  0  0  0  0  0
    5.2387   -3.0218    6.5681 C   0  0  1  0  0  0  0  0  0  0  0  0
    4.4813   -2.4858    7.6517 O   0  0  0  0  0  0  0  0  0  0  0  0
    5.5829   -4.4707    6.9727 C   0  0  0  0  0  0  0  0  0  0  0  0
    6.6052   -5.1439    6.0606 C   0  0  0  0  0  0  0  0  0  0  0  0
    7.7705   -4.3164    5.7497 N   0  0  0  0  0  0  0  0  0  0  0  0
    8.9846   -5.0271    5.3406 C   0  0  0  0  0  0  0  0  0  0  0  0
   10.0772   -4.2038    4.7341 C   0  0  0  0  0  0  0  0  0  0  0  0
   10.2575   -3.9327    3.4080 C   0  0  0  0  0  0  0  0  0  0  0  0
   11.4143   -3.1166    3.1462 C   0  0  0  0  0  0  0  0  0  0  0  0
   11.9081   -2.6393    1.9144 C   0  0  0  0  0  0  0  0  0  0  0  0
   13.0562   -1.8585    1.8974 C   0  0  0  0  0  0  0  0  0  0  0  0
   13.7309   -1.5410    3.0943 C   0  0  0  0  0  0  0  0  0  0  0  0
   13.2669   -1.9980    4.3240 C   0  0  0  0  0  0  0  0  0  0  0  0
   12.1067   -2.7847    4.3399 C   0  0  0  0  0  0  0  0  0  0  0  0
   11.3254   -3.4841    5.7449 S   0  0  0  0  0  0  0  0  0  0  0  0
    7.6179   -2.8752    5.6052 C   0  0  0  0  0  0  0  0  0  0  0  0
    6.5942   -2.2764    6.5635 C   0  0  0  0  0  0  0  0  0  0  0  0
    4.3602   -1.6041    4.6669 C   0  0  0  0  0  0  0  0  0  0  0  0
    3.5967   -1.3950    3.4862 C   0  0  0  0  0  0  0  0  0  0  0  0
    2.9728   -2.4910    2.9216 C   0  0  0  0  0  0  0  0  0  0  0  0
    2.2175   -2.4933    1.7982 O   0  0  0  0  0  0  0  0  0  0  0  0
    1.1769   -2.1770   -0.2320 H   0  0  0  0  0  0  0  0  0  0  0  0
   -0.6078   -2.3459   -1.8968 H   0  0  0  0  0  0  0  0  0  0  0  0
   -0.6952   -4.0819   -1.5066 H   0  0  0  0  0  0  0  0  0  0  0  0
    1.5141   -5.4813   -2.0250 H   0  0  0  0  0  0  0  0  0  0  0  0
    3.0937   -5.9172   -3.9666 H   0  0  0  0  0  0  0  0  0  0  0  0
    3.3266   -4.1644   -5.7384 H   0  0  0  0  0  0  0  0  0  0  0  0
    0.6064   -1.6875   -3.8432 H   0  0  0  0  0  0  0  0  0  0  0  0
    2.0752   -5.6962    2.7079 H   0  0  0  0  0  0  0  0  0  0  0  0
    3.8160   -4.9728    5.1225 H   0  0  0  0  0  0  0  0  0  0  0  0
    3.6965   -2.0767    7.2633 H   0  0  0  0  0  0  0  0  0  0  0  0
    4.6831   -5.0962    7.0011 H   0  0  0  0  0  0  0  0  0  0  0  0
    5.9673   -4.4336    8.0041 H   0  0  0  0  0  0  0  0  0  0  0  0
    6.1558   -5.3724    5.0802 H   0  0  0  0  0  0  0  0  0  0  0  0
    6.9742   -6.0932    6.4784 H   0  0  0  0  0  0  0  0  0  0  0  0
    8.6637   -5.8106    4.6337 H   0  0  0  0  0  0  0  0  0  0  0  0
    9.3346   -5.5669    6.2392 H   0  0  0  0  0  0  0  0  0  0  0  0
    9.5933   -4.3019    2.6233 H   0  0  0  0  0  0  0  0  0  0  0  0
   11.3859   -2.8837    0.9863 H   0  0  0  0  0  0  0  0  0  0  0  0
   13.4433   -1.4842    0.9472 H   0  0  0  0  0  0  0  0  0  0  0  0
   14.6327   -0.9255    3.0572 H   0  0  0  0  0  0  0  0  0  0  0  0
   13.7929   -1.7496    5.2481 H   0  0  0  0  0  0  0  0  0  0  0  0
    7.3033   -2.7198    4.5566 H   0  0  0  0  0  0  0  0  0  0  0  0
    8.6115   -2.4189    5.7069 H   0  0  0  0  0  0  0  0  0  0  0  0
    6.4661   -1.2222    6.2934 H   0  0  0  0  0  0  0  0  0  0  0  0
    6.9898   -2.2897    7.5921 H   0  0  0  0  0  0  0  0  0  0  0  0
    4.8427   -0.7394    5.1249 H   0  0  0  0  0  0  0  0  0  0  0  0
    3.5044   -0.4046    3.0372 H   0  0  0  0  0  0  0  0  0  0  0  0
  1  2  2  0
  2  3  1  0
  2 11  1  0
  3  4  1  0
  3 37  1  0
  4  5  1  0
  4 38  1  0
  4 39  1  0
  5  6  2  0
  5 10  1  0
  6  7  1  0
  6 40  1  0
  7  8  2  0
  7 41  1  0
  8  9  1  0
  8 42  1  0
  9 10  2  0
 10 43  1  0
 11 12  2  0
 11 36  1  0
 12 13  1  0
 12 44  1  0
 13 14  2  0
 13 35  1  0
 14 15  1  0
 14 45  1  0
 15 16  1  0
 15 33  2  0
 16 17  1  1
 16 18  1  0
 16 32  1  0
 17 46  1  0
 18 19  1  0
 18 47  1  0
 18 48  1  0
 19 20  1  0
 19 49  1  0
 19 50  1  0
 20 21  1  0
 20 31  1  0
 21 22  1  0
 21 51  1  0
 21 52  1  0
 22 23  2  0
 22 30  1  0
 23 24  1  0
 23 53  1  0
 24 25  2  0
 24 29  1  0
 25 26  1  0
 25 54  1  0
 26 27  2  0
 26 55  1  0
 27 28  1  0
 27 56  1  0
 28 29  2  0
 28 57  1  0
 29 30  1  0
 31 32  1  0
 31 58  1  0
 31 59  1  0
 32 60  1  0
 32 61  1  0
 33 34  1  0
 33 62  1  0
 34 35  2  0
 34 63  1  0
 35 36  1  0
M  END

