
     RDKit          3D

 35 37  0  0  0  0  0  0  0  0999 V2000
    3.0038    1.7541   -4.7199 C   0  0  0  0  0  0  0  0  0  0  0  0
    3.9048    1.1836   -3.6570 C   0  0  0  0  0  0  0  0  0  0  0  0
    4.1719   -0.1891   -3.5795 C   0  0  0  0  0  0  0  0  0  0  0  0
    5.0215   -0.6582   -2.5748 C   0  0  0  0  0  0  0  0  0  0  0  0
    5.2884   -2.3871   -2.4702 Cl  0  0  0  0  0  0  0  0  0  0  0  0
    5.5960    0.2403   -1.6691 C   0  0  0  0  0  0  0  0  0  0  0  0
    6.4641   -0.1014   -0.4848 C   0  0  0  0  0  0  0  0  0  0  0  0
    6.1718    0.3054    0.6297 O   0  0  0  0  0  0  0  0  0  0  0  0
    7.5709   -0.8737   -0.7091 N   0  0  0  0  0  0  0  0  0  0  0  0
    8.5692   -1.1869    0.3187 C   0  0  1  0  0  0  0  0  0  0  0  0
    9.0288   -2.5908   -0.1360 C   0  0  0  0  0  0  0  0  0  0  0  0
    8.9283   -2.4877   -1.6910 C   0  0  0  0  0  0  0  0  0  0  0  0
    8.4287   -1.0391   -1.8913 C   0  0  2  0  0  0  0  0  0  0  0  0
    9.6047   -0.0720   -1.5696 C   0  0  1  0  0  0  0  0  0  0  0  0
    9.3688    1.3412   -2.0938 C   0  0  0  0  0  0  0  0  0  0  0  0
    8.4426    1.6694   -2.7840 O   0  0  0  0  0  0  0  0  0  0  0  0
   10.3057    2.2490   -1.7357 O   0  0  0  0  0  0  0  0  0  0  0  0
    9.6778   -0.1515   -0.0014 C   0  0  0  0  0  0  0  0  0  0  0  0
    5.2302    1.5918   -1.8283 C   0  0  0  0  0  0  0  0  0  0  0  0
    4.4308    2.0531   -2.7797 N   0  0  0  0  0  0  0  0  0  0  0  0
    2.6128    0.9792   -5.3942 H   0  0  0  0  0  0  0  0  0  0  0  0
    3.5524    2.5016   -5.3149 H   0  0  0  0  0  0  0  0  0  0  0  0
    2.1569    2.2816   -4.2523 H   0  0  0  0  0  0  0  0  0  0  0  0
    3.7189   -0.8916   -4.2802 H   0  0  0  0  0  0  0  0  0  0  0  0
    8.1584   -1.1141    1.3312 H   0  0  0  0  0  0  0  0  0  0  0  0
    8.3479   -3.3596    0.2563 H   0  0  0  0  0  0  0  0  0  0  0  0
   10.0428   -2.8266    0.2207 H   0  0  0  0  0  0  0  0  0  0  0  0
    8.1913   -3.1957   -2.0923 H   0  0  0  0  0  0  0  0  0  0  0  0
    9.8856   -2.6684   -2.2024 H   0  0  0  0  0  0  0  0  0  0  0  0
    7.9287   -0.8229   -2.8401 H   0  0  0  0  0  0  0  0  0  0  0  0
   10.5412   -0.4316   -2.0303 H   0  0  0  0  0  0  0  0  0  0  0  0
   10.9835    1.8409   -1.1776 H   0  0  0  0  0  0  0  0  0  0  0  0
    9.4251    0.8137    0.4637 H   0  0  0  0  0  0  0  0  0  0  0  0
   10.6661   -0.4628    0.3695 H   0  0  0  0  0  0  0  0  0  0  0  0
    5.6354    2.3223   -1.1203 H   0  0  0  0  0  0  0  0  0  0  0  0
  1  2  1  0
  1 21  1  0
  1 22  1  0
  1 23  1  0
  2  3  2  0
  2 20  1  0
  3  4  1  0
  3 24  1  0
  4  5  1  0
  4  6  2  0
  6  7  1  0
  6 19  1  0
  7  8  2  0
  7  9  1  0
  9 10  1  0
  9 13  1  0
 10 11  1  0
 10 18  1  0
 10 25  1  1
 11 12  1  0
 11 26  1  0
 11 27  1  0
 12 13  1  0
 12 28  1  0
 12 29  1  0
 13 14  1  0
 13 30  1  6
 14 15  1  0
 14 18  1  0
 14 31  1  6
 15 16  2  0
 15 17  1  0
 17 32  1  0
 18 33  1  0
 18 34  1  0
 19 20  2  0
 19 35  1  0
M  END

