
     RDKit          3D

 46 48  0  0  0  0  0  0  0  0999 V2000
    4.7373    1.2021   -1.1522 O   0  0  0  0  0  0  0  0  0  0  0  0
    3.8595    0.6686   -0.4594 C   0  0  0  0  0  0  0  0  0  0  0  0
    2.9889    1.4380    0.3130 N   0  0  0  0  0  0  0  0  0  0  0  0
    3.0322    2.8874    0.2371 C   0  0  2  0  0  0  0  0  0  0  0  0
    2.3954    3.5193    1.4790 C   0  0  0  0  0  0  0  0  0  0  0  0
    2.4391    5.0471    1.4024 C   0  0  0  0  0  0  0  0  0  0  0  0
    1.8460    5.5473    0.1658 N   0  0  0  0  0  0  0  0  0  0  0  0
    0.8828    6.5381    0.2508 C   0  0  0  0  0  0  0  0  0  0  0  0
    0.3719    6.8647    1.3146 O   0  0  0  0  0  0  0  0  0  0  0  0
    0.5068    7.1320   -0.9453 N   0  0  0  0  0  0  0  0  0  0  0  0
   -0.4359    8.2349   -0.9520 C   0  0  0  0  0  0  0  0  0  0  0  0
   -1.4387    8.1507   -2.0832 C   0  0  0  0  0  0  0  0  0  0  0  0
   -2.1068    6.9587   -2.3970 C   0  0  0  0  0  0  0  0  0  0  0  0
   -3.0454    6.9548   -3.4279 C   0  0  0  0  0  0  0  0  0  0  0  0
   -3.2866    8.1485   -4.1181 C   0  0  0  0  0  0  0  0  0  0  0  0
   -2.6554    9.2900   -3.8396 N   0  0  0  0  0  0  0  0  0  0  0  0
   -1.7578    9.2806   -2.8515 C   0  0  0  0  0  0  0  0  0  0  0  0
    2.4022    4.9864   -1.0594 C   0  0  0  0  0  0  0  0  0  0  0  0
    2.3743    3.4521   -1.0347 C   0  0  0  0  0  0  0  0  0  0  0  0
    3.6995   -0.7800   -0.3828 C   0  0  0  0  0  0  0  0  0  0  0  0
    2.8382   -1.4717    0.5487 C   0  0  0  0  0  0  0  0  0  0  0  0
    2.7612   -2.8534    0.5180 C   0  0  0  0  0  0  0  0  0  0  0  0
    3.5034   -3.4745   -0.3922 N   0  0  0  0  0  0  0  0  0  0  0  0
    4.3769   -2.9582   -1.2750 C   0  0  0  0  0  0  0  0  0  0  0  0
    4.4879   -1.5840   -1.2729 C   0  0  0  0  0  0  0  0  0  0  0  0
    2.0859    1.0354    0.5395 H   0  0  0  0  0  0  0  0  0  0  0  0
    4.1009    3.1564    0.2022 H   0  0  0  0  0  0  0  0  0  0  0  0
    2.9194    3.1753    2.3856 H   0  0  0  0  0  0  0  0  0  0  0  0
    1.3421    3.1932    1.5637 H   0  0  0  0  0  0  0  0  0  0  0  0
    3.4949    5.3812    1.4600 H   0  0  0  0  0  0  0  0  0  0  0  0
    1.8944    5.5050    2.2360 H   0  0  0  0  0  0  0  0  0  0  0  0
    1.1273    7.0641   -1.7412 H   0  0  0  0  0  0  0  0  0  0  0  0
    0.0820    9.2114   -0.9977 H   0  0  0  0  0  0  0  0  0  0  0  0
   -0.9451    8.2028    0.0236 H   0  0  0  0  0  0  0  0  0  0  0  0
   -1.8832    6.0468   -1.8371 H   0  0  0  0  0  0  0  0  0  0  0  0
   -3.5854    6.0434   -3.6961 H   0  0  0  0  0  0  0  0  0  0  0  0
   -4.0194    8.1776   -4.9337 H   0  0  0  0  0  0  0  0  0  0  0  0
   -1.2485   10.2321   -2.6479 H   0  0  0  0  0  0  0  0  0  0  0  0
    3.4464    5.3332   -1.1981 H   0  0  0  0  0  0  0  0  0  0  0  0
    1.8262    5.3301   -1.9280 H   0  0  0  0  0  0  0  0  0  0  0  0
    2.9003    3.0570   -1.9169 H   0  0  0  0  0  0  0  0  0  0  0  0
    1.3243    3.1109   -1.0799 H   0  0  0  0  0  0  0  0  0  0  0  0
    2.2811   -0.9523    1.3288 H   0  0  0  0  0  0  0  0  0  0  0  0
    2.1513   -3.4509    1.2005 H   0  0  0  0  0  0  0  0  0  0  0  0
    4.9360   -3.6309   -1.9277 H   0  0  0  0  0  0  0  0  0  0  0  0
    5.1826   -1.0941   -1.9570 H   0  0  0  0  0  0  0  0  0  0  0  0
  1  2  2  0
  2  3  1  0
  2 20  1  0
  3  4  1  0
  3 26  1  0
  4  5  1  0
  4 19  1  0
  4 27  1  6
  5  6  1  0
  5 28  1  0
  5 29  1  0
  6  7  1  0
  6 30  1  0
  6 31  1  0
  7  8  1  0
  7 18  1  0
  8  9  2  0
  8 10  1  0
 10 11  1  0
 10 32  1  0
 11 12  1  0
 11 33  1  0
 11 34  1  0
 12 13  2  0
 12 17  1  0
 13 14  1  0
 13 35  1  0
 14 15  2  0
 14 36  1  0
 15 16  1  0
 15 37  1  0
 16 17  2  0
 17 38  1  0
 18 19  1  0
 18 39  1  0
 18 40  1  0
 19 41  1  0
 19 42  1  0
 20 21  2  0
 20 25  1  0
 21 22  1  0
 21 43  1  0
 22 23  2  0
 22 44  1  0
 23 24  1  0
 24 25  2  0
 24 45  1  0
 25 46  1  0
M  END

