
     RDKit          3D

 42 45  0  0  0  0  0  0  0  0999 V2000
    1.5207   -0.6258    2.0045 C   0  0  0  0  0  0  0  0  0  0  0  0
    2.7154   -0.4768    1.0973 C   0  0  0  0  0  0  0  0  0  0  0  0
    3.0523    0.7834    0.5858 C   0  0  0  0  0  0  0  0  0  0  0  0
    4.1650    0.9619   -0.2548 C   0  0  0  0  0  0  0  0  0  0  0  0
    4.5371    2.2093   -0.7870 N   0  0  0  0  0  0  0  0  0  0  0  0
    3.9524    3.4436   -0.6042 C   0  0  0  0  0  0  0  0  0  0  0  0
    2.9618    3.6315    0.0783 O   0  0  0  0  0  0  0  0  0  0  0  0
    4.6880    4.5874   -1.3008 C   0  0  0  0  0  0  0  0  0  0  0  0
    3.7983    5.5390   -2.0644 C   0  0  0  0  0  0  0  0  0  0  0  0
    2.5445    5.9679   -1.6972 C   0  0  0  0  0  0  0  0  0  0  0  0
    1.9345    7.0798   -2.8658 S   0  0  0  0  0  0  0  0  0  0  0  0
    3.4239    6.9006   -3.7839 C   0  0  0  0  0  0  0  0  0  0  0  0
    3.6733    7.6101   -5.0453 C   0  0  0  0  0  0  0  0  0  0  0  0
    4.8898    7.4277   -5.7267 C   0  0  0  0  0  0  0  0  0  0  0  0
    5.1026    8.1104   -6.9206 C   0  0  0  0  0  0  0  0  0  0  0  0
    4.0956    8.9565   -7.4003 C   0  0  0  0  0  0  0  0  0  0  0  0
    2.9352    9.1405   -6.7655 N   0  0  0  0  0  0  0  0  0  0  0  0
    2.7348    8.4857   -5.6243 C   0  0  0  0  0  0  0  0  0  0  0  0
    4.2736    6.0723   -3.2328 N   0  0  0  0  0  0  0  0  0  0  0  0
    4.9557   -0.1508   -0.5914 C   0  0  0  0  0  0  0  0  0  0  0  0
    4.6283   -1.4099   -0.1019 C   0  0  0  0  0  0  0  0  0  0  0  0
    3.5222   -1.5752    0.7384 C   0  0  0  0  0  0  0  0  0  0  0  0
    3.2371   -2.8830    1.2363 N   0  0  0  0  0  0  0  0  0  0  0  0
    4.0377   -3.7482    1.9041 C   0  0  0  0  0  0  0  0  0  0  0  0
    3.3680   -4.8545    2.1319 N   0  0  0  0  0  0  0  0  0  0  0  0
    2.1408   -4.6605    1.5941 N   0  0  0  0  0  0  0  0  0  0  0  0
    2.0445   -3.4972    1.0554 N   0  0  0  0  0  0  0  0  0  0  0  0
    1.1459    0.3587    2.3158 H   0  0  0  0  0  0  0  0  0  0  0  0
    1.7690   -1.2053    2.9078 H   0  0  0  0  0  0  0  0  0  0  0  0
    0.7070   -1.1693    1.5002 H   0  0  0  0  0  0  0  0  0  0  0  0
    2.4480    1.6494    0.8451 H   0  0  0  0  0  0  0  0  0  0  0  0
    5.3489    2.1900   -1.3925 H   0  0  0  0  0  0  0  0  0  0  0  0
    5.4618    4.2258   -1.9935 H   0  0  0  0  0  0  0  0  0  0  0  0
    5.2179    5.1397   -0.5021 H   0  0  0  0  0  0  0  0  0  0  0  0
    1.9754    5.6709   -0.8201 H   0  0  0  0  0  0  0  0  0  0  0  0
    5.6386    6.7556   -5.3038 H   0  0  0  0  0  0  0  0  0  0  0  0
    6.0356    7.9925   -7.4766 H   0  0  0  0  0  0  0  0  0  0  0  0
    4.2347    9.5080   -8.3375 H   0  0  0  0  0  0  0  0  0  0  0  0
    1.7700    8.6604   -5.1311 H   0  0  0  0  0  0  0  0  0  0  0  0
    5.8221   -0.0336   -1.2481 H   0  0  0  0  0  0  0  0  0  0  0  0
    5.2277   -2.2785   -0.3826 H   0  0  0  0  0  0  0  0  0  0  0  0
    5.0602   -3.5278    2.2039 H   0  0  0  0  0  0  0  0  0  0  0  0
  1  2  1  0
  1 28  1  0
  1 29  1  0
  1 30  1  0
  2  3  2  0
  2 22  1  0
  3  4  1  0
  3 31  1  0
  4  5  1  0
  4 20  2  0
  5  6  1  0
  5 32  1  0
  6  7  2  0
  6  8  1  0
  8  9  1  0
  8 33  1  0
  8 34  1  0
  9 10  2  0
  9 19  1  0
 10 11  1  0
 10 35  1  0
 11 12  1  0
 12 13  1  0
 12 19  2  0
 13 14  2  0
 13 18  1  0
 14 15  1  0
 14 36  1  0
 15 16  2  0
 15 37  1  0
 16 17  1  0
 16 38  1  0
 17 18  2  0
 18 39  1  0
 20 21  1  0
 20 40  1  0
 21 22  2  0
 21 41  1  0
 22 23  1  0
 23 24  1  0
 23 27  1  0
 24 25  2  0
 24 42  1  0
 25 26  1  0
 26 27  2  0
M  END

