
     RDKit          3D

 43 46  0  0  0  0  0  0  0  0999 V2000
    0.9997   -0.1015   -0.1643 C   0  0  0  0  0  0  0  0  0  0  0  0
    2.2859    0.1694   -0.9141 C   0  0  0  0  0  0  0  0  0  0  0  0
    3.1474   -0.9723   -0.7438 O   0  0  0  0  0  0  0  0  0  0  0  0
    4.3511   -1.0223   -1.2944 C   0  0  0  0  0  0  0  0  0  0  0  0
    4.9162    0.0027   -2.0948 C   0  0  0  0  0  0  0  0  0  0  0  0
    6.1833   -0.1571   -2.6151 C   0  0  0  0  0  0  0  0  0  0  0  0
    6.9640   -1.3358   -2.3861 C   0  0  0  0  0  0  0  0  0  0  0  0
    8.2970   -1.5061   -2.9146 C   0  0  0  0  0  0  0  0  0  0  0  0
    8.9361   -0.4813   -3.6009 C   0  0  0  0  0  0  0  0  0  0  0  0
   10.3331   -0.5461   -4.0434 C   0  0  0  0  0  0  0  0  0  0  0  0
   11.0463   -1.6914   -3.5724 N   0  0  0  0  0  0  0  0  0  0  0  0
   12.4392   -1.7472   -3.9489 C   0  0  0  0  0  0  0  0  0  0  0  0
   12.9532   -2.9381   -4.3633 N   0  0  0  0  0  0  0  0  0  0  0  0
   14.2635   -2.9662   -4.6476 C   0  0  0  0  0  0  0  0  0  0  0  0
   15.1328   -1.8905   -4.5678 C   0  0  0  0  0  0  0  0  0  0  0  0
   14.5751   -0.6643   -4.1397 N   0  0  0  0  0  0  0  0  0  0  0  0
   15.0471    0.6015   -3.9427 C   0  0  0  0  0  0  0  0  0  0  0  0
   14.0952    1.4058   -3.5251 N   0  0  0  0  0  0  0  0  0  0  0  0
   12.9355    0.6703   -3.4281 N   0  0  0  0  0  0  0  0  0  0  0  0
   13.2257   -0.5893   -3.8030 C   0  0  0  0  0  0  0  0  0  0  0  0
   10.2774   -2.9085   -3.6422 C   0  0  0  0  0  0  0  0  0  0  0  0
    9.0668   -2.7959   -2.7088 C   0  0  0  0  0  0  0  0  0  0  0  0
    6.3627   -2.3514   -1.5763 C   0  0  0  0  0  0  0  0  0  0  0  0
    5.1038   -2.2028   -1.0448 C   0  0  0  0  0  0  0  0  0  0  0  0
    0.3190    0.7556   -0.2765 H   0  0  0  0  0  0  0  0  0  0  0  0
    1.1949   -0.2518    0.9078 H   0  0  0  0  0  0  0  0  0  0  0  0
    0.4977   -0.9977   -0.5580 H   0  0  0  0  0  0  0  0  0  0  0  0
    2.8010    1.0633   -0.5241 H   0  0  0  0  0  0  0  0  0  0  0  0
    2.1022    0.3175   -1.9916 H   0  0  0  0  0  0  0  0  0  0  0  0
    4.3625    0.9168   -2.3042 H   0  0  0  0  0  0  0  0  0  0  0  0
    6.5868    0.6500   -3.2244 H   0  0  0  0  0  0  0  0  0  0  0  0
    8.4049    0.4395   -3.8515 H   0  0  0  0  0  0  0  0  0  0  0  0
   10.8747    0.3833   -3.7389 H   0  0  0  0  0  0  0  0  0  0  0  0
   10.2899   -0.4410   -5.1657 H   0  0  0  0  0  0  0  0  0  0  0  0
   14.6743   -3.9299   -4.9729 H   0  0  0  0  0  0  0  0  0  0  0  0
   16.1953   -1.9174   -4.7969 H   0  0  0  0  0  0  0  0  0  0  0  0
   16.0851    0.8828   -4.1134 H   0  0  0  0  0  0  0  0  0  0  0  0
   10.9173   -3.7492   -3.3508 H   0  0  0  0  0  0  0  0  0  0  0  0
    9.9267   -3.1394   -4.6763 H   0  0  0  0  0  0  0  0  0  0  0  0
    9.4088   -2.8340   -1.6584 H   0  0  0  0  0  0  0  0  0  0  0  0
    8.3983   -3.6597   -2.8592 H   0  0  0  0  0  0  0  0  0  0  0  0
    6.9172   -3.2637   -1.3635 H   0  0  0  0  0  0  0  0  0  0  0  0
    4.6511   -2.9761   -0.4224 H   0  0  0  0  0  0  0  0  0  0  0  0
  1  2  1  0
  1 25  1  0
  1 26  1  0
  1 27  1  0
  2  3  1  0
  2 28  1  0
  2 29  1  0
  3  4  1  0
  4  5  2  0
  4 24  1  0
  5  6  1  0
  5 30  1  0
  6  7  2  0
  6 31  1  0
  7  8  1  0
  7 23  1  0
  8  9  2  0
  8 22  1  0
  9 10  1  0
  9 32  1  0
 10 11  1  0
 10 33  1  0
 10 34  1  0
 11 12  1  0
 11 21  1  0
 12 13  2  0
 12 20  1  0
 13 14  1  0
 14 15  2  0
 14 35  1  0
 15 16  1  0
 15 36  1  0
 16 17  1  0
 16 20  1  0
 17 18  2  0
 17 37  1  0
 18 19  1  0
 19 20  2  0
 21 22  1  0
 21 38  1  0
 21 39  1  0
 22 40  1  0
 22 41  1  0
 23 24  2  0
 23 42  1  0
 24 43  1  0
M  END

