
     RDKit          3D

 45 46  0  0  0  0  0  0  0  0999 V2000
    1.2657   -0.3107    0.1294 C   0  0  0  0  0  0  0  0  0  0  0  0
    2.5198    0.2174   -0.2905 O   0  0  0  0  0  0  0  0  0  0  0  0
    3.3050   -0.4437   -1.1479 C   0  0  0  0  0  0  0  0  0  0  0  0
    4.5508    0.2098   -1.4542 C   0  0  0  0  0  0  0  0  0  0  0  0
    5.5398   -0.5071   -2.1330 C   0  0  0  0  0  0  0  0  0  0  0  0
    5.2689   -1.7630   -2.6757 C   0  0  0  0  0  0  0  0  0  0  0  0
    3.9513   -2.2134   -2.6742 N   0  0  0  0  0  0  0  0  0  0  0  0
    3.5353   -3.5533   -2.9431 C   0  0  0  0  0  0  0  0  0  0  0  0
    4.1086   -4.4050   -3.9791 C   0  0  0  0  0  0  0  0  0  0  0  0
    3.9465   -5.6285   -4.0190 O   0  0  0  0  0  0  0  0  0  0  0  0
    4.8895   -3.7355   -4.9331 N   0  0  0  0  0  0  0  0  0  0  0  0
    5.4456   -4.4703   -6.0561 C   0  0  0  0  0  0  0  0  0  0  0  0
    4.4464   -4.7372   -7.1923 C   0  0  0  0  0  0  0  0  0  0  0  0
    5.0814   -5.4286   -8.3913 C   0  0  0  0  0  0  0  0  0  0  0  0
    5.6038   -6.6696   -7.9809 O   0  0  0  0  0  0  0  0  0  0  0  0
    6.1249   -7.5095   -9.0022 C   0  0  1  0  0  0  0  0  0  0  0  0
    7.5121   -7.0535   -9.4626 C   0  0  0  0  0  0  0  0  0  0  0  0
    6.1379   -8.9259   -8.4400 C   0  0  0  0  0  0  0  0  0  0  0  0
    2.4056   -3.7511   -2.1332 C   0  0  0  0  0  0  0  0  0  0  0  0
    1.5645   -4.9833   -2.0457 C   0  0  0  0  0  0  0  0  0  0  0  0
    2.1250   -2.6491   -1.3963 N   0  0  0  0  0  0  0  0  0  0  0  0
    3.0412   -1.7095   -1.6983 C   0  0  0  0  0  0  0  0  0  0  0  0
    0.8084    0.4675    0.7538 H   0  0  0  0  0  0  0  0  0  0  0  0
    1.4012   -1.2402    0.7007 H   0  0  0  0  0  0  0  0  0  0  0  0
    0.6258   -0.5377   -0.7375 H   0  0  0  0  0  0  0  0  0  0  0  0
    4.7167    1.2125   -1.0600 H   0  0  0  0  0  0  0  0  0  0  0  0
    6.5495   -0.1028   -2.2319 H   0  0  0  0  0  0  0  0  0  0  0  0
    6.0105   -2.4187   -3.1310 H   0  0  0  0  0  0  0  0  0  0  0  0
    4.6420   -2.7667   -5.1106 H   0  0  0  0  0  0  0  0  0  0  0  0
    5.8120   -5.4334   -5.6783 H   0  0  0  0  0  0  0  0  0  0  0  0
    6.3128   -3.9059   -6.4428 H   0  0  0  0  0  0  0  0  0  0  0  0
    4.0045   -3.7844   -7.5361 H   0  0  0  0  0  0  0  0  0  0  0  0
    3.6294   -5.3622   -6.7988 H   0  0  0  0  0  0  0  0  0  0  0  0
    5.8746   -4.7803   -8.8214 H   0  0  0  0  0  0  0  0  0  0  0  0
    4.3223   -5.5730   -9.1889 H   0  0  0  0  0  0  0  0  0  0  0  0
    5.4351   -7.4771   -9.8728 H   0  0  0  0  0  0  0  0  0  0  0  0
    8.2175   -7.0677   -8.6159 H   0  0  0  0  0  0  0  0  0  0  0  0
    7.4925   -6.0331   -9.8759 H   0  0  0  0  0  0  0  0  0  0  0  0
    7.9001   -7.7211  -10.2486 H   0  0  0  0  0  0  0  0  0  0  0  0
    6.7977   -8.9795   -7.5592 H   0  0  0  0  0  0  0  0  0  0  0  0
    6.4993   -9.6453   -9.1913 H   0  0  0  0  0  0  0  0  0  0  0  0
    5.1263   -9.2213   -8.1242 H   0  0  0  0  0  0  0  0  0  0  0  0
    1.9319   -5.7462   -2.7423 H   0  0  0  0  0  0  0  0  0  0  0  0
    0.5101   -4.7457   -2.2617 H   0  0  0  0  0  0  0  0  0  0  0  0
    1.5990   -5.3929   -1.0223 H   0  0  0  0  0  0  0  0  0  0  0  0
  1  2  1  0
  1 23  1  0
  1 24  1  0
  1 25  1  0
  2  3  1  0
  3  4  2  0
  3 22  1  0
  4  5  1  0
  4 26  1  0
  5  6  2  0
  5 27  1  0
  6  7  1  0
  6 28  1  0
  7  8  1  0
  7 22  1  0
  8  9  1  0
  8 19  2  0
  9 10  2  0
  9 11  1  0
 11 12  1  0
 11 29  1  0
 12 13  1  0
 12 30  1  0
 12 31  1  0
 13 14  1  0
 13 32  1  0
 13 33  1  0
 14 15  1  0
 14 34  1  0
 14 35  1  0
 15 16  1  0
 16 17  1  0
 16 18  1  0
 16 36  1  6
 17 37  1  0
 17 38  1  0
 17 39  1  0
 18 40  1  0
 18 41  1  0
 18 42  1  0
 19 20  1  0
 19 21  1  0
 20 43  1  0
 20 44  1  0
 20 45  1  0
 21 22  2  0
M  END

