
     RDKit          3D

 39 41  0  0  0  0  0  0  0  0999 V2000
    1.4680    1.0555    0.0636 C   0  0  0  0  0  0  0  0  0  0  0  0
    2.4745    0.5571   -0.8503 N   0  0  0  0  0  0  0  0  0  0  0  0
    2.4557   -0.8194   -1.3348 C   0  0  0  0  0  0  0  0  0  0  0  0
    3.6545   -1.6509   -0.8620 C   0  0  0  0  0  0  0  0  0  0  0  0
    4.9061   -1.1366   -1.4368 N   0  0  0  0  0  0  0  0  0  0  0  0
    5.2815   -1.5443   -2.7991 C   0  0  0  0  0  0  0  0  0  0  0  0
    4.8340   -0.7683   -3.7603 N   0  0  0  0  0  0  0  0  0  0  0  0
    5.1740   -1.1157   -5.0623 C   0  0  0  0  0  0  0  0  0  0  0  0
    4.7011   -0.3292   -6.1584 C   0  0  0  0  0  0  0  0  0  0  0  0
    5.0306   -0.6494   -7.5103 C   0  0  0  0  0  0  0  0  0  0  0  0
    4.5430    0.1431   -8.5341 C   0  0  0  0  0  0  0  0  0  0  0  0
    3.7575    1.2262   -8.3531 N   0  0  0  0  0  0  0  0  0  0  0  0
    3.4621    1.5097   -7.1030 C   0  0  0  0  0  0  0  0  0  0  0  0
    2.6781    2.5896   -6.9159 F   0  0  0  0  0  0  0  0  0  0  0  0
    3.8736    0.8141   -5.9753 C   0  0  0  0  0  0  0  0  0  0  0  0
    5.9752   -2.2172   -5.3016 N   0  0  0  0  0  0  0  0  0  0  0  0
    6.3987   -2.9623   -4.3181 C   0  0  0  0  0  0  0  0  0  0  0  0
    7.4073   -4.3531   -4.6700 Cl  0  0  0  0  0  0  0  0  0  0  0  0
    6.0741   -2.6953   -2.9443 C   0  0  0  0  0  0  0  0  0  0  0  0
    6.6204   -3.6289   -1.5765 Cl  0  0  0  0  0  0  0  0  0  0  0  0
    5.6693   -0.1284   -0.7828 C   0  0  0  0  0  0  0  0  0  0  0  0
    4.8340    1.0971   -0.2875 C   0  0  2  0  0  0  0  0  0  0  0  0
    5.6737    2.1564   -0.2693 F   0  0  0  0  0  0  0  0  0  0  0  0
    4.4447    0.8743    0.9996 F   0  0  0  0  0  0  0  0  0  0  0  0
    3.5921    1.3888   -1.1670 C   0  0  0  0  0  0  0  0  0  0  0  0
    0.7700    0.2491    0.3281 H   0  0  0  0  0  0  0  0  0  0  0  0
    0.8769    1.8796   -0.3799 H   0  0  0  0  0  0  0  0  0  0  0  0
    1.9113    1.4269    1.0053 H   0  0  0  0  0  0  0  0  0  0  0  0
    2.4015   -0.8434   -2.4376 H   0  0  0  0  0  0  0  0  0  0  0  0
    1.5512   -1.3160   -0.9562 H   0  0  0  0  0  0  0  0  0  0  0  0
    3.5645   -2.7007   -1.1755 H   0  0  0  0  0  0  0  0  0  0  0  0
    3.7428   -1.6044    0.2346 H   0  0  0  0  0  0  0  0  0  0  0  0
    5.6619   -1.5121   -7.7218 H   0  0  0  0  0  0  0  0  0  0  0  0
    4.7931   -0.0979   -9.5738 H   0  0  0  0  0  0  0  0  0  0  0  0
    3.5642    1.1472   -4.9873 H   0  0  0  0  0  0  0  0  0  0  0  0
    6.4455    0.2318   -1.4664 H   0  0  0  0  0  0  0  0  0  0  0  0
    6.1473   -0.5494    0.1235 H   0  0  0  0  0  0  0  0  0  0  0  0
    3.9019    1.2590   -2.2190 H   0  0  0  0  0  0  0  0  0  0  0  0
    3.3403    2.4484   -1.0068 H   0  0  0  0  0  0  0  0  0  0  0  0
  1  2  1  0
  1 26  1  0
  1 27  1  0
  1 28  1  0
  2  3  1  0
  2 25  1  0
  3  4  1  0
  3 29  1  0
  3 30  1  0
  4  5  1  0
  4 31  1  0
  4 32  1  0
  5  6  1  0
  5 21  1  0
  6  7  2  0
  6 19  1  0
  7  8  1  0
  8  9  1  0
  8 16  2  0
  9 10  2  0
  9 15  1  0
 10 11  1  0
 10 33  1  0
 11 12  2  0
 11 34  1  0
 12 13  1  0
 13 14  1  0
 13 15  2  0
 15 35  1  0
 16 17  1  0
 17 18  1  0
 17 19  2  0
 19 20  1  0
 21 22  1  0
 21 36  1  0
 21 37  1  0
 22 23  1  6
 22 24  1  0
 22 25  1  0
 25 38  1  0
 25 39  1  0
M  END

