
     RDKit          3D

 48 52  0  0  0  0  0  0  0  0999 V2000
    5.9522    0.3987   -1.7241 O   0  0  0  0  0  0  0  0  0  0  0  0
    4.9552    0.1044   -1.0498 C   0  0  0  0  0  0  0  0  0  0  0  0
    3.6787   -0.0094   -1.8816 N   0  0  0  0  0  0  0  0  0  0  0  0
    2.9420    1.0071   -2.3139 C   0  0  0  0  0  0  0  0  0  0  0  0
    3.1469    2.3383   -1.7805 C   0  0  0  0  0  0  0  0  0  0  0  0
    2.3889    3.4005   -2.2022 C   0  0  0  0  0  0  0  0  0  0  0  0
    1.3903    3.1765   -3.1811 C   0  0  0  0  0  0  0  0  0  0  0  0
    0.5258    4.0573   -3.7567 N   0  0  0  0  0  0  0  0  0  0  0  0
    0.4779    5.0469   -3.5448 H   0  0  0  0  0  0  0  0  0  0  0  0
   -0.2814    3.3948   -4.6835 C   0  0  0  0  0  0  0  0  0  0  0  0
   -1.2965    3.8644   -5.5158 C   0  0  0  0  0  0  0  0  0  0  0  0
   -1.9340    3.0362   -6.3404 N   0  0  0  0  0  0  0  0  0  0  0  0
   -1.6123    1.7308   -6.3817 C   0  0  0  0  0  0  0  0  0  0  0  0
   -2.4162    0.8615   -7.3296 C   0  0  0  0  0  0  0  0  0  0  0  0
   -3.7216    0.3628   -6.7262 C   0  0  0  0  0  0  0  0  0  0  0  0
   -4.7579    1.2621   -6.4247 C   0  0  0  0  0  0  0  0  0  0  0  0
   -5.9545    0.8072   -5.8668 C   0  0  0  0  0  0  0  0  0  0  0  0
   -6.1360   -0.5543   -5.5997 C   0  0  0  0  0  0  0  0  0  0  0  0
   -5.1117   -1.4568   -5.8949 C   0  0  0  0  0  0  0  0  0  0  0  0
   -3.9134   -0.9991   -6.4532 C   0  0  0  0  0  0  0  0  0  0  0  0
   -0.6031    1.1777   -5.5725 C   0  0  0  0  0  0  0  0  0  0  0  0
    0.0809    2.0267   -4.7040 C   0  0  0  0  0  0  0  0  0  0  0  0
    1.1622    1.8710   -3.7354 C   0  0  0  0  0  0  0  0  0  0  0  0
    1.9255    0.8025   -3.3122 C   0  0  0  0  0  0  0  0  0  0  0  0
    4.8111   -0.1673    0.3312 C   0  0  0  0  0  0  0  0  0  0  0  0
    3.5819   -0.5289    0.9838 C   0  0  0  0  0  0  0  0  0  0  0  0
    3.5449   -0.7748    2.3460 C   0  0  0  0  0  0  0  0  0  0  0  0
    4.7004   -0.6831    3.1479 C   0  0  0  0  0  0  0  0  0  0  0  0
    5.8992   -0.3356    2.5052 C   0  0  0  0  0  0  0  0  0  0  0  0
    7.0174   -0.2463    3.2585 F   0  0  0  0  0  0  0  0  0  0  0  0
    5.9893   -0.0835    1.1544 C   0  0  0  0  0  0  0  0  0  0  0  0
    3.5305   -0.9035   -2.3467 H   0  0  0  0  0  0  0  0  0  0  0  0
    3.9285    2.4748   -1.0366 H   0  0  0  0  0  0  0  0  0  0  0  0
    2.5575    4.3984   -1.7928 H   0  0  0  0  0  0  0  0  0  0  0  0
   -1.5979    4.9185   -5.5225 H   0  0  0  0  0  0  0  0  0  0  0  0
   -1.8086    0.0002   -7.6445 H   0  0  0  0  0  0  0  0  0  0  0  0
   -2.6306    1.4633   -8.2263 H   0  0  0  0  0  0  0  0  0  0  0  0
   -4.6151    2.3265   -6.6270 H   0  0  0  0  0  0  0  0  0  0  0  0
   -6.7527    1.5195   -5.6414 H   0  0  0  0  0  0  0  0  0  0  0  0
   -7.0740   -0.9096   -5.1655 H   0  0  0  0  0  0  0  0  0  0  0  0
   -5.2442   -2.5229   -5.6931 H   0  0  0  0  0  0  0  0  0  0  0  0
   -3.1192   -1.7143   -6.6875 H   0  0  0  0  0  0  0  0  0  0  0  0
   -0.3702    0.1125   -5.6318 H   0  0  0  0  0  0  0  0  0  0  0  0
    1.7751   -0.1987   -3.7213 H   0  0  0  0  0  0  0  0  0  0  0  0
    2.6613   -0.6194    0.4057 H   0  0  0  0  0  0  0  0  0  0  0  0
    2.5949   -1.0503    2.8129 H   0  0  0  0  0  0  0  0  0  0  0  0
    4.6888   -0.8736    4.2206 H   0  0  0  0  0  0  0  0  0  0  0  0
    6.9464    0.1781    0.7044 H   0  0  0  0  0  0  0  0  0  0  0  0
  1  2  2  0
  2  3  1  0
  2 25  1  0
  3  4  1  0
  3 32  1  0
  4  5  2  0
  4 24  1  0
  5  6  1  0
  5 33  1  0
  6  7  2  0
  6 34  1  0
  7  8  1  0
  7 23  1  0
  8  9  1  0
  8 10  1  0
 10 11  1  0
 10 22  2  0
 11 12  2  0
 11 35  1  0
 12 13  1  0
 13 14  1  0
 13 21  2  0
 14 15  1  0
 14 36  1  0
 14 37  1  0
 15 16  2  0
 15 20  1  0
 16 17  1  0
 16 38  1  0
 17 18  2  0
 17 39  1  0
 18 19  1  0
 18 40  1  0
 19 20  2  0
 19 41  1  0
 20 42  1  0
 21 22  1  0
 21 43  1  0
 22 23  1  0
 23 24  2  0
 24 44  1  0
 25 26  2  0
 25 31  1  0
 26 27  1  0
 26 45  1  0
 27 28  2  0
 27 46  1  0
 28 29  1  0
 28 47  1  0
 29 30  1  0
 29 31  2  0
 31 48  1  0
M  END

