
     RDKit          3D

 65 67  0  0  0  0  0  0  0  0999 V2000
   10.6340   -4.6144  -10.3074 C   0  0  0  0  0  0  0  0  0  0  0  0
   11.7922   -4.1426   -9.4274 C   0  0  0  0  0  0  0  0  0  0  0  0
   12.0343   -5.0360   -8.2082 C   0  0  0  0  0  0  0  0  0  0  0  0
   13.1772   -4.5673   -7.2945 C   0  0  0  0  0  0  0  0  0  0  0  0
   12.9792   -3.2699   -6.6825 N   0  0  0  0  0  0  0  0  0  0  0  0
   12.2385   -3.0423   -5.5543 C   0  0  0  0  0  0  0  0  0  0  0  0
   12.1711   -1.7507   -5.1615 N   0  0  0  0  0  0  0  0  0  0  0  0
   11.4829   -1.4409   -4.0582 C   0  0  0  0  0  0  0  0  0  0  0  0
   11.4296   -0.1444   -3.6554 N   0  0  0  0  0  0  0  0  0  0  0  0
   10.8430   -2.4705   -3.3333 C   0  0  0  0  0  0  0  0  0  0  0  0
   10.0470   -2.4824   -2.1932 N   0  0  0  0  0  0  0  0  0  0  0  0
    9.7379   -3.7404   -2.0504 C   0  0  0  0  0  0  0  0  0  0  0  0
    8.9766   -4.2774   -1.0920 O   0  0  0  0  0  0  0  0  0  0  0  0
    8.3889   -3.3577   -0.1798 C   0  0  0  0  0  0  0  0  0  0  0  0
   10.2689   -4.5863   -3.0112 N   0  0  0  0  0  0  0  0  0  0  0  0
   10.0550   -6.0207   -3.1743 C   0  0  0  0  0  0  0  0  0  0  0  0
   11.2984   -6.8625   -2.8707 C   0  0  0  0  0  0  0  0  0  0  0  0
   11.6632   -6.9146   -1.3815 C   0  0  0  0  0  0  0  0  0  0  0  0
   10.6334   -7.5701   -0.5785 N   0  0  0  0  0  0  0  0  0  0  0  0
   10.6939   -9.0333   -0.5656 C   0  0  0  0  0  0  0  0  0  0  0  0
   11.7079   -9.5758    0.4594 C   0  0  0  0  0  0  0  0  0  0  0  0
   11.4981   -9.0715    1.8172 N   0  0  0  0  0  0  0  0  0  0  0  0
   10.4695   -9.6919    2.6742 C   0  0  1  0  0  0  0  0  0  0  0  0
   10.2802  -11.1863    2.3953 C   0  0  0  0  0  0  0  0  0  0  0  0
   10.8459   -9.5021    4.1524 C   0  0  0  0  0  0  0  0  0  0  0  0
   11.4631   -7.6060    1.7880 C   0  0  0  0  0  0  0  0  0  0  0  0
   10.4417   -7.0540    0.7762 C   0  0  0  0  0  0  0  0  0  0  0  0
   10.9913   -3.7587   -3.8580 C   0  0  0  0  0  0  0  0  0  0  0  0
   11.6682   -4.1028   -4.9536 N   0  0  0  0  0  0  0  0  0  0  0  0
   10.4847   -3.9496  -11.1735 H   0  0  0  0  0  0  0  0  0  0  0  0
    9.6883   -4.6410   -9.7406 H   0  0  0  0  0  0  0  0  0  0  0  0
   10.8124   -5.6316  -10.6956 H   0  0  0  0  0  0  0  0  0  0  0  0
   11.5957   -3.1115   -9.0840 H   0  0  0  0  0  0  0  0  0  0  0  0
   12.7174   -4.0905  -10.0322 H   0  0  0  0  0  0  0  0  0  0  0  0
   12.2644   -6.0646   -8.5431 H   0  0  0  0  0  0  0  0  0  0  0  0
   11.1146   -5.1055   -7.6026 H   0  0  0  0  0  0  0  0  0  0  0  0
   14.1179   -4.5221   -7.8703 H   0  0  0  0  0  0  0  0  0  0  0  0
   13.3204   -5.3084   -6.4931 H   0  0  0  0  0  0  0  0  0  0  0  0
   13.3560   -2.4376   -7.1154 H   0  0  0  0  0  0  0  0  0  0  0  0
   11.7997    0.5690   -4.2685 H   0  0  0  0  0  0  0  0  0  0  0  0
   10.8138    0.1115   -2.8968 H   0  0  0  0  0  0  0  0  0  0  0  0
    7.7911   -3.9573    0.5182 H   0  0  0  0  0  0  0  0  0  0  0  0
    7.7480   -2.6357   -0.7102 H   0  0  0  0  0  0  0  0  0  0  0  0
    9.1633   -2.7950    0.3649 H   0  0  0  0  0  0  0  0  0  0  0  0
    9.7333   -6.1912   -4.2136 H   0  0  0  0  0  0  0  0  0  0  0  0
    9.2385   -6.3112   -2.4997 H   0  0  0  0  0  0  0  0  0  0  0  0
   12.1500   -6.4727   -3.4516 H   0  0  0  0  0  0  0  0  0  0  0  0
   11.1128   -7.8845   -3.2436 H   0  0  0  0  0  0  0  0  0  0  0  0
   11.7801   -5.8829   -1.0113 H   0  0  0  0  0  0  0  0  0  0  0  0
   12.6649   -7.3831   -1.2777 H   0  0  0  0  0  0  0  0  0  0  0  0
   10.9387   -9.4005   -1.5759 H   0  0  0  0  0  0  0  0  0  0  0  0
    9.6862   -9.4226   -0.3272 H   0  0  0  0  0  0  0  0  0  0  0  0
   12.7244   -9.2679    0.1505 H   0  0  0  0  0  0  0  0  0  0  0  0
   11.7133  -10.6740    0.4516 H   0  0  0  0  0  0  0  0  0  0  0  0
    9.4767   -9.2111    2.5208 H   0  0  0  0  0  0  0  0  0  0  0  0
   11.2352  -11.7295    2.4876 H   0  0  0  0  0  0  0  0  0  0  0  0
    9.8623  -11.3874    1.3977 H   0  0  0  0  0  0  0  0  0  0  0  0
    9.5813  -11.6098    3.1324 H   0  0  0  0  0  0  0  0  0  0  0  0
   11.7929  -10.0220    4.3693 H   0  0  0  0  0  0  0  0  0  0  0  0
   10.0603   -9.9088    4.8095 H   0  0  0  0  0  0  0  0  0  0  0  0
   10.9785   -8.4428    4.4181 H   0  0  0  0  0  0  0  0  0  0  0  0
   12.4728   -7.2395    1.5230 H   0  0  0  0  0  0  0  0  0  0  0  0
   11.2468   -7.2147    2.7937 H   0  0  0  0  0  0  0  0  0  0  0  0
   10.4708   -5.9533    0.7479 H   0  0  0  0  0  0  0  0  0  0  0  0
    9.4221   -7.3303    1.1044 H   0  0  0  0  0  0  0  0  0  0  0  0
  1  2  1  0
  1 30  1  0
  1 31  1  0
  1 32  1  0
  2  3  1  0
  2 33  1  0
  2 34  1  0
  3  4  1  0
  3 35  1  0
  3 36  1  0
  4  5  1  0
  4 37  1  0
  4 38  1  0
  5  6  1  0
  5 39  1  0
  6  7  2  0
  6 29  1  0
  7  8  1  0
  8  9  1  0
  8 10  2  0
  9 40  1  0
  9 41  1  0
 10 11  1  0
 10 28  1  0
 11 12  2  0
 12 13  1  0
 12 15  1  0
 13 14  1  0
 14 42  1  0
 14 43  1  0
 14 44  1  0
 15 16  1  0
 15 28  1  0
 16 17  1  0
 16 45  1  0
 16 46  1  0
 17 18  1  0
 17 47  1  0
 17 48  1  0
 18 19  1  0
 18 49  1  0
 18 50  1  0
 19 20  1  0
 19 27  1  0
 20 21  1  0
 20 51  1  0
 20 52  1  0
 21 22  1  0
 21 53  1  0
 21 54  1  0
 22 23  1  0
 22 26  1  0
 23 24  1  0
 23 25  1  0
 23 55  1  6
 24 56  1  0
 24 57  1  0
 24 58  1  0
 25 59  1  0
 25 60  1  0
 25 61  1  0
 26 27  1  0
 26 62  1  0
 26 63  1  0
 27 64  1  0
 27 65  1  0
 28 29  2  0
M  END

