
     RDKit          3D

 85 89  0  0  0  0  0  0  0  0999 V2000
   20.5051    2.0753    0.6973 C   0  0  0  0  0  0  0  0  0  0  0  0
   19.2740    1.8477    1.1637 C   0  0  0  0  0  0  0  0  0  0  0  0
   18.0117    2.4829    0.6504 C   0  0  0  0  0  0  0  0  0  0  0  0
   16.9938    1.4659    0.1070 C   0  0  0  0  0  0  0  0  0  0  0  0
   15.6869    2.1134   -0.3587 C   0  0  0  0  0  0  0  0  0  0  0  0
   14.6756    1.1334   -0.9704 C   0  0  0  0  0  0  0  0  0  0  0  0
   14.2293    0.0733   -0.0640 N   0  0  0  0  0  0  0  0  0  0  0  0
   13.3847    0.4891    1.0430 C   0  0  0  0  0  0  0  0  0  0  0  0
   14.6636   -1.2115   -0.2914 C   0  0  0  0  0  0  0  0  0  0  0  0
   15.3822   -1.4871   -1.2451 O   0  0  0  0  0  0  0  0  0  0  0  0
   14.2473   -2.2965    0.7106 C   0  0  2  0  0  0  0  0  0  0  0  0
   13.1805   -2.2056    0.9618 H   0  0  0  0  0  0  0  0  0  0  0  0
   15.0617   -2.2475    2.0242 C   0  0  0  0  0  0  0  0  0  0  0  0
   14.9676   -3.6897    2.5349 C   0  0  2  0  0  0  0  0  0  0  0  0
   13.9632   -3.8837    2.9472 H   0  0  0  0  0  0  0  0  0  0  0  0
   15.9585   -4.0414    3.4973 O   0  0  0  0  0  0  0  0  0  0  0  0
   15.8168   -3.7154    4.7979 C   0  0  0  0  0  0  0  0  0  0  0  0
   14.7597   -3.0024    5.3294 C   0  0  0  0  0  0  0  0  0  0  0  0
   14.7634   -2.7431    6.7277 C   0  0  0  0  0  0  0  0  0  0  0  0
   13.6453   -1.9766    7.3033 C   0  0  0  0  0  0  0  0  0  0  0  0
   12.6362   -1.4881    6.6309 N   0  0  0  0  0  0  0  0  0  0  0  0
   11.7655   -0.8295    7.4513 C   0  0  0  0  0  0  0  0  0  0  0  0
   12.1075   -0.8071    8.7815 C   0  0  0  0  0  0  0  0  0  0  0  0
   13.5943   -1.6520    9.0270 S   0  0  0  0  0  0  0  0  0  0  0  0
   15.7064   -3.1391    7.5579 N   0  0  0  0  0  0  0  0  0  0  0  0
   16.7613   -3.8470    7.0662 C   0  0  0  0  0  0  0  0  0  0  0  0
   17.7817   -4.2774    7.9673 C   0  0  0  0  0  0  0  0  0  0  0  0
   17.7168   -3.9688    9.4374 C   0  0  0  0  0  0  0  0  0  0  0  0
   18.8626   -5.0029    7.4582 C   0  0  0  0  0  0  0  0  0  0  0  0
   19.7982   -5.3813    8.3704 O   0  0  0  0  0  0  0  0  0  0  0  0
   20.9305   -6.1121    7.9593 C   0  0  0  0  0  0  0  0  0  0  0  0
   18.9603   -5.3148    6.0789 C   0  0  0  0  0  0  0  0  0  0  0  0
   17.9757   -4.9008    5.2026 C   0  0  0  0  0  0  0  0  0  0  0  0
   16.8655   -4.1650    5.6687 C   0  0  0  0  0  0  0  0  0  0  0  0
   15.1792   -4.5233    1.2708 C   0  0  0  0  0  0  0  0  0  0  0  0
   14.4564   -3.7300    0.1454 C   0  0  1  0  0  0  0  0  0  0  0  0
   15.0909   -3.6652   -0.7484 H   0  0  0  0  0  0  0  0  0  0  0  0
   13.1165   -4.3838   -0.1965 C   0  0  0  0  0  0  0  0  0  0  0  0
   12.1302   -4.2575    0.5170 O   0  0  0  0  0  0  0  0  0  0  0  0
   13.1136   -5.1404   -1.3330 N   0  0  0  0  0  0  0  0  0  0  0  0
   11.9883   -5.9438   -1.7444 C   0  0  2  0  0  0  0  0  0  0  0  0
   11.8518   -7.2583   -0.9995 C   0  0  0  0  0  0  0  0  0  0  0  0
   11.6182   -5.8602   -3.2077 C   0  0  0  0  0  0  0  0  0  0  0  0
   10.7530   -5.1683   -2.1862 C   0  0  1  0  0  0  0  0  0  0  0  0
   10.8966   -4.0851   -2.1098 H   0  0  0  0  0  0  0  0  0  0  0  0
    9.3761   -5.5997   -1.8267 C   0  0  0  0  0  0  0  0  0  0  0  0
    8.5635   -6.3609   -2.5669 C   0  0  0  0  0  0  0  0  0  0  0  0
   21.3799    1.5713    1.1180 H   0  0  0  0  0  0  0  0  0  0  0  0
   20.6862    2.7780   -0.1235 H   0  0  0  0  0  0  0  0  0  0  0  0
   19.1461    1.1309    1.9866 H   0  0  0  0  0  0  0  0  0  0  0  0
   18.2589    3.2196   -0.1339 H   0  0  0  0  0  0  0  0  0  0  0  0
   17.5350    3.0522    1.4718 H   0  0  0  0  0  0  0  0  0  0  0  0
   16.7743    0.7187    0.8905 H   0  0  0  0  0  0  0  0  0  0  0  0
   17.4455    0.9002   -0.7255 H   0  0  0  0  0  0  0  0  0  0  0  0
   15.9052    2.8781   -1.1256 H   0  0  0  0  0  0  0  0  0  0  0  0
   15.2248    2.6626    0.4823 H   0  0  0  0  0  0  0  0  0  0  0  0
   15.1163    0.6360   -1.8434 H   0  0  0  0  0  0  0  0  0  0  0  0
   13.7852    1.6928   -1.3098 H   0  0  0  0  0  0  0  0  0  0  0  0
   13.9599    0.9476    1.8672 H   0  0  0  0  0  0  0  0  0  0  0  0
   12.8154   -0.3517    1.4540 H   0  0  0  0  0  0  0  0  0  0  0  0
   12.6578    1.2376    0.6868 H   0  0  0  0  0  0  0  0  0  0  0  0
   14.6897   -1.5016    2.7403 H   0  0  0  0  0  0  0  0  0  0  0  0
   16.1218   -2.0220    1.8185 H   0  0  0  0  0  0  0  0  0  0  0  0
   13.9281   -2.6255    4.7389 H   0  0  0  0  0  0  0  0  0  0  0  0
   10.8695   -0.3679    7.0314 H   0  0  0  0  0  0  0  0  0  0  0  0
   11.5683   -0.3461    9.6074 H   0  0  0  0  0  0  0  0  0  0  0  0
   16.8073   -3.4039    9.6691 H   0  0  0  0  0  0  0  0  0  0  0  0
   18.5971   -3.3858    9.7555 H   0  0  0  0  0  0  0  0  0  0  0  0
   17.7312   -4.8961   10.0337 H   0  0  0  0  0  0  0  0  0  0  0  0
   21.5292   -6.2929    8.8623 H   0  0  0  0  0  0  0  0  0  0  0  0
   21.5448   -5.5502    7.2327 H   0  0  0  0  0  0  0  0  0  0  0  0
   20.6565   -7.0858    7.5144 H   0  0  0  0  0  0  0  0  0  0  0  0
   19.8096   -5.8826    5.6990 H   0  0  0  0  0  0  0  0  0  0  0  0
   18.0460   -5.1385    4.1409 H   0  0  0  0  0  0  0  0  0  0  0  0
   14.8179   -5.5562    1.3820 H   0  0  0  0  0  0  0  0  0  0  0  0
   16.2616   -4.5674    1.0713 H   0  0  0  0  0  0  0  0  0  0  0  0
   13.9802   -5.2289   -1.8523 H   0  0  0  0  0  0  0  0  0  0  0  0
   10.9658   -7.8171   -1.3315 H   0  0  0  0  0  0  0  0  0  0  0  0
   11.7507   -7.0697    0.0809 H   0  0  0  0  0  0  0  0  0  0  0  0
   12.7411   -7.8899   -1.1627 H   0  0  0  0  0  0  0  0  0  0  0  0
   11.2481   -6.7763   -3.6762 H   0  0  0  0  0  0  0  0  0  0  0  0
   12.2320   -5.2344   -3.8619 H   0  0  0  0  0  0  0  0  0  0  0  0
    9.0265   -5.2285   -0.8551 H   0  0  0  0  0  0  0  0  0  0  0  0
    8.8637   -6.7412   -3.5484 H   0  0  0  0  0  0  0  0  0  0  0  0
    7.5616   -6.6273   -2.2194 H   0  0  0  0  0  0  0  0  0  0  0  0
  1  2  2  0
  1 48  1  0
  1 49  1  0
  2  3  1  0
  2 50  1  0
  3  4  1  0
  3 51  1  0
  3 52  1  0
  4  5  1  0
  4 53  1  0
  4 54  1  0
  5  6  1  0
  5 55  1  0
  5 56  1  0
  6  7  1  0
  6 57  1  0
  6 58  1  0
  7  8  1  0
  7  9  1  0
  8 59  1  0
  8 60  1  0
  8 61  1  0
  9 10  2  0
  9 11  1  0
 11 12  1  1
 11 13  1  0
 11 36  1  0
 13 14  1  0
 13 62  1  0
 13 63  1  0
 14 15  1  1
 14 16  1  0
 14 35  1  0
 16 17  1  0
 17 18  2  0
 17 34  1  0
 18 19  1  0
 18 64  1  0
 19 20  1  0
 19 25  2  0
 20 21  2  0
 20 24  1  0
 21 22  1  0
 22 23  2  0
 22 65  1  0
 23 24  1  0
 23 66  1  0
 25 26  1  0
 26 27  1  0
 26 34  2  0
 27 28  1  0
 27 29  2  0
 28 67  1  0
 28 68  1  0
 28 69  1  0
 29 30  1  0
 29 32  1  0
 30 31  1  0
 31 70  1  0
 31 71  1  0
 31 72  1  0
 32 33  2  0
 32 73  1  0
 33 34  1  0
 33 74  1  0
 35 36  1  0
 35 75  1  0
 35 76  1  0
 36 37  1  6
 36 38  1  0
 38 39  2  0
 38 40  1  0
 41 40  1  6
 40 77  1  0
 41 42  1  0
 41 43  1  0
 41 44  1  0
 42 78  1  0
 42 79  1  0
 42 80  1  0
 43 44  1  0
 43 81  1  0
 43 82  1  0
 44 45  1  6
 44 46  1  0
 46 47  2  0
 46 83  1  0
 47 84  1  0
 47 85  1  0
M  END

