
     RDKit          3D

 44 47  0  0  0  0  0  0  0  0999 V2000
    1.5966    0.2566    1.5316 O   0  0  0  0  0  0  0  0  0  0  0  0
    2.7318    0.2497    1.1065 C   0  0  0  0  0  0  0  0  0  0  0  0
    3.6089   -0.9990    1.2780 C   0  0  0  0  0  0  0  0  0  0  0  0
    2.8916   -2.0537    1.8881 O   0  0  0  0  0  0  0  0  0  0  0  0
    2.7509   -1.9856    3.2292 C   0  0  0  0  0  0  0  0  0  0  0  0
    3.2868   -1.1486    3.9243 O   0  0  0  0  0  0  0  0  0  0  0  0
    1.9104   -3.0629    3.7593 C   0  0  0  0  0  0  0  0  0  0  0  0
    1.2383   -4.1044    3.1467 C   0  0  0  0  0  0  0  0  0  0  0  0
    0.5852   -4.8414    4.1848 C   0  0  0  0  0  0  0  0  0  0  0  0
   -0.2389   -5.9877    4.2083 C   0  0  0  0  0  0  0  0  0  0  0  0
   -0.7184   -6.4472    5.4268 C   0  0  0  0  0  0  0  0  0  0  0  0
   -0.3942   -5.7855    6.6364 C   0  0  0  0  0  0  0  0  0  0  0  0
    0.4138   -4.6554    6.6515 C   0  0  0  0  0  0  0  0  0  0  0  0
    0.9012   -4.1888    5.4190 C   0  0  0  0  0  0  0  0  0  0  0  0
    1.7051   -3.1201    5.1244 N   0  0  0  0  0  0  0  0  0  0  0  0
    2.0984   -2.4421    5.7659 H   0  0  0  0  0  0  0  0  0  0  0  0
    3.3271    1.4300    0.4080 C   0  0  0  0  0  0  0  0  0  0  0  0
    2.5239    2.5713    0.2328 C   0  0  0  0  0  0  0  0  0  0  0  0
    3.0377    3.6882   -0.4119 C   0  0  0  0  0  0  0  0  0  0  0  0
    4.3568    3.7136   -0.9021 C   0  0  0  0  0  0  0  0  0  0  0  0
    5.1717    2.5753   -0.7316 C   0  0  0  0  0  0  0  0  0  0  0  0
    4.6417    1.4524   -0.0790 C   0  0  0  0  0  0  0  0  0  0  0  0
    6.6146    2.5574   -1.2068 C   0  0  0  0  0  0  0  0  0  0  0  0
    6.9308    3.6467   -2.2358 C   0  0  0  0  0  0  0  0  0  0  0  0
    6.3871    4.9979   -1.7656 C   0  0  0  0  0  0  0  0  0  0  0  0
    4.8624    4.9446   -1.6306 C   0  0  0  0  0  0  0  0  0  0  0  0
    4.5010   -0.7396    1.8703 H   0  0  0  0  0  0  0  0  0  0  0  0
    3.9292   -1.3724    0.2939 H   0  0  0  0  0  0  0  0  0  0  0  0
    1.2223   -4.3008    2.0778 H   0  0  0  0  0  0  0  0  0  0  0  0
   -0.4937   -6.5022    3.2782 H   0  0  0  0  0  0  0  0  0  0  0  0
   -1.3577   -7.3328    5.4597 H   0  0  0  0  0  0  0  0  0  0  0  0
   -0.7894   -6.1732    7.5789 H   0  0  0  0  0  0  0  0  0  0  0  0
    0.6608   -4.1480    7.5871 H   0  0  0  0  0  0  0  0  0  0  0  0
    1.5016    2.5517    0.6148 H   0  0  0  0  0  0  0  0  0  0  0  0
    2.4077    4.5730   -0.5439 H   0  0  0  0  0  0  0  0  0  0  0  0
    5.2914    0.5822    0.0457 H   0  0  0  0  0  0  0  0  0  0  0  0
    6.8580    1.5600   -1.6095 H   0  0  0  0  0  0  0  0  0  0  0  0
    7.2730    2.6924   -0.3278 H   0  0  0  0  0  0  0  0  0  0  0  0
    6.4732    3.3876   -3.2078 H   0  0  0  0  0  0  0  0  0  0  0  0
    8.0185    3.6980   -2.4052 H   0  0  0  0  0  0  0  0  0  0  0  0
    6.6733    5.8019   -2.4627 H   0  0  0  0  0  0  0  0  0  0  0  0
    6.8395    5.2525   -0.7901 H   0  0  0  0  0  0  0  0  0  0  0  0
    4.4087    4.9559   -2.6401 H   0  0  0  0  0  0  0  0  0  0  0  0
    4.4824    5.8495   -1.1278 H   0  0  0  0  0  0  0  0  0  0  0  0
  1  2  2  0
  2  3  1  0
  2 17  1  0
  3  4  1  0
  3 27  1  0
  3 28  1  0
  4  5  1  0
  5  6  2  0
  5  7  1  0
  7  8  2  0
  7 15  1  0
  8  9  1  0
  8 29  1  0
  9 10  2  0
  9 14  1  0
 10 11  1  0
 10 30  1  0
 11 12  2  0
 11 31  1  0
 12 13  1  0
 12 32  1  0
 13 14  2  0
 13 33  1  0
 14 15  1  0
 15 16  1  0
 17 18  2  0
 17 22  1  0
 18 19  1  0
 18 34  1  0
 19 20  2  0
 19 35  1  0
 20 21  1  0
 20 26  1  0
 21 22  2  0
 21 23  1  0
 22 36  1  0
 23 24  1  0
 23 37  1  0
 23 38  1  0
 24 25  1  0
 24 39  1  0
 24 40  1  0
 25 26  1  0
 25 41  1  0
 25 42  1  0
 26 43  1  0
 26 44  1  0
M  END

