
     RDKit          3D

 30 32  0  0  0  0  0  0  0  0999 V2000
    1.0653   -0.3792    0.2900 N   0  0  0  0  0  0  0  0  0  0  0  0
    2.2313   -0.2595    0.2016 C   0  0  0  0  0  0  0  0  0  0  0  0
    3.6237   -0.1106    0.0967 C   0  0  0  0  0  0  0  0  0  0  0  0
    4.4631   -0.0440    1.2687 C   0  0  0  0  0  0  0  0  0  0  0  0
    5.8250    0.1119    1.1715 C   0  0  0  0  0  0  0  0  0  0  0  0
    6.4575    0.2316   -0.1069 C   0  0  0  0  0  0  0  0  0  0  0  0
    7.8901    0.2496   -0.2494 N   0  0  0  0  0  0  0  0  0  0  0  0
    8.6252    1.3457   -0.5215 C   0  0  0  0  0  0  0  0  0  0  0  0
    8.0574    2.6110   -0.7032 C   0  0  0  0  0  0  0  0  0  0  0  0
    8.8985    3.6642   -1.0612 C   0  0  0  0  0  0  0  0  0  0  0  0
    8.6401    4.9636   -1.3397 N   0  0  0  0  0  0  0  0  0  0  0  0
    7.7424    5.4328   -1.3306 H   0  0  0  0  0  0  0  0  0  0  0  0
    9.7573    5.6711   -1.6852 N   0  0  0  0  0  0  0  0  0  0  0  0
   10.7639    4.8378   -1.6332 C   0  0  0  0  0  0  0  0  0  0  0  0
   10.3244    3.5201   -1.2436 C   0  0  0  0  0  0  0  0  0  0  0  0
   10.9175    2.2919   -1.0140 C   0  0  0  0  0  0  0  0  0  0  0  0
   10.1022    1.2119   -0.6024 C   0  0  0  0  0  0  0  0  0  0  0  0
   10.6696    0.0383   -0.2502 N   0  0  0  0  0  0  0  0  0  0  0  0
    5.6359    0.1298   -1.2563 C   0  0  0  0  0  0  0  0  0  0  0  0
    6.2613    0.2140   -2.4614 F   0  0  0  0  0  0  0  0  0  0  0  0
    4.2770   -0.0203   -1.1993 C   0  0  0  0  0  0  0  0  0  0  0  0
    3.9952   -0.1176    2.2523 H   0  0  0  0  0  0  0  0  0  0  0  0
    6.4371    0.1535    2.0756 H   0  0  0  0  0  0  0  0  0  0  0  0
    8.3356   -0.6475   -0.4201 H   0  0  0  0  0  0  0  0  0  0  0  0
    6.9797    2.7217   -0.6184 H   0  0  0  0  0  0  0  0  0  0  0  0
   11.7731    5.1732   -1.8684 H   0  0  0  0  0  0  0  0  0  0  0  0
   11.9969    2.1498   -1.0979 H   0  0  0  0  0  0  0  0  0  0  0  0
   10.1481   -0.6702    0.2506 H   0  0  0  0  0  0  0  0  0  0  0  0
   11.6779   -0.0615   -0.2625 H   0  0  0  0  0  0  0  0  0  0  0  0
    3.7021   -0.0614   -2.1240 H   0  0  0  0  0  0  0  0  0  0  0  0
  1  2  3  0
  2  3  1  0
  3  4  2  0
  3 21  1  0
  4  5  1  0
  4 22  1  0
  5  6  2  0
  5 23  1  0
  6  7  1  0
  6 19  1  0
  7  8  1  0
  7 24  1  0
  8  9  2  0
  8 17  1  0
  9 10  1  0
  9 25  1  0
 10 11  1  0
 10 15  2  0
 11 12  1  0
 11 13  1  0
 13 14  2  0
 14 15  1  0
 14 26  1  0
 15 16  1  0
 16 17  2  0
 16 27  1  0
 17 18  1  0
 18 28  1  0
 18 29  1  0
 19 20  1  0
 19 21  2  0
 21 30  1  0
M  END

