
     RDKit          3D

 47 48  0  0  0  0  0  0  0  0999 V2000
    3.5357   -0.3555   -1.2913 C   0  0  0  0  0  0  0  0  0  0  0  0
    2.6385    0.2553   -0.2298 C   0  0  0  0  0  0  0  0  0  0  0  0
    1.4254    0.1413   -0.2731 O   0  0  0  0  0  0  0  0  0  0  0  0
    3.2430    0.9660    0.7978 N   0  0  0  0  0  0  0  0  0  0  0  0
    2.3786    1.4855    1.8457 C   0  0  0  0  0  0  0  0  0  0  0  0
    1.9193    0.4112    2.8976 C   0  0  0  0  0  0  0  0  0  0  0  0
    1.0746    1.0055    3.9676 C   0  0  0  0  0  0  0  0  0  0  0  0
   -0.3183    1.2504    3.7314 C   0  0  0  0  0  0  0  0  0  0  0  0
   -1.1204    1.8711    4.7415 C   0  0  0  0  0  0  0  0  0  0  0  0
   -0.5266    2.2513    5.9759 C   0  0  0  0  0  0  0  0  0  0  0  0
    0.8534    2.0159    6.2272 C   0  0  0  0  0  0  0  0  0  0  0  0
    1.6561    1.3948    5.2178 C   0  0  0  0  0  0  0  0  0  0  0  0
    4.6760    1.0456    0.9640 C   0  0  0  0  0  0  0  0  0  0  0  0
    5.3011   -0.2239    1.5923 C   0  0  0  0  0  0  0  0  0  0  0  0
    4.6101   -1.2091    1.7996 O   0  0  0  0  0  0  0  0  0  0  0  0
    6.6393   -0.1846    1.8781 N   0  0  0  0  0  0  0  0  0  0  0  0
    7.5547    0.9189    1.5919 C   0  0  0  0  0  0  0  0  0  0  0  0
    8.4052    1.2388    2.8381 C   0  0  0  0  0  0  0  0  0  0  0  0
    9.0813    0.0805    3.3972 N   0  0  0  0  0  0  0  0  0  0  0  0
   10.3072   -0.3130    2.7270 C   0  0  0  0  0  0  0  0  0  0  0  0
    8.1327   -0.9970    3.6563 C   0  0  0  0  0  0  0  0  0  0  0  0
    7.2870   -1.3778    2.4320 C   0  0  0  0  0  0  0  0  0  0  0  0
    2.8866   -0.8197   -2.0431 H   0  0  0  0  0  0  0  0  0  0  0  0
    4.1858   -1.1257   -0.8498 H   0  0  0  0  0  0  0  0  0  0  0  0
    4.1718    0.3973   -1.7840 H   0  0  0  0  0  0  0  0  0  0  0  0
    1.4789    1.9013    1.3748 H   0  0  0  0  0  0  0  0  0  0  0  0
    2.9102    2.2955    2.3661 H   0  0  0  0  0  0  0  0  0  0  0  0
    2.8141   -0.0717    3.3169 H   0  0  0  0  0  0  0  0  0  0  0  0
    1.3581   -0.3461    2.3263 H   0  0  0  0  0  0  0  0  0  0  0  0
   -0.7620    0.9483    2.7805 H   0  0  0  0  0  0  0  0  0  0  0  0
   -2.1822    2.0520    4.5663 H   0  0  0  0  0  0  0  0  0  0  0  0
   -1.1388    2.7339    6.7420 H   0  0  0  0  0  0  0  0  0  0  0  0
    1.2949    2.3055    7.1822 H   0  0  0  0  0  0  0  0  0  0  0  0
    2.7151    1.1984    5.4003 H   0  0  0  0  0  0  0  0  0  0  0  0
    4.8976    1.9202    1.5940 H   0  0  0  0  0  0  0  0  0  0  0  0
    5.1649    1.2357   -0.0048 H   0  0  0  0  0  0  0  0  0  0  0  0
    7.0012    1.8142    1.2844 H   0  0  0  0  0  0  0  0  0  0  0  0
    8.2122    0.6398    0.7457 H   0  0  0  0  0  0  0  0  0  0  0  0
    7.7353    1.6610    3.6100 H   0  0  0  0  0  0  0  0  0  0  0  0
    9.1476    2.0140    2.5884 H   0  0  0  0  0  0  0  0  0  0  0  0
   10.9989    0.5442    2.6895 H   0  0  0  0  0  0  0  0  0  0  0  0
   10.1880   -0.6870    1.6858 H   0  0  0  0  0  0  0  0  0  0  0  0
   10.8021   -1.1104    3.3042 H   0  0  0  0  0  0  0  0  0  0  0  0
    7.4508   -0.6739    4.4637 H   0  0  0  0  0  0  0  0  0  0  0  0
    8.6767   -1.8815    4.0241 H   0  0  0  0  0  0  0  0  0  0  0  0
    6.4989   -2.0950    2.6923 H   0  0  0  0  0  0  0  0  0  0  0  0
    7.9204   -1.8420    1.6522 H   0  0  0  0  0  0  0  0  0  0  0  0
  1  2  1  0
  1 23  1  0
  1 24  1  0
  1 25  1  0
  2  3  2  0
  2  4  1  0
  4  5  1  0
  4 13  1  0
  5  6  1  0
  5 26  1  0
  5 27  1  0
  6  7  1  0
  6 28  1  0
  6 29  1  0
  7  8  2  0
  7 12  1  0
  8  9  1  0
  8 30  1  0
  9 10  2  0
  9 31  1  0
 10 11  1  0
 10 32  1  0
 11 12  2  0
 11 33  1  0
 12 34  1  0
 13 14  1  0
 13 35  1  0
 13 36  1  0
 14 15  2  0
 14 16  1  0
 16 17  1  0
 16 22  1  0
 17 18  1  0
 17 37  1  0
 17 38  1  0
 18 19  1  0
 18 39  1  0
 18 40  1  0
 19 20  1  0
 19 21  1  0
 20 41  1  0
 20 42  1  0
 20 43  1  0
 21 22  1  0
 21 44  1  0
 21 45  1  0
 22 46  1  0
 22 47  1  0
M  END

