
     RDKit          3D

 51 55  0  0  0  0  0  0  0  0999 V2000
    2.0465    0.7487   -0.2610 C   0  0  0  0  0  0  0  0  0  0  0  0
    2.8695    0.5652    0.9376 N   0  0  0  0  0  0  0  0  0  0  0  0
    3.2281   -0.8064    1.3061 C   0  0  0  0  0  0  0  0  0  0  0  0
    3.2606    1.6180    1.6345 C   0  0  0  0  0  0  0  0  0  0  0  0
    2.9942    2.9045    1.3860 N   0  0  0  0  0  0  0  0  0  0  0  0
    3.6070    3.5801    2.3678 C   0  0  0  0  0  0  0  0  0  0  0  0
    4.2574    2.6841    3.2285 C   0  0  0  0  0  0  0  0  0  0  0  0
    5.0726    2.9621    4.4620 C   0  0  0  0  0  0  0  0  0  0  0  0
    5.2001    4.1327    4.7739 O   0  0  0  0  0  0  0  0  0  0  0  0
    5.5554    1.8578    5.0576 N   0  0  0  0  0  0  0  0  0  0  0  0
    6.3609    1.7324    6.2297 C   0  0  0  0  0  0  0  0  0  0  0  0
    6.8034    2.8218    6.9905 C   0  0  0  0  0  0  0  0  0  0  0  0
    7.5874    2.5472    8.1132 C   0  0  0  0  0  0  0  0  0  0  0  0
    7.9163    1.2360    8.4615 C   0  0  0  0  0  0  0  0  0  0  0  0
    8.6673    1.0575    9.5463 F   0  0  0  0  0  0  0  0  0  0  0  0
    7.4793    0.1302    7.7069 C   0  0  0  0  0  0  0  0  0  0  0  0
    7.7681   -1.2877    7.9840 C   0  0  0  0  0  0  0  0  0  0  0  0
    7.2645   -2.2528    7.1716 N   0  0  0  0  0  0  0  0  0  0  0  0
    7.7213   -3.3905    7.7164 C   0  0  0  0  0  0  0  0  0  0  0  0
    7.5301   -4.6574    7.3117 N   0  0  0  0  0  0  0  0  0  0  0  0
    8.1273   -5.5976    8.0883 C   0  0  0  0  0  0  0  0  0  0  0  0
    8.8961   -5.3495    9.2373 C   0  0  0  0  0  0  0  0  0  0  0  0
    9.5150   -6.4569   10.0001 C   0  0  0  0  0  0  0  0  0  0  0  0
    8.9265   -7.7382   10.0629 C   0  0  0  0  0  0  0  0  0  0  0  0
    9.5205   -8.7769   10.7801 C   0  0  0  0  0  0  0  0  0  0  0  0
   10.7181   -8.5679   11.4744 C   0  0  0  0  0  0  0  0  0  0  0  0
   11.3106   -7.3026   11.4348 C   0  0  0  0  0  0  0  0  0  0  0  0
   10.7200   -6.2651   10.7101 C   0  0  0  0  0  0  0  0  0  0  0  0
    9.1047   -4.0074    9.6328 C   0  0  0  0  0  0  0  0  0  0  0  0
    8.4777   -3.0531    8.8276 N   0  0  0  0  0  0  0  0  0  0  0  0
    8.5110   -1.7185    9.0013 N   0  0  0  0  0  0  0  0  0  0  0  0
    6.6942    0.4234    6.5857 C   0  0  0  0  0  0  0  0  0  0  0  0
    4.0279    1.4356    2.7483 O   0  0  0  0  0  0  0  0  0  0  0  0
    1.1005    0.2029   -0.1316 H   0  0  0  0  0  0  0  0  0  0  0  0
    2.5816    0.3364   -1.1290 H   0  0  0  0  0  0  0  0  0  0  0  0
    1.8477    1.8141   -0.4139 H   0  0  0  0  0  0  0  0  0  0  0  0
    2.3076   -1.3836    1.4760 H   0  0  0  0  0  0  0  0  0  0  0  0
    3.8405   -0.8207    2.2122 H   0  0  0  0  0  0  0  0  0  0  0  0
    3.7874   -1.2648    0.4776 H   0  0  0  0  0  0  0  0  0  0  0  0
    3.5887    4.6637    2.4628 H   0  0  0  0  0  0  0  0  0  0  0  0
    5.3297    0.9651    4.6315 H   0  0  0  0  0  0  0  0  0  0  0  0
    6.5480    3.8434    6.7195 H   0  0  0  0  0  0  0  0  0  0  0  0
    7.9618    3.3547    8.7454 H   0  0  0  0  0  0  0  0  0  0  0  0
    8.0162   -6.6306    7.7440 H   0  0  0  0  0  0  0  0  0  0  0  0
    7.9740   -7.9117    9.5577 H   0  0  0  0  0  0  0  0  0  0  0  0
    9.0357   -9.7571   10.8095 H   0  0  0  0  0  0  0  0  0  0  0  0
   11.1787   -9.3796   12.0436 H   0  0  0  0  0  0  0  0  0  0  0  0
   12.2477   -7.1207   11.9693 H   0  0  0  0  0  0  0  0  0  0  0  0
   11.2100   -5.2900   10.6666 H   0  0  0  0  0  0  0  0  0  0  0  0
    9.5455   -3.6564   10.5600 H   0  0  0  0  0  0  0  0  0  0  0  0
    6.3570   -0.4405    6.0051 H   0  0  0  0  0  0  0  0  0  0  0  0
  1  2  1  0
  1 34  1  0
  1 35  1  0
  1 36  1  0
  2  3  1  0
  2  4  1  0
  3 37  1  0
  3 38  1  0
  3 39  1  0
  4  5  2  0
  4 33  1  0
  5  6  1  0
  6  7  2  0
  6 40  1  0
  7  8  1  0
  7 33  1  0
  8  9  2  0
  8 10  1  0
 10 11  1  0
 10 41  1  0
 11 12  2  0
 11 32  1  0
 12 13  1  0
 12 42  1  0
 13 14  2  0
 13 43  1  0
 14 15  1  0
 14 16  1  0
 16 17  1  0
 16 32  2  0
 17 18  1  0
 17 31  2  0
 18 19  2  0
 19 20  1  0
 19 30  1  0
 20 21  2  0
 21 22  1  0
 21 44  1  0
 22 23  1  0
 22 29  2  0
 23 24  2  0
 23 28  1  0
 24 25  1  0
 24 45  1  0
 25 26  2  0
 25 46  1  0
 26 27  1  0
 26 47  1  0
 27 28  2  0
 27 48  1  0
 28 49  1  0
 29 30  1  0
 29 50  1  0
 30 31  1  0
 32 51  1  0
M  END

