
     RDKit          3D

 43 44  0  0  0  0  0  0  0  0999 V2000
    1.3179   -2.6047    1.4893 C   0  0  0  0  0  0  0  0  0  0  0  0
    2.7064   -2.4231    1.1124 N   0  0  0  0  0  0  0  0  0  0  0  0
    2.8987   -1.6247   -0.0859 C   0  0  0  0  0  0  0  0  0  0  0  0
    4.3855   -1.3617   -0.3830 C   0  0  1  0  0  0  0  0  0  0  0  0
    5.1944   -2.6296   -0.7254 C   0  0  0  0  0  0  0  0  0  0  0  0
    4.9057   -3.1596   -2.1334 C   0  0  0  0  0  0  0  0  0  0  0  0
    5.1217   -2.1241   -3.1477 N   0  0  0  0  0  0  0  0  0  0  0  0
    5.9601   -2.4122   -4.2077 C   0  0  0  0  0  0  0  0  0  0  0  0
    6.5294   -3.4945   -4.2621 O   0  0  0  0  0  0  0  0  0  0  0  0
    6.1644   -1.3604   -5.3405 C   0  0  1  0  0  0  0  0  0  0  0  0
    4.8573   -1.2172   -6.1489 C   0  0  0  0  0  0  0  0  0  0  0  0
    6.7205    0.0052   -4.7822 C   0  0  0  0  0  0  0  0  0  0  0  0
    8.0754    0.2484   -5.4779 C   0  0  0  0  0  0  0  0  0  0  0  0
    8.5757   -1.1629   -5.8023 C   0  0  0  0  0  0  0  0  0  0  0  0
    7.3013   -1.8595   -6.2830 C   0  0  0  0  0  0  0  0  0  0  0  0
    4.3290   -0.9198   -2.9190 C   0  0  0  0  0  0  0  0  0  0  0  0
    4.5796   -0.3380   -1.5184 C   0  0  0  0  0  0  0  0  0  0  0  0
    1.2500   -3.2578    2.3736 H   0  0  0  0  0  0  0  0  0  0  0  0
    0.6741   -3.0427    0.6924 H   0  0  0  0  0  0  0  0  0  0  0  0
    0.8717   -1.6335    1.7649 H   0  0  0  0  0  0  0  0  0  0  0  0
    3.1522   -3.3323    1.0037 H   0  0  0  0  0  0  0  0  0  0  0  0
    2.4085   -0.6486    0.0831 H   0  0  0  0  0  0  0  0  0  0  0  0
    2.3887   -2.0598   -0.9773 H   0  0  0  0  0  0  0  0  0  0  0  0
    4.7993   -0.9338    0.5456 H   0  0  0  0  0  0  0  0  0  0  0  0
    5.0138   -3.4295    0.0125 H   0  0  0  0  0  0  0  0  0  0  0  0
    6.2701   -2.3938   -0.6569 H   0  0  0  0  0  0  0  0  0  0  0  0
    3.8601   -3.5174   -2.2051 H   0  0  0  0  0  0  0  0  0  0  0  0
    5.5598   -4.0025   -2.3824 H   0  0  0  0  0  0  0  0  0  0  0  0
    3.9953   -0.9031   -5.5433 H   0  0  0  0  0  0  0  0  0  0  0  0
    4.5969   -2.1770   -6.6236 H   0  0  0  0  0  0  0  0  0  0  0  0
    4.9891   -0.4738   -6.9516 H   0  0  0  0  0  0  0  0  0  0  0  0
    6.8803   -0.0615   -3.6950 H   0  0  0  0  0  0  0  0  0  0  0  0
    6.0161    0.8362   -4.9483 H   0  0  0  0  0  0  0  0  0  0  0  0
    8.7682    0.8374   -4.8557 H   0  0  0  0  0  0  0  0  0  0  0  0
    7.9276    0.8108   -6.4162 H   0  0  0  0  0  0  0  0  0  0  0  0
    8.9537   -1.6568   -4.8902 H   0  0  0  0  0  0  0  0  0  0  0  0
    9.3876   -1.1798   -6.5468 H   0  0  0  0  0  0  0  0  0  0  0  0
    7.3669   -2.9538   -6.2791 H   0  0  0  0  0  0  0  0  0  0  0  0
    7.0767   -1.5292   -7.3114 H   0  0  0  0  0  0  0  0  0  0  0  0
    3.2562   -1.1688   -3.0360 H   0  0  0  0  0  0  0  0  0  0  0  0
    4.5563   -0.1608   -3.6709 H   0  0  0  0  0  0  0  0  0  0  0  0
    3.9189    0.5330   -1.3694 H   0  0  0  0  0  0  0  0  0  0  0  0
    5.6156    0.0401   -1.4820 H   0  0  0  0  0  0  0  0  0  0  0  0
  1  2  1  0
  1 18  1  0
  1 19  1  0
  1 20  1  0
  2  3  1  0
  2 21  1  0
  3  4  1  0
  3 22  1  0
  3 23  1  0
  4  5  1  0
  4 17  1  0
  4 24  1  1
  5  6  1  0
  5 25  1  0
  5 26  1  0
  6  7  1  0
  6 27  1  0
  6 28  1  0
  7  8  1  0
  7 16  1  0
  8  9  2  0
 10  8  1  1
 10 11  1  0
 10 12  1  0
 10 15  1  0
 11 29  1  0
 11 30  1  0
 11 31  1  0
 12 13  1  0
 12 32  1  0
 12 33  1  0
 13 14  1  0
 13 34  1  0
 13 35  1  0
 14 15  1  0
 14 36  1  0
 14 37  1  0
 15 38  1  0
 15 39  1  0
 16 17  1  0
 16 40  1  0
 16 41  1  0
 17 42  1  0
 17 43  1  0
M  END

