
     RDKit          3D

 68 70  0  0  0  0  0  0  0  0999 V2000
    0.3591  -11.1899   10.9858 C   0  0  0  0  0  0  0  0  0  0  0  0
    1.2442  -12.1262   10.1482 C   0  0  0  0  0  0  0  0  0  0  0  0
    1.3108  -11.7452    8.6848 C   0  0  0  0  0  0  0  0  0  0  0  0
    2.2755  -10.8462    8.2057 C   0  0  0  0  0  0  0  0  0  0  0  0
    2.3322  -10.4493    6.8685 C   0  0  0  0  0  0  0  0  0  0  0  0
    1.3959  -10.9590    5.9511 C   0  0  0  0  0  0  0  0  0  0  0  0
    1.3779  -10.6266    4.5846 N   0  0  0  0  0  0  0  0  0  0  0  0
    2.2141   -9.7572    3.8956 C   0  0  0  0  0  0  0  0  0  0  0  0
    3.1092   -9.1096    4.4148 O   0  0  0  0  0  0  0  0  0  0  0  0
    1.9364   -9.6767    2.5480 N   0  0  0  0  0  0  0  0  0  0  0  0
    2.7339   -8.8365    1.6697 C   0  0  0  0  0  0  0  0  0  0  0  0
    4.0807   -9.4568    1.2365 C   0  0  1  0  0  0  0  0  0  0  0  0
    4.6242   -9.6580    2.1739 H   0  0  0  0  0  0  0  0  0  0  0  0
    3.9276  -10.7859    0.4718 C   0  0  0  0  0  0  0  0  0  0  0  0
    3.4174  -10.5993   -0.9638 C   0  0  0  0  0  0  0  0  0  0  0  0
    4.2916   -9.6109   -1.7458 C   0  0  0  0  0  0  0  0  0  0  0  0
    4.4101   -8.2576   -1.0271 C   0  0  2  0  0  0  0  0  0  0  0  0
    3.4075   -7.7958   -0.9896 H   0  0  0  0  0  0  0  0  0  0  0  0
    5.3130   -7.2610   -1.7754 C   0  0  0  0  0  0  0  0  0  0  0  0
    4.8866   -6.9330   -3.1255 N   0  0  0  0  0  0  0  0  0  0  0  0
    3.8961   -5.9984   -3.3461 C   0  0  0  0  0  0  0  0  0  0  0  0
    3.3840   -5.3643   -2.4374 O   0  0  0  0  0  0  0  0  0  0  0  0
    3.5658   -5.8499   -4.6867 N   0  0  0  0  0  0  0  0  0  0  0  0
    2.6002   -5.0049   -5.2633 C   0  0  0  0  0  0  0  0  0  0  0  0
    1.7883   -4.1251   -4.5252 C   0  0  0  0  0  0  0  0  0  0  0  0
    0.8533   -3.3282   -5.1886 C   0  0  0  0  0  0  0  0  0  0  0  0
    0.6846   -3.3650   -6.5809 C   0  0  0  0  0  0  0  0  0  0  0  0
   -0.3047   -2.4580   -7.2809 C   0  0  0  0  0  0  0  0  0  0  0  0
    0.2891   -1.0988   -7.6832 C   0  0  0  0  0  0  0  0  0  0  0  0
    1.5018   -4.2489   -7.3018 C   0  0  0  0  0  0  0  0  0  0  0  0
    2.4406   -5.0548   -6.6603 C   0  0  0  0  0  0  0  0  0  0  0  0
    4.9174   -8.4581    0.4123 C   0  0  0  0  0  0  0  0  0  0  0  0
    0.4228  -11.8624    6.4167 C   0  0  0  0  0  0  0  0  0  0  0  0
    0.3845  -12.2442    7.7567 C   0  0  0  0  0  0  0  0  0  0  0  0
    0.3405  -11.4997   12.0436 H   0  0  0  0  0  0  0  0  0  0  0  0
   -0.6786  -11.1871   10.6147 H   0  0  0  0  0  0  0  0  0  0  0  0
    0.7271  -10.1522   10.9423 H   0  0  0  0  0  0  0  0  0  0  0  0
    0.8674  -13.1593   10.2408 H   0  0  0  0  0  0  0  0  0  0  0  0
    2.2639  -12.1325   10.5697 H   0  0  0  0  0  0  0  0  0  0  0  0
    3.0179  -10.4394    8.8996 H   0  0  0  0  0  0  0  0  0  0  0  0
    3.0902   -9.7513    6.5212 H   0  0  0  0  0  0  0  0  0  0  0  0
    0.6365  -11.0687    4.0552 H   0  0  0  0  0  0  0  0  0  0  0  0
    1.2484  -10.2915    2.1334 H   0  0  0  0  0  0  0  0  0  0  0  0
    2.9421   -7.8983    2.2056 H   0  0  0  0  0  0  0  0  0  0  0  0
    2.1099   -8.5804    0.7993 H   0  0  0  0  0  0  0  0  0  0  0  0
    3.2681  -11.4693    1.0332 H   0  0  0  0  0  0  0  0  0  0  0  0
    4.9137  -11.2828    0.4351 H   0  0  0  0  0  0  0  0  0  0  0  0
    2.3761  -10.2284   -0.9531 H   0  0  0  0  0  0  0  0  0  0  0  0
    3.3859  -11.5727   -1.4819 H   0  0  0  0  0  0  0  0  0  0  0  0
    3.8851   -9.4675   -2.7613 H   0  0  0  0  0  0  0  0  0  0  0  0
    5.3046  -10.0425   -1.8686 H   0  0  0  0  0  0  0  0  0  0  0  0
    6.3414   -7.6582   -1.8332 H   0  0  0  0  0  0  0  0  0  0  0  0
    5.3548   -6.3209   -1.2057 H   0  0  0  0  0  0  0  0  0  0  0  0
    5.1760   -7.5444   -3.8782 H   0  0  0  0  0  0  0  0  0  0  0  0
    4.1040   -6.3881   -5.3546 H   0  0  0  0  0  0  0  0  0  0  0  0
    1.9008   -4.0790   -3.4447 H   0  0  0  0  0  0  0  0  0  0  0  0
    0.2303   -2.6538   -4.5928 H   0  0  0  0  0  0  0  0  0  0  0  0
   -1.1752   -2.2920   -6.6237 H   0  0  0  0  0  0  0  0  0  0  0  0
   -0.6916   -2.9649   -8.1815 H   0  0  0  0  0  0  0  0  0  0  0  0
    0.6548   -0.5489   -6.8011 H   0  0  0  0  0  0  0  0  0  0  0  0
   -0.4620   -0.4697   -8.1883 H   0  0  0  0  0  0  0  0  0  0  0  0
    1.1424   -1.2255   -8.3690 H   0  0  0  0  0  0  0  0  0  0  0  0
    1.4009   -4.3150   -8.3894 H   0  0  0  0  0  0  0  0  0  0  0  0
    3.0583   -5.7389   -7.2515 H   0  0  0  0  0  0  0  0  0  0  0  0
    4.9614   -7.4864    0.9343 H   0  0  0  0  0  0  0  0  0  0  0  0
    5.9587   -8.8287    0.3680 H   0  0  0  0  0  0  0  0  0  0  0  0
   -0.3118  -12.2751    5.7173 H   0  0  0  0  0  0  0  0  0  0  0  0
   -0.3832  -12.9519    8.0844 H   0  0  0  0  0  0  0  0  0  0  0  0
  1  2  1  0
  1 35  1  0
  1 36  1  0
  1 37  1  0
  2  3  1  0
  2 38  1  0
  2 39  1  0
  3  4  2  0
  3 34  1  0
  4  5  1  0
  4 40  1  0
  5  6  2  0
  5 41  1  0
  6  7  1  0
  6 33  1  0
  7  8  1  0
  7 42  1  0
  8  9  2  0
  8 10  1  0
 10 11  1  0
 10 43  1  0
 11 12  1  0
 11 44  1  0
 11 45  1  0
 12 13  1  1
 12 14  1  0
 12 32  1  0
 14 15  1  0
 14 46  1  0
 14 47  1  0
 15 16  1  0
 15 48  1  0
 15 49  1  0
 16 17  1  0
 16 50  1  0
 16 51  1  0
 17 18  1  1
 17 19  1  0
 17 32  1  0
 19 20  1  0
 19 52  1  0
 19 53  1  0
 20 21  1  0
 20 54  1  0
 21 22  2  0
 21 23  1  0
 23 24  1  0
 23 55  1  0
 24 25  2  0
 24 31  1  0
 25 26  1  0
 25 56  1  0
 26 27  2  0
 26 57  1  0
 27 28  1  0
 27 30  1  0
 28 29  1  0
 28 58  1  0
 28 59  1  0
 29 60  1  0
 29 61  1  0
 29 62  1  0
 30 31  2  0
 30 63  1  0
 31 64  1  0
 32 65  1  0
 32 66  1  0
 33 34  2  0
 33 67  1  0
 34 68  1  0
M  END

