
     RDKit          3D

  8  7  0  0  0  0  0  0  0  0999 V2000
    2.8488    0.4115    1.0505 O   0  0  0  0  0  0  0  0  0  0  0  0
    2.3399   -0.0484    0.0722 C   0  0  0  0  0  0  0  0  0  0  0  0
    0.6102   -0.2248   -0.1805 Cl  0  0  0  0  0  0  0  0  0  0  0  0
    3.0177   -0.6115   -1.0049 N   0  0  0  0  0  0  0  0  0  0  0  0
    4.2404   -0.6821   -1.1995 N   0  0  0  0  0  0  0  0  0  0  0  0
    4.9191   -1.2562   -2.2697 C   0  0  0  0  0  0  0  0  0  0  0  0
    4.4118   -1.7507   -3.2319 O   0  0  0  0  0  0  0  0  0  0  0  0
    6.6488   -1.1359   -1.9863 Cl  0  0  0  0  0  0  0  0  0  0  0  0
  1  2  2  0
  2  3  1  0
  2  4  1  0
  4  5  2  0
  5  6  1  0
  6  7  2  0
  6  8  1  0
M  END

