
     RDKit          3D

 34 35  0  0  0  0  0  0  0  0999 V2000
    3.2091    1.2662   -0.0828 C   0  0  0  0  0  0  0  0  0  0  0  0
    2.7792   -0.0024    0.3775 O   0  0  0  0  0  0  0  0  0  0  0  0
    3.3931   -1.1365   -0.0628 C   0  0  0  0  0  0  0  0  0  0  0  0
    4.5510   -1.0914   -0.9224 C   0  0  0  0  0  0  0  0  0  0  0  0
    4.9127   -2.2735   -1.5952 C   0  0  0  0  0  0  0  0  0  0  0  0
    4.2644   -3.5161   -1.3721 C   0  0  0  0  0  0  0  0  0  0  0  0
    4.6835   -4.7431   -2.1252 C   0  0  0  0  0  0  0  0  0  0  0  0
    3.6668   -5.1638   -3.2313 C   0  0  0  0  0  0  0  0  0  0  0  0
    4.0709   -6.4107   -3.9425 C   0  0  0  0  0  0  0  0  0  0  0  0
    4.9542   -6.5101   -4.9269 N   0  0  0  0  0  0  0  0  0  0  0  0
    5.0158   -7.8521   -5.1632 C   0  0  0  0  0  0  0  0  0  0  0  0
    5.8670   -8.3889   -6.1035 N   0  0  0  0  0  0  0  0  0  0  0  0
    4.2264   -8.5958   -4.3942 N   0  0  0  0  0  0  0  0  0  0  0  0
    3.6406   -7.6507   -3.6114 N   0  0  0  0  0  0  0  0  0  0  0  0
    2.9577   -7.9198   -2.9137 H   0  0  0  0  0  0  0  0  0  0  0  0
    3.2048   -3.5920   -0.4305 C   0  0  0  0  0  0  0  0  0  0  0  0
    2.7510   -2.3797    0.1992 C   0  0  0  0  0  0  0  0  0  0  0  0
    1.6275   -2.5487    0.9325 O   0  0  0  0  0  0  0  0  0  0  0  0
    1.1210   -1.5906    1.8452 C   0  0  0  0  0  0  0  0  0  0  0  0
    2.4995    1.9983    0.3258 H   0  0  0  0  0  0  0  0  0  0  0  0
    3.2068    1.3212   -1.1837 H   0  0  0  0  0  0  0  0  0  0  0  0
    4.2216    1.5055    0.2852 H   0  0  0  0  0  0  0  0  0  0  0  0
    5.1887   -0.2085   -0.9700 H   0  0  0  0  0  0  0  0  0  0  0  0
    5.7435   -2.2435   -2.3084 H   0  0  0  0  0  0  0  0  0  0  0  0
    4.7794   -5.5917   -1.4210 H   0  0  0  0  0  0  0  0  0  0  0  0
    5.6666   -4.5990   -2.5991 H   0  0  0  0  0  0  0  0  0  0  0  0
    3.5869   -4.3524   -3.9693 H   0  0  0  0  0  0  0  0  0  0  0  0
    2.6724   -5.2892   -2.7731 H   0  0  0  0  0  0  0  0  0  0  0  0
    6.1277   -7.7469   -6.8429 H   0  0  0  0  0  0  0  0  0  0  0  0
    5.6212   -9.3185   -6.4238 H   0  0  0  0  0  0  0  0  0  0  0  0
    2.8498   -4.5476   -0.0339 H   0  0  0  0  0  0  0  0  0  0  0  0
    0.3837   -2.1236    2.4617 H   0  0  0  0  0  0  0  0  0  0  0  0
    0.6324   -0.7558    1.3200 H   0  0  0  0  0  0  0  0  0  0  0  0
    1.9226   -1.1807    2.4802 H   0  0  0  0  0  0  0  0  0  0  0  0
  1  2  1  0
  1 20  1  0
  1 21  1  0
  1 22  1  0
  2  3  1  0
  3  4  2  0
  3 17  1  0
  4  5  1  0
  4 23  1  0
  5  6  2  0
  5 24  1  0
  6  7  1  0
  6 16  1  0
  7  8  1  0
  7 25  1  0
  7 26  1  0
  8  9  1  0
  8 27  1  0
  8 28  1  0
  9 10  2  0
  9 14  1  0
 10 11  1  0
 11 12  1  0
 11 13  2  0
 12 29  1  0
 12 30  1  0
 13 14  1  0
 14 15  1  0
 16 17  2  0
 16 31  1  0
 17 18  1  0
 18 19  1  0
 19 32  1  0
 19 33  1  0
 19 34  1  0
M  END

