
     RDKit          3D

 47 52  0  0  0  0  0  0  0  0999 V2000
    1.0659    0.1692   -0.0580 O   0  0  0  0  0  0  0  0  0  0  0  0
    2.2746    0.1007   -0.0508 C   0  0  0  0  0  0  0  0  0  0  0  0
    3.1779   -0.0036    1.1730 C   0  0  1  0  0  0  0  0  0  0  0  0
    3.0200    0.8963    1.7863 H   0  0  0  0  0  0  0  0  0  0  0  0
    2.8799   -1.2677    2.0516 C   0  0  1  0  0  0  0  0  0  0  0  0
    3.1067   -2.4853    1.1708 C   0  0  0  0  0  0  0  0  0  0  0  0
    2.1645   -3.4593    0.8411 C   0  0  0  0  0  0  0  0  0  0  0  0
    2.5344   -4.5190    0.0018 C   0  0  0  0  0  0  0  0  0  0  0  0
    3.8329   -4.5934   -0.5109 C   0  0  0  0  0  0  0  0  0  0  0  0
    4.7780   -3.6097   -0.1897 C   0  0  0  0  0  0  0  0  0  0  0  0
    4.4155   -2.5610    0.6552 C   0  0  0  0  0  0  0  0  0  0  0  0
    5.3004   -1.4072    1.0974 C   0  0  2  0  0  0  0  0  0  0  0  0
    5.2588   -1.3485    2.6162 C   0  0  0  0  0  0  0  0  0  0  0  0
    6.3533   -1.3538    3.4793 C   0  0  0  0  0  0  0  0  0  0  0  0
    6.1410   -1.2883    4.8639 C   0  0  0  0  0  0  0  0  0  0  0  0
    4.8429   -1.2135    5.3755 C   0  0  0  0  0  0  0  0  0  0  0  0
    3.7406   -1.2034    4.5087 C   0  0  0  0  0  0  0  0  0  0  0  0
    3.9494   -1.2731    3.1324 C   0  0  0  0  0  0  0  0  0  0  0  0
    4.6115   -0.0882    0.6048 C   0  0  1  0  0  0  0  0  0  0  0  0
    5.2337    0.7686    0.9046 H   0  0  0  0  0  0  0  0  0  0  0  0
    4.4419   -0.0409   -0.9109 C   0  0  0  0  0  0  0  0  0  0  0  0
    5.3094   -0.1279   -1.7442 O   0  0  0  0  0  0  0  0  0  0  0  0
    3.0777    0.1052   -1.1887 N   0  0  0  0  0  0  0  0  0  0  0  0
    2.5370    0.1468   -2.5480 C   0  0  0  0  0  0  0  0  0  0  0  0
    2.3445    1.5530   -3.0888 C   0  0  0  0  0  0  0  0  0  0  0  0
    1.3606    2.3839   -2.5219 C   0  0  0  0  0  0  0  0  0  0  0  0
    1.1490    3.6843   -2.9792 C   0  0  0  0  0  0  0  0  0  0  0  0
    1.9213    4.1840   -4.0321 C   0  0  0  0  0  0  0  0  0  0  0  0
    2.8944    3.3787   -4.6227 C   0  0  0  0  0  0  0  0  0  0  0  0
    3.1011    2.0755   -4.1535 C   0  0  0  0  0  0  0  0  0  0  0  0
    4.3265    1.1128   -4.9578 Cl  0  0  0  0  0  0  0  0  0  0  0  0
    1.8607   -1.2232    2.4569 H   0  0  0  0  0  0  0  0  0  0  0  0
    1.1466   -3.3950    1.2347 H   0  0  0  0  0  0  0  0  0  0  0  0
    1.8023   -5.2890   -0.2543 H   0  0  0  0  0  0  0  0  0  0  0  0
    4.1134   -5.4212   -1.1670 H   0  0  0  0  0  0  0  0  0  0  0  0
    5.7909   -3.6616   -0.5977 H   0  0  0  0  0  0  0  0  0  0  0  0
    6.3203   -1.4802    0.6982 H   0  0  0  0  0  0  0  0  0  0  0  0
    7.3696   -1.4120    3.0795 H   0  0  0  0  0  0  0  0  0  0  0  0
    6.9958   -1.2978    5.5449 H   0  0  0  0  0  0  0  0  0  0  0  0
    4.6843   -1.1650    6.4558 H   0  0  0  0  0  0  0  0  0  0  0  0
    2.7247   -1.1453    4.9094 H   0  0  0  0  0  0  0  0  0  0  0  0
    1.5664   -0.3688   -2.5124 H   0  0  0  0  0  0  0  0  0  0  0  0
    3.2261   -0.4188   -3.1855 H   0  0  0  0  0  0  0  0  0  0  0  0
    0.7546    1.9829   -1.7060 H   0  0  0  0  0  0  0  0  0  0  0  0
    0.3772    4.3049   -2.5178 H   0  0  0  0  0  0  0  0  0  0  0  0
    1.7647    5.2005   -4.4015 H   0  0  0  0  0  0  0  0  0  0  0  0
    3.5020    3.7475   -5.4506 H   0  0  0  0  0  0  0  0  0  0  0  0
  1  2  2  0
  2  3  1  0
  2 23  1  0
  3  4  1  1
  3  5  1  0
  3 19  1  0
  5  6  1  0
  5 18  1  0
  5 32  1  1
  6  7  1  0
  6 11  2  0
  7  8  2  0
  7 33  1  0
  8  9  1  0
  8 34  1  0
  9 10  2  0
  9 35  1  0
 10 11  1  0
 10 36  1  0
 11 12  1  0
 12 13  1  0
 12 19  1  0
 12 37  1  1
 13 14  2  0
 13 18  1  0
 14 15  1  0
 14 38  1  0
 15 16  2  0
 15 39  1  0
 16 17  1  0
 16 40  1  0
 17 18  2  0
 17 41  1  0
 19 20  1  1
 19 21  1  0
 21 22  2  0
 21 23  1  0
 23 24  1  0
 24 25  1  0
 24 42  1  0
 24 43  1  0
 25 26  2  0
 25 30  1  0
 26 27  1  0
 26 44  1  0
 27 28  2  0
 27 45  1  0
 28 29  1  0
 28 46  1  0
 29 30  2  0
 29 47  1  0
 30 31  1  0
M  END

