
     RDKit          3D

 71 75  0  0  0  0  0  0  0  0999 V2000
    8.1093    5.9486    0.2562 C   0  0  0  0  0  0  0  0  0  0  0  0
    8.9905    4.7790    0.6125 C   0  0  0  0  0  0  0  0  0  0  0  0
    9.8781    4.3569   -0.0875 O   0  0  0  0  0  0  0  0  0  0  0  0
    8.7667    4.1444    1.8721 N   0  0  0  0  0  0  0  0  0  0  0  0
    7.7469    4.4776    2.7740 C   0  0  0  0  0  0  0  0  0  0  0  0
    6.6575    3.2898    2.7987 C   0  0  0  0  0  0  0  0  0  0  0  0
    5.5375    3.6880    3.0305 O   0  0  0  0  0  0  0  0  0  0  0  0
    7.1145    2.0605    2.5961 N   0  0  0  0  0  0  0  0  0  0  0  0
    6.1605    0.9409    2.4891 C   0  0  0  0  0  0  0  0  0  0  0  0
    5.7317    0.3199    3.6298 C   0  0  0  0  0  0  0  0  0  0  0  0
    4.8433   -0.8154    3.4938 C   0  0  0  0  0  0  0  0  0  0  0  0
    4.4200   -1.5650    4.6000 C   0  0  0  0  0  0  0  0  0  0  0  0
    4.0945   -2.2110    5.5259 N   0  0  0  0  0  0  0  0  0  0  0  0
    4.4725   -1.1371    2.1340 C   0  0  0  0  0  0  0  0  0  0  0  0
    4.9919   -0.4137    1.0826 C   0  0  0  0  0  0  0  0  0  0  0  0
    5.8699    0.6274    1.2113 N   0  0  0  0  0  0  0  0  0  0  0  0
    8.4906    1.7214    2.1882 C   0  0  2  0  0  0  0  0  0  0  0  0
    8.4144    1.3378    1.1650 H   0  0  0  0  0  0  0  0  0  0  0  0
    9.0374    0.6864    3.2248 C   0  0  0  0  0  0  0  0  0  0  0  0
    9.2627    1.1085    4.3458 O   0  0  0  0  0  0  0  0  0  0  0  0
    9.2397   -0.6098    2.8352 N   0  0  0  0  0  0  0  0  0  0  0  0
    9.6571   -1.5498    3.8535 C   0  0  0  0  0  0  0  0  0  0  0  0
    8.8478   -1.7526    4.9797 C   0  0  0  0  0  0  0  0  0  0  0  0
    9.2434   -2.6598    5.9629 C   0  0  0  0  0  0  0  0  0  0  0  0
   10.4365   -3.3776    5.8358 C   0  0  0  0  0  0  0  0  0  0  0  0
   11.2160   -3.1683    4.7028 C   0  0  0  0  0  0  0  0  0  0  0  0
   12.3601   -3.8514    4.5576 F   0  0  0  0  0  0  0  0  0  0  0  0
   10.8506   -2.2653    3.7063 C   0  0  0  0  0  0  0  0  0  0  0  0
    9.0224   -1.0610    1.4375 C   0  0  2  0  0  0  0  0  0  0  0  0
    8.0778   -0.6186    1.0876 H   0  0  0  0  0  0  0  0  0  0  0  0
    8.7994   -2.6047    1.3880 C   0  0  0  0  0  0  0  0  0  0  0  0
    9.6771   -3.3640    1.0228 O   0  0  0  0  0  0  0  0  0  0  0  0
    7.5627   -2.9907    1.7932 N   0  0  0  0  0  0  0  0  0  0  0  0
    7.1507   -4.3731    1.8220 C   0  0  1  0  0  0  0  0  0  0  0  0
    6.2598   -4.8367    3.0110 C   0  0  0  0  0  0  0  0  0  0  0  0
    5.3689   -5.5628    1.9949 C   0  0  2  0  0  0  0  0  0  0  0  0
    4.0322   -5.3817    2.1270 F   0  0  0  0  0  0  0  0  0  0  0  0
    5.5893   -6.9072    1.9626 F   0  0  0  0  0  0  0  0  0  0  0  0
    6.0370   -4.8256    0.8277 C   0  0  0  0  0  0  0  0  0  0  0  0
   10.1280   -0.6363    0.4789 C   0  0  0  0  0  0  0  0  0  0  0  0
   11.3640   -0.1424    0.9220 C   0  0  0  0  0  0  0  0  0  0  0  0
   12.3666    0.2414    0.0265 C   0  0  0  0  0  0  0  0  0  0  0  0
   12.1458    0.1443   -1.3482 C   0  0  0  0  0  0  0  0  0  0  0  0
   10.9210   -0.3309   -1.8196 C   0  0  0  0  0  0  0  0  0  0  0  0
    9.9292   -0.7117   -0.9128 C   0  0  0  0  0  0  0  0  0  0  0  0
    8.4024   -1.2823   -1.5560 Cl  0  0  0  0  0  0  0  0  0  0  0  0
    9.4634    2.9162    2.2152 C   0  0  0  0  0  0  0  0  0  0  0  0
    8.4271    6.3148   -0.7265 H   0  0  0  0  0  0  0  0  0  0  0  0
    8.2020    6.7642    0.9902 H   0  0  0  0  0  0  0  0  0  0  0  0
    7.0504    5.6511    0.2042 H   0  0  0  0  0  0  0  0  0  0  0  0
    7.2184    5.4022    2.5367 H   0  0  0  0  0  0  0  0  0  0  0  0
    8.1095    4.4920    3.8151 H   0  0  0  0  0  0  0  0  0  0  0  0
    6.0445    0.6684    4.6137 H   0  0  0  0  0  0  0  0  0  0  0  0
    3.7775   -1.9573    1.9427 H   0  0  0  0  0  0  0  0  0  0  0  0
    4.7088   -0.6693    0.0563 H   0  0  0  0  0  0  0  0  0  0  0  0
    7.9112   -1.2064    5.0808 H   0  0  0  0  0  0  0  0  0  0  0  0
    8.6064   -2.8161    6.8361 H   0  0  0  0  0  0  0  0  0  0  0  0
   10.7631   -4.0965    6.5893 H   0  0  0  0  0  0  0  0  0  0  0  0
   11.4832   -2.1673    2.8263 H   0  0  0  0  0  0  0  0  0  0  0  0
    6.8581   -2.2848    1.9953 H   0  0  0  0  0  0  0  0  0  0  0  0
    8.0589   -4.9785    1.7139 H   0  0  0  0  0  0  0  0  0  0  0  0
    5.7174   -4.0136    3.4977 H   0  0  0  0  0  0  0  0  0  0  0  0
    6.7285   -5.4715    3.7754 H   0  0  0  0  0  0  0  0  0  0  0  0
    5.4181   -3.9842    0.4866 H   0  0  0  0  0  0  0  0  0  0  0  0
    6.3391   -5.4467   -0.0270 H   0  0  0  0  0  0  0  0  0  0  0  0
   11.5521   -0.0655    1.9942 H   0  0  0  0  0  0  0  0  0  0  0  0
   13.3216    0.6103    0.4076 H   0  0  0  0  0  0  0  0  0  0  0  0
   12.9224    0.4386   -2.0580 H   0  0  0  0  0  0  0  0  0  0  0  0
   10.7219   -0.4105   -2.8894 H   0  0  0  0  0  0  0  0  0  0  0  0
   10.2799    2.7541    1.5043 H   0  0  0  0  0  0  0  0  0  0  0  0
    9.8582    3.0218    3.2370 H   0  0  0  0  0  0  0  0  0  0  0  0
  1  2  1  0
  1 48  1  0
  1 49  1  0
  1 50  1  0
  2  3  2  0
  2  4  1  0
  4  5  1  0
  4 47  1  0
  5  6  1  0
  5 51  1  0
  5 52  1  0
  6  7  2  0
  6  8  1  0
  8  9  1  0
  8 17  1  0
  9 10  2  0
  9 16  1  0
 10 11  1  0
 10 53  1  0
 11 12  1  0
 11 14  2  0
 12 13  3  0
 14 15  1  0
 14 54  1  0
 15 16  2  0
 15 55  1  0
 17 18  1  6
 17 19  1  0
 17 47  1  0
 19 20  2  0
 19 21  1  0
 21 22  1  0
 21 29  1  0
 22 23  2  0
 22 28  1  0
 23 24  1  0
 23 56  1  0
 24 25  2  0
 24 57  1  0
 25 26  1  0
 25 58  1  0
 26 27  1  0
 26 28  2  0
 28 59  1  0
 29 30  1  6
 29 31  1  0
 29 40  1  0
 31 32  2  0
 31 33  1  0
 33 34  1  0
 33 60  1  0
 34 35  1  0
 34 39  1  0
 34 61  1  1
 35 36  1  0
 35 62  1  0
 35 63  1  0
 36 37  1  6
 36 38  1  0
 36 39  1  0
 39 64  1  0
 39 65  1  0
 40 41  2  0
 40 45  1  0
 41 42  1  0
 41 66  1  0
 42 43  2  0
 42 67  1  0
 43 44  1  0
 43 68  1  0
 44 45  2  0
 44 69  1  0
 45 46  1  0
 47 70  1  0
 47 71  1  0
M  END

