
     RDKit          3D

 76 84  0  0  0  0  0  0  0  0999 V2000
    5.1067   -1.8838   -1.2631 C   0  0  0  0  0  0  0  0  0  0  0  0
    6.3724   -1.2962   -1.3330 C   0  0  0  0  0  0  0  0  0  0  0  0
    7.1037   -1.0363   -0.1719 C   0  0  0  0  0  0  0  0  0  0  0  0
    6.5829   -1.3751    1.0903 C   0  0  0  0  0  0  0  0  0  0  0  0
    7.3342   -1.1435    2.2704 N   0  0  0  0  0  0  0  0  0  0  0  0
    6.7093   -0.6871    3.4621 C   0  0  0  0  0  0  0  0  0  0  0  0
    7.1913   -1.1168    4.7128 C   0  0  0  0  0  0  0  0  0  0  0  0
    6.6043   -0.6595    5.8930 C   0  0  0  0  0  0  0  0  0  0  0  0
    5.5190    0.2221    5.8531 C   0  0  0  0  0  0  0  0  0  0  0  0
    5.0339    0.6490    4.6130 C   0  0  0  0  0  0  0  0  0  0  0  0
    5.6244    0.2088    3.4269 C   0  0  0  0  0  0  0  0  0  0  0  0
    8.7592   -1.1272    2.2082 C   0  0  0  0  0  0  0  0  0  0  0  0
    9.4499    0.0433    2.4782 C   0  0  0  0  0  0  0  0  0  0  0  0
   10.8505    0.0896    2.4190 C   0  0  0  0  0  0  0  0  0  0  0  0
   11.6147   -1.0235    2.0712 C   0  0  0  0  0  0  0  0  0  0  0  0
   13.0883   -0.9704    2.0005 C   0  0  0  0  0  0  0  0  0  0  0  0
   13.8018    0.1750    2.3508 C   0  0  0  0  0  0  0  0  0  0  0  0
   15.2046    0.2247    2.2727 C   0  0  0  0  0  0  0  0  0  0  0  0
   15.9203   -0.8642    1.8212 C   0  0  0  0  0  0  0  0  0  0  0  0
   15.2500   -2.0572    1.4424 C   0  0  0  0  0  0  0  0  0  0  0  0
   15.9727   -3.2035    0.9700 C   0  0  0  0  0  0  0  0  0  0  0  0
   17.3892   -3.1599    0.8065 N   0  0  0  0  0  0  0  0  0  0  0  0
   18.1703   -4.1477    1.4646 C   0  0  0  0  0  0  0  0  0  0  0  0
   19.1957   -4.8412    0.7951 C   0  0  0  0  0  0  0  0  0  0  0  0
   19.9428   -5.8132    1.4634 C   0  0  0  0  0  0  0  0  0  0  0  0
   19.6751   -6.1254    2.7999 C   0  0  0  0  0  0  0  0  0  0  0  0
   18.6496   -5.4463    3.4659 C   0  0  0  0  0  0  0  0  0  0  0  0
   17.9077   -4.4628    2.8111 C   0  0  0  0  0  0  0  0  0  0  0  0
   17.9589   -2.3020   -0.1680 C   0  0  0  0  0  0  0  0  0  0  0  0
   17.2329   -1.9347   -1.3158 C   0  0  0  0  0  0  0  0  0  0  0  0
   17.7868   -1.0622   -2.2551 C   0  0  0  0  0  0  0  0  0  0  0  0
   19.0749   -0.5495   -2.0815 C   0  0  0  0  0  0  0  0  0  0  0  0
   19.8030   -0.9152   -0.9436 C   0  0  0  0  0  0  0  0  0  0  0  0
   19.2534   -1.7732    0.0087 C   0  0  0  0  0  0  0  0  0  0  0  0
   15.2805   -4.3701    0.6874 C   0  0  0  0  0  0  0  0  0  0  0  0
   13.8882   -4.4432    0.8402 C   0  0  0  0  0  0  0  0  0  0  0  0
   13.1311   -3.3517    1.2635 C   0  0  0  0  0  0  0  0  0  0  0  0
   11.6649   -3.4287    1.4171 C   0  0  0  0  0  0  0  0  0  0  0  0
   10.9647   -4.6177    1.2179 C   0  0  0  0  0  0  0  0  0  0  0  0
    9.5672   -4.6845    1.3556 C   0  0  0  0  0  0  0  0  0  0  0  0
    8.8397   -3.5568    1.6730 C   0  0  0  0  0  0  0  0  0  0  0  0
    9.4951   -2.3145    1.8800 C   0  0  0  0  0  0  0  0  0  0  0  0
   10.9304   -2.2502    1.7827 C   0  0  0  0  0  0  0  0  0  0  0  0
   13.8164   -2.1276    1.5609 C   0  0  0  0  0  0  0  0  0  0  0  0
    5.3106   -1.9783    1.1551 C   0  0  0  0  0  0  0  0  0  0  0  0
    4.5824   -2.2192   -0.0096 C   0  0  0  0  0  0  0  0  0  0  0  0
    4.5354   -2.0806   -2.1732 H   0  0  0  0  0  0  0  0  0  0  0  0
    6.7979   -1.0253   -2.3030 H   0  0  0  0  0  0  0  0  0  0  0  0
    8.0866   -0.5674   -0.2401 H   0  0  0  0  0  0  0  0  0  0  0  0
    8.0306   -1.8139    4.7510 H   0  0  0  0  0  0  0  0  0  0  0  0
    6.9934   -1.0063    6.8540 H   0  0  0  0  0  0  0  0  0  0  0  0
    5.0569    0.5734    6.7787 H   0  0  0  0  0  0  0  0  0  0  0  0
    4.1926    1.3456    4.5646 H   0  0  0  0  0  0  0  0  0  0  0  0
    5.2466    0.5614    2.4657 H   0  0  0  0  0  0  0  0  0  0  0  0
    8.8897    0.9449    2.7336 H   0  0  0  0  0  0  0  0  0  0  0  0
   11.3337    1.0426    2.6334 H   0  0  0  0  0  0  0  0  0  0  0  0
   13.2760    1.0609    2.7066 H   0  0  0  0  0  0  0  0  0  0  0  0
   15.7270    1.1362    2.5732 H   0  0  0  0  0  0  0  0  0  0  0  0
   17.0069   -0.8213    1.7606 H   0  0  0  0  0  0  0  0  0  0  0  0
   19.4039   -4.6173   -0.2526 H   0  0  0  0  0  0  0  0  0  0  0  0
   20.7345   -6.3420    0.9258 H   0  0  0  0  0  0  0  0  0  0  0  0
   20.2592   -6.8904    3.3168 H   0  0  0  0  0  0  0  0  0  0  0  0
   18.4300   -5.6751    4.5122 H   0  0  0  0  0  0  0  0  0  0  0  0
   17.1168   -3.9277    3.3404 H   0  0  0  0  0  0  0  0  0  0  0  0
   16.2294   -2.3350   -1.4692 H   0  0  0  0  0  0  0  0  0  0  0  0
   17.2033   -0.7896   -3.1386 H   0  0  0  0  0  0  0  0  0  0  0  0
   19.5067    0.1282   -2.8214 H   0  0  0  0  0  0  0  0  0  0  0  0
   20.8091   -0.5173   -0.7861 H   0  0  0  0  0  0  0  0  0  0  0  0
   19.8257   -2.0368    0.9000 H   0  0  0  0  0  0  0  0  0  0  0  0
   15.8322   -5.2438    0.3346 H   0  0  0  0  0  0  0  0  0  0  0  0
   13.4018   -5.3868    0.5936 H   0  0  0  0  0  0  0  0  0  0  0  0
   11.4989   -5.5317    0.9590 H   0  0  0  0  0  0  0  0  0  0  0  0
    9.0582   -5.6402    1.2080 H   0  0  0  0  0  0  0  0  0  0  0  0
    7.7568   -3.6113    1.7768 H   0  0  0  0  0  0  0  0  0  0  0  0
    4.8970   -2.2595    2.1252 H   0  0  0  0  0  0  0  0  0  0  0  0
    3.5972   -2.6875    0.0642 H   0  0  0  0  0  0  0  0  0  0  0  0
  1  2  2  0
  1 46  1  0
  1 47  1  0
  2  3  1  0
  2 48  1  0
  3  4  2  0
  3 49  1  0
  4  5  1  0
  4 45  1  0
  5  6  1  0
  5 12  1  0
  6  7  2  0
  6 11  1  0
  7  8  1  0
  7 50  1  0
  8  9  2  0
  8 51  1  0
  9 10  1  0
  9 52  1  0
 10 11  2  0
 10 53  1  0
 11 54  1  0
 12 13  2  0
 12 42  1  0
 13 14  1  0
 13 55  1  0
 14 15  2  0
 14 56  1  0
 15 16  1  0
 15 43  1  0
 16 17  2  0
 16 44  1  0
 17 18  1  0
 17 57  1  0
 18 19  2  0
 18 58  1  0
 19 20  1  0
 19 59  1  0
 20 21  1  0
 20 44  2  0
 21 22  1  0
 21 35  2  0
 22 23  1  0
 22 29  1  0
 23 24  2  0
 23 28  1  0
 24 25  1  0
 24 60  1  0
 25 26  2  0
 25 61  1  0
 26 27  1  0
 26 62  1  0
 27 28  2  0
 27 63  1  0
 28 64  1  0
 29 30  2  0
 29 34  1  0
 30 31  1  0
 30 65  1  0
 31 32  2  0
 31 66  1  0
 32 33  1  0
 32 67  1  0
 33 34  2  0
 33 68  1  0
 34 69  1  0
 35 36  1  0
 35 70  1  0
 36 37  2  0
 36 71  1  0
 37 38  1  0
 37 44  1  0
 38 39  1  0
 38 43  2  0
 39 40  2  0
 39 72  1  0
 40 41  1  0
 40 73  1  0
 41 42  2  0
 41 74  1  0
 42 43  1  0
 45 46  2  0
 45 75  1  0
 46 76  1  0
M  END

