
     RDKit          3D

 37 38  0  0  0  0  0  0  0  0999 V2000
    0.8873    1.4467   -0.0042 C   0  0  0  0  0  0  0  0  0  0  0  0
    2.0939    0.5330    0.0891 C   0  0  0  0  0  0  0  0  0  0  0  0
    3.1947    1.1609   -0.5524 O   0  0  0  0  0  0  0  0  0  0  0  0
    4.4248    0.4611   -0.5141 C   0  0  1  0  0  0  0  0  0  0  0  0
    4.5057   -0.6014   -1.6196 C   0  0  0  0  0  0  0  0  0  0  0  0
    4.4002    0.0412   -3.0085 C   0  0  0  0  0  0  0  0  0  0  0  0
    5.2687    1.1820   -3.1891 N   0  0  0  0  0  0  0  0  0  0  0  0
    5.7494    1.5163   -4.5241 C   0  0  0  0  0  0  0  0  0  0  0  0
    4.8980    2.2724   -5.3512 C   0  0  0  0  0  0  0  0  0  0  0  0
    5.4333    2.6327   -6.6258 C   0  0  0  0  0  0  0  0  0  0  0  0
    6.6918    2.2402   -7.0154 C   0  0  0  0  0  0  0  0  0  0  0  0
    7.5364    1.4258   -6.1800 C   0  0  0  0  0  0  0  0  0  0  0  0
    8.8412    1.0321   -6.6614 C   0  0  0  0  0  0  0  0  0  0  0  0
    9.3754    1.4458   -7.6824 O   0  0  0  0  0  0  0  0  0  0  0  0
    9.5379    0.1114   -5.8783 O   0  0  0  0  0  0  0  0  0  0  0  0
    7.0174    1.0954   -4.8765 C   0  0  0  0  0  0  0  0  0  0  0  0
    5.4216    2.1370   -2.1160 C   0  0  0  0  0  0  0  0  0  0  0  0
    5.5337    1.4887   -0.7308 C   0  0  0  0  0  0  0  0  0  0  0  0
    0.0228    0.9908    0.5022 H   0  0  0  0  0  0  0  0  0  0  0  0
    0.6144    1.6312   -1.0547 H   0  0  0  0  0  0  0  0  0  0  0  0
    1.0986    2.4164    0.4717 H   0  0  0  0  0  0  0  0  0  0  0  0
    1.8720   -0.4459   -0.3802 H   0  0  0  0  0  0  0  0  0  0  0  0
    2.3498    0.3313    1.1485 H   0  0  0  0  0  0  0  0  0  0  0  0
    4.5585   -0.0222    0.4726 H   0  0  0  0  0  0  0  0  0  0  0  0
    3.7016   -1.3456   -1.5216 H   0  0  0  0  0  0  0  0  0  0  0  0
    5.4568   -1.1510   -1.5314 H   0  0  0  0  0  0  0  0  0  0  0  0
    3.3690    0.4251   -3.1535 H   0  0  0  0  0  0  0  0  0  0  0  0
    4.5996   -0.6632   -3.8250 H   0  0  0  0  0  0  0  0  0  0  0  0
    3.9043    2.5843   -5.0325 H   0  0  0  0  0  0  0  0  0  0  0  0
    4.8216    3.2402   -7.2985 H   0  0  0  0  0  0  0  0  0  0  0  0
    7.0954    2.5309   -7.9871 H   0  0  0  0  0  0  0  0  0  0  0  0
    8.8994   -0.3869   -5.3535 H   0  0  0  0  0  0  0  0  0  0  0  0
    7.6393    0.5703   -4.1481 H   0  0  0  0  0  0  0  0  0  0  0  0
    4.5094    2.7695   -2.1411 H   0  0  0  0  0  0  0  0  0  0  0  0
    6.2729    2.7833   -2.3608 H   0  0  0  0  0  0  0  0  0  0  0  0
    5.4697    2.2805    0.0290 H   0  0  0  0  0  0  0  0  0  0  0  0
    6.5159    1.0021   -0.6237 H   0  0  0  0  0  0  0  0  0  0  0  0
  1  2  1  0
  1 19  1  0
  1 20  1  0
  1 21  1  0
  2  3  1  0
  2 22  1  0
  2 23  1  0
  3  4  1  0
  4  5  1  0
  4 18  1  0
  4 24  1  1
  5  6  1  0
  5 25  1  0
  5 26  1  0
  6  7  1  0
  6 27  1  0
  6 28  1  0
  7  8  1  0
  7 17  1  0
  8  9  2  0
  8 16  1  0
  9 10  1  0
  9 29  1  0
 10 11  2  0
 10 30  1  0
 11 12  1  0
 11 31  1  0
 12 13  1  0
 12 16  2  0
 13 14  2  0
 13 15  1  0
 15 32  1  0
 16 33  1  0
 17 18  1  0
 17 34  1  0
 17 35  1  0
 18 36  1  0
 18 37  1  0
M  END

