
     RDKit          3D

 62 65  0  0  0  0  0  0  0  0999 V2000
    1.5158    0.6710    0.4269 O   0  0  0  0  0  0  0  0  0  0  0  0
    2.0041   -0.4334    0.5056 C   0  0  0  0  0  0  0  0  0  0  0  0
    1.9230   -1.2774    1.6031 N   0  0  0  0  0  0  0  0  0  0  0  0
    1.2907   -1.0287    2.8126 C   0  0  0  0  0  0  0  0  0  0  0  0
    0.5216   -0.0257    3.0976 N   0  0  0  0  0  0  0  0  0  0  0  0
    0.0636   -0.1112    4.3874 C   0  0  0  0  0  0  0  0  0  0  0  0
    0.4792   -1.1941    5.1112 C   0  0  0  0  0  0  0  0  0  0  0  0
    1.5196   -2.1870    4.1353 S   0  0  0  0  0  0  0  0  0  0  0  0
    2.8600   -1.0524   -0.6298 C   0  0  1  0  0  0  0  0  0  0  0  0
    2.5220   -0.4431   -1.9918 C   0  0  0  0  0  0  0  0  0  0  0  0
    1.1430   -0.8874   -2.5305 C   0  0  1  0  0  0  0  0  0  0  0  0
    0.6390    0.0450   -3.6536 C   0  0  0  0  0  0  0  0  0  0  0  0
    1.3877   -0.1439   -4.9805 C   0  0  0  0  0  0  0  0  0  0  0  0
    1.3389   -1.6059   -5.4439 C   0  0  0  0  0  0  0  0  0  0  0  0
    1.8550   -2.5572   -4.3561 C   0  0  0  0  0  0  0  0  0  0  0  0
    1.1170   -2.3523   -3.0239 C   0  0  0  0  0  0  0  0  0  0  0  0
    4.2881   -0.9112   -0.2648 N   0  0  0  0  0  0  0  0  0  0  0  0
    4.9536    0.3698   -0.5435 C   0  0  0  0  0  0  0  0  0  0  0  0
    6.2690    0.5008    0.2239 C   0  0  0  0  0  0  0  0  0  0  0  0
    7.0664   -0.7244    0.1598 N   0  0  0  0  0  0  0  0  0  0  0  0
    7.5518   -1.0341   -1.1041 N   0  0  0  0  0  0  0  0  0  0  0  0
    8.8506   -0.6999   -1.4657 C   0  0  0  0  0  0  0  0  0  0  0  0
    9.8096   -0.2997   -0.5151 C   0  0  0  0  0  0  0  0  0  0  0  0
   11.1101   -0.0043   -0.9155 C   0  0  0  0  0  0  0  0  0  0  0  0
   11.4888   -0.0967   -2.2605 C   0  0  0  0  0  0  0  0  0  0  0  0
   12.9062    0.1755   -2.6778 C   0  0  1  0  0  0  0  0  0  0  0  0
   13.5210    1.0351   -1.8433 F   0  0  0  0  0  0  0  0  0  0  0  0
   13.6574   -0.9467   -2.6965 F   0  0  0  0  0  0  0  0  0  0  0  0
   12.9730    0.6990   -3.9178 F   0  0  0  0  0  0  0  0  0  0  0  0
   10.5350   -0.4910   -3.2090 C   0  0  0  0  0  0  0  0  0  0  0  0
    9.2329   -0.7858   -2.8210 C   0  0  0  0  0  0  0  0  0  0  0  0
    6.3463   -1.8206    0.7907 C   0  0  0  0  0  0  0  0  0  0  0  0
    4.8563   -1.9215    0.4602 C   0  0  0  0  0  0  0  0  0  0  0  0
    4.2082   -2.8845    0.8697 O   0  0  0  0  0  0  0  0  0  0  0  0
    2.4979   -2.1236    1.5373 H   0  0  0  0  0  0  0  0  0  0  0  0
   -0.5990    0.6674    4.7705 H   0  0  0  0  0  0  0  0  0  0  0  0
    0.2396   -1.4652    6.1374 H   0  0  0  0  0  0  0  0  0  0  0  0
    2.6764   -2.1347   -0.6493 H   0  0  0  0  0  0  0  0  0  0  0  0
    3.3186   -0.7175   -2.7014 H   0  0  0  0  0  0  0  0  0  0  0  0
    2.5222    0.6535   -1.9012 H   0  0  0  0  0  0  0  0  0  0  0  0
    0.4293   -0.7943   -1.6947 H   0  0  0  0  0  0  0  0  0  0  0  0
    0.6957    1.0948   -3.3204 H   0  0  0  0  0  0  0  0  0  0  0  0
   -0.4323   -0.1662   -3.8219 H   0  0  0  0  0  0  0  0  0  0  0  0
    2.4415    0.1715   -4.8690 H   0  0  0  0  0  0  0  0  0  0  0  0
    0.9555    0.5163   -5.7512 H   0  0  0  0  0  0  0  0  0  0  0  0
    1.9161   -1.7369   -6.3748 H   0  0  0  0  0  0  0  0  0  0  0  0
    0.2932   -1.8710   -5.6878 H   0  0  0  0  0  0  0  0  0  0  0  0
    2.9398   -2.3948   -4.2165 H   0  0  0  0  0  0  0  0  0  0  0  0
    1.7491   -3.6056   -4.6818 H   0  0  0  0  0  0  0  0  0  0  0  0
    1.5245   -3.0336   -2.2574 H   0  0  0  0  0  0  0  0  0  0  0  0
    0.0615   -2.6504   -3.1556 H   0  0  0  0  0  0  0  0  0  0  0  0
    4.2737    1.1915   -0.2641 H   0  0  0  0  0  0  0  0  0  0  0  0
    5.1337    0.4673   -1.6281 H   0  0  0  0  0  0  0  0  0  0  0  0
    6.0704    0.7088    1.2883 H   0  0  0  0  0  0  0  0  0  0  0  0
    6.8533    1.3446   -0.1721 H   0  0  0  0  0  0  0  0  0  0  0  0
    6.8812   -1.1429   -1.8643 H   0  0  0  0  0  0  0  0  0  0  0  0
    9.5176   -0.2270    0.5321 H   0  0  0  0  0  0  0  0  0  0  0  0
   11.8423    0.3109   -0.1693 H   0  0  0  0  0  0  0  0  0  0  0  0
   10.8119   -0.5566   -4.2632 H   0  0  0  0  0  0  0  0  0  0  0  0
    8.4975   -1.0864   -3.5729 H   0  0  0  0  0  0  0  0  0  0  0  0
    6.4148   -1.7310    1.8894 H   0  0  0  0  0  0  0  0  0  0  0  0
    6.8132   -2.7776    0.5210 H   0  0  0  0  0  0  0  0  0  0  0  0
  1  2  2  0
  2  3  1  0
  2  9  1  0
  3  4  1  0
  3 35  1  0
  4  5  2  0
  4  8  1  0
  5  6  1  0
  6  7  2  0
  6 36  1  0
  7  8  1  0
  7 37  1  0
  9 10  1  0
  9 17  1  0
  9 38  1  6
 10 11  1  0
 10 39  1  0
 10 40  1  0
 11 12  1  0
 11 16  1  0
 11 41  1  1
 12 13  1  0
 12 42  1  0
 12 43  1  0
 13 14  1  0
 13 44  1  0
 13 45  1  0
 14 15  1  0
 14 46  1  0
 14 47  1  0
 15 16  1  0
 15 48  1  0
 15 49  1  0
 16 50  1  0
 16 51  1  0
 17 18  1  0
 17 33  1  0
 18 19  1  0
 18 52  1  0
 18 53  1  0
 19 20  1  0
 19 54  1  0
 19 55  1  0
 20 21  1  0
 20 32  1  0
 21 22  1  0
 21 56  1  0
 22 23  2  0
 22 31  1  0
 23 24  1  0
 23 57  1  0
 24 25  2  0
 24 58  1  0
 25 26  1  0
 25 30  1  0
 26 27  1  1
 26 28  1  0
 26 29  1  0
 30 31  2  0
 30 59  1  0
 31 60  1  0
 32 33  1  0
 32 61  1  0
 32 62  1  0
 33 34  2  0
M  END

