
     RDKit          3D

 44 47  0  0  0  0  0  0  0  0999 V2000
   -0.5489   -1.1996    1.2867 C   0  0  0  0  0  0  0  0  0  0  0  0
    0.8334   -1.5635    1.5484 N   0  0  0  0  0  0  0  0  0  0  0  0
    1.7952   -0.9784    0.6161 C   0  0  0  0  0  0  0  0  0  0  0  0
    1.6997   -1.5330   -0.8223 C   0  0  0  0  0  0  0  0  0  0  0  0
    1.5395   -3.0274   -0.7851 C   0  0  0  0  0  0  0  0  0  0  0  0
    1.7027   -3.8075   -1.9071 N   0  0  0  0  0  0  0  0  0  0  0  0
    1.5180   -5.0579   -1.6372 C   0  0  0  0  0  0  0  0  0  0  0  0
    1.6035   -6.1226   -2.5220 N   0  0  0  0  0  0  0  0  0  0  0  0
    1.5474   -6.0784   -3.9119 C   0  0  0  0  0  0  0  0  0  0  0  0
    1.4066   -5.0719   -4.5629 O   0  0  0  0  0  0  0  0  0  0  0  0
    1.7359   -7.4581   -4.5725 C   0  0  0  0  0  0  0  0  0  0  0  0
    1.2826   -8.6594   -3.7979 C   0  0  0  0  0  0  0  0  0  0  0  0
    2.0751   -9.6573   -3.2680 C   0  0  0  0  0  0  0  0  0  0  0  0
    1.3042  -10.6179   -2.6425 N   0  0  0  0  0  0  0  0  0  0  0  0
    1.7901  -11.8094   -1.9833 C   0  0  0  0  0  0  0  0  0  0  0  0
   -0.0233  -10.2512   -2.7565 C   0  0  0  0  0  0  0  0  0  0  0  0
   -1.1796  -10.8925   -2.2876 C   0  0  0  0  0  0  0  0  0  0  0  0
   -2.4047  -10.2853   -2.5528 C   0  0  0  0  0  0  0  0  0  0  0  0
   -2.4812   -9.0692   -3.2663 C   0  0  0  0  0  0  0  0  0  0  0  0
   -1.3328   -8.4338   -3.7296 C   0  0  0  0  0  0  0  0  0  0  0  0
   -0.0792   -9.0235   -3.4776 C   0  0  0  0  0  0  0  0  0  0  0  0
    1.1105   -5.3995    0.0601 S   0  0  0  0  0  0  0  0  0  0  0  0
    1.2212   -3.6844    0.3755 C   0  0  0  0  0  0  0  0  0  0  0  0
    1.0503   -2.9964    1.7123 C   0  0  0  0  0  0  0  0  0  0  0  0
   -0.6349   -0.1023    1.2338 H   0  0  0  0  0  0  0  0  0  0  0  0
   -1.1877   -1.5409    2.1175 H   0  0  0  0  0  0  0  0  0  0  0  0
   -0.9722   -1.6169    0.3475 H   0  0  0  0  0  0  0  0  0  0  0  0
    2.8065   -1.1802    1.0108 H   0  0  0  0  0  0  0  0  0  0  0  0
    1.6677    0.1162    0.6147 H   0  0  0  0  0  0  0  0  0  0  0  0
    2.5999   -1.2688   -1.4018 H   0  0  0  0  0  0  0  0  0  0  0  0
    0.8492   -1.0857   -1.3685 H   0  0  0  0  0  0  0  0  0  0  0  0
    1.6171   -7.0555   -2.1201 H   0  0  0  0  0  0  0  0  0  0  0  0
    2.8117   -7.5429   -4.8051 H   0  0  0  0  0  0  0  0  0  0  0  0
    1.2202   -7.3808   -5.5424 H   0  0  0  0  0  0  0  0  0  0  0  0
    3.1589   -9.7661   -3.3070 H   0  0  0  0  0  0  0  0  0  0  0  0
    2.8852  -11.8460   -2.0575 H   0  0  0  0  0  0  0  0  0  0  0  0
    1.3804  -12.7193   -2.4530 H   0  0  0  0  0  0  0  0  0  0  0  0
    1.5143  -11.8173   -0.9152 H   0  0  0  0  0  0  0  0  0  0  0  0
   -1.1274  -11.8328   -1.7346 H   0  0  0  0  0  0  0  0  0  0  0  0
   -3.3246  -10.7593   -2.2014 H   0  0  0  0  0  0  0  0  0  0  0  0
   -3.4600   -8.6218   -3.4556 H   0  0  0  0  0  0  0  0  0  0  0  0
   -1.4044   -7.4914   -4.2787 H   0  0  0  0  0  0  0  0  0  0  0  0
    1.9534   -3.1568    2.3333 H   0  0  0  0  0  0  0  0  0  0  0  0
    0.2074   -3.4248    2.2785 H   0  0  0  0  0  0  0  0  0  0  0  0
  1  2  1  0
  1 25  1  0
  1 26  1  0
  1 27  1  0
  2  3  1  0
  2 24  1  0
  3  4  1  0
  3 28  1  0
  3 29  1  0
  4  5  1  0
  4 30  1  0
  4 31  1  0
  5  6  1  0
  5 23  2  0
  6  7  2  0
  7  8  1  0
  7 22  1  0
  8  9  1  0
  8 32  1  0
  9 10  2  0
  9 11  1  0
 11 12  1  0
 11 33  1  0
 11 34  1  0
 12 13  2  0
 12 21  1  0
 13 14  1  0
 13 35  1  0
 14 15  1  0
 14 16  1  0
 15 36  1  0
 15 37  1  0
 15 38  1  0
 16 17  1  0
 16 21  2  0
 17 18  2  0
 17 39  1  0
 18 19  1  0
 18 40  1  0
 19 20  2  0
 19 41  1  0
 20 21  1  0
 20 42  1  0
 22 23  1  0
 23 24  1  0
 24 43  1  0
 24 44  1  0
M  END

