
     RDKit          3D

 40 42  0  0  0  0  0  0  0  0999 V2000
    4.0587   -9.0869    1.5529 C   0  0  0  0  0  0  0  0  0  0  0  0
    3.5071   -7.7612    2.0108 C   0  0  0  0  0  0  0  0  0  0  0  0
    3.9331   -6.5665    1.3992 C   0  0  0  0  0  0  0  0  0  0  0  0
    3.4388   -5.3301    1.8034 C   0  0  0  0  0  0  0  0  0  0  0  0
    3.8998   -4.1832    1.1978 O   0  0  0  0  0  0  0  0  0  0  0  0
    3.5237   -3.8442   -0.1582 C   0  0  2  0  0  0  0  0  0  0  0  0
    3.4708   -2.7417   -0.1460 H   0  0  0  0  0  0  0  0  0  0  0  0
    2.1908   -4.3976   -0.6338 C   0  0  0  0  0  0  0  0  0  0  0  0
    4.6786   -4.1944   -1.1185 C   0  0  0  0  0  0  0  0  0  0  0  0
    4.5547   -4.1956   -2.3125 O   0  0  0  0  0  0  0  0  0  0  0  0
    5.8439   -4.4534   -0.5069 O   0  0  0  0  0  0  0  0  0  0  0  0
    2.5053   -5.2169    2.8703 C   0  0  0  0  0  0  0  0  0  0  0  0
    1.9277   -3.9810    3.4009 C   0  0  0  0  0  0  0  0  0  0  0  0
    2.3423   -2.6079    2.9784 C   0  0  0  0  0  0  0  0  0  0  0  0
    3.6368   -2.1260    3.2402 C   0  0  0  0  0  0  0  0  0  0  0  0
    3.9809   -0.8121    2.9236 C   0  0  0  0  0  0  0  0  0  0  0  0
    3.0419    0.0414    2.3310 C   0  0  0  0  0  0  0  0  0  0  0  0
    1.7533   -0.4267    2.0676 C   0  0  0  0  0  0  0  0  0  0  0  0
    1.4031   -1.7411    2.3973 C   0  0  0  0  0  0  0  0  0  0  0  0
    0.9629   -4.0780    4.3605 C   0  0  0  0  0  0  0  0  0  0  0  0
    0.5002   -5.3404    4.9211 C   0  0  0  0  0  0  0  0  0  0  0  0
   -0.3482   -5.4846    5.7595 O   0  0  0  0  0  0  0  0  0  0  0  0
    1.1446   -6.4714    4.4339 O   0  0  0  0  0  0  0  0  0  0  0  0
    2.0749   -6.4367    3.4498 C   0  0  0  0  0  0  0  0  0  0  0  0
    2.5675   -7.6798    3.0362 C   0  0  0  0  0  0  0  0  0  0  0  0
    3.8604   -9.2486    0.4806 H   0  0  0  0  0  0  0  0  0  0  0  0
    3.6178   -9.9247    2.1113 H   0  0  0  0  0  0  0  0  0  0  0  0
    5.1525   -9.1262    1.6860 H   0  0  0  0  0  0  0  0  0  0  0  0
    4.6694   -6.6003    0.5936 H   0  0  0  0  0  0  0  0  0  0  0  0
    2.0269   -4.0445   -1.6609 H   0  0  0  0  0  0  0  0  0  0  0  0
    1.3694   -4.0411    0.0030 H   0  0  0  0  0  0  0  0  0  0  0  0
    2.1821   -5.4966   -0.6482 H   0  0  0  0  0  0  0  0  0  0  0  0
    5.6847   -4.3727    0.4531 H   0  0  0  0  0  0  0  0  0  0  0  0
    4.3749   -2.7857    3.7016 H   0  0  0  0  0  0  0  0  0  0  0  0
    4.9882   -0.4489    3.1426 H   0  0  0  0  0  0  0  0  0  0  0  0
    3.3158    1.0693    2.0805 H   0  0  0  0  0  0  0  0  0  0  0  0
    1.0118    0.2321    1.6087 H   0  0  0  0  0  0  0  0  0  0  0  0
    0.3909   -2.1019    2.1979 H   0  0  0  0  0  0  0  0  0  0  0  0
    0.5074   -3.1864    4.7926 H   0  0  0  0  0  0  0  0  0  0  0  0
    2.1884   -8.5716    3.5382 H   0  0  0  0  0  0  0  0  0  0  0  0
  1  2  1  0
  1 26  1  0
  1 27  1  0
  1 28  1  0
  2  3  2  0
  2 25  1  0
  3  4  1  0
  3 29  1  0
  4  5  1  0
  4 12  2  0
  5  6  1  0
  6  7  1  1
  6  8  1  0
  6  9  1  0
  8 30  1  0
  8 31  1  0
  8 32  1  0
  9 10  2  0
  9 11  1  0
 11 33  1  0
 12 13  1  0
 12 24  1  0
 13 14  1  0
 13 20  2  0
 14 15  2  0
 14 19  1  0
 15 16  1  0
 15 34  1  0
 16 17  2  0
 16 35  1  0
 17 18  1  0
 17 36  1  0
 18 19  2  0
 18 37  1  0
 19 38  1  0
 20 21  1  0
 20 39  1  0
 21 22  2  0
 21 23  1  0
 23 24  1  0
 24 25  2  0
 25 40  1  0
M  END

