
     RDKit          3D

 55 59  0  0  0  0  0  0  0  0999 V2000
    3.1001    0.6313    0.5859 C   0  0  0  0  0  0  0  0  0  0  0  0
    4.0415    0.8260    1.6183 O   0  0  0  0  0  0  0  0  0  0  0  0
    4.4961   -0.2432    2.3152 C   0  0  0  0  0  0  0  0  0  0  0  0
    5.4334    0.0285    3.3283 C   0  0  0  0  0  0  0  0  0  0  0  0
    5.9573   -1.0025    4.0964 C   0  0  0  0  0  0  0  0  0  0  0  0
    5.5686   -2.3428    3.8850 C   0  0  0  0  0  0  0  0  0  0  0  0
    6.1151   -3.4541    4.6906 C   0  0  0  0  0  0  0  0  0  0  0  0
    5.6800   -4.7054    4.4164 N   0  0  0  0  0  0  0  0  0  0  0  0
    6.1052   -5.7694    5.0913 C   0  0  0  0  0  0  0  0  0  0  0  0
    7.0559   -5.7225    6.1548 C   0  0  0  0  0  0  0  0  0  0  0  0
    7.5112   -4.4299    6.4259 C   0  0  0  0  0  0  0  0  0  0  0  0
    7.0537   -3.3190    5.7224 C   0  0  0  0  0  0  0  0  0  0  0  0
    7.9879    2.4535    6.0234 C   0  0  0  0  0  0  0  0  0  0  0  0
    8.1331    3.8296    5.9610 C   0  0  0  0  0  0  0  0  0  0  0  0
    9.1549    4.2504    6.8371 C   0  0  0  0  0  0  0  0  0  0  0  0
    9.8898    3.3380    7.6398 C   0  0  0  0  0  0  0  0  0  0  0  0
   10.9176    3.8421    8.5094 C   0  0  0  0  0  0  0  0  0  0  0  0
   11.7500    4.2380    9.2154 N   0  0  0  0  0  0  0  0  0  0  0  0
    9.6428    1.9330    7.6136 C   0  0  0  0  0  0  0  0  0  0  0  0
    8.6265    1.6340    6.7254 C   0  0  0  0  0  0  0  0  0  0  0  0
    7.8943   -2.3432    6.5343 C   0  0  0  0  0  0  0  0  0  0  0  0
    8.4130   -3.6013    7.3275 C   0  0  0  0  0  0  0  0  0  0  0  0
    7.4709   -6.9576    6.8415 C   0  0  0  0  0  0  0  0  0  0  0  0
    8.6269   -7.0119    7.6441 C   0  0  0  0  0  0  0  0  0  0  0  0
    9.0068   -8.1842    8.2884 C   0  0  0  0  0  0  0  0  0  0  0  0
    8.2269   -9.3458    8.1406 C   0  0  0  0  0  0  0  0  0  0  0  0
    8.6085  -10.5652    8.7947 C   0  0  0  0  0  0  0  0  0  0  0  0
    8.9160  -11.5522    9.3245 N   0  0  0  0  0  0  0  0  0  0  0  0
    7.0691   -9.3022    7.3413 C   0  0  0  0  0  0  0  0  0  0  0  0
    6.6834   -8.1280    6.6956 C   0  0  0  0  0  0  0  0  0  0  0  0
    5.4157   -8.0586    5.8733 C   0  0  0  0  0  0  0  0  0  0  0  0
    5.5696   -7.1216    4.6730 C   0  0  0  0  0  0  0  0  0  0  0  0
    4.6318   -2.5977    2.8693 C   0  0  0  0  0  0  0  0  0  0  0  0
    4.0971   -1.5715    2.0903 C   0  0  0  0  0  0  0  0  0  0  0  0
    2.8816    1.6242    0.1706 H   0  0  0  0  0  0  0  0  0  0  0  0
    2.1616    0.1872    0.9636 H   0  0  0  0  0  0  0  0  0  0  0  0
    3.4991   -0.0127   -0.2183 H   0  0  0  0  0  0  0  0  0  0  0  0
    5.7355    1.0648    3.4917 H   0  0  0  0  0  0  0  0  0  0  0  0
    6.6819   -0.7543    4.8723 H   0  0  0  0  0  0  0  0  0  0  0  0
    7.5683    4.5301    5.3439 H   0  0  0  0  0  0  0  0  0  0  0  0
    9.3944    5.3146    6.9051 H   0  0  0  0  0  0  0  0  0  0  0  0
   10.2140    1.2418    8.2353 H   0  0  0  0  0  0  0  0  0  0  0  0
    8.6699   -1.7965    5.9739 H   0  0  0  0  0  0  0  0  0  0  0  0
    7.3266   -1.6188    7.1405 H   0  0  0  0  0  0  0  0  0  0  0  0
    8.1529   -3.6198    8.3983 H   0  0  0  0  0  0  0  0  0  0  0  0
    9.4933   -3.7932    7.2266 H   0  0  0  0  0  0  0  0  0  0  0  0
    9.2480   -6.1226    7.7559 H   0  0  0  0  0  0  0  0  0  0  0  0
    9.9087   -8.2109    8.9025 H   0  0  0  0  0  0  0  0  0  0  0  0
    6.4639  -10.2049    7.2296 H   0  0  0  0  0  0  0  0  0  0  0  0
    4.5974   -7.6863    6.5192 H   0  0  0  0  0  0  0  0  0  0  0  0
    5.1191   -9.0670    5.5465 H   0  0  0  0  0  0  0  0  0  0  0  0
    4.6154   -6.9759    4.1480 H   0  0  0  0  0  0  0  0  0  0  0  0
    6.2714   -7.5677    3.9426 H   0  0  0  0  0  0  0  0  0  0  0  0
    4.3275   -3.6315    2.7008 H   0  0  0  0  0  0  0  0  0  0  0  0
    3.3726   -1.8161    1.3132 H   0  0  0  0  0  0  0  0  0  0  0  0
  1  2  1  0
  1 35  1  0
  1 36  1  0
  1 37  1  0
  2  3  1  0
  3  4  2  0
  3 34  1  0
  4  5  1  0
  4 38  1  0
  5  6  2  0
  5 39  1  0
  6  7  1  0
  6 33  1  0
  7  8  2  0
  7 12  1  0
  8  9  1  0
  9 10  2  0
  9 32  1  0
 10 11  1  0
 10 23  1  0
 11 12  2  0
 11 22  1  0
 12 21  1  0
 13 14  1  0
 13 20  3  0
 14 15  2  0
 14 40  1  0
 15 16  1  0
 15 41  1  0
 16 17  1  0
 16 19  2  0
 17 18  3  0
 19 20  1  0
 19 42  1  0
 21 22  1  0
 21 43  1  0
 21 44  1  0
 22 45  1  0
 22 46  1  0
 23 24  2  0
 23 30  1  0
 24 25  1  0
 24 47  1  0
 25 26  2  0
 25 48  1  0
 26 27  1  0
 26 29  1  0
 27 28  3  0
 29 30  2  0
 29 49  1  0
 30 31  1  0
 31 32  1  0
 31 50  1  0
 31 51  1  0
 32 52  1  0
 32 53  1  0
 33 34  2  0
 33 54  1  0
 34 55  1  0
M  END

