
     RDKit          3D

 55 59  0  0  0  0  0  0  0  0999 V2000
    0.7575    0.2083    1.2967 C   0  0  0  0  0  0  0  0  0  0  0  0
    2.2171    0.1840    0.9315 C   0  0  0  0  0  0  0  0  0  0  0  0
    2.7767   -1.0114    0.6668 N   0  0  0  0  0  0  0  0  0  0  0  0
    4.0673   -1.0766    0.3355 C   0  0  0  0  0  0  0  0  0  0  0  0
    4.6435   -2.4600    0.0970 C   0  0  0  0  0  0  0  0  0  0  0  0
    5.3721   -2.5688   -1.1597 N   0  0  0  0  0  0  0  0  0  0  0  0
    4.5330   -2.3678   -2.3542 C   0  0  0  0  0  0  0  0  0  0  0  0
    4.9121   -3.4287   -3.4009 C   0  0  1  0  0  0  0  0  0  0  0  0
    6.4085   -3.2996   -3.7415 C   0  0  0  0  0  0  0  0  0  0  0  0
    7.2093   -3.5565   -2.4375 C   0  0  0  0  0  0  0  0  0  0  0  0
    6.2073   -3.7794   -1.2896 C   0  0  2  0  0  0  0  0  0  0  0  0
    5.3360   -4.9995   -1.6375 C   0  0  0  0  0  0  0  0  0  0  0  0
    5.2443   -6.0187   -0.9752 O   0  0  0  0  0  0  0  0  0  0  0  0
    4.6679   -4.7514   -2.8118 N   0  0  0  0  0  0  0  0  0  0  0  0
    3.7284   -5.6936   -3.3813 C   0  0  0  0  0  0  0  0  0  0  0  0
    4.8408    0.1010    0.2506 C   0  0  0  0  0  0  0  0  0  0  0  0
    6.2217    0.3463   -0.0715 C   0  0  0  0  0  0  0  0  0  0  0  0
    6.5708    1.6666   -0.0107 C   0  0  0  0  0  0  0  0  0  0  0  0
    7.9311    2.3074   -0.2001 C   0  0  1  0  0  0  0  0  0  0  0  0
    8.9809    1.3456   -0.7982 C   0  0  0  0  0  0  0  0  0  0  0  0
    8.7835    1.0858   -2.2997 C   0  0  0  0  0  0  0  0  0  0  0  0
    8.7200    2.3951   -3.0977 C   0  0  0  0  0  0  0  0  0  0  0  0
    7.6573    3.3450   -2.5302 C   0  0  0  0  0  0  0  0  0  0  0  0
    7.8870    3.6097   -1.0373 C   0  0  0  0  0  0  0  0  0  0  0  0
    5.1963    2.6912    0.4465 S   0  0  0  0  0  0  0  0  0  0  0  0
    4.1399    1.2940    0.5588 C   0  0  0  0  0  0  0  0  0  0  0  0
    2.8597    1.3570    0.8914 N   0  0  0  0  0  0  0  0  0  0  0  0
    0.3561   -0.8120    1.3310 H   0  0  0  0  0  0  0  0  0  0  0  0
    0.1892    0.8011    0.5616 H   0  0  0  0  0  0  0  0  0  0  0  0
    0.6160    0.6950    2.2748 H   0  0  0  0  0  0  0  0  0  0  0  0
    3.8004   -3.1749    0.1835 H   0  0  0  0  0  0  0  0  0  0  0  0
    5.3463   -2.6882    0.9177 H   0  0  0  0  0  0  0  0  0  0  0  0
    4.6677   -1.3532   -2.7714 H   0  0  0  0  0  0  0  0  0  0  0  0
    3.4608   -2.4796   -2.1068 H   0  0  0  0  0  0  0  0  0  0  0  0
    4.2847   -3.3193   -4.2970 H   0  0  0  0  0  0  0  0  0  0  0  0
    6.6075   -2.2950   -4.1468 H   0  0  0  0  0  0  0  0  0  0  0  0
    6.6723   -4.0260   -4.5250 H   0  0  0  0  0  0  0  0  0  0  0  0
    7.8519   -2.6991   -2.1870 H   0  0  0  0  0  0  0  0  0  0  0  0
    7.8582   -4.4408   -2.5330 H   0  0  0  0  0  0  0  0  0  0  0  0
    6.7155   -3.9784   -0.3374 H   0  0  0  0  0  0  0  0  0  0  0  0
    3.7242   -6.5872   -2.7430 H   0  0  0  0  0  0  0  0  0  0  0  0
    4.0207   -5.9861   -4.4049 H   0  0  0  0  0  0  0  0  0  0  0  0
    2.7059   -5.2778   -3.4175 H   0  0  0  0  0  0  0  0  0  0  0  0
    6.9061   -0.4523   -0.3487 H   0  0  0  0  0  0  0  0  0  0  0  0
    8.2756    2.5869    0.8133 H   0  0  0  0  0  0  0  0  0  0  0  0
    9.0005    0.3980   -0.2366 H   0  0  0  0  0  0  0  0  0  0  0  0
    9.9726    1.8067   -0.6458 H   0  0  0  0  0  0  0  0  0  0  0  0
    7.8505    0.5190   -2.4614 H   0  0  0  0  0  0  0  0  0  0  0  0
    9.6028    0.4488   -2.6741 H   0  0  0  0  0  0  0  0  0  0  0  0
    8.5199    2.1847   -4.1618 H   0  0  0  0  0  0  0  0  0  0  0  0
    9.7071    2.8925   -3.0603 H   0  0  0  0  0  0  0  0  0  0  0  0
    6.6535    2.9068   -2.6755 H   0  0  0  0  0  0  0  0  0  0  0  0
    7.6613    4.2995   -3.0827 H   0  0  0  0  0  0  0  0  0  0  0  0
    7.1187    4.2949   -0.6427 H   0  0  0  0  0  0  0  0  0  0  0  0
    8.8538    4.1270   -0.9052 H   0  0  0  0  0  0  0  0  0  0  0  0
  1  2  1  0
  1 28  1  0
  1 29  1  0
  1 30  1  0
  2  3  2  0
  2 27  1  0
  3  4  1  0
  4  5  1  0
  4 16  2  0
  5  6  1  0
  5 31  1  0
  5 32  1  0
  6  7  1  0
  6 11  1  0
  7  8  1  0
  7 33  1  0
  7 34  1  0
  8  9  1  0
  8 14  1  0
  8 35  1  6
  9 10  1  0
  9 36  1  0
  9 37  1  0
 10 11  1  0
 10 38  1  0
 10 39  1  0
 11 12  1  0
 11 40  1  1
 12 13  2  0
 12 14  1  0
 14 15  1  0
 15 41  1  0
 15 42  1  0
 15 43  1  0
 16 17  1  0
 16 26  1  0
 17 18  2  0
 17 44  1  0
 18 19  1  0
 18 25  1  0
 19 20  1  0
 19 24  1  0
 19 45  1  1
 20 21  1  0
 20 46  1  0
 20 47  1  0
 21 22  1  0
 21 48  1  0
 21 49  1  0
 22 23  1  0
 22 50  1  0
 22 51  1  0
 23 24  1  0
 23 52  1  0
 23 53  1  0
 24 54  1  0
 24 55  1  0
 25 26  1  0
 26 27  2  0
M  END

