
     RDKit          3D

 64 68  0  0  0  0  0  0  0  0999 V2000
    0.1639    0.4888    0.7367 C   0  0  0  0  0  0  0  0  0  0  0  0
    1.6616    0.6137    0.6234 C   0  0  0  0  0  0  0  0  0  0  0  0
    2.1522    1.7960    0.2622 N   0  0  0  0  0  0  0  0  0  0  0  0
    3.4704    1.9678    0.1317 C   0  0  0  0  0  0  0  0  0  0  0  0
    4.3851    0.9428    0.3813 C   0  0  0  0  0  0  0  0  0  0  0  0
    5.8763    1.1571    0.2359 C   0  0  0  0  0  0  0  0  0  0  0  0
    6.4627    0.2416   -0.8629 C   0  0  0  0  0  0  0  0  0  0  0  0
    7.9142    0.3525   -0.9615 N   0  0  0  0  0  0  0  0  0  0  0  0
    8.7921   -0.6027   -0.3420 C   0  0  0  0  0  0  0  0  0  0  0  0
    9.5188   -1.4298   -1.4693 C   0  0  1  0  0  0  0  0  0  0  0  0
   10.3457   -1.9518   -0.9708 H   0  0  0  0  0  0  0  0  0  0  0  0
    8.6146   -2.4515   -2.1482 C   0  0  0  0  0  0  0  0  0  0  0  0
   10.1283   -0.5035   -2.3514 O   0  0  0  0  0  0  0  0  0  0  0  0
    9.2808    0.4118   -2.9899 C   0  0  2  0  0  0  0  0  0  0  0  0
    8.4993   -0.1081   -3.5725 H   0  0  0  0  0  0  0  0  0  0  0  0
   10.1071    1.3043   -3.8967 C   0  0  0  0  0  0  0  0  0  0  0  0
    8.5387    1.2551   -1.8780 C   0  0  0  0  0  0  0  0  0  0  0  0
    3.8933   -0.3047    0.7786 C   0  0  0  0  0  0  0  0  0  0  0  0
    2.5089   -0.5094    0.8918 C   0  0  0  0  0  0  0  0  0  0  0  0
    1.9426   -1.7175    1.2376 N   0  0  0  0  0  0  0  0  0  0  0  0
    2.5214   -3.0033    1.3312 C   0  0  0  0  0  0  0  0  0  0  0  0
    1.6058   -3.9782    1.2821 N   0  0  0  0  0  0  0  0  0  0  0  0
    2.1211   -5.2285    1.3674 C   0  0  0  0  0  0  0  0  0  0  0  0
    3.4758   -5.5022    1.4349 C   0  0  0  0  0  0  0  0  0  0  0  0
    4.3697   -4.3891    1.4506 C   0  0  0  0  0  0  0  0  0  0  0  0
    3.8285   -3.1166    1.4435 N   0  0  0  0  0  0  0  0  0  0  0  0
    5.8033   -4.4869    1.5422 C   0  0  0  0  0  0  0  0  0  0  0  0
    6.5259   -3.3843    2.1097 C   0  0  0  0  0  0  0  0  0  0  0  0
    7.9046   -3.3065    2.1427 C   0  0  0  0  0  0  0  0  0  0  0  0
    8.6616   -4.3446    1.5599 C   0  0  0  0  0  0  0  0  0  0  0  0
   10.4198   -4.2019    1.4612 Cl  0  0  0  0  0  0  0  0  0  0  0  0
    8.0177   -5.4618    1.0310 C   0  0  0  0  0  0  0  0  0  0  0  0
    6.6168   -5.5693    1.0317 C   0  0  0  0  0  0  0  0  0  0  0  0
    6.1028   -6.7104    0.3930 N   0  0  0  0  0  0  0  0  0  0  0  0
    4.9215   -7.3707    0.5019 C   0  0  0  0  0  0  0  0  0  0  0  0
    4.5883   -8.6687   -0.4902 S   0  0  0  0  0  0  0  0  0  0  0  0
    3.9837   -6.9107    1.5967 C   0  0  0  0  0  0  0  0  0  0  0  0
   -0.2948    1.4592    0.5098 H   0  0  0  0  0  0  0  0  0  0  0  0
   -0.1440    0.1801    1.7512 H   0  0  0  0  0  0  0  0  0  0  0  0
   -0.2388   -0.2617    0.0330 H   0  0  0  0  0  0  0  0  0  0  0  0
    3.8105    2.9662   -0.1728 H   0  0  0  0  0  0  0  0  0  0  0  0
    6.3926    0.9332    1.1848 H   0  0  0  0  0  0  0  0  0  0  0  0
    6.0912    2.2099   -0.0095 H   0  0  0  0  0  0  0  0  0  0  0  0
    6.0290    0.5039   -1.8395 H   0  0  0  0  0  0  0  0  0  0  0  0
    6.2185   -0.8043   -0.6424 H   0  0  0  0  0  0  0  0  0  0  0  0
    8.2373   -1.2653    0.3288 H   0  0  0  0  0  0  0  0  0  0  0  0
    9.5711   -0.0641    0.2171 H   0  0  0  0  0  0  0  0  0  0  0  0
    7.7127   -2.0128   -2.6016 H   0  0  0  0  0  0  0  0  0  0  0  0
    8.2930   -3.2041   -1.4158 H   0  0  0  0  0  0  0  0  0  0  0  0
    9.1810   -2.9641   -2.9396 H   0  0  0  0  0  0  0  0  0  0  0  0
   10.5874    0.6916   -4.6722 H   0  0  0  0  0  0  0  0  0  0  0  0
   10.8951    1.8160   -3.3243 H   0  0  0  0  0  0  0  0  0  0  0  0
    9.4736    2.0558   -4.3904 H   0  0  0  0  0  0  0  0  0  0  0  0
    7.7956    1.9243   -2.3282 H   0  0  0  0  0  0  0  0  0  0  0  0
    9.3099    1.8437   -1.3564 H   0  0  0  0  0  0  0  0  0  0  0  0
    4.5397   -1.1525    1.0048 H   0  0  0  0  0  0  0  0  0  0  0  0
    0.9336   -1.7882    1.1935 H   0  0  0  0  0  0  0  0  0  0  0  0
    1.3986   -6.0527    1.3875 H   0  0  0  0  0  0  0  0  0  0  0  0
    5.9288   -2.5917    2.5622 H   0  0  0  0  0  0  0  0  0  0  0  0
    8.4094   -2.4753    2.6400 H   0  0  0  0  0  0  0  0  0  0  0  0
    8.6119   -6.2707    0.5994 H   0  0  0  0  0  0  0  0  0  0  0  0
    6.7334   -7.1627   -0.2650 H   0  0  0  0  0  0  0  0  0  0  0  0
    4.5321   -6.9911    2.5561 H   0  0  0  0  0  0  0  0  0  0  0  0
    3.1453   -7.6156    1.6313 H   0  0  0  0  0  0  0  0  0  0  0  0
  1  2  1  0
  1 38  1  0
  1 39  1  0
  1 40  1  0
  2  3  2  0
  2 19  1  0
  3  4  1  0
  4  5  2  0
  4 41  1  0
  5  6  1  0
  5 18  1  0
  6  7  1  0
  6 42  1  0
  6 43  1  0
  7  8  1  0
  7 44  1  0
  7 45  1  0
  8  9  1  0
  8 17  1  0
  9 10  1  0
  9 46  1  0
  9 47  1  0
 10 11  1  6
 10 12  1  0
 10 13  1  0
 12 48  1  0
 12 49  1  0
 12 50  1  0
 13 14  1  0
 14 15  1  6
 14 16  1  0
 14 17  1  0
 16 51  1  0
 16 52  1  0
 16 53  1  0
 17 54  1  0
 17 55  1  0
 18 19  2  0
 18 56  1  0
 19 20  1  0
 20 21  1  0
 20 57  1  0
 21 22  2  0
 21 26  1  0
 22 23  1  0
 23 24  2  0
 23 58  1  0
 24 25  1  0
 24 37  1  0
 25 26  2  0
 25 27  1  0
 27 28  2  0
 27 33  1  0
 28 29  1  0
 28 59  1  0
 29 30  2  0
 29 60  1  0
 30 31  1  0
 30 32  1  0
 32 33  2  0
 32 61  1  0
 33 34  1  0
 34 35  1  0
 34 62  1  0
 35 36  2  0
 35 37  1  0
 37 63  1  0
 37 64  1  0
M  END

