
     RDKit          3D

 74 78  0  0  0  0  0  0  0  0999 V2000
    0.6887   -0.2078    0.4416 C   0  0  0  0  0  0  0  0  0  0  0  0
    1.8916   -0.6948   -0.1531 O   0  0  0  0  0  0  0  0  0  0  0  0
    3.0429   -0.2690    0.3786 C   0  0  0  0  0  0  0  0  0  0  0  0
    3.1057    0.4375    1.3589 O   0  0  0  0  0  0  0  0  0  0  0  0
    4.2538   -0.8274   -0.3546 C   0  0  0  0  0  0  0  0  0  0  0  0
    4.1463   -0.8544   -1.8630 C   0  0  0  0  0  0  0  0  0  0  0  0
    4.3454   -2.0592   -2.5887 C   0  0  0  0  0  0  0  0  0  0  0  0
    4.2537   -2.0970   -3.9628 C   0  0  0  0  0  0  0  0  0  0  0  0
    3.9230   -0.9266   -4.6987 C   0  0  0  0  0  0  0  0  0  0  0  0
    3.7870   -0.9292   -6.1158 C   0  0  0  0  0  0  0  0  0  0  0  0
    3.4327    0.2167   -6.7960 C   0  0  0  0  0  0  0  0  0  0  0  0
    3.1866    1.4199   -6.0868 C   0  0  0  0  0  0  0  0  0  0  0  0
    3.3152    1.4609   -4.7140 C   0  0  0  0  0  0  0  0  0  0  0  0
    3.7006    0.2993   -3.9872 C   0  0  0  0  0  0  0  0  0  0  0  0
    3.8504    0.3059   -2.5658 C   0  0  0  0  0  0  0  0  0  0  0  0
    3.6326    1.4756   -1.8765 O   0  0  0  0  0  0  0  0  0  0  0  0
    4.7705    2.3527   -1.7484 C   0  0  0  0  0  0  0  0  0  0  0  0
    4.3480    3.6214   -1.0562 C   0  0  0  0  0  0  0  0  0  0  0  0
    4.1053    3.5992    0.3343 C   0  0  0  0  0  0  0  0  0  0  0  0
    3.6858    4.7231    1.0644 C   0  0  0  0  0  0  0  0  0  0  0  0
    3.4273    4.6487    2.5263 C   0  0  0  0  0  0  0  0  0  0  0  0
    3.5991    5.7590    3.3730 C   0  0  0  0  0  0  0  0  0  0  0  0
    3.3773    5.6439    4.7484 C   0  0  0  0  0  0  0  0  0  0  0  0
    2.9783    4.4293    5.3068 C   0  0  0  0  0  0  0  0  0  0  0  0
    2.7932    3.3083    4.4804 C   0  0  0  0  0  0  0  0  0  0  0  0
    2.3364    1.9834    5.0666 C   0  0  0  0  0  0  0  0  0  0  0  0
    0.9518    1.9812    5.5143 N   0  0  0  0  0  0  0  0  0  0  0  0
    0.6031    2.1947    6.8161 C   0  0  0  0  0  0  0  0  0  0  0  0
    1.3931    2.2982    7.7363 O   0  0  0  0  0  0  0  0  0  0  0  0
   -0.7446    2.2608    6.9188 O   0  0  0  0  0  0  0  0  0  0  0  0
   -1.4139    2.4568    8.2046 C   0  0  1  0  0  0  0  0  0  0  0  0
   -1.0072    3.8039    8.8121 C   0  0  0  0  0  0  0  0  0  0  0  0
   -2.8950    2.4631    7.8198 C   0  0  0  0  0  0  0  0  0  0  0  0
   -1.1027    1.2859    9.1434 C   0  0  0  0  0  0  0  0  0  0  0  0
    3.0165    3.4304    3.1058 C   0  0  0  0  0  0  0  0  0  0  0  0
    3.5315    5.8905    0.2926 C   0  0  0  0  0  0  0  0  0  0  0  0
    3.1250    7.1121    0.7451 O   0  0  0  0  0  0  0  0  0  0  0  0
    3.0969    7.9486   -0.3336 C   0  0  0  0  0  0  0  0  0  0  0  0
    3.4709    7.3170   -1.4771 C   0  0  0  0  0  0  0  0  0  0  0  0
    3.7635    5.9540   -1.0979 C   0  0  0  0  0  0  0  0  0  0  0  0
    4.1766    4.8004   -1.7833 C   0  0  0  0  0  0  0  0  0  0  0  0
   -0.1351   -0.6612   -0.1231 H   0  0  0  0  0  0  0  0  0  0  0  0
    0.6400    0.8891    0.3693 H   0  0  0  0  0  0  0  0  0  0  0  0
    0.6292   -0.4976    1.5018 H   0  0  0  0  0  0  0  0  0  0  0  0
    4.4052   -1.8546    0.0171 H   0  0  0  0  0  0  0  0  0  0  0  0
    5.1176   -0.2403   -0.0088 H   0  0  0  0  0  0  0  0  0  0  0  0
    4.5795   -2.9727   -2.0349 H   0  0  0  0  0  0  0  0  0  0  0  0
    4.4206   -3.0334   -4.5013 H   0  0  0  0  0  0  0  0  0  0  0  0
    3.9624   -1.8626   -6.6576 H   0  0  0  0  0  0  0  0  0  0  0  0
    3.3297    0.1987   -7.8839 H   0  0  0  0  0  0  0  0  0  0  0  0
    2.8845    2.3170   -6.6335 H   0  0  0  0  0  0  0  0  0  0  0  0
    3.1006    2.3767   -4.1612 H   0  0  0  0  0  0  0  0  0  0  0  0
    5.1790    2.5733   -2.7491 H   0  0  0  0  0  0  0  0  0  0  0  0
    5.5597    1.8365   -1.1727 H   0  0  0  0  0  0  0  0  0  0  0  0
    4.2574    2.6599    0.8683 H   0  0  0  0  0  0  0  0  0  0  0  0
    3.9183    6.7150    2.9586 H   0  0  0  0  0  0  0  0  0  0  0  0
    3.5279    6.5150    5.3917 H   0  0  0  0  0  0  0  0  0  0  0  0
    2.8101    4.3387    6.3833 H   0  0  0  0  0  0  0  0  0  0  0  0
    2.9436    1.7302    5.9473 H   0  0  0  0  0  0  0  0  0  0  0  0
    2.4718    1.1848    4.3204 H   0  0  0  0  0  0  0  0  0  0  0  0
    0.2102    2.0413    4.8266 H   0  0  0  0  0  0  0  0  0  0  0  0
   -1.1985    4.6194    8.0968 H   0  0  0  0  0  0  0  0  0  0  0  0
    0.0571    3.8097    9.0787 H   0  0  0  0  0  0  0  0  0  0  0  0
   -1.6016    3.9989    9.7187 H   0  0  0  0  0  0  0  0  0  0  0  0
   -3.1073    3.2785    7.1115 H   0  0  0  0  0  0  0  0  0  0  0  0
   -3.5221    2.6045    8.7132 H   0  0  0  0  0  0  0  0  0  0  0  0
   -3.1751    1.5113    7.3432 H   0  0  0  0  0  0  0  0  0  0  0  0
   -0.0364    1.2629    9.4013 H   0  0  0  0  0  0  0  0  0  0  0  0
   -1.3733    0.3307    8.6663 H   0  0  0  0  0  0  0  0  0  0  0  0
   -1.6906    1.3833   10.0697 H   0  0  0  0  0  0  0  0  0  0  0  0
    2.8626    2.5541    2.4725 H   0  0  0  0  0  0  0  0  0  0  0  0
    2.7875    8.9699   -0.1247 H   0  0  0  0  0  0  0  0  0  0  0  0
    3.5303    7.7578   -2.4699 H   0  0  0  0  0  0  0  0  0  0  0  0
    4.3624    4.8252   -2.8602 H   0  0  0  0  0  0  0  0  0  0  0  0
  1  2  1  0
  1 42  1  0
  1 43  1  0
  1 44  1  0
  2  3  1  0
  3  4  2  0
  3  5  1  0
  5  6  1  0
  5 45  1  0
  5 46  1  0
  6  7  2  0
  6 15  1  0
  7  8  1  0
  7 47  1  0
  8  9  2  0
  8 48  1  0
  9 10  1  0
  9 14  1  0
 10 11  2  0
 10 49  1  0
 11 12  1  0
 11 50  1  0
 12 13  2  0
 12 51  1  0
 13 14  1  0
 13 52  1  0
 14 15  2  0
 15 16  1  0
 16 17  1  0
 17 18  1  0
 17 53  1  0
 17 54  1  0
 18 19  2  0
 18 41  1  0
 19 20  1  0
 19 55  1  0
 20 21  1  0
 20 36  2  0
 21 22  2  0
 21 35  1  0
 22 23  1  0
 22 56  1  0
 23 24  2  0
 23 57  1  0
 24 25  1  0
 24 58  1  0
 25 26  1  0
 25 35  2  0
 26 27  1  0
 26 59  1  0
 26 60  1  0
 27 28  1  0
 27 61  1  0
 28 29  2  0
 28 30  1  0
 31 30  1  6
 31 32  1  0
 31 33  1  0
 31 34  1  0
 32 62  1  0
 32 63  1  0
 32 64  1  0
 33 65  1  0
 33 66  1  0
 33 67  1  0
 34 68  1  0
 34 69  1  0
 34 70  1  0
 35 71  1  0
 36 37  1  0
 36 40  1  0
 37 38  1  0
 38 39  2  0
 38 72  1  0
 39 40  1  0
 39 73  1  0
 40 41  2  0
 41 74  1  0
M  END

