
     RDKit          3D

 39 41  0  0  0  0  0  0  0  0999 V2000
    1.0611    0.0279    0.6182 C   0  0  0  0  0  0  0  0  0  0  0  0
    2.5790   -0.0906    0.6618 C   0  0  0  0  0  0  0  0  0  0  0  0
    3.1298   -1.1608    0.4610 O   0  0  0  0  0  0  0  0  0  0  0  0
    3.2993    1.0551    0.9338 N   0  0  0  0  0  0  0  0  0  0  0  0
    4.7542    0.9778    1.0336 C   0  0  0  0  0  0  0  0  0  0  0  0
    5.4190    2.0601    0.1794 C   0  0  0  0  0  0  0  0  0  0  0  0
    4.8645    3.3735    0.5106 N   0  0  0  0  0  0  0  0  0  0  0  0
    5.6841    4.3345    1.0270 C   0  0  0  0  0  0  0  0  0  0  0  0
    6.8964    4.1971    1.1376 O   0  0  0  0  0  0  0  0  0  0  0  0
    5.0424    5.6156    1.5898 C   0  0  0  0  0  0  0  0  0  0  0  0
    4.0800    5.5117    2.3419 O   0  0  0  0  0  0  0  0  0  0  0  0
    5.6555    6.9117    1.2863 C   0  0  0  0  0  0  0  0  0  0  0  0
    5.0804    8.0678    1.7989 C   0  0  0  0  0  0  0  0  0  0  0  0
    5.7499    9.1620    1.3490 N   0  0  0  0  0  0  0  0  0  0  0  0
    5.5231   10.1206    1.5818 H   0  0  0  0  0  0  0  0  0  0  0  0
    6.7900    8.7682    0.5234 C   0  0  0  0  0  0  0  0  0  0  0  0
    7.7274    9.5622   -0.1492 C   0  0  0  0  0  0  0  0  0  0  0  0
    8.6721    8.8837   -0.9042 C   0  0  0  0  0  0  0  0  0  0  0  0
    9.5953    9.5927   -1.5736 F   0  0  0  0  0  0  0  0  0  0  0  0
    8.7081    7.4824   -0.9913 C   0  0  0  0  0  0  0  0  0  0  0  0
    7.7717    6.7104   -0.3112 C   0  0  0  0  0  0  0  0  0  0  0  0
    6.7756    7.3459    0.4573 C   0  0  0  0  0  0  0  0  0  0  0  0
    3.4154    3.4435    0.3574 C   0  0  0  0  0  0  0  0  0  0  0  0
    2.7423    2.3696    1.2227 C   0  0  0  0  0  0  0  0  0  0  0  0
    0.6637   -0.9712    0.4040 H   0  0  0  0  0  0  0  0  0  0  0  0
    0.7235    0.7210   -0.1687 H   0  0  0  0  0  0  0  0  0  0  0  0
    0.6491    0.3798    1.5773 H   0  0  0  0  0  0  0  0  0  0  0  0
    5.0562   -0.0254    0.7081 H   0  0  0  0  0  0  0  0  0  0  0  0
    5.0622    1.1087    2.0883 H   0  0  0  0  0  0  0  0  0  0  0  0
    5.2401    1.8537   -0.8910 H   0  0  0  0  0  0  0  0  0  0  0  0
    6.5007    2.0928    0.3572 H   0  0  0  0  0  0  0  0  0  0  0  0
    4.2178    8.1446    2.4571 H   0  0  0  0  0  0  0  0  0  0  0  0
    7.7366   10.6520   -0.0959 H   0  0  0  0  0  0  0  0  0  0  0  0
    9.4922    7.0188   -1.5929 H   0  0  0  0  0  0  0  0  0  0  0  0
    7.8229    5.6236   -0.3500 H   0  0  0  0  0  0  0  0  0  0  0  0
    3.1676    3.2617   -0.7048 H   0  0  0  0  0  0  0  0  0  0  0  0
    3.0443    4.4320    0.6411 H   0  0  0  0  0  0  0  0  0  0  0  0
    1.6618    2.3768    1.0391 H   0  0  0  0  0  0  0  0  0  0  0  0
    2.9079    2.6344    2.2842 H   0  0  0  0  0  0  0  0  0  0  0  0
  1  2  1  0
  1 25  1  0
  1 26  1  0
  1 27  1  0
  2  3  2  0
  2  4  1  0
  4  5  1  0
  4 24  1  0
  5  6  1  0
  5 28  1  0
  5 29  1  0
  6  7  1  0
  6 30  1  0
  6 31  1  0
  7  8  1  0
  7 23  1  0
  8  9  2  0
  8 10  1  0
 10 11  2  0
 10 12  1  0
 12 13  2  0
 12 22  1  0
 13 14  1  0
 13 32  1  0
 14 15  1  0
 14 16  1  0
 16 17  1  0
 16 22  2  0
 17 18  2  0
 17 33  1  0
 18 19  1  0
 18 20  1  0
 20 21  2  0
 20 34  1  0
 21 22  1  0
 21 35  1  0
 23 24  1  0
 23 36  1  0
 23 37  1  0
 24 38  1  0
 24 39  1  0
M  END

