
     RDKit          3D

 69 78  0  0  0  0  0  0  0  0999 V2000
    3.5094    1.2217    0.5517 C   0  0  0  0  0  0  0  0  0  0  0  0
    3.5614   -0.0894    1.0242 C   0  0  0  0  0  0  0  0  0  0  0  0
    2.4826   -0.9572    0.8332 C   0  0  0  0  0  0  0  0  0  0  0  0
    1.3295   -0.5447    0.1400 C   0  0  0  0  0  0  0  0  0  0  0  0
    1.3012    0.7762   -0.3610 C   0  0  0  0  0  0  0  0  0  0  0  0
    2.3689    1.6497   -0.1328 C   0  0  0  0  0  0  0  0  0  0  0  0
   -0.0327    1.3135   -1.4059 S   0  0  0  0  0  0  0  0  0  0  0  0
   -1.3534    0.3452   -0.7141 C   0  0  0  0  0  0  0  0  0  0  0  0
   -2.6605    0.8339   -0.8010 C   0  0  0  0  0  0  0  0  0  0  0  0
   -3.7467    0.0427   -0.4177 C   0  0  0  0  0  0  0  0  0  0  0  0
   -3.5077   -1.2407    0.0728 C   0  0  0  0  0  0  0  0  0  0  0  0
   -2.2016   -1.7218    0.1994 C   0  0  0  0  0  0  0  0  0  0  0  0
   -1.0968   -0.9402   -0.1863 C   0  0  0  0  0  0  0  0  0  0  0  0
    0.2317   -1.4201   -0.0595 N   0  0  0  0  0  0  0  0  0  0  0  0
    0.4314   -2.8258    0.1638 C   0  0  0  0  0  0  0  0  0  0  0  0
    0.3355   -3.3777    1.4538 C   0  0  0  0  0  0  0  0  0  0  0  0
    0.5304   -4.7456    1.6604 C   0  0  0  0  0  0  0  0  0  0  0  0
    0.8248   -5.5651    0.5651 C   0  0  0  0  0  0  0  0  0  0  0  0
    0.9238   -5.0106   -0.7332 C   0  0  0  0  0  0  0  0  0  0  0  0
    0.7270   -3.6460   -0.9347 C   0  0  0  0  0  0  0  0  0  0  0  0
    1.2473   -6.0946   -1.7098 C   0  0  1  0  0  0  0  0  0  0  0  0
    0.6924   -6.1034   -3.1313 C   0  0  0  0  0  0  0  0  0  0  0  0
    2.1467   -5.8605   -2.9199 C   0  0  0  0  0  0  0  0  0  0  0  0
    1.3317   -7.3340   -0.8791 C   0  0  0  0  0  0  0  0  0  0  0  0
    1.6068   -8.6489   -1.2486 C   0  0  0  0  0  0  0  0  0  0  0  0
    1.6256   -9.6489   -0.2652 C   0  0  0  0  0  0  0  0  0  0  0  0
    1.9093  -10.9999   -0.6642 N   0  0  0  0  0  0  0  0  0  0  0  0
    3.2359  -11.4817   -0.5265 C   0  0  0  0  0  0  0  0  0  0  0  0
    4.1810  -10.8169    0.2764 C   0  0  0  0  0  0  0  0  0  0  0  0
    5.4867  -11.2986    0.4056 C   0  0  0  0  0  0  0  0  0  0  0  0
    5.8779  -12.4703   -0.2417 C   0  0  0  0  0  0  0  0  0  0  0  0
    4.9498  -13.1463   -1.0381 C   0  0  0  0  0  0  0  0  0  0  0  0
    3.6530  -12.6500   -1.2029 C   0  0  0  0  0  0  0  0  0  0  0  0
    2.5812  -13.4357   -2.3836 S   0  0  0  0  0  0  0  0  0  0  0  0
    1.0085  -13.0720   -1.6388 C   0  0  0  0  0  0  0  0  0  0  0  0
   -0.0603  -13.9447   -1.8645 C   0  0  0  0  0  0  0  0  0  0  0  0
   -1.3497  -13.6219   -1.4333 C   0  0  0  0  0  0  0  0  0  0  0  0
   -1.5543  -12.4215   -0.7533 C   0  0  0  0  0  0  0  0  0  0  0  0
   -0.4840  -11.5622   -0.4898 C   0  0  0  0  0  0  0  0  0  0  0  0
    0.8190  -11.8681   -0.9242 C   0  0  0  0  0  0  0  0  0  0  0  0
    1.3678   -9.3249    1.0787 C   0  0  0  0  0  0  0  0  0  0  0  0
    1.0936   -8.0074    1.4542 C   0  0  0  0  0  0  0  0  0  0  0  0
    1.0764   -7.0087    0.4743 C   0  0  0  0  0  0  0  0  0  0  0  0
    4.3453    1.9071    0.7078 H   0  0  0  0  0  0  0  0  0  0  0  0
    4.4445   -0.4493    1.5579 H   0  0  0  0  0  0  0  0  0  0  0  0
    2.5436   -1.9734    1.2203 H   0  0  0  0  0  0  0  0  0  0  0  0
    2.3051    2.6705   -0.5180 H   0  0  0  0  0  0  0  0  0  0  0  0
   -2.8207    1.8407   -1.1948 H   0  0  0  0  0  0  0  0  0  0  0  0
   -4.7648    0.4276   -0.5075 H   0  0  0  0  0  0  0  0  0  0  0  0
   -4.3410   -1.8810    0.3729 H   0  0  0  0  0  0  0  0  0  0  0  0
   -2.0407   -2.7234    0.5954 H   0  0  0  0  0  0  0  0  0  0  0  0
    0.1056   -2.7210    2.2955 H   0  0  0  0  0  0  0  0  0  0  0  0
    0.4531   -5.1620    2.6678 H   0  0  0  0  0  0  0  0  0  0  0  0
    0.7961   -3.1914   -1.9258 H   0  0  0  0  0  0  0  0  0  0  0  0
    0.0522   -5.2625   -3.4129 H   0  0  0  0  0  0  0  0  0  0  0  0
    0.3711   -7.0715   -3.5261 H   0  0  0  0  0  0  0  0  0  0  0  0
    2.5372   -4.8474   -3.0520 H   0  0  0  0  0  0  0  0  0  0  0  0
    2.8556   -6.6564   -3.1652 H   0  0  0  0  0  0  0  0  0  0  0  0
    1.8088   -8.9289   -2.2853 H   0  0  0  0  0  0  0  0  0  0  0  0
    3.8967   -9.9054    0.8003 H   0  0  0  0  0  0  0  0  0  0  0  0
    6.1961  -10.7495    1.0297 H   0  0  0  0  0  0  0  0  0  0  0  0
    6.8938  -12.8569   -0.1348 H   0  0  0  0  0  0  0  0  0  0  0  0
    5.2328  -14.0634   -1.5608 H   0  0  0  0  0  0  0  0  0  0  0  0
    0.1260  -14.8767   -2.4041 H   0  0  0  0  0  0  0  0  0  0  0  0
   -2.1810  -14.3020   -1.6315 H   0  0  0  0  0  0  0  0  0  0  0  0
   -2.5544  -12.1450   -0.4102 H   0  0  0  0  0  0  0  0  0  0  0  0
   -0.6671  -10.6359    0.0532 H   0  0  0  0  0  0  0  0  0  0  0  0
    1.3847  -10.1191    1.8282 H   0  0  0  0  0  0  0  0  0  0  0  0
    0.8952   -7.7683    2.5020 H   0  0  0  0  0  0  0  0  0  0  0  0
  1  2  2  0
  1  6  1  0
  1 44  1  0
  2  3  1  0
  2 45  1  0
  3  4  2  0
  3 46  1  0
  4  5  1  0
  4 14  1  0
  5  6  2  0
  5  7  1  0
  6 47  1  0
  7  8  1  0
  8  9  2  0
  8 13  1  0
  9 10  1  0
  9 48  1  0
 10 11  2  0
 10 49  1  0
 11 12  1  0
 11 50  1  0
 12 13  2  0
 12 51  1  0
 13 14  1  0
 14 15  1  0
 15 16  2  0
 15 20  1  0
 16 17  1  0
 16 52  1  0
 17 18  2  0
 17 53  1  0
 18 19  1  0
 18 43  1  0
 19 20  2  0
 19 21  1  0
 20 54  1  0
 21 22  1  6
 21 23  1  0
 21 24  1  0
 22 23  1  0
 22 55  1  0
 22 56  1  0
 23 57  1  0
 23 58  1  0
 24 25  1  0
 24 43  2  0
 25 26  2  0
 25 59  1  0
 26 27  1  0
 26 41  1  0
 27 28  1  0
 27 40  1  0
 28 29  2  0
 28 33  1  0
 29 30  1  0
 29 60  1  0
 30 31  2  0
 30 61  1  0
 31 32  1  0
 31 62  1  0
 32 33  2  0
 32 63  1  0
 33 34  1  0
 34 35  1  0
 35 36  2  0
 35 40  1  0
 36 37  1  0
 36 64  1  0
 37 38  2  0
 37 65  1  0
 38 39  1  0
 38 66  1  0
 39 40  2  0
 39 67  1  0
 41 42  2  0
 41 68  1  0
 42 43  1  0
 42 69  1  0
M  END

