
     RDKit          3D

 50 53  0  0  0  0  0  0  0  0999 V2000
    4.2934    2.6202    2.5127 C   0  0  0  0  0  0  0  0  0  0  0  0
    3.4739    1.3612    2.2808 C   0  0  0  0  0  0  0  0  0  0  0  0
    2.5136    1.3769    1.5323 O   0  0  0  0  0  0  0  0  0  0  0  0
    3.8731    0.1062    2.9917 C   0  0  0  0  0  0  0  0  0  0  0  0
    4.9740    0.0214    3.8659 C   0  0  0  0  0  0  0  0  0  0  0  0
    5.2949   -1.1739    4.4965 C   0  0  0  0  0  0  0  0  0  0  0  0
    4.5241   -2.3335    4.2763 C   0  0  0  0  0  0  0  0  0  0  0  0
    4.9500   -3.4345    4.9350 O   0  0  0  0  0  0  0  0  0  0  0  0
    4.2686   -4.7105    4.9531 C   0  0  1  0  0  0  0  0  0  0  0  0
    2.9366   -4.5932    5.6955 C   0  0  0  0  0  0  0  0  0  0  0  0
    4.1892   -5.3488    3.5284 C   0  0  0  0  0  0  0  0  0  0  0  0
    5.0514   -6.6172    3.6159 C   0  0  0  0  0  0  0  0  0  0  0  0
    6.0253   -6.2791    4.6428 N   0  0  0  0  0  0  0  0  0  0  0  0
    6.9235   -7.3405    5.0603 C   0  0  0  0  0  0  0  0  0  0  0  0
    8.0854   -6.7986    5.8410 C   0  0  0  0  0  0  0  0  0  0  0  0
    8.7968   -7.3220    6.8975 C   0  0  0  0  0  0  0  0  0  0  0  0
    9.8440   -6.3853    7.2097 C   0  0  0  0  0  0  0  0  0  0  0  0
   10.8777   -6.3421    8.1656 C   0  0  0  0  0  0  0  0  0  0  0  0
   11.7270   -5.2400    8.1961 C   0  0  0  0  0  0  0  0  0  0  0  0
   11.5675   -4.1705    7.2877 C   0  0  0  0  0  0  0  0  0  0  0  0
   10.5565   -4.1831    6.3297 C   0  0  0  0  0  0  0  0  0  0  0  0
    9.7039   -5.2951    6.2983 C   0  0  0  0  0  0  0  0  0  0  0  0
    8.6364   -5.5857    5.4774 N   0  0  0  0  0  0  0  0  0  0  0  0
    8.2138   -4.9842    4.7802 H   0  0  0  0  0  0  0  0  0  0  0  0
    5.2452   -5.6483    5.6962 C   0  0  0  0  0  0  0  0  0  0  0  0
    3.4202   -2.2597    3.4034 C   0  0  0  0  0  0  0  0  0  0  0  0
    3.1113   -1.0536    2.7785 C   0  0  0  0  0  0  0  0  0  0  0  0
    3.8611    3.4353    1.9188 H   0  0  0  0  0  0  0  0  0  0  0  0
    5.3443    2.4700    2.2163 H   0  0  0  0  0  0  0  0  0  0  0  0
    4.2920    2.9035    3.5777 H   0  0  0  0  0  0  0  0  0  0  0  0
    5.5940    0.8985    4.0620 H   0  0  0  0  0  0  0  0  0  0  0  0
    6.1463   -1.2458    5.1761 H   0  0  0  0  0  0  0  0  0  0  0  0
    2.2516   -3.8794    5.2182 H   0  0  0  0  0  0  0  0  0  0  0  0
    3.1093   -4.2580    6.7301 H   0  0  0  0  0  0  0  0  0  0  0  0
    2.4365   -5.5728    5.7306 H   0  0  0  0  0  0  0  0  0  0  0  0
    4.6217   -4.6555    2.7954 H   0  0  0  0  0  0  0  0  0  0  0  0
    3.1558   -5.5650    3.2201 H   0  0  0  0  0  0  0  0  0  0  0  0
    5.5462   -6.8702    2.6645 H   0  0  0  0  0  0  0  0  0  0  0  0
    4.4282   -7.4942    3.9091 H   0  0  0  0  0  0  0  0  0  0  0  0
    7.2924   -7.8383    4.1443 H   0  0  0  0  0  0  0  0  0  0  0  0
    6.4148   -8.1274    5.6609 H   0  0  0  0  0  0  0  0  0  0  0  0
    8.5973   -8.2712    7.3914 H   0  0  0  0  0  0  0  0  0  0  0  0
   11.0094   -7.1641    8.8745 H   0  0  0  0  0  0  0  0  0  0  0  0
   12.5323   -5.1978    8.9339 H   0  0  0  0  0  0  0  0  0  0  0  0
   12.2505   -3.3185    7.3362 H   0  0  0  0  0  0  0  0  0  0  0  0
   10.4350   -3.3559    5.6256 H   0  0  0  0  0  0  0  0  0  0  0  0
    5.8734   -5.0860    6.4010 H   0  0  0  0  0  0  0  0  0  0  0  0
    4.6649   -6.4008    6.2772 H   0  0  0  0  0  0  0  0  0  0  0  0
    2.8007   -3.1318    3.2038 H   0  0  0  0  0  0  0  0  0  0  0  0
    2.2585   -0.9852    2.0998 H   0  0  0  0  0  0  0  0  0  0  0  0
  1  2  1  0
  1 28  1  0
  1 29  1  0
  1 30  1  0
  2  3  2  0
  2  4  1  0
  4  5  2  0
  4 27  1  0
  5  6  1  0
  5 31  1  0
  6  7  2  0
  6 32  1  0
  7  8  1  0
  7 26  1  0
  9  8  1  6
  9 10  1  0
  9 11  1  0
  9 25  1  0
 10 33  1  0
 10 34  1  0
 10 35  1  0
 11 12  1  0
 11 36  1  0
 11 37  1  0
 12 13  1  0
 12 38  1  0
 12 39  1  0
 13 14  1  0
 13 25  1  0
 14 15  1  0
 14 40  1  0
 14 41  1  0
 15 16  2  0
 15 23  1  0
 16 17  1  0
 16 42  1  0
 17 18  2  0
 17 22  1  0
 18 19  1  0
 18 43  1  0
 19 20  2  0
 19 44  1  0
 20 21  1  0
 20 45  1  0
 21 22  2  0
 21 46  1  0
 22 23  1  0
 23 24  1  0
 25 47  1  0
 25 48  1  0
 26 27  2  0
 26 49  1  0
 27 50  1  0
M  END

