
     RDKit          3D

 76 79  0  0  0  0  0  0  0  0999 V2000
    8.2938    0.8899    9.7619 C   0  0  0  0  0  0  0  0  0  0  0  0
    7.6080    1.2069    8.4399 C   0  0  1  0  0  0  0  0  0  0  0  0
    6.3179    2.0046    8.6167 C   0  0  0  0  0  0  0  0  0  0  0  0
    8.5628    1.9561    7.6698 O   0  0  0  0  0  0  0  0  0  0  0  0
    8.5121    2.0147    6.3229 C   0  0  0  0  0  0  0  0  0  0  0  0
    9.5040    2.8143    5.7133 C   0  0  0  0  0  0  0  0  0  0  0  0
    9.5642    2.9363    4.3337 C   0  0  0  0  0  0  0  0  0  0  0  0
    8.6335    2.2508    3.5379 C   0  0  0  0  0  0  0  0  0  0  0  0
    8.6703    2.4461    1.7612 S   0  0  1  0  0  0  0  0  0  0  0  0
    7.5595    1.6472    1.2175 O   0  0  0  0  0  0  0  0  0  0  0  0
    8.7763    3.8735    1.4413 O   0  0  0  0  0  0  0  0  0  0  0  0
   10.1631    1.7621    1.3466 N   0  0  0  0  0  0  0  0  0  0  0  0
   10.2194    0.2960    1.2944 C   0  0  0  0  0  0  0  0  0  0  0  0
    9.8650   -0.2653   -0.0921 C   0  0  0  0  0  0  0  0  0  0  0  0
   10.6453    0.3995   -1.2478 C   0  0  2  0  0  0  0  0  0  0  0  0
   12.0707   -0.0865   -1.4063 C   0  0  0  0  0  0  0  0  0  0  0  0
   12.7910   -0.9389   -0.5952 C   0  0  0  0  0  0  0  0  0  0  0  0
   14.0618   -1.1688   -1.1111 N   0  0  0  0  0  0  0  0  0  0  0  0
   15.0700   -2.0791   -0.5899 C   0  0  0  0  0  0  0  0  0  0  0  0
   16.3298   -1.3812   -0.0333 C   0  0  0  0  0  0  0  0  0  0  0  0
   16.6170   -1.4555    1.1343 O   0  0  0  0  0  0  0  0  0  0  0  0
   17.0804   -0.7266   -0.9123 O   0  0  0  0  0  0  0  0  0  0  0  0
   14.1745   -0.4584   -2.2745 C   0  0  0  0  0  0  0  0  0  0  0  0
   15.2662   -0.4449   -3.0379 N   0  0  0  0  0  0  0  0  0  0  0  0
   15.1928    0.2777   -4.1515 C   0  0  0  0  0  0  0  0  0  0  0  0
   16.3031    0.3462   -4.9965 N   0  0  0  0  0  0  0  0  0  0  0  0
   17.5703   -0.1783   -4.7956 C   0  0  0  0  0  0  0  0  0  0  0  0
   17.9401   -0.7893   -3.8210 O   0  0  0  0  0  0  0  0  0  0  0  0
   18.3118    0.1222   -5.8797 O   0  0  0  0  0  0  0  0  0  0  0  0
   19.7297   -0.2553   -5.9817 C   0  0  1  0  0  0  0  0  0  0  0  0
   19.8654   -1.7809   -5.9575 C   0  0  0  0  0  0  0  0  0  0  0  0
   20.1291    0.3046   -7.3479 C   0  0  0  0  0  0  0  0  0  0  0  0
   20.5300    0.4163   -4.8617 C   0  0  0  0  0  0  0  0  0  0  0  0
   14.0219    0.9934   -4.5237 C   0  0  0  0  0  0  0  0  0  0  0  0
   12.9013    0.9734   -3.7005 C   0  0  0  0  0  0  0  0  0  0  0  0
   12.9535    0.2290   -2.5088 C   0  0  0  0  0  0  0  0  0  0  0  0
   10.5488    1.9420   -1.1062 C   0  0  0  0  0  0  0  0  0  0  0  0
   10.9432    2.4244    0.2919 C   0  0  0  0  0  0  0  0  0  0  0  0
    7.6405    1.4683    4.1247 C   0  0  0  0  0  0  0  0  0  0  0  0
    7.5753    1.3457    5.5162 C   0  0  0  0  0  0  0  0  0  0  0  0
    7.6287    0.2958   10.4072 H   0  0  0  0  0  0  0  0  0  0  0  0
    8.5545    1.8198   10.2912 H   0  0  0  0  0  0  0  0  0  0  0  0
    9.2187    0.3191    9.5921 H   0  0  0  0  0  0  0  0  0  0  0  0
    7.3946    0.2587    7.9147 H   0  0  0  0  0  0  0  0  0  0  0  0
    6.5254    2.9481    9.1456 H   0  0  0  0  0  0  0  0  0  0  0  0
    5.5894    1.4282    9.2083 H   0  0  0  0  0  0  0  0  0  0  0  0
    5.8530    2.2500    7.6503 H   0  0  0  0  0  0  0  0  0  0  0  0
   10.2167    3.3301    6.3595 H   0  0  0  0  0  0  0  0  0  0  0  0
   10.3291    3.5600    3.8673 H   0  0  0  0  0  0  0  0  0  0  0  0
    9.5397   -0.1154    2.0551 H   0  0  0  0  0  0  0  0  0  0  0  0
   11.2394    0.0085    1.5995 H   0  0  0  0  0  0  0  0  0  0  0  0
    8.7904   -0.0889   -0.2524 H   0  0  0  0  0  0  0  0  0  0  0  0
   10.0184   -1.3573   -0.1011 H   0  0  0  0  0  0  0  0  0  0  0  0
   10.1239    0.1317   -2.1847 H   0  0  0  0  0  0  0  0  0  0  0  0
   12.4988   -1.4328    0.3283 H   0  0  0  0  0  0  0  0  0  0  0  0
   15.3695   -2.7778   -1.3904 H   0  0  0  0  0  0  0  0  0  0  0  0
   14.6302   -2.6516    0.2343 H   0  0  0  0  0  0  0  0  0  0  0  0
   16.7242   -0.7519   -1.8357 H   0  0  0  0  0  0  0  0  0  0  0  0
   16.1893    0.8670   -5.8576 H   0  0  0  0  0  0  0  0  0  0  0  0
   19.2410   -2.2346   -6.7432 H   0  0  0  0  0  0  0  0  0  0  0  0
   19.5663   -2.1915   -4.9848 H   0  0  0  0  0  0  0  0  0  0  0  0
   20.9125   -2.0612   -6.1504 H   0  0  0  0  0  0  0  0  0  0  0  0
   19.5188   -0.1454   -8.1456 H   0  0  0  0  0  0  0  0  0  0  0  0
   21.1877    0.0854   -7.5533 H   0  0  0  0  0  0  0  0  0  0  0  0
   19.9874    1.3956   -7.3772 H   0  0  0  0  0  0  0  0  0  0  0  0
   20.2365    0.0337   -3.8759 H   0  0  0  0  0  0  0  0  0  0  0  0
   20.3761    1.5066   -4.8803 H   0  0  0  0  0  0  0  0  0  0  0  0
   21.6038    0.2221   -5.0087 H   0  0  0  0  0  0  0  0  0  0  0  0
   14.0146    1.5675   -5.4529 H   0  0  0  0  0  0  0  0  0  0  0  0
   12.0065    1.5290   -3.9909 H   0  0  0  0  0  0  0  0  0  0  0  0
    9.5093    2.2545   -1.3028 H   0  0  0  0  0  0  0  0  0  0  0  0
   11.1814    2.4420   -1.8569 H   0  0  0  0  0  0  0  0  0  0  0  0
   10.8055    3.5085    0.3888 H   0  0  0  0  0  0  0  0  0  0  0  0
   12.0058    2.2019    0.4930 H   0  0  0  0  0  0  0  0  0  0  0  0
    6.9143    0.9613    3.4870 H   0  0  0  0  0  0  0  0  0  0  0  0
    6.7887    0.7323    5.9545 H   0  0  0  0  0  0  0  0  0  0  0  0
  1  2  1  0
  1 41  1  0
  1 42  1  0
  1 43  1  0
  2  3  1  0
  2  4  1  0
  2 44  1  6
  3 45  1  0
  3 46  1  0
  3 47  1  0
  4  5  1  0
  5  6  2  0
  5 40  1  0
  6  7  1  0
  6 48  1  0
  7  8  2  0
  7 49  1  0
  9  8  1  1
  8 39  1  0
  9 10  2  0
  9 11  2  0
  9 12  1  0
 12 13  1  0
 12 38  1  0
 13 14  1  0
 13 50  1  0
 13 51  1  0
 14 15  1  0
 14 52  1  0
 14 53  1  0
 15 16  1  0
 15 37  1  0
 15 54  1  6
 16 17  2  0
 16 36  1  0
 17 18  1  0
 17 55  1  0
 18 19  1  0
 18 23  1  0
 19 20  1  0
 19 56  1  0
 19 57  1  0
 20 21  2  0
 20 22  1  0
 22 58  1  0
 23 24  1  0
 23 36  2  0
 24 25  2  0
 25 26  1  0
 25 34  1  0
 26 27  1  0
 26 59  1  0
 27 28  2  0
 27 29  1  0
 30 29  1  1
 30 31  1  0
 30 32  1  0
 30 33  1  0
 31 60  1  0
 31 61  1  0
 31 62  1  0
 32 63  1  0
 32 64  1  0
 32 65  1  0
 33 66  1  0
 33 67  1  0
 33 68  1  0
 34 35  2  0
 34 69  1  0
 35 36  1  0
 35 70  1  0
 37 38  1  0
 37 71  1  0
 37 72  1  0
 38 73  1  0
 38 74  1  0
 39 40  2  0
 39 75  1  0
 40 76  1  0
M  END

