
     RDKit          3D

 44 44  0  0  0  0  0  0  0  0999 V2000
    0.8719    0.6549   -4.8913 C   0  0  0  0  0  0  0  0  0  0  0  0
    2.3429    0.3354   -4.6264 C   0  0  0  0  0  0  0  0  0  0  0  0
    2.9205    1.0805   -3.4231 C   0  0  0  0  0  0  0  0  0  0  0  0
    4.3066    0.7122   -3.1893 N   0  0  0  0  0  0  0  0  0  0  0  0
    4.9921    1.4380   -2.1259 C   0  0  1  0  0  0  0  0  0  0  0  0
    4.5324    0.9963   -0.7210 C   0  0  0  0  0  0  0  0  0  0  0  0
    4.7037   -0.4941   -0.4167 C   0  0  0  0  0  0  0  0  0  0  0  0
    6.4981    1.2577   -2.3080 C   0  0  0  0  0  0  0  0  0  0  0  0
    6.8515    1.7966   -3.5632 O   0  0  0  0  0  0  0  0  0  0  0  0
    8.1380    1.6644   -4.0238 C   0  0  0  0  0  0  0  0  0  0  0  0
    8.3562    2.1648   -5.3334 C   0  0  0  0  0  0  0  0  0  0  0  0
    9.6629    2.0701   -5.8845 C   0  0  0  0  0  0  0  0  0  0  0  0
   10.7160    1.5268   -5.1770 C   0  0  0  0  0  0  0  0  0  0  0  0
   10.5216    1.1276   -3.8031 C   0  0  0  0  0  0  0  0  0  0  0  0
   11.3779    0.0515   -3.3316 N   0  0  0  0  0  0  0  0  0  0  0  0
   12.4240    0.2870   -2.3776 C   0  0  0  0  0  0  0  0  0  0  0  0
   11.1883   -1.2913   -3.8255 C   0  0  0  0  0  0  0  0  0  0  0  0
    9.1600    1.1073   -3.2678 C   0  0  0  0  0  0  0  0  0  0  0  0
    0.4912    0.1018   -5.7645 H   0  0  0  0  0  0  0  0  0  0  0  0
    0.7205    1.7296   -5.0877 H   0  0  0  0  0  0  0  0  0  0  0  0
    0.2405    0.3860   -4.0275 H   0  0  0  0  0  0  0  0  0  0  0  0
    2.9419    0.5835   -5.5224 H   0  0  0  0  0  0  0  0  0  0  0  0
    2.4775   -0.7474   -4.4618 H   0  0  0  0  0  0  0  0  0  0  0  0
    2.3212    0.8295   -2.5294 H   0  0  0  0  0  0  0  0  0  0  0  0
    2.7904    2.1789   -3.5741 H   0  0  0  0  0  0  0  0  0  0  0  0
    4.8391    0.8546   -4.0479 H   0  0  0  0  0  0  0  0  0  0  0  0
    4.8004    2.5335   -2.2011 H   0  0  0  0  0  0  0  0  0  0  0  0
    3.4706    1.2705   -0.6027 H   0  0  0  0  0  0  0  0  0  0  0  0
    5.0745    1.6048    0.0244 H   0  0  0  0  0  0  0  0  0  0  0  0
    4.2227   -1.1040   -1.1960 H   0  0  0  0  0  0  0  0  0  0  0  0
    4.2559   -0.7527    0.5563 H   0  0  0  0  0  0  0  0  0  0  0  0
    5.7652   -0.7881   -0.3774 H   0  0  0  0  0  0  0  0  0  0  0  0
    6.7645    0.1851   -2.2718 H   0  0  0  0  0  0  0  0  0  0  0  0
    7.0399    1.7744   -1.4929 H   0  0  0  0  0  0  0  0  0  0  0  0
    7.5196    2.5813   -5.8924 H   0  0  0  0  0  0  0  0  0  0  0  0
    9.8484    2.4687   -6.8864 H   0  0  0  0  0  0  0  0  0  0  0  0
   11.7121    1.4752   -5.6271 H   0  0  0  0  0  0  0  0  0  0  0  0
   12.1751   -0.2193   -1.4240 H   0  0  0  0  0  0  0  0  0  0  0  0
   12.5275    1.3636   -2.2115 H   0  0  0  0  0  0  0  0  0  0  0  0
   13.3725   -0.1567   -2.7304 H   0  0  0  0  0  0  0  0  0  0  0  0
   11.7775   -2.0320   -3.2670 H   0  0  0  0  0  0  0  0  0  0  0  0
   11.4714   -1.3058   -4.8927 H   0  0  0  0  0  0  0  0  0  0  0  0
   10.1135   -1.5243   -3.7834 H   0  0  0  0  0  0  0  0  0  0  0  0
    8.9929    0.7987   -2.2352 H   0  0  0  0  0  0  0  0  0  0  0  0
  1  2  1  0
  1 19  1  0
  1 20  1  0
  1 21  1  0
  2  3  1  0
  2 22  1  0
  2 23  1  0
  3  4  1  0
  3 24  1  0
  3 25  1  0
  4  5  1  0
  4 26  1  0
  5  6  1  0
  5  8  1  0
  5 27  1  1
  6  7  1  0
  6 28  1  0
  6 29  1  0
  7 30  1  0
  7 31  1  0
  7 32  1  0
  8  9  1  0
  8 33  1  0
  8 34  1  0
  9 10  1  0
 10 11  2  0
 10 18  1  0
 11 12  1  0
 11 35  1  0
 12 13  2  0
 12 36  1  0
 13 14  1  0
 13 37  1  0
 14 15  1  0
 14 18  2  0
 15 16  1  0
 15 17  1  0
 16 38  1  0
 16 39  1  0
 16 40  1  0
 17 41  1  0
 17 42  1  0
 17 43  1  0
 18 44  1  0
M  END

