
     RDKit          3D

 46 48  0  0  0  0  0  0  0  0999 V2000
    6.7038   -4.3453   -0.0770 C   0  0  0  0  0  0  0  0  0  0  0  0
    6.0249   -3.0914   -0.0519 O   0  0  0  0  0  0  0  0  0  0  0  0
    6.7870   -1.9984   -0.2458 C   0  0  0  0  0  0  0  0  0  0  0  0
    7.9815   -2.0536   -0.4327 O   0  0  0  0  0  0  0  0  0  0  0  0
    5.9956   -0.7318   -0.2036 C   0  0  0  0  0  0  0  0  0  0  0  0
    4.6095   -0.7104    0.0146 C   0  0  0  0  0  0  0  0  0  0  0  0
    3.9473    0.5174    0.0400 C   0  0  0  0  0  0  0  0  0  0  0  0
    4.6334    1.7202   -0.1465 C   0  0  0  0  0  0  0  0  0  0  0  0
    6.0246    1.6993   -0.3658 C   0  0  0  0  0  0  0  0  0  0  0  0
    6.7942    2.8611   -0.5624 N   0  0  0  0  0  0  0  0  0  0  0  0
    6.3912    4.1773   -0.5789 C   0  0  0  0  0  0  0  0  0  0  0  0
    5.2384    4.5438   -0.4111 O   0  0  0  0  0  0  0  0  0  0  0  0
    7.5082    5.1489   -0.8263 C   0  0  1  0  0  0  0  0  0  0  0  0
    7.1982    6.3999   -1.6019 C   0  0  0  0  0  0  0  0  0  0  0  0
    7.4132    6.4962   -0.1194 C   0  0  2  0  0  0  0  0  0  0  0  0
    8.7084    7.0855    0.3697 C   0  0  0  0  0  0  0  0  0  0  0  0
    9.7592    6.9238   -0.2358 O   0  0  0  0  0  0  0  0  0  0  0  0
    8.6081    7.8027    1.5264 N   0  0  0  0  0  0  0  0  0  0  0  0
    9.7303    8.4628    2.1633 C   0  0  1  0  0  0  0  0  0  0  0  0
    9.6064    9.9922    2.2798 C   0  0  0  0  0  0  0  0  0  0  0  0
   10.7287   10.3488    3.2622 C   0  0  0  0  0  0  0  0  0  0  0  0
   10.7367    9.1897    4.2964 C   0  0  0  0  0  0  0  0  0  0  0  0
    9.9895    8.0099    3.6194 C   0  0  0  0  0  0  0  0  0  0  0  0
    6.6929    0.4663   -0.3922 C   0  0  0  0  0  0  0  0  0  0  0  0
    5.9388   -5.1117    0.0995 H   0  0  0  0  0  0  0  0  0  0  0  0
    7.4760   -4.3886    0.7062 H   0  0  0  0  0  0  0  0  0  0  0  0
    7.1901   -4.5084   -1.0509 H   0  0  0  0  0  0  0  0  0  0  0  0
    4.0691   -1.6456    0.1606 H   0  0  0  0  0  0  0  0  0  0  0  0
    2.8678    0.5472    0.2088 H   0  0  0  0  0  0  0  0  0  0  0  0
    4.1148    2.6758   -0.1259 H   0  0  0  0  0  0  0  0  0  0  0  0
    7.7826    2.6982   -0.7153 H   0  0  0  0  0  0  0  0  0  0  0  0
    8.5248    4.7591   -0.9299 H   0  0  0  0  0  0  0  0  0  0  0  0
    6.1719    6.5130   -1.9593 H   0  0  0  0  0  0  0  0  0  0  0  0
    7.9959    6.7867   -2.2403 H   0  0  0  0  0  0  0  0  0  0  0  0
    6.5172    6.6334    0.4928 H   0  0  0  0  0  0  0  0  0  0  0  0
    7.6956    7.8891    1.9600 H   0  0  0  0  0  0  0  0  0  0  0  0
   10.6014    8.2222    1.5354 H   0  0  0  0  0  0  0  0  0  0  0  0
    8.6194   10.2497    2.7079 H   0  0  0  0  0  0  0  0  0  0  0  0
    9.6873   10.5008    1.3068 H   0  0  0  0  0  0  0  0  0  0  0  0
   10.5971   11.3370    3.7285 H   0  0  0  0  0  0  0  0  0  0  0  0
   11.6889   10.3772    2.7207 H   0  0  0  0  0  0  0  0  0  0  0  0
   10.2248    9.4883    5.2245 H   0  0  0  0  0  0  0  0  0  0  0  0
   11.7639    8.9177    4.5829 H   0  0  0  0  0  0  0  0  0  0  0  0
    9.0204    7.8291    4.1160 H   0  0  0  0  0  0  0  0  0  0  0  0
   10.5450    7.0606    3.6583 H   0  0  0  0  0  0  0  0  0  0  0  0
    7.7717    0.4125   -0.5598 H   0  0  0  0  0  0  0  0  0  0  0  0
  1  2  1  0
  1 25  1  0
  1 26  1  0
  1 27  1  0
  2  3  1  0
  3  4  2  0
  3  5  1  0
  5  6  2  0
  5 24  1  0
  6  7  1  0
  6 28  1  0
  7  8  2  0
  7 29  1  0
  8  9  1  0
  8 30  1  0
  9 10  1  0
  9 24  2  0
 10 11  1  0
 10 31  1  0
 11 12  2  0
 11 13  1  0
 13 14  1  0
 13 15  1  0
 13 32  1  6
 14 15  1  0
 14 33  1  0
 14 34  1  0
 15 16  1  0
 15 35  1  1
 16 17  2  0
 16 18  1  0
 18 19  1  0
 18 36  1  0
 19 20  1  0
 19 23  1  0
 19 37  1  6
 20 21  1  0
 20 38  1  0
 20 39  1  0
 21 22  1  0
 21 40  1  0
 21 41  1  0
 22 23  1  0
 22 42  1  0
 22 43  1  0
 23 44  1  0
 23 45  1  0
 24 46  1  0
M  END

