
     RDKit          3D

 65 67  0  0  0  0  0  0  0  0999 V2000
   -6.4258   -4.2224   -1.2448 C   0  0  0  0  0  0  0  0  0  0  0  0
   -5.3820   -4.6985   -2.1999 C   0  0  0  0  0  0  0  0  0  0  0  0
   -5.5248   -4.5387   -3.6058 C   0  0  0  0  0  0  0  0  0  0  0  0
   -4.5366   -4.9917   -4.5105 C   0  0  0  0  0  0  0  0  0  0  0  0
   -3.3586   -5.6308   -4.0218 C   0  0  0  0  0  0  0  0  0  0  0  0
   -3.1962   -5.8002   -2.6126 C   0  0  0  0  0  0  0  0  0  0  0  0
   -2.0862   -6.4100   -2.0601 N   0  0  0  0  0  0  0  0  0  0  0  0
   -0.9566   -6.9530   -2.6573 C   0  0  0  0  0  0  0  0  0  0  0  0
   -0.7560   -6.9668   -3.8643 O   0  0  0  0  0  0  0  0  0  0  0  0
    0.0323   -7.5498   -1.6612 C   0  0  0  0  0  0  0  0  0  0  0  0
    1.1724   -8.0451   -2.3821 N   0  0  0  0  0  0  0  0  0  0  0  0
    2.1921   -8.6806   -1.7520 C   0  0  0  0  0  0  0  0  0  0  0  0
    2.2217   -8.8393   -0.5406 O   0  0  0  0  0  0  0  0  0  0  0  0
    3.3419   -9.1276   -2.6676 C   0  0  0  0  0  0  0  0  0  0  0  0
    4.0985  -10.2246   -2.0958 N   0  0  0  0  0  0  0  0  0  0  0  0
    5.1563   -9.8713   -1.1565 C   0  0  0  0  0  0  0  0  0  0  0  0
    6.3918   -9.2640   -1.8035 C   0  0  0  0  0  0  0  0  0  0  0  0
    7.1122   -8.2621   -1.1360 C   0  0  0  0  0  0  0  0  0  0  0  0
    8.2827   -7.7263   -1.6790 C   0  0  0  0  0  0  0  0  0  0  0  0
    8.7279   -8.1985   -2.9112 C   0  0  0  0  0  0  0  0  0  0  0  0
    9.8473   -7.6867   -3.4443 F   0  0  0  0  0  0  0  0  0  0  0  0
    8.0318   -9.1851   -3.6066 C   0  0  0  0  0  0  0  0  0  0  0  0
    6.8661   -9.7120   -3.0460 C   0  0  0  0  0  0  0  0  0  0  0  0
    3.5452  -11.4825   -2.2363 C   0  0  0  0  0  0  0  0  0  0  0  0
    2.5205  -11.6376   -2.8838 O   0  0  0  0  0  0  0  0  0  0  0  0
    4.2602  -12.6624   -1.5790 C   0  0  0  0  0  0  0  0  0  0  0  0
    3.7143  -14.0116   -2.0507 C   0  0  0  0  0  0  0  0  0  0  0  0
    4.3117  -15.2146   -1.3179 C   0  0  1  0  0  0  0  0  0  0  0  0
    3.7147  -16.5699   -1.7343 C   0  0  0  0  0  0  0  0  0  0  0  0
    4.6739  -17.6014   -1.1201 C   0  0  0  0  0  0  0  0  0  0  0  0
    6.0781  -16.9391   -1.1889 C   0  0  0  0  0  0  0  0  0  0  0  0
    5.8263  -15.4431   -1.5204 C   0  0  0  0  0  0  0  0  0  0  0  0
   -4.2003   -5.3364   -1.6973 C   0  0  0  0  0  0  0  0  0  0  0  0
   -7.2762   -3.7531   -1.7599 H   0  0  0  0  0  0  0  0  0  0  0  0
   -6.0108   -3.4877   -0.5254 H   0  0  0  0  0  0  0  0  0  0  0  0
   -6.8157   -5.0549   -0.6251 H   0  0  0  0  0  0  0  0  0  0  0  0
   -6.4252   -4.0525   -3.9901 H   0  0  0  0  0  0  0  0  0  0  0  0
   -4.6694   -4.8575   -5.5846 H   0  0  0  0  0  0  0  0  0  0  0  0
   -2.5851   -5.9924   -4.6936 H   0  0  0  0  0  0  0  0  0  0  0  0
   -2.1073   -6.4721   -1.0456 H   0  0  0  0  0  0  0  0  0  0  0  0
   -0.4519   -8.3598   -1.0797 H   0  0  0  0  0  0  0  0  0  0  0  0
    0.3347   -6.7896   -0.9143 H   0  0  0  0  0  0  0  0  0  0  0  0
    1.1041   -7.9957   -3.3962 H   0  0  0  0  0  0  0  0  0  0  0  0
    4.0179   -8.2701   -2.8188 H   0  0  0  0  0  0  0  0  0  0  0  0
    2.9455   -9.4287   -3.6468 H   0  0  0  0  0  0  0  0  0  0  0  0
    5.4478  -10.7720   -0.6001 H   0  0  0  0  0  0  0  0  0  0  0  0
    4.7450   -9.1762   -0.4067 H   0  0  0  0  0  0  0  0  0  0  0  0
    6.7529   -7.8910   -0.1717 H   0  0  0  0  0  0  0  0  0  0  0  0
    8.8484   -6.9454   -1.1669 H   0  0  0  0  0  0  0  0  0  0  0  0
    8.4077   -9.5253   -4.5737 H   0  0  0  0  0  0  0  0  0  0  0  0
    6.3081  -10.4783   -3.5895 H   0  0  0  0  0  0  0  0  0  0  0  0
    4.1340  -12.5722   -0.4841 H   0  0  0  0  0  0  0  0  0  0  0  0
    5.3449  -12.5945   -1.7642 H   0  0  0  0  0  0  0  0  0  0  0  0
    3.8898  -14.1158   -3.1361 H   0  0  0  0  0  0  0  0  0  0  0  0
    2.6197  -14.0054   -1.9303 H   0  0  0  0  0  0  0  0  0  0  0  0
    4.1253  -15.0881   -0.2327 H   0  0  0  0  0  0  0  0  0  0  0  0
    3.7218  -16.6447   -2.8373 H   0  0  0  0  0  0  0  0  0  0  0  0
    2.6697  -16.6987   -1.4091 H   0  0  0  0  0  0  0  0  0  0  0  0
    4.6366  -18.5770   -1.6293 H   0  0  0  0  0  0  0  0  0  0  0  0
    4.3934  -17.7827   -0.0691 H   0  0  0  0  0  0  0  0  0  0  0  0
    6.7092  -17.4102   -1.9588 H   0  0  0  0  0  0  0  0  0  0  0  0
    6.6166  -17.0567   -0.2354 H   0  0  0  0  0  0  0  0  0  0  0  0
    6.0792  -15.2400   -2.5764 H   0  0  0  0  0  0  0  0  0  0  0  0
    6.4469  -14.7673   -0.9112 H   0  0  0  0  0  0  0  0  0  0  0  0
   -4.0638   -5.4700   -0.6215 H   0  0  0  0  0  0  0  0  0  0  0  0
  1  2  1  0
  1 34  1  0
  1 35  1  0
  1 36  1  0
  2  3  2  0
  2 33  1  0
  3  4  1  0
  3 37  1  0
  4  5  2  0
  4 38  1  0
  5  6  1  0
  5 39  1  0
  6  7  1  0
  6 33  2  0
  7  8  1  0
  7 40  1  0
  8  9  2  0
  8 10  1  0
 10 11  1  0
 10 41  1  0
 10 42  1  0
 11 12  1  0
 11 43  1  0
 12 13  2  0
 12 14  1  0
 14 15  1  0
 14 44  1  0
 14 45  1  0
 15 16  1  0
 15 24  1  0
 16 17  1  0
 16 46  1  0
 16 47  1  0
 17 18  2  0
 17 23  1  0
 18 19  1  0
 18 48  1  0
 19 20  2  0
 19 49  1  0
 20 21  1  0
 20 22  1  0
 22 23  2  0
 22 50  1  0
 23 51  1  0
 24 25  2  0
 24 26  1  0
 26 27  1  0
 26 52  1  0
 26 53  1  0
 27 28  1  0
 27 54  1  0
 27 55  1  0
 28 29  1  0
 28 32  1  0
 28 56  1  1
 29 30  1  0
 29 57  1  0
 29 58  1  0
 30 31  1  0
 30 59  1  0
 30 60  1  0
 31 32  1  0
 31 61  1  0
 31 62  1  0
 32 63  1  0
 32 64  1  0
 33 65  1  0
M  END

