
     RDKit          3D

 44 47  0  0  0  0  0  0  0  0999 V2000
    3.5747    0.8401    1.2693 C   0  0  0  0  0  0  0  0  0  0  0  0
    3.9646    0.0242    0.0381 C   0  0  1  0  0  0  0  0  0  0  0  0
    2.7562   -0.5624   -0.7306 C   0  0  0  0  0  0  0  0  0  0  0  0
    2.3954    0.2296   -1.8625 N   0  0  0  0  0  0  0  0  0  0  0  0
    3.3659    1.0584   -2.2411 C   0  0  0  0  0  0  0  0  0  0  0  0
    3.2423    1.8137   -3.3270 N   0  0  0  0  0  0  0  0  0  0  0  0
    2.0321    1.7738   -4.1763 C   0  0  0  0  0  0  0  0  0  0  0  0
    1.5103    3.2023   -4.3943 C   0  0  0  0  0  0  0  0  0  0  0  0
    2.5512    4.0445   -4.9379 N   0  0  0  0  0  0  0  0  0  0  0  0
    2.4952    4.3457   -6.3119 C   0  0  0  0  0  0  0  0  0  0  0  0
    1.5091    4.0257   -6.9457 O   0  0  0  0  0  0  0  0  0  0  0  0
    3.6654    5.0828   -6.9422 C   0  0  0  0  0  0  0  0  0  0  0  0
    4.7729    4.1627   -7.3965 C   0  0  0  0  0  0  0  0  0  0  0  0
    5.1291    3.1087   -6.6141 N   0  0  0  0  0  0  0  0  0  0  0  0
    6.1994    2.4742   -7.3099 O   0  0  0  0  0  0  0  0  0  0  0  0
    6.4501    3.1619   -8.4582 C   0  0  0  0  0  0  0  0  0  0  0  0
    7.4143    2.8670   -9.4036 C   0  0  0  0  0  0  0  0  0  0  0  0
    7.4954    3.7374  -10.5371 C   0  0  0  0  0  0  0  0  0  0  0  0
    6.6278    4.8285  -10.6583 C   0  0  0  0  0  0  0  0  0  0  0  0
    5.6518    5.1261   -9.6970 C   0  0  0  0  0  0  0  0  0  0  0  0
    5.5521    4.2640   -8.5570 C   0  0  0  0  0  0  0  0  0  0  0  0
    3.7161    4.1322   -4.0883 C   0  0  0  0  0  0  0  0  0  0  0  0
    4.2922    2.7327   -3.7839 C   0  0  0  0  0  0  0  0  0  0  0  0
    4.8267    1.0566   -1.2334 S   0  0  0  0  0  0  0  0  0  0  0  0
    3.1024    0.1815    2.0163 H   0  0  0  0  0  0  0  0  0  0  0  0
    2.8613    1.6383    1.0123 H   0  0  0  0  0  0  0  0  0  0  0  0
    4.4553    1.3026    1.7373 H   0  0  0  0  0  0  0  0  0  0  0  0
    4.6715   -0.7709    0.3145 H   0  0  0  0  0  0  0  0  0  0  0  0
    1.8764   -0.6982   -0.0790 H   0  0  0  0  0  0  0  0  0  0  0  0
    2.9873   -1.5768   -1.1192 H   0  0  0  0  0  0  0  0  0  0  0  0
    1.2898    1.1261   -3.7005 H   0  0  0  0  0  0  0  0  0  0  0  0
    2.3356    1.3459   -5.1430 H   0  0  0  0  0  0  0  0  0  0  0  0
    1.1397    3.6132   -3.4376 H   0  0  0  0  0  0  0  0  0  0  0  0
    0.6837    3.1683   -5.1146 H   0  0  0  0  0  0  0  0  0  0  0  0
    4.0378    5.8747   -6.2646 H   0  0  0  0  0  0  0  0  0  0  0  0
    3.2459    5.5917   -7.8199 H   0  0  0  0  0  0  0  0  0  0  0  0
    8.0773    2.0092   -9.2846 H   0  0  0  0  0  0  0  0  0  0  0  0
    8.2417    3.5449  -11.3105 H   0  0  0  0  0  0  0  0  0  0  0  0
    6.7153    5.4762  -11.5364 H   0  0  0  0  0  0  0  0  0  0  0  0
    4.9894    5.9853   -9.8180 H   0  0  0  0  0  0  0  0  0  0  0  0
    3.4521    4.6467   -3.1448 H   0  0  0  0  0  0  0  0  0  0  0  0
    4.5179    4.6896   -4.5788 H   0  0  0  0  0  0  0  0  0  0  0  0
    5.0869    2.7893   -3.0291 H   0  0  0  0  0  0  0  0  0  0  0  0
    4.7034    2.3766   -4.7492 H   0  0  0  0  0  0  0  0  0  0  0  0
  1  2  1  0
  1 25  1  0
  1 26  1  0
  1 27  1  0
  2  3  1  0
  2 24  1  0
  2 28  1  1
  3  4  1  0
  3 29  1  0
  3 30  1  0
  4  5  2  0
  5  6  1  0
  5 24  1  0
  6  7  1  0
  6 23  1  0
  7  8  1  0
  7 31  1  0
  7 32  1  0
  8  9  1  0
  8 33  1  0
  8 34  1  0
  9 10  1  0
  9 22  1  0
 10 11  2  0
 10 12  1  0
 12 13  1  0
 12 35  1  0
 12 36  1  0
 13 14  2  0
 13 21  1  0
 14 15  1  0
 15 16  1  0
 16 17  1  0
 16 21  2  0
 17 18  2  0
 17 37  1  0
 18 19  1  0
 18 38  1  0
 19 20  2  0
 19 39  1  0
 20 21  1  0
 20 40  1  0
 22 23  1  0
 22 41  1  0
 22 42  1  0
 23 43  1  0
 23 44  1  0
M  END

