
     RDKit          3D

 28 29  0  0  0  0  0  0  0  0999 V2000
    0.8077   -0.1815    0.5183 C   0  0  0  0  0  0  0  0  0  0  0  0
    2.2813   -0.0012    0.2056 C   0  0  0  0  0  0  0  0  0  0  0  0
    3.0141   -0.9635    0.9400 O   0  0  0  0  0  0  0  0  0  0  0  0
    4.3984   -0.9811    0.7223 C   0  0  1  0  0  0  0  0  0  0  0  0
    5.0816    0.3033    1.2452 C   0  0  0  0  0  0  0  0  0  0  0  0
    4.5957    0.9248    2.1702 O   0  0  0  0  0  0  0  0  0  0  0  0
    6.3598    0.7311    0.6267 C   0  0  0  0  0  0  0  0  0  0  0  0
    7.0572    0.2748   -0.5531 C   0  0  0  0  0  0  0  0  0  0  0  0
    8.1751    1.0467   -0.6533 C   0  0  0  0  0  0  0  0  0  0  0  0
    8.2245    1.9427    0.3721 O   0  0  0  0  0  0  0  0  0  0  0  0
    7.1327    1.7507    1.1319 C   0  0  0  0  0  0  0  0  0  0  0  0
    4.9627   -2.1756    1.4718 C   0  0  1  0  0  0  0  0  0  0  0  0
    4.7601   -3.5631    0.9238 C   0  0  0  0  0  0  0  0  0  0  0  0
    6.1407   -2.9622    0.9531 C   0  0  0  0  0  0  0  0  0  0  0  0
    0.2014    0.5487   -0.0405 H   0  0  0  0  0  0  0  0  0  0  0  0
    0.6265   -0.0352    1.5941 H   0  0  0  0  0  0  0  0  0  0  0  0
    0.4729   -1.1954    0.2490 H   0  0  0  0  0  0  0  0  0  0  0  0
    2.6035    1.0228    0.4718 H   0  0  0  0  0  0  0  0  0  0  0  0
    2.4676   -0.1338   -0.8818 H   0  0  0  0  0  0  0  0  0  0  0  0
    4.6178   -1.0929   -0.3612 H   0  0  0  0  0  0  0  0  0  0  0  0
    6.7626   -0.5119   -1.2426 H   0  0  0  0  0  0  0  0  0  0  0  0
    8.9972    1.0863   -1.3630 H   0  0  0  0  0  0  0  0  0  0  0  0
    7.0093    2.3890    2.0026 H   0  0  0  0  0  0  0  0  0  0  0  0
    4.8808   -2.0602    2.5576 H   0  0  0  0  0  0  0  0  0  0  0  0
    4.2575   -3.6540   -0.0434 H   0  0  0  0  0  0  0  0  0  0  0  0
    4.5179   -4.3620    1.6298 H   0  0  0  0  0  0  0  0  0  0  0  0
    6.5902   -2.6607    0.0031 H   0  0  0  0  0  0  0  0  0  0  0  0
    6.8642   -3.3362    1.6825 H   0  0  0  0  0  0  0  0  0  0  0  0
  1  2  1  0
  1 15  1  0
  1 16  1  0
  1 17  1  0
  2  3  1  0
  2 18  1  0
  2 19  1  0
  3  4  1  0
  4  5  1  0
  4 12  1  0
  4 20  1  6
  5  6  2  0
  5  7  1  0
  7  8  1  0
  7 11  2  0
  8  9  2  0
  8 21  1  0
  9 10  1  0
  9 22  1  0
 10 11  1  0
 11 23  1  0
 12 13  1  0
 12 14  1  0
 12 24  1  1
 13 14  1  0
 13 25  1  0
 13 26  1  0
 14 27  1  0
 14 28  1  0
M  END

