
     RDKit          3D

 42 45  0  0  0  0  0  0  0  0999 V2000
    1.1112    0.1230   -1.2674 C   0  0  0  0  0  0  0  0  0  0  0  0
    2.4726    0.1762   -0.6590 C   0  0  0  0  0  0  0  0  0  0  0  0
    3.2024    1.2740   -0.1770 C   0  0  0  0  0  0  0  0  0  0  0  0
    4.4247    0.8032    0.3355 C   0  0  0  0  0  0  0  0  0  0  0  0
    5.5293    1.6069    0.9461 C   0  0  0  0  0  0  0  0  0  0  0  0
    4.4296   -0.6147    0.1427 C   0  0  0  0  0  0  0  0  0  0  0  0
    5.4270   -1.5416    0.4827 C   0  0  0  0  0  0  0  0  0  0  0  0
    5.4399   -2.9654    0.2859 C   0  0  0  0  0  0  0  0  0  0  0  0
    4.3225   -3.8447    0.0055 C   0  0  0  0  0  0  0  0  0  0  0  0
    3.1228   -3.6274   -0.2371 O   0  0  0  0  0  0  0  0  0  0  0  0
    4.8295   -5.1770    0.0515 N   0  0  0  0  0  0  0  0  0  0  0  0
    6.1574   -5.2003    0.3084 C   0  0  0  0  0  0  0  0  0  0  0  0
    6.9435   -6.2585    0.4282 N   0  0  0  0  0  0  0  0  0  0  0  0
    8.2356   -5.9782    0.6272 C   0  0  0  0  0  0  0  0  0  0  0  0
    8.7903   -4.7591    0.6507 N   0  0  0  0  0  0  0  0  0  0  0  0
    7.9831   -3.7071    0.5178 C   0  0  0  0  0  0  0  0  0  0  0  0
    8.5356   -2.4064    0.4104 N   0  0  0  0  0  0  0  0  0  0  0  0
    9.7884   -1.9384    0.6364 C   0  0  0  0  0  0  0  0  0  0  0  0
   10.0301   -0.5472    0.3999 C   0  0  0  0  0  0  0  0  0  0  0  0
   11.2825   -0.0067    0.6123 C   0  0  0  0  0  0  0  0  0  0  0  0
   12.3255   -0.8259    1.0650 C   0  0  0  0  0  0  0  0  0  0  0  0
   13.5218   -0.3014    1.2679 F   0  0  0  0  0  0  0  0  0  0  0  0
   12.1090   -2.2011    1.3071 C   0  0  0  0  0  0  0  0  0  0  0  0
   13.4332   -3.1672    1.8616 Cl  0  0  0  0  0  0  0  0  0  0  0  0
   10.8593   -2.7579    1.0993 C   0  0  0  0  0  0  0  0  0  0  0  0
    6.5890   -3.8272    0.4165 C   0  0  0  0  0  0  0  0  0  0  0  0
    3.2295   -0.9392   -0.4767 N   0  0  0  0  0  0  0  0  0  0  0  0
    2.9408   -1.9330   -0.5624 H   0  0  0  0  0  0  0  0  0  0  0  0
    0.6690    1.1281   -1.3126 H   0  0  0  0  0  0  0  0  0  0  0  0
    0.4294   -0.5226   -0.6853 H   0  0  0  0  0  0  0  0  0  0  0  0
    1.1364   -0.2851   -2.2936 H   0  0  0  0  0  0  0  0  0  0  0  0
    2.8667    2.3103   -0.2029 H   0  0  0  0  0  0  0  0  0  0  0  0
    5.2564    2.6711    1.0083 H   0  0  0  0  0  0  0  0  0  0  0  0
    6.4656    1.5458    0.3586 H   0  0  0  0  0  0  0  0  0  0  0  0
    5.7745    1.2698    1.9697 H   0  0  0  0  0  0  0  0  0  0  0  0
    6.2564   -1.1103    1.0492 H   0  0  0  0  0  0  0  0  0  0  0  0
    4.2416   -5.9911   -0.0835 H   0  0  0  0  0  0  0  0  0  0  0  0
    8.9144   -6.8270    0.7597 H   0  0  0  0  0  0  0  0  0  0  0  0
    7.8525   -1.7195    0.0925 H   0  0  0  0  0  0  0  0  0  0  0  0
    9.2118    0.0886    0.0558 H   0  0  0  0  0  0  0  0  0  0  0  0
   11.4853    1.0518    0.4406 H   0  0  0  0  0  0  0  0  0  0  0  0
   10.6740   -3.8187    1.2544 H   0  0  0  0  0  0  0  0  0  0  0  0
  1  2  1  0
  1 29  1  0
  1 30  1  0
  1 31  1  0
  2  3  2  0
  2 27  1  0
  3  4  1  0
  3 32  1  0
  4  5  1  0
  4  6  2  0
  5 33  1  0
  5 34  1  0
  5 35  1  0
  6  7  1  0
  6 27  1  0
  7  8  2  0
  7 36  1  0
  8  9  1  0
  8 26  1  0
  9 10  2  0
  9 11  1  0
 11 12  1  0
 11 37  1  0
 12 13  1  0
 12 26  2  0
 13 14  2  0
 14 15  1  0
 14 38  1  0
 15 16  2  0
 16 17  1  0
 16 26  1  0
 17 18  1  0
 17 39  1  0
 18 19  2  0
 18 25  1  0
 19 20  1  0
 19 40  1  0
 20 21  2  0
 20 41  1  0
 21 22  1  0
 21 23  1  0
 23 24  1  0
 23 25  2  0
 25 42  1  0
 27 28  1  0
M  END

