
     RDKit          3D

 35 37  0  0  0  0  0  0  0  0999 V2000
    1.0101   -0.6963   -0.3468 C   0  0  0  0  0  0  0  0  0  0  0  0
    2.3122    0.1244   -0.2867 C   0  0  1  0  0  0  0  0  0  0  0  0
    2.9972   -0.1357    1.0144 N   0  0  0  0  0  0  0  0  0  0  0  0
    2.7647    0.3375    2.2213 C   0  0  0  0  0  0  0  0  0  0  0  0
    1.7020    1.2727    2.4966 C   0  0  0  0  0  0  0  0  0  0  0  0
    1.4966    1.7376    3.7728 C   0  0  0  0  0  0  0  0  0  0  0  0
    2.3304    1.3098    4.8371 C   0  0  0  0  0  0  0  0  0  0  0  0
    2.1219    1.7850    6.1353 N   0  0  0  0  0  0  0  0  0  0  0  0
    1.2160    2.6716    6.6472 C   0  0  0  0  0  0  0  0  0  0  0  0
    1.4197    2.7862    7.9308 N   0  0  0  0  0  0  0  0  0  0  0  0
    2.4716    1.9660    8.2217 N   0  0  0  0  0  0  0  0  0  0  0  0
    2.9001    1.3720    7.1797 N   0  0  0  0  0  0  0  0  0  0  0  0
    3.3884    0.3960    4.5929 C   0  0  0  0  0  0  0  0  0  0  0  0
    3.6016   -0.0772    3.3237 C   0  0  0  0  0  0  0  0  0  0  0  0
    3.3142   -0.2089   -1.3696 C   0  0  0  0  0  0  0  0  0  0  0  0
    3.6420    0.7232   -2.3335 C   0  0  0  0  0  0  0  0  0  0  0  0
    4.6399    0.4750   -3.3128 C   0  0  0  0  0  0  0  0  0  0  0  0
    5.3148   -0.7826   -3.2322 C   0  0  0  0  0  0  0  0  0  0  0  0
    6.5860   -1.1083   -4.4195 Cl  0  0  0  0  0  0  0  0  0  0  0  0
    5.0336   -1.7250   -2.2729 C   0  0  0  0  0  0  0  0  0  0  0  0
    4.0413   -1.4666   -1.2564 C   0  0  0  0  0  0  0  0  0  0  0  0
    0.3146   -0.4641    0.4771 H   0  0  0  0  0  0  0  0  0  0  0  0
    1.2247   -1.7743   -0.3307 H   0  0  0  0  0  0  0  0  0  0  0  0
    0.5112   -0.4686   -1.2986 H   0  0  0  0  0  0  0  0  0  0  0  0
    2.0698    1.1979   -0.3185 H   0  0  0  0  0  0  0  0  0  0  0  0
    3.8013   -0.7665    0.8524 H   0  0  0  0  0  0  0  0  0  0  0  0
    1.0600    1.6128    1.6870 H   0  0  0  0  0  0  0  0  0  0  0  0
    0.6852    2.4421    3.9546 H   0  0  0  0  0  0  0  0  0  0  0  0
    0.4522    3.1889    6.0722 H   0  0  0  0  0  0  0  0  0  0  0  0
    4.0184    0.0837    5.4246 H   0  0  0  0  0  0  0  0  0  0  0  0
    4.4149   -0.7777    3.1286 H   0  0  0  0  0  0  0  0  0  0  0  0
    3.1350    1.6955   -2.3377 H   0  0  0  0  0  0  0  0  0  0  0  0
    4.8711    1.1894   -4.0993 H   0  0  0  0  0  0  0  0  0  0  0  0
    5.5771   -2.6721   -2.2799 H   0  0  0  0  0  0  0  0  0  0  0  0
    3.5625   -2.3386   -0.7872 H   0  0  0  0  0  0  0  0  0  0  0  0
  1  2  1  0
  1 22  1  0
  1 23  1  0
  1 24  1  0
  2  3  1  0
  2 15  1  0
  2 25  1  1
  3  4  1  0
  3 26  1  0
  4  5  2  0
  4 14  1  0
  5  6  1  0
  5 27  1  0
  6  7  2  0
  6 28  1  0
  7  8  1  0
  7 13  1  0
  8  9  1  0
  8 12  1  0
  9 10  2  0
  9 29  1  0
 10 11  1  0
 11 12  2  0
 13 14  2  0
 13 30  1  0
 14 31  1  0
 15 16  2  0
 15 21  1  0
 16 17  1  0
 16 32  1  0
 17 18  2  0
 17 33  1  0
 18 19  1  0
 18 20  1  0
 20 21  2  0
 20 34  1  0
 21 35  1  0
M  END

