
     RDKit          3D

 57 61  0  0  0  0  0  0  0  0999 V2000
    5.4928   -1.2034    0.4429 C   0  0  0  0  0  0  0  0  0  0  0  0
    6.9219   -1.3940    0.0616 C   0  0  0  0  0  0  0  0  0  0  0  0
    7.7830   -0.3335   -0.0756 N   0  0  0  0  0  0  0  0  0  0  0  0
    7.5195    0.6330    0.0678 H   0  0  0  0  0  0  0  0  0  0  0  0
    9.0452   -0.7700   -0.4341 C   0  0  0  0  0  0  0  0  0  0  0  0
   10.2192   -0.0488   -0.6792 C   0  0  0  0  0  0  0  0  0  0  0  0
   11.3582   -0.7713   -1.0294 C   0  0  0  0  0  0  0  0  0  0  0  0
   11.3229   -2.1778   -1.1315 C   0  0  0  0  0  0  0  0  0  0  0  0
   10.1512   -2.8898   -0.8861 C   0  0  0  0  0  0  0  0  0  0  0  0
    8.9846   -2.1877   -0.5306 C   0  0  0  0  0  0  0  0  0  0  0  0
    7.6237   -2.5705   -0.2112 C   0  0  0  0  0  0  0  0  0  0  0  0
    7.0955   -3.9146   -0.1829 C   0  0  0  0  0  0  0  0  0  0  0  0
    5.8706   -4.1778    0.1152 N   0  0  0  0  0  0  0  0  0  0  0  0
    5.4858   -5.4731    0.1069 N   0  0  0  0  0  0  0  0  0  0  0  0
    4.1951   -5.8346    0.4179 C   0  0  0  0  0  0  0  0  0  0  0  0
    3.3125   -5.0512    0.7224 O   0  0  0  0  0  0  0  0  0  0  0  0
    3.9303   -7.2952    0.3577 C   0  0  0  0  0  0  0  0  0  0  0  0
    4.6483   -8.4483    0.0542 C   0  0  0  0  0  0  0  0  0  0  0  0
    3.7175   -9.5123    0.2101 C   0  0  0  0  0  0  0  0  0  0  0  0
    3.9260  -10.9580    0.0166 C   0  0  0  0  0  0  0  0  0  0  0  0
    2.8730  -11.8640    0.2163 C   0  0  0  0  0  0  0  0  0  0  0  0
    3.0463  -13.2382    0.0375 C   0  0  0  0  0  0  0  0  0  0  0  0
    4.2981  -13.7397   -0.3519 C   0  0  0  0  0  0  0  0  0  0  0  0
    4.5739  -15.0563   -0.5533 O   0  0  0  0  0  0  0  0  0  0  0  0
    3.5504  -16.0150   -0.3948 C   0  0  0  0  0  0  0  0  0  0  0  0
    4.0797  -17.3951   -0.7117 C   0  0  0  0  0  0  0  0  0  0  0  0
    3.3528  -18.5225   -0.3015 C   0  0  0  0  0  0  0  0  0  0  0  0
    3.7852  -19.8119   -0.6134 C   0  0  0  0  0  0  0  0  0  0  0  0
    4.9676  -19.9783   -1.3408 C   0  0  0  0  0  0  0  0  0  0  0  0
    5.5219  -21.5910   -1.7337 Cl  0  0  0  0  0  0  0  0  0  0  0  0
    5.7106  -18.8697   -1.7524 C   0  0  0  0  0  0  0  0  0  0  0  0
    5.2620  -17.5842   -1.4377 C   0  0  0  0  0  0  0  0  0  0  0  0
    5.3624  -12.8452   -0.5538 C   0  0  0  0  0  0  0  0  0  0  0  0
    5.1750  -11.4798   -0.3716 C   0  0  0  0  0  0  0  0  0  0  0  0
    2.5206   -9.0312    0.5825 N   0  0  0  0  0  0  0  0  0  0  0  0
    2.6753   -7.7164    0.6625 N   0  0  0  0  0  0  0  0  0  0  0  0
    1.9148   -7.0969    0.9265 H   0  0  0  0  0  0  0  0  0  0  0  0
    5.2496   -0.1377    0.5750 H   0  0  0  0  0  0  0  0  0  0  0  0
    5.2577   -1.7436    1.3734 H   0  0  0  0  0  0  0  0  0  0  0  0
    4.8224   -1.6347   -0.3166 H   0  0  0  0  0  0  0  0  0  0  0  0
   10.2438    1.0410   -0.5997 H   0  0  0  0  0  0  0  0  0  0  0  0
   12.2922   -0.2401   -1.2278 H   0  0  0  0  0  0  0  0  0  0  0  0
   12.2328   -2.7161   -1.4080 H   0  0  0  0  0  0  0  0  0  0  0  0
   10.1456   -3.9796   -0.9704 H   0  0  0  0  0  0  0  0  0  0  0  0
    7.8015   -4.7302   -0.4342 H   0  0  0  0  0  0  0  0  0  0  0  0
    6.1629   -6.2001   -0.1328 H   0  0  0  0  0  0  0  0  0  0  0  0
    5.6921   -8.5222   -0.2404 H   0  0  0  0  0  0  0  0  0  0  0  0
    1.8988  -11.4758    0.5184 H   0  0  0  0  0  0  0  0  0  0  0  0
    2.1999  -13.9042    0.2058 H   0  0  0  0  0  0  0  0  0  0  0  0
    2.7022  -15.7771   -1.0677 H   0  0  0  0  0  0  0  0  0  0  0  0
    3.1552  -15.9932    0.6388 H   0  0  0  0  0  0  0  0  0  0  0  0
    2.4310  -18.3971    0.2748 H   0  0  0  0  0  0  0  0  0  0  0  0
    3.2170  -20.6862   -0.2918 H   0  0  0  0  0  0  0  0  0  0  0  0
    6.6342  -19.0149   -2.3153 H   0  0  0  0  0  0  0  0  0  0  0  0
    5.8392  -16.7143   -1.7529 H   0  0  0  0  0  0  0  0  0  0  0  0
    6.3321  -13.2473   -0.8537 H   0  0  0  0  0  0  0  0  0  0  0  0
    6.0215  -10.8094   -0.5365 H   0  0  0  0  0  0  0  0  0  0  0  0
  1  2  1  0
  1 38  1  0
  1 39  1  0
  1 40  1  0
  2  3  1  0
  2 11  2  0
  3  4  1  0
  3  5  1  0
  5  6  2  0
  5 10  1  0
  6  7  1  0
  6 41  1  0
  7  8  2  0
  7 42  1  0
  8  9  1  0
  8 43  1  0
  9 10  2  0
  9 44  1  0
 10 11  1  0
 11 12  1  0
 12 13  2  0
 12 45  1  0
 13 14  1  0
 14 15  1  0
 14 46  1  0
 15 16  2  0
 15 17  1  0
 17 18  2  0
 17 36  1  0
 18 19  1  0
 18 47  1  0
 19 20  1  0
 19 35  2  0
 20 21  2  0
 20 34  1  0
 21 22  1  0
 21 48  1  0
 22 23  2  0
 22 49  1  0
 23 24  1  0
 23 33  1  0
 24 25  1  0
 25 26  1  0
 25 50  1  0
 25 51  1  0
 26 27  2  0
 26 32  1  0
 27 28  1  0
 27 52  1  0
 28 29  2  0
 28 53  1  0
 29 30  1  0
 29 31  1  0
 31 32  2  0
 31 54  1  0
 32 55  1  0
 33 34  2  0
 33 56  1  0
 34 57  1  0
 35 36  1  0
 36 37  1  0
M  END

