
     RDKit          3D

 20 20  0  0  0  0  0  0  0  0999 V2000
    0.9522   -0.0341    0.0812 C   0  0  0  0  0  0  0  0  0  0  0  0
    2.4418   -0.0375   -0.0596 C   0  0  0  0  0  0  0  0  0  0  0  0
    3.1117    1.1980   -0.3689 C   0  0  0  0  0  0  0  0  0  0  0  0
    4.5114    1.1903   -0.5014 C   0  0  0  0  0  0  0  0  0  0  0  0
    5.2645    0.0078   -0.3370 C   0  0  0  0  0  0  0  0  0  0  0  0
    6.6795    0.0467   -0.4771 C   0  0  0  0  0  0  0  0  0  0  0  0
    7.5155   -1.0550   -0.3242 C   0  0  0  0  0  0  0  0  0  0  0  0
    8.8466   -1.0066   -0.4571 O   0  0  0  0  0  0  0  0  0  0  0  0
    4.5880   -1.2450   -0.0223 C   0  0  0  0  0  0  0  0  0  0  0  0
    3.1845   -1.2181    0.1035 C   0  0  0  0  0  0  0  0  0  0  0  0
    0.6338    0.6716    0.8734 H   0  0  0  0  0  0  0  0  0  0  0  0
    0.5484   -1.0290    0.3185 H   0  0  0  0  0  0  0  0  0  0  0  0
    0.4697    0.3282   -0.8478 H   0  0  0  0  0  0  0  0  0  0  0  0
    2.5389    2.1177   -0.4949 H   0  0  0  0  0  0  0  0  0  0  0  0
    5.0437    2.1177   -0.7356 H   0  0  0  0  0  0  0  0  0  0  0  0
    7.1499    1.0085   -0.7206 H   0  0  0  0  0  0  0  0  0  0  0  0
    7.1560   -2.0547   -0.0798 H   0  0  0  0  0  0  0  0  0  0  0  0
    9.1311   -0.1037   -0.6719 H   0  0  0  0  0  0  0  0  0  0  0  0
    5.1384   -2.1763    0.0984 H   0  0  0  0  0  0  0  0  0  0  0  0
    2.6480   -2.1433    0.3343 H   0  0  0  0  0  0  0  0  0  0  0  0
  1  2  1  0
  1 11  1  0
  1 12  1  0
  1 13  1  0
  2  3  2  0
  2 10  1  0
  3  4  1  0
  3 14  1  0
  4  5  2  0
  4 15  1  0
  5  6  1  0
  5  9  1  0
  6  7  2  0
  6 16  1  0
  7  8  1  0
  7 17  1  0
  8 18  1  0
  9 10  2  0
  9 19  1  0
 10 20  1  0
M  END

