
     RDKit          3D

 52 52  0  0  0  0  0  0  0  0999 V2000
    1.5760    0.4768    0.7088 C   0  0  0  0  0  0  0  0  0  0  0  0
    2.8981    0.2751   -0.0297 C   0  0  0  0  0  0  0  0  0  0  0  0
    3.3246   -1.1940   -0.0469 C   0  0  0  0  0  0  0  0  0  0  0  0
    4.5801   -1.4086   -0.6978 N   0  0  0  0  0  0  0  0  0  0  0  0
    4.9692   -2.6045   -1.4176 C   0  0  1  0  0  0  0  0  0  0  0  0
    4.2970   -2.6063   -2.8227 C   0  0  0  0  0  0  0  0  0  0  0  0
    4.5932   -1.4407   -3.7819 C   0  0  0  0  0  0  0  0  0  0  0  0
    4.0993   -1.7405   -5.1871 C   0  0  0  0  0  0  0  0  0  0  0  0
    2.7457   -1.5939   -5.4956 C   0  0  0  0  0  0  0  0  0  0  0  0
    2.2635   -1.9525   -6.8171 C   0  0  0  0  0  0  0  0  0  0  0  0
    3.1870   -2.4442   -7.7559 C   0  0  0  0  0  0  0  0  0  0  0  0
    2.6468   -2.7579   -8.9886 O   0  0  0  0  0  0  0  0  0  0  0  0
    3.4901   -3.2396   -9.9917 C   0  0  0  0  0  0  0  0  0  0  0  0
    4.5444   -2.6005   -7.4638 C   0  0  0  0  0  0  0  0  0  0  0  0
    5.0137   -2.2353   -6.1322 C   0  0  0  0  0  0  0  0  0  0  0  0
    6.5352   -2.6919   -1.3654 C   0  0  1  0  0  0  0  0  0  0  0  0
    6.9731   -3.1865    0.0265 C   0  0  0  0  0  0  0  0  0  0  0  0
    7.0681   -3.6299   -2.4496 C   0  0  0  0  0  0  0  0  0  0  0  0
    6.9528   -1.3282   -1.5288 O   0  0  0  0  0  0  0  0  0  0  0  0
    8.2936   -1.0342   -1.9133 C   0  0  0  0  0  0  0  0  0  0  0  0
    8.4971    0.4661   -1.8203 C   0  0  0  0  0  0  0  0  0  0  0  0
    1.2855    1.5368    0.6947 H   0  0  0  0  0  0  0  0  0  0  0  0
    1.6469    0.1631    1.7632 H   0  0  0  0  0  0  0  0  0  0  0  0
    0.7613   -0.0964    0.2388 H   0  0  0  0  0  0  0  0  0  0  0  0
    3.6936    0.8756    0.4450 H   0  0  0  0  0  0  0  0  0  0  0  0
    2.8089    0.6281   -1.0692 H   0  0  0  0  0  0  0  0  0  0  0  0
    2.5729   -1.8437   -0.5210 H   0  0  0  0  0  0  0  0  0  0  0  0
    3.4368   -1.5765    0.9914 H   0  0  0  0  0  0  0  0  0  0  0  0
    5.2659   -0.6497   -0.7854 H   0  0  0  0  0  0  0  0  0  0  0  0
    4.5528   -3.4604   -0.8617 H   0  0  0  0  0  0  0  0  0  0  0  0
    3.2087   -2.6900   -2.6729 H   0  0  0  0  0  0  0  0  0  0  0  0
    4.5921   -3.5516   -3.2954 H   0  0  0  0  0  0  0  0  0  0  0  0
    5.6746   -1.2387   -3.8050 H   0  0  0  0  0  0  0  0  0  0  0  0
    4.1159   -0.5171   -3.4040 H   0  0  0  0  0  0  0  0  0  0  0  0
    2.0444   -1.2041   -4.7517 H   0  0  0  0  0  0  0  0  0  0  0  0
    1.2192   -1.8421   -7.1067 H   0  0  0  0  0  0  0  0  0  0  0  0
    2.8661   -3.4183  -10.8814 H   0  0  0  0  0  0  0  0  0  0  0  0
    3.9834   -4.1907   -9.7096 H   0  0  0  0  0  0  0  0  0  0  0  0
    4.2865   -2.5170  -10.2579 H   0  0  0  0  0  0  0  0  0  0  0  0
    5.2509   -2.9788   -8.2001 H   0  0  0  0  0  0  0  0  0  0  0  0
    6.0819   -2.2830   -5.9035 H   0  0  0  0  0  0  0  0  0  0  0  0
    6.6348   -4.2184    0.2063 H   0  0  0  0  0  0  0  0  0  0  0  0
    6.5749   -2.5449    0.8286 H   0  0  0  0  0  0  0  0  0  0  0  0
    8.0698   -3.1790    0.1092 H   0  0  0  0  0  0  0  0  0  0  0  0
    6.5937   -4.6185   -2.3551 H   0  0  0  0  0  0  0  0  0  0  0  0
    8.1509   -3.7784   -2.3307 H   0  0  0  0  0  0  0  0  0  0  0  0
    6.8688   -3.2562   -3.4617 H   0  0  0  0  0  0  0  0  0  0  0  0
    8.4733   -1.3819   -2.9441 H   0  0  0  0  0  0  0  0  0  0  0  0
    9.0059   -1.5609   -1.2513 H   0  0  0  0  0  0  0  0  0  0  0  0
    7.7969    0.9959   -2.4840 H   0  0  0  0  0  0  0  0  0  0  0  0
    9.5216    0.7277   -2.1259 H   0  0  0  0  0  0  0  0  0  0  0  0
    8.3442    0.8232   -0.7896 H   0  0  0  0  0  0  0  0  0  0  0  0
  1  2  1  0
  1 22  1  0
  1 23  1  0
  1 24  1  0
  2  3  1  0
  2 25  1  0
  2 26  1  0
  3  4  1  0
  3 27  1  0
  3 28  1  0
  4  5  1  0
  4 29  1  0
  5  6  1  0
  5 16  1  0
  5 30  1  1
  6  7  1  0
  6 31  1  0
  6 32  1  0
  7  8  1  0
  7 33  1  0
  7 34  1  0
  8  9  2  0
  8 15  1  0
  9 10  1  0
  9 35  1  0
 10 11  2  0
 10 36  1  0
 11 12  1  0
 11 14  1  0
 12 13  1  0
 13 37  1  0
 13 38  1  0
 13 39  1  0
 14 15  2  0
 14 40  1  0
 15 41  1  0
 16 17  1  0
 16 18  1  0
 16 19  1  6
 17 42  1  0
 17 43  1  0
 17 44  1  0
 18 45  1  0
 18 46  1  0
 18 47  1  0
 19 20  1  0
 20 21  1  0
 20 48  1  0
 20 49  1  0
 21 50  1  0
 21 51  1  0
 21 52  1  0
M  END

