
     RDKit          3D

 26 28  0  0  0  0  0  0  0  0999 V2000
    1.4375   -0.2391   -0.8157 Cl  0  0  0  0  0  0  0  0  0  0  0  0
    3.1646   -0.2762   -0.5182 C   0  0  0  0  0  0  0  0  0  0  0  0
    3.9498    0.8216   -0.9053 C   0  0  0  0  0  0  0  0  0  0  0  0
    5.3324    0.8312   -0.6858 C   0  0  0  0  0  0  0  0  0  0  0  0
    5.9109   -0.2816   -0.0689 C   0  0  0  0  0  0  0  0  0  0  0  0
    7.2247   -0.5763    0.2772 N   0  0  0  0  0  0  0  0  0  0  0  0
    7.1498   -1.7543    0.8252 C   0  0  0  0  0  0  0  0  0  0  0  0
    8.1364   -2.4882    1.3811 N   0  0  0  0  0  0  0  0  0  0  0  0
    9.5392   -2.0994    1.3021 C   0  0  0  0  0  0  0  0  0  0  0  0
   10.2858   -2.6655    0.1101 C   0  0  1  0  0  0  0  0  0  0  0  0
   10.1765   -2.0032   -1.2408 C   0  0  0  0  0  0  0  0  0  0  0  0
   11.4614   -1.9092   -0.4585 C   0  0  0  0  0  0  0  0  0  0  0  0
    5.8967   -2.3099    0.8812 O   0  0  0  0  0  0  0  0  0  0  0  0
    5.0863   -1.3600    0.3036 C   0  0  0  0  0  0  0  0  0  0  0  0
    3.7177   -1.4073    0.1020 C   0  0  0  0  0  0  0  0  0  0  0  0
    3.4632    1.6733   -1.3832 H   0  0  0  0  0  0  0  0  0  0  0  0
    5.9436    1.6839   -0.9866 H   0  0  0  0  0  0  0  0  0  0  0  0
    7.8964   -3.4354    1.6472 H   0  0  0  0  0  0  0  0  0  0  0  0
   10.0288   -2.4145    2.2391 H   0  0  0  0  0  0  0  0  0  0  0  0
    9.5655   -1.0002    1.2748 H   0  0  0  0  0  0  0  0  0  0  0  0
   10.3723   -3.7592    0.1121 H   0  0  0  0  0  0  0  0  0  0  0  0
    9.5480   -1.1111   -1.3108 H   0  0  0  0  0  0  0  0  0  0  0  0
   10.1550   -2.6436   -2.1271 H   0  0  0  0  0  0  0  0  0  0  0  0
   11.7171   -0.9458   -0.0058 H   0  0  0  0  0  0  0  0  0  0  0  0
   12.3275   -2.4828   -0.8001 H   0  0  0  0  0  0  0  0  0  0  0  0
    3.1043   -2.2569    0.4012 H   0  0  0  0  0  0  0  0  0  0  0  0
  1  2  1  0
  2  3  2  0
  2 15  1  0
  3  4  1  0
  3 16  1  0
  4  5  2  0
  4 17  1  0
  5  6  1  0
  5 14  1  0
  6  7  2  0
  7  8  1  0
  7 13  1  0
  8  9  1  0
  8 18  1  0
  9 10  1  0
  9 19  1  0
  9 20  1  0
 10 11  1  0
 10 12  1  0
 10 21  1  6
 11 12  1  0
 11 22  1  0
 11 23  1  0
 12 24  1  0
 12 25  1  0
 13 14  1  0
 14 15  2  0
 15 26  1  0
M  END

