
     RDKit          3D

 34 35  0  0  0  0  0  0  0  0999 V2000
    2.6389   -5.9020    0.4150 F   0  0  0  0  0  0  0  0  0  0  0  0
    1.9661   -4.7631    0.1742 C   0  0  1  0  0  0  0  0  0  0  0  0
    1.5284   -4.8430   -1.1119 F   0  0  0  0  0  0  0  0  0  0  0  0
    0.8399   -4.8164    0.9348 F   0  0  0  0  0  0  0  0  0  0  0  0
    2.7798   -3.5322    0.4315 C   0  0  0  0  0  0  0  0  0  0  0  0
    4.0932   -3.6739    0.8766 C   0  0  0  0  0  0  0  0  0  0  0  0
    4.9034   -2.5627    1.1352 C   0  0  0  0  0  0  0  0  0  0  0  0
    4.3693   -1.2726    0.9382 C   0  0  0  0  0  0  0  0  0  0  0  0
    3.0707   -1.1031    0.4970 C   0  0  0  0  0  0  0  0  0  0  0  0
    2.2150   -2.2183    0.2217 C   0  0  0  0  0  0  0  0  0  0  0  0
    0.8861   -2.0069   -0.2347 C   0  0  0  0  0  0  0  0  0  0  0  0
    0.3507   -0.8023   -0.4316 N   0  0  0  0  0  0  0  0  0  0  0  0
   -0.9703   -0.8796   -0.8918 N   0  0  0  0  0  0  0  0  0  0  0  0
   -1.5995    0.2357   -1.1321 C   0  0  0  0  0  0  0  0  0  0  0  0
   -0.7272    1.7322   -0.8493 S   0  0  0  0  0  0  0  0  0  0  0  0
   -2.8697    0.3035   -1.5919 N   0  0  0  0  0  0  0  0  0  0  0  0
   -3.7065   -0.7898   -1.9655 C   0  0  0  0  0  0  0  0  0  0  0  0
   -5.0052   -0.8594   -1.4438 C   0  0  0  0  0  0  0  0  0  0  0  0
   -5.8531   -1.9006   -1.8276 C   0  0  0  0  0  0  0  0  0  0  0  0
   -5.4052   -2.8837   -2.7145 C   0  0  0  0  0  0  0  0  0  0  0  0
   -4.1082   -2.8126   -3.2316 C   0  0  0  0  0  0  0  0  0  0  0  0
   -3.2591   -1.7634   -2.8710 C   0  0  0  0  0  0  0  0  0  0  0  0
    4.4920   -4.6786    1.0246 H   0  0  0  0  0  0  0  0  0  0  0  0
    5.9290   -2.6979    1.4832 H   0  0  0  0  0  0  0  0  0  0  0  0
    4.9884   -0.3928    1.1359 H   0  0  0  0  0  0  0  0  0  0  0  0
    2.6660   -0.1022    0.3463 H   0  0  0  0  0  0  0  0  0  0  0  0
    0.2638   -2.8900   -0.4364 H   0  0  0  0  0  0  0  0  0  0  0  0
   -1.4451   -1.7793   -0.9926 H   0  0  0  0  0  0  0  0  0  0  0  0
   -3.3072    1.2171   -1.5463 H   0  0  0  0  0  0  0  0  0  0  0  0
   -5.3460   -0.1007   -0.7349 H   0  0  0  0  0  0  0  0  0  0  0  0
   -6.8659   -1.9476   -1.4207 H   0  0  0  0  0  0  0  0  0  0  0  0
   -6.0667   -3.7029   -3.0048 H   0  0  0  0  0  0  0  0  0  0  0  0
   -3.7549   -3.5702   -3.9348 H   0  0  0  0  0  0  0  0  0  0  0  0
   -2.2605   -1.6912   -3.3069 H   0  0  0  0  0  0  0  0  0  0  0  0
  2  1  1  1
  2  3  1  0
  2  4  1  0
  2  5  1  0
  5  6  2  0
  5 10  1  0
  6  7  1  0
  6 23  1  0
  7  8  2  0
  7 24  1  0
  8  9  1  0
  8 25  1  0
  9 10  2  0
  9 26  1  0
 10 11  1  0
 11 12  2  0
 11 27  1  0
 12 13  1  0
 13 14  1  0
 13 28  1  0
 14 15  2  0
 14 16  1  0
 16 17  1  0
 16 29  1  0
 17 18  2  0
 17 22  1  0
 18 19  1  0
 18 30  1  0
 19 20  2  0
 19 31  1  0
 20 21  1  0
 20 32  1  0
 21 22  2  0
 21 33  1  0
 22 34  1  0
M  END

