
     RDKit          3D

 47 49  0  0  0  0  0  0  0  0999 V2000
    2.9326   -1.3824   -0.5685 C   0  0  0  0  0  0  0  0  0  0  0  0
    2.5103   -0.0737    0.1011 C   0  0  1  0  0  0  0  0  0  0  0  0
    2.6832   -0.1612    1.6326 C   0  0  0  0  0  0  0  0  0  0  0  0
    2.2155    1.0380    2.3545 N   0  0  0  0  0  0  0  0  0  0  0  0
    0.7529    1.0842    2.4391 C   0  0  0  0  0  0  0  0  0  0  0  0
    2.8360    1.2040    3.6878 C   0  0  1  0  0  0  0  0  0  0  0  0
    4.3640    1.1405    3.6855 C   0  0  0  0  0  0  0  0  0  0  0  0
    5.1357    2.0145    2.9017 C   0  0  0  0  0  0  0  0  0  0  0  0
    6.5302    1.9491    2.9428 C   0  0  0  0  0  0  0  0  0  0  0  0
    7.1710    1.0230    3.7724 C   0  0  0  0  0  0  0  0  0  0  0  0
    6.4097    0.1572    4.5615 C   0  0  0  0  0  0  0  0  0  0  0  0
    5.0138    0.2170    4.5169 C   0  0  0  0  0  0  0  0  0  0  0  0
    2.3989    2.5029    4.3158 C   0  0  0  0  0  0  0  0  0  0  0  0
    2.0067    2.7022    5.5345 N   0  0  0  0  0  0  0  0  0  0  0  0
    1.8057    4.0690    5.5708 C   0  0  0  0  0  0  0  0  0  0  0  0
    1.3505    4.7869    6.7709 C   0  0  0  0  0  0  0  0  0  0  0  0
    1.1099    4.0755    7.9576 C   0  0  0  0  0  0  0  0  0  0  0  0
    0.6785    4.7491    9.1020 C   0  0  0  0  0  0  0  0  0  0  0  0
    0.4845    6.1333    9.0711 C   0  0  0  0  0  0  0  0  0  0  0  0
    0.7236    6.8457    7.8897 C   0  0  0  0  0  0  0  0  0  0  0  0
    1.1545    6.1793    6.7433 C   0  0  0  0  0  0  0  0  0  0  0  0
    2.0541    4.6659    4.4264 N   0  0  0  0  0  0  0  0  0  0  0  0
    2.4504    3.6285    3.5912 O   0  0  0  0  0  0  0  0  0  0  0  0
    3.2390    1.1311   -0.5331 C   0  0  0  0  0  0  0  0  0  0  0  0
    3.7918    1.0692   -1.6010 O   0  0  0  0  0  0  0  0  0  0  0  0
    3.1706    2.2734    0.1615 O   0  0  0  0  0  0  0  0  0  0  0  0
    2.3200   -2.2247   -0.2104 H   0  0  0  0  0  0  0  0  0  0  0  0
    3.9898   -1.6101   -0.3575 H   0  0  0  0  0  0  0  0  0  0  0  0
    2.8282   -1.3045   -1.6584 H   0  0  0  0  0  0  0  0  0  0  0  0
    1.4399    0.0935   -0.1225 H   0  0  0  0  0  0  0  0  0  0  0  0
    3.7509   -0.2999    1.8518 H   0  0  0  0  0  0  0  0  0  0  0  0
    2.1622   -1.0672    2.0041 H   0  0  0  0  0  0  0  0  0  0  0  0
    0.3154    0.9791    1.4372 H   0  0  0  0  0  0  0  0  0  0  0  0
    0.4171    2.0498    2.8413 H   0  0  0  0  0  0  0  0  0  0  0  0
    0.3473    0.2751    3.0801 H   0  0  0  0  0  0  0  0  0  0  0  0
    2.4714    0.4215    4.3815 H   0  0  0  0  0  0  0  0  0  0  0  0
    4.6528    2.7412    2.2468 H   0  0  0  0  0  0  0  0  0  0  0  0
    7.1185    2.6290    2.3220 H   0  0  0  0  0  0  0  0  0  0  0  0
    8.2625    0.9772    3.8031 H   0  0  0  0  0  0  0  0  0  0  0  0
    6.9013   -0.5687    5.2139 H   0  0  0  0  0  0  0  0  0  0  0  0
    4.4221   -0.4629    5.1361 H   0  0  0  0  0  0  0  0  0  0  0  0
    1.2661    2.9955    7.9676 H   0  0  0  0  0  0  0  0  0  0  0  0
    0.4934    4.1903   10.0228 H   0  0  0  0  0  0  0  0  0  0  0  0
    0.1470    6.6592    9.9679 H   0  0  0  0  0  0  0  0  0  0  0  0
    0.5733    7.9279    7.8632 H   0  0  0  0  0  0  0  0  0  0  0  0
    1.3437    6.7276    5.8185 H   0  0  0  0  0  0  0  0  0  0  0  0
    2.7585    2.0887    1.0495 H   0  0  0  0  0  0  0  0  0  0  0  0
  1  2  1  0
  1 27  1  0
  1 28  1  0
  1 29  1  0
  2  3  1  0
  2 24  1  0
  2 30  1  1
  3  4  1  0
  3 31  1  0
  3 32  1  0
  4  5  1  0
  4  6  1  0
  5 33  1  0
  5 34  1  0
  5 35  1  0
  6  7  1  0
  6 13  1  0
  6 36  1  1
  7  8  2  0
  7 12  1  0
  8  9  1  0
  8 37  1  0
  9 10  2  0
  9 38  1  0
 10 11  1  0
 10 39  1  0
 11 12  2  0
 11 40  1  0
 12 41  1  0
 13 14  2  0
 13 23  1  0
 14 15  1  0
 15 16  1  0
 15 22  2  0
 16 17  2  0
 16 21  1  0
 17 18  1  0
 17 42  1  0
 18 19  2  0
 18 43  1  0
 19 20  1  0
 19 44  1  0
 20 21  2  0
 20 45  1  0
 21 46  1  0
 22 23  1  0
 24 25  2  0
 24 26  1  0
 26 47  1  0
M  END

