
     RDKit          3D

 78 81  0  0  0  0  0  0  0  0999 V2000
    0.2010   -2.9162   -2.6307 C   0  0  0  0  0  0  0  0  0  0  0  0
    0.3343   -4.3830   -2.2556 C   0  0  0  0  0  0  0  0  0  0  0  0
    1.7081   -4.8110   -2.2156 O   0  0  0  0  0  0  0  0  0  0  0  0
    2.3950   -4.5834   -1.0717 C   0  0  0  0  0  0  0  0  0  0  0  0
    1.8876   -4.0326   -0.1141 O   0  0  0  0  0  0  0  0  0  0  0  0
    3.7998   -5.0373   -1.0994 C   0  0  0  0  0  0  0  0  0  0  0  0
    4.4917   -5.3469   -2.2367 C   0  0  0  0  0  0  0  0  0  0  0  0
    3.9474   -5.5075   -3.6340 C   0  0  0  0  0  0  0  0  0  0  0  0
    5.8682   -5.4804   -2.1489 N   0  0  0  0  0  0  0  0  0  0  0  0
    6.6232   -5.0445   -1.0736 C   0  0  0  0  0  0  0  0  0  0  0  0
    8.0942   -4.8976   -1.3574 C   0  0  0  0  0  0  0  0  0  0  0  0
    5.9851   -4.7648    0.1030 C   0  0  0  0  0  0  0  0  0  0  0  0
    6.7476   -4.2003    1.2348 C   0  0  0  0  0  0  0  0  0  0  0  0
    7.9215   -3.8829    1.2174 O   0  0  0  0  0  0  0  0  0  0  0  0
    5.9799   -4.0651    2.3423 O   0  0  0  0  0  0  0  0  0  0  0  0
    6.5961   -3.5275    3.5313 C   0  0  0  0  0  0  0  0  0  0  0  0
    7.3696   -4.5869    4.2985 C   0  0  0  0  0  0  0  0  0  0  0  0
    4.5036   -5.0851    0.2600 C   0  0  2  0  0  0  0  0  0  0  0  0
    4.2604   -6.4492    0.9519 C   0  0  0  0  0  0  0  0  0  0  0  0
    5.0744   -7.5322    0.5841 C   0  0  0  0  0  0  0  0  0  0  0  0
    4.8480   -8.8161    1.0717 C   0  0  0  0  0  0  0  0  0  0  0  0
    5.9813  -10.2523    0.5255 Br  0  0  0  0  0  0  0  0  0  0  0  0
    3.7976   -9.0685    1.9518 C   0  0  0  0  0  0  0  0  0  0  0  0
    2.9975   -7.9973    2.3444 C   0  0  0  0  0  0  0  0  0  0  0  0
    1.5679   -8.3567    3.5551 Br  0  0  0  0  0  0  0  0  0  0  0  0
    3.2083   -6.6804    1.8764 C   0  0  0  0  0  0  0  0  0  0  0  0
    2.3263   -5.7351    2.2853 O   0  0  0  0  0  0  0  0  0  0  0  0
    2.7661   -4.5158    2.8878 C   0  0  0  0  0  0  0  0  0  0  0  0
    2.2659   -4.3986    4.2951 C   0  0  0  0  0  0  0  0  0  0  0  0
    1.0718   -4.8065    4.8646 C   0  0  0  0  0  0  0  0  0  0  0  0
    1.1667   -4.4106    6.1591 N   0  0  0  0  0  0  0  0  0  0  0  0
    0.2114   -4.5740    7.2433 C   0  0  0  0  0  0  0  0  0  0  0  0
   -0.3900   -3.2718    7.8160 C   0  0  0  0  0  0  0  0  0  0  0  0
   -1.5504   -3.2669    8.1800 O   0  0  0  0  0  0  0  0  0  0  0  0
    0.4927   -2.2334    7.9169 N   0  0  0  0  0  0  0  0  0  0  0  0
    0.2664   -0.9379    8.4098 C   0  0  0  0  0  0  0  0  0  0  0  0
   -0.9713   -0.5106    8.9259 C   0  0  0  0  0  0  0  0  0  0  0  0
   -1.1105    0.7982    9.3875 C   0  0  0  0  0  0  0  0  0  0  0  0
   -0.0344    1.6947    9.3498 C   0  0  0  0  0  0  0  0  0  0  0  0
   -0.2469    3.3868    9.8960 S   0  0  0  0  0  0  0  0  0  0  0  0
    0.2187    3.1955   11.6542 C   0  0  1  0  0  0  0  0  0  0  0  0
    1.4743    2.7569   11.8128 F   0  0  0  0  0  0  0  0  0  0  0  0
    0.1184    4.3963   12.2334 F   0  0  0  0  0  0  0  0  0  0  0  0
   -0.5779    2.3444   12.3117 F   0  0  0  0  0  0  0  0  0  0  0  0
    1.1988    1.2677    8.8360 C   0  0  0  0  0  0  0  0  0  0  0  0
    1.3474   -0.0354    8.3720 C   0  0  0  0  0  0  0  0  0  0  0  0
    2.3407   -3.7917    6.3772 N   0  0  0  0  0  0  0  0  0  0  0  0
    3.0022   -3.7821    5.2588 N   0  0  0  0  0  0  0  0  0  0  0  0
   -0.8644   -2.6491   -2.7201 H   0  0  0  0  0  0  0  0  0  0  0  0
    0.6876   -2.7071   -3.5966 H   0  0  0  0  0  0  0  0  0  0  0  0
    0.6505   -2.2742   -1.8594 H   0  0  0  0  0  0  0  0  0  0  0  0
   -0.1351   -5.0311   -3.0102 H   0  0  0  0  0  0  0  0  0  0  0  0
   -0.1273   -4.5796   -1.2770 H   0  0  0  0  0  0  0  0  0  0  0  0
    3.1289   -6.2374   -3.6600 H   0  0  0  0  0  0  0  0  0  0  0  0
    4.7402   -5.8386   -4.3227 H   0  0  0  0  0  0  0  0  0  0  0  0
    3.5356   -4.5604   -4.0119 H   0  0  0  0  0  0  0  0  0  0  0  0
    6.3666   -5.6993   -3.0021 H   0  0  0  0  0  0  0  0  0  0  0  0
    8.3518   -5.3608   -2.3233 H   0  0  0  0  0  0  0  0  0  0  0  0
    8.7029   -5.3483   -0.5639 H   0  0  0  0  0  0  0  0  0  0  0  0
    8.3814   -3.8357   -1.3877 H   0  0  0  0  0  0  0  0  0  0  0  0
    5.7536   -3.1475    4.1270 H   0  0  0  0  0  0  0  0  0  0  0  0
    7.2510   -2.6928    3.2406 H   0  0  0  0  0  0  0  0  0  0  0  0
    6.7188   -5.4352    4.5611 H   0  0  0  0  0  0  0  0  0  0  0  0
    7.7592   -4.1542    5.2340 H   0  0  0  0  0  0  0  0  0  0  0  0
    8.2213   -4.9567    3.7096 H   0  0  0  0  0  0  0  0  0  0  0  0
    4.0487   -4.3042    0.8703 H   0  0  0  0  0  0  0  0  0  0  0  0
    5.8978   -7.3682   -0.1094 H   0  0  0  0  0  0  0  0  0  0  0  0
    3.6078  -10.0701    2.3364 H   0  0  0  0  0  0  0  0  0  0  0  0
    2.3766   -3.6972    2.2623 H   0  0  0  0  0  0  0  0  0  0  0  0
    3.8601   -4.4463    2.9063 H   0  0  0  0  0  0  0  0  0  0  0  0
    0.2192   -5.3475    4.4658 H   0  0  0  0  0  0  0  0  0  0  0  0
    0.6985   -5.1228    8.0660 H   0  0  0  0  0  0  0  0  0  0  0  0
   -0.6309   -5.1748    6.8827 H   0  0  0  0  0  0  0  0  0  0  0  0
    1.4363   -2.4278    7.5707 H   0  0  0  0  0  0  0  0  0  0  0  0
   -1.8070   -1.2056    8.9578 H   0  0  0  0  0  0  0  0  0  0  0  0
   -2.0710    1.1294    9.7875 H   0  0  0  0  0  0  0  0  0  0  0  0
    2.0418    1.9605    8.8031 H   0  0  0  0  0  0  0  0  0  0  0  0
    2.3106   -0.3620    7.9705 H   0  0  0  0  0  0  0  0  0  0  0  0
  1  2  1  0
  1 49  1  0
  1 50  1  0
  1 51  1  0
  2  3  1  0
  2 52  1  0
  2 53  1  0
  3  4  1  0
  4  5  2  0
  4  6  1  0
  6  7  2  0
  6 18  1  0
  7  8  1  0
  7  9  1  0
  8 54  1  0
  8 55  1  0
  8 56  1  0
  9 10  1  0
  9 57  1  0
 10 11  1  0
 10 12  2  0
 11 58  1  0
 11 59  1  0
 11 60  1  0
 12 13  1  0
 12 18  1  0
 13 14  2  0
 13 15  1  0
 15 16  1  0
 16 17  1  0
 16 61  1  0
 16 62  1  0
 17 63  1  0
 17 64  1  0
 17 65  1  0
 18 19  1  0
 18 66  1  1
 19 20  2  0
 19 26  1  0
 20 21  1  0
 20 67  1  0
 21 22  1  0
 21 23  2  0
 23 24  1  0
 23 68  1  0
 24 25  1  0
 24 26  2  0
 26 27  1  0
 27 28  1  0
 28 29  1  0
 28 69  1  0
 28 70  1  0
 29 30  2  0
 29 48  1  0
 30 31  1  0
 30 71  1  0
 31 32  1  0
 31 47  1  0
 32 33  1  0
 32 72  1  0
 32 73  1  0
 33 34  2  0
 33 35  1  0
 35 36  1  0
 35 74  1  0
 36 37  2  0
 36 46  1  0
 37 38  1  0
 37 75  1  0
 38 39  2  0
 38 76  1  0
 39 40  1  0
 39 45  1  0
 40 41  1  0
 41 42  1  6
 41 43  1  0
 41 44  1  0
 45 46  2  0
 45 77  1  0
 46 78  1  0
 47 48  2  0
M  END

