
     RDKit          3D

 49 56  0  0  0  0  0  0  0  0999 V2000
    5.7447   -1.9880    0.4703 O   0  0  0  0  0  0  0  0  0  0  0  0
    5.2061   -2.0563   -0.8916 S   0  0  2  0  0  0  0  0  0  0  0  0
    5.5004   -3.2209   -1.7346 O   0  0  0  0  0  0  0  0  0  0  0  0
    5.5323   -0.5480   -1.7997 C   0  0  0  0  0  0  0  0  0  0  0  0
    4.3862    0.1130   -2.0912 C   0  0  0  0  0  0  0  0  0  0  0  0
    3.1555   -0.5014   -1.5869 C   0  0  0  0  0  0  0  0  0  0  0  0
    1.8291   -0.0726   -1.6972 C   0  0  0  0  0  0  0  0  0  0  0  0
    0.8130   -0.8445   -1.1162 C   0  0  0  0  0  0  0  0  0  0  0  0
    1.1054   -2.0286   -0.4320 C   0  0  0  0  0  0  0  0  0  0  0  0
    2.4334   -2.4720   -0.3139 C   0  0  0  0  0  0  0  0  0  0  0  0
    3.4246   -1.7005   -0.8942 C   0  0  0  0  0  0  0  0  0  0  0  0
    4.6889    1.3477   -2.9306 C   0  0  2  0  0  0  0  0  0  0  0  0
    6.2215    1.2522   -3.0495 C   0  0  0  0  0  0  0  0  0  0  0  0
    7.1078    2.0947   -3.7075 C   0  0  0  0  0  0  0  0  0  0  0  0
    8.4780    1.7889   -3.6773 C   0  0  0  0  0  0  0  0  0  0  0  0
    8.9481    0.6572   -2.9991 C   0  0  0  0  0  0  0  0  0  0  0  0
    8.0624   -0.1986   -2.3335 C   0  0  0  0  0  0  0  0  0  0  0  0
    6.7000    0.1078   -2.3644 C   0  0  0  0  0  0  0  0  0  0  0  0
    4.1958    2.6672   -2.3082 C   0  0  0  0  0  0  0  0  0  0  0  0
    4.4945    3.2091   -1.0649 C   0  0  0  0  0  0  0  0  0  0  0  0
    3.9253    4.4424   -0.7091 C   0  0  0  0  0  0  0  0  0  0  0  0
    3.0728    5.1160   -1.5914 C   0  0  0  0  0  0  0  0  0  0  0  0
    2.7675    4.5760   -2.8473 C   0  0  0  0  0  0  0  0  0  0  0  0
    3.3318    3.3479   -3.2031 C   0  0  0  0  0  0  0  0  0  0  0  0
    3.2212    2.5164   -4.3958 C   0  0  0  0  0  0  0  0  0  0  0  0
    2.3666    2.6267   -5.9098 S   0  0  0  0  0  0  0  0  0  0  0  0
    3.0276    1.0630   -6.4032 C   0  0  0  0  0  0  0  0  0  0  0  0
    2.7788    0.4043   -7.6123 C   0  0  0  0  0  0  0  0  0  0  0  0
    3.3816   -0.8337   -7.8297 C   0  0  0  0  0  0  0  0  0  0  0  0
    4.2196   -1.4101   -6.8553 C   0  0  0  0  0  0  0  0  0  0  0  0
    4.4714   -0.7583   -5.6532 C   0  0  0  0  0  0  0  0  0  0  0  0
    3.8784    0.4980   -5.4073 C   0  0  0  0  0  0  0  0  0  0  0  0
    3.9648    1.3694   -4.2711 C   0  0  0  0  0  0  0  0  0  0  0  0
    1.5899    0.8500   -2.2288 H   0  0  0  0  0  0  0  0  0  0  0  0
   -0.2249   -0.5133   -1.2006 H   0  0  0  0  0  0  0  0  0  0  0  0
    0.2984   -2.6148    0.0136 H   0  0  0  0  0  0  0  0  0  0  0  0
    2.6768   -3.3951    0.2172 H   0  0  0  0  0  0  0  0  0  0  0  0
    6.7486    2.9780   -4.2412 H   0  0  0  0  0  0  0  0  0  0  0  0
    9.1863    2.4429   -4.1917 H   0  0  0  0  0  0  0  0  0  0  0  0
   10.0186    0.4384   -2.9899 H   0  0  0  0  0  0  0  0  0  0  0  0
    8.4210   -1.0838   -1.8042 H   0  0  0  0  0  0  0  0  0  0  0  0
    5.1606    2.6868   -0.3735 H   0  0  0  0  0  0  0  0  0  0  0  0
    4.1512    4.8793    0.2666 H   0  0  0  0  0  0  0  0  0  0  0  0
    2.6394    6.0753   -1.2978 H   0  0  0  0  0  0  0  0  0  0  0  0
    2.1013    5.1048   -3.5331 H   0  0  0  0  0  0  0  0  0  0  0  0
    2.1264    0.8477   -8.3681 H   0  0  0  0  0  0  0  0  0  0  0  0
    3.1979   -1.3633   -8.7677 H   0  0  0  0  0  0  0  0  0  0  0  0
    4.6763   -2.3841   -7.0461 H   0  0  0  0  0  0  0  0  0  0  0  0
    5.1153   -1.2160   -4.8993 H   0  0  0  0  0  0  0  0  0  0  0  0
  1  2  2  0
  2  3  2  0
  2  4  1  6
  2 11  1  0
  4  5  2  0
  4 18  1  0
  5  6  1  0
 12  5  1  1
  6  7  2  0
  6 11  1  0
  7  8  1  0
  7 34  1  0
  8  9  2  0
  8 35  1  0
  9 10  1  0
  9 36  1  0
 10 11  2  0
 10 37  1  0
 12 13  1  0
 12 19  1  0
 12 33  1  0
 13 14  2  0
 13 18  1  0
 14 15  1  0
 14 38  1  0
 15 16  2  0
 15 39  1  0
 16 17  1  0
 16 40  1  0
 17 18  2  0
 17 41  1  0
 19 20  2  0
 19 24  1  0
 20 21  1  0
 20 42  1  0
 21 22  2  0
 21 43  1  0
 22 23  1  0
 22 44  1  0
 23 24  2  0
 23 45  1  0
 24 25  1  0
 25 26  1  0
 25 33  2  0
 26 27  1  0
 27 28  2  0
 27 32  1  0
 28 29  1  0
 28 46  1  0
 29 30  2  0
 29 47  1  0
 30 31  1  0
 30 48  1  0
 31 32  2  0
 31 49  1  0
 32 33  1  0
M  END

