
     RDKit          3D

 25 26  0  0  0  0  0  0  0  0999 V2000
    5.1519   -2.0029   -0.4961 N   0  0  0  0  0  0  0  0  0  0  0  0
    4.1185   -1.0176   -0.3987 C   0  0  0  0  0  0  0  0  0  0  0  0
    4.2800    0.3866   -0.7633 C   0  0  0  0  0  0  0  0  0  0  0  0
    3.1573    1.1898   -0.5701 C   0  0  0  0  0  0  0  0  0  0  0  0
    3.2432    2.8975   -0.9683 Cl  0  0  0  0  0  0  0  0  0  0  0  0
    1.9427    0.6958   -0.0709 C   0  0  0  0  0  0  0  0  0  0  0  0
    1.7915   -0.6391    0.2576 N   0  0  0  0  0  0  0  0  0  0  0  0
    2.8668   -1.3950    0.0896 C   0  0  0  0  0  0  0  0  0  0  0  0
    2.7264   -2.7570    0.4660 N   0  0  0  0  0  0  0  0  0  0  0  0
    1.4858   -3.3179    0.9154 C   0  0  0  0  0  0  0  0  0  0  0  0
    0.8682   -3.9568   -0.2841 C   0  0  0  0  0  0  0  0  0  0  0  0
    0.3612   -3.4009   -1.4534 C   0  0  0  0  0  0  0  0  0  0  0  0
   -0.0197   -4.4882   -2.2770 C   0  0  0  0  0  0  0  0  0  0  0  0
    0.3051   -5.6286   -1.5772 C   0  0  0  0  0  0  0  0  0  0  0  0
    0.8539   -5.3108   -0.3791 O   0  0  0  0  0  0  0  0  0  0  0  0
    5.9405   -1.7863    0.1241 H   0  0  0  0  0  0  0  0  0  0  0  0
    5.5540   -2.0212   -1.4386 H   0  0  0  0  0  0  0  0  0  0  0  0
    5.2151    0.7786   -1.1586 H   0  0  0  0  0  0  0  0  0  0  0  0
    1.0837    1.3538    0.0630 H   0  0  0  0  0  0  0  0  0  0  0  0
    3.5292   -3.3329    0.2064 H   0  0  0  0  0  0  0  0  0  0  0  0
    0.8644   -2.4894    1.2816 H   0  0  0  0  0  0  0  0  0  0  0  0
    1.6397   -4.0650    1.7100 H   0  0  0  0  0  0  0  0  0  0  0  0
    0.2884   -2.3333   -1.6459 H   0  0  0  0  0  0  0  0  0  0  0  0
   -0.4751   -4.4473   -3.2638 H   0  0  0  0  0  0  0  0  0  0  0  0
    0.1979   -6.6891   -1.7901 H   0  0  0  0  0  0  0  0  0  0  0  0
  1  2  1  0
  1 16  1  0
  1 17  1  0
  2  3  2  0
  2  8  1  0
  3  4  1  0
  3 18  1  0
  4  5  1  0
  4  6  2  0
  6  7  1  0
  6 19  1  0
  7  8  2  0
  8  9  1  0
  9 10  1  0
  9 20  1  0
 10 11  1  0
 10 21  1  0
 10 22  1  0
 11 12  2  0
 11 15  1  0
 12 13  1  0
 12 23  1  0
 13 14  2  0
 13 24  1  0
 14 15  1  0
 14 25  1  0
M  END

