
     RDKit          3D

 49 50  0  0  0  0  0  0  0  0999 V2000
    2.8604   -1.3580   -1.4498 C   0  0  0  0  0  0  0  0  0  0  0  0
    2.4947   -0.3445   -0.3602 C   0  0  1  0  0  0  0  0  0  0  0  0
    2.9681    1.0707   -0.7100 C   0  0  0  0  0  0  0  0  0  0  0  0
    0.9880   -0.3590   -0.0930 C   0  0  0  0  0  0  0  0  0  0  0  0
    3.0578   -0.7627    0.9281 O   0  0  0  0  0  0  0  0  0  0  0  0
    4.3918   -0.9193    1.1090 C   0  0  0  0  0  0  0  0  0  0  0  0
    5.2331   -0.6533    0.2689 O   0  0  0  0  0  0  0  0  0  0  0  0
    4.6849   -1.4071    2.3621 N   0  0  0  0  0  0  0  0  0  0  0  0
    3.6247   -1.7931    3.2911 C   0  0  0  0  0  0  0  0  0  0  0  0
    3.1812   -0.7426    4.3006 C   0  0  0  0  0  0  0  0  0  0  0  0
    2.9158    0.5865    3.9310 C   0  0  0  0  0  0  0  0  0  0  0  0
    2.4794    1.4826    4.9058 C   0  0  0  0  0  0  0  0  0  0  0  0
    2.3158    1.0289    6.2175 C   0  0  0  0  0  0  0  0  0  0  0  0
    2.5995   -0.3117    6.4873 C   0  0  0  0  0  0  0  0  0  0  0  0
    3.0224   -1.1739    5.5584 N   0  0  0  0  0  0  0  0  0  0  0  0
    6.1346   -1.6211    2.6269 C   0  0  1  0  0  0  0  0  0  0  0  0
    6.8670   -0.3419    3.0908 C   0  0  0  0  0  0  0  0  0  0  0  0
    6.7405   -0.0483    4.5894 C   0  0  0  0  0  0  0  0  0  0  0  0
    7.1909   -1.2527    5.4249 C   0  0  0  0  0  0  0  0  0  0  0  0
    6.4042   -2.5165    5.0476 C   0  0  0  0  0  0  0  0  0  0  0  0
    6.4657   -2.8413    3.5412 C   0  0  2  0  0  0  0  0  0  0  0  0
    7.7799   -3.4144    3.2353 N   0  0  0  0  0  0  0  0  0  0  0  0
    2.3409   -1.0993   -2.3857 H   0  0  0  0  0  0  0  0  0  0  0  0
    2.5434   -2.3705   -1.1538 H   0  0  0  0  0  0  0  0  0  0  0  0
    3.9417   -1.3648   -1.6356 H   0  0  0  0  0  0  0  0  0  0  0  0
    2.4682    1.4111   -1.6304 H   0  0  0  0  0  0  0  0  0  0  0  0
    4.0536    1.0947   -0.8655 H   0  0  0  0  0  0  0  0  0  0  0  0
    2.7071    1.7751    0.0959 H   0  0  0  0  0  0  0  0  0  0  0  0
    0.4390   -0.0439   -0.9933 H   0  0  0  0  0  0  0  0  0  0  0  0
    0.7324    0.3269    0.7288 H   0  0  0  0  0  0  0  0  0  0  0  0
    0.6508   -1.3694    0.1841 H   0  0  0  0  0  0  0  0  0  0  0  0
    3.9258   -2.6804    3.8586 H   0  0  0  0  0  0  0  0  0  0  0  0
    2.7479   -2.0860    2.6973 H   0  0  0  0  0  0  0  0  0  0  0  0
    3.0446    0.9006    2.8949 H   0  0  0  0  0  0  0  0  0  0  0  0
    2.2664    2.5229    4.6452 H   0  0  0  0  0  0  0  0  0  0  0  0
    1.9779    1.6958    7.0139 H   0  0  0  0  0  0  0  0  0  0  0  0
    2.4856   -0.7081    7.5033 H   0  0  0  0  0  0  0  0  0  0  0  0
    6.5392   -1.8651    1.6360 H   0  0  0  0  0  0  0  0  0  0  0  0
    6.5251    0.5050    2.4767 H   0  0  0  0  0  0  0  0  0  0  0  0
    7.9376   -0.4721    2.8483 H   0  0  0  0  0  0  0  0  0  0  0  0
    5.6954    0.2007    4.8381 H   0  0  0  0  0  0  0  0  0  0  0  0
    7.3371    0.8440    4.8448 H   0  0  0  0  0  0  0  0  0  0  0  0
    7.0637   -1.0466    6.5006 H   0  0  0  0  0  0  0  0  0  0  0  0
    8.2750   -1.4164    5.2775 H   0  0  0  0  0  0  0  0  0  0  0  0
    5.3584   -2.3811    5.3648 H   0  0  0  0  0  0  0  0  0  0  0  0
    6.7921   -3.3914    5.5930 H   0  0  0  0  0  0  0  0  0  0  0  0
    5.7300   -3.6346    3.3230 H   0  0  0  0  0  0  0  0  0  0  0  0
    8.5247   -2.7466    3.4335 H   0  0  0  0  0  0  0  0  0  0  0  0
    7.8535   -3.6349    2.2420 H   0  0  0  0  0  0  0  0  0  0  0  0
  1  2  1  0
  1 23  1  0
  1 24  1  0
  1 25  1  0
  2  3  1  0
  2  4  1  0
  2  5  1  1
  3 26  1  0
  3 27  1  0
  3 28  1  0
  4 29  1  0
  4 30  1  0
  4 31  1  0
  5  6  1  0
  6  7  2  0
  6  8  1  0
  8  9  1  0
  8 16  1  0
  9 10  1  0
  9 32  1  0
  9 33  1  0
 10 11  2  0
 10 15  1  0
 11 12  1  0
 11 34  1  0
 12 13  2  0
 12 35  1  0
 13 14  1  0
 13 36  1  0
 14 15  2  0
 14 37  1  0
 16 17  1  0
 16 21  1  0
 16 38  1  6
 17 18  1  0
 17 39  1  0
 17 40  1  0
 18 19  1  0
 18 41  1  0
 18 42  1  0
 19 20  1  0
 19 43  1  0
 19 44  1  0
 20 21  1  0
 20 45  1  0
 20 46  1  0
 21 22  1  0
 21 47  1  1
 22 48  1  0
 22 49  1  0
M  END

