
     RDKit          3D

 36 37  0  0  0  0  0  0  0  0999 V2000
    2.0343    0.5497    3.5914 N   0  0  0  0  0  0  0  0  0  0  0  0
    2.9671    0.5355    2.5458 C   0  0  0  0  0  0  0  0  0  0  0  0
    2.3152    0.0924    1.0948 C   0  0  0  0  0  0  0  0  0  0  0  0
    3.2648    0.1098    0.0715 N   0  0  0  0  0  0  0  0  0  0  0  0
    4.2100   -1.0055   -0.0649 C   0  0  0  0  0  0  0  0  0  0  0  0
    4.8009   -1.0827   -1.4688 C   0  0  0  0  0  0  0  0  0  0  0  0
    5.3305    0.2092   -1.8347 N   0  0  0  0  0  0  0  0  0  0  0  0
    6.3117    0.1795   -2.9046 C   0  0  0  0  0  0  0  0  0  0  0  0
    6.6679   -0.9299   -3.3716 O   0  0  0  0  0  0  0  0  0  0  0  0
    6.8913    1.4516   -3.2941 C   0  0  0  0  0  0  0  0  0  0  0  0
    6.6168    2.5741   -2.8233 O   0  0  0  0  0  0  0  0  0  0  0  0
    7.8499    1.2409   -4.3248 N   0  0  0  0  0  0  0  0  0  0  0  0
    8.6007    2.1420   -5.0147 C   0  0  0  0  0  0  0  0  0  0  0  0
    8.5829    3.4681   -4.9872 N   0  0  0  0  0  0  0  0  0  0  0  0
    9.5433    3.8039   -5.8912 C   0  0  0  0  0  0  0  0  0  0  0  0
   10.1624    2.8036   -6.4861 N   0  0  0  0  0  0  0  0  0  0  0  0
    9.5499    1.7284   -5.9114 N   0  0  0  0  0  0  0  0  0  0  0  0
    9.8208    0.7871   -6.1649 H   0  0  0  0  0  0  0  0  0  0  0  0
    4.2715    1.1922   -1.9220 C   0  0  0  0  0  0  0  0  0  0  0  0
    3.6525    1.3853   -0.5415 C   0  0  0  0  0  0  0  0  0  0  0  0
    1.3411    1.2904    3.6084 H   0  0  0  0  0  0  0  0  0  0  0  0
    1.6899   -0.3375    3.9434 H   0  0  0  0  0  0  0  0  0  0  0  0
    3.7730   -0.1830    2.7481 H   0  0  0  0  0  0  0  0  0  0  0  0
    3.3988    1.5334    2.3903 H   0  0  0  0  0  0  0  0  0  0  0  0
    1.5079    0.8105    0.8960 H   0  0  0  0  0  0  0  0  0  0  0  0
    1.9070   -0.9171    1.2411 H   0  0  0  0  0  0  0  0  0  0  0  0
    3.6865   -1.9332    0.2124 H   0  0  0  0  0  0  0  0  0  0  0  0
    5.0239   -0.8340    0.6669 H   0  0  0  0  0  0  0  0  0  0  0  0
    4.0222   -1.4461   -2.1769 H   0  0  0  0  0  0  0  0  0  0  0  0
    5.6031   -1.8303   -1.4858 H   0  0  0  0  0  0  0  0  0  0  0  0
    7.9648    0.2502   -4.5252 H   0  0  0  0  0  0  0  0  0  0  0  0
    9.7949    4.8403   -6.1207 H   0  0  0  0  0  0  0  0  0  0  0  0
    3.4754    0.8971   -2.6438 H   0  0  0  0  0  0  0  0  0  0  0  0
    4.7029    2.1485   -2.2455 H   0  0  0  0  0  0  0  0  0  0  0  0
    2.7655    2.0359   -0.5720 H   0  0  0  0  0  0  0  0  0  0  0  0
    4.4082    1.8527    0.1194 H   0  0  0  0  0  0  0  0  0  0  0  0
  1  2  1  0
  1 21  1  0
  1 22  1  0
  2  3  1  0
  2 23  1  0
  2 24  1  0
  3  4  1  0
  3 25  1  0
  3 26  1  0
  4  5  1  0
  4 20  1  0
  5  6  1  0
  5 27  1  0
  5 28  1  0
  6  7  1  0
  6 29  1  0
  6 30  1  0
  7  8  1  0
  7 19  1  0
  8  9  2  0
  8 10  1  0
 10 11  2  0
 10 12  1  0
 12 13  1  0
 12 31  1  0
 13 14  2  0
 13 17  1  0
 14 15  1  0
 15 16  2  0
 15 32  1  0
 16 17  1  0
 17 18  1  0
 19 20  1  0
 19 33  1  0
 19 34  1  0
 20 35  1  0
 20 36  1  0
M  END

