
     RDKit          3D

 47 49  0  0  0  0  0  0  0  0999 V2000
   -1.6010   -0.3585    1.9903 C   0  0  0  0  0  0  0  0  0  0  0  0
   -0.6919    0.4520    1.0970 C   0  0  0  0  0  0  0  0  0  0  0  0
   -0.6472    1.8467    1.2098 C   0  0  0  0  0  0  0  0  0  0  0  0
    0.1875    2.6236    0.4027 C   0  0  0  0  0  0  0  0  0  0  0  0
    0.9997    1.9949   -0.5416 C   0  0  0  0  0  0  0  0  0  0  0  0
    0.9816    0.6062   -0.6828 C   0  0  0  0  0  0  0  0  0  0  0  0
    0.1384   -0.1710    0.1301 C   0  0  0  0  0  0  0  0  0  0  0  0
    0.0683   -1.5777    0.0225 N   0  0  0  0  0  0  0  0  0  0  0  0
    0.8560   -2.4416   -0.7126 C   0  0  0  0  0  0  0  0  0  0  0  0
    1.7679   -2.0778   -1.4363 O   0  0  0  0  0  0  0  0  0  0  0  0
    0.4517   -3.8894   -0.5441 C   0  0  0  0  0  0  0  0  0  0  0  0
    1.2896   -4.9429   -0.3528 C   0  0  0  0  0  0  0  0  0  0  0  0
    2.7464   -5.0701   -0.2140 C   0  0  0  0  0  0  0  0  0  0  0  0
    3.7226   -4.1762   -0.7054 C   0  0  0  0  0  0  0  0  0  0  0  0
    5.0825   -4.4167   -0.5079 C   0  0  0  0  0  0  0  0  0  0  0  0
    5.4965   -5.5609    0.1792 C   0  0  0  0  0  0  0  0  0  0  0  0
    7.3561   -5.8822    0.4481 Br  0  0  0  0  0  0  0  0  0  0  0  0
    4.5583   -6.4782    0.6603 C   0  0  0  0  0  0  0  0  0  0  0  0
    3.2032   -6.2309    0.4531 C   0  0  0  0  0  0  0  0  0  0  0  0
   -0.9620   -4.0438   -0.5356 N   0  0  0  0  0  0  0  0  0  0  0  0
   -1.7296   -5.0859   -0.0499 C   0  0  0  0  0  0  0  0  0  0  0  0
   -1.2600   -6.0751    0.4872 O   0  0  0  0  0  0  0  0  0  0  0  0
   -3.2194   -4.9259   -0.2320 C   0  0  0  0  0  0  0  0  0  0  0  0
   -4.0043   -6.0745   -0.0390 C   0  0  0  0  0  0  0  0  0  0  0  0
   -5.3907   -6.0188   -0.1810 C   0  0  0  0  0  0  0  0  0  0  0  0
   -6.0152   -4.8103   -0.5074 C   0  0  0  0  0  0  0  0  0  0  0  0
   -5.2458   -3.6571   -0.6874 C   0  0  0  0  0  0  0  0  0  0  0  0
   -3.8568   -3.7138   -0.5494 C   0  0  0  0  0  0  0  0  0  0  0  0
   -2.1494    0.2941    2.6836 H   0  0  0  0  0  0  0  0  0  0  0  0
   -1.0412   -1.0861    2.6050 H   0  0  0  0  0  0  0  0  0  0  0  0
   -2.3572   -0.9274    1.4189 H   0  0  0  0  0  0  0  0  0  0  0  0
   -1.2847    2.3315    1.9547 H   0  0  0  0  0  0  0  0  0  0  0  0
    0.2023    3.7103    0.5148 H   0  0  0  0  0  0  0  0  0  0  0  0
    1.6614    2.5856   -1.1802 H   0  0  0  0  0  0  0  0  0  0  0  0
    1.6195    0.1100   -1.4094 H   0  0  0  0  0  0  0  0  0  0  0  0
   -0.5831   -2.0282    0.6539 H   0  0  0  0  0  0  0  0  0  0  0  0
    0.7634   -5.8823   -0.1784 H   0  0  0  0  0  0  0  0  0  0  0  0
    3.4089   -3.2951   -1.2615 H   0  0  0  0  0  0  0  0  0  0  0  0
    5.8220   -3.7158   -0.8986 H   0  0  0  0  0  0  0  0  0  0  0  0
    4.8841   -7.3767    1.1869 H   0  0  0  0  0  0  0  0  0  0  0  0
    2.4718   -6.9516    0.8285 H   0  0  0  0  0  0  0  0  0  0  0  0
   -1.4648   -3.3521   -1.0784 H   0  0  0  0  0  0  0  0  0  0  0  0
   -3.4977   -7.0046    0.2241 H   0  0  0  0  0  0  0  0  0  0  0  0
   -5.9886   -6.9219   -0.0351 H   0  0  0  0  0  0  0  0  0  0  0  0
   -7.1016   -4.7654   -0.6175 H   0  0  0  0  0  0  0  0  0  0  0  0
   -5.7278   -2.7071   -0.9303 H   0  0  0  0  0  0  0  0  0  0  0  0
   -3.2873   -2.7887   -0.6744 H   0  0  0  0  0  0  0  0  0  0  0  0
  1  2  1  0
  1 29  1  0
  1 30  1  0
  1 31  1  0
  2  3  2  0
  2  7  1  0
  3  4  1  0
  3 32  1  0
  4  5  2  0
  4 33  1  0
  5  6  1  0
  5 34  1  0
  6  7  2  0
  6 35  1  0
  7  8  1  0
  8  9  1  0
  8 36  1  0
  9 10  2  0
  9 11  1  0
 11 12  2  0
 11 20  1  0
 12 13  1  0
 12 37  1  0
 13 14  2  0
 13 19  1  0
 14 15  1  0
 14 38  1  0
 15 16  2  0
 15 39  1  0
 16 17  1  0
 16 18  1  0
 18 19  2  0
 18 40  1  0
 19 41  1  0
 20 21  1  0
 20 42  1  0
 21 22  2  0
 21 23  1  0
 23 24  2  0
 23 28  1  0
 24 25  1  0
 24 43  1  0
 25 26  2  0
 25 44  1  0
 26 27  1  0
 26 45  1  0
 27 28  2  0
 27 46  1  0
 28 47  1  0
M  END

