
     RDKit          3D

 56 58  0  0  0  0  0  0  0  0999 V2000
    5.5779   -7.9604   -0.4049 C   0  0  0  0  0  0  0  0  0  0  0  0
    6.0274   -6.5593   -0.7361 C   0  0  0  0  0  0  0  0  0  0  0  0
    5.5551   -5.4529   -0.0253 C   0  0  0  0  0  0  0  0  0  0  0  0
    5.9514   -4.1421   -0.3230 C   0  0  0  0  0  0  0  0  0  0  0  0
    5.3495   -3.0202    0.4892 C   0  0  0  0  0  0  0  0  0  0  0  0
    6.8850   -3.9508   -1.3738 C   0  0  0  0  0  0  0  0  0  0  0  0
    7.3834   -2.2497   -1.7646 S   0  0  1  0  0  0  0  0  0  0  0  0
    8.4243   -2.2738   -2.7990 O   0  0  0  0  0  0  0  0  0  0  0  0
    6.1746   -1.4420   -1.9595 O   0  0  0  0  0  0  0  0  0  0  0  0
    8.0740   -1.6700   -0.3242 N   0  0  0  0  0  0  0  0  0  0  0  0
    9.5362   -1.6339   -0.1932 C   0  0  0  0  0  0  0  0  0  0  0  0
   10.1303   -3.0112    0.0855 C   0  0  0  0  0  0  0  0  0  0  0  0
   11.5934   -2.9078    0.5102 C   0  0  0  0  0  0  0  0  0  0  0  0
   12.0935   -1.8461    0.8564 O   0  0  0  0  0  0  0  0  0  0  0  0
   12.3144   -4.0675    0.5020 N   0  0  0  0  0  0  0  0  0  0  0  0
   11.8376   -5.3968    0.0944 C   0  0  0  0  0  0  0  0  0  0  0  0
   13.0006   -6.2768    0.5364 C   0  0  1  0  0  0  0  0  0  0  0  0
   13.1060   -7.5123   -0.1165 O   0  0  0  0  0  0  0  0  0  0  0  0
   14.2646   -8.1844    0.3607 C   0  0  0  0  0  0  0  0  0  0  0  0
   15.5359   -7.3429    0.2065 C   0  0  0  0  0  0  0  0  0  0  0  0
   15.4007   -6.0257    0.8302 N   0  0  0  0  0  0  0  0  0  0  0  0
   16.6113   -5.2332    0.7164 C   0  0  0  0  0  0  0  0  0  0  0  0
   14.2185   -5.3865    0.2882 C   0  0  2  0  0  0  0  0  0  0  0  0
   13.7410   -4.0579    0.8723 C   0  0  0  0  0  0  0  0  0  0  0  0
    7.3672   -5.0441   -2.1398 C   0  0  0  0  0  0  0  0  0  0  0  0
    8.3115   -4.9526   -3.3195 C   0  0  0  0  0  0  0  0  0  0  0  0
    6.9209   -6.3263   -1.7857 C   0  0  0  0  0  0  0  0  0  0  0  0
    4.9420   -7.9821    0.4920 H   0  0  0  0  0  0  0  0  0  0  0  0
    6.4396   -8.6249   -0.2289 H   0  0  0  0  0  0  0  0  0  0  0  0
    5.0012   -8.3976   -1.2375 H   0  0  0  0  0  0  0  0  0  0  0  0
    4.8423   -5.6060    0.7897 H   0  0  0  0  0  0  0  0  0  0  0  0
    4.6304   -3.4214    1.2167 H   0  0  0  0  0  0  0  0  0  0  0  0
    4.8368   -2.2953   -0.1584 H   0  0  0  0  0  0  0  0  0  0  0  0
    6.1273   -2.4664    1.0357 H   0  0  0  0  0  0  0  0  0  0  0  0
    7.6257   -0.7709   -0.1491 H   0  0  0  0  0  0  0  0  0  0  0  0
    9.7641   -0.9740    0.6554 H   0  0  0  0  0  0  0  0  0  0  0  0
   10.0163   -1.1923   -1.0822 H   0  0  0  0  0  0  0  0  0  0  0  0
   10.0320   -3.6600   -0.7983 H   0  0  0  0  0  0  0  0  0  0  0  0
    9.5618   -3.5031    0.8950 H   0  0  0  0  0  0  0  0  0  0  0  0
   11.6929   -5.4785   -0.9986 H   0  0  0  0  0  0  0  0  0  0  0  0
   10.8915   -5.6662    0.5869 H   0  0  0  0  0  0  0  0  0  0  0  0
   12.9365   -6.4391    1.6333 H   0  0  0  0  0  0  0  0  0  0  0  0
   14.3566   -9.1154   -0.2176 H   0  0  0  0  0  0  0  0  0  0  0  0
   14.1282   -8.4474    1.4287 H   0  0  0  0  0  0  0  0  0  0  0  0
   15.7726   -7.2478   -0.8790 H   0  0  0  0  0  0  0  0  0  0  0  0
   16.3756   -7.8818    0.6762 H   0  0  0  0  0  0  0  0  0  0  0  0
   17.4536   -5.7706    1.1803 H   0  0  0  0  0  0  0  0  0  0  0  0
   16.4947   -4.2760    1.2467 H   0  0  0  0  0  0  0  0  0  0  0  0
   16.8910   -5.0094   -0.3385 H   0  0  0  0  0  0  0  0  0  0  0  0
   14.3091   -5.2607   -0.8184 H   0  0  0  0  0  0  0  0  0  0  0  0
   14.2281   -3.1663    0.4549 H   0  0  0  0  0  0  0  0  0  0  0  0
   13.8735   -4.0318    1.9693 H   0  0  0  0  0  0  0  0  0  0  0  0
    9.2949   -4.5503   -3.0377 H   0  0  0  0  0  0  0  0  0  0  0  0
    7.9314   -4.2801   -4.0999 H   0  0  0  0  0  0  0  0  0  0  0  0
    8.4537   -5.9532   -3.7517 H   0  0  0  0  0  0  0  0  0  0  0  0
    7.2892   -7.1762   -2.3674 H   0  0  0  0  0  0  0  0  0  0  0  0
  1  2  1  0
  1 28  1  0
  1 29  1  0
  1 30  1  0
  2  3  2  0
  2 27  1  0
  3  4  1  0
  3 31  1  0
  4  5  1  0
  4  6  2  0
  5 32  1  0
  5 33  1  0
  5 34  1  0
  6  7  1  0
  6 25  1  0
  7  8  2  0
  7  9  2  0
  7 10  1  1
 10 11  1  0
 10 35  1  0
 11 12  1  0
 11 36  1  0
 11 37  1  0
 12 13  1  0
 12 38  1  0
 12 39  1  0
 13 14  2  0
 13 15  1  0
 15 16  1  0
 15 24  1  0
 16 17  1  0
 16 40  1  0
 16 41  1  0
 17 18  1  0
 17 23  1  0
 17 42  1  1
 18 19  1  0
 19 20  1  0
 19 43  1  0
 19 44  1  0
 20 21  1  0
 20 45  1  0
 20 46  1  0
 21 22  1  0
 21 23  1  0
 22 47  1  0
 22 48  1  0
 22 49  1  0
 23 24  1  0
 23 50  1  6
 24 51  1  0
 24 52  1  0
 25 26  1  0
 25 27  2  0
 26 53  1  0
 26 54  1  0
 26 55  1  0
 27 56  1  0
M  END

