
     RDKit          3D

 42 44  0  0  0  0  0  0  0  0999 V2000
    4.2823   -0.6509    1.2020 N   0  0  0  0  0  0  0  0  0  0  0  0
    5.2525   -0.1935    0.7493 C   0  0  0  0  0  0  0  0  0  0  0  0
    6.3329    0.4486   -0.0315 C   0  0  0  0  0  0  0  0  0  0  0  0
    5.8130    1.3843   -1.0905 C   0  0  0  0  0  0  0  0  0  0  0  0
    5.5807    2.6722   -0.8606 N   0  0  0  0  0  0  0  0  0  0  0  0
    4.6407    3.0862   -1.7574 C   0  0  0  0  0  0  0  0  0  0  0  0
    4.1335    4.3581   -2.0118 C   0  0  0  0  0  0  0  0  0  0  0  0
    3.1119    4.5122   -3.0187 C   0  0  0  0  0  0  0  0  0  0  0  0
    2.6292    3.4325   -3.7576 C   0  0  0  0  0  0  0  0  0  0  0  0
    3.1427    2.1298   -3.5200 C   0  0  0  0  0  0  0  0  0  0  0  0
    4.1674    1.9794   -2.5558 C   0  0  0  0  0  0  0  0  0  0  0  0
    4.9074    0.9065   -2.1675 N   0  0  0  0  0  0  0  0  0  0  0  0
    4.8520   -0.4469   -2.6746 C   0  0  0  0  0  0  0  0  0  0  0  0
    5.8130   -0.8044   -3.8693 C   0  0  1  0  0  0  0  0  0  0  0  0
    7.2361   -0.3253   -3.4843 C   0  0  0  0  0  0  0  0  0  0  0  0
    8.5963   -0.6155   -4.6899 S   0  0  0  0  0  0  0  0  0  0  0  0
    5.8028   -2.3456   -4.0390 C   0  0  0  0  0  0  0  0  0  0  0  0
    4.5057   -2.9221   -4.6206 C   0  0  0  0  0  0  0  0  0  0  0  0
    4.1555   -2.2491   -5.9519 C   0  0  0  0  0  0  0  0  0  0  0  0
    4.0641   -0.7289   -5.7847 C   0  0  0  0  0  0  0  0  0  0  0  0
    5.3472   -0.1340   -5.1851 C   0  0  0  0  0  0  0  0  0  0  0  0
    6.9810   -0.3493   -0.4362 H   0  0  0  0  0  0  0  0  0  0  0  0
    6.9488    1.0636    0.6412 H   0  0  0  0  0  0  0  0  0  0  0  0
    4.5081    5.2227   -1.4617 H   0  0  0  0  0  0  0  0  0  0  0  0
    2.7050    5.5111   -3.1939 H   0  0  0  0  0  0  0  0  0  0  0  0
    1.8466    3.5791   -4.5030 H   0  0  0  0  0  0  0  0  0  0  0  0
    2.7360    1.2701   -4.0530 H   0  0  0  0  0  0  0  0  0  0  0  0
    3.8128   -0.6600   -2.9659 H   0  0  0  0  0  0  0  0  0  0  0  0
    5.0793   -1.1207   -1.8338 H   0  0  0  0  0  0  0  0  0  0  0  0
    7.5418   -0.7746   -2.5278 H   0  0  0  0  0  0  0  0  0  0  0  0
    7.2400    0.7644   -3.3352 H   0  0  0  0  0  0  0  0  0  0  0  0
    8.8433   -1.9073   -4.3749 H   0  0  0  0  0  0  0  0  0  0  0  0
    6.0409   -2.8256   -3.0729 H   0  0  0  0  0  0  0  0  0  0  0  0
    6.6255   -2.6037   -4.7263 H   0  0  0  0  0  0  0  0  0  0  0  0
    3.6690   -2.7970   -3.9097 H   0  0  0  0  0  0  0  0  0  0  0  0
    4.6214   -4.0102   -4.7572 H   0  0  0  0  0  0  0  0  0  0  0  0
    3.2088   -2.6493   -6.3515 H   0  0  0  0  0  0  0  0  0  0  0  0
    4.9360   -2.4888   -6.6971 H   0  0  0  0  0  0  0  0  0  0  0  0
    3.1921   -0.4986   -5.1463 H   0  0  0  0  0  0  0  0  0  0  0  0
    3.8601   -0.2445   -6.7541 H   0  0  0  0  0  0  0  0  0  0  0  0
    5.2316    0.9531   -5.0329 H   0  0  0  0  0  0  0  0  0  0  0  0
    6.1631   -0.2500   -5.9182 H   0  0  0  0  0  0  0  0  0  0  0  0
  1  2  3  0
  2  3  1  0
  3  4  1  0
  3 22  1  0
  3 23  1  0
  4  5  2  0
  4 12  1  0
  5  6  1  0
  6  7  2  0
  6 11  1  0
  7  8  1  0
  7 24  1  0
  8  9  2  0
  8 25  1  0
  9 10  1  0
  9 26  1  0
 10 11  2  0
 10 27  1  0
 11 12  1  0
 12 13  1  0
 14 13  1  1
 13 28  1  0
 13 29  1  0
 14 15  1  0
 14 17  1  0
 14 21  1  0
 15 16  1  0
 15 30  1  0
 15 31  1  0
 16 32  1  0
 17 18  1  0
 17 33  1  0
 17 34  1  0
 18 19  1  0
 18 35  1  0
 18 36  1  0
 19 20  1  0
 19 37  1  0
 19 38  1  0
 20 21  1  0
 20 39  1  0
 20 40  1  0
 21 41  1  0
 21 42  1  0
M  END

