
     RDKit          3D

 49 49  0  0  0  0  0  0  0  0999 V2000
    6.9511    3.4250    8.7785 C   0  0  0  0  0  0  0  0  0  0  0  0
    5.9220    2.8736    7.7908 C   0  0  0  0  0  0  0  0  0  0  0  0
    6.3597    1.5466    7.1697 C   0  0  0  0  0  0  0  0  0  0  0  0
    5.0783    0.9594    6.0151 S   0  0  1  0  0  0  0  0  0  0  0  0
    3.8815    0.6458    6.8123 O   0  0  0  0  0  0  0  0  0  0  0  0
    5.0018    1.9238    4.9029 O   0  0  0  0  0  0  0  0  0  0  0  0
    5.7004   -0.6132    5.3496 C   0  0  0  0  0  0  0  0  0  0  0  0
    6.8608   -0.4754    4.3579 C   0  0  0  0  0  0  0  0  0  0  0  0
    7.2324   -1.7655    3.7926 N   0  0  0  0  0  0  0  0  0  0  0  0
    6.3349   -2.1846    2.7309 C   0  0  0  0  0  0  0  0  0  0  0  0
    8.6845   -1.9450    3.6080 C   0  0  1  0  0  0  0  0  0  0  0  0
    9.1068   -3.4259    3.4486 C   0  0  0  0  0  0  0  0  0  0  0  0
    9.1607   -3.9756    2.0121 C   0  0  0  0  0  0  0  0  0  0  0  0
    9.9592   -3.0604    1.0531 C   0  0  2  0  0  0  0  0  0  0  0  0
   11.4039   -3.0194    1.2771 N   0  0  0  0  0  0  0  0  0  0  0  0
   12.1518   -4.2311    0.9825 C   0  0  0  0  0  0  0  0  0  0  0  0
   13.6529   -3.9979    1.1255 C   0  0  0  0  0  0  0  0  0  0  0  0
    9.3707   -1.6399    1.1056 C   0  0  0  0  0  0  0  0  0  0  0  0
    9.3627   -1.0559    2.5265 C   0  0  0  0  0  0  0  0  0  0  0  0
    6.6058    4.3777    9.2093 H   0  0  0  0  0  0  0  0  0  0  0  0
    7.9219    3.6130    8.2905 H   0  0  0  0  0  0  0  0  0  0  0  0
    7.1262    2.7262    9.6133 H   0  0  0  0  0  0  0  0  0  0  0  0
    5.7440    3.5960    6.9780 H   0  0  0  0  0  0  0  0  0  0  0  0
    4.9530    2.7200    8.2923 H   0  0  0  0  0  0  0  0  0  0  0  0
    6.4838    0.7557    7.9261 H   0  0  0  0  0  0  0  0  0  0  0  0
    7.2923    1.6517    6.5932 H   0  0  0  0  0  0  0  0  0  0  0  0
    4.7938   -1.0220    4.8777 H   0  0  0  0  0  0  0  0  0  0  0  0
    5.9518   -1.2554    6.2068 H   0  0  0  0  0  0  0  0  0  0  0  0
    7.7344   -0.0645    4.8881 H   0  0  0  0  0  0  0  0  0  0  0  0
    6.5772    0.2747    3.5919 H   0  0  0  0  0  0  0  0  0  0  0  0
    5.2935   -2.1564    3.0890 H   0  0  0  0  0  0  0  0  0  0  0  0
    6.5330   -3.2233    2.4374 H   0  0  0  0  0  0  0  0  0  0  0  0
    6.3787   -1.5493    1.8198 H   0  0  0  0  0  0  0  0  0  0  0  0
    9.1022   -1.6218    4.5760 H   0  0  0  0  0  0  0  0  0  0  0  0
    8.4540   -4.0473    4.0828 H   0  0  0  0  0  0  0  0  0  0  0  0
   10.1190   -3.5157    3.8811 H   0  0  0  0  0  0  0  0  0  0  0  0
    8.1464   -4.1020    1.6014 H   0  0  0  0  0  0  0  0  0  0  0  0
    9.6016   -4.9863    2.0285 H   0  0  0  0  0  0  0  0  0  0  0  0
    9.8245   -3.4458    0.0268 H   0  0  0  0  0  0  0  0  0  0  0  0
   11.6259   -2.6908    2.2155 H   0  0  0  0  0  0  0  0  0  0  0  0
   11.9230   -4.5238   -0.0582 H   0  0  0  0  0  0  0  0  0  0  0  0
   11.8606   -5.1038    1.6102 H   0  0  0  0  0  0  0  0  0  0  0  0
   13.9804   -3.1723    0.4748 H   0  0  0  0  0  0  0  0  0  0  0  0
   14.2224   -4.9033    0.8628 H   0  0  0  0  0  0  0  0  0  0  0  0
   13.9169   -3.7321    2.1638 H   0  0  0  0  0  0  0  0  0  0  0  0
    8.3454   -1.6691    0.7024 H   0  0  0  0  0  0  0  0  0  0  0  0
    9.9589   -0.9879    0.4404 H   0  0  0  0  0  0  0  0  0  0  0  0
    8.8996   -0.0550    2.5219 H   0  0  0  0  0  0  0  0  0  0  0  0
   10.4089   -0.8861    2.8394 H   0  0  0  0  0  0  0  0  0  0  0  0
  1  2  1  0
  1 20  1  0
  1 21  1  0
  1 22  1  0
  2  3  1  0
  2 23  1  0
  2 24  1  0
  4  3  1  1
  3 25  1  0
  3 26  1  0
  4  5  2  0
  4  6  2  0
  4  7  1  0
  7  8  1  0
  7 27  1  0
  7 28  1  0
  8  9  1  0
  8 29  1  0
  8 30  1  0
  9 10  1  0
  9 11  1  0
 10 31  1  0
 10 32  1  0
 10 33  1  0
 11 12  1  0
 11 19  1  0
 11 34  1  1
 12 13  1  0
 12 35  1  0
 12 36  1  0
 13 14  1  0
 13 37  1  0
 13 38  1  0
 14 15  1  0
 14 18  1  0
 14 39  1  6
 15 16  1  0
 15 40  1  0
 16 17  1  0
 16 41  1  0
 16 42  1  0
 17 43  1  0
 17 44  1  0
 17 45  1  0
 18 19  1  0
 18 46  1  0
 18 47  1  0
 19 48  1  0
 19 49  1  0
M  END

