
     RDKit          3D

 55 58  0  0  0  0  0  0  0  0999 V2000
    0.9967    2.9984    3.8111 C   0  0  0  0  0  0  0  0  0  0  0  0
    2.5139    2.8097    3.7790 C   0  0  0  0  0  0  0  0  0  0  0  0
    3.1185    2.9567    2.3789 C   0  0  0  0  0  0  0  0  0  0  0  0
    4.6381    2.7737    2.3419 C   0  0  0  0  0  0  0  0  0  0  0  0
    5.2146    2.9268    0.9280 C   0  0  0  0  0  0  0  0  0  0  0  0
    6.6580    2.7908    0.8601 N   0  0  0  0  0  0  0  0  0  0  0  0
    7.4823    3.8790    0.7177 C   0  0  0  0  0  0  0  0  0  0  0  0
    7.1483    5.0406    0.6151 O   0  0  0  0  0  0  0  0  0  0  0  0
    8.9001    3.3164    0.7164 C   0  0  0  0  0  0  0  0  0  0  0  0
    9.9279    3.9947    0.5716 O   0  0  0  0  0  0  0  0  0  0  0  0
    8.8129    1.8975    0.9073 C   0  0  0  0  0  0  0  0  0  0  0  0
    9.9974    1.1617    0.9568 C   0  0  0  0  0  0  0  0  0  0  0  0
   11.1352    1.8128    0.7811 O   0  0  0  0  0  0  0  0  0  0  0  0
   10.1665   -0.2856    1.1642 C   0  0  0  0  0  0  0  0  0  0  0  0
    9.1994   -1.0818    1.8099 C   0  0  0  0  0  0  0  0  0  0  0  0
    9.3930   -2.4469    2.0260 C   0  0  0  0  0  0  0  0  0  0  0  0
   10.5840   -3.0126    1.5704 C   0  0  0  0  0  0  0  0  0  0  0  0
   11.5690   -2.2453    0.9267 C   0  0  0  0  0  0  0  0  0  0  0  0
   11.3721   -0.8904    0.7284 C   0  0  0  0  0  0  0  0  0  0  0  0
   12.6876   -3.1812    0.5259 C   0  0  0  0  0  0  0  0  0  0  0  0
   12.2931   -4.4743    1.2785 C   0  0  0  0  0  0  0  0  0  0  0  0
   10.9164   -4.3140    1.6941 O   0  0  0  0  0  0  0  0  0  0  0  0
    7.3475    1.4936    0.9646 C   0  0  2  0  0  0  0  0  0  0  0  0
    6.8823    0.5289   -0.1284 C   0  0  0  0  0  0  0  0  0  0  0  0
    7.2068    0.7618   -1.4751 C   0  0  0  0  0  0  0  0  0  0  0  0
    6.7371   -0.1045   -2.4614 C   0  0  0  0  0  0  0  0  0  0  0  0
    5.9445   -1.2081   -2.1279 C   0  0  0  0  0  0  0  0  0  0  0  0
    5.6148   -1.4422   -0.7877 C   0  0  0  0  0  0  0  0  0  0  0  0
    4.8487   -2.4897   -0.3873 O   0  0  0  0  0  0  0  0  0  0  0  0
    6.0837   -0.5673    0.2052 C   0  0  0  0  0  0  0  0  0  0  0  0
    0.5965    2.8877    4.8315 H   0  0  0  0  0  0  0  0  0  0  0  0
    0.4866    2.2585    3.1714 H   0  0  0  0  0  0  0  0  0  0  0  0
    0.7101    3.9997    3.4481 H   0  0  0  0  0  0  0  0  0  0  0  0
    2.7710    1.8130    4.1819 H   0  0  0  0  0  0  0  0  0  0  0  0
    2.9916    3.5393    4.4576 H   0  0  0  0  0  0  0  0  0  0  0  0
    2.8624    3.9530    1.9735 H   0  0  0  0  0  0  0  0  0  0  0  0
    2.6438    2.2249    1.6986 H   0  0  0  0  0  0  0  0  0  0  0  0
    4.8951    1.7779    2.7465 H   0  0  0  0  0  0  0  0  0  0  0  0
    5.1208    3.5137    3.0037 H   0  0  0  0  0  0  0  0  0  0  0  0
    4.9871    3.9320    0.5416 H   0  0  0  0  0  0  0  0  0  0  0  0
    4.7515    2.1921    0.2473 H   0  0  0  0  0  0  0  0  0  0  0  0
   10.9117    2.7991    0.6492 H   0  0  0  0  0  0  0  0  0  0  0  0
    8.2878   -0.6250    2.1896 H   0  0  0  0  0  0  0  0  0  0  0  0
    8.6477   -3.0554    2.5399 H   0  0  0  0  0  0  0  0  0  0  0  0
   12.1255   -0.2742    0.2362 H   0  0  0  0  0  0  0  0  0  0  0  0
   13.6846   -2.8199    0.8206 H   0  0  0  0  0  0  0  0  0  0  0  0
   12.7036   -3.3324   -0.5672 H   0  0  0  0  0  0  0  0  0  0  0  0
   12.9035   -4.6226    2.1855 H   0  0  0  0  0  0  0  0  0  0  0  0
   12.3548   -5.3838    0.6646 H   0  0  0  0  0  0  0  0  0  0  0  0
    7.0896    1.0455    1.9413 H   0  0  0  0  0  0  0  0  0  0  0  0
    7.8272    1.6179   -1.7482 H   0  0  0  0  0  0  0  0  0  0  0  0
    6.9900    0.0751   -3.5094 H   0  0  0  0  0  0  0  0  0  0  0  0
    5.5823   -1.8860   -2.9073 H   0  0  0  0  0  0  0  0  0  0  0  0
    4.5884   -3.0133   -1.1565 H   0  0  0  0  0  0  0  0  0  0  0  0
    5.8071   -0.7714    1.2427 H   0  0  0  0  0  0  0  0  0  0  0  0
  1  2  1  0
  1 31  1  0
  1 32  1  0
  1 33  1  0
  2  3  1  0
  2 34  1  0
  2 35  1  0
  3  4  1  0
  3 36  1  0
  3 37  1  0
  4  5  1  0
  4 38  1  0
  4 39  1  0
  5  6  1  0
  5 40  1  0
  5 41  1  0
  6  7  1  0
  6 23  1  0
  7  8  2  0
  7  9  1  0
  9 10  2  0
  9 11  1  0
 11 12  2  0
 11 23  1  0
 12 13  1  0
 12 14  1  0
 13 42  1  0
 14 15  2  0
 14 19  1  0
 15 16  1  0
 15 43  1  0
 16 17  2  0
 16 44  1  0
 17 18  1  0
 17 22  1  0
 18 19  2  0
 18 20  1  0
 19 45  1  0
 20 21  1  0
 20 46  1  0
 20 47  1  0
 21 22  1  0
 21 48  1  0
 21 49  1  0
 23 24  1  0
 23 50  1  1
 24 25  2  0
 24 30  1  0
 25 26  1  0
 25 51  1  0
 26 27  2  0
 26 52  1  0
 27 28  1  0
 27 53  1  0
 28 29  1  0
 28 30  2  0
 29 54  1  0
 30 55  1  0
M  END

