
     RDKit          3D

 53 55  0  0  0  0  0  0  0  0999 V2000
   13.3799   -6.6573   -4.7164 C   0  0  0  0  0  0  0  0  0  0  0  0
   12.3037   -7.4285   -4.2341 O   0  0  0  0  0  0  0  0  0  0  0  0
   11.0376   -7.0517   -4.5280 C   0  0  0  0  0  0  0  0  0  0  0  0
   10.6886   -5.9324   -5.2964 C   0  0  0  0  0  0  0  0  0  0  0  0
    9.3546   -5.6045   -5.5570 C   0  0  0  0  0  0  0  0  0  0  0  0
    8.3222   -6.4034   -5.0443 C   0  0  0  0  0  0  0  0  0  0  0  0
    6.9592   -6.1366   -5.2562 N   0  0  0  0  0  0  0  0  0  0  0  0
    6.3754   -5.1316   -5.9710 C   0  0  0  0  0  0  0  0  0  0  0  0
    6.9606   -4.2523   -6.5818 O   0  0  0  0  0  0  0  0  0  0  0  0
    4.8262   -5.1458   -5.8929 C   0  0  2  0  0  0  0  0  0  0  0  0
    4.5054   -4.7949   -6.8927 H   0  0  0  0  0  0  0  0  0  0  0  0
    4.4170   -4.0669   -4.8816 C   0  0  0  0  0  0  0  0  0  0  0  0
    4.3308   -6.4965   -5.5859 N   0  0  0  0  0  0  0  0  0  0  0  0
    3.0596   -6.6493   -4.8638 C   0  0  0  0  0  0  0  0  0  0  0  0
    1.8244   -6.4814   -5.7653 C   0  0  0  0  0  0  0  0  0  0  0  0
    1.8523   -7.3614   -6.9350 N   0  0  0  0  0  0  0  0  0  0  0  0
    1.4089   -8.7284   -6.6919 C   0  0  0  0  0  0  0  0  0  0  0  0
   -0.0802   -8.8353   -6.4053 C   0  0  0  0  0  0  0  0  0  0  0  0
   -1.0076   -8.0795   -7.1401 C   0  0  0  0  0  0  0  0  0  0  0  0
   -2.3783   -8.2163   -6.9106 C   0  0  0  0  0  0  0  0  0  0  0  0
   -2.8458   -9.1114   -5.9415 C   0  0  0  0  0  0  0  0  0  0  0  0
   -1.9313   -9.8652   -5.2017 C   0  0  0  0  0  0  0  0  0  0  0  0
   -0.5587   -9.7236   -5.4320 C   0  0  0  0  0  0  0  0  0  0  0  0
    3.1154   -7.2236   -7.6561 C   0  0  0  0  0  0  0  0  0  0  0  0
    4.3519   -7.3945   -6.7548 C   0  0  0  0  0  0  0  0  0  0  0  0
    8.6591   -7.5310   -4.2732 C   0  0  0  0  0  0  0  0  0  0  0  0
    9.9888   -7.8487   -4.0201 C   0  0  0  0  0  0  0  0  0  0  0  0
   10.3692   -9.2550   -3.0585 Cl  0  0  0  0  0  0  0  0  0  0  0  0
   14.2967   -7.1454   -4.3595 H   0  0  0  0  0  0  0  0  0  0  0  0
   13.3513   -5.6226   -4.3290 H   0  0  0  0  0  0  0  0  0  0  0  0
   13.3999   -6.6221   -5.8209 H   0  0  0  0  0  0  0  0  0  0  0  0
   11.4684   -5.2913   -5.7082 H   0  0  0  0  0  0  0  0  0  0  0  0
    9.1037   -4.7326   -6.1571 H   0  0  0  0  0  0  0  0  0  0  0  0
    6.2676   -6.7722   -4.8548 H   0  0  0  0  0  0  0  0  0  0  0  0
    3.3351   -3.8696   -4.8996 H   0  0  0  0  0  0  0  0  0  0  0  0
    4.9343   -3.1336   -5.1445 H   0  0  0  0  0  0  0  0  0  0  0  0
    4.7090   -4.3441   -3.8562 H   0  0  0  0  0  0  0  0  0  0  0  0
    3.0180   -5.9534   -4.0154 H   0  0  0  0  0  0  0  0  0  0  0  0
    3.0554   -7.6632   -4.4251 H   0  0  0  0  0  0  0  0  0  0  0  0
    1.7689   -5.4358   -6.1204 H   0  0  0  0  0  0  0  0  0  0  0  0
    0.9030   -6.6708   -5.1925 H   0  0  0  0  0  0  0  0  0  0  0  0
    1.9587   -9.2466   -5.8759 H   0  0  0  0  0  0  0  0  0  0  0  0
    1.6296   -9.3053   -7.6079 H   0  0  0  0  0  0  0  0  0  0  0  0
   -0.6349   -7.3747   -7.8870 H   0  0  0  0  0  0  0  0  0  0  0  0
   -3.0882   -7.6209   -7.4913 H   0  0  0  0  0  0  0  0  0  0  0  0
   -3.9188   -9.2169   -5.7617 H   0  0  0  0  0  0  0  0  0  0  0  0
   -2.2854  -10.5623   -4.4376 H   0  0  0  0  0  0  0  0  0  0  0  0
    0.1526  -10.3131   -4.8452 H   0  0  0  0  0  0  0  0  0  0  0  0
    3.1383   -6.2207   -8.1206 H   0  0  0  0  0  0  0  0  0  0  0  0
    3.1454   -7.9528   -8.4822 H   0  0  0  0  0  0  0  0  0  0  0  0
    5.2754   -7.2219   -7.3301 H   0  0  0  0  0  0  0  0  0  0  0  0
    4.3991   -8.4356   -6.3873 H   0  0  0  0  0  0  0  0  0  0  0  0
    7.8795   -8.1737   -3.8591 H   0  0  0  0  0  0  0  0  0  0  0  0
  1  2  1  0
  1 29  1  0
  1 30  1  0
  1 31  1  0
  2  3  1  0
  3  4  2  0
  3 27  1  0
  4  5  1  0
  4 32  1  0
  5  6  2  0
  5 33  1  0
  6  7  1  0
  6 26  1  0
  7  8  1  0
  7 34  1  0
  8  9  2  0
  8 10  1  0
 10 11  1  6
 10 12  1  0
 10 13  1  0
 12 35  1  0
 12 36  1  0
 12 37  1  0
 13 14  1  0
 13 25  1  0
 14 15  1  0
 14 38  1  0
 14 39  1  0
 15 16  1  0
 15 40  1  0
 15 41  1  0
 16 17  1  0
 16 24  1  0
 17 18  1  0
 17 42  1  0
 17 43  1  0
 18 19  2  0
 18 23  1  0
 19 20  1  0
 19 44  1  0
 20 21  2  0
 20 45  1  0
 21 22  1  0
 21 46  1  0
 22 23  2  0
 22 47  1  0
 23 48  1  0
 24 25  1  0
 24 49  1  0
 24 50  1  0
 25 51  1  0
 25 52  1  0
 26 27  2  0
 26 53  1  0
 27 28  1  0
M  END

