
     RDKit          3D

 35 36  0  0  0  0  0  0  0  0999 V2000
    0.9052    0.3264    0.4666 C   0  0  0  0  0  0  0  0  0  0  0  0
    2.3916    0.0389    0.5488 C   0  0  0  0  0  0  0  0  0  0  0  0
    3.0722    1.2828    0.6722 O   0  0  0  0  0  0  0  0  0  0  0  0
    4.4178    1.3192    0.7687 C   0  0  0  0  0  0  0  0  0  0  0  0
    5.2442    0.1772    0.7533 C   0  0  0  0  0  0  0  0  0  0  0  0
    6.6340    0.2769    0.8592 C   0  0  0  0  0  0  0  0  0  0  0  0
    7.4541   -0.9885    0.8362 C   0  0  0  0  0  0  0  0  0  0  0  0
    7.2342    1.5612    0.9845 C   0  0  0  0  0  0  0  0  0  0  0  0
    8.6977    1.7741    1.1022 C   0  0  0  0  0  0  0  0  0  0  0  0
    9.5293    0.8721    1.1027 O   0  0  0  0  0  0  0  0  0  0  0  0
    9.0946    3.1827    1.2206 C   0  0  0  0  0  0  0  0  0  0  0  0
    8.1941    4.1910    1.2235 C   0  0  0  0  0  0  0  0  0  0  0  0
    8.4922    5.6535    1.3378 C   0  0  0  0  0  0  0  0  0  0  0  0
    8.0798    6.5072    0.1212 C   0  0  0  0  0  0  0  0  0  0  0  0
    8.3626    5.9392   -1.2533 C   0  0  0  0  0  0  0  0  0  0  0  0
    7.5858    7.5963    0.2857 O   0  0  0  0  0  0  0  0  0  0  0  0
    6.8630    3.9626    1.1111 O   0  0  0  0  0  0  0  0  0  0  0  0
    6.3775    2.6862    0.9955 C   0  0  0  0  0  0  0  0  0  0  0  0
    4.9934    2.5868    0.8908 C   0  0  0  0  0  0  0  0  0  0  0  0
    0.3418   -0.6144    0.3694 H   0  0  0  0  0  0  0  0  0  0  0  0
    0.6787    0.9603   -0.4041 H   0  0  0  0  0  0  0  0  0  0  0  0
    0.5594    0.8482    1.3719 H   0  0  0  0  0  0  0  0  0  0  0  0
    2.7409   -0.4917   -0.3562 H   0  0  0  0  0  0  0  0  0  0  0  0
    2.6208   -0.6020    1.4200 H   0  0  0  0  0  0  0  0  0  0  0  0
    4.8052   -0.8153    0.6572 H   0  0  0  0  0  0  0  0  0  0  0  0
    6.8014   -1.8677    0.7310 H   0  0  0  0  0  0  0  0  0  0  0  0
    8.0561   -1.0922    1.7506 H   0  0  0  0  0  0  0  0  0  0  0  0
    8.1832   -0.9780    0.0130 H   0  0  0  0  0  0  0  0  0  0  0  0
   10.1606    3.3932    1.3137 H   0  0  0  0  0  0  0  0  0  0  0  0
    9.5768    5.7850    1.4823 H   0  0  0  0  0  0  0  0  0  0  0  0
    7.9775    6.0846    2.2104 H   0  0  0  0  0  0  0  0  0  0  0  0
    9.3842    5.5314   -1.3155 H   0  0  0  0  0  0  0  0  0  0  0  0
    8.2136    6.7198   -2.0105 H   0  0  0  0  0  0  0  0  0  0  0  0
    7.6732    5.1027   -1.4558 H   0  0  0  0  0  0  0  0  0  0  0  0
    4.3706    3.4810    0.9063 H   0  0  0  0  0  0  0  0  0  0  0  0
  1  2  1  0
  1 20  1  0
  1 21  1  0
  1 22  1  0
  2  3  1  0
  2 23  1  0
  2 24  1  0
  3  4  1  0
  4  5  2  0
  4 19  1  0
  5  6  1  0
  5 25  1  0
  6  7  1  0
  6  8  2  0
  7 26  1  0
  7 27  1  0
  7 28  1  0
  8  9  1  0
  8 18  1  0
  9 10  2  0
  9 11  1  0
 11 12  2  0
 11 29  1  0
 12 13  1  0
 12 17  1  0
 13 14  1  0
 13 30  1  0
 13 31  1  0
 14 15  1  0
 14 16  2  0
 15 32  1  0
 15 33  1  0
 15 34  1  0
 17 18  1  0
 18 19  2  0
 19 35  1  0
M  END

