
     RDKit          3D

 29 31  0  0  0  0  0  0  0  0999 V2000
    1.1337    0.5603    0.6106 O   0  0  0  0  0  0  0  0  0  0  0  0
    2.1223    0.1937   -0.0437 C   0  0  0  0  0  0  0  0  0  0  0  0
    3.2501    1.2349   -0.2069 N   0  0  0  0  0  0  0  0  0  0  0  0
    4.1474    0.9863   -1.1820 C   0  0  0  0  0  0  0  0  0  0  0  0
    4.8320    1.9885   -1.9047 C   0  0  0  0  0  0  0  0  0  0  0  0
    5.7599    1.6736   -2.8852 C   0  0  0  0  0  0  0  0  0  0  0  0
    6.0536    0.3267   -3.2046 C   0  0  0  0  0  0  0  0  0  0  0  0
    7.0510    0.0308   -4.2893 C   0  0  1  0  0  0  0  0  0  0  0  0
    8.2512    0.5821   -4.0214 F   0  0  0  0  0  0  0  0  0  0  0  0
    7.2445   -1.2895   -4.4563 F   0  0  0  0  0  0  0  0  0  0  0  0
    6.6594    0.5322   -5.4773 F   0  0  0  0  0  0  0  0  0  0  0  0
    5.4177   -0.6916   -2.5133 C   0  0  0  0  0  0  0  0  0  0  0  0
    4.4736   -0.4037   -1.4963 C   0  0  0  0  0  0  0  0  0  0  0  0
    3.8958   -1.3977   -0.7666 N   0  0  0  0  0  0  0  0  0  0  0  0
    3.9884   -2.8223   -1.0936 C   0  0  0  0  0  0  0  0  0  0  0  0
    3.0753   -3.5000   -0.0635 C   0  0  0  0  0  0  0  0  0  0  0  0
    2.0369   -2.4149    0.2534 C   0  0  0  0  0  0  0  0  0  0  0  0
    2.8570   -1.1279    0.2214 C   0  0  2  0  0  0  0  0  0  0  0  0
    3.3825   -0.9713    1.1864 H   0  0  0  0  0  0  0  0  0  0  0  0
    2.9176    2.1892   -0.1043 H   0  0  0  0  0  0  0  0  0  0  0  0
    4.6084    3.0331   -1.6792 H   0  0  0  0  0  0  0  0  0  0  0  0
    6.2651    2.4771   -3.4257 H   0  0  0  0  0  0  0  0  0  0  0  0
    5.6576   -1.7267   -2.7492 H   0  0  0  0  0  0  0  0  0  0  0  0
    5.0336   -3.1701   -1.0581 H   0  0  0  0  0  0  0  0  0  0  0  0
    3.6221   -2.9772   -2.1261 H   0  0  0  0  0  0  0  0  0  0  0  0
    3.6513   -3.7601    0.8391 H   0  0  0  0  0  0  0  0  0  0  0  0
    2.6374   -4.4281   -0.4585 H   0  0  0  0  0  0  0  0  0  0  0  0
    1.5257   -2.5528    1.2146 H   0  0  0  0  0  0  0  0  0  0  0  0
    1.2656   -2.3610   -0.5333 H   0  0  0  0  0  0  0  0  0  0  0  0
  1  2  2  0
  2  3  1  0
  2 18  1  0
  3  4  1  0
  3 20  1  0
  4  5  1  0
  4 13  2  0
  5  6  2  0
  5 21  1  0
  6  7  1  0
  6 22  1  0
  7  8  1  0
  7 12  2  0
  8  9  1  6
  8 10  1  0
  8 11  1  0
 12 13  1  0
 12 23  1  0
 13 14  1  0
 14 15  1  0
 14 18  1  0
 15 16  1  0
 15 24  1  0
 15 25  1  0
 16 17  1  0
 16 26  1  0
 16 27  1  0
 17 18  1  0
 17 28  1  0
 17 29  1  0
 18 19  1  1
M  END

