
     RDKit          3D

 75 78  0  0  0  0  0  0  0  0999 V2000
    2.0302    2.9311   -2.5499 C   0  0  0  0  0  0  0  0  0  0  0  0
    3.4789    2.6870   -2.1715 C   0  0  0  0  0  0  0  0  0  0  0  0
    3.6166    1.3405   -1.7463 O   0  0  0  0  0  0  0  0  0  0  0  0
    4.8364    0.8648   -1.3639 C   0  0  0  0  0  0  0  0  0  0  0  0
    5.9540    1.6945   -1.2784 C   0  0  0  0  0  0  0  0  0  0  0  0
    7.2218    1.2156   -0.8897 C   0  0  0  0  0  0  0  0  0  0  0  0
    8.5495    2.3571   -0.8237 Cl  0  0  0  0  0  0  0  0  0  0  0  0
    7.3568   -0.1573   -0.6035 C   0  0  0  0  0  0  0  0  0  0  0  0
    8.8741   -0.9636   -0.0710 S   0  0  1  0  0  0  0  0  0  0  0  0
    9.3813   -0.3502    1.1581 O   0  0  0  0  0  0  0  0  0  0  0  0
    8.5996   -2.4171   -0.0907 O   0  0  0  0  0  0  0  0  0  0  0  0
    9.9905   -0.6397   -1.2482 N   0  0  0  0  0  0  0  0  0  0  0  0
    9.8515   -1.1309   -2.6223 C   0  0  0  0  0  0  0  0  0  0  0  0
   11.1960   -0.7388   -3.2603 C   0  0  0  0  0  0  0  0  0  0  0  0
   11.6450    0.4829   -2.4424 C   0  0  0  0  0  0  0  0  0  0  0  0
   11.2208    0.1263   -1.0135 C   0  0  0  0  0  0  0  0  0  0  0  0
    6.2466   -0.9745   -0.6902 C   0  0  0  0  0  0  0  0  0  0  0  0
    4.9385   -0.5449   -1.0577 C   0  0  0  0  0  0  0  0  0  0  0  0
    3.9230   -1.5680   -1.0871 C   0  0  0  0  0  0  0  0  0  0  0  0
    4.2073   -2.7874   -0.6638 N   0  0  0  0  0  0  0  0  0  0  0  0
    3.7517   -4.0704   -1.1170 C   0  0  1  0  0  0  0  0  0  0  0  0
    2.2488   -4.3656   -0.9090 C   0  0  0  0  0  0  0  0  0  0  0  0
    4.1166   -4.3174   -2.6009 C   0  0  0  0  0  0  0  0  0  0  0  0
    4.5914   -5.0805   -0.1971 C   0  0  1  0  0  0  0  0  0  0  0  0
    4.3646   -6.5195   -0.4502 C   0  0  0  0  0  0  0  0  0  0  0  0
    5.3321   -7.4953   -0.3768 C   0  0  0  0  0  0  0  0  0  0  0  0
    6.6799   -7.1417   -0.0718 C   0  0  0  0  0  0  0  0  0  0  0  0
    7.8629   -8.3776    0.0783 Cl  0  0  0  0  0  0  0  0  0  0  0  0
    7.0427   -5.8081    0.0829 C   0  0  0  0  0  0  0  0  0  0  0  0
    6.0803   -4.7143   -0.0885 C   0  0  0  0  0  0  0  0  0  0  0  0
    2.5454   -1.1579   -1.4325 N   0  0  0  0  0  0  0  0  0  0  0  0
    1.7767   -0.5214   -0.3443 C   0  0  0  0  0  0  0  0  0  0  0  0
    1.1330   -1.4763    0.6417 C   0  0  0  0  0  0  0  0  0  0  0  0
    1.7928   -1.8299    1.8277 C   0  0  0  0  0  0  0  0  0  0  0  0
    1.2068   -2.7000    2.7509 C   0  0  0  0  0  0  0  0  0  0  0  0
   -0.0608   -3.2244    2.4849 C   0  0  0  0  0  0  0  0  0  0  0  0
   -0.8052   -4.3163    3.6361 Cl  0  0  0  0  0  0  0  0  0  0  0  0
   -0.7446   -2.8813    1.3149 C   0  0  0  0  0  0  0  0  0  0  0  0
   -0.1439   -2.0091    0.4045 C   0  0  0  0  0  0  0  0  0  0  0  0
    2.2028   -1.1583   -2.7347 C   0  0  0  0  0  0  0  0  0  0  0  0
    2.8540   -1.4960   -3.6801 O   0  0  0  0  0  0  0  0  0  0  0  0
    0.4462   -0.6390   -3.0576 Cl  0  0  0  0  0  0  0  0  0  0  0  0
    1.9095    3.9602   -2.9229 H   0  0  0  0  0  0  0  0  0  0  0  0
    1.3685    2.8019   -1.6796 H   0  0  0  0  0  0  0  0  0  0  0  0
    1.7026    2.2317   -3.3330 H   0  0  0  0  0  0  0  0  0  0  0  0
    3.7881    3.3742   -1.3614 H   0  0  0  0  0  0  0  0  0  0  0  0
    4.1470    2.8734   -3.0331 H   0  0  0  0  0  0  0  0  0  0  0  0
    5.8732    2.7525   -1.5172 H   0  0  0  0  0  0  0  0  0  0  0  0
    9.0013   -0.6412   -3.1326 H   0  0  0  0  0  0  0  0  0  0  0  0
    9.6742   -2.2182   -2.6431 H   0  0  0  0  0  0  0  0  0  0  0  0
   11.1030   -0.5339   -4.3374 H   0  0  0  0  0  0  0  0  0  0  0  0
   11.9223   -1.5599   -3.1389 H   0  0  0  0  0  0  0  0  0  0  0  0
   11.0967    1.3810   -2.7705 H   0  0  0  0  0  0  0  0  0  0  0  0
   12.7229    0.6896   -2.5256 H   0  0  0  0  0  0  0  0  0  0  0  0
   11.0237    1.0037   -0.3839 H   0  0  0  0  0  0  0  0  0  0  0  0
   11.9870   -0.4905   -0.5072 H   0  0  0  0  0  0  0  0  0  0  0  0
    6.3616   -2.0243   -0.4694 H   0  0  0  0  0  0  0  0  0  0  0  0
    1.6485   -3.6563   -1.4907 H   0  0  0  0  0  0  0  0  0  0  0  0
    1.9609   -4.2518    0.1463 H   0  0  0  0  0  0  0  0  0  0  0  0
    1.9578   -5.3730   -1.2499 H   0  0  0  0  0  0  0  0  0  0  0  0
    3.6140   -3.5762   -3.2353 H   0  0  0  0  0  0  0  0  0  0  0  0
    3.8188   -5.3231   -2.9433 H   0  0  0  0  0  0  0  0  0  0  0  0
    5.1973   -4.1948   -2.7754 H   0  0  0  0  0  0  0  0  0  0  0  0
    4.1390   -4.9145    0.8047 H   0  0  0  0  0  0  0  0  0  0  0  0
    3.3443   -6.8416   -0.6686 H   0  0  0  0  0  0  0  0  0  0  0  0
    5.0846   -8.5454   -0.5377 H   0  0  0  0  0  0  0  0  0  0  0  0
    8.0848   -5.5470    0.2839 H   0  0  0  0  0  0  0  0  0  0  0  0
    6.4293   -4.1706   -0.9884 H   0  0  0  0  0  0  0  0  0  0  0  0
    6.2702   -3.9501    0.6799 H   0  0  0  0  0  0  0  0  0  0  0  0
    1.0120    0.1178   -0.7971 H   0  0  0  0  0  0  0  0  0  0  0  0
    2.4763    0.1364    0.1877 H   0  0  0  0  0  0  0  0  0  0  0  0
    2.7865   -1.4237    2.0316 H   0  0  0  0  0  0  0  0  0  0  0  0
    1.7219   -2.9672    3.6753 H   0  0  0  0  0  0  0  0  0  0  0  0
   -1.7386   -3.2907    1.1265 H   0  0  0  0  0  0  0  0  0  0  0  0
   -0.6740   -1.7415   -0.5128 H   0  0  0  0  0  0  0  0  0  0  0  0
  1  2  1  0
  1 43  1  0
  1 44  1  0
  1 45  1  0
  2  3  1  0
  2 46  1  0
  2 47  1  0
  3  4  1  0
  4  5  2  0
  4 18  1  0
  5  6  1  0
  5 48  1  0
  6  7  1  0
  6  8  2  0
  9  8  1  6
  8 17  1  0
  9 10  2  0
  9 11  2  0
  9 12  1  0
 12 13  1  0
 12 16  1  0
 13 14  1  0
 13 49  1  0
 13 50  1  0
 14 15  1  0
 14 51  1  0
 14 52  1  0
 15 16  1  0
 15 53  1  0
 15 54  1  0
 16 55  1  0
 16 56  1  0
 17 18  2  0
 17 57  1  0
 18 19  1  0
 19 20  2  0
 19 31  1  0
 21 20  1  6
 21 22  1  0
 21 23  1  0
 21 24  1  0
 22 58  1  0
 22 59  1  0
 22 60  1  0
 23 61  1  0
 23 62  1  0
 23 63  1  0
 24 25  1  0
 24 30  1  0
 24 64  1  1
 25 26  2  0
 25 65  1  0
 26 27  1  0
 26 66  1  0
 27 28  1  0
 27 29  2  0
 29 30  1  0
 29 67  1  0
 30 68  1  0
 30 69  1  0
 31 32  1  0
 31 40  1  0
 32 33  1  0
 32 70  1  0
 32 71  1  0
 33 34  2  0
 33 39  1  0
 34 35  1  0
 34 72  1  0
 35 36  2  0
 35 73  1  0
 36 37  1  0
 36 38  1  0
 38 39  2  0
 38 74  1  0
 39 75  1  0
 40 41  2  0
 40 42  1  0
M  END

