
     RDKit          3D

 53 55  0  0  0  0  0  0  0  0999 V2000
   -0.0116   -1.3847   -5.7029 C   0  0  0  0  0  0  0  0  0  0  0  0
    1.4963   -1.1275   -5.7290 C   0  0  0  0  0  0  0  0  0  0  0  0
    2.3030   -2.1902   -4.9735 C   0  0  0  0  0  0  0  0  0  0  0  0
    3.8351   -2.0188   -5.0393 C   0  0  1  0  0  0  0  0  0  0  0  0
    4.3620   -0.7656   -4.3066 C   0  0  0  0  0  0  0  0  0  0  0  0
    4.3245   -0.8983   -2.7749 C   0  0  0  0  0  0  0  0  0  0  0  0
    5.0563   -2.1491   -2.2456 C   0  0  2  0  0  0  0  0  0  0  0  0
    6.5670   -2.0662   -2.2573 C   0  0  0  0  0  0  0  0  0  0  0  0
    7.3034   -0.8884   -2.6109 C   0  0  0  0  0  0  0  0  0  0  0  0
    8.7225   -0.8710   -2.5393 C   0  0  0  0  0  0  0  0  0  0  0  0
    9.3489    0.2595   -2.8982 F   0  0  0  0  0  0  0  0  0  0  0  0
    9.5249   -1.9707   -2.1211 C   0  0  0  0  0  0  0  0  0  0  0  0
   11.0076   -1.8952   -1.9936 C   0  0  0  0  0  0  0  0  0  0  0  0
   11.4964   -1.2738   -0.6405 C   0  0  0  0  0  0  0  0  0  0  0  0
   12.9986   -1.2012   -0.5438 C   0  0  0  0  0  0  0  0  0  0  0  0
   13.7403   -2.2387    0.0451 C   0  0  0  0  0  0  0  0  0  0  0  0
   15.1365   -2.1958    0.0877 C   0  0  0  0  0  0  0  0  0  0  0  0
   15.8101   -1.1118   -0.4663 C   0  0  0  0  0  0  0  0  0  0  0  0
   17.1453   -1.0469   -0.4350 F   0  0  0  0  0  0  0  0  0  0  0  0
   15.0855   -0.0726   -1.0601 C   0  0  0  0  0  0  0  0  0  0  0  0
   15.7466    0.9654   -1.5826 F   0  0  0  0  0  0  0  0  0  0  0  0
   13.6972   -0.1149   -1.1018 C   0  0  0  0  0  0  0  0  0  0  0  0
    8.7578   -3.1024   -1.7179 C   0  0  0  0  0  0  0  0  0  0  0  0
    9.4164   -4.1794   -1.2712 F   0  0  0  0  0  0  0  0  0  0  0  0
    7.3391   -3.1738   -1.7739 C   0  0  0  0  0  0  0  0  0  0  0  0
    4.5111   -3.4022   -2.9862 C   0  0  0  0  0  0  0  0  0  0  0  0
    4.5863   -3.2592   -4.5115 C   0  0  0  0  0  0  0  0  0  0  0  0
   -0.5651   -0.6079   -6.2545 H   0  0  0  0  0  0  0  0  0  0  0  0
   -0.3985   -1.3981   -4.6700 H   0  0  0  0  0  0  0  0  0  0  0  0
   -0.2609   -2.3578   -6.1587 H   0  0  0  0  0  0  0  0  0  0  0  0
    1.6986   -0.1279   -5.3063 H   0  0  0  0  0  0  0  0  0  0  0  0
    1.8450   -1.0860   -6.7772 H   0  0  0  0  0  0  0  0  0  0  0  0
    2.0512   -3.1817   -5.3927 H   0  0  0  0  0  0  0  0  0  0  0  0
    1.9595   -2.2201   -3.9241 H   0  0  0  0  0  0  0  0  0  0  0  0
    4.0917   -1.9083   -6.1087 H   0  0  0  0  0  0  0  0  0  0  0  0
    3.7978    0.1306   -4.6127 H   0  0  0  0  0  0  0  0  0  0  0  0
    5.4015   -0.5920   -4.6340 H   0  0  0  0  0  0  0  0  0  0  0  0
    3.2753   -0.9602   -2.4402 H   0  0  0  0  0  0  0  0  0  0  0  0
    4.7264    0.0131   -2.3028 H   0  0  0  0  0  0  0  0  0  0  0  0
    4.7654   -2.2736   -1.1791 H   0  0  0  0  0  0  0  0  0  0  0  0
    6.8118    0.0283   -2.9312 H   0  0  0  0  0  0  0  0  0  0  0  0
   11.4198   -1.2847   -2.8134 H   0  0  0  0  0  0  0  0  0  0  0  0
   11.4391   -2.9037   -2.0850 H   0  0  0  0  0  0  0  0  0  0  0  0
   11.0936   -1.8806    0.1852 H   0  0  0  0  0  0  0  0  0  0  0  0
   11.0605   -0.2667   -0.5475 H   0  0  0  0  0  0  0  0  0  0  0  0
   13.2187   -3.0926    0.4851 H   0  0  0  0  0  0  0  0  0  0  0  0
   15.7212   -2.9935    0.5508 H   0  0  0  0  0  0  0  0  0  0  0  0
   13.1699    0.7203   -1.5694 H   0  0  0  0  0  0  0  0  0  0  0  0
    6.8651   -4.0886   -1.4174 H   0  0  0  0  0  0  0  0  0  0  0  0
    3.4644   -3.5570   -2.6720 H   0  0  0  0  0  0  0  0  0  0  0  0
    5.0567   -4.3048   -2.6684 H   0  0  0  0  0  0  0  0  0  0  0  0
    4.1912   -4.1712   -4.9910 H   0  0  0  0  0  0  0  0  0  0  0  0
    5.6474   -3.1867   -4.8088 H   0  0  0  0  0  0  0  0  0  0  0  0
  1  2  1  0
  1 28  1  0
  1 29  1  0
  1 30  1  0
  2  3  1  0
  2 31  1  0
  2 32  1  0
  3  4  1  0
  3 33  1  0
  3 34  1  0
  4  5  1  0
  4 27  1  0
  4 35  1  6
  5  6  1  0
  5 36  1  0
  5 37  1  0
  6  7  1  0
  6 38  1  0
  6 39  1  0
  7  8  1  0
  7 26  1  0
  7 40  1  1
  8  9  2  0
  8 25  1  0
  9 10  1  0
  9 41  1  0
 10 11  1  0
 10 12  2  0
 12 13  1  0
 12 23  1  0
 13 14  1  0
 13 42  1  0
 13 43  1  0
 14 15  1  0
 14 44  1  0
 14 45  1  0
 15 16  2  0
 15 22  1  0
 16 17  1  0
 16 46  1  0
 17 18  2  0
 17 47  1  0
 18 19  1  0
 18 20  1  0
 20 21  1  0
 20 22  2  0
 22 48  1  0
 23 24  1  0
 23 25  2  0
 25 49  1  0
 26 27  1  0
 26 50  1  0
 26 51  1  0
 27 52  1  0
 27 53  1  0
M  END

