
     RDKit          3D

 58 61  0  0  0  0  0  0  0  0999 V2000
    2.0160    0.6104    1.7266 C   0  0  0  0  0  0  0  0  0  0  0  0
    3.2318    0.0664    1.2989 O   0  0  0  0  0  0  0  0  0  0  0  0
    3.1410   -0.6850    0.1098 C   0  0  0  0  0  0  0  0  0  0  0  0
    4.4801   -1.3529   -0.1693 C   0  0  0  0  0  0  0  0  0  0  0  0
    4.8301   -2.3807    0.7924 N   0  0  0  0  0  0  0  0  0  0  0  0
    5.4450   -2.0707    1.9749 C   0  0  0  0  0  0  0  0  0  0  0  0
    5.7796   -2.8948    2.9084 N   0  0  0  0  0  0  0  0  0  0  0  0
    5.4736   -4.2424    2.7132 C   0  0  0  0  0  0  0  0  0  0  0  0
    5.8171   -5.1596    3.6979 C   0  0  0  0  0  0  0  0  0  0  0  0
    5.5156   -6.5415    3.5299 C   0  0  0  0  0  0  0  0  0  0  0  0
    5.8938   -7.4669    4.5810 N   0  0  0  0  0  0  0  0  0  0  0  0
    4.9388   -7.9348    5.5246 C   0  0  0  0  0  0  0  0  0  0  0  0
    4.4771   -9.3988    5.0883 C   0  0  0  0  0  0  0  0  0  0  0  0
    5.6186  -10.2596    4.9725 N   0  0  0  0  0  0  0  0  0  0  0  0
    5.8798  -11.2464    6.0115 C   0  0  1  0  0  0  0  0  0  0  0  0
    6.3458  -12.6145    5.4175 C   0  0  0  0  0  0  0  0  0  0  0  0
    6.7446  -13.7337    6.4103 C   0  0  0  0  0  0  0  0  0  0  0  0
    8.0312  -13.5109    7.2451 C   0  0  0  0  0  0  0  0  0  0  0  0
    7.8419  -12.6049    8.4869 C   0  0  0  0  0  0  0  0  0  0  0  0
    6.7993  -11.5978    8.2318 N   0  0  0  0  0  0  0  0  0  0  0  0
    6.9535  -10.8923    7.0527 C   0  0  0  0  0  0  0  0  0  0  0  0
    7.9526  -10.2599    6.7768 O   0  0  0  0  0  0  0  0  0  0  0  0
    6.6492   -9.7707    4.1006 C   0  0  0  0  0  0  0  0  0  0  0  0
    7.0621   -8.2698    4.4886 C   0  0  0  0  0  0  0  0  0  0  0  0
    4.8667   -6.9851    2.3534 C   0  0  0  0  0  0  0  0  0  0  0  0
    4.5158   -6.0871    1.3649 C   0  0  0  0  0  0  0  0  0  0  0  0
    4.8066   -4.6812    1.5082 C   0  0  0  0  0  0  0  0  0  0  0  0
    4.4447   -3.7511    0.4929 C   0  0  0  0  0  0  0  0  0  0  0  0
    3.8589   -3.9794   -0.5769 O   0  0  0  0  0  0  0  0  0  0  0  0
    2.2010    1.1641    2.6595 H   0  0  0  0  0  0  0  0  0  0  0  0
    1.2558   -0.1724    1.9273 H   0  0  0  0  0  0  0  0  0  0  0  0
    1.5863    1.3129    0.9816 H   0  0  0  0  0  0  0  0  0  0  0  0
    2.8714   -0.0282   -0.7460 H   0  0  0  0  0  0  0  0  0  0  0  0
    2.3560   -1.4630    0.1887 H   0  0  0  0  0  0  0  0  0  0  0  0
    5.2699   -0.5839   -0.1908 H   0  0  0  0  0  0  0  0  0  0  0  0
    4.4237   -1.8415   -1.1516 H   0  0  0  0  0  0  0  0  0  0  0  0
    5.6617   -1.0028    2.1075 H   0  0  0  0  0  0  0  0  0  0  0  0
    6.3175   -4.7891    4.5939 H   0  0  0  0  0  0  0  0  0  0  0  0
    4.0686   -7.2701    5.5494 H   0  0  0  0  0  0  0  0  0  0  0  0
    5.3771   -8.0255    6.5335 H   0  0  0  0  0  0  0  0  0  0  0  0
    3.9647   -9.2914    4.1224 H   0  0  0  0  0  0  0  0  0  0  0  0
    3.7657   -9.7945    5.8254 H   0  0  0  0  0  0  0  0  0  0  0  0
    4.9204  -11.4134    6.5259 H   0  0  0  0  0  0  0  0  0  0  0  0
    7.2066  -12.4213    4.7571 H   0  0  0  0  0  0  0  0  0  0  0  0
    5.5311  -12.9789    4.7717 H   0  0  0  0  0  0  0  0  0  0  0  0
    6.8939  -14.6376    5.7989 H   0  0  0  0  0  0  0  0  0  0  0  0
    5.8935  -13.9755    7.0744 H   0  0  0  0  0  0  0  0  0  0  0  0
    8.8031  -13.0759    6.5884 H   0  0  0  0  0  0  0  0  0  0  0  0
    8.4255  -14.4861    7.5724 H   0  0  0  0  0  0  0  0  0  0  0  0
    8.7808  -12.1017    8.7566 H   0  0  0  0  0  0  0  0  0  0  0  0
    7.5207  -13.1890    9.3621 H   0  0  0  0  0  0  0  0  0  0  0  0
    5.8713  -11.9976    8.3300 H   0  0  0  0  0  0  0  0  0  0  0  0
    6.2875   -9.7336    3.0629 H   0  0  0  0  0  0  0  0  0  0  0  0
    7.5458  -10.3955    4.1600 H   0  0  0  0  0  0  0  0  0  0  0  0
    7.7321   -7.8760    3.7173 H   0  0  0  0  0  0  0  0  0  0  0  0
    7.5836   -8.3551    5.4535 H   0  0  0  0  0  0  0  0  0  0  0  0
    4.6363   -8.0445    2.2075 H   0  0  0  0  0  0  0  0  0  0  0  0
    4.0159   -6.4172    0.4536 H   0  0  0  0  0  0  0  0  0  0  0  0
  1  2  1  0
  1 30  1  0
  1 31  1  0
  1 32  1  0
  2  3  1  0
  3  4  1  0
  3 33  1  0
  3 34  1  0
  4  5  1  0
  4 35  1  0
  4 36  1  0
  5  6  1  0
  5 28  1  0
  6  7  2  0
  6 37  1  0
  7  8  1  0
  8  9  1  0
  8 27  2  0
  9 10  2  0
  9 38  1  0
 10 11  1  0
 10 25  1  0
 11 12  1  0
 11 24  1  0
 12 13  1  0
 12 39  1  0
 12 40  1  0
 13 14  1  0
 13 41  1  0
 13 42  1  0
 14 15  1  0
 14 23  1  0
 15 16  1  0
 15 21  1  0
 15 43  1  1
 16 17  1  0
 16 44  1  0
 16 45  1  0
 17 18  1  0
 17 46  1  0
 17 47  1  0
 18 19  1  0
 18 48  1  0
 18 49  1  0
 19 20  1  0
 19 50  1  0
 19 51  1  0
 20 21  1  0
 20 52  1  0
 21 22  2  0
 23 24  1  0
 23 53  1  0
 23 54  1  0
 24 55  1  0
 24 56  1  0
 25 26  2  0
 25 57  1  0
 26 27  1  0
 26 58  1  0
 27 28  1  0
 28 29  2  0
M  END

