
     RDKit          3D

 35 36  0  0  0  0  0  0  0  0999 V2000
    5.2826   -1.8821   -1.3083 C   0  0  0  0  0  0  0  0  0  0  0  0
    4.4807   -0.6839   -0.8596 C   0  0  0  0  0  0  0  0  0  0  0  0
    4.9770    0.6086   -1.0639 C   0  0  0  0  0  0  0  0  0  0  0  0
    4.2458    1.7188   -0.6518 C   0  0  0  0  0  0  0  0  0  0  0  0
    4.7490    2.9468   -0.8620 F   0  0  0  0  0  0  0  0  0  0  0  0
    3.0117    1.5769   -0.0294 C   0  0  0  0  0  0  0  0  0  0  0  0
    2.4984    0.2965    0.1837 C   0  0  0  0  0  0  0  0  0  0  0  0
    3.2207   -0.8375   -0.2270 C   0  0  0  0  0  0  0  0  0  0  0  0
    2.7375   -2.1501   -0.0340 N   0  0  0  0  0  0  0  0  0  0  0  0
    1.5650   -2.5738    0.5499 C   0  0  0  0  0  0  0  0  0  0  0  0
    0.7349   -1.8310    1.0438 O   0  0  0  0  0  0  0  0  0  0  0  0
    1.3613   -4.0887    0.5041 C   0  0  0  0  0  0  0  0  0  0  0  0
    0.6542   -4.6080    1.7661 C   0  0  0  0  0  0  0  0  0  0  0  0
    0.2644   -6.0646    1.6849 C   0  0  0  0  0  0  0  0  0  0  0  0
   -1.0692   -6.4810    1.5563 C   0  0  0  0  0  0  0  0  0  0  0  0
   -1.4093   -7.8356    1.4814 C   0  0  0  0  0  0  0  0  0  0  0  0
   -0.4094   -8.8105    1.5346 C   0  0  0  0  0  0  0  0  0  0  0  0
    0.9294   -8.4281    1.6614 C   0  0  0  0  0  0  0  0  0  0  0  0
    1.2355   -7.0732    1.7319 C   0  0  0  0  0  0  0  0  0  0  0  0
    2.5306   -6.7093    1.8523 F   0  0  0  0  0  0  0  0  0  0  0  0
    6.2297   -1.5715   -1.7703 H   0  0  0  0  0  0  0  0  0  0  0  0
    4.7396   -2.4874   -2.0565 H   0  0  0  0  0  0  0  0  0  0  0  0
    5.5356   -2.5496   -0.4652 H   0  0  0  0  0  0  0  0  0  0  0  0
    5.9436    0.7627   -1.5483 H   0  0  0  0  0  0  0  0  0  0  0  0
    2.4593    2.4643    0.2856 H   0  0  0  0  0  0  0  0  0  0  0  0
    1.5363    0.1580    0.6708 H   0  0  0  0  0  0  0  0  0  0  0  0
    3.3347   -2.8876   -0.3835 H   0  0  0  0  0  0  0  0  0  0  0  0
    2.3158   -4.6171    0.3524 H   0  0  0  0  0  0  0  0  0  0  0  0
    0.7343   -4.3014   -0.3805 H   0  0  0  0  0  0  0  0  0  0  0  0
   -0.2391   -3.9906    1.9361 H   0  0  0  0  0  0  0  0  0  0  0  0
    1.3176   -4.4499    2.6330 H   0  0  0  0  0  0  0  0  0  0  0  0
   -1.8541   -5.7203    1.5210 H   0  0  0  0  0  0  0  0  0  0  0  0
   -2.4572   -8.1288    1.3844 H   0  0  0  0  0  0  0  0  0  0  0  0
   -0.6669   -9.8709    1.4788 H   0  0  0  0  0  0  0  0  0  0  0  0
    1.7388   -9.1594    1.7080 H   0  0  0  0  0  0  0  0  0  0  0  0
  1  2  1  0
  1 21  1  0
  1 22  1  0
  1 23  1  0
  2  3  2  0
  2  8  1  0
  3  4  1  0
  3 24  1  0
  4  5  1  0
  4  6  2  0
  6  7  1  0
  6 25  1  0
  7  8  2  0
  7 26  1  0
  8  9  1  0
  9 10  1  0
  9 27  1  0
 10 11  2  0
 10 12  1  0
 12 13  1  0
 12 28  1  0
 12 29  1  0
 13 14  1  0
 13 30  1  0
 13 31  1  0
 14 15  2  0
 14 19  1  0
 15 16  1  0
 15 32  1  0
 16 17  2  0
 16 33  1  0
 17 18  1  0
 17 34  1  0
 18 19  2  0
 18 35  1  0
 19 20  1  0
M  END

