
     RDKit          3D

 42 43  0  0  0  0  0  0  0  0999 V2000
    1.3784   -0.8455    0.8440 C   0  0  0  0  0  0  0  0  0  0  0  0
    2.3301    0.0944    0.0834 C   0  0  1  0  0  0  0  0  0  0  0  0
    2.9070    1.0904    1.0981 C   0  0  0  0  0  0  0  0  0  0  0  0
    3.5767    0.7112    2.0529 O   0  0  0  0  0  0  0  0  0  0  0  0
    2.6313    2.4211    0.9302 N   0  0  0  0  0  0  0  0  0  0  0  0
    1.8370    3.0588   -0.1278 C   0  0  0  0  0  0  0  0  0  0  0  0
    2.0038    4.5595    0.1543 C   0  0  0  0  0  0  0  0  0  0  0  0
    2.2347    4.6362    1.6713 C   0  0  1  0  0  0  0  0  0  0  0  0
    2.8331    5.9480    2.2087 C   0  0  0  0  0  0  0  0  0  0  0  0
    2.3748    5.9787    3.6809 C   0  0  0  0  0  0  0  0  0  0  0  0
    1.3188    5.0272    3.8000 O   0  0  0  0  0  0  0  0  0  0  0  0
    0.9459    4.5743    2.5156 C   0  0  0  0  0  0  0  0  0  0  0  0
    3.1068    3.3909    1.9213 C   0  0  0  0  0  0  0  0  0  0  0  0
    3.4617   -0.6354   -0.7327 C   0  0  1  0  0  0  0  0  0  0  0  0
    2.8204   -1.3626   -1.9318 C   0  0  0  0  0  0  0  0  0  0  0  0
    4.4545    0.4107   -1.2802 C   0  0  0  0  0  0  0  0  0  0  0  0
    4.2348   -1.6547    0.1260 C   0  0  0  0  0  0  0  0  0  0  0  0
    0.5331   -0.2775    1.2652 H   0  0  0  0  0  0  0  0  0  0  0  0
    1.8973   -1.3321    1.6815 H   0  0  0  0  0  0  0  0  0  0  0  0
    0.9589   -1.6214    0.1868 H   0  0  0  0  0  0  0  0  0  0  0  0
    1.7328    0.6423   -0.6607 H   0  0  0  0  0  0  0  0  0  0  0  0
    0.7748    2.7591   -0.0663 H   0  0  0  0  0  0  0  0  0  0  0  0
    2.1968    2.7891   -1.1326 H   0  0  0  0  0  0  0  0  0  0  0  0
    1.1380    5.1511   -0.1820 H   0  0  0  0  0  0  0  0  0  0  0  0
    2.8929    4.9448   -0.3717 H   0  0  0  0  0  0  0  0  0  0  0  0
    2.4091    6.7991    1.6512 H   0  0  0  0  0  0  0  0  0  0  0  0
    3.9274    5.9934    2.0985 H   0  0  0  0  0  0  0  0  0  0  0  0
    2.0213    6.9825    3.9802 H   0  0  0  0  0  0  0  0  0  0  0  0
    3.1810    5.6890    4.3767 H   0  0  0  0  0  0  0  0  0  0  0  0
    0.1649    5.2248    2.0657 H   0  0  0  0  0  0  0  0  0  0  0  0
    0.5299    3.5591    2.6133 H   0  0  0  0  0  0  0  0  0  0  0  0
    3.0061    2.9804    2.9361 H   0  0  0  0  0  0  0  0  0  0  0  0
    4.1790    3.6140    1.7659 H   0  0  0  0  0  0  0  0  0  0  0  0
    2.2888   -0.6589   -2.5944 H   0  0  0  0  0  0  0  0  0  0  0  0
    2.1021   -2.1340   -1.6141 H   0  0  0  0  0  0  0  0  0  0  0  0
    3.5940   -1.8666   -2.5336 H   0  0  0  0  0  0  0  0  0  0  0  0
    3.9432    1.1799   -1.8836 H   0  0  0  0  0  0  0  0  0  0  0  0
    5.2011   -0.0724   -1.9311 H   0  0  0  0  0  0  0  0  0  0  0  0
    5.0023    0.9152   -0.4694 H   0  0  0  0  0  0  0  0  0  0  0  0
    3.5912   -2.4895    0.4448 H   0  0  0  0  0  0  0  0  0  0  0  0
    4.6443   -1.1795    1.0278 H   0  0  0  0  0  0  0  0  0  0  0  0
    5.0646   -2.0862   -0.4580 H   0  0  0  0  0  0  0  0  0  0  0  0
  1  2  1  0
  1 18  1  0
  1 19  1  0
  1 20  1  0
  2  3  1  0
  2 14  1  0
  2 21  1  6
  3  4  2  0
  3  5  1  0
  5  6  1  0
  5 13  1  0
  6  7  1  0
  6 22  1  0
  6 23  1  0
  8  7  1  6
  7 24  1  0
  7 25  1  0
  8  9  1  0
  8 12  1  0
  8 13  1  0
  9 10  1  0
  9 26  1  0
  9 27  1  0
 10 11  1  0
 10 28  1  0
 10 29  1  0
 11 12  1  0
 12 30  1  0
 12 31  1  0
 13 32  1  0
 13 33  1  0
 14 15  1  6
 14 16  1  0
 14 17  1  0
 15 34  1  0
 15 35  1  0
 15 36  1  0
 16 37  1  0
 16 38  1  0
 16 39  1  0
 17 40  1  0
 17 41  1  0
 17 42  1  0
M  END

