
     RDKit          3D

 59 61  0  0  0  0  0  0  0  0999 V2000
    2.0839   -6.1467   -1.2578 C   0  0  0  0  0  0  0  0  0  0  0  0
    2.7031   -5.0569   -0.7996 C   0  0  0  0  0  0  0  0  0  0  0  0
    3.1872   -3.9247   -1.6554 C   0  0  0  0  0  0  0  0  0  0  0  0
    4.5266   -3.6269   -1.3239 O   0  0  0  0  0  0  0  0  0  0  0  0
    5.0534   -2.5092   -1.9952 C   0  0  0  0  0  0  0  0  0  0  0  0
    6.4896   -2.2990   -1.5354 C   0  0  2  0  0  0  0  0  0  0  0  0
    6.4637   -2.1766   -0.4318 H   0  0  0  0  0  0  0  0  0  0  0  0
    6.9819   -1.1309   -2.1552 O   0  0  0  0  0  0  0  0  0  0  0  0
    7.4031   -3.4857   -1.8840 C   0  0  0  0  0  0  0  0  0  0  0  0
    8.8084   -3.1117   -1.6904 N   0  0  0  0  0  0  0  0  0  0  0  0
    9.2471   -3.2157   -0.2946 C   0  0  0  0  0  0  0  0  0  0  0  0
   10.4096   -2.2989    0.0337 C   0  0  0  0  0  0  0  0  0  0  0  0
   11.6091   -2.7949    0.5613 C   0  0  0  0  0  0  0  0  0  0  0  0
   12.6720   -1.9308    0.8522 C   0  0  0  0  0  0  0  0  0  0  0  0
   12.5591   -0.5610    0.6106 C   0  0  0  0  0  0  0  0  0  0  0  0
   11.3602   -0.0811    0.0841 C   0  0  0  0  0  0  0  0  0  0  0  0
   11.2400    1.2323   -0.1748 F   0  0  0  0  0  0  0  0  0  0  0  0
   10.2869   -0.9186   -0.1956 C   0  0  0  0  0  0  0  0  0  0  0  0
    9.7333   -3.7242   -2.6433 C   0  0  0  0  0  0  0  0  0  0  0  0
    9.7552   -3.0021   -3.9982 C   0  0  1  0  0  0  0  0  0  0  0  0
    8.7440   -2.9632   -4.4301 H   0  0  0  0  0  0  0  0  0  0  0  0
   10.4316   -1.6269   -3.9715 C   0  0  0  0  0  0  0  0  0  0  0  0
   11.7746   -1.9646   -4.5972 C   0  0  0  0  0  0  0  0  0  0  0  0
   13.0062   -1.1405   -4.6448 C   0  0  0  0  0  0  0  0  0  0  0  0
   14.2093   -1.8115   -4.9592 C   0  0  0  0  0  0  0  0  0  0  0  0
   15.4255   -1.1420   -5.0327 C   0  0  0  0  0  0  0  0  0  0  0  0
   15.4699    0.2326   -4.7846 C   0  0  0  0  0  0  0  0  0  0  0  0
   14.2912    0.9085   -4.4747 C   0  0  0  0  0  0  0  0  0  0  0  0
   13.0470    0.2576   -4.3979 C   0  0  0  0  0  0  0  0  0  0  0  0
   11.8352    1.1026   -4.0691 C   0  0  0  0  0  0  0  0  0  0  0  0
   11.7802   -3.1497   -5.1056 N   0  0  0  0  0  0  0  0  0  0  0  0
   10.5705   -3.7794   -4.9086 O   0  0  0  0  0  0  0  0  0  0  0  0
    1.7212   -6.9258   -0.5817 H   0  0  0  0  0  0  0  0  0  0  0  0
    1.9099   -6.3010   -2.3282 H   0  0  0  0  0  0  0  0  0  0  0  0
    2.8744   -4.9297    0.2762 H   0  0  0  0  0  0  0  0  0  0  0  0
    2.5521   -3.0279   -1.4802 H   0  0  0  0  0  0  0  0  0  0  0  0
    3.0898   -4.1791   -2.7310 H   0  0  0  0  0  0  0  0  0  0  0  0
    4.4666   -1.5933   -1.7784 H   0  0  0  0  0  0  0  0  0  0  0  0
    5.0381   -2.6514   -3.0965 H   0  0  0  0  0  0  0  0  0  0  0  0
    7.9451   -1.2735   -2.1868 H   0  0  0  0  0  0  0  0  0  0  0  0
    7.2535   -3.7295   -2.9474 H   0  0  0  0  0  0  0  0  0  0  0  0
    7.1115   -4.3821   -1.3043 H   0  0  0  0  0  0  0  0  0  0  0  0
    9.5091   -4.2603   -0.0262 H   0  0  0  0  0  0  0  0  0  0  0  0
    8.3934   -2.9396    0.3444 H   0  0  0  0  0  0  0  0  0  0  0  0
   11.7162   -3.8676    0.7421 H   0  0  0  0  0  0  0  0  0  0  0  0
   13.6032   -2.3311    1.2603 H   0  0  0  0  0  0  0  0  0  0  0  0
   13.3758    0.1341    0.8133 H   0  0  0  0  0  0  0  0  0  0  0  0
    9.3641   -0.4918   -0.5942 H   0  0  0  0  0  0  0  0  0  0  0  0
    9.5056   -4.7948   -2.8196 H   0  0  0  0  0  0  0  0  0  0  0  0
   10.7516   -3.6837   -2.2269 H   0  0  0  0  0  0  0  0  0  0  0  0
   10.5260   -1.2268   -2.9527 H   0  0  0  0  0  0  0  0  0  0  0  0
    9.8892   -0.8812   -4.5717 H   0  0  0  0  0  0  0  0  0  0  0  0
   14.1616   -2.8854   -5.1434 H   0  0  0  0  0  0  0  0  0  0  0  0
   16.3371   -1.6929   -5.2774 H   0  0  0  0  0  0  0  0  0  0  0  0
   16.4164    0.7771   -4.8326 H   0  0  0  0  0  0  0  0  0  0  0  0
   14.3260    1.9854   -4.2885 H   0  0  0  0  0  0  0  0  0  0  0  0
   12.1063    2.1680   -4.0736 H   0  0  0  0  0  0  0  0  0  0  0  0
   11.4282    0.8830   -3.0694 H   0  0  0  0  0  0  0  0  0  0  0  0
   11.0206    0.9713   -4.7962 H   0  0  0  0  0  0  0  0  0  0  0  0
  1  2  2  0
  1 33  1  0
  1 34  1  0
  2  3  1  0
  2 35  1  0
  3  4  1  0
  3 36  1  0
  3 37  1  0
  4  5  1  0
  5  6  1  0
  5 38  1  0
  5 39  1  0
  6  7  1  1
  6  8  1  0
  6  9  1  0
  8 40  1  0
  9 10  1  0
  9 41  1  0
  9 42  1  0
 10 11  1  0
 10 19  1  0
 11 12  1  0
 11 43  1  0
 11 44  1  0
 12 13  2  0
 12 18  1  0
 13 14  1  0
 13 45  1  0
 14 15  2  0
 14 46  1  0
 15 16  1  0
 15 47  1  0
 16 17  1  0
 16 18  2  0
 18 48  1  0
 19 20  1  0
 19 49  1  0
 19 50  1  0
 20 21  1  6
 20 22  1  0
 20 32  1  0
 22 23  1  0
 22 51  1  0
 22 52  1  0
 23 24  1  0
 23 31  2  0
 24 25  2  0
 24 29  1  0
 25 26  1  0
 25 53  1  0
 26 27  2  0
 26 54  1  0
 27 28  1  0
 27 55  1  0
 28 29  2  0
 28 56  1  0
 29 30  1  0
 30 57  1  0
 30 58  1  0
 30 59  1  0
 31 32  1  0
M  END

