
     RDKit          3D

 43 45  0  0  0  0  0  0  0  0999 V2000
    2.1594    0.3362   -1.6953 O   0  0  0  0  0  0  0  0  0  0  0  0
    1.1101   -0.2192   -1.9880 C   0  0  0  0  0  0  0  0  0  0  0  0
    0.8813   -1.5431   -1.7443 N   0  0  0  0  0  0  0  0  0  0  0  0
    1.8795   -2.3911   -1.1152 C   0  0  2  0  0  0  0  0  0  0  0  0
    2.5096   -1.7363   -0.4920 H   0  0  0  0  0  0  0  0  0  0  0  0
    2.8168   -3.0229   -2.1657 C   0  0  0  0  0  0  0  0  0  0  0  0
    3.8262   -3.8582   -1.5212 N   0  0  0  0  0  0  0  0  0  0  0  0
    5.1290   -3.7433   -1.9632 C   0  0  0  0  0  0  0  0  0  0  0  0
    5.4287   -3.0387   -2.9180 O   0  0  0  0  0  0  0  0  0  0  0  0
    6.2376   -4.4549   -1.2693 C   0  0  0  0  0  0  0  0  0  0  0  0
    7.5282   -4.5922   -1.7170 C   0  0  0  0  0  0  0  0  0  0  0  0
    8.2486   -5.2696   -0.6868 C   0  0  0  0  0  0  0  0  0  0  0  0
    7.3489   -5.4883    0.3196 C   0  0  0  0  0  0  0  0  0  0  0  0
    6.1313   -5.0011   -0.0192 O   0  0  0  0  0  0  0  0  0  0  0  0
    3.2755   -4.9223   -0.6867 C   0  0  0  0  0  0  0  0  0  0  0  0
    2.3471   -4.3438    0.3876 C   0  0  0  0  0  0  0  0  0  0  0  0
    1.2320   -3.4562   -0.1986 C   0  0  2  0  0  0  0  0  0  0  0  0
    0.7432   -2.9241    0.6395 H   0  0  0  0  0  0  0  0  0  0  0  0
    0.1361   -4.3014   -0.8755 C   0  0  0  0  0  0  0  0  0  0  0  0
   -1.0205   -3.5539   -1.2405 O   0  0  0  0  0  0  0  0  0  0  0  0
   -0.0247    0.5365   -2.6319 C   0  0  0  0  0  0  0  0  0  0  0  0
   -1.1007   -0.0614   -3.3022 C   0  0  0  0  0  0  0  0  0  0  0  0
   -2.0814    0.7547   -3.8669 C   0  0  0  0  0  0  0  0  0  0  0  0
   -1.9495    2.1411   -3.7399 C   0  0  0  0  0  0  0  0  0  0  0  0
   -0.9266    2.7270   -3.1110 N   0  0  0  0  0  0  0  0  0  0  0  0
    0.0104    1.9411   -2.5806 C   0  0  0  0  0  0  0  0  0  0  0  0
   -0.0402   -1.9493   -1.8808 H   0  0  0  0  0  0  0  0  0  0  0  0
    3.3318   -2.2344   -2.7258 H   0  0  0  0  0  0  0  0  0  0  0  0
    2.2310   -3.6169   -2.8947 H   0  0  0  0  0  0  0  0  0  0  0  0
    7.8954   -4.2295   -2.6732 H   0  0  0  0  0  0  0  0  0  0  0  0
    9.2990   -5.5529   -0.6880 H   0  0  0  0  0  0  0  0  0  0  0  0
    7.4218   -5.9549    1.2988 H   0  0  0  0  0  0  0  0  0  0  0  0
    4.0817   -5.4873   -0.2138 H   0  0  0  0  0  0  0  0  0  0  0  0
    2.7171   -5.6311   -1.3307 H   0  0  0  0  0  0  0  0  0  0  0  0
    2.9566   -3.7428    1.0819 H   0  0  0  0  0  0  0  0  0  0  0  0
    1.9104   -5.1691    0.9753 H   0  0  0  0  0  0  0  0  0  0  0  0
   -0.1419   -5.1378   -0.2058 H   0  0  0  0  0  0  0  0  0  0  0  0
    0.4980   -4.7547   -1.8108 H   0  0  0  0  0  0  0  0  0  0  0  0
   -1.4557   -3.2509   -0.4314 H   0  0  0  0  0  0  0  0  0  0  0  0
   -1.1729   -1.1476   -3.4040 H   0  0  0  0  0  0  0  0  0  0  0  0
   -2.9311    0.3263   -4.4033 H   0  0  0  0  0  0  0  0  0  0  0  0
   -2.7055    2.8078   -4.1722 H   0  0  0  0  0  0  0  0  0  0  0  0
    0.8543    2.4235   -2.0771 H   0  0  0  0  0  0  0  0  0  0  0  0
  1  2  2  0
  2  3  1  0
  2 21  1  0
  3  4  1  0
  3 27  1  0
  4  5  1  1
  4  6  1  0
  4 17  1  0
  6  7  1  0
  6 28  1  0
  6 29  1  0
  7  8  1  0
  7 15  1  0
  8  9  2  0
  8 10  1  0
 10 11  2  0
 10 14  1  0
 11 12  1  0
 11 30  1  0
 12 13  2  0
 12 31  1  0
 13 14  1  0
 13 32  1  0
 15 16  1  0
 15 33  1  0
 15 34  1  0
 16 17  1  0
 16 35  1  0
 16 36  1  0
 17 18  1  1
 17 19  1  0
 19 20  1  0
 19 37  1  0
 19 38  1  0
 20 39  1  0
 21 22  2  0
 21 26  1  0
 22 23  1  0
 22 40  1  0
 23 24  2  0
 23 41  1  0
 24 25  1  0
 24 42  1  0
 25 26  2  0
 26 43  1  0
M  END

