
     RDKit          3D

 62 63  0  0  0  0  0  0  0  0999 V2000
    0.0827   -3.5011    1.3360 C   0  0  0  0  0  0  0  0  0  0  0  0
    1.5366   -3.2529    1.6715 C   0  0  0  0  0  0  0  0  0  0  0  0
    2.3006   -4.4024    1.2454 O   0  0  0  0  0  0  0  0  0  0  0  0
    3.6155   -4.4600    1.4098 C   0  0  0  0  0  0  0  0  0  0  0  0
    4.3797   -3.4320    2.0082 C   0  0  0  0  0  0  0  0  0  0  0  0
    5.7453   -3.5318    2.1462 C   0  0  0  0  0  0  0  0  0  0  0  0
    6.4335   -4.7092    1.6750 C   0  0  0  0  0  0  0  0  0  0  0  0
    7.7752   -4.8726    1.7758 N   0  0  0  0  0  0  0  0  0  0  0  0
    8.7277   -3.9865    2.3482 C   0  0  0  0  0  0  0  0  0  0  0  0
    8.4339   -2.9119    2.8142 O   0  0  0  0  0  0  0  0  0  0  0  0
   10.0180   -4.4750    2.3163 N   0  0  0  0  0  0  0  0  0  0  0  0
   10.4481   -5.6812    1.8112 C   0  0  0  0  0  0  0  0  0  0  0  0
    9.7193   -6.5090    1.2669 O   0  0  0  0  0  0  0  0  0  0  0  0
   11.9546   -5.9233    1.9253 C   0  0  0  0  0  0  0  0  0  0  0  0
   12.5090   -5.6631    3.1872 O   0  0  0  0  0  0  0  0  0  0  0  0
   12.9511   -4.3503    3.4396 C   0  0  0  0  0  0  0  0  0  0  0  0
   12.2464   -3.3946    3.0110 O   0  0  0  0  0  0  0  0  0  0  0  0
   14.1513   -4.2547    4.1798 C   0  0  0  0  0  0  0  0  0  0  0  0
   14.6486   -2.9629    4.5848 C   0  0  0  0  0  0  0  0  0  0  0  0
   15.8322   -2.8440    5.2917 C   0  0  0  0  0  0  0  0  0  0  0  0
   16.5991   -3.9696    5.6481 C   0  0  0  0  0  0  0  0  0  0  0  0
   16.0978   -5.2364    5.2612 C   0  0  0  0  0  0  0  0  0  0  0  0
   17.0380   -6.6929    5.6690 S   0  0  1  0  0  0  0  0  0  0  0  0
   16.4208   -7.8720    5.0434 O   0  0  0  0  0  0  0  0  0  0  0  0
   18.4710   -6.4366    5.4996 O   0  0  0  0  0  0  0  0  0  0  0  0
   16.8080   -6.7481    7.4311 N   0  0  0  0  0  0  0  0  0  0  0  0
   15.5167   -7.3117    7.8042 C   0  0  0  0  0  0  0  0  0  0  0  0
   17.8065   -7.6104    7.9459 O   0  0  0  0  0  0  0  0  0  0  0  0
   18.8413   -6.8580    8.5567 C   0  0  0  0  0  0  0  0  0  0  0  0
   14.9241   -5.4019    4.5521 C   0  0  0  0  0  0  0  0  0  0  0  0
    5.6764   -5.7406    1.0819 C   0  0  0  0  0  0  0  0  0  0  0  0
    4.2965   -5.6571    0.9355 C   0  0  0  0  0  0  0  0  0  0  0  0
    3.7138   -6.6975    0.3516 O   0  0  0  0  0  0  0  0  0  0  0  0
    2.3014   -6.9179    0.1495 C   0  0  0  0  0  0  0  0  0  0  0  0
    2.1537   -8.2882   -0.4754 C   0  0  0  0  0  0  0  0  0  0  0  0
   -0.5169   -2.6353    1.6536 H   0  0  0  0  0  0  0  0  0  0  0  0
   -0.2982   -4.3919    1.8572 H   0  0  0  0  0  0  0  0  0  0  0  0
   -0.0571   -3.6368    0.2533 H   0  0  0  0  0  0  0  0  0  0  0  0
    1.6858   -3.1172    2.7550 H   0  0  0  0  0  0  0  0  0  0  0  0
    1.9273   -2.3633    1.1516 H   0  0  0  0  0  0  0  0  0  0  0  0
    3.8821   -2.5341    2.3693 H   0  0  0  0  0  0  0  0  0  0  0  0
    6.3289   -2.7387    2.6056 H   0  0  0  0  0  0  0  0  0  0  0  0
    8.2221   -5.7410    1.4118 H   0  0  0  0  0  0  0  0  0  0  0  0
   10.8348   -3.8525    2.6809 H   0  0  0  0  0  0  0  0  0  0  0  0
   12.4364   -5.3211    1.1311 H   0  0  0  0  0  0  0  0  0  0  0  0
   12.1105   -6.9862    1.6931 H   0  0  0  0  0  0  0  0  0  0  0  0
   14.0679   -2.0817    4.3113 H   0  0  0  0  0  0  0  0  0  0  0  0
   16.1861   -1.8493    5.5769 H   0  0  0  0  0  0  0  0  0  0  0  0
   17.5381   -3.8816    6.1905 H   0  0  0  0  0  0  0  0  0  0  0  0
   14.7231   -6.7018    7.3500 H   0  0  0  0  0  0  0  0  0  0  0  0
   15.4229   -7.2556    8.8986 H   0  0  0  0  0  0  0  0  0  0  0  0
   15.4087   -8.3586    7.4720 H   0  0  0  0  0  0  0  0  0  0  0  0
   19.5376   -7.6021    8.9722 H   0  0  0  0  0  0  0  0  0  0  0  0
   18.4486   -6.2248    9.3725 H   0  0  0  0  0  0  0  0  0  0  0  0
   19.3697   -6.2331    7.8209 H   0  0  0  0  0  0  0  0  0  0  0  0
   14.5955   -6.4005    4.2705 H   0  0  0  0  0  0  0  0  0  0  0  0
    6.1654   -6.6445    0.7186 H   0  0  0  0  0  0  0  0  0  0  0  0
    1.9029   -6.1279   -0.5037 H   0  0  0  0  0  0  0  0  0  0  0  0
    1.7839   -6.8536    1.1182 H   0  0  0  0  0  0  0  0  0  0  0  0
    2.6819   -8.3399   -1.4391 H   0  0  0  0  0  0  0  0  0  0  0  0
    1.0881   -8.4990   -0.6522 H   0  0  0  0  0  0  0  0  0  0  0  0
    2.5574   -9.0690    0.1860 H   0  0  0  0  0  0  0  0  0  0  0  0
  1  2  1  0
  1 36  1  0
  1 37  1  0
  1 38  1  0
  2  3  1  0
  2 39  1  0
  2 40  1  0
  3  4  1  0
  4  5  2  0
  4 32  1  0
  5  6  1  0
  5 41  1  0
  6  7  2  0
  6 42  1  0
  7  8  1  0
  7 31  1  0
  8  9  1  0
  8 43  1  0
  9 10  2  0
  9 11  1  0
 11 12  1  0
 11 44  1  0
 12 13  2  0
 12 14  1  0
 14 15  1  0
 14 45  1  0
 14 46  1  0
 15 16  1  0
 16 17  2  0
 16 18  1  0
 18 19  2  0
 18 30  1  0
 19 20  1  0
 19 47  1  0
 20 21  2  0
 20 48  1  0
 21 22  1  0
 21 49  1  0
 22 23  1  0
 22 30  2  0
 23 24  2  0
 23 25  2  0
 23 26  1  1
 26 27  1  0
 26 28  1  0
 27 50  1  0
 27 51  1  0
 27 52  1  0
 28 29  1  0
 29 53  1  0
 29 54  1  0
 29 55  1  0
 30 56  1  0
 31 32  2  0
 31 57  1  0
 32 33  1  0
 33 34  1  0
 34 35  1  0
 34 58  1  0
 34 59  1  0
 35 60  1  0
 35 61  1  0
 35 62  1  0
M  END

