
     RDKit          3D

 42 43  0  0  0  0  0  0  0  0999 V2000
    1.0974    0.5325    1.3046 C   0  0  0  0  0  0  0  0  0  0  0  0
    2.3362    0.3255    0.4189 C   0  0  1  0  0  0  0  0  0  0  0  0
    3.0547    1.6697    0.2246 C   0  0  0  0  0  0  0  0  0  0  0  0
    3.2784   -0.7754    0.9917 C   0  0  1  0  0  0  0  0  0  0  0  0
    2.6120   -2.1651    1.1115 C   0  0  0  0  0  0  0  0  0  0  0  0
    2.4116   -2.8583   -0.2437 C   0  0  0  0  0  0  0  0  0  0  0  0
    3.7175   -2.9682   -1.0685 C   0  0  2  0  0  0  0  0  0  0  0  0
    4.6886   -4.0464   -0.5276 C   0  0  0  0  0  0  0  0  0  0  0  0
    5.2087   -3.8328    0.6416 O   0  0  0  0  0  0  0  0  0  0  0  0
    4.3666   -5.5016   -0.8484 C   0  0  0  0  0  0  0  0  0  0  0  0
    5.5825   -6.4348   -0.6828 C   0  0  0  0  0  0  0  0  0  0  0  0
    5.2545   -7.8686   -1.0013 C   0  0  0  0  0  0  0  0  0  0  0  0
    4.4681   -8.7250   -0.1554 C   0  0  0  0  0  0  0  0  0  0  0  0
    4.2851   -9.9793   -0.6747 C   0  0  0  0  0  0  0  0  0  0  0  0
    5.0653  -10.1507   -2.2111 S   0  0  0  0  0  0  0  0  0  0  0  0
    5.6395   -8.5212   -2.1524 C   0  0  0  0  0  0  0  0  0  0  0  0
    4.4080   -1.5959   -1.1624 C   0  0  0  0  0  0  0  0  0  0  0  0
    4.5990   -0.9477    0.2105 C   0  0  0  0  0  0  0  0  0  0  0  0
    0.4554    1.3305    0.8981 H   0  0  0  0  0  0  0  0  0  0  0  0
    1.3895    0.8319    2.3263 H   0  0  0  0  0  0  0  0  0  0  0  0
    0.4774   -0.3723    1.3880 H   0  0  0  0  0  0  0  0  0  0  0  0
    1.9784   -0.0023   -0.5748 H   0  0  0  0  0  0  0  0  0  0  0  0
    3.5132    2.0138    1.1681 H   0  0  0  0  0  0  0  0  0  0  0  0
    2.3440    2.4472   -0.0990 H   0  0  0  0  0  0  0  0  0  0  0  0
    3.8498    1.6209   -0.5340 H   0  0  0  0  0  0  0  0  0  0  0  0
    3.5424   -0.4451    2.0141 H   0  0  0  0  0  0  0  0  0  0  0  0
    1.6491   -2.1008    1.6416 H   0  0  0  0  0  0  0  0  0  0  0  0
    3.2639   -2.8019    1.7313 H   0  0  0  0  0  0  0  0  0  0  0  0
    1.6769   -2.2989   -0.8521 H   0  0  0  0  0  0  0  0  0  0  0  0
    1.9741   -3.8599   -0.0956 H   0  0  0  0  0  0  0  0  0  0  0  0
    3.4665   -3.3211   -2.0825 H   0  0  0  0  0  0  0  0  0  0  0  0
    3.9838   -5.5460   -1.8803 H   0  0  0  0  0  0  0  0  0  0  0  0
    3.5474   -5.8580   -0.1846 H   0  0  0  0  0  0  0  0  0  0  0  0
    5.9485   -6.3494    0.3543 H   0  0  0  0  0  0  0  0  0  0  0  0
    6.3963   -6.0788   -1.3333 H   0  0  0  0  0  0  0  0  0  0  0  0
    4.0657   -8.4134    0.8107 H   0  0  0  0  0  0  0  0  0  0  0  0
    3.7425  -10.8172   -0.2388 H   0  0  0  0  0  0  0  0  0  0  0  0
    6.2413   -8.1239   -2.9694 H   0  0  0  0  0  0  0  0  0  0  0  0
    3.7831   -0.9477   -1.8048 H   0  0  0  0  0  0  0  0  0  0  0  0
    5.3759   -1.7031   -1.6774 H   0  0  0  0  0  0  0  0  0  0  0  0
    5.1386    0.0069    0.1132 H   0  0  0  0  0  0  0  0  0  0  0  0
    5.2628   -1.6098    0.8010 H   0  0  0  0  0  0  0  0  0  0  0  0
  1  2  1  0
  1 19  1  0
  1 20  1  0
  1 21  1  0
  2  3  1  0
  2  4  1  0
  2 22  1  6
  3 23  1  0
  3 24  1  0
  3 25  1  0
  4  5  1  0
  4 18  1  0
  4 26  1  1
  5  6  1  0
  5 27  1  0
  5 28  1  0
  6  7  1  0
  6 29  1  0
  6 30  1  0
  7  8  1  0
  7 17  1  0
  7 31  1  6
  8  9  2  0
  8 10  1  0
 10 11  1  0
 10 32  1  0
 10 33  1  0
 11 12  1  0
 11 34  1  0
 11 35  1  0
 12 13  1  0
 12 16  2  0
 13 14  2  0
 13 36  1  0
 14 15  1  0
 14 37  1  0
 15 16  1  0
 16 38  1  0
 17 18  1  0
 17 39  1  0
 17 40  1  0
 18 41  1  0
 18 42  1  0
M  END

