
     RDKit          3D

 50 53  0  0  0  0  0  0  0  0999 V2000
    1.8317   -0.4383    2.7537 C   0  0  0  0  0  0  0  0  0  0  0  0
    1.6207   -1.7208    3.4892 C   0  0  0  0  0  0  0  0  0  0  0  0
    1.1501   -1.7849    4.7073 N   0  0  0  0  0  0  0  0  0  0  0  0
    1.1160   -3.1065    5.0379 O   0  0  0  0  0  0  0  0  0  0  0  0
    1.5681   -3.8850    4.0200 N   0  0  0  0  0  0  0  0  0  0  0  0
    1.8899   -3.0672    3.0520 C   0  0  0  0  0  0  0  0  0  0  0  0
    2.4023   -3.5360    1.7225 C   0  0  0  0  0  0  0  0  0  0  0  0
    1.3424   -3.3601    0.6180 C   0  0  0  0  0  0  0  0  0  0  0  0
    1.3561   -2.3498   -0.0724 O   0  0  0  0  0  0  0  0  0  0  0  0
    0.3911   -4.3334    0.4776 N   0  0  0  0  0  0  0  0  0  0  0  0
   -0.6456   -4.1891   -0.5452 C   0  0  0  0  0  0  0  0  0  0  0  0
   -0.7036   -5.4531   -1.4026 C   0  0  0  0  0  0  0  0  0  0  0  0
   -0.8682   -6.6098   -0.6035 O   0  0  0  0  0  0  0  0  0  0  0  0
    0.1900   -6.7669    0.3295 C   0  0  2  0  0  0  0  0  0  0  0  0
   -0.0138   -8.0423    1.0834 C   0  0  0  0  0  0  0  0  0  0  0  0
   -0.3375   -9.3269    0.4614 C   0  0  0  0  0  0  0  0  0  0  0  0
   -0.0874  -10.5054    1.1171 C   0  0  0  0  0  0  0  0  0  0  0  0
    0.5412  -10.5543    2.4021 C   0  0  0  0  0  0  0  0  0  0  0  0
    0.9281   -9.2877    2.9530 C   0  0  0  0  0  0  0  0  0  0  0  0
    1.6998   -9.1336    4.2598 C   0  0  0  0  0  0  0  0  0  0  0  0
    3.1902   -9.2378    4.0425 C   0  0  0  0  0  0  0  0  0  0  0  0
    3.9414   -8.1595    3.5570 C   0  0  0  0  0  0  0  0  0  0  0  0
    3.2931   -7.0075    3.3028 F   0  0  0  0  0  0  0  0  0  0  0  0
    5.3122   -8.2256    3.3300 C   0  0  0  0  0  0  0  0  0  0  0  0
    5.9735   -9.4299    3.5884 C   0  0  0  0  0  0  0  0  0  0  0  0
    5.2707  -10.5400    4.0631 C   0  0  0  0  0  0  0  0  0  0  0  0
    3.8990  -10.4235    4.2739 C   0  0  0  0  0  0  0  0  0  0  0  0
    3.2209  -11.4885    4.7291 F   0  0  0  0  0  0  0  0  0  0  0  0
    0.6254   -8.2443    2.2607 N   0  0  0  0  0  0  0  0  0  0  0  0
    0.2556   -5.5493    1.2686 C   0  0  0  0  0  0  0  0  0  0  0  0
    1.3483    0.3898    3.2887 H   0  0  0  0  0  0  0  0  0  0  0  0
    1.4346   -0.5093    1.7304 H   0  0  0  0  0  0  0  0  0  0  0  0
    2.9085   -0.2145    2.6697 H   0  0  0  0  0  0  0  0  0  0  0  0
    2.7639   -4.5676    1.8192 H   0  0  0  0  0  0  0  0  0  0  0  0
    3.2437   -2.9040    1.4074 H   0  0  0  0  0  0  0  0  0  0  0  0
   -0.4122   -3.3017   -1.1467 H   0  0  0  0  0  0  0  0  0  0  0  0
   -1.6225   -4.0352   -0.0513 H   0  0  0  0  0  0  0  0  0  0  0  0
    0.2217   -5.5310   -2.0090 H   0  0  0  0  0  0  0  0  0  0  0  0
   -1.5644   -5.4133   -2.0867 H   0  0  0  0  0  0  0  0  0  0  0  0
    1.1513   -6.7840   -0.2479 H   0  0  0  0  0  0  0  0  0  0  0  0
   -0.7740   -9.2783   -0.5386 H   0  0  0  0  0  0  0  0  0  0  0  0
   -0.3712  -11.4464    0.6356 H   0  0  0  0  0  0  0  0  0  0  0  0
    0.6893  -11.4622    2.9834 H   0  0  0  0  0  0  0  0  0  0  0  0
    1.3701   -9.9237    4.9460 H   0  0  0  0  0  0  0  0  0  0  0  0
    1.4555   -8.1596    4.7050 H   0  0  0  0  0  0  0  0  0  0  0  0
    5.8373   -7.3448    2.9577 H   0  0  0  0  0  0  0  0  0  0  0  0
    7.0496   -9.5036    3.4168 H   0  0  0  0  0  0  0  0  0  0  0  0
    5.7626  -11.4914    4.2703 H   0  0  0  0  0  0  0  0  0  0  0  0
    1.0819   -5.6621    1.9779 H   0  0  0  0  0  0  0  0  0  0  0  0
   -0.6817   -5.5117    1.8520 H   0  0  0  0  0  0  0  0  0  0  0  0
  1  2  1  0
  1 31  1  0
  1 32  1  0
  1 33  1  0
  2  3  2  0
  2  6  1  0
  3  4  1  0
  4  5  1  0
  5  6  2  0
  6  7  1  0
  7  8  1  0
  7 34  1  0
  7 35  1  0
  8  9  2  0
  8 10  1  0
 10 11  1  0
 10 30  1  0
 11 12  1  0
 11 36  1  0
 11 37  1  0
 12 13  1  0
 12 38  1  0
 12 39  1  0
 13 14  1  0
 14 15  1  0
 14 30  1  0
 14 40  1  6
 15 16  2  0
 15 29  1  0
 16 17  1  0
 16 41  1  0
 17 18  2  0
 17 42  1  0
 18 19  1  0
 18 43  1  0
 19 20  1  0
 19 29  2  0
 20 21  1  0
 20 44  1  0
 20 45  1  0
 21 22  2  0
 21 27  1  0
 22 23  1  0
 22 24  1  0
 24 25  2  0
 24 46  1  0
 25 26  1  0
 25 47  1  0
 26 27  2  0
 26 48  1  0
 27 28  1  0
 30 49  1  0
 30 50  1  0
M  END

