
     RDKit          3D

 42 45  0  0  0  0  0  0  0  0999 V2000
    4.1577   -0.5358    0.2063 O   0  0  0  0  0  0  0  0  0  0  0  0
    3.2755   -0.6911   -0.6565 C   0  0  0  0  0  0  0  0  0  0  0  0
    2.1648   -1.5430   -0.7386 C   0  0  0  0  0  0  0  0  0  0  0  0
    1.8927   -2.4712    0.3324 C   0  0  0  0  0  0  0  0  0  0  0  0
    0.8043   -3.3075    0.2524 C   0  0  0  0  0  0  0  0  0  0  0  0
   -0.0256   -3.2284   -0.8908 C   0  0  0  0  0  0  0  0  0  0  0  0
   -1.1577   -4.0604   -1.0281 N   0  0  0  0  0  0  0  0  0  0  0  0
   -2.0560   -4.1074   -2.0528 C   0  0  0  0  0  0  0  0  0  0  0  0
   -2.9763   -5.0229   -1.8064 N   0  0  0  0  0  0  0  0  0  0  0  0
   -2.5950   -5.5174   -0.5998 C   0  0  0  0  0  0  0  0  0  0  0  0
   -1.5026   -4.9706   -0.0884 N   0  0  0  0  0  0  0  0  0  0  0  0
    0.2003   -2.3748   -1.9037 N   0  0  0  0  0  0  0  0  0  0  0  0
    1.2397   -1.5735   -1.8379 C   0  0  0  0  0  0  0  0  0  0  0  0
    3.5715    0.2411   -1.7931 N   0  0  0  0  0  0  0  0  0  0  0  0
    4.6338   -0.1354   -2.7107 C   0  0  0  0  0  0  0  0  0  0  0  0
    4.3934    0.4494   -4.1128 C   0  0  0  0  0  0  0  0  0  0  0  0
    4.1327    1.9562   -4.0548 C   0  0  0  0  0  0  0  0  0  0  0  0
    2.9978    2.2642   -3.0764 C   0  0  2  0  0  0  0  0  0  0  0  0
    2.7117    3.7631   -2.9066 C   0  0  0  0  0  0  0  0  0  0  0  0
    1.6636    4.0025   -2.0015 O   0  0  0  0  0  0  0  0  0  0  0  0
    1.9375    3.5176   -0.7017 C   0  0  0  0  0  0  0  0  0  0  0  0
    2.1735    2.0048   -0.6903 C   0  0  0  0  0  0  0  0  0  0  0  0
    3.2929    1.6653   -1.6742 C   0  0  1  0  0  0  0  0  0  0  0  0
    2.5597   -2.4967    1.1952 H   0  0  0  0  0  0  0  0  0  0  0  0
    0.5624   -4.0233    1.0374 H   0  0  0  0  0  0  0  0  0  0  0  0
   -1.9736   -3.4593   -2.9213 H   0  0  0  0  0  0  0  0  0  0  0  0
   -3.1342   -6.3070   -0.0759 H   0  0  0  0  0  0  0  0  0  0  0  0
    1.3751   -0.9024   -2.6939 H   0  0  0  0  0  0  0  0  0  0  0  0
    4.6967   -1.2305   -2.7294 H   0  0  0  0  0  0  0  0  0  0  0  0
    5.5871    0.2480   -2.3004 H   0  0  0  0  0  0  0  0  0  0  0  0
    3.5310   -0.0631   -4.5696 H   0  0  0  0  0  0  0  0  0  0  0  0
    5.2700    0.2157   -4.7362 H   0  0  0  0  0  0  0  0  0  0  0  0
    3.8799    2.3348   -5.0587 H   0  0  0  0  0  0  0  0  0  0  0  0
    5.0502    2.4849   -3.7384 H   0  0  0  0  0  0  0  0  0  0  0  0
    2.0682    1.7941   -3.4433 H   0  0  0  0  0  0  0  0  0  0  0  0
    2.4112    4.1999   -3.8712 H   0  0  0  0  0  0  0  0  0  0  0  0
    3.6404    4.2788   -2.5774 H   0  0  0  0  0  0  0  0  0  0  0  0
    1.0707    3.7768   -0.0777 H   0  0  0  0  0  0  0  0  0  0  0  0
    2.8230    4.0396   -0.2807 H   0  0  0  0  0  0  0  0  0  0  0  0
    1.2486    1.4848   -0.9825 H   0  0  0  0  0  0  0  0  0  0  0  0
    2.4426    1.6728    0.3232 H   0  0  0  0  0  0  0  0  0  0  0  0
    4.2356    2.1325   -1.3182 H   0  0  0  0  0  0  0  0  0  0  0  0
  1  2  2  0
  2  3  1  0
  2 14  1  0
  3  4  2  0
  3 13  1  0
  4  5  1  0
  4 24  1  0
  5  6  2  0
  5 25  1  0
  6  7  1  0
  6 12  1  0
  7  8  1  0
  7 11  1  0
  8  9  2  0
  8 26  1  0
  9 10  1  0
 10 11  2  0
 10 27  1  0
 12 13  2  0
 13 28  1  0
 14 15  1  0
 14 23  1  0
 15 16  1  0
 15 29  1  0
 15 30  1  0
 16 17  1  0
 16 31  1  0
 16 32  1  0
 17 18  1  0
 17 33  1  0
 17 34  1  0
 18 19  1  0
 18 23  1  0
 18 35  1  6
 19 20  1  0
 19 36  1  0
 19 37  1  0
 20 21  1  0
 21 22  1  0
 21 38  1  0
 21 39  1  0
 22 23  1  0
 22 40  1  0
 22 41  1  0
 23 42  1  1
M  END

