
     RDKit          3D

 51 54  0  0  0  0  0  0  0  0999 V2000
    3.0696    0.8150   -0.9080 O   0  0  0  0  0  0  0  0  0  0  0  0
    3.0512   -0.0931   -0.0891 C   0  0  0  0  0  0  0  0  0  0  0  0
    3.7464    0.1192    1.2594 C   0  0  0  0  0  0  0  0  0  0  0  0
    2.8245   -0.0794    2.3240 O   0  0  0  0  0  0  0  0  0  0  0  0
    3.2071    0.0941    3.6095 C   0  0  0  0  0  0  0  0  0  0  0  0
    2.2130   -0.2034    4.5763 C   0  0  0  0  0  0  0  0  0  0  0  0
    2.5153   -0.0364    5.9611 C   0  0  0  0  0  0  0  0  0  0  0  0
    3.8139    0.4028    6.3386 C   0  0  0  0  0  0  0  0  0  0  0  0
    4.1552    0.5756    7.6811 N   0  0  0  0  0  0  0  0  0  0  0  0
    5.5480    0.7753    8.1144 C   0  0  0  0  0  0  0  0  0  0  0  0
    5.5245    0.4999    9.6226 C   0  0  0  0  0  0  0  0  0  0  0  0
    4.1127    0.9159   10.0289 C   0  0  0  0  0  0  0  0  0  0  0  0
    3.2723    0.6573    8.7857 C   0  0  0  0  0  0  0  0  0  0  0  0
    2.0686    0.5630    8.7452 O   0  0  0  0  0  0  0  0  0  0  0  0
    4.8202    0.6766    5.3538 C   0  0  0  0  0  0  0  0  0  0  0  0
    4.5018    0.5425    3.9691 C   0  0  0  0  0  0  0  0  0  0  0  0
    2.4628   -1.3038   -0.3274 N   0  0  0  0  0  0  0  0  0  0  0  0
    2.4383   -2.4583    0.5692 C   0  0  0  0  0  0  0  0  0  0  0  0
    0.9946   -2.8089    0.9542 C   0  0  0  0  0  0  0  0  0  0  0  0
    0.0637   -2.9771   -0.2639 C   0  0  2  0  0  0  0  0  0  0  0  0
    0.2022   -4.2921   -0.8999 N   0  0  0  0  0  0  0  0  0  0  0  0
   -0.7767   -5.2280   -1.0441 C   0  0  0  0  0  0  0  0  0  0  0  0
   -0.2131   -6.3049   -1.7091 C   0  0  0  0  0  0  0  0  0  0  0  0
    1.1277   -5.9137   -1.9247 C   0  0  0  0  0  0  0  0  0  0  0  0
    1.3666   -4.6992   -1.4337 N   0  0  0  0  0  0  0  0  0  0  0  0
    0.2461   -1.8148   -1.2621 C   0  0  0  0  0  0  0  0  0  0  0  0
    1.7156   -1.5021   -1.5699 C   0  0  0  0  0  0  0  0  0  0  0  0
    4.1073    1.1578    1.2504 H   0  0  0  0  0  0  0  0  0  0  0  0
    4.6135   -0.5565    1.3766 H   0  0  0  0  0  0  0  0  0  0  0  0
    1.2399   -0.5630    4.2448 H   0  0  0  0  0  0  0  0  0  0  0  0
    1.7741   -0.2609    6.7196 H   0  0  0  0  0  0  0  0  0  0  0  0
    5.8581    1.8133    7.8972 H   0  0  0  0  0  0  0  0  0  0  0  0
    6.2132    0.1025    7.5581 H   0  0  0  0  0  0  0  0  0  0  0  0
    6.3205    1.0435   10.1507 H   0  0  0  0  0  0  0  0  0  0  0  0
    5.6729   -0.5758    9.8082 H   0  0  0  0  0  0  0  0  0  0  0  0
    4.0477    1.9946   10.2598 H   0  0  0  0  0  0  0  0  0  0  0  0
    3.6900    0.3745   10.8865 H   0  0  0  0  0  0  0  0  0  0  0  0
    5.7850    1.0927    5.6336 H   0  0  0  0  0  0  0  0  0  0  0  0
    5.2338    0.8306    3.2175 H   0  0  0  0  0  0  0  0  0  0  0  0
    3.0167   -2.2530    1.4754 H   0  0  0  0  0  0  0  0  0  0  0  0
    2.8986   -3.3142    0.0502 H   0  0  0  0  0  0  0  0  0  0  0  0
    0.5966   -1.9895    1.5750 H   0  0  0  0  0  0  0  0  0  0  0  0
    0.9777   -3.7252    1.5654 H   0  0  0  0  0  0  0  0  0  0  0  0
   -0.9764   -2.9629    0.0950 H   0  0  0  0  0  0  0  0  0  0  0  0
   -1.7840   -5.0602   -0.6681 H   0  0  0  0  0  0  0  0  0  0  0  0
   -0.6998   -7.2345   -1.9940 H   0  0  0  0  0  0  0  0  0  0  0  0
    1.9275   -6.4673   -2.4168 H   0  0  0  0  0  0  0  0  0  0  0  0
   -0.2206   -0.9188   -0.8192 H   0  0  0  0  0  0  0  0  0  0  0  0
   -0.2975   -2.0384   -2.1940 H   0  0  0  0  0  0  0  0  0  0  0  0
    1.8067   -0.5832   -2.1612 H   0  0  0  0  0  0  0  0  0  0  0  0
    2.1668   -2.3349   -2.1322 H   0  0  0  0  0  0  0  0  0  0  0  0
  1  2  2  0
  2  3  1  0
  2 17  1  0
  3  4  1  0
  3 28  1  0
  3 29  1  0
  4  5  1  0
  5  6  2  0
  5 16  1  0
  6  7  1  0
  6 30  1  0
  7  8  2  0
  7 31  1  0
  8  9  1  0
  8 15  1  0
  9 10  1  0
  9 13  1  0
 10 11  1  0
 10 32  1  0
 10 33  1  0
 11 12  1  0
 11 34  1  0
 11 35  1  0
 12 13  1  0
 12 36  1  0
 12 37  1  0
 13 14  2  0
 15 16  2  0
 15 38  1  0
 16 39  1  0
 17 18  1  0
 17 27  1  0
 18 19  1  0
 18 40  1  0
 18 41  1  0
 19 20  1  0
 19 42  1  0
 19 43  1  0
 20 21  1  0
 20 26  1  0
 20 44  1  1
 21 22  1  0
 21 25  1  0
 22 23  2  0
 22 45  1  0
 23 24  1  0
 23 46  1  0
 24 25  2  0
 24 47  1  0
 26 27  1  0
 26 48  1  0
 26 49  1  0
 27 50  1  0
 27 51  1  0
M  END

