
     RDKit          3D

 57 60  0  0  0  0  0  0  0  0999 V2000
    2.9030   -0.7498   -1.7939 C   0  0  0  0  0  0  0  0  0  0  0  0
    2.5619   -0.4576   -0.3191 C   0  0  1  0  0  0  0  0  0  0  0  0
    3.4292    0.0597    0.1133 H   0  0  0  0  0  0  0  0  0  0  0  0
    1.3026    0.4400   -0.1558 C   0  0  0  0  0  0  0  0  0  0  0  0
    0.2874   -0.0272    0.3316 O   0  0  0  0  0  0  0  0  0  0  0  0
    1.3767    1.7370   -0.6038 N   0  0  0  0  0  0  0  0  0  0  0  0
    0.1470    2.5366   -0.6508 C   0  0  0  0  0  0  0  0  0  0  0  0
    0.2899    3.8480    0.1254 C   0  0  0  0  0  0  0  0  0  0  0  0
    1.5164    4.6389   -0.3427 C   0  0  0  0  0  0  0  0  0  0  0  0
    2.7698    3.7602   -0.2896 C   0  0  0  0  0  0  0  0  0  0  0  0
    2.5735    2.4440   -1.0554 C   0  0  0  0  0  0  0  0  0  0  0  0
    2.3984   -1.6753    0.4866 N   0  0  0  0  0  0  0  0  0  0  0  0
    1.6132   -2.7202    0.0255 C   0  0  0  0  0  0  0  0  0  0  0  0
    1.0446   -2.7420   -1.0447 O   0  0  0  0  0  0  0  0  0  0  0  0
    1.4986   -3.8941    0.9899 C   0  0  0  0  0  0  0  0  0  0  0  0
    2.6762   -4.1112    1.7547 O   0  0  0  0  0  0  0  0  0  0  0  0
    3.1281   -3.0030    2.3869 C   0  0  0  0  0  0  0  0  0  0  0  0
    3.8031   -3.1390    3.6025 C   0  0  0  0  0  0  0  0  0  0  0  0
    4.2567   -2.0107    4.2751 C   0  0  0  0  0  0  0  0  0  0  0  0
    3.9933   -0.7300    3.7611 C   0  0  0  0  0  0  0  0  0  0  0  0
    4.4762    0.4415    4.5456 C   0  0  0  0  0  0  0  0  0  0  0  0
    5.2720    0.3215    5.4566 O   0  0  0  0  0  0  0  0  0  0  0  0
    3.9691    1.8461    4.1950 C   0  0  0  0  0  0  0  0  0  0  0  0
    2.5543    1.8358    4.2009 O   0  0  0  0  0  0  0  0  0  0  0  0
    1.8669    3.0018    4.0833 C   0  0  0  0  0  0  0  0  0  0  0  0
    0.4750    2.9199    4.2652 C   0  0  0  0  0  0  0  0  0  0  0  0
   -0.3038    4.0678    4.1559 C   0  0  0  0  0  0  0  0  0  0  0  0
    0.2735    5.3097    3.8585 C   0  0  0  0  0  0  0  0  0  0  0  0
    1.6533    5.3691    3.6742 C   0  0  0  0  0  0  0  0  0  0  0  0
    2.4054    6.8988    3.2665 Cl  0  0  0  0  0  0  0  0  0  0  0  0
    2.4668    4.2349    3.7901 C   0  0  0  0  0  0  0  0  0  0  0  0
    3.3212   -0.6011    2.5301 C   0  0  0  0  0  0  0  0  0  0  0  0
    2.9308   -1.7299    1.8009 C   0  0  0  0  0  0  0  0  0  0  0  0
    3.2767    0.1597   -2.2834 H   0  0  0  0  0  0  0  0  0  0  0  0
    2.0339   -1.1258   -2.3421 H   0  0  0  0  0  0  0  0  0  0  0  0
    3.6983   -1.5087   -1.8455 H   0  0  0  0  0  0  0  0  0  0  0  0
   -0.6609    1.9139   -0.2497 H   0  0  0  0  0  0  0  0  0  0  0  0
   -0.0827    2.7556   -1.7122 H   0  0  0  0  0  0  0  0  0  0  0  0
    0.3794    3.6232    1.2013 H   0  0  0  0  0  0  0  0  0  0  0  0
   -0.6297    4.4431   -0.0004 H   0  0  0  0  0  0  0  0  0  0  0  0
    1.6582    5.5409    0.2740 H   0  0  0  0  0  0  0  0  0  0  0  0
    1.3580    4.9857   -1.3810 H   0  0  0  0  0  0  0  0  0  0  0  0
    3.0076    3.5278    0.7634 H   0  0  0  0  0  0  0  0  0  0  0  0
    3.6416    4.2905   -0.7080 H   0  0  0  0  0  0  0  0  0  0  0  0
    3.4598    1.8115   -0.9330 H   0  0  0  0  0  0  0  0  0  0  0  0
    2.4825    2.6605   -2.1384 H   0  0  0  0  0  0  0  0  0  0  0  0
    1.3146   -4.7979    0.3978 H   0  0  0  0  0  0  0  0  0  0  0  0
    0.6322   -3.7227    1.6585 H   0  0  0  0  0  0  0  0  0  0  0  0
    3.9528   -4.1457    3.9973 H   0  0  0  0  0  0  0  0  0  0  0  0
    4.7961   -2.0934    5.2198 H   0  0  0  0  0  0  0  0  0  0  0  0
    4.3619    2.1553    3.2055 H   0  0  0  0  0  0  0  0  0  0  0  0
    4.3712    2.5309    4.9588 H   0  0  0  0  0  0  0  0  0  0  0  0
    0.0359    1.9468    4.4903 H   0  0  0  0  0  0  0  0  0  0  0  0
   -1.3846    4.0001    4.3027 H   0  0  0  0  0  0  0  0  0  0  0  0
   -0.3326    6.2114    3.7669 H   0  0  0  0  0  0  0  0  0  0  0  0
    3.5414    4.3344    3.6469 H   0  0  0  0  0  0  0  0  0  0  0  0
    3.0956    0.3907    2.1435 H   0  0  0  0  0  0  0  0  0  0  0  0
  1  2  1  0
  1 34  1  0
  1 35  1  0
  1 36  1  0
  2  3  1  1
  2  4  1  0
  2 12  1  0
  4  5  2  0
  4  6  1  0
  6  7  1  0
  6 11  1  0
  7  8  1  0
  7 37  1  0
  7 38  1  0
  8  9  1  0
  8 39  1  0
  8 40  1  0
  9 10  1  0
  9 41  1  0
  9 42  1  0
 10 11  1  0
 10 43  1  0
 10 44  1  0
 11 45  1  0
 11 46  1  0
 12 13  1  0
 12 33  1  0
 13 14  2  0
 13 15  1  0
 15 16  1  0
 15 47  1  0
 15 48  1  0
 16 17  1  0
 17 18  2  0
 17 33  1  0
 18 19  1  0
 18 49  1  0
 19 20  2  0
 19 50  1  0
 20 21  1  0
 20 32  1  0
 21 22  2  0
 21 23  1  0
 23 24  1  0
 23 51  1  0
 23 52  1  0
 24 25  1  0
 25 26  2  0
 25 31  1  0
 26 27  1  0
 26 53  1  0
 27 28  2  0
 27 54  1  0
 28 29  1  0
 28 55  1  0
 29 30  1  0
 29 31  2  0
 31 56  1  0
 32 33  2  0
 32 57  1  0
M  END

