
     RDKit          3D

 86 94  0  0  0  0  0  0  0  0999 V2000
    1.1999    0.0492    0.7371 N   0  0  0  0  0  0  0  0  0  0  0  0
    2.5521    0.0109    0.4321 C   0  0  0  0  0  0  0  0  0  0  0  0
    3.0083   -0.5344   -0.7849 C   0  0  0  0  0  0  0  0  0  0  0  0
    4.3641   -0.5281   -1.1068 C   0  0  0  0  0  0  0  0  0  0  0  0
    5.3264    0.0228   -0.2412 C   0  0  0  0  0  0  0  0  0  0  0  0
    6.7809    0.0297   -0.5906 C   0  0  0  0  0  0  0  0  0  0  0  0
    7.4275    1.2796   -0.7554 C   0  0  0  0  0  0  0  0  0  0  0  0
    8.7586    1.4828   -0.9699 N   0  0  0  0  0  0  0  0  0  0  0  0
    8.9227    2.8338   -1.0523 C   0  0  0  0  0  0  0  0  0  0  0  0
   10.1406    3.5240   -1.2699 C   0  0  0  0  0  0  0  0  0  0  0  0
   10.1216    5.0212   -1.2421 C   0  0  0  0  0  0  0  0  0  0  0  0
   10.3573    5.7837   -2.3996 C   0  0  0  0  0  0  0  0  0  0  0  0
   10.3374    7.1773   -2.3742 C   0  0  0  0  0  0  0  0  0  0  0  0
   10.0811    7.8744   -1.1766 C   0  0  0  0  0  0  0  0  0  0  0  0
   10.0128    9.2598   -1.1546 N   0  0  0  0  0  0  0  0  0  0  0  0
    9.8455    7.1158   -0.0123 C   0  0  0  0  0  0  0  0  0  0  0  0
    9.8644    5.7230   -0.0510 C   0  0  0  0  0  0  0  0  0  0  0  0
   11.3818    2.9069   -1.5217 C   0  0  0  0  0  0  0  0  0  0  0  0
   12.6370    3.5652   -1.7574 C   0  0  0  0  0  0  0  0  0  0  0  0
   13.5820    2.6020   -2.0092 C   0  0  0  0  0  0  0  0  0  0  0  0
   12.9454    1.3173   -1.9157 C   0  0  0  0  0  0  0  0  0  0  0  0
   11.6253    1.5567   -1.6147 N   0  0  0  0  0  0  0  0  0  0  0  0
   10.9237    0.8334   -1.4661 H   0  0  0  0  0  0  0  0  0  0  0  0
   13.5533    0.0637   -2.1229 C   0  0  0  0  0  0  0  0  0  0  0  0
   15.0151    0.0749   -2.4560 C   0  0  0  0  0  0  0  0  0  0  0  0
   15.9819    0.4019   -1.4898 C   0  0  0  0  0  0  0  0  0  0  0  0
   17.3426    0.4162   -1.7927 C   0  0  0  0  0  0  0  0  0  0  0  0
   17.7973    0.1014   -3.0889 C   0  0  0  0  0  0  0  0  0  0  0  0
   19.1529    0.0645   -3.3835 N   0  0  0  0  0  0  0  0  0  0  0  0
   16.8320   -0.2243   -4.0628 C   0  0  0  0  0  0  0  0  0  0  0  0
   15.4744   -0.2361   -3.7475 C   0  0  0  0  0  0  0  0  0  0  0  0
   12.8907   -1.1850   -2.0437 C   0  0  0  0  0  0  0  0  0  0  0  0
   11.5793   -1.3900   -1.7315 N   0  0  0  0  0  0  0  0  0  0  0  0
   11.3985   -2.7416   -1.7402 C   0  0  0  0  0  0  0  0  0  0  0  0
   10.1991   -3.4322   -1.4394 C   0  0  0  0  0  0  0  0  0  0  0  0
   10.2147   -4.9290   -1.4396 C   0  0  0  0  0  0  0  0  0  0  0  0
   10.9735   -5.6559   -0.5047 C   0  0  0  0  0  0  0  0  0  0  0  0
   10.9884   -7.0492   -0.4998 C   0  0  0  0  0  0  0  0  0  0  0  0
   10.2390   -7.7837   -1.4409 C   0  0  0  0  0  0  0  0  0  0  0  0
   10.2139   -9.1704   -1.4114 N   0  0  0  0  0  0  0  0  0  0  0  0
    9.4763   -7.0618   -2.3807 C   0  0  0  0  0  0  0  0  0  0  0  0
    9.4665   -5.6682   -2.3734 C   0  0  0  0  0  0  0  0  0  0  0  0
    8.9732   -2.8146   -1.1162 C   0  0  0  0  0  0  0  0  0  0  0  0
    7.7675   -3.4725   -0.6970 C   0  0  0  0  0  0  0  0  0  0  0  0
    6.8189   -2.5094   -0.4567 C   0  0  0  0  0  0  0  0  0  0  0  0
    7.4081   -1.2267   -0.7212 C   0  0  0  0  0  0  0  0  0  0  0  0
    8.7053   -1.4661   -1.1099 N   0  0  0  0  0  0  0  0  0  0  0  0
    9.3899   -0.7435   -1.3250 H   0  0  0  0  0  0  0  0  0  0  0  0
   12.6405   -3.4272   -2.0967 C   0  0  0  0  0  0  0  0  0  0  0  0
   13.5739   -2.4577   -2.2717 C   0  0  0  0  0  0  0  0  0  0  0  0
    7.6403    3.5214   -0.9101 C   0  0  0  0  0  0  0  0  0  0  0  0
    6.7077    2.5525   -0.7262 C   0  0  0  0  0  0  0  0  0  0  0  0
    4.8635    0.5662    0.9712 C   0  0  0  0  0  0  0  0  0  0  0  0
    3.5113    0.5609    1.3063 C   0  0  0  0  0  0  0  0  0  0  0  0
    0.6046   -0.6108    0.2510 H   0  0  0  0  0  0  0  0  0  0  0  0
    0.9567    0.1637    1.7140 H   0  0  0  0  0  0  0  0  0  0  0  0
    2.2860   -0.9587   -1.4886 H   0  0  0  0  0  0  0  0  0  0  0  0
    4.6856   -0.9513   -2.0617 H   0  0  0  0  0  0  0  0  0  0  0  0
   10.5508    5.2719   -3.3458 H   0  0  0  0  0  0  0  0  0  0  0  0
   10.5130    7.7386   -3.2967 H   0  0  0  0  0  0  0  0  0  0  0  0
   10.4794    9.7497   -1.9088 H   0  0  0  0  0  0  0  0  0  0  0  0
   10.1346    9.7061   -0.2532 H   0  0  0  0  0  0  0  0  0  0  0  0
    9.6455    7.6290    0.9330 H   0  0  0  0  0  0  0  0  0  0  0  0
    9.6829    5.1619    0.8690 H   0  0  0  0  0  0  0  0  0  0  0  0
   12.7815    4.6415   -1.7399 H   0  0  0  0  0  0  0  0  0  0  0  0
   14.6318    2.7531   -2.2437 H   0  0  0  0  0  0  0  0  0  0  0  0
   15.6598    0.6451   -0.4740 H   0  0  0  0  0  0  0  0  0  0  0  0
   18.0689    0.6657   -1.0135 H   0  0  0  0  0  0  0  0  0  0  0  0
   19.7641    0.5924   -2.7715 H   0  0  0  0  0  0  0  0  0  0  0  0
   19.4062    0.1421   -4.3615 H   0  0  0  0  0  0  0  0  0  0  0  0
   17.1546   -0.4706   -5.0788 H   0  0  0  0  0  0  0  0  0  0  0  0
   14.7486   -0.4875   -4.5252 H   0  0  0  0  0  0  0  0  0  0  0  0
   11.5610   -5.1147    0.2410 H   0  0  0  0  0  0  0  0  0  0  0  0
   11.5827   -7.5820    0.2484 H   0  0  0  0  0  0  0  0  0  0  0  0
   10.9912   -9.6280   -0.9499 H   0  0  0  0  0  0  0  0  0  0  0  0
    9.9276   -9.6364   -2.2645 H   0  0  0  0  0  0  0  0  0  0  0  0
    8.8872   -7.6042   -3.1263 H   0  0  0  0  0  0  0  0  0  0  0  0
    8.8724   -5.1368   -3.1211 H   0  0  0  0  0  0  0  0  0  0  0  0
    7.6618   -4.5467   -0.5759 H   0  0  0  0  0  0  0  0  0  0  0  0
    5.8027   -2.6595   -0.1040 H   0  0  0  0  0  0  0  0  0  0  0  0
   12.7695   -4.5015   -2.1982 H   0  0  0  0  0  0  0  0  0  0  0  0
   14.6226   -2.5806   -2.5297 H   0  0  0  0  0  0  0  0  0  0  0  0
    7.4832    4.5952   -0.9706 H   0  0  0  0  0  0  0  0  0  0  0  0
    5.6341    2.6752   -0.6094 H   0  0  0  0  0  0  0  0  0  0  0  0
    5.5844    0.9936    1.6723 H   0  0  0  0  0  0  0  0  0  0  0  0
    3.1878    0.9876    2.2604 H   0  0  0  0  0  0  0  0  0  0  0  0
  1  2  1  0
  1 55  1  0
  1 56  1  0
  2  3  2  0
  2 54  1  0
  3  4  1  0
  3 57  1  0
  4  5  2  0
  4 58  1  0
  5  6  1  0
  5 53  1  0
  6  7  1  0
  6 46  2  0
  7  8  2  0
  7 52  1  0
  8  9  1  0
  9 10  2  0
  9 51  1  0
 10 11  1  0
 10 18  1  0
 11 12  2  0
 11 17  1  0
 12 13  1  0
 12 59  1  0
 13 14  2  0
 13 60  1  0
 14 15  1  0
 14 16  1  0
 15 61  1  0
 15 62  1  0
 16 17  2  0
 16 63  1  0
 17 64  1  0
 18 19  2  0
 18 22  1  0
 19 20  1  0
 19 65  1  0
 20 21  2  0
 20 66  1  0
 21 22  1  0
 21 24  1  0
 22 23  1  0
 24 25  1  0
 24 32  2  0
 25 26  2  0
 25 31  1  0
 26 27  1  0
 26 67  1  0
 27 28  2  0
 27 68  1  0
 28 29  1  0
 28 30  1  0
 29 69  1  0
 29 70  1  0
 30 31  2  0
 30 71  1  0
 31 72  1  0
 32 33  1  0
 32 50  1  0
 33 34  2  0
 34 35  1  0
 34 49  1  0
 35 36  1  0
 35 43  2  0
 36 37  2  0
 36 42  1  0
 37 38  1  0
 37 73  1  0
 38 39  2  0
 38 74  1  0
 39 40  1  0
 39 41  1  0
 40 75  1  0
 40 76  1  0
 41 42  2  0
 41 77  1  0
 42 78  1  0
 43 44  1  0
 43 47  1  0
 44 45  2  0
 44 79  1  0
 45 46  1  0
 45 80  1  0
 46 47  1  0
 47 48  1  0
 49 50  2  0
 49 81  1  0
 50 82  1  0
 51 52  2  0
 51 83  1  0
 52 84  1  0
 53 54  2  0
 53 85  1  0
 54 86  1  0
M  END

