
     RDKit          3D

 43 43  0  0  0  0  0  0  0  0999 V2000
    8.5452   -3.7327    5.3600 C   0  0  0  0  0  0  0  0  0  0  0  0
    8.3139   -2.9932    4.0829 C   0  0  0  0  0  0  0  0  0  0  0  0
    8.8428   -1.6863    3.8609 C   0  0  0  0  0  0  0  0  0  0  0  0
    8.6411   -0.9647    2.6571 C   0  0  0  0  0  0  0  0  0  0  0  0
    7.8741   -1.5648    1.6138 C   0  0  0  0  0  0  0  0  0  0  0  0
    7.3446   -2.8697    1.8255 C   0  0  0  0  0  0  0  0  0  0  0  0
    6.6322   -3.3599    0.7889 O   0  0  0  0  0  0  0  0  0  0  0  0
    6.0017   -4.6308    0.8499 C   0  0  0  0  0  0  0  0  0  0  0  0
    5.2861   -4.8386   -0.4844 C   0  0  0  0  0  0  0  0  0  0  0  0
    4.5391   -6.0824   -0.5382 N   0  0  0  0  0  0  0  0  0  0  0  0
    5.1983   -7.2774   -0.7294 C   0  0  0  0  0  0  0  0  0  0  0  0
    6.4113   -7.3296   -0.8552 O   0  0  0  0  0  0  0  0  0  0  0  0
    4.3888   -8.4264   -0.7607 N   0  0  0  0  0  0  0  0  0  0  0  0
    2.9784   -8.3300   -1.1188 C   0  0  0  0  0  0  0  0  0  0  0  0
    2.0098   -8.2900    0.0774 C   0  0  0  0  0  0  0  0  0  0  0  0
    0.8213   -8.2034   -0.0583 O   0  0  0  0  0  0  0  0  0  0  0  0
    2.6071   -8.3408    1.2787 O   0  0  0  0  0  0  0  0  0  0  0  0
    5.0965   -9.7092   -1.0213 C   0  0  1  0  0  0  0  0  0  0  0  0
    4.4133  -10.8784   -0.3081 C   0  0  0  0  0  0  0  0  0  0  0  0
    5.2893   -9.9636   -2.5203 C   0  0  0  0  0  0  0  0  0  0  0  0
    7.5458   -3.6027    3.0336 C   0  0  0  0  0  0  0  0  0  0  0  0
    9.1526   -3.1508    6.0692 H   0  0  0  0  0  0  0  0  0  0  0  0
    9.0610   -4.7002    5.1875 H   0  0  0  0  0  0  0  0  0  0  0  0
    7.5914   -3.9916    5.8650 H   0  0  0  0  0  0  0  0  0  0  0  0
    9.4321   -1.2268    4.6600 H   0  0  0  0  0  0  0  0  0  0  0  0
    9.0649    0.0322    2.5342 H   0  0  0  0  0  0  0  0  0  0  0  0
    7.6697   -1.0637    0.6678 H   0  0  0  0  0  0  0  0  0  0  0  0
    5.2871   -4.6543    1.6920 H   0  0  0  0  0  0  0  0  0  0  0  0
    6.7525   -5.4237    1.0000 H   0  0  0  0  0  0  0  0  0  0  0  0
    6.0330   -4.8387   -1.2907 H   0  0  0  0  0  0  0  0  0  0  0  0
    4.5930   -4.0031   -0.6650 H   0  0  0  0  0  0  0  0  0  0  0  0
    3.5942   -6.0742   -0.1754 H   0  0  0  0  0  0  0  0  0  0  0  0
    2.6802   -9.1886   -1.7376 H   0  0  0  0  0  0  0  0  0  0  0  0
    2.7750   -7.4392   -1.7337 H   0  0  0  0  0  0  0  0  0  0  0  0
    3.5650   -8.4461    1.1122 H   0  0  0  0  0  0  0  0  0  0  0  0
    6.0914   -9.5633   -0.5808 H   0  0  0  0  0  0  0  0  0  0  0  0
    3.4163  -11.1041   -0.7212 H   0  0  0  0  0  0  0  0  0  0  0  0
    4.2998  -10.6906    0.7710 H   0  0  0  0  0  0  0  0  0  0  0  0
    5.0224  -11.7875   -0.4255 H   0  0  0  0  0  0  0  0  0  0  0  0
    4.3283  -10.0935   -3.0458 H   0  0  0  0  0  0  0  0  0  0  0  0
    5.8761  -10.8821   -2.6777 H   0  0  0  0  0  0  0  0  0  0  0  0
    5.8362   -9.1294   -2.9835 H   0  0  0  0  0  0  0  0  0  0  0  0
    7.1550   -4.6110    3.1581 H   0  0  0  0  0  0  0  0  0  0  0  0
  1  2  1  0
  1 22  1  0
  1 23  1  0
  1 24  1  0
  2  3  2  0
  2 21  1  0
  3  4  1  0
  3 25  1  0
  4  5  2  0
  4 26  1  0
  5  6  1  0
  5 27  1  0
  6  7  1  0
  6 21  2  0
  7  8  1  0
  8  9  1  0
  8 28  1  0
  8 29  1  0
  9 10  1  0
  9 30  1  0
  9 31  1  0
 10 11  1  0
 10 32  1  0
 11 12  2  0
 11 13  1  0
 13 14  1  0
 13 18  1  0
 14 15  1  0
 14 33  1  0
 14 34  1  0
 15 16  2  0
 15 17  1  0
 17 35  1  0
 18 19  1  0
 18 20  1  0
 18 36  1  1
 19 37  1  0
 19 38  1  0
 19 39  1  0
 20 40  1  0
 20 41  1  0
 20 42  1  0
 21 43  1  0
M  END

