
     RDKit          3D

 48 50  0  0  0  0  0  0  0  0999 V2000
    5.7087   -2.4722   -4.7851 C   0  0  0  0  0  0  0  0  0  0  0  0
    5.9049   -2.2840   -3.3029 C   0  0  0  0  0  0  0  0  0  0  0  0
    5.9664   -1.0252   -2.7383 C   0  0  0  0  0  0  0  0  0  0  0  0
    6.1731   -0.8313   -1.3304 C   0  0  0  0  0  0  0  0  0  0  0  0
    6.3486   -1.9914   -0.5202 C   0  0  0  0  0  0  0  0  0  0  0  0
    6.2906   -3.2644   -1.0592 C   0  0  0  0  0  0  0  0  0  0  0  0
    6.3891   -4.4853   -0.1679 C   0  0  0  0  0  0  0  0  0  0  0  0
    5.0613   -5.2266   -0.1218 C   0  0  2  0  0  0  0  0  0  0  0  0
    3.9100   -4.3854    0.3725 C   0  0  0  0  0  0  0  0  0  0  0  0
    2.6712   -5.1823    0.4688 N   0  0  0  0  0  0  0  0  0  0  0  0
    1.3901   -4.5220    0.1963 C   0  0  0  0  0  0  0  0  0  0  0  0
    0.6261   -3.9808    1.4249 C   0  0  1  0  0  0  0  0  0  0  0  0
    1.4302   -2.9481    2.2229 C   0  0  0  0  0  0  0  0  0  0  0  0
   -0.7134   -3.4016    0.9504 C   0  0  0  0  0  0  0  0  0  0  0  0
    2.7516   -6.4636    0.8726 C   0  0  0  0  0  0  0  0  0  0  0  0
    1.6249   -7.2879    1.1193 C   0  0  0  0  0  0  0  0  0  0  0  0
    1.7842   -8.5675    1.6319 C   0  0  0  0  0  0  0  0  0  0  0  0
    0.7591   -9.3866    1.9015 O   0  0  0  0  0  0  0  0  0  0  0  0
    3.0849   -9.0900    1.9215 C   0  0  0  0  0  0  0  0  0  0  0  0
    4.2007   -8.3327    1.6530 C   0  0  0  0  0  0  0  0  0  0  0  0
    4.0810   -7.0429    1.0891 C   0  0  0  0  0  0  0  0  0  0  0  0
    5.1772   -6.4061    0.7627 O   0  0  0  0  0  0  0  0  0  0  0  0
    6.0188   -3.4577   -2.4678 C   0  0  0  0  0  0  0  0  0  0  0  0
    5.6272   -1.5111   -5.3174 H   0  0  0  0  0  0  0  0  0  0  0  0
    4.7970   -3.0621   -5.0047 H   0  0  0  0  0  0  0  0  0  0  0  0
    6.5484   -3.0370   -5.2352 H   0  0  0  0  0  0  0  0  0  0  0  0
    5.8543   -0.1490   -3.3872 H   0  0  0  0  0  0  0  0  0  0  0  0
    6.2660    0.1696   -0.9077 H   0  0  0  0  0  0  0  0  0  0  0  0
    6.5334   -1.8735    0.5550 H   0  0  0  0  0  0  0  0  0  0  0  0
    6.6740   -4.2038    0.8600 H   0  0  0  0  0  0  0  0  0  0  0  0
    7.1488   -5.2023   -0.5341 H   0  0  0  0  0  0  0  0  0  0  0  0
    4.8151   -5.6313   -1.1142 H   0  0  0  0  0  0  0  0  0  0  0  0
    3.7620   -3.5650   -0.3359 H   0  0  0  0  0  0  0  0  0  0  0  0
    4.1443   -3.9478    1.3561 H   0  0  0  0  0  0  0  0  0  0  0  0
    0.7511   -5.2268   -0.3582 H   0  0  0  0  0  0  0  0  0  0  0  0
    1.6076   -3.6938   -0.4929 H   0  0  0  0  0  0  0  0  0  0  0  0
    0.4105   -4.8332    2.0944 H   0  0  0  0  0  0  0  0  0  0  0  0
    1.7228   -2.0918    1.5934 H   0  0  0  0  0  0  0  0  0  0  0  0
    2.3461   -3.3772    2.6566 H   0  0  0  0  0  0  0  0  0  0  0  0
    0.8286   -2.5580    3.0584 H   0  0  0  0  0  0  0  0  0  0  0  0
   -0.5571   -2.5410    0.2791 H   0  0  0  0  0  0  0  0  0  0  0  0
   -1.3104   -3.0506    1.8057 H   0  0  0  0  0  0  0  0  0  0  0  0
   -1.3157   -4.1463    0.4046 H   0  0  0  0  0  0  0  0  0  0  0  0
    0.6206   -6.9043    0.9482 H   0  0  0  0  0  0  0  0  0  0  0  0
   -0.0853   -8.9748    1.6689 H   0  0  0  0  0  0  0  0  0  0  0  0
    3.1575  -10.0967    2.3334 H   0  0  0  0  0  0  0  0  0  0  0  0
    5.2080   -8.7116    1.8261 H   0  0  0  0  0  0  0  0  0  0  0  0
    6.2008   -4.4335   -2.9333 H   0  0  0  0  0  0  0  0  0  0  0  0
  1  2  1  0
  1 24  1  0
  1 25  1  0
  1 26  1  0
  2  3  2  0
  2 23  1  0
  3  4  1  0
  3 27  1  0
  4  5  2  0
  4 28  1  0
  5  6  1  0
  5 29  1  0
  6  7  1  0
  6 23  2  0
  7  8  1  0
  7 30  1  0
  7 31  1  0
  8  9  1  0
  8 22  1  0
  8 32  1  6
  9 10  1  0
  9 33  1  0
  9 34  1  0
 10 11  1  0
 10 15  1  0
 11 12  1  0
 11 35  1  0
 11 36  1  0
 12 13  1  0
 12 14  1  0
 12 37  1  6
 13 38  1  0
 13 39  1  0
 13 40  1  0
 14 41  1  0
 14 42  1  0
 14 43  1  0
 15 16  2  0
 15 21  1  0
 16 17  1  0
 16 44  1  0
 17 18  1  0
 17 19  2  0
 18 45  1  0
 19 20  1  0
 19 46  1  0
 20 21  2  0
 20 47  1  0
 21 22  1  0
 23 48  1  0
M  END

