
     RDKit          3D

 50 52  0  0  0  0  0  0  0  0999 V2000
    8.0265    2.8385    1.4366 C   0  0  0  0  0  0  0  0  0  0  0  0
    7.7028    3.0089    0.0734 O   0  0  0  0  0  0  0  0  0  0  0  0
    6.5091    3.5274   -0.2961 C   0  0  0  0  0  0  0  0  0  0  0  0
    5.4944    3.8890    0.6343 C   0  0  0  0  0  0  0  0  0  0  0  0
    4.2348    4.4121    0.1997 C   0  0  0  0  0  0  0  0  0  0  0  0
    3.2288    4.9665    1.1502 C   0  0  0  0  0  0  0  0  0  0  0  0
    3.2778    6.5222    1.2905 C   0  0  0  0  0  0  0  0  0  0  0  0
    2.1269    7.0386    2.1332 C   0  0  0  0  0  0  0  0  0  0  0  0
    0.9606    6.8074    1.8410 O   0  0  0  0  0  0  0  0  0  0  0  0
    2.4768    7.7414    3.2609 N   0  0  0  0  0  0  0  0  0  0  0  0
    1.4947    8.2319    4.2158 C   0  0  1  0  0  0  0  0  0  0  0  0
    0.5486    8.2570    3.6476 H   0  0  0  0  0  0  0  0  0  0  0  0
    1.2956    7.2586    5.3894 C   0  0  0  0  0  0  0  0  0  0  0  0
    0.3711    7.8637    6.4443 C   0  0  0  0  0  0  0  0  0  0  0  0
    1.0030    9.1212    7.0443 C   0  0  0  0  0  0  0  0  0  0  0  0
    1.5540   10.0739    5.9981 C   0  0  0  0  0  0  0  0  0  0  0  0
    1.8317   11.4042    6.3552 C   0  0  0  0  0  0  0  0  0  0  0  0
    2.3587   12.3121    5.4378 C   0  0  0  0  0  0  0  0  0  0  0  0
    2.6162   11.8956    4.1281 C   0  0  0  0  0  0  0  0  0  0  0  0
    2.3444   10.5787    3.7588 C   0  0  0  0  0  0  0  0  0  0  0  0
    1.8187    9.6531    4.6769 C   0  0  0  0  0  0  0  0  0  0  0  0
    4.0440    4.5139   -1.2193 C   0  0  0  0  0  0  0  0  0  0  0  0
    5.0697    4.1551   -2.1357 C   0  0  0  0  0  0  0  0  0  0  0  0
    4.7335    4.2896   -3.4387 O   0  0  0  0  0  0  0  0  0  0  0  0
    5.6562    3.9403   -4.4493 C   0  0  0  0  0  0  0  0  0  0  0  0
    6.3338    3.6693   -1.7041 C   0  0  0  0  0  0  0  0  0  0  0  0
    9.0433    2.4252    1.4660 H   0  0  0  0  0  0  0  0  0  0  0  0
    7.3352    2.1351    1.9334 H   0  0  0  0  0  0  0  0  0  0  0  0
    8.0098    3.8000    1.9795 H   0  0  0  0  0  0  0  0  0  0  0  0
    5.6619    3.7455    1.7029 H   0  0  0  0  0  0  0  0  0  0  0  0
    3.3635    4.5202    2.1512 H   0  0  0  0  0  0  0  0  0  0  0  0
    2.2013    4.7229    0.8258 H   0  0  0  0  0  0  0  0  0  0  0  0
    3.1745    6.9572    0.2821 H   0  0  0  0  0  0  0  0  0  0  0  0
    4.2572    6.8380    1.6863 H   0  0  0  0  0  0  0  0  0  0  0  0
    3.4584    7.8635    3.4800 H   0  0  0  0  0  0  0  0  0  0  0  0
    2.2777    7.0278    5.8427 H   0  0  0  0  0  0  0  0  0  0  0  0
    0.8922    6.3131    4.9945 H   0  0  0  0  0  0  0  0  0  0  0  0
    0.1536    7.1320    7.2392 H   0  0  0  0  0  0  0  0  0  0  0  0
   -0.5980    8.1164    5.9778 H   0  0  0  0  0  0  0  0  0  0  0  0
    1.8291    8.8234    7.7180 H   0  0  0  0  0  0  0  0  0  0  0  0
    0.2794    9.6555    7.6823 H   0  0  0  0  0  0  0  0  0  0  0  0
    1.6255   11.7293    7.3796 H   0  0  0  0  0  0  0  0  0  0  0  0
    2.5638   13.3420    5.7416 H   0  0  0  0  0  0  0  0  0  0  0  0
    3.0234   12.5964    3.3946 H   0  0  0  0  0  0  0  0  0  0  0  0
    2.5397   10.2510    2.7351 H   0  0  0  0  0  0  0  0  0  0  0  0
    3.0879    4.8388   -1.6357 H   0  0  0  0  0  0  0  0  0  0  0  0
    5.1502    4.1147   -5.4078 H   0  0  0  0  0  0  0  0  0  0  0  0
    5.9494    2.8788   -4.3773 H   0  0  0  0  0  0  0  0  0  0  0  0
    6.5646    4.5654   -4.3982 H   0  0  0  0  0  0  0  0  0  0  0  0
    7.1600    3.4352   -2.3691 H   0  0  0  0  0  0  0  0  0  0  0  0
  1  2  1  0
  1 27  1  0
  1 28  1  0
  1 29  1  0
  2  3  1  0
  3  4  2  0
  3 26  1  0
  4  5  1  0
  4 30  1  0
  5  6  1  0
  5 22  2  0
  6  7  1  0
  6 31  1  0
  6 32  1  0
  7  8  1  0
  7 33  1  0
  7 34  1  0
  8  9  2  0
  8 10  1  0
 10 11  1  0
 10 35  1  0
 11 12  1  6
 11 13  1  0
 11 21  1  0
 13 14  1  0
 13 36  1  0
 13 37  1  0
 14 15  1  0
 14 38  1  0
 14 39  1  0
 15 16  1  0
 15 40  1  0
 15 41  1  0
 16 17  2  0
 16 21  1  0
 17 18  1  0
 17 42  1  0
 18 19  2  0
 18 43  1  0
 19 20  1  0
 19 44  1  0
 20 21  2  0
 20 45  1  0
 22 23  1  0
 22 46  1  0
 23 24  1  0
 23 26  2  0
 24 25  1  0
 25 47  1  0
 25 48  1  0
 25 49  1  0
 26 50  1  0
M  END

