
     RDKit          3D

 51 53  0  0  0  0  0  0  0  0999 V2000
    2.0631    0.9905    0.7810 C   0  0  0  0  0  0  0  0  0  0  0  0
    3.1725    0.0377    0.3328 C   0  0  1  0  0  0  0  0  0  0  0  0
    2.7412   -1.4153    0.5156 C   0  0  0  0  0  0  0  0  0  0  0  0
    3.7444   -2.2646   -0.0087 O   0  0  0  0  0  0  0  0  0  0  0  0
    3.4710   -3.6456    0.0606 C   0  0  1  0  0  0  0  0  0  0  0  0
    4.4958   -4.4394   -0.7536 C   0  0  0  0  0  0  0  0  0  0  0  0
    4.4866   -5.8197   -0.0763 C   0  0  0  0  0  0  0  0  0  0  0  0
    3.8771   -5.6466    1.2053 O   0  0  0  0  0  0  0  0  0  0  0  0
    3.6555   -4.2757    1.4534 C   0  0  0  0  0  0  0  0  0  0  0  0
    3.5273    0.2242   -1.0751 N   0  0  0  0  0  0  0  0  0  0  0  0
    4.2342    1.3566   -1.4469 C   0  0  0  0  0  0  0  0  0  0  0  0
    4.4755    2.2703   -0.6695 O   0  0  0  0  0  0  0  0  0  0  0  0
    4.6308    1.4024   -2.7777 N   0  0  0  0  0  0  0  0  0  0  0  0
    4.2559    0.4567   -3.8156 C   0  0  0  0  0  0  0  0  0  0  0  0
    3.7694    1.1924   -5.0685 C   0  0  0  0  0  0  0  0  0  0  0  0
    4.7291    2.2053   -5.4976 N   0  0  0  0  0  0  0  0  0  0  0  0
    5.0686    2.3500   -6.8209 C   0  0  0  0  0  0  0  0  0  0  0  0
    5.8486    3.4398   -7.3056 C   0  0  0  0  0  0  0  0  0  0  0  0
    6.1696    3.4910   -8.6488 C   0  0  0  0  0  0  0  0  0  0  0  0
    5.7201    2.4774   -9.5226 C   0  0  0  0  0  0  0  0  0  0  0  0
    6.0260    2.4869  -10.9189 C   0  0  0  0  0  0  0  0  0  0  0  0
    6.2739    2.4913  -12.0546 N   0  0  0  0  0  0  0  0  0  0  0  0
    4.9422    1.4535   -8.9519 C   0  0  0  0  0  0  0  0  0  0  0  0
    4.6317    1.3953   -7.6669 N   0  0  0  0  0  0  0  0  0  0  0  0
    5.0692    3.1607   -4.4506 C   0  0  0  0  0  0  0  0  0  0  0  0
    5.5640    2.4323   -3.1983 C   0  0  0  0  0  0  0  0  0  0  0  0
    1.8045    0.8132    1.8375 H   0  0  0  0  0  0  0  0  0  0  0  0
    1.1568    0.8513    0.1693 H   0  0  0  0  0  0  0  0  0  0  0  0
    2.4021    2.0292    0.6787 H   0  0  0  0  0  0  0  0  0  0  0  0
    4.0640    0.2169    0.9623 H   0  0  0  0  0  0  0  0  0  0  0  0
    1.7800   -1.5966   -0.0088 H   0  0  0  0  0  0  0  0  0  0  0  0
    2.5743   -1.6053    1.5922 H   0  0  0  0  0  0  0  0  0  0  0  0
    2.4427   -3.8468   -0.3025 H   0  0  0  0  0  0  0  0  0  0  0  0
    5.4706   -3.9388   -0.6398 H   0  0  0  0  0  0  0  0  0  0  0  0
    4.2578   -4.4809   -1.8265 H   0  0  0  0  0  0  0  0  0  0  0  0
    5.5062   -6.2296    0.0388 H   0  0  0  0  0  0  0  0  0  0  0  0
    3.8942   -6.5590   -0.6431 H   0  0  0  0  0  0  0  0  0  0  0  0
    4.5219   -3.7881    1.9489 H   0  0  0  0  0  0  0  0  0  0  0  0
    2.7795   -4.1808    2.1141 H   0  0  0  0  0  0  0  0  0  0  0  0
    3.8264   -0.6446   -1.5098 H   0  0  0  0  0  0  0  0  0  0  0  0
    3.4384   -0.1814   -3.4569 H   0  0  0  0  0  0  0  0  0  0  0  0
    5.1129   -0.1940   -4.0821 H   0  0  0  0  0  0  0  0  0  0  0  0
    2.8026    1.6825   -4.8393 H   0  0  0  0  0  0  0  0  0  0  0  0
    3.6148    0.4919   -5.8961 H   0  0  0  0  0  0  0  0  0  0  0  0
    6.1903    4.2370   -6.6482 H   0  0  0  0  0  0  0  0  0  0  0  0
    6.7661    4.3195   -9.0368 H   0  0  0  0  0  0  0  0  0  0  0  0
    4.5586    0.6471   -9.5877 H   0  0  0  0  0  0  0  0  0  0  0  0
    4.1808    3.7716   -4.1966 H   0  0  0  0  0  0  0  0  0  0  0  0
    5.8564    3.8425   -4.7907 H   0  0  0  0  0  0  0  0  0  0  0  0
    5.6827    3.1373   -2.3662 H   0  0  0  0  0  0  0  0  0  0  0  0
    6.5506    1.9785   -3.4200 H   0  0  0  0  0  0  0  0  0  0  0  0
  1  2  1  0
  1 27  1  0
  1 28  1  0
  1 29  1  0
  2  3  1  0
  2 10  1  0
  2 30  1  1
  3  4  1  0
  3 31  1  0
  3 32  1  0
  4  5  1  0
  5  6  1  0
  5  9  1  0
  5 33  1  6
  6  7  1  0
  6 34  1  0
  6 35  1  0
  7  8  1  0
  7 36  1  0
  7 37  1  0
  8  9  1  0
  9 38  1  0
  9 39  1  0
 10 11  1  0
 10 40  1  0
 11 12  2  0
 11 13  1  0
 13 14  1  0
 13 26  1  0
 14 15  1  0
 14 41  1  0
 14 42  1  0
 15 16  1  0
 15 43  1  0
 15 44  1  0
 16 17  1  0
 16 25  1  0
 17 18  2  0
 17 24  1  0
 18 19  1  0
 18 45  1  0
 19 20  2  0
 19 46  1  0
 20 21  1  0
 20 23  1  0
 21 22  3  0
 23 24  2  0
 23 47  1  0
 25 26  1  0
 25 48  1  0
 25 49  1  0
 26 50  1  0
 26 51  1  0
M  END

