
     RDKit          3D

 67 69  0  0  0  0  0  0  0  0999 V2000
   -1.5181   -3.0245   -4.1272 C   0  0  0  0  0  0  0  0  0  0  0  0
   -1.8584   -1.5328   -4.0878 C   0  0  0  0  0  0  0  0  0  0  0  0
   -0.8877   -0.6402   -4.7372 N   0  0  0  0  0  0  0  0  0  0  0  0
   -1.1451   -0.2512   -6.1272 C   0  0  0  0  0  0  0  0  0  0  0  0
   -1.2384   -1.4188   -7.1120 C   0  0  0  0  0  0  0  0  0  0  0  0
    0.1940   -0.2534   -3.9914 C   0  0  0  0  0  0  0  0  0  0  0  0
    0.4337   -0.8014   -2.9067 O   0  0  0  0  0  0  0  0  0  0  0  0
    1.0766    0.8626   -4.4771 C   0  0  0  0  0  0  0  0  0  0  0  0
    0.5195    2.0780   -4.9095 C   0  0  0  0  0  0  0  0  0  0  0  0
    1.3213    3.1361   -5.3316 C   0  0  0  0  0  0  0  0  0  0  0  0
    2.7102    2.9718   -5.3395 C   0  0  0  0  0  0  0  0  0  0  0  0
    3.2940    1.7909   -4.8863 C   0  0  0  0  0  0  0  0  0  0  0  0
    2.4912    0.7361   -4.4087 C   0  0  0  0  0  0  0  0  0  0  0  0
    3.0438   -0.4218   -3.8497 N   0  0  0  0  0  0  0  0  0  0  0  0
    4.3497   -0.8358   -3.8816 C   0  0  0  0  0  0  0  0  0  0  0  0
    5.2394   -0.3326   -4.5402 O   0  0  0  0  0  0  0  0  0  0  0  0
    4.6335   -2.1078   -3.0697 C   0  0  0  0  0  0  0  0  0  0  0  0
    3.7333   -2.3528   -1.9290 N   0  0  0  0  0  0  0  0  0  0  0  0
    3.2805   -3.7071   -1.7184 C   0  0  0  0  0  0  0  0  0  0  0  0
    1.9162   -3.9801   -1.8441 C   0  0  0  0  0  0  0  0  0  0  0  0
    1.4683   -5.2963   -1.6698 C   0  0  0  0  0  0  0  0  0  0  0  0
    2.3618   -6.3203   -1.3722 C   0  0  0  0  0  0  0  0  0  0  0  0
    3.7344   -6.0404   -1.2339 C   0  0  0  0  0  0  0  0  0  0  0  0
    4.5323   -7.0928   -0.9283 O   0  0  0  0  0  0  0  0  0  0  0  0
    5.9164   -6.8795   -0.7494 C   0  0  0  0  0  0  0  0  0  0  0  0
    4.1952   -4.7285   -1.4085 C   0  0  0  0  0  0  0  0  0  0  0  0
    4.2766   -1.5093   -0.5179 S   0  0  1  0  0  0  0  0  0  0  0  0
    5.3455   -2.2672    0.1494 O   0  0  0  0  0  0  0  0  0  0  0  0
    4.5456   -0.1487   -0.9879 O   0  0  0  0  0  0  0  0  0  0  0  0
    2.8394   -1.5202    0.5453 C   0  0  0  0  0  0  0  0  0  0  0  0
    2.9397   -2.1434    1.7907 C   0  0  0  0  0  0  0  0  0  0  0  0
    1.8483   -2.0972    2.6598 C   0  0  0  0  0  0  0  0  0  0  0  0
    0.6617   -1.4385    2.3010 C   0  0  0  0  0  0  0  0  0  0  0  0
   -0.5056   -1.3678    3.2535 C   0  0  0  0  0  0  0  0  0  0  0  0
    0.5938   -0.8253    1.0368 C   0  0  0  0  0  0  0  0  0  0  0  0
    1.6739   -0.8516    0.1563 C   0  0  0  0  0  0  0  0  0  0  0  0
   -2.2885   -3.5935   -3.5816 H   0  0  0  0  0  0  0  0  0  0  0  0
   -0.5500   -3.2134   -3.6436 H   0  0  0  0  0  0  0  0  0  0  0  0
   -1.4739   -3.4169   -5.1531 H   0  0  0  0  0  0  0  0  0  0  0  0
   -1.9414   -1.2164   -3.0379 H   0  0  0  0  0  0  0  0  0  0  0  0
   -2.8349   -1.3500   -4.5662 H   0  0  0  0  0  0  0  0  0  0  0  0
   -0.3369    0.4127   -6.4501 H   0  0  0  0  0  0  0  0  0  0  0  0
   -2.0802    0.3386   -6.1692 H   0  0  0  0  0  0  0  0  0  0  0  0
   -0.3211   -2.0278   -7.0979 H   0  0  0  0  0  0  0  0  0  0  0  0
   -1.3665   -1.0204   -8.1311 H   0  0  0  0  0  0  0  0  0  0  0  0
   -2.0953   -2.0780   -6.9084 H   0  0  0  0  0  0  0  0  0  0  0  0
   -0.5666    2.1954   -4.9022 H   0  0  0  0  0  0  0  0  0  0  0  0
    0.8680    4.0756   -5.6553 H   0  0  0  0  0  0  0  0  0  0  0  0
    3.3556    3.7831   -5.6863 H   0  0  0  0  0  0  0  0  0  0  0  0
    4.3742    1.6658   -4.8799 H   0  0  0  0  0  0  0  0  0  0  0  0
    2.4231   -0.9395   -3.2269 H   0  0  0  0  0  0  0  0  0  0  0  0
    5.6968   -2.0566   -2.7839 H   0  0  0  0  0  0  0  0  0  0  0  0
    4.5286   -2.9623   -3.7561 H   0  0  0  0  0  0  0  0  0  0  0  0
    1.2280   -3.1635   -2.0697 H   0  0  0  0  0  0  0  0  0  0  0  0
    0.4037   -5.5230   -1.7683 H   0  0  0  0  0  0  0  0  0  0  0  0
    2.0273   -7.3503   -1.2334 H   0  0  0  0  0  0  0  0  0  0  0  0
    6.3519   -7.8549   -0.4948 H   0  0  0  0  0  0  0  0  0  0  0  0
    6.1198   -6.1687    0.0711 H   0  0  0  0  0  0  0  0  0  0  0  0
    6.3964   -6.5032   -1.6708 H   0  0  0  0  0  0  0  0  0  0  0  0
    5.2446   -4.4710   -1.2793 H   0  0  0  0  0  0  0  0  0  0  0  0
    3.8640   -2.6540    2.0642 H   0  0  0  0  0  0  0  0  0  0  0  0
    1.9209   -2.5856    3.6355 H   0  0  0  0  0  0  0  0  0  0  0  0
   -0.4773   -2.1829    3.9918 H   0  0  0  0  0  0  0  0  0  0  0  0
   -1.4665   -1.4189    2.7187 H   0  0  0  0  0  0  0  0  0  0  0  0
   -0.4966   -0.4161    3.8134 H   0  0  0  0  0  0  0  0  0  0  0  0
   -0.3252   -0.3183    0.7304 H   0  0  0  0  0  0  0  0  0  0  0  0
    1.5895   -0.3867   -0.8270 H   0  0  0  0  0  0  0  0  0  0  0  0
  1  2  1  0
  1 37  1  0
  1 38  1  0
  1 39  1  0
  2  3  1  0
  2 40  1  0
  2 41  1  0
  3  4  1  0
  3  6  1  0
  4  5  1  0
  4 42  1  0
  4 43  1  0
  5 44  1  0
  5 45  1  0
  5 46  1  0
  6  7  2  0
  6  8  1  0
  8  9  2  0
  8 13  1  0
  9 10  1  0
  9 47  1  0
 10 11  2  0
 10 48  1  0
 11 12  1  0
 11 49  1  0
 12 13  2  0
 12 50  1  0
 13 14  1  0
 14 15  1  0
 14 51  1  0
 15 16  2  0
 15 17  1  0
 17 18  1  0
 17 52  1  0
 17 53  1  0
 18 19  1  0
 27 18  1  6
 19 20  2  0
 19 26  1  0
 20 21  1  0
 20 54  1  0
 21 22  2  0
 21 55  1  0
 22 23  1  0
 22 56  1  0
 23 24  1  0
 23 26  2  0
 24 25  1  0
 25 57  1  0
 25 58  1  0
 25 59  1  0
 26 60  1  0
 27 28  2  0
 27 29  2  0
 27 30  1  0
 30 31  2  0
 30 36  1  0
 31 32  1  0
 31 61  1  0
 32 33  2  0
 32 62  1  0
 33 34  1  0
 33 35  1  0
 34 63  1  0
 34 64  1  0
 34 65  1  0
 35 36  2  0
 35 66  1  0
 36 67  1  0
M  END

