
     RDKit          3D

 46 47  0  0  0  0  0  0  0  0999 V2000
    1.2466    0.4419    0.7795 C   0  0  0  0  0  0  0  0  0  0  0  0
    2.1687   -0.3491    0.0523 O   0  0  0  0  0  0  0  0  0  0  0  0
    2.5043   -0.0462   -1.2166 C   0  0  0  0  0  0  0  0  0  0  0  0
    1.9359    1.0477   -1.9275 C   0  0  0  0  0  0  0  0  0  0  0  0
    2.3641    1.2682   -3.2723 C   0  0  0  0  0  0  0  0  0  0  0  0
    3.3247    0.3971   -3.8754 C   0  0  0  0  0  0  0  0  0  0  0  0
    3.6855    0.6329   -5.3220 C   0  0  1  0  0  0  0  0  0  0  0  0
    3.4963    1.9885   -5.7170 O   0  0  0  0  0  0  0  0  0  0  0  0
    5.1100    0.1888   -5.7106 C   0  0  0  0  0  0  0  0  0  0  0  0
    5.3625    0.4884   -7.1017 N   0  0  0  0  0  0  0  0  0  0  0  0
    5.8752   -0.4214   -7.9822 C   0  0  0  0  0  0  0  0  0  0  0  0
    6.1846   -1.5574   -7.6568 O   0  0  0  0  0  0  0  0  0  0  0  0
    6.0712    0.1000   -9.4049 C   0  0  0  0  0  0  0  0  0  0  0  0
    5.8858   -1.0016  -10.4603 C   0  0  0  0  0  0  0  0  0  0  0  0
    6.2248   -0.5462  -11.8619 C   0  0  0  0  0  0  0  0  0  0  0  0
    7.5335   -0.6388  -12.3575 C   0  0  0  0  0  0  0  0  0  0  0  0
    7.8554   -0.1870  -13.6405 C   0  0  0  0  0  0  0  0  0  0  0  0
    6.8815    0.3733  -14.4796 C   0  0  0  0  0  0  0  0  0  0  0  0
    7.2166    0.8478  -15.8733 C   0  0  0  0  0  0  0  0  0  0  0  0
    5.5705    0.4650  -13.9837 C   0  0  0  0  0  0  0  0  0  0  0  0
    5.2494    0.0149  -12.7024 C   0  0  0  0  0  0  0  0  0  0  0  0
    3.8827   -0.6868   -3.1428 C   0  0  0  0  0  0  0  0  0  0  0  0
    3.4673   -0.9194   -1.7966 C   0  0  0  0  0  0  0  0  0  0  0  0
    1.1821   -0.0007    1.7814 H   0  0  0  0  0  0  0  0  0  0  0  0
    0.2517    0.4243    0.3043 H   0  0  0  0  0  0  0  0  0  0  0  0
    1.5929    1.4857    0.8552 H   0  0  0  0  0  0  0  0  0  0  0  0
    1.1605    1.6731   -1.4893 H   0  0  0  0  0  0  0  0  0  0  0  0
    1.8994    2.0491   -3.8728 H   0  0  0  0  0  0  0  0  0  0  0  0
    2.9830    0.0528   -5.9546 H   0  0  0  0  0  0  0  0  0  0  0  0
    3.8142    2.5468   -4.9906 H   0  0  0  0  0  0  0  0  0  0  0  0
    5.2480   -0.8931   -5.5844 H   0  0  0  0  0  0  0  0  0  0  0  0
    5.8372    0.7005   -5.0520 H   0  0  0  0  0  0  0  0  0  0  0  0
    5.0645    1.4007   -7.4286 H   0  0  0  0  0  0  0  0  0  0  0  0
    7.1013    0.4952   -9.4667 H   0  0  0  0  0  0  0  0  0  0  0  0
    5.4022    0.9537   -9.6051 H   0  0  0  0  0  0  0  0  0  0  0  0
    4.8433   -1.3594  -10.4252 H   0  0  0  0  0  0  0  0  0  0  0  0
    6.5151   -1.8550  -10.1661 H   0  0  0  0  0  0  0  0  0  0  0  0
    8.3156   -1.0780  -11.7306 H   0  0  0  0  0  0  0  0  0  0  0  0
    8.8854   -0.2769  -13.9986 H   0  0  0  0  0  0  0  0  0  0  0  0
    8.3005    0.8218  -16.0600 H   0  0  0  0  0  0  0  0  0  0  0  0
    6.8693    1.8806  -16.0421 H   0  0  0  0  0  0  0  0  0  0  0  0
    6.7319    0.2179  -16.6391 H   0  0  0  0  0  0  0  0  0  0  0  0
    4.7856    0.8936  -14.6148 H   0  0  0  0  0  0  0  0  0  0  0  0
    4.2170    0.0950  -12.3479 H   0  0  0  0  0  0  0  0  0  0  0  0
    4.6272   -1.3396   -3.5946 H   0  0  0  0  0  0  0  0  0  0  0  0
    3.8707   -1.7320   -1.1936 H   0  0  0  0  0  0  0  0  0  0  0  0
  1  2  1  0
  1 24  1  0
  1 25  1  0
  1 26  1  0
  2  3  1  0
  3  4  2  0
  3 23  1  0
  4  5  1  0
  4 27  1  0
  5  6  2  0
  5 28  1  0
  6  7  1  0
  6 22  1  0
  7  8  1  0
  7  9  1  0
  7 29  1  6
  8 30  1  0
  9 10  1  0
  9 31  1  0
  9 32  1  0
 10 11  1  0
 10 33  1  0
 11 12  2  0
 11 13  1  0
 13 14  1  0
 13 34  1  0
 13 35  1  0
 14 15  1  0
 14 36  1  0
 14 37  1  0
 15 16  2  0
 15 21  1  0
 16 17  1  0
 16 38  1  0
 17 18  2  0
 17 39  1  0
 18 19  1  0
 18 20  1  0
 19 40  1  0
 19 41  1  0
 19 42  1  0
 20 21  2  0
 20 43  1  0
 21 44  1  0
 22 23  2  0
 22 45  1  0
 23 46  1  0
M  END

