
     RDKit          3D

 66 68  0  0  0  0  0  0  0  0999 V2000
   -1.0355    2.2108   -1.2330 C   0  0  0  0  0  0  0  0  0  0  0  0
    0.3393    2.3950   -0.8691 O   0  0  0  0  0  0  0  0  0  0  0  0
    1.3101    2.3168   -1.7544 C   0  0  0  0  0  0  0  0  0  0  0  0
    1.1227    2.0598   -3.1428 C   0  0  0  0  0  0  0  0  0  0  0  0
    2.2245    1.9870   -3.9589 C   0  0  0  0  0  0  0  0  0  0  0  0
    3.5557    2.1769   -3.4486 C   0  0  0  0  0  0  0  0  0  0  0  0
    4.6856    2.0665   -4.4580 C   0  0  1  0  0  0  0  0  0  0  0  0
    4.4195    2.8286   -5.2167 H   0  0  0  0  0  0  0  0  0  0  0  0
    6.0875    2.3700   -3.9104 C   0  0  0  0  0  0  0  0  0  0  0  0
    7.1947    2.4312   -4.9816 C   0  0  1  0  0  0  0  0  0  0  0  0
    6.9356    3.5185   -6.0329 C   0  0  0  0  0  0  0  0  0  0  0  0
    8.5617    2.6215   -4.3121 C   0  0  0  0  0  0  0  0  0  0  0  0
    4.5868    0.7967   -5.1490 N   0  0  0  0  0  0  0  0  0  0  0  0
    4.1349    0.7814   -6.4991 C   0  0  0  0  0  0  0  0  0  0  0  0
    3.4173    1.7390   -6.8537 O   0  0  0  0  0  0  0  0  0  0  0  0
    4.5093   -0.3243   -7.3353 C   0  0  0  0  0  0  0  0  0  0  0  0
    3.9551   -0.4244   -8.6706 C   0  0  0  0  0  0  0  0  0  0  0  0
    4.2782   -1.4785   -9.4953 C   0  0  0  0  0  0  0  0  0  0  0  0
    5.1807   -2.4877   -9.0845 C   0  0  0  0  0  0  0  0  0  0  0  0
    5.3957   -3.9005  -10.1167 Cl  0  0  0  0  0  0  0  0  0  0  0  0
    5.7468   -2.4016   -7.7714 C   0  0  0  0  0  0  0  0  0  0  0  0
    7.0078   -3.5193   -7.1763 S   0  0  1  0  0  0  0  0  0  0  0  0
    8.0878   -3.6066   -8.1562 O   0  0  0  0  0  0  0  0  0  0  0  0
    7.2856   -3.1778   -5.7739 O   0  0  0  0  0  0  0  0  0  0  0  0
    6.3208   -5.0874   -7.1578 N   0  0  0  0  0  0  0  0  0  0  0  0
    5.2650   -5.4087   -6.2531 C   0  0  0  0  0  0  0  0  0  0  0  0
    3.9355   -5.3603   -6.7039 C   0  0  0  0  0  0  0  0  0  0  0  0
    2.8923   -5.7081   -5.8503 C   0  0  0  0  0  0  0  0  0  0  0  0
    3.1747   -6.0815   -4.5350 C   0  0  0  0  0  0  0  0  0  0  0  0
    4.4942   -6.1384   -4.0659 C   0  0  0  0  0  0  0  0  0  0  0  0
    4.7676   -6.5595   -2.6413 C   0  0  0  0  0  0  0  0  0  0  0  0
    5.5651   -5.8174   -4.9340 C   0  0  0  0  0  0  0  0  0  0  0  0
    6.9905   -5.9380   -4.4596 C   0  0  0  0  0  0  0  0  0  0  0  0
    5.4169   -1.3499   -6.9382 C   0  0  0  0  0  0  0  0  0  0  0  0
    3.7222    2.4530   -2.0689 C   0  0  0  0  0  0  0  0  0  0  0  0
    2.6310    2.5149   -1.2302 C   0  0  0  0  0  0  0  0  0  0  0  0
   -1.6049    2.3219   -0.3045 H   0  0  0  0  0  0  0  0  0  0  0  0
   -1.1882    1.2056   -1.6509 H   0  0  0  0  0  0  0  0  0  0  0  0
   -1.3442    2.9778   -1.9579 H   0  0  0  0  0  0  0  0  0  0  0  0
    0.1246    1.9247   -3.5574 H   0  0  0  0  0  0  0  0  0  0  0  0
    2.1325    1.8105   -5.0340 H   0  0  0  0  0  0  0  0  0  0  0  0
    6.3622    1.6068   -3.1583 H   0  0  0  0  0  0  0  0  0  0  0  0
    6.0674    3.3383   -3.3775 H   0  0  0  0  0  0  0  0  0  0  0  0
    7.2079    1.4589   -5.5020 H   0  0  0  0  0  0  0  0  0  0  0  0
    6.8596    4.5158   -5.5637 H   0  0  0  0  0  0  0  0  0  0  0  0
    6.0145    3.3371   -6.6079 H   0  0  0  0  0  0  0  0  0  0  0  0
    7.7637    3.5574   -6.7575 H   0  0  0  0  0  0  0  0  0  0  0  0
    8.6146    3.5865   -3.7780 H   0  0  0  0  0  0  0  0  0  0  0  0
    9.3706    2.6113   -5.0590 H   0  0  0  0  0  0  0  0  0  0  0  0
    8.7730    1.8220   -3.5833 H   0  0  0  0  0  0  0  0  0  0  0  0
    5.2110    0.0632   -4.8398 H   0  0  0  0  0  0  0  0  0  0  0  0
    3.2795    0.3604   -9.0100 H   0  0  0  0  0  0  0  0  0  0  0  0
    3.8431   -1.5490  -10.4948 H   0  0  0  0  0  0  0  0  0  0  0  0
    6.1257   -5.3373   -8.1281 H   0  0  0  0  0  0  0  0  0  0  0  0
    3.7369   -5.0451   -7.7306 H   0  0  0  0  0  0  0  0  0  0  0  0
    1.8591   -5.6752   -6.2059 H   0  0  0  0  0  0  0  0  0  0  0  0
    2.3567   -6.3416   -3.8565 H   0  0  0  0  0  0  0  0  0  0  0  0
    3.8309   -6.7127   -2.0849 H   0  0  0  0  0  0  0  0  0  0  0  0
    5.3660   -5.8073   -2.1005 H   0  0  0  0  0  0  0  0  0  0  0  0
    5.3399   -7.5023   -2.5959 H   0  0  0  0  0  0  0  0  0  0  0  0
    7.1463   -6.8795   -3.9086 H   0  0  0  0  0  0  0  0  0  0  0  0
    7.2592   -5.1087   -3.7849 H   0  0  0  0  0  0  0  0  0  0  0  0
    7.6886   -5.8986   -5.3034 H   0  0  0  0  0  0  0  0  0  0  0  0
    5.9169   -1.3385   -5.9692 H   0  0  0  0  0  0  0  0  0  0  0  0
    4.7201    2.6031   -1.6600 H   0  0  0  0  0  0  0  0  0  0  0  0
    2.7281    2.7056   -0.1606 H   0  0  0  0  0  0  0  0  0  0  0  0
  1  2  1  0
  1 37  1  0
  1 38  1  0
  1 39  1  0
  2  3  1  0
  3  4  2  0
  3 36  1  0
  4  5  1  0
  4 40  1  0
  5  6  2  0
  5 41  1  0
  6  7  1  0
  6 35  1  0
  7  8  1  6
  7  9  1  0
  7 13  1  0
  9 10  1  0
  9 42  1  0
  9 43  1  0
 10 11  1  0
 10 12  1  0
 10 44  1  6
 11 45  1  0
 11 46  1  0
 11 47  1  0
 12 48  1  0
 12 49  1  0
 12 50  1  0
 13 14  1  0
 13 51  1  0
 14 15  2  0
 14 16  1  0
 16 17  2  0
 16 34  1  0
 17 18  1  0
 17 52  1  0
 18 19  2  0
 18 53  1  0
 19 20  1  0
 19 21  1  0
 21 22  1  0
 21 34  2  0
 22 23  2  0
 22 24  2  0
 22 25  1  1
 25 26  1  0
 25 54  1  0
 26 27  2  0
 26 32  1  0
 27 28  1  0
 27 55  1  0
 28 29  2  0
 28 56  1  0
 29 30  1  0
 29 57  1  0
 30 31  1  0
 30 32  2  0
 31 58  1  0
 31 59  1  0
 31 60  1  0
 32 33  1  0
 33 61  1  0
 33 62  1  0
 33 63  1  0
 34 64  1  0
 35 36  2  0
 35 65  1  0
 36 66  1  0
M  END

