
     RDKit          3D

 32 34  0  0  0  0  0  0  0  0999 V2000
    2.2790    1.2227   -1.1178 N   0  0  0  0  0  0  0  0  0  0  0  0
    2.8796    0.3667   -0.1782 N   0  0  0  0  0  0  0  0  0  0  0  0
    3.3872   -0.8508   -0.6184 C   0  0  0  0  0  0  0  0  0  0  0  0
    3.1467   -2.0589   -0.0049 C   0  0  0  0  0  0  0  0  0  0  0  0
    2.0855   -2.1895    1.3516 Cl  0  0  0  0  0  0  0  0  0  0  0  0
    3.7411   -3.3481   -0.4491 C   0  0  0  0  0  0  0  0  0  0  0  0
    3.5072   -4.3960    0.1257 O   0  0  0  0  0  0  0  0  0  0  0  0
    4.6151   -3.3025   -1.6610 C   0  0  0  0  0  0  0  0  0  0  0  0
    5.1793   -4.4906   -2.1404 C   0  0  0  0  0  0  0  0  0  0  0  0
    5.9866   -4.4703   -3.2791 C   0  0  0  0  0  0  0  0  0  0  0  0
    6.2342   -3.2631   -3.9452 C   0  0  0  0  0  0  0  0  0  0  0  0
    5.6743   -2.0760   -3.4718 C   0  0  0  0  0  0  0  0  0  0  0  0
    4.8631   -2.0905   -2.3286 C   0  0  0  0  0  0  0  0  0  0  0  0
    4.2907   -0.8086   -1.8292 C   0  0  0  0  0  0  0  0  0  0  0  0
    4.5639    0.2512   -2.3709 O   0  0  0  0  0  0  0  0  0  0  0  0
    2.9669    0.8490    1.1488 C   0  0  0  0  0  0  0  0  0  0  0  0
    2.0754    1.8411    1.5949 C   0  0  0  0  0  0  0  0  0  0  0  0
    2.1825    2.3475    2.8899 C   0  0  0  0  0  0  0  0  0  0  0  0
    3.1688    1.8788    3.7638 C   0  0  0  0  0  0  0  0  0  0  0  0
    4.0590    0.8970    3.3187 C   0  0  0  0  0  0  0  0  0  0  0  0
    3.9678    0.3873    2.0235 C   0  0  0  0  0  0  0  0  0  0  0  0
    1.5889    0.7020   -1.6593 H   0  0  0  0  0  0  0  0  0  0  0  0
    2.9969    1.5760   -1.7525 H   0  0  0  0  0  0  0  0  0  0  0  0
    4.9677   -5.4172   -1.6037 H   0  0  0  0  0  0  0  0  0  0  0  0
    6.4261   -5.3992   -3.6511 H   0  0  0  0  0  0  0  0  0  0  0  0
    6.8688   -3.2494   -4.8347 H   0  0  0  0  0  0  0  0  0  0  0  0
    5.8555   -1.1215   -3.9691 H   0  0  0  0  0  0  0  0  0  0  0  0
    1.3165    2.2116    0.9072 H   0  0  0  0  0  0  0  0  0  0  0  0
    1.4808    3.1182    3.2199 H   0  0  0  0  0  0  0  0  0  0  0  0
    3.2464    2.2773    4.7780 H   0  0  0  0  0  0  0  0  0  0  0  0
    4.8443    0.5266    3.9827 H   0  0  0  0  0  0  0  0  0  0  0  0
    4.6856   -0.3628    1.6874 H   0  0  0  0  0  0  0  0  0  0  0  0
  1  2  1  0
  1 22  1  0
  1 23  1  0
  2  3  1  0
  2 16  1  0
  3  4  2  0
  3 14  1  0
  4  5  1  0
  4  6  1  0
  6  7  2  0
  6  8  1  0
  8  9  2  0
  8 13  1  0
  9 10  1  0
  9 24  1  0
 10 11  2  0
 10 25  1  0
 11 12  1  0
 11 26  1  0
 12 13  2  0
 12 27  1  0
 13 14  1  0
 14 15  2  0
 16 17  2  0
 16 21  1  0
 17 18  1  0
 17 28  1  0
 18 19  2  0
 18 29  1  0
 19 20  1  0
 19 30  1  0
 20 21  2  0
 20 31  1  0
 21 32  1  0
M  END

