
     RDKit          3D

 62 66  0  0  0  0  0  0  0  0999 V2000
    0.6870    0.6186   -0.2316 C   0  0  0  0  0  0  0  0  0  0  0  0
    2.1239    0.2317   -0.5249 C   0  0  0  0  0  0  0  0  0  0  0  0
    2.9007    1.4163   -0.5705 O   0  0  0  0  0  0  0  0  0  0  0  0
    4.2327    1.3331   -0.8207 C   0  0  0  0  0  0  0  0  0  0  0  0
    4.9209    2.5810   -0.8469 C   0  0  0  0  0  0  0  0  0  0  0  0
    6.2715    2.6419   -1.0895 C   0  0  0  0  0  0  0  0  0  0  0  0
    7.0247    1.4527   -1.3236 C   0  0  0  0  0  0  0  0  0  0  0  0
    8.3542    1.5339   -1.5590 N   0  0  0  0  0  0  0  0  0  0  0  0
    9.0068    0.4009   -1.7772 C   0  0  0  0  0  0  0  0  0  0  0  0
   10.3544    0.4550   -2.0479 N   0  0  0  0  0  0  0  0  0  0  0  0
   11.1806   -0.7383   -2.1802 C   0  0  0  0  0  0  0  0  0  0  0  0
   12.0900   -0.6456   -3.4099 C   0  0  0  0  0  0  0  0  0  0  0  0
   12.9416    0.6464   -3.4081 C   0  0  2  0  0  0  0  0  0  0  0  0
   14.0096    0.6932   -2.4085 N   0  0  0  0  0  0  0  0  0  0  0  0
   15.0898   -0.2674   -2.5538 C   0  0  0  0  0  0  0  0  0  0  0  0
   16.2671    0.1211   -1.6564 C   0  0  0  0  0  0  0  0  0  0  0  0
   17.4597   -0.7697   -1.8249 C   0  0  0  0  0  0  0  0  0  0  0  0
   17.6799   -1.5733   -2.8350 N   0  0  0  0  0  0  0  0  0  0  0  0
   18.9055   -2.1642   -2.5846 C   0  0  0  0  0  0  0  0  0  0  0  0
   19.6304   -3.1057   -3.3294 C   0  0  0  0  0  0  0  0  0  0  0  0
   20.8599   -3.5409   -2.8400 C   0  0  0  0  0  0  0  0  0  0  0  0
   21.3617   -3.0433   -1.6194 C   0  0  0  0  0  0  0  0  0  0  0  0
   22.9145   -3.6225   -1.0464 Cl  0  0  0  0  0  0  0  0  0  0  0  0
   20.6691   -2.1070   -0.8510 C   0  0  0  0  0  0  0  0  0  0  0  0
   19.4382   -1.6825   -1.3596 C   0  0  0  0  0  0  0  0  0  0  0  0
   18.4873   -0.7938   -0.8984 N   0  0  0  0  0  0  0  0  0  0  0  0
   18.5306   -0.2530   -0.0441 H   0  0  0  0  0  0  0  0  0  0  0  0
   12.0052    1.8548   -3.2337 C   0  0  0  0  0  0  0  0  0  0  0  0
   11.0810    1.7178   -2.0178 C   0  0  0  0  0  0  0  0  0  0  0  0
    8.4391   -0.8433   -1.7661 N   0  0  0  0  0  0  0  0  0  0  0  0
    7.1496   -0.9512   -1.5353 C   0  0  0  0  0  0  0  0  0  0  0  0
    6.5607   -2.3380   -1.5309 C   0  0  0  0  0  0  0  0  0  0  0  0
    6.3334    0.2048   -1.2963 C   0  0  0  0  0  0  0  0  0  0  0  0
    4.9339    0.1586   -1.0427 C   0  0  0  0  0  0  0  0  0  0  0  0
    0.0515   -0.2794   -0.1867 H   0  0  0  0  0  0  0  0  0  0  0  0
    0.2958    1.2839   -1.0164 H   0  0  0  0  0  0  0  0  0  0  0  0
    0.6155    1.1450    0.7324 H   0  0  0  0  0  0  0  0  0  0  0  0
    2.1974   -0.3049   -1.4905 H   0  0  0  0  0  0  0  0  0  0  0  0
    2.5159   -0.4466    0.2575 H   0  0  0  0  0  0  0  0  0  0  0  0
    4.3344    3.4850   -0.6675 H   0  0  0  0  0  0  0  0  0  0  0  0
    6.8033    3.5950   -1.1109 H   0  0  0  0  0  0  0  0  0  0  0  0
   10.5204   -1.6100   -2.2365 H   0  0  0  0  0  0  0  0  0  0  0  0
   11.8004   -0.8598   -1.2661 H   0  0  0  0  0  0  0  0  0  0  0  0
   11.4626   -0.6582   -4.3176 H   0  0  0  0  0  0  0  0  0  0  0  0
   12.7362   -1.5374   -3.4573 H   0  0  0  0  0  0  0  0  0  0  0  0
   13.4393    0.7324   -4.3900 H   0  0  0  0  0  0  0  0  0  0  0  0
   13.6275    0.6600   -1.4645 H   0  0  0  0  0  0  0  0  0  0  0  0
   15.4314   -0.2628   -3.6011 H   0  0  0  0  0  0  0  0  0  0  0  0
   14.8084   -1.3198   -2.3391 H   0  0  0  0  0  0  0  0  0  0  0  0
   15.9550    0.1120   -0.5954 H   0  0  0  0  0  0  0  0  0  0  0  0
   16.5444    1.1673   -1.8794 H   0  0  0  0  0  0  0  0  0  0  0  0
   19.2329   -3.4843   -4.2731 H   0  0  0  0  0  0  0  0  0  0  0  0
   21.4514   -4.2718   -3.3933 H   0  0  0  0  0  0  0  0  0  0  0  0
   21.0824   -1.7398    0.0892 H   0  0  0  0  0  0  0  0  0  0  0  0
   11.3811    1.9558   -4.1373 H   0  0  0  0  0  0  0  0  0  0  0  0
   12.6091    2.7708   -3.1373 H   0  0  0  0  0  0  0  0  0  0  0  0
   10.3474    2.5308   -1.9843 H   0  0  0  0  0  0  0  0  0  0  0  0
   11.6712    1.7839   -1.0790 H   0  0  0  0  0  0  0  0  0  0  0  0
    7.3511   -3.0724   -1.7298 H   0  0  0  0  0  0  0  0  0  0  0  0
    5.7769   -2.4400   -2.2997 H   0  0  0  0  0  0  0  0  0  0  0  0
    6.0934   -2.5698   -0.5596 H   0  0  0  0  0  0  0  0  0  0  0  0
    4.4270   -0.8048   -1.0264 H   0  0  0  0  0  0  0  0  0  0  0  0
  1  2  1  0
  1 35  1  0
  1 36  1  0
  1 37  1  0
  2  3  1  0
  2 38  1  0
  2 39  1  0
  3  4  1  0
  4  5  2  0
  4 34  1  0
  5  6  1  0
  5 40  1  0
  6  7  2  0
  6 41  1  0
  7  8  1  0
  7 33  1  0
  8  9  2  0
  9 10  1  0
  9 30  1  0
 10 11  1  0
 10 29  1  0
 11 12  1  0
 11 42  1  0
 11 43  1  0
 12 13  1  0
 12 44  1  0
 12 45  1  0
 13 14  1  0
 13 28  1  0
 13 46  1  6
 14 15  1  0
 14 47  1  0
 15 16  1  0
 15 48  1  0
 15 49  1  0
 16 17  1  0
 16 50  1  0
 16 51  1  0
 17 18  2  0
 17 26  1  0
 18 19  1  0
 19 20  2  0
 19 25  1  0
 20 21  1  0
 20 52  1  0
 21 22  2  0
 21 53  1  0
 22 23  1  0
 22 24  1  0
 24 25  2  0
 24 54  1  0
 25 26  1  0
 26 27  1  0
 28 29  1  0
 28 55  1  0
 28 56  1  0
 29 57  1  0
 29 58  1  0
 30 31  2  0
 31 32  1  0
 31 33  1  0
 32 59  1  0
 32 60  1  0
 32 61  1  0
 33 34  2  0
 34 62  1  0
M  END

