
     RDKit          3D

 48 50  0  0  0  0  0  0  0  0999 V2000
    8.5757    1.0388   -7.2538 C   0  0  0  0  0  0  0  0  0  0  0  0
    8.5673    0.9720   -5.7452 C   0  0  0  0  0  0  0  0  0  0  0  0
    7.3548    1.1758   -5.0381 C   0  0  0  0  0  0  0  0  0  0  0  0
    7.2838    1.1241   -3.6493 C   0  0  0  0  0  0  0  0  0  0  0  0
    8.4615    0.8585   -2.9278 C   0  0  0  0  0  0  0  0  0  0  0  0
    8.8135    0.7226   -1.5251 C   0  0  0  0  0  0  0  0  0  0  0  0
    7.8979    0.8302   -0.3443 C   0  0  0  0  0  0  0  0  0  0  0  0
    7.2792    2.2143   -0.0801 C   0  0  0  0  0  0  0  0  0  0  0  0
    6.1783    2.3253    0.4325 O   0  0  0  0  0  0  0  0  0  0  0  0
    8.0615    3.2789   -0.4198 N   0  0  0  0  0  0  0  0  0  0  0  0
    7.6531    4.6535   -0.2029 C   0  0  0  0  0  0  0  0  0  0  0  0
    8.4286    5.3443    0.9281 C   0  0  0  0  0  0  0  0  0  0  0  0
    8.0533    6.8159    1.1381 C   0  0  0  0  0  0  0  0  0  0  0  0
    6.6328    7.0279    1.6465 C   0  0  0  0  0  0  0  0  0  0  0  0
    6.4579    8.4149    1.8753 O   0  0  0  0  0  0  0  0  0  0  0  0
    5.2620    8.8785    2.3255 C   0  0  0  0  0  0  0  0  0  0  0  0
    5.1700   10.2694    2.5157 C   0  0  0  0  0  0  0  0  0  0  0  0
    3.9889   10.8453    2.9748 C   0  0  0  0  0  0  0  0  0  0  0  0
    2.8912   10.0268    3.2458 C   0  0  0  0  0  0  0  0  0  0  0  0
    1.7494   10.5822    3.6889 F   0  0  0  0  0  0  0  0  0  0  0  0
    2.9601    8.6513    3.0653 C   0  0  0  0  0  0  0  0  0  0  0  0
    4.1485    8.0706    2.6038 C   0  0  0  0  0  0  0  0  0  0  0  0
   10.1539    0.4625   -1.5222 C   0  0  0  0  0  0  0  0  0  0  0  0
   10.6854    0.4190   -2.7799 O   0  0  0  0  0  0  0  0  0  0  0  0
    9.6570    0.6594   -3.6421 C   0  0  0  0  0  0  0  0  0  0  0  0
    9.7425    0.7089   -5.0324 C   0  0  0  0  0  0  0  0  0  0  0  0
    8.2273    2.0217   -7.6131 H   0  0  0  0  0  0  0  0  0  0  0  0
    7.9030    0.2818   -7.6911 H   0  0  0  0  0  0  0  0  0  0  0  0
    9.5826    0.8688   -7.6621 H   0  0  0  0  0  0  0  0  0  0  0  0
    6.4450    1.3802   -5.6097 H   0  0  0  0  0  0  0  0  0  0  0  0
    6.3336    1.2868   -3.1347 H   0  0  0  0  0  0  0  0  0  0  0  0
    8.4314    0.5368    0.5758 H   0  0  0  0  0  0  0  0  0  0  0  0
    7.0435    0.1427   -0.4385 H   0  0  0  0  0  0  0  0  0  0  0  0
    8.9543    3.0913   -0.8629 H   0  0  0  0  0  0  0  0  0  0  0  0
    6.5788    4.6156    0.0268 H   0  0  0  0  0  0  0  0  0  0  0  0
    7.7743    5.2254   -1.1407 H   0  0  0  0  0  0  0  0  0  0  0  0
    9.5087    5.2844    0.7077 H   0  0  0  0  0  0  0  0  0  0  0  0
    8.2746    4.7760    1.8623 H   0  0  0  0  0  0  0  0  0  0  0  0
    8.1792    7.3814    0.1982 H   0  0  0  0  0  0  0  0  0  0  0  0
    8.7425    7.2726    1.8671 H   0  0  0  0  0  0  0  0  0  0  0  0
    6.4722    6.4602    2.5838 H   0  0  0  0  0  0  0  0  0  0  0  0
    5.8851    6.6697    0.9145 H   0  0  0  0  0  0  0  0  0  0  0  0
    6.0462   10.8820    2.2946 H   0  0  0  0  0  0  0  0  0  0  0  0
    3.9045   11.9233    3.1265 H   0  0  0  0  0  0  0  0  0  0  0  0
    2.0847    8.0371    3.2860 H   0  0  0  0  0  0  0  0  0  0  0  0
    4.1881    6.9899    2.4678 H   0  0  0  0  0  0  0  0  0  0  0  0
   10.8527    0.2723   -0.7099 H   0  0  0  0  0  0  0  0  0  0  0  0
   10.6958    0.5457   -5.5394 H   0  0  0  0  0  0  0  0  0  0  0  0
  1  2  1  0
  1 27  1  0
  1 28  1  0
  1 29  1  0
  2  3  2  0
  2 26  1  0
  3  4  1  0
  3 30  1  0
  4  5  2  0
  4 31  1  0
  5  6  1  0
  5 25  1  0
  6  7  1  0
  6 23  2  0
  7  8  1  0
  7 32  1  0
  7 33  1  0
  8  9  2  0
  8 10  1  0
 10 11  1  0
 10 34  1  0
 11 12  1  0
 11 35  1  0
 11 36  1  0
 12 13  1  0
 12 37  1  0
 12 38  1  0
 13 14  1  0
 13 39  1  0
 13 40  1  0
 14 15  1  0
 14 41  1  0
 14 42  1  0
 15 16  1  0
 16 17  2  0
 16 22  1  0
 17 18  1  0
 17 43  1  0
 18 19  2  0
 18 44  1  0
 19 20  1  0
 19 21  1  0
 21 22  2  0
 21 45  1  0
 22 46  1  0
 23 24  1  0
 23 47  1  0
 24 25  1  0
 25 26  2  0
 26 48  1  0
M  END

