
     RDKit          3D

 44 45  0  0  0  0  0  0  0  0999 V2000
    0.8859   -1.4148   -1.1321 N   0  0  0  0  0  0  0  0  0  0  0  0
    2.2311   -1.5211   -1.7034 C   0  0  1  0  0  0  0  0  0  0  0  0
    2.3886   -0.6391   -2.3498 H   0  0  0  0  0  0  0  0  0  0  0  0
    3.4095   -1.5799   -0.7032 C   0  0  0  0  0  0  0  0  0  0  0  0
    3.2568   -2.6594    0.3529 C   0  0  0  0  0  0  0  0  0  0  0  0
    3.8346   -3.9142    0.1017 C   0  0  0  0  0  0  0  0  0  0  0  0
    3.8543   -4.9358    1.0988 C   0  0  0  0  0  0  0  0  0  0  0  0
    3.1748   -4.7698    2.2827 C   0  0  0  0  0  0  0  0  0  0  0  0
    2.3754   -3.5923    2.4967 C   0  0  0  0  0  0  0  0  0  0  0  0
    1.2908   -3.6049    3.4292 C   0  0  0  0  0  0  0  0  0  0  0  0
    1.2643   -4.5004    4.5604 C   0  0  0  0  0  0  0  0  0  0  0  0
    0.2350   -4.4715    5.4778 C   0  0  0  0  0  0  0  0  0  0  0  0
   -0.8609   -3.5853    5.3136 C   0  0  0  0  0  0  0  0  0  0  0  0
   -0.9008   -2.7422    4.1955 C   0  0  0  0  0  0  0  0  0  0  0  0
    0.1369   -2.7325    3.2725 C   0  0  0  0  0  0  0  0  0  0  0  0
    2.6107   -2.4302    1.5899 C   0  0  0  0  0  0  0  0  0  0  0  0
    2.4520   -1.0543    2.1684 C   0  0  0  0  0  0  0  0  0  0  0  0
    3.5972   -0.6956    3.1516 C   0  0  0  0  0  0  0  0  0  0  0  0
    3.4151    0.9685    3.8362 P   0  0  1  0  0  0  0  0  0  0  0  0
    2.1587    1.3221    4.5532 O   0  0  0  0  0  0  0  0  0  0  0  0
    4.7551    1.1441    4.7500 O   0  0  0  0  0  0  0  0  0  0  0  0
    3.7045    1.8727    2.5071 O   0  0  0  0  0  0  0  0  0  0  0  0
    2.2644   -2.7190   -2.6870 C   0  0  0  0  0  0  0  0  0  0  0  0
    3.2863   -3.1956   -3.1131 O   0  0  0  0  0  0  0  0  0  0  0  0
    1.0509   -3.1264   -3.0490 O   0  0  0  0  0  0  0  0  0  0  0  0
    0.6257   -0.4507   -0.9321 H   0  0  0  0  0  0  0  0  0  0  0  0
    0.8256   -1.9387   -0.2539 H   0  0  0  0  0  0  0  0  0  0  0  0
    3.5326   -0.5880   -0.2454 H   0  0  0  0  0  0  0  0  0  0  0  0
    4.3150   -1.7720   -1.2955 H   0  0  0  0  0  0  0  0  0  0  0  0
    4.3409   -4.0800   -0.8514 H   0  0  0  0  0  0  0  0  0  0  0  0
    4.3907   -5.8667    0.9002 H   0  0  0  0  0  0  0  0  0  0  0  0
    3.1360   -5.5915    2.9996 H   0  0  0  0  0  0  0  0  0  0  0  0
    2.1038   -5.1777    4.7255 H   0  0  0  0  0  0  0  0  0  0  0  0
    0.2654   -5.1379    6.3438 H   0  0  0  0  0  0  0  0  0  0  0  0
   -1.6688   -3.5689    6.0489 H   0  0  0  0  0  0  0  0  0  0  0  0
   -1.7629   -2.0881    4.0394 H   0  0  0  0  0  0  0  0  0  0  0  0
    0.0387   -2.1436    2.3601 H   0  0  0  0  0  0  0  0  0  0  0  0
    1.5147   -0.9765    2.7571 H   0  0  0  0  0  0  0  0  0  0  0  0
    2.4099   -0.2881    1.3837 H   0  0  0  0  0  0  0  0  0  0  0  0
    4.5815   -0.7544    2.6602 H   0  0  0  0  0  0  0  0  0  0  0  0
    3.6136   -1.3938    4.0036 H   0  0  0  0  0  0  0  0  0  0  0  0
    4.5184    1.5254    5.6095 H   0  0  0  0  0  0  0  0  0  0  0  0
    3.3140    2.7550    2.6027 H   0  0  0  0  0  0  0  0  0  0  0  0
    0.4355   -2.5723   -2.5051 H   0  0  0  0  0  0  0  0  0  0  0  0
  1  2  1  0
  1 26  1  0
  1 27  1  0
  2  3  1  6
  2  4  1  0
  2 23  1  0
  4  5  1  0
  4 28  1  0
  4 29  1  0
  5  6  2  0
  5 16  1  0
  6  7  1  0
  6 30  1  0
  7  8  2  0
  7 31  1  0
  8  9  1  0
  8 32  1  0
  9 10  1  0
  9 16  2  0
 10 11  2  0
 10 15  1  0
 11 12  1  0
 11 33  1  0
 12 13  2  0
 12 34  1  0
 13 14  1  0
 13 35  1  0
 14 15  2  0
 14 36  1  0
 15 37  1  0
 16 17  1  0
 17 18  1  0
 17 38  1  0
 17 39  1  0
 18 19  1  0
 18 40  1  0
 18 41  1  0
 19 20  2  0
 19 21  1  1
 19 22  1  0
 21 42  1  0
 22 43  1  0
 23 24  2  0
 23 25  1  0
 25 44  1  0
M  END

