
     RDKit          3D

 41 43  0  0  0  0  0  0  0  0999 V2000
    2.4518   -0.7987    1.5197 O   0  0  0  0  0  0  0  0  0  0  0  0
    2.8052   -0.0024    0.6707 C   0  0  0  0  0  0  0  0  0  0  0  0
    2.7194    1.3588    0.7569 N   0  0  0  0  0  0  0  0  0  0  0  0
    2.1801    2.1453    1.8026 C   0  0  0  0  0  0  0  0  0  0  0  0
    1.7641    1.6080    3.0319 C   0  0  0  0  0  0  0  0  0  0  0  0
    1.2440    2.4521    4.0156 C   0  0  0  0  0  0  0  0  0  0  0  0
    1.1381    3.8252    3.7833 C   0  0  0  0  0  0  0  0  0  0  0  0
    0.4266    4.9642    5.1320 Br  0  0  0  0  0  0  0  0  0  0  0  0
    1.5534    4.3687    2.5639 C   0  0  0  0  0  0  0  0  0  0  0  0
    2.0709    3.5283    1.5804 C   0  0  0  0  0  0  0  0  0  0  0  0
    3.4579   -0.4576   -0.6332 C   0  0  0  0  0  0  0  0  0  0  0  0
    2.7712   -1.1909   -1.6344 C   0  0  0  0  0  0  0  0  0  0  0  0
    1.4808   -1.7455   -1.5984 C   0  0  0  0  0  0  0  0  0  0  0  0
    0.5361   -1.9484   -0.5618 C   0  0  0  0  0  0  0  0  0  0  0  0
   -0.6431   -2.5617   -1.0033 C   0  0  0  0  0  0  0  0  0  0  0  0
   -0.6333   -2.8483   -2.3636 C   0  0  0  0  0  0  0  0  0  0  0  0
    0.8269   -2.3702   -3.1223 S   0  0  0  0  0  0  0  0  0  0  0  0
    4.7068   -0.0822   -0.7961 N   0  0  0  0  0  0  0  0  0  0  0  0
    5.5304   -0.2329   -2.0957 C   0  0  0  0  0  0  0  0  0  0  0  0
    5.2084    0.6025   -2.9542 O   0  0  0  0  0  0  0  0  0  0  0  0
    6.5266   -1.2331   -2.0627 C   0  0  0  0  0  0  0  0  0  0  0  0
    7.3577   -1.3948   -3.2271 C   0  0  0  0  0  0  0  0  0  0  0  0
    8.3537   -2.3529   -3.2647 C   0  0  0  0  0  0  0  0  0  0  0  0
    8.5949   -3.2044   -2.1662 C   0  0  0  0  0  0  0  0  0  0  0  0
    7.7971   -3.0569   -1.0156 C   0  0  0  0  0  0  0  0  0  0  0  0
    6.7933   -2.1040   -0.9502 C   0  0  0  0  0  0  0  0  0  0  0  0
    3.0125    1.8780   -0.0659 H   0  0  0  0  0  0  0  0  0  0  0  0
    1.8470    0.5392    3.2138 H   0  0  0  0  0  0  0  0  0  0  0  0
    0.9219    2.0326    4.9701 H   0  0  0  0  0  0  0  0  0  0  0  0
    1.4735    5.4413    2.3810 H   0  0  0  0  0  0  0  0  0  0  0  0
    2.3938    3.9565    0.6269 H   0  0  0  0  0  0  0  0  0  0  0  0
    3.3204   -1.2762   -2.5719 H   0  0  0  0  0  0  0  0  0  0  0  0
    0.7427   -1.6892    0.4739 H   0  0  0  0  0  0  0  0  0  0  0  0
   -1.4824   -2.8056   -0.3514 H   0  0  0  0  0  0  0  0  0  0  0  0
   -1.4236   -3.3223   -2.9446 H   0  0  0  0  0  0  0  0  0  0  0  0
    5.1053    0.5195   -0.0762 H   0  0  0  0  0  0  0  0  0  0  0  0
    7.1787   -0.7365   -4.0787 H   0  0  0  0  0  0  0  0  0  0  0  0
    8.9668   -2.4485   -4.1661 H   0  0  0  0  0  0  0  0  0  0  0  0
    9.3838   -3.9576   -2.2050 H   0  0  0  0  0  0  0  0  0  0  0  0
    7.9720   -3.7034   -0.1504 H   0  0  0  0  0  0  0  0  0  0  0  0
    6.2030   -2.0229   -0.0355 H   0  0  0  0  0  0  0  0  0  0  0  0
  1  2  2  0
  2  3  1  0
  2 11  1  0
  3  4  1  0
  3 27  1  0
  4  5  2  0
  4 10  1  0
  5  6  1  0
  5 28  1  0
  6  7  2  0
  6 29  1  0
  7  8  1  0
  7  9  1  0
  9 10  2  0
  9 30  1  0
 10 31  1  0
 11 12  2  0
 11 18  1  0
 12 13  1  0
 12 32  1  0
 13 14  2  0
 13 17  1  0
 14 15  1  0
 14 33  1  0
 15 16  2  0
 15 34  1  0
 16 17  1  0
 16 35  1  0
 18 19  1  0
 18 36  1  0
 19 20  2  0
 19 21  1  0
 21 22  2  0
 21 26  1  0
 22 23  1  0
 22 37  1  0
 23 24  2  0
 23 38  1  0
 24 25  1  0
 24 39  1  0
 25 26  2  0
 25 40  1  0
 26 41  1  0
M  END

