
     RDKit          3D

 81 91  0  0  0  0  0  0  0  0999 V2000
    1.0199   -5.5275    8.8523 C   0  0  0  0  0  0  0  0  0  0  0  0
    1.3809   -4.2473    9.2827 C   0  0  0  0  0  0  0  0  0  0  0  0
    2.1510   -3.4191    8.4621 C   0  0  0  0  0  0  0  0  0  0  0  0
    2.5734   -3.8590    7.1963 C   0  0  0  0  0  0  0  0  0  0  0  0
    3.3969   -2.9711    6.3208 C   0  0  0  0  0  0  0  0  0  0  0  0
    3.6973   -1.7415    6.8007 N   0  0  0  0  0  0  0  0  0  0  0  0
    4.4434   -0.9763    5.9695 C   0  0  0  0  0  0  0  0  0  0  0  0
    4.8045    0.3924    6.4481 C   0  0  0  0  0  0  0  0  0  0  0  0
    4.3734    0.8440    7.7069 C   0  0  0  0  0  0  0  0  0  0  0  0
    4.7107    2.1227    8.1574 C   0  0  0  0  0  0  0  0  0  0  0  0
    5.4836    2.9706    7.3584 C   0  0  0  0  0  0  0  0  0  0  0  0
    5.9176    2.5288    6.1024 C   0  0  0  0  0  0  0  0  0  0  0  0
    5.5811    1.2521    5.6519 C   0  0  0  0  0  0  0  0  0  0  0  0
    4.8723   -1.3463    4.7764 N   0  0  0  0  0  0  0  0  0  0  0  0
    4.5268   -2.6050    4.3668 C   0  0  0  0  0  0  0  0  0  0  0  0
    4.9693   -3.0647    3.0741 C   0  0  0  0  0  0  0  0  0  0  0  0
    5.7529   -2.2336    2.2149 C   0  0  0  0  0  0  0  0  0  0  0  0
    6.1736   -2.6722    0.9713 C   0  0  0  0  0  0  0  0  0  0  0  0
    5.8295   -3.9658    0.5270 C   0  0  0  0  0  0  0  0  0  0  0  0
    6.2616   -4.4239   -0.7766 N   0  0  0  0  0  0  0  0  0  0  0  0
    7.4757   -5.0862   -1.0472 C   0  0  0  0  0  0  0  0  0  0  0  0
    8.4855   -5.4286   -0.1576 C   0  0  0  0  0  0  0  0  0  0  0  0
    9.6108   -6.0915   -0.6845 C   0  0  0  0  0  0  0  0  0  0  0  0
    9.7075   -6.3924   -2.0464 C   0  0  0  0  0  0  0  0  0  0  0  0
    8.6764   -6.0401   -2.9357 C   0  0  0  0  0  0  0  0  0  0  0  0
    7.5528   -5.3825   -2.4314 C   0  0  0  0  0  0  0  0  0  0  0  0
    6.3274   -4.8769   -3.0219 C   0  0  0  0  0  0  0  0  0  0  0  0
    5.8009   -4.8577   -4.3105 C   0  0  0  0  0  0  0  0  0  0  0  0
    4.5484   -4.2660   -4.5037 C   0  0  0  0  0  0  0  0  0  0  0  0
    3.8078   -3.6836   -3.4078 C   0  0  0  0  0  0  0  0  0  0  0  0
    4.3017   -3.6884   -2.1268 C   0  0  0  0  0  0  0  0  0  0  0  0
    5.5726   -4.2911   -1.9284 C   0  0  0  0  0  0  0  0  0  0  0  0
    2.4743   -3.0985   -3.8609 C   0  0  2  0  0  0  0  0  0  0  0  0
    1.7350   -4.2510   -4.5381 C   0  0  0  0  0  0  0  0  0  0  0  0
    0.4792   -4.7492   -4.1961 C   0  0  0  0  0  0  0  0  0  0  0  0
   -0.0502   -5.8248   -4.9213 C   0  0  0  0  0  0  0  0  0  0  0  0
    0.6742   -6.3974   -5.9724 C   0  0  0  0  0  0  0  0  0  0  0  0
    1.9396   -5.9024   -6.3132 C   0  0  0  0  0  0  0  0  0  0  0  0
    2.4625   -4.8259   -5.5984 C   0  0  0  0  0  0  0  0  0  0  0  0
    3.8156   -4.1527   -5.8297 C   0  0  1  0  0  0  0  0  0  0  0  0
    3.5549   -2.6577   -6.0153 C   0  0  0  0  0  0  0  0  0  0  0  0
    3.9722   -1.8705   -7.0874 C   0  0  0  0  0  0  0  0  0  0  0  0
    3.6427   -0.5090   -7.1032 C   0  0  0  0  0  0  0  0  0  0  0  0
    2.9130    0.0548   -6.0510 C   0  0  0  0  0  0  0  0  0  0  0  0
    2.5024   -0.7338   -4.9681 C   0  0  0  0  0  0  0  0  0  0  0  0
    2.8236   -2.0898   -4.9538 C   0  0  0  0  0  0  0  0  0  0  0  0
    5.0639   -4.8136    1.3545 C   0  0  0  0  0  0  0  0  0  0  0  0
    4.6432   -4.3718    2.5968 C   0  0  0  0  0  0  0  0  0  0  0  0
    3.7742   -3.4411    5.1456 N   0  0  0  0  0  0  0  0  0  0  0  0
    2.2058   -5.1479    6.7725 C   0  0  0  0  0  0  0  0  0  0  0  0
    1.4363   -5.9741    7.5922 C   0  0  0  0  0  0  0  0  0  0  0  0
    0.4174   -6.1756    9.4949 H   0  0  0  0  0  0  0  0  0  0  0  0
    1.0605   -3.8904   10.2656 H   0  0  0  0  0  0  0  0  0  0  0  0
    2.4407   -2.4183    8.7834 H   0  0  0  0  0  0  0  0  0  0  0  0
    3.7721    0.1702    8.3176 H   0  0  0  0  0  0  0  0  0  0  0  0
    4.3679    2.4598    9.1398 H   0  0  0  0  0  0  0  0  0  0  0  0
    5.7477    3.9713    7.7117 H   0  0  0  0  0  0  0  0  0  0  0  0
    6.5229    3.1860    5.4715 H   0  0  0  0  0  0  0  0  0  0  0  0
    5.9119    0.8929    4.6767 H   0  0  0  0  0  0  0  0  0  0  0  0
    6.0137   -1.2350    2.5650 H   0  0  0  0  0  0  0  0  0  0  0  0
    6.7716   -2.0168    0.3321 H   0  0  0  0  0  0  0  0  0  0  0  0
    8.4021   -5.1901    0.9028 H   0  0  0  0  0  0  0  0  0  0  0  0
   10.4226   -6.3745   -0.0112 H   0  0  0  0  0  0  0  0  0  0  0  0
   10.5928   -6.9068   -2.4253 H   0  0  0  0  0  0  0  0  0  0  0  0
    8.7594   -6.2787   -3.9986 H   0  0  0  0  0  0  0  0  0  0  0  0
    6.3448   -5.2918   -5.1521 H   0  0  0  0  0  0  0  0  0  0  0  0
    3.7638   -3.2577   -1.2826 H   0  0  0  0  0  0  0  0  0  0  0  0
    1.9099   -2.6552   -3.0320 H   0  0  0  0  0  0  0  0  0  0  0  0
   -0.0864   -4.3072   -3.3719 H   0  0  0  0  0  0  0  0  0  0  0  0
   -1.0352   -6.2197   -4.6617 H   0  0  0  0  0  0  0  0  0  0  0  0
    0.2514   -7.2354   -6.5316 H   0  0  0  0  0  0  0  0  0  0  0  0
    2.5057   -6.3503   -7.1342 H   0  0  0  0  0  0  0  0  0  0  0  0
    4.3780   -4.5958   -6.6608 H   0  0  0  0  0  0  0  0  0  0  0  0
    4.5434   -2.3103   -7.9093 H   0  0  0  0  0  0  0  0  0  0  0  0
    3.9575    0.1151   -7.9428 H   0  0  0  0  0  0  0  0  0  0  0  0
    2.6627    1.1180   -6.0714 H   0  0  0  0  0  0  0  0  0  0  0  0
    1.9377   -0.2898   -4.1444 H   0  0  0  0  0  0  0  0  0  0  0  0
    4.8027   -5.8188    1.0124 H   0  0  0  0  0  0  0  0  0  0  0  0
    4.0494   -5.0199    3.2411 H   0  0  0  0  0  0  0  0  0  0  0  0
    2.5381   -5.4816    5.7888 H   0  0  0  0  0  0  0  0  0  0  0  0
    1.1586   -6.9745    7.2481 H   0  0  0  0  0  0  0  0  0  0  0  0
  1  2  2  0
  1 51  1  0
  1 52  1  0
  2  3  1  0
  2 53  1  0
  3  4  2  0
  3 54  1  0
  4  5  1  0
  4 50  1  0
  5  6  2  0
  5 49  1  0
  6  7  1  0
  7  8  1  0
  7 14  2  0
  8  9  2  0
  8 13  1  0
  9 10  1  0
  9 55  1  0
 10 11  2  0
 10 56  1  0
 11 12  1  0
 11 57  1  0
 12 13  2  0
 12 58  1  0
 13 59  1  0
 14 15  1  0
 15 16  1  0
 15 49  2  0
 16 17  2  0
 16 48  1  0
 17 18  1  0
 17 60  1  0
 18 19  2  0
 18 61  1  0
 19 20  1  0
 19 47  1  0
 20 21  1  0
 20 32  1  0
 21 22  2  0
 21 26  1  0
 22 23  1  0
 22 62  1  0
 23 24  2  0
 23 63  1  0
 24 25  1  0
 24 64  1  0
 25 26  2  0
 25 65  1  0
 26 27  1  0
 27 28  1  0
 27 32  2  0
 28 29  2  0
 28 66  1  0
 29 30  1  0
 29 40  1  0
 30 31  2  0
 30 33  1  0
 31 32  1  0
 31 67  1  0
 33 34  1  0
 33 46  1  0
 33 68  1  1
 34 35  1  0
 34 39  2  0
 35 36  2  0
 35 69  1  0
 36 37  1  0
 36 70  1  0
 37 38  2  0
 37 71  1  0
 38 39  1  0
 38 72  1  0
 39 40  1  0
 40 41  1  0
 40 73  1  6
 41 42  2  0
 41 46  1  0
 42 43  1  0
 42 74  1  0
 43 44  2  0
 43 75  1  0
 44 45  1  0
 44 76  1  0
 45 46  2  0
 45 77  1  0
 47 48  2  0
 47 78  1  0
 48 79  1  0
 50 51  2  0
 50 80  1  0
 51 81  1  0
M  END

