
     RDKit          3D

 32 32  0  0  0  0  0  0  0  0999 V2000
    5.2726   -1.8685    0.9059 C   0  0  0  0  0  0  0  0  0  0  0  0
    4.5568   -0.8085    0.0919 C   0  0  0  0  0  0  0  0  0  0  0  0
    5.0289    0.4704    0.4816 O   0  0  0  0  0  0  0  0  0  0  0  0
    4.4457    1.5526   -0.1967 C   0  0  0  0  0  0  0  0  0  0  0  0
    4.9018    2.8506    0.5005 C   0  0  1  0  0  0  0  0  0  0  0  0
    4.1442    4.0483   -0.0829 C   0  0  0  0  0  0  0  0  0  0  0  0
    4.5272    2.7423    1.8682 O   0  0  0  0  0  0  0  0  0  0  0  0
    6.4145    3.0524    0.4392 C   0  0  0  0  0  0  0  0  0  0  0  0
    6.9926    3.9446    1.3994 C   0  0  0  0  0  0  0  0  0  0  0  0
    8.3608    4.3122    1.2474 C   0  0  0  0  0  0  0  0  0  0  0  0
    9.1125    3.7449    0.2074 C   0  0  0  0  0  0  0  0  0  0  0  0
   10.3895    4.0965    0.0915 F   0  0  0  0  0  0  0  0  0  0  0  0
    8.5861    2.8125   -0.7406 C   0  0  0  0  0  0  0  0  0  0  0  0
    9.4351    2.2526   -1.8222 C   0  0  1  0  0  0  0  0  0  0  0  0
    9.9269    3.2002   -2.6596 F   0  0  0  0  0  0  0  0  0  0  0  0
   10.5222    1.5898   -1.3542 F   0  0  0  0  0  0  0  0  0  0  0  0
    8.7423    1.3802   -2.5843 F   0  0  0  0  0  0  0  0  0  0  0  0
    7.2173    2.4359   -0.5621 C   0  0  0  0  0  0  0  0  0  0  0  0
    4.9257   -2.8723    0.6158 H   0  0  0  0  0  0  0  0  0  0  0  0
    5.0784   -1.7324    1.9812 H   0  0  0  0  0  0  0  0  0  0  0  0
    6.3596   -1.8142    0.7423 H   0  0  0  0  0  0  0  0  0  0  0  0
    3.4594   -0.8652    0.2459 H   0  0  0  0  0  0  0  0  0  0  0  0
    4.7382   -0.9588   -0.9911 H   0  0  0  0  0  0  0  0  0  0  0  0
    3.3408    1.4968   -0.1460 H   0  0  0  0  0  0  0  0  0  0  0  0
    4.7348    1.5747   -1.2655 H   0  0  0  0  0  0  0  0  0  0  0  0
    3.0608    3.9083    0.0553 H   0  0  0  0  0  0  0  0  0  0  0  0
    4.3641    4.1625   -1.1543 H   0  0  0  0  0  0  0  0  0  0  0  0
    4.4464    4.9701    0.4325 H   0  0  0  0  0  0  0  0  0  0  0  0
    4.8921    1.8942    2.1743 H   0  0  0  0  0  0  0  0  0  0  0  0
    6.3726    4.3886    2.1749 H   0  0  0  0  0  0  0  0  0  0  0  0
    8.8413    5.0486    1.8925 H   0  0  0  0  0  0  0  0  0  0  0  0
    6.8092    1.6610   -1.2046 H   0  0  0  0  0  0  0  0  0  0  0  0
  1  2  1  0
  1 19  1  0
  1 20  1  0
  1 21  1  0
  2  3  1  0
  2 22  1  0
  2 23  1  0
  3  4  1  0
  4  5  1  0
  4 24  1  0
  4 25  1  0
  5  6  1  0
  5  7  1  1
  5  8  1  0
  6 26  1  0
  6 27  1  0
  6 28  1  0
  7 29  1  0
  8  9  2  0
  8 18  1  0
  9 10  1  0
  9 30  1  0
 10 11  2  0
 10 31  1  0
 11 12  1  0
 11 13  1  0
 13 14  1  0
 13 18  2  0
 14 15  1  6
 14 16  1  0
 14 17  1  0
 18 32  1  0
M  END

