
     RDKit          3D

 26 26  0  0  0  0  0  0  0  0999 V2000
    4.9541    1.6453   -1.8222 C   0  0  0  0  0  0  0  0  0  0  0  0
    5.3124    0.8969   -0.5504 C   0  0  0  0  0  0  0  0  0  0  0  0
    5.5963   -0.4944   -0.8144 O   0  0  0  0  0  0  0  0  0  0  0  0
    4.5574   -1.3510   -0.8319 C   0  0  0  0  0  0  0  0  0  0  0  0
    3.4111   -1.0254   -0.6541 O   0  0  0  0  0  0  0  0  0  0  0  0
    4.9750   -2.7858   -1.1444 C   0  0  1  0  0  0  0  0  0  0  0  0
    4.2985   -3.2560   -2.4443 C   0  0  0  0  0  0  0  0  0  0  0  0
    6.4168   -2.9470   -1.1637 N   0  0  0  0  0  0  0  0  0  0  0  0
    6.9994   -4.1384   -0.8599 C   0  0  0  0  0  0  0  0  0  0  0  0
    6.3883   -5.1523   -0.5792 O   0  0  0  0  0  0  0  0  0  0  0  0
    8.5002   -4.0988   -0.9047 C   0  0  0  0  0  0  0  0  0  0  0  0
    9.2966   -5.1700   -0.6505 N   0  0  0  0  0  0  0  0  0  0  0  0
   10.5212   -4.7597   -0.7819 N   0  0  0  0  0  0  0  0  0  0  0  0
   10.4419   -3.4748   -1.1060 N   0  0  0  0  0  0  0  0  0  0  0  0
   11.2675   -2.9039   -1.2699 H   0  0  0  0  0  0  0  0  0  0  0  0
    9.2120   -3.0116   -1.1963 N   0  0  0  0  0  0  0  0  0  0  0  0
    4.8142    2.7148   -1.5978 H   0  0  0  0  0  0  0  0  0  0  0  0
    4.0164    1.2617   -2.2505 H   0  0  0  0  0  0  0  0  0  0  0  0
    5.7536    1.5546   -2.5742 H   0  0  0  0  0  0  0  0  0  0  0  0
    4.4975    0.9540    0.1854 H   0  0  0  0  0  0  0  0  0  0  0  0
    6.2355    1.2876   -0.0990 H   0  0  0  0  0  0  0  0  0  0  0  0
    4.5805   -3.4063   -0.3226 H   0  0  0  0  0  0  0  0  0  0  0  0
    4.6721   -2.6852   -3.3091 H   0  0  0  0  0  0  0  0  0  0  0  0
    3.2101   -3.1197   -2.3712 H   0  0  0  0  0  0  0  0  0  0  0  0
    4.5161   -4.3218   -2.6005 H   0  0  0  0  0  0  0  0  0  0  0  0
    6.9967   -2.1347   -1.3454 H   0  0  0  0  0  0  0  0  0  0  0  0
  1  2  1  0
  1 17  1  0
  1 18  1  0
  1 19  1  0
  2  3  1  0
  2 20  1  0
  2 21  1  0
  3  4  1  0
  4  5  2  0
  4  6  1  0
  6  7  1  0
  6  8  1  0
  6 22  1  1
  7 23  1  0
  7 24  1  0
  7 25  1  0
  8  9  1  0
  8 26  1  0
  9 10  2  0
  9 11  1  0
 11 12  1  0
 11 16  2  0
 12 13  2  0
 13 14  1  0
 14 15  1  0
 14 16  1  0
M  END

