
     RDKit          3D

 41 41  0  0  0  0  0  0  0  0999 V2000
    1.7783   -0.9945    0.3774 C   0  0  0  0  0  0  0  0  0  0  0  0
    2.7848   -0.1187    0.5039 C   0  0  0  0  0  0  0  0  0  0  0  0
    3.1813    0.9920   -0.4466 C   0  0  1  0  0  0  0  0  0  0  0  0
    2.2629    1.0684   -1.6793 C   0  0  0  0  0  0  0  0  0  0  0  0
    3.1278    2.3339    0.3181 C   0  0  0  0  0  0  0  0  0  0  0  0
    1.8348    2.6331    0.8846 N   0  0  0  0  0  0  0  0  0  0  0  0
    1.2825    3.9604    1.1481 C   0  0  1  0  0  0  0  0  0  0  0  0
    2.3975    4.9455    1.5275 C   0  0  0  0  0  0  0  0  0  0  0  0
    0.5872    4.4047   -0.1698 C   0  0  0  0  0  0  0  0  0  0  0  0
    0.2492    3.8199    2.2779 C   0  0  0  0  0  0  0  0  0  0  0  0
    4.6937    0.7886   -0.9026 C   0  0  0  0  0  0  0  0  0  0  0  0
    5.4675    2.0059   -1.2813 C   0  0  0  0  0  0  0  0  0  0  0  0
    6.4147    2.6797   -0.4901 C   0  0  0  0  0  0  0  0  0  0  0  0
    6.8411    3.8798   -0.8755 N   0  0  0  0  0  0  0  0  0  0  0  0
    6.1761    4.3452   -1.9557 C   0  0  0  0  0  0  0  0  0  0  0  0
    6.7319    5.3904   -2.8673 C   0  0  0  0  0  0  0  0  0  0  0  0
    5.0725    3.0538   -2.6835 S   0  0  0  0  0  0  0  0  0  0  0  0
    1.6168   -1.7762    1.1251 H   0  0  0  0  0  0  0  0  0  0  0  0
    1.1042   -0.9971   -0.4838 H   0  0  0  0  0  0  0  0  0  0  0  0
    3.4303   -0.2061    1.3893 H   0  0  0  0  0  0  0  0  0  0  0  0
    1.1973    1.1975   -1.4203 H   0  0  0  0  0  0  0  0  0  0  0  0
    2.3402    0.1413   -2.2652 H   0  0  0  0  0  0  0  0  0  0  0  0
    2.5688    1.9003   -2.3282 H   0  0  0  0  0  0  0  0  0  0  0  0
    3.4483    3.1650   -0.3190 H   0  0  0  0  0  0  0  0  0  0  0  0
    3.8348    2.3348    1.1690 H   0  0  0  0  0  0  0  0  0  0  0  0
    1.2166    1.8319    1.0418 H   0  0  0  0  0  0  0  0  0  0  0  0
    3.1262    5.0908    0.7193 H   0  0  0  0  0  0  0  0  0  0  0  0
    2.9352    4.6105    2.4269 H   0  0  0  0  0  0  0  0  0  0  0  0
    1.9412    5.9202    1.7486 H   0  0  0  0  0  0  0  0  0  0  0  0
    1.3099    4.4844   -0.9929 H   0  0  0  0  0  0  0  0  0  0  0  0
    0.1384    5.3921    0.0044 H   0  0  0  0  0  0  0  0  0  0  0  0
   -0.2117    3.7065   -0.4612 H   0  0  0  0  0  0  0  0  0  0  0  0
    0.7256    3.4994    3.2168 H   0  0  0  0  0  0  0  0  0  0  0  0
   -0.5407    3.0970    2.0171 H   0  0  0  0  0  0  0  0  0  0  0  0
   -0.2325    4.7907    2.4562 H   0  0  0  0  0  0  0  0  0  0  0  0
    4.6557    0.0225   -1.7009 H   0  0  0  0  0  0  0  0  0  0  0  0
    5.2310    0.3128   -0.0626 H   0  0  0  0  0  0  0  0  0  0  0  0
    6.8173    2.2321    0.4290 H   0  0  0  0  0  0  0  0  0  0  0  0
    7.2813    6.1301   -2.2626 H   0  0  0  0  0  0  0  0  0  0  0  0
    5.9435    5.9238   -3.4280 H   0  0  0  0  0  0  0  0  0  0  0  0
    7.4482    4.9946   -3.6240 H   0  0  0  0  0  0  0  0  0  0  0  0
  1  2  2  0
  1 18  1  0
  1 19  1  0
  3  2  1  1
  2 20  1  0
  3  4  1  0
  3  5  1  0
  3 11  1  0
  4 21  1  0
  4 22  1  0
  4 23  1  0
  5  6  1  0
  5 24  1  0
  5 25  1  0
  7  6  1  6
  6 26  1  0
  7  8  1  0
  7  9  1  0
  7 10  1  0
  8 27  1  0
  8 28  1  0
  8 29  1  0
  9 30  1  0
  9 31  1  0
  9 32  1  0
 10 33  1  0
 10 34  1  0
 10 35  1  0
 11 12  1  0
 11 36  1  0
 11 37  1  0
 12 13  2  0
 12 17  1  0
 13 14  1  0
 13 38  1  0
 14 15  2  0
 15 16  1  0
 15 17  1  0
 16 39  1  0
 16 40  1  0
 16 41  1  0
M  END

