
     RDKit          3D

 66 68  0  0  0  0  0  0  0  0999 V2000
    5.7183   -0.9627   -3.9847 C   0  0  0  0  0  0  0  0  0  0  0  0
    3.9608   -1.1102   -3.5274 S   0  0  0  0  0  0  0  0  0  0  0  0
    4.1720   -1.5157   -1.7657 C   0  0  2  0  0  0  0  0  0  0  0  0
    4.8052   -0.7413   -1.2990 H   0  0  0  0  0  0  0  0  0  0  0  0
    4.7944   -2.7819   -1.6402 O   0  0  0  0  0  0  0  0  0  0  0  0
    5.0965   -3.1336   -0.2979 C   0  0  2  0  0  0  0  0  0  0  0  0
    5.7397   -2.3592    0.1641 H   0  0  0  0  0  0  0  0  0  0  0  0
    5.8797   -4.4437   -0.3957 C   0  0  0  0  0  0  0  0  0  0  0  0
    6.0810   -5.0523    0.8809 O   0  0  0  0  0  0  0  0  0  0  0  0
    7.1059   -4.5978    1.6413 C   0  0  0  0  0  0  0  0  0  0  0  0
    7.2046   -5.3794    2.9262 C   0  0  0  0  0  0  0  0  0  0  0  0
    7.8257   -3.6912    1.3053 O   0  0  0  0  0  0  0  0  0  0  0  0
    3.8231   -3.2348    0.5452 C   0  0  2  0  0  0  0  0  0  0  0  0
    4.0822   -3.4080    1.5988 H   0  0  0  0  0  0  0  0  0  0  0  0
    3.0422   -4.3430    0.0836 O   0  0  0  0  0  0  0  0  0  0  0  0
    2.4044   -5.0981    1.0113 C   0  0  0  0  0  0  0  0  0  0  0  0
    1.5075   -6.1113    0.3498 C   0  0  0  0  0  0  0  0  0  0  0  0
    2.5436   -4.9590    2.2011 O   0  0  0  0  0  0  0  0  0  0  0  0
    2.9873   -1.9410    0.4223 C   0  0  2  0  0  0  0  0  0  0  0  0
    3.5491   -1.1300    0.9184 H   0  0  0  0  0  0  0  0  0  0  0  0
    1.7090   -2.0761    0.9896 O   0  0  0  0  0  0  0  0  0  0  0  0
    1.5945   -1.8154    2.3780 C   0  0  0  0  0  0  0  0  0  0  0  0
    0.1387   -1.6348    2.7422 C   0  0  0  0  0  0  0  0  0  0  0  0
   -0.7914   -1.1676    1.8031 C   0  0  0  0  0  0  0  0  0  0  0  0
   -2.1271   -0.9700    2.1576 C   0  0  0  0  0  0  0  0  0  0  0  0
   -2.5473   -1.2280    3.4662 C   0  0  0  0  0  0  0  0  0  0  0  0
   -3.8552   -0.9432    3.7832 O   0  0  0  0  0  0  0  0  0  0  0  0
   -4.6342   -1.8130    4.5052 C   0  0  0  0  0  0  0  0  0  0  0  0
   -5.6550   -1.2466    5.2795 C   0  0  0  0  0  0  0  0  0  0  0  0
   -6.5270   -2.0744    5.9885 C   0  0  0  0  0  0  0  0  0  0  0  0
   -6.3851   -3.4653    5.9365 C   0  0  0  0  0  0  0  0  0  0  0  0
   -5.3641   -4.0216    5.1601 C   0  0  0  0  0  0  0  0  0  0  0  0
   -4.4874   -3.2053    4.4395 C   0  0  0  0  0  0  0  0  0  0  0  0
   -1.6303   -1.6898    4.4188 C   0  0  0  0  0  0  0  0  0  0  0  0
   -0.3012   -1.8991    4.0472 C   0  0  0  0  0  0  0  0  0  0  0  0
    2.8015   -1.5751   -1.0597 C   0  0  1  0  0  0  0  0  0  0  0  0
    2.2169   -2.3763   -1.5331 H   0  0  0  0  0  0  0  0  0  0  0  0
    2.0004   -0.4033   -1.2498 O   0  0  0  0  0  0  0  0  0  0  0  0
    2.4204    0.8051   -0.8179 C   0  0  0  0  0  0  0  0  0  0  0  0
    1.4166    1.8723   -1.1713 C   0  0  0  0  0  0  0  0  0  0  0  0
    3.4583    0.9897   -0.2284 O   0  0  0  0  0  0  0  0  0  0  0  0
    5.7484   -0.7691   -5.0662 H   0  0  0  0  0  0  0  0  0  0  0  0
    6.2473   -1.9007   -3.7684 H   0  0  0  0  0  0  0  0  0  0  0  0
    6.2000   -0.1259   -3.4563 H   0  0  0  0  0  0  0  0  0  0  0  0
    6.8446   -4.2505   -0.8846 H   0  0  0  0  0  0  0  0  0  0  0  0
    5.2965   -5.1615   -0.9854 H   0  0  0  0  0  0  0  0  0  0  0  0
    6.2337   -5.3778    3.4442 H   0  0  0  0  0  0  0  0  0  0  0  0
    7.9824   -4.9441    3.5645 H   0  0  0  0  0  0  0  0  0  0  0  0
    7.4493   -6.4295    2.7016 H   0  0  0  0  0  0  0  0  0  0  0  0
    0.6245   -5.5897   -0.0534 H   0  0  0  0  0  0  0  0  0  0  0  0
    1.1834   -6.8550    1.0875 H   0  0  0  0  0  0  0  0  0  0  0  0
    2.0192   -6.5953   -0.4942 H   0  0  0  0  0  0  0  0  0  0  0  0
    2.1619   -0.8940    2.6257 H   0  0  0  0  0  0  0  0  0  0  0  0
    2.0281   -2.6431    2.9678 H   0  0  0  0  0  0  0  0  0  0  0  0
   -0.4597   -0.9787    0.7806 H   0  0  0  0  0  0  0  0  0  0  0  0
   -2.8604   -0.6125    1.4318 H   0  0  0  0  0  0  0  0  0  0  0  0
   -5.7485   -0.1592    5.3074 H   0  0  0  0  0  0  0  0  0  0  0  0
   -7.3221   -1.6267    6.5905 H   0  0  0  0  0  0  0  0  0  0  0  0
   -7.0665   -4.1109    6.4953 H   0  0  0  0  0  0  0  0  0  0  0  0
   -5.2479   -5.1073    5.1055 H   0  0  0  0  0  0  0  0  0  0  0  0
   -3.6987   -3.6446    3.8266 H   0  0  0  0  0  0  0  0  0  0  0  0
   -1.9589   -1.8892    5.4406 H   0  0  0  0  0  0  0  0  0  0  0  0
    0.4069   -2.2730    4.7926 H   0  0  0  0  0  0  0  0  0  0  0  0
    1.2431    1.8714   -2.2580 H   0  0  0  0  0  0  0  0  0  0  0  0
    1.7907    2.8501   -0.8459 H   0  0  0  0  0  0  0  0  0  0  0  0
    0.4531    1.6571   -0.6842 H   0  0  0  0  0  0  0  0  0  0  0  0
  1  2  1  0
  1 42  1  0
  1 43  1  0
  1 44  1  0
  2  3  1  0
  3  4  1  1
  3  5  1  0
  3 36  1  0
  5  6  1  0
  6  7  1  1
  6  8  1  0
  6 13  1  0
  8  9  1  0
  8 45  1  0
  8 46  1  0
  9 10  1  0
 10 11  1  0
 10 12  2  0
 11 47  1  0
 11 48  1  0
 11 49  1  0
 13 14  1  1
 13 15  1  0
 13 19  1  0
 15 16  1  0
 16 17  1  0
 16 18  2  0
 17 50  1  0
 17 51  1  0
 17 52  1  0
 19 20  1  1
 19 21  1  0
 19 36  1  0
 21 22  1  0
 22 23  1  0
 22 53  1  0
 22 54  1  0
 23 24  2  0
 23 35  1  0
 24 25  1  0
 24 55  1  0
 25 26  2  0
 25 56  1  0
 26 27  1  0
 26 34  1  0
 27 28  1  0
 28 29  2  0
 28 33  1  0
 29 30  1  0
 29 57  1  0
 30 31  2  0
 30 58  1  0
 31 32  1  0
 31 59  1  0
 32 33  2  0
 32 60  1  0
 33 61  1  0
 34 35  2  0
 34 62  1  0
 35 63  1  0
 36 37  1  6
 36 38  1  0
 38 39  1  0
 39 40  1  0
 39 41  2  0
 40 64  1  0
 40 65  1  0
 40 66  1  0
M  END

