
     RDKit          3D

 50 51  0  0  0  0  0  0  0  0999 V2000
    6.4035   -1.9238   -2.7478 C   0  0  0  0  0  0  0  0  0  0  0  0
    6.8386   -1.7594   -1.4305 O   0  0  0  0  0  0  0  0  0  0  0  0
    7.2466   -0.4430   -1.1239 C   0  0  0  0  0  0  0  0  0  0  0  0
    7.6253   -0.3532    0.3591 C   0  0  1  0  0  0  0  0  0  0  0  0
    8.7537   -1.3165    0.7225 C   0  0  0  0  0  0  0  0  0  0  0  0
    7.9967    1.0066    0.6959 N   0  0  0  0  0  0  0  0  0  0  0  0
    7.0530    1.9525    0.9841 C   0  0  0  0  0  0  0  0  0  0  0  0
    5.8391    1.7686    0.8806 O   0  0  0  0  0  0  0  0  0  0  0  0
    7.5546    3.1803    1.3961 N   0  0  0  0  0  0  0  0  0  0  0  0
    8.8945    3.4948    1.8695 C   0  0  0  0  0  0  0  0  0  0  0  0
    9.8636    2.6671    1.6528 O   0  0  0  0  0  0  0  0  0  0  0  0
    9.1877    4.9665    1.6036 C   0  0  0  0  0  0  0  0  0  0  0  0
   10.1995    5.5583    2.5323 N   0  0  0  0  0  0  0  0  0  0  0  0
    9.7302    5.7566    3.8991 C   0  0  0  0  0  0  0  0  0  0  0  0
    9.7338    7.2063    4.3591 C   0  0  0  0  0  0  0  0  0  0  0  0
   11.1356    7.7369    4.6005 C   0  0  0  0  0  0  0  0  0  0  0  0
   11.9896    7.8438    3.4088 N   0  0  0  0  0  0  0  0  0  0  0  0
   12.7411    9.0926    3.3294 C   0  0  0  0  0  0  0  0  0  0  0  0
   12.3895    6.7724    2.6360 C   0  0  0  0  0  0  0  0  0  0  0  0
   13.7174    6.7873    2.1212 C   0  0  0  0  0  0  0  0  0  0  0  0
   14.1729    5.8619    1.2071 C   0  0  0  0  0  0  0  0  0  0  0  0
   13.3057    4.8440    0.7418 C   0  0  0  0  0  0  0  0  0  0  0  0
   12.0170    4.7694    1.2065 C   0  0  0  0  0  0  0  0  0  0  0  0
   11.4991    5.6950    2.1724 C   0  0  0  0  0  0  0  0  0  0  0  0
    6.0965   -2.9731   -2.8791 H   0  0  0  0  0  0  0  0  0  0  0  0
    7.2030   -1.6989   -3.4857 H   0  0  0  0  0  0  0  0  0  0  0  0
    5.5372   -1.2723   -2.9872 H   0  0  0  0  0  0  0  0  0  0  0  0
    6.4278    0.2757   -1.3186 H   0  0  0  0  0  0  0  0  0  0  0  0
    8.1175   -0.1460   -1.7488 H   0  0  0  0  0  0  0  0  0  0  0  0
    6.7175   -0.6230    0.9263 H   0  0  0  0  0  0  0  0  0  0  0  0
    9.6820   -1.0544    0.1856 H   0  0  0  0  0  0  0  0  0  0  0  0
    8.4786   -2.3436    0.4450 H   0  0  0  0  0  0  0  0  0  0  0  0
    8.9647   -1.2810    1.8028 H   0  0  0  0  0  0  0  0  0  0  0  0
    8.9567    1.2680    0.9617 H   0  0  0  0  0  0  0  0  0  0  0  0
    6.7992    3.7706    1.7245 H   0  0  0  0  0  0  0  0  0  0  0  0
    8.2855    5.5881    1.7319 H   0  0  0  0  0  0  0  0  0  0  0  0
    9.5364    5.1592    0.5741 H   0  0  0  0  0  0  0  0  0  0  0  0
   10.3460    5.1443    4.5802 H   0  0  0  0  0  0  0  0  0  0  0  0
    8.7216    5.3323    3.9445 H   0  0  0  0  0  0  0  0  0  0  0  0
    9.1888    7.2689    5.3150 H   0  0  0  0  0  0  0  0  0  0  0  0
    9.1978    7.8431    3.6365 H   0  0  0  0  0  0  0  0  0  0  0  0
   11.6481    7.1039    5.3494 H   0  0  0  0  0  0  0  0  0  0  0  0
   11.0744    8.7436    5.0335 H   0  0  0  0  0  0  0  0  0  0  0  0
   13.6190    9.1063    4.0024 H   0  0  0  0  0  0  0  0  0  0  0  0
   12.0800    9.9204    3.6209 H   0  0  0  0  0  0  0  0  0  0  0  0
   13.0822    9.2726    2.3027 H   0  0  0  0  0  0  0  0  0  0  0  0
   14.4109    7.5421    2.4870 H   0  0  0  0  0  0  0  0  0  0  0  0
   15.2106    5.9015    0.8695 H   0  0  0  0  0  0  0  0  0  0  0  0
   13.6731    4.0853    0.0482 H   0  0  0  0  0  0  0  0  0  0  0  0
   11.3706    3.9263    0.9557 H   0  0  0  0  0  0  0  0  0  0  0  0
  1  2  1  0
  1 25  1  0
  1 26  1  0
  1 27  1  0
  2  3  1  0
  3  4  1  0
  3 28  1  0
  3 29  1  0
  4  5  1  0
  4  6  1  0
  4 30  1  6
  5 31  1  0
  5 32  1  0
  5 33  1  0
  6  7  1  0
  6 34  1  0
  7  8  2  0
  7  9  1  0
  9 10  1  0
  9 35  1  0
 10 11  2  0
 10 12  1  0
 12 13  1  0
 12 36  1  0
 12 37  1  0
 13 14  1  0
 13 24  1  0
 14 15  1  0
 14 38  1  0
 14 39  1  0
 15 16  1  0
 15 40  1  0
 15 41  1  0
 16 17  1  0
 16 42  1  0
 16 43  1  0
 17 18  1  0
 17 19  1  0
 18 44  1  0
 18 45  1  0
 18 46  1  0
 19 20  2  0
 19 24  1  0
 20 21  1  0
 20 47  1  0
 21 22  2  0
 21 48  1  0
 22 23  1  0
 22 49  1  0
 23 24  2  0
 23 50  1  0
M  END

