
     RDKit          3D

 32 33  0  0  0  0  0  0  0  0999 V2000
    4.8567    2.8059    4.1993 N   0  0  0  0  0  0  0  0  0  0  0  0
    5.1553    2.2246    3.2235 C   0  0  0  0  0  0  0  0  0  0  0  0
    5.4964    1.5866    2.0200 C   0  0  0  0  0  0  0  0  0  0  0  0
    5.3743    2.2672    0.7529 C   0  0  0  0  0  0  0  0  0  0  0  0
    5.7214    1.6134   -0.4350 C   0  0  0  0  0  0  0  0  0  0  0  0
    5.6121    2.2645   -1.6683 N   0  0  0  0  0  0  0  0  0  0  0  0
    5.1681    3.5956   -1.9068 C   0  0  0  0  0  0  0  0  0  0  0  0
    6.2670    4.7152   -1.8565 C   0  0  0  0  0  0  0  0  0  0  0  0
    6.0698    5.7390   -2.4747 O   0  0  0  0  0  0  0  0  0  0  0  0
    7.3564    4.4240   -1.0932 N   0  0  0  0  0  0  0  0  0  0  0  0
    8.4682    5.2432   -0.8217 C   0  0  0  0  0  0  0  0  0  0  0  0
    8.5974    6.5499   -1.3211 C   0  0  0  0  0  0  0  0  0  0  0  0
    9.7347    7.2991   -1.0221 C   0  0  0  0  0  0  0  0  0  0  0  0
   10.7537    6.7772   -0.2270 C   0  0  0  0  0  0  0  0  0  0  0  0
   10.6344    5.4794    0.2808 C   0  0  0  0  0  0  0  0  0  0  0  0
   11.9082    4.8363    1.2723 Cl  0  0  0  0  0  0  0  0  0  0  0  0
    9.4993    4.7089   -0.0099 C   0  0  0  0  0  0  0  0  0  0  0  0
    9.3461    3.0884    0.6166 Cl  0  0  0  0  0  0  0  0  0  0  0  0
    6.2115    0.2846   -0.4664 C   0  0  0  0  0  0  0  0  0  0  0  0
    6.3286   -0.3995    0.7674 C   0  0  0  0  0  0  0  0  0  0  0  0
    5.9858    0.2289    1.9584 C   0  0  0  0  0  0  0  0  0  0  0  0
    6.1455   -0.6443    3.4450 Cl  0  0  0  0  0  0  0  0  0  0  0  0
    5.0019    3.2904    0.7560 H   0  0  0  0  0  0  0  0  0  0  0  0
    5.9366    1.7356   -2.4725 H   0  0  0  0  0  0  0  0  0  0  0  0
    4.3882    3.8816   -1.1846 H   0  0  0  0  0  0  0  0  0  0  0  0
    4.7378    3.6745   -2.9143 H   0  0  0  0  0  0  0  0  0  0  0  0
    7.3544    3.5333   -0.5970 H   0  0  0  0  0  0  0  0  0  0  0  0
    7.8000    6.9612   -1.9350 H   0  0  0  0  0  0  0  0  0  0  0  0
    9.8238    8.3144   -1.4146 H   0  0  0  0  0  0  0  0  0  0  0  0
   11.6434    7.3605    0.0130 H   0  0  0  0  0  0  0  0  0  0  0  0
    6.4727   -0.1986   -1.4090 H   0  0  0  0  0  0  0  0  0  0  0  0
    6.6887   -1.4283    0.7996 H   0  0  0  0  0  0  0  0  0  0  0  0
  1  2  3  0
  2  3  1  0
  3  4  2  0
  3 21  1  0
  4  5  1  0
  4 23  1  0
  5  6  1  0
  5 19  2  0
  6  7  1  0
  6 24  1  0
  7  8  1  0
  7 25  1  0
  7 26  1  0
  8  9  2  0
  8 10  1  0
 10 11  1  0
 10 27  1  0
 11 12  2  0
 11 17  1  0
 12 13  1  0
 12 28  1  0
 13 14  2  0
 13 29  1  0
 14 15  1  0
 14 30  1  0
 15 16  1  0
 15 17  2  0
 17 18  1  0
 19 20  1  0
 19 31  1  0
 20 21  2  0
 20 32  1  0
 21 22  1  0
M  END

