
     RDKit          3D

 42 42  0  0  0  0  0  0  0  0999 V2000
    0.9355   -0.2513   -0.1303 C   0  0  0  0  0  0  0  0  0  0  0  0
    2.4038   -0.4970    0.1841 C   0  0  0  0  0  0  0  0  0  0  0  0
    3.2512   -0.3792   -0.9842 N   0  0  0  0  0  0  0  0  0  0  0  0
    4.6259   -0.7892   -1.1004 C   0  0  1  0  0  0  0  0  0  0  0  0
    5.1986   -1.4268    0.1603 C   0  0  0  0  0  0  0  0  0  0  0  0
    6.7369   -1.6010    0.1790 C   0  0  0  0  0  0  0  0  0  0  0  0
    7.3011   -1.8933    1.5438 C   0  0  0  0  0  0  0  0  0  0  0  0
    7.1470   -3.1626    2.1951 C   0  0  0  0  0  0  0  0  0  0  0  0
    7.0006   -3.1011    3.5807 C   0  0  0  0  0  0  0  0  0  0  0  0
    6.9214   -1.7999    4.1062 C   0  0  0  0  0  0  0  0  0  0  0  0
    7.0987   -0.5985    2.8023 S   0  0  0  0  0  0  0  0  0  0  0  0
    4.8698   -1.6338   -2.4370 C   0  0  1  0  0  0  0  0  0  0  0  0
    4.4305   -2.9520   -2.2758 O   0  0  0  0  0  0  0  0  0  0  0  0
    3.0604   -3.2380   -2.3712 C   0  0  0  0  0  0  0  0  0  0  0  0
    4.4145   -0.9617   -3.7545 C   0  0  1  0  0  0  0  0  0  0  0  0
    4.9563    0.4682   -3.9026 C   0  0  0  0  0  0  0  0  0  0  0  0
    4.8653   -1.8234   -4.9449 C   0  0  0  0  0  0  0  0  0  0  0  0
    0.3498   -0.3090    0.7972 H   0  0  0  0  0  0  0  0  0  0  0  0
    0.5376   -1.0065   -0.8258 H   0  0  0  0  0  0  0  0  0  0  0  0
    0.7706    0.7482   -0.5642 H   0  0  0  0  0  0  0  0  0  0  0  0
    2.5808   -1.4802    0.6393 H   0  0  0  0  0  0  0  0  0  0  0  0
    2.7826    0.2336    0.9229 H   0  0  0  0  0  0  0  0  0  0  0  0
    2.8753    0.1746   -1.7539 H   0  0  0  0  0  0  0  0  0  0  0  0
    5.1750    0.1445   -1.3261 H   0  0  0  0  0  0  0  0  0  0  0  0
    4.7235   -2.4017    0.3505 H   0  0  0  0  0  0  0  0  0  0  0  0
    4.9585   -0.7791    1.0195 H   0  0  0  0  0  0  0  0  0  0  0  0
    7.1962   -0.6857   -0.2510 H   0  0  0  0  0  0  0  0  0  0  0  0
    7.0224   -2.4266   -0.4983 H   0  0  0  0  0  0  0  0  0  0  0  0
    7.1817   -4.1033    1.6367 H   0  0  0  0  0  0  0  0  0  0  0  0
    6.9736   -3.9869    4.2224 H   0  0  0  0  0  0  0  0  0  0  0  0
    6.9680   -1.4839    5.1457 H   0  0  0  0  0  0  0  0  0  0  0  0
    5.9651   -1.7122   -2.4589 H   0  0  0  0  0  0  0  0  0  0  0  0
    2.9280   -4.2845   -2.0670 H   0  0  0  0  0  0  0  0  0  0  0  0
    2.6643   -3.1116   -3.3942 H   0  0  0  0  0  0  0  0  0  0  0  0
    2.4531   -2.6067   -1.6914 H   0  0  0  0  0  0  0  0  0  0  0  0
    3.3089   -0.9143   -3.7764 H   0  0  0  0  0  0  0  0  0  0  0  0
    6.0529    0.4905   -3.7903 H   0  0  0  0  0  0  0  0  0  0  0  0
    4.5354    1.1814   -3.1752 H   0  0  0  0  0  0  0  0  0  0  0  0
    4.7209    0.8612   -4.9030 H   0  0  0  0  0  0  0  0  0  0  0  0
    5.9654   -1.8531   -5.0044 H   0  0  0  0  0  0  0  0  0  0  0  0
    4.4879   -1.4066   -5.8910 H   0  0  0  0  0  0  0  0  0  0  0  0
    4.5145   -2.8614   -4.8607 H   0  0  0  0  0  0  0  0  0  0  0  0
  1  2  1  0
  1 18  1  0
  1 19  1  0
  1 20  1  0
  2  3  1  0
  2 21  1  0
  2 22  1  0
  3  4  1  0
  3 23  1  0
  4  5  1  0
  4 12  1  0
  4 24  1  1
  5  6  1  0
  5 25  1  0
  5 26  1  0
  6  7  1  0
  6 27  1  0
  6 28  1  0
  7  8  2  0
  7 11  1  0
  8  9  1  0
  8 29  1  0
  9 10  2  0
  9 30  1  0
 10 11  1  0
 10 31  1  0
 12 13  1  0
 12 15  1  0
 12 32  1  6
 13 14  1  0
 14 33  1  0
 14 34  1  0
 14 35  1  0
 15 16  1  0
 15 17  1  0
 15 36  1  1
 16 37  1  0
 16 38  1  0
 16 39  1  0
 17 40  1  0
 17 41  1  0
 17 42  1  0
M  END

