
     RDKit          3D

 48 49  0  0  0  0  0  0  0  0999 V2000
    0.5467   -0.3189   -0.5070 C   0  0  0  0  0  0  0  0  0  0  0  0
    2.0744   -0.3589   -0.4485 C   0  0  0  0  0  0  0  0  0  0  0  0
    2.7386    0.8593   -1.0963 C   0  0  0  0  0  0  0  0  0  0  0  0
    4.2655    0.8279   -1.0372 C   0  0  0  0  0  0  0  0  0  0  0  0
    4.8368    1.9899   -1.7110 N   0  0  0  0  0  0  0  0  0  0  0  0
    6.2807    2.2185   -1.5799 C   0  0  1  0  0  0  0  0  0  0  0  0
    7.1269    1.0024   -2.0406 C   0  0  1  0  0  0  0  0  0  0  0  0
    6.8826    0.5607   -3.4901 C   0  0  0  0  0  0  0  0  0  0  0  0
    8.6216    1.2234   -1.7709 C   0  0  0  0  0  0  0  0  0  0  0  0
    6.5578    3.5389   -2.3862 C   0  0  1  0  0  0  0  0  0  0  0  0
    5.9089    3.4884   -3.6307 O   0  0  0  0  0  0  0  0  0  0  0  0
    6.2176    4.7729   -1.5854 C   0  0  0  0  0  0  0  0  0  0  0  0
    5.0980    5.5719   -1.9315 C   0  0  0  0  0  0  0  0  0  0  0  0
    4.7438    6.7057   -1.1556 C   0  0  0  0  0  0  0  0  0  0  0  0
    5.5637    6.9942   -0.0343 C   0  0  0  0  0  0  0  0  0  0  0  0
    6.7152    6.1993    0.3386 C   0  0  0  0  0  0  0  0  0  0  0  0
    7.0689    5.0974   -0.4608 C   0  0  0  0  0  0  0  0  0  0  0  0
    7.3084    6.7147    1.4631 N   0  0  0  0  0  0  0  0  0  0  0  0
    6.6080    7.7759    1.7957 C   0  0  0  0  0  0  0  0  0  0  0  0
    5.5137    7.9882    0.8910 N   0  0  0  0  0  0  0  0  0  0  0  0
    4.5517    9.0579    0.9511 C   0  0  0  0  0  0  0  0  0  0  0  0
    0.1010   -1.2101   -0.0373 H   0  0  0  0  0  0  0  0  0  0  0  0
    0.1869   -0.2758   -1.5485 H   0  0  0  0  0  0  0  0  0  0  0  0
    0.1484    0.5669    0.0156 H   0  0  0  0  0  0  0  0  0  0  0  0
    2.4379   -1.2771   -0.9446 H   0  0  0  0  0  0  0  0  0  0  0  0
    2.4011   -0.4371    0.6043 H   0  0  0  0  0  0  0  0  0  0  0  0
    2.3748    1.7794   -0.6003 H   0  0  0  0  0  0  0  0  0  0  0  0
    2.4291    0.9398   -2.1534 H   0  0  0  0  0  0  0  0  0  0  0  0
    4.6223   -0.0918   -1.5296 H   0  0  0  0  0  0  0  0  0  0  0  0
    4.5929    0.7588    0.0242 H   0  0  0  0  0  0  0  0  0  0  0  0
    4.3596    2.8290   -1.3725 H   0  0  0  0  0  0  0  0  0  0  0  0
    6.5643    2.4103   -0.5247 H   0  0  0  0  0  0  0  0  0  0  0  0
    6.8190    0.1690   -1.3839 H   0  0  0  0  0  0  0  0  0  0  0  0
    7.1911    1.3367   -4.2065 H   0  0  0  0  0  0  0  0  0  0  0  0
    5.8191    0.3458   -3.6766 H   0  0  0  0  0  0  0  0  0  0  0  0
    7.4529   -0.3565   -3.7105 H   0  0  0  0  0  0  0  0  0  0  0  0
    9.0545    1.9839   -2.4416 H   0  0  0  0  0  0  0  0  0  0  0  0
    9.1846    0.2913   -1.9365 H   0  0  0  0  0  0  0  0  0  0  0  0
    8.8073    1.5443   -0.7327 H   0  0  0  0  0  0  0  0  0  0  0  0
    7.6516    3.5897   -2.5663 H   0  0  0  0  0  0  0  0  0  0  0  0
    5.1829    2.8462   -3.5042 H   0  0  0  0  0  0  0  0  0  0  0  0
    4.5318    5.3075   -2.8237 H   0  0  0  0  0  0  0  0  0  0  0  0
    3.8745    7.3159   -1.4054 H   0  0  0  0  0  0  0  0  0  0  0  0
    7.9600    4.5083   -0.2396 H   0  0  0  0  0  0  0  0  0  0  0  0
    6.7761    8.4468    2.6363 H   0  0  0  0  0  0  0  0  0  0  0  0
    4.7810    9.7070    1.8071 H   0  0  0  0  0  0  0  0  0  0  0  0
    3.5267    8.6651    1.0723 H   0  0  0  0  0  0  0  0  0  0  0  0
    4.5785    9.6675    0.0308 H   0  0  0  0  0  0  0  0  0  0  0  0
  1  2  1  0
  1 22  1  0
  1 23  1  0
  1 24  1  0
  2  3  1  0
  2 25  1  0
  2 26  1  0
  3  4  1  0
  3 27  1  0
  3 28  1  0
  4  5  1  0
  4 29  1  0
  4 30  1  0
  5  6  1  0
  5 31  1  0
  6  7  1  0
  6 10  1  0
  6 32  1  1
  7  8  1  0
  7  9  1  0
  7 33  1  1
  8 34  1  0
  8 35  1  0
  8 36  1  0
  9 37  1  0
  9 38  1  0
  9 39  1  0
 10 11  1  0
 10 12  1  0
 10 40  1  6
 11 41  1  0
 12 13  2  0
 12 17  1  0
 13 14  1  0
 13 42  1  0
 14 15  2  0
 14 43  1  0
 15 16  1  0
 15 20  1  0
 16 17  2  0
 16 18  1  0
 17 44  1  0
 18 19  2  0
 19 20  1  0
 19 45  1  0
 20 21  1  0
 21 46  1  0
 21 47  1  0
 21 48  1  0
M  END

