
     RDKit          3D

 53 54  0  0  0  0  0  0  0  0999 V2000
    1.1830   -0.5973   -0.2620 C   0  0  0  0  0  0  0  0  0  0  0  0
    2.6714   -0.5363   -0.6386 C   0  0  1  0  0  0  0  0  0  0  0  0
    3.0387   -1.4425   -1.7312 N   0  0  0  0  0  0  0  0  0  0  0  0
    3.1036    0.8968   -0.9849 C   0  0  0  0  0  0  0  0  0  0  0  0
    4.6128    1.0668   -1.1817 C   0  0  0  0  0  0  0  0  0  0  0  0
    4.9994    2.4879   -1.6021 C   0  0  0  0  0  0  0  0  0  0  0  0
    6.5135    2.7451   -1.6742 C   0  0  1  0  0  0  0  0  0  0  0  0
    7.3072    1.8111   -2.5777 C   0  0  0  0  0  0  0  0  0  0  0  0
    6.6803    4.2584   -1.9900 C   0  0  0  0  0  0  0  0  0  0  0  0
    8.0220    4.7951   -1.8030 N   0  0  0  0  0  0  0  0  0  0  0  0
    8.4779    5.0015   -0.4334 C   0  0  0  0  0  0  0  0  0  0  0  0
    9.8921    4.4883   -0.1919 C   0  0  0  0  0  0  0  0  0  0  0  0
   10.8859    4.8311   -1.2878 C   0  0  0  0  0  0  0  0  0  0  0  0
   10.3200    4.5316   -2.6768 C   0  0  2  0  0  0  0  0  0  0  0  0
   11.2848    4.9468   -3.7934 C   0  0  0  0  0  0  0  0  0  0  0  0
   10.7241    4.7043   -5.1953 C   0  0  0  0  0  0  0  0  0  0  0  0
    9.3779    5.4101   -5.3670 C   0  0  0  0  0  0  0  0  0  0  0  0
    8.3718    4.9640   -4.2997 C   0  0  0  0  0  0  0  0  0  0  0  0
    8.9258    5.1955   -2.8872 C   0  0  1  0  0  0  0  0  0  0  0  0
    0.8812   -1.6275   -0.0092 H   0  0  0  0  0  0  0  0  0  0  0  0
    0.5532   -0.2606   -1.1046 H   0  0  0  0  0  0  0  0  0  0  0  0
    0.9513    0.0435    0.6054 H   0  0  0  0  0  0  0  0  0  0  0  0
    3.2587   -0.8559    0.2426 H   0  0  0  0  0  0  0  0  0  0  0  0
    2.4651   -1.2413   -2.5536 H   0  0  0  0  0  0  0  0  0  0  0  0
    2.8352   -2.4094   -1.4753 H   0  0  0  0  0  0  0  0  0  0  0  0
    2.7553    1.5778   -0.1877 H   0  0  0  0  0  0  0  0  0  0  0  0
    2.5687    1.2106   -1.9033 H   0  0  0  0  0  0  0  0  0  0  0  0
    4.9522    0.3206   -1.9151 H   0  0  0  0  0  0  0  0  0  0  0  0
    5.1329    0.8324   -0.2324 H   0  0  0  0  0  0  0  0  0  0  0  0
    4.5952    3.1834   -0.8292 H   0  0  0  0  0  0  0  0  0  0  0  0
    4.5039    2.7512   -2.5561 H   0  0  0  0  0  0  0  0  0  0  0  0
    6.8972    2.6124   -0.6228 H   0  0  0  0  0  0  0  0  0  0  0  0
    7.1612    2.0046   -3.6531 H   0  0  0  0  0  0  0  0  0  0  0  0
    7.0065    0.7673   -2.3935 H   0  0  0  0  0  0  0  0  0  0  0  0
    8.4013    1.8562   -2.3469 H   0  0  0  0  0  0  0  0  0  0  0  0
    6.0566    4.7992   -1.2539 H   0  0  0  0  0  0  0  0  0  0  0  0
    6.3208    4.4938   -2.9974 H   0  0  0  0  0  0  0  0  0  0  0  0
    7.7509    4.4631    0.2503 H   0  0  0  0  0  0  0  0  0  0  0  0
    8.3826    6.0855   -0.2354 H   0  0  0  0  0  0  0  0  0  0  0  0
    9.8145    3.3747   -0.0913 H   0  0  0  0  0  0  0  0  0  0  0  0
   10.2221    4.8678    0.7915 H   0  0  0  0  0  0  0  0  0  0  0  0
   11.8023    4.2083   -1.1557 H   0  0  0  0  0  0  0  0  0  0  0  0
   11.2086    5.8869   -1.2322 H   0  0  0  0  0  0  0  0  0  0  0  0
   10.1640    3.4319   -2.7408 H   0  0  0  0  0  0  0  0  0  0  0  0
   12.2271    4.3884   -3.6488 H   0  0  0  0  0  0  0  0  0  0  0  0
   11.5367    6.0183   -3.6768 H   0  0  0  0  0  0  0  0  0  0  0  0
   10.5933    3.6181   -5.3551 H   0  0  0  0  0  0  0  0  0  0  0  0
   11.4397    5.0501   -5.9596 H   0  0  0  0  0  0  0  0  0  0  0  0
    8.9561    5.2158   -6.3670 H   0  0  0  0  0  0  0  0  0  0  0  0
    9.5241    6.5047   -5.3003 H   0  0  0  0  0  0  0  0  0  0  0  0
    8.1513    3.8937   -4.4326 H   0  0  0  0  0  0  0  0  0  0  0  0
    7.4259    5.5125   -4.4344 H   0  0  0  0  0  0  0  0  0  0  0  0
    9.0652    6.2876   -2.7449 H   0  0  0  0  0  0  0  0  0  0  0  0
  1  2  1  0
  1 20  1  0
  1 21  1  0
  1 22  1  0
  2  3  1  0
  2  4  1  0
  2 23  1  1
  3 24  1  0
  3 25  1  0
  4  5  1  0
  4 26  1  0
  4 27  1  0
  5  6  1  0
  5 28  1  0
  5 29  1  0
  6  7  1  0
  6 30  1  0
  6 31  1  0
  7  8  1  0
  7  9  1  0
  7 32  1  1
  8 33  1  0
  8 34  1  0
  8 35  1  0
  9 10  1  0
  9 36  1  0
  9 37  1  0
 10 11  1  0
 10 19  1  0
 11 12  1  0
 11 38  1  0
 11 39  1  0
 12 13  1  0
 12 40  1  0
 12 41  1  0
 13 14  1  0
 13 42  1  0
 13 43  1  0
 14 15  1  0
 14 19  1  0
 14 44  1  6
 15 16  1  0
 15 45  1  0
 15 46  1  0
 16 17  1  0
 16 47  1  0
 16 48  1  0
 17 18  1  0
 17 49  1  0
 17 50  1  0
 18 19  1  0
 18 51  1  0
 18 52  1  0
 19 53  1  1
M  END

