
     RDKit          3D

 39 39  0  0  0  0  0  0  0  0999 V2000
    3.2652    3.6826   -1.3991 C   0  0  0  0  0  0  0  0  0  0  0  0
    3.2289    3.4810   -0.0130 O   0  0  0  0  0  0  0  0  0  0  0  0
    4.1734    2.5504    0.4542 C   0  0  0  0  0  0  0  0  0  0  0  0
    3.9951    2.4198    1.9626 C   0  0  0  0  0  0  0  0  0  0  0  0
    4.9102    1.4551    2.5563 N   0  0  0  0  0  0  0  0  0  0  0  0
    4.4714    0.9735    3.8665 C   0  0  0  0  0  0  0  0  0  0  0  0
    6.3108    1.7589    2.5086 C   0  0  0  0  0  0  0  0  0  0  0  0
    6.8263    3.0508    2.6402 C   0  0  0  0  0  0  0  0  0  0  0  0
    8.2082    3.3055    2.6085 C   0  0  0  0  0  0  0  0  0  0  0  0
    8.8051    4.6613    2.8614 C   0  0  0  0  0  0  0  0  0  0  0  0
    9.8026    4.7714    3.5631 O   0  0  0  0  0  0  0  0  0  0  0  0
    8.1778    5.7714    2.3225 N   0  0  0  0  0  0  0  0  0  0  0  0
    7.3279    5.7584    1.1464 C   0  0  0  0  0  0  0  0  0  0  0  0
    8.6500    7.0835    2.7275 C   0  0  0  0  0  0  0  0  0  0  0  0
    9.0817    2.2152    2.4759 C   0  0  0  0  0  0  0  0  0  0  0  0
    8.5909    0.9232    2.3218 C   0  0  0  0  0  0  0  0  0  0  0  0
    7.2064    0.6682    2.3271 C   0  0  0  0  0  0  0  0  0  0  0  0
    6.6937   -0.6087    2.2107 N   0  0  0  0  0  0  0  0  0  0  0  0
    2.4954    4.4262   -1.6532 H   0  0  0  0  0  0  0  0  0  0  0  0
    3.0530    2.7503   -1.9620 H   0  0  0  0  0  0  0  0  0  0  0  0
    4.2498    4.0646   -1.7399 H   0  0  0  0  0  0  0  0  0  0  0  0
    5.2037    2.8784    0.2069 H   0  0  0  0  0  0  0  0  0  0  0  0
    4.0295    1.5575   -0.0216 H   0  0  0  0  0  0  0  0  0  0  0  0
    2.9682    2.0686    2.1496 H   0  0  0  0  0  0  0  0  0  0  0  0
    4.0554    3.4305    2.4189 H   0  0  0  0  0  0  0  0  0  0  0  0
    3.4540    0.5564    3.7919 H   0  0  0  0  0  0  0  0  0  0  0  0
    4.4609    1.7746    4.6348 H   0  0  0  0  0  0  0  0  0  0  0  0
    5.1433    0.1759    4.2146 H   0  0  0  0  0  0  0  0  0  0  0  0
    6.1328    3.8787    2.7977 H   0  0  0  0  0  0  0  0  0  0  0  0
    7.2326    4.7443    0.7434 H   0  0  0  0  0  0  0  0  0  0  0  0
    7.7673    6.3954    0.3563 H   0  0  0  0  0  0  0  0  0  0  0  0
    6.3158    6.1480    1.3613 H   0  0  0  0  0  0  0  0  0  0  0  0
    9.2093    6.9908    3.6652 H   0  0  0  0  0  0  0  0  0  0  0  0
    7.7936    7.7652    2.8667 H   0  0  0  0  0  0  0  0  0  0  0  0
    9.3213    7.5287    1.9683 H   0  0  0  0  0  0  0  0  0  0  0  0
   10.1577    2.3988    2.4954 H   0  0  0  0  0  0  0  0  0  0  0  0
    9.2844    0.0870    2.1937 H   0  0  0  0  0  0  0  0  0  0  0  0
    7.2975   -1.3093    1.7975 H   0  0  0  0  0  0  0  0  0  0  0  0
    5.7262   -0.6345    1.8988 H   0  0  0  0  0  0  0  0  0  0  0  0
  1  2  1  0
  1 19  1  0
  1 20  1  0
  1 21  1  0
  2  3  1  0
  3  4  1  0
  3 22  1  0
  3 23  1  0
  4  5  1  0
  4 24  1  0
  4 25  1  0
  5  6  1  0
  5  7  1  0
  6 26  1  0
  6 27  1  0
  6 28  1  0
  7  8  2  0
  7 17  1  0
  8  9  1  0
  8 29  1  0
  9 10  1  0
  9 15  2  0
 10 11  2  0
 10 12  1  0
 12 13  1  0
 12 14  1  0
 13 30  1  0
 13 31  1  0
 13 32  1  0
 14 33  1  0
 14 34  1  0
 14 35  1  0
 15 16  1  0
 15 36  1  0
 16 17  2  0
 16 37  1  0
 17 18  1  0
 18 38  1  0
 18 39  1  0
M  END

