
     RDKit          3D

 42 44  0  0  0  0  0  0  0  0999 V2000
    5.0095    1.3336   -1.3619 C   0  0  0  0  0  0  0  0  0  0  0  0
    4.2118    0.7433   -0.2605 C   0  0  0  0  0  0  0  0  0  0  0  0
    3.2458    1.3918    0.6226 C   0  0  0  0  0  0  0  0  0  0  0  0
    2.7654    2.7917    0.6130 C   0  0  2  0  0  0  0  0  0  0  0  0
    2.4500    3.0420    1.6501 H   0  0  0  0  0  0  0  0  0  0  0  0
    1.4339    2.8039   -0.2219 C   0  0  0  0  0  0  0  0  0  0  0  0
    3.7431    3.7005    0.0950 N   0  0  0  0  0  0  0  0  0  0  0  0
    3.5351    5.1097    0.1957 C   0  0  0  0  0  0  0  0  0  0  0  0
    2.4074    5.5760    0.3467 O   0  0  0  0  0  0  0  0  0  0  0  0
    4.7841    5.8334    0.1262 C   0  0  0  0  0  0  0  0  0  0  0  0
    5.0147    7.2275    0.1469 C   0  0  0  0  0  0  0  0  0  0  0  0
    6.3828    7.3687    0.0988 C   0  0  0  0  0  0  0  0  0  0  0  0
    6.9376    6.0867    0.0525 N   0  0  0  0  0  0  0  0  0  0  0  0
    8.2931    5.7896    0.0459 C   0  0  0  0  0  0  0  0  0  0  0  0
    9.2074    6.6721    0.7034 C   0  0  0  0  0  0  0  0  0  0  0  0
   10.5626    6.4006    0.7784 C   0  0  0  0  0  0  0  0  0  0  0  0
   11.1015    5.2324    0.2032 C   0  0  0  0  0  0  0  0  0  0  0  0
   10.2313    4.3678   -0.4827 C   0  0  0  0  0  0  0  0  0  0  0  0
    8.8711    4.6311   -0.5691 C   0  0  0  0  0  0  0  0  0  0  0  0
    7.9344    3.5820   -1.6455 Cl  0  0  0  0  0  0  0  0  0  0  0  0
    5.9647    5.1381    0.0897 N   0  0  0  0  0  0  0  0  0  0  0  0
    2.7827    0.3249    1.4579 C   0  0  0  0  0  0  0  0  0  0  0  0
    3.3735   -0.8053    1.1766 N   0  0  0  0  0  0  0  0  0  0  0  0
    4.2413   -0.5284    0.1210 N   0  0  0  0  0  0  0  0  0  0  0  0
    5.0364   -1.6363   -0.3802 C   0  0  0  0  0  0  0  0  0  0  0  0
    4.4699    2.1859   -1.7932 H   0  0  0  0  0  0  0  0  0  0  0  0
    5.2522    0.5950   -2.1363 H   0  0  0  0  0  0  0  0  0  0  0  0
    5.9516    1.7574   -0.9726 H   0  0  0  0  0  0  0  0  0  0  0  0
    1.0959    3.8466   -0.2131 H   0  0  0  0  0  0  0  0  0  0  0  0
    0.6726    2.1498    0.2283 H   0  0  0  0  0  0  0  0  0  0  0  0
    1.6275    2.4889   -1.2576 H   0  0  0  0  0  0  0  0  0  0  0  0
    4.7254    3.5043    0.2935 H   0  0  0  0  0  0  0  0  0  0  0  0
    4.2674    8.0163    0.1714 H   0  0  0  0  0  0  0  0  0  0  0  0
    7.0088    8.2525    0.0261 H   0  0  0  0  0  0  0  0  0  0  0  0
    8.8073    7.5583    1.1986 H   0  0  0  0  0  0  0  0  0  0  0  0
   11.2143    7.0992    1.3104 H   0  0  0  0  0  0  0  0  0  0  0  0
   12.1670    5.0075    0.2669 H   0  0  0  0  0  0  0  0  0  0  0  0
   10.6186    3.4838   -0.9937 H   0  0  0  0  0  0  0  0  0  0  0  0
    2.0494    0.3838    2.2608 H   0  0  0  0  0  0  0  0  0  0  0  0
    5.6161   -2.0584    0.4520 H   0  0  0  0  0  0  0  0  0  0  0  0
    5.7153   -1.2838   -1.1627 H   0  0  0  0  0  0  0  0  0  0  0  0
    4.3672   -2.4122   -0.7779 H   0  0  0  0  0  0  0  0  0  0  0  0
  1  2  1  0
  1 26  1  0
  1 27  1  0
  1 28  1  0
  2  3  2  0
  2 24  1  0
  3  4  1  0
  3 22  1  0
  4  5  1  1
  4  6  1  0
  4  7  1  0
  6 29  1  0
  6 30  1  0
  6 31  1  0
  7  8  1  0
  7 32  1  0
  8  9  2  0
  8 10  1  0
 10 11  1  0
 10 21  2  0
 11 12  2  0
 11 33  1  0
 12 13  1  0
 12 34  1  0
 13 14  1  0
 13 21  1  0
 14 15  2  0
 14 19  1  0
 15 16  1  0
 15 35  1  0
 16 17  2  0
 16 36  1  0
 17 18  1  0
 17 37  1  0
 18 19  2  0
 18 38  1  0
 19 20  1  0
 22 23  2  0
 22 39  1  0
 23 24  1  0
 24 25  1  0
 25 40  1  0
 25 41  1  0
 25 42  1  0
M  END

