
     RDKit          3D

 42 45  0  0  0  0  0  0  0  0999 V2000
    1.7588    1.0515    0.0307 C   0  0  0  0  0  0  0  0  0  0  0  0
    3.1896    0.5838   -0.0973 C   0  0  0  0  0  0  0  0  0  0  0  0
    4.2415    1.5185   -0.0941 C   0  0  0  0  0  0  0  0  0  0  0  0
    5.5654    1.0835   -0.2460 C   0  0  0  0  0  0  0  0  0  0  0  0
    5.8640   -0.2644   -0.3827 C   0  0  0  0  0  0  0  0  0  0  0  0
    4.8276   -1.2420   -0.3649 C   0  0  0  0  0  0  0  0  0  0  0  0
    5.2103   -2.6170   -0.5210 C   0  0  0  0  0  0  0  0  0  0  0  0
    6.4384   -2.9886   -0.9836 N   0  0  0  0  0  0  0  0  0  0  0  0
    6.4602   -4.2982   -1.0207 C   0  0  0  0  0  0  0  0  0  0  0  0
    7.4182   -5.1893   -1.3837 N   0  0  0  0  0  0  0  0  0  0  0  0
    7.2566   -6.5010   -1.3801 C   0  0  0  0  0  0  0  0  0  0  0  0
    8.5669   -7.4857   -1.9090 Cl  0  0  0  0  0  0  0  0  0  0  0  0
    6.1390   -7.0248   -0.9719 N   0  0  0  0  0  0  0  0  0  0  0  0
    5.0889   -6.2530   -0.5697 C   0  0  0  0  0  0  0  0  0  0  0  0
    3.6393   -7.1036   -0.1352 Cl  0  0  0  0  0  0  0  0  0  0  0  0
    5.2109   -4.8644   -0.5694 C   0  0  0  0  0  0  0  0  0  0  0  0
    4.4344   -3.7730   -0.2402 N   0  0  0  0  0  0  0  0  0  0  0  0
    3.2093   -3.8502    0.5442 C   0  0  0  0  0  0  0  0  0  0  0  0
    1.9238   -3.9893   -0.2569 C   0  0  0  0  0  0  0  0  0  0  0  0
    1.8868   -3.8923   -1.6521 C   0  0  0  0  0  0  0  0  0  0  0  0
    0.6808   -4.0173   -2.3470 C   0  0  0  0  0  0  0  0  0  0  0  0
   -0.4931   -4.2411   -1.6390 C   0  0  0  0  0  0  0  0  0  0  0  0
   -1.6455   -4.3607   -2.3039 F   0  0  0  0  0  0  0  0  0  0  0  0
   -0.4897   -4.3456   -0.2415 C   0  0  0  0  0  0  0  0  0  0  0  0
   -1.7808   -4.5952    0.5029 C   0  0  1  0  0  0  0  0  0  0  0  0
   -2.6659   -3.6055    0.3046 F   0  0  0  0  0  0  0  0  0  0  0  0
   -2.3643   -5.7385    0.1110 F   0  0  0  0  0  0  0  0  0  0  0  0
   -1.5722   -4.6859    1.8288 F   0  0  0  0  0  0  0  0  0  0  0  0
    0.7256   -4.2180    0.4343 C   0  0  0  0  0  0  0  0  0  0  0  0
    3.4879   -0.7734   -0.2342 C   0  0  0  0  0  0  0  0  0  0  0  0
    1.5004    1.7692   -0.7657 H   0  0  0  0  0  0  0  0  0  0  0  0
    1.5933    1.5684    0.9912 H   0  0  0  0  0  0  0  0  0  0  0  0
    1.0475    0.2143   -0.0269 H   0  0  0  0  0  0  0  0  0  0  0  0
    4.0227    2.5841    0.0147 H   0  0  0  0  0  0  0  0  0  0  0  0
    6.3780    1.8150   -0.2542 H   0  0  0  0  0  0  0  0  0  0  0  0
    6.8951   -0.5983   -0.4989 H   0  0  0  0  0  0  0  0  0  0  0  0
    3.1675   -2.9515    1.1764 H   0  0  0  0  0  0  0  0  0  0  0  0
    3.3002   -4.7073    1.2280 H   0  0  0  0  0  0  0  0  0  0  0  0
    2.8088   -3.7157   -2.2092 H   0  0  0  0  0  0  0  0  0  0  0  0
    0.6368   -3.9435   -3.4351 H   0  0  0  0  0  0  0  0  0  0  0  0
    0.7278   -4.3026    1.5230 H   0  0  0  0  0  0  0  0  0  0  0  0
    2.6511   -1.4681   -0.2936 H   0  0  0  0  0  0  0  0  0  0  0  0
  1  2  1  0
  1 31  1  0
  1 32  1  0
  1 33  1  0
  2  3  2  0
  2 30  1  0
  3  4  1  0
  3 34  1  0
  4  5  2  0
  4 35  1  0
  5  6  1  0
  5 36  1  0
  6  7  1  0
  6 30  2  0
  7  8  2  0
  7 17  1  0
  8  9  1  0
  9 10  2  0
  9 16  1  0
 10 11  1  0
 11 12  1  0
 11 13  2  0
 13 14  1  0
 14 15  1  0
 14 16  2  0
 16 17  1  0
 17 18  1  0
 18 19  1  0
 18 37  1  0
 18 38  1  0
 19 20  2  0
 19 29  1  0
 20 21  1  0
 20 39  1  0
 21 22  2  0
 21 40  1  0
 22 23  1  0
 22 24  1  0
 24 25  1  0
 24 29  2  0
 25 26  1  6
 25 27  1  0
 25 28  1  0
 29 41  1  0
 30 42  1  0
M  END

