
     RDKit          3D

 31 32  0  0  0  0  0  0  0  0999 V2000
    1.6455   -0.8392   -0.9564 N   0  0  0  0  0  0  0  0  0  0  0  0
    2.4260   -0.2621    0.0419 N   0  0  0  0  0  0  0  0  0  0  0  0
    3.0925   -1.0042    0.9846 C   0  0  0  0  0  0  0  0  0  0  0  0
    3.9282   -0.3059    1.9465 C   0  0  0  0  0  0  0  0  0  0  0  0
    4.5180   -1.0914    2.8595 N   0  0  0  0  0  0  0  0  0  0  0  0
    4.4033   -2.3620    2.9649 C   0  0  0  0  0  0  0  0  0  0  0  0
    3.5510   -3.0366    2.0126 C   0  0  0  0  0  0  0  0  0  0  0  0
    3.4751   -4.4978    2.1065 C   0  0  0  0  0  0  0  0  0  0  0  0
    4.0428   -5.1415    2.9990 O   0  0  0  0  0  0  0  0  0  0  0  0
    2.7149   -5.0927    1.1291 N   0  0  0  0  0  0  0  0  0  0  0  0
    2.3546   -6.4953    1.1756 C   0  0  0  0  0  0  0  0  0  0  0  0
    1.0268   -6.7920    1.8920 C   0  0  0  0  0  0  0  0  0  0  0  0
   -0.1931   -6.2093    1.2061 C   0  0  1  0  0  0  0  0  0  0  0  0
   -1.4580   -5.9377    1.9793 C   0  0  0  0  0  0  0  0  0  0  0  0
   -0.6320   -4.7854    1.4653 C   0  0  0  0  0  0  0  0  0  0  0  0
    2.9543   -2.3087    1.0280 N   0  0  0  0  0  0  0  0  0  0  0  0
    0.7747   -1.1800   -0.5435 H   0  0  0  0  0  0  0  0  0  0  0  0
    2.1283   -1.6656   -1.3208 H   0  0  0  0  0  0  0  0  0  0  0  0
    2.7686    0.6694   -0.1613 H   0  0  0  0  0  0  0  0  0  0  0  0
    3.9571    0.7801    2.0278 H   0  0  0  0  0  0  0  0  0  0  0  0
    4.9402   -2.9899    3.6908 H   0  0  0  0  0  0  0  0  0  0  0  0
    2.2084   -4.4606    0.5191 H   0  0  0  0  0  0  0  0  0  0  0  0
    3.1726   -7.0213    1.6879 H   0  0  0  0  0  0  0  0  0  0  0  0
    2.3106   -6.8779    0.1404 H   0  0  0  0  0  0  0  0  0  0  0  0
    1.0929   -6.4173    2.9278 H   0  0  0  0  0  0  0  0  0  0  0  0
    0.9148   -7.8894    1.9641 H   0  0  0  0  0  0  0  0  0  0  0  0
   -0.3389   -6.5684    0.1790 H   0  0  0  0  0  0  0  0  0  0  0  0
   -1.4472   -6.1341    3.0560 H   0  0  0  0  0  0  0  0  0  0  0  0
   -2.4181   -6.1459    1.4985 H   0  0  0  0  0  0  0  0  0  0  0  0
   -0.0612   -4.1995    2.1918 H   0  0  0  0  0  0  0  0  0  0  0  0
   -1.0262   -4.1986    0.6298 H   0  0  0  0  0  0  0  0  0  0  0  0
  1  2  1  0
  1 17  1  0
  1 18  1  0
  2  3  1  0
  2 19  1  0
  3  4  2  0
  3 16  1  0
  4  5  1  0
  4 20  1  0
  5  6  2  0
  6  7  1  0
  6 21  1  0
  7  8  1  0
  7 16  2  0
  8  9  2  0
  8 10  1  0
 10 11  1  0
 10 22  1  0
 11 12  1  0
 11 23  1  0
 11 24  1  0
 12 13  1  0
 12 25  1  0
 12 26  1  0
 13 14  1  0
 13 15  1  0
 13 27  1  6
 14 15  1  0
 14 28  1  0
 14 29  1  0
 15 30  1  0
 15 31  1  0
M  END

