
     RDKit          3D

 63 66  0  0  0  0  0  0  0  0999 V2000
   -3.1688    5.0067   -1.6395 C   0  0  0  0  0  0  0  0  0  0  0  0
   -2.4614    4.1489   -2.7158 C   0  0  1  0  0  0  0  0  0  0  0  0
   -2.5994    2.6531   -2.3436 C   0  0  0  0  0  0  0  0  0  0  0  0
   -3.1821    4.3753   -4.0572 C   0  0  0  0  0  0  0  0  0  0  0  0
   -0.9734    4.5292   -2.7846 C   0  0  0  0  0  0  0  0  0  0  0  0
   -0.1458    4.3928   -1.6418 C   0  0  0  0  0  0  0  0  0  0  0  0
    1.1977    4.7181   -1.6514 C   0  0  0  0  0  0  0  0  0  0  0  0
    1.8263    5.2145   -2.8378 C   0  0  0  0  0  0  0  0  0  0  0  0
    3.2087    5.5361   -2.8140 C   0  0  0  0  0  0  0  0  0  0  0  0
    3.9772    5.4457   -1.7856 O   0  0  0  0  0  0  0  0  0  0  0  0
    3.8505    6.0028   -3.9764 N   0  0  0  0  0  0  0  0  0  0  0  0
    5.1498    6.3226   -3.9077 C   0  0  0  0  0  0  0  0  0  0  0  0
    5.8025    6.1989   -2.8573 O   0  0  0  0  0  0  0  0  0  0  0  0
    5.8396    6.8270   -5.1762 C   0  0  0  0  0  0  0  0  0  0  0  0
    5.3824    8.1160   -5.5976 O   0  0  0  0  0  0  0  0  0  0  0  0
    4.2317    8.1801   -6.3071 C   0  0  0  0  0  0  0  0  0  0  0  0
    3.5415    7.2019   -6.5061 O   0  0  0  0  0  0  0  0  0  0  0  0
    3.9248    9.5759   -6.7792 C   0  0  0  0  0  0  0  0  0  0  0  0
    2.9880   10.3899   -5.8418 C   0  0  2  0  0  0  0  0  0  0  0  0
    3.6098   10.5838   -4.4370 C   0  0  0  0  0  0  0  0  0  0  0  0
    2.6899   11.4518   -3.5556 C   0  0  1  0  0  0  0  0  0  0  0  0
    2.5007   12.8328   -4.2120 C   0  0  0  0  0  0  0  0  0  0  0  0
    1.8604   12.6561   -5.6024 C   0  0  2  0  0  0  0  0  0  0  0  0
    0.4914   11.9644   -5.4560 C   0  0  0  0  0  0  0  0  0  0  0  0
    0.6823   10.5836   -4.8003 C   0  0  2  0  0  0  0  0  0  0  0  0
    1.3215   10.7585   -3.4089 C   0  0  0  0  0  0  0  0  0  0  0  0
    1.6031    9.7163   -5.6820 C   0  0  0  0  0  0  0  0  0  0  0  0
    2.7804   11.7868   -6.4799 C   0  0  0  0  0  0  0  0  0  0  0  0
    0.9956    5.3575   -3.9936 C   0  0  0  0  0  0  0  0  0  0  0  0
   -0.3509    5.0223   -3.9513 C   0  0  0  0  0  0  0  0  0  0  0  0
   -4.2362    4.7380   -1.5664 H   0  0  0  0  0  0  0  0  0  0  0  0
   -3.1022    6.0787   -1.8850 H   0  0  0  0  0  0  0  0  0  0  0  0
   -2.7211    4.8647   -0.6440 H   0  0  0  0  0  0  0  0  0  0  0  0
   -3.6620    2.3643   -2.2773 H   0  0  0  0  0  0  0  0  0  0  0  0
   -2.1324    2.4283   -1.3726 H   0  0  0  0  0  0  0  0  0  0  0  0
   -2.1184    2.0137   -3.1010 H   0  0  0  0  0  0  0  0  0  0  0  0
   -4.2426    4.0913   -3.9661 H   0  0  0  0  0  0  0  0  0  0  0  0
   -2.7454    3.7673   -4.8652 H   0  0  0  0  0  0  0  0  0  0  0  0
   -3.1483    5.4314   -4.3681 H   0  0  0  0  0  0  0  0  0  0  0  0
   -0.5737    4.0160   -0.7089 H   0  0  0  0  0  0  0  0  0  0  0  0
    1.7966    4.5961   -0.7476 H   0  0  0  0  0  0  0  0  0  0  0  0
    3.3644    6.1187   -4.8666 H   0  0  0  0  0  0  0  0  0  0  0  0
    5.6928    6.0957   -5.9860 H   0  0  0  0  0  0  0  0  0  0  0  0
    6.9055    6.9417   -4.9539 H   0  0  0  0  0  0  0  0  0  0  0  0
    3.4409    9.4755   -7.7629 H   0  0  0  0  0  0  0  0  0  0  0  0
    4.8710   10.1232   -6.9046 H   0  0  0  0  0  0  0  0  0  0  0  0
    4.6045   11.0540   -4.5301 H   0  0  0  0  0  0  0  0  0  0  0  0
    3.7699    9.6062   -3.9519 H   0  0  0  0  0  0  0  0  0  0  0  0
    3.1538   11.5724   -2.5623 H   0  0  0  0  0  0  0  0  0  0  0  0
    3.4728   13.3481   -4.3029 H   0  0  0  0  0  0  0  0  0  0  0  0
    1.8609   13.4700   -3.5778 H   0  0  0  0  0  0  0  0  0  0  0  0
    1.7312   13.6417   -6.0811 H   0  0  0  0  0  0  0  0  0  0  0  0
    0.0131   11.8544   -6.4449 H   0  0  0  0  0  0  0  0  0  0  0  0
   -0.1839   12.5862   -4.8434 H   0  0  0  0  0  0  0  0  0  0  0  0
   -0.2939   10.0808   -4.6992 H   0  0  0  0  0  0  0  0  0  0  0  0
    1.4411    9.7769   -2.9193 H   0  0  0  0  0  0  0  0  0  0  0  0
    0.6602   11.3583   -2.7603 H   0  0  0  0  0  0  0  0  0  0  0  0
    1.1466    9.5650   -6.6759 H   0  0  0  0  0  0  0  0  0  0  0  0
    1.7118    8.7156   -5.2333 H   0  0  0  0  0  0  0  0  0  0  0  0
    3.7584   12.2828   -6.6106 H   0  0  0  0  0  0  0  0  0  0  0  0
    2.3450   11.6712   -7.4881 H   0  0  0  0  0  0  0  0  0  0  0  0
    1.3970    5.7348   -4.9379 H   0  0  0  0  0  0  0  0  0  0  0  0
   -0.9307    5.1524   -4.8660 H   0  0  0  0  0  0  0  0  0  0  0  0
  2  1  1  1
  1 31  1  0
  1 32  1  0
  1 33  1  0
  2  3  1  0
  2  4  1  0
  2  5  1  0
  3 34  1  0
  3 35  1  0
  3 36  1  0
  4 37  1  0
  4 38  1  0
  4 39  1  0
  5  6  2  0
  5 30  1  0
  6  7  1  0
  6 40  1  0
  7  8  2  0
  7 41  1  0
  8  9  1  0
  8 29  1  0
  9 10  2  0
  9 11  1  0
 11 12  1  0
 11 42  1  0
 12 13  2  0
 12 14  1  0
 14 15  1  0
 14 43  1  0
 14 44  1  0
 15 16  1  0
 16 17  2  0
 16 18  1  0
 19 18  1  6
 18 45  1  0
 18 46  1  0
 19 20  1  0
 19 27  1  0
 19 28  1  0
 20 21  1  0
 20 47  1  0
 20 48  1  0
 21 22  1  0
 21 26  1  0
 21 49  1  1
 22 23  1  0
 22 50  1  0
 22 51  1  0
 23 24  1  0
 23 28  1  0
 23 52  1  6
 24 25  1  0
 24 53  1  0
 24 54  1  0
 25 26  1  0
 25 27  1  0
 25 55  1  1
 26 56  1  0
 26 57  1  0
 27 58  1  0
 27 59  1  0
 28 60  1  0
 28 61  1  0
 29 30  2  0
 29 62  1  0
 30 63  1  0
M  END

