
     RDKit          3D

 39 39  0  0  0  0  0  0  0  0999 V2000
    1.2325   -4.9779    6.8763 C   0  0  0  0  0  0  0  0  0  0  0  0
    2.5802   -4.2850    6.9035 C   0  0  0  0  0  0  0  0  0  0  0  0
    3.2217   -4.4807    5.6526 O   0  0  0  0  0  0  0  0  0  0  0  0
    4.4774   -3.8849    5.5473 C   0  0  0  0  0  0  0  0  0  0  0  0
    4.9584   -4.1390    4.1157 C   0  0  0  0  0  0  0  0  0  0  0  0
    6.2964   -3.7092    3.8835 N   0  0  0  0  0  0  0  0  0  0  0  0
    6.7941   -3.0098    2.7067 C   0  0  0  0  0  0  0  0  0  0  0  0
    8.2700   -2.8522    2.7697 C   0  0  0  0  0  0  0  0  0  0  0  0
    9.2318   -3.2764    1.8555 C   0  0  0  0  0  0  0  0  0  0  0  0
   10.4791   -3.1751    2.3162 N   0  0  0  0  0  0  0  0  0  0  0  0
   10.3333   -2.7622    3.6378 N   0  0  0  0  0  0  0  0  0  0  0  0
   11.4994   -2.1613    4.2859 C   0  0  1  0  0  0  0  0  0  0  0  0
   11.7359   -0.7373    3.7301 C   0  0  0  0  0  0  0  0  0  0  0  0
   11.2594   -2.1002    5.8036 C   0  0  0  0  0  0  0  0  0  0  0  0
   12.7326   -3.0386    4.0045 C   0  0  0  0  0  0  0  0  0  0  0  0
    8.9732   -2.5068    4.0002 C   0  0  0  0  0  0  0  0  0  0  0  0
    0.7132   -4.8403    7.8369 H   0  0  0  0  0  0  0  0  0  0  0  0
    1.3540   -6.0573    6.6978 H   0  0  0  0  0  0  0  0  0  0  0  0
    0.5996   -4.5650    6.0760 H   0  0  0  0  0  0  0  0  0  0  0  0
    3.2144   -4.6906    7.7177 H   0  0  0  0  0  0  0  0  0  0  0  0
    2.4607   -3.1996    7.0975 H   0  0  0  0  0  0  0  0  0  0  0  0
    5.2036   -4.3157    6.2691 H   0  0  0  0  0  0  0  0  0  0  0  0
    4.4345   -2.7933    5.7407 H   0  0  0  0  0  0  0  0  0  0  0  0
    4.2846   -3.6768    3.3795 H   0  0  0  0  0  0  0  0  0  0  0  0
    4.9220   -5.2352    3.9405 H   0  0  0  0  0  0  0  0  0  0  0  0
    7.0284   -3.8043    4.6052 H   0  0  0  0  0  0  0  0  0  0  0  0
    6.2097   -2.0578    2.7294 H   0  0  0  0  0  0  0  0  0  0  0  0
    6.4257   -3.5470    1.8144 H   0  0  0  0  0  0  0  0  0  0  0  0
    9.0673   -3.6693    0.8476 H   0  0  0  0  0  0  0  0  0  0  0  0
   10.8593   -0.0975    3.9238 H   0  0  0  0  0  0  0  0  0  0  0  0
   11.8883   -0.7877    2.6413 H   0  0  0  0  0  0  0  0  0  0  0  0
   12.6181   -0.2628    4.1906 H   0  0  0  0  0  0  0  0  0  0  0  0
   10.4254   -1.4302    6.0606 H   0  0  0  0  0  0  0  0  0  0  0  0
   12.1621   -1.7238    6.3105 H   0  0  0  0  0  0  0  0  0  0  0  0
   11.0274   -3.1008    6.1995 H   0  0  0  0  0  0  0  0  0  0  0  0
   12.8908   -3.1394    2.9232 H   0  0  0  0  0  0  0  0  0  0  0  0
   12.5867   -4.0489    4.4186 H   0  0  0  0  0  0  0  0  0  0  0  0
   13.6301   -2.5955    4.4657 H   0  0  0  0  0  0  0  0  0  0  0  0
    8.7733   -1.5317    4.5064 H   0  0  0  0  0  0  0  0  0  0  0  0
  1  2  1  0
  1 17  1  0
  1 18  1  0
  1 19  1  0
  2  3  1  0
  2 20  1  0
  2 21  1  0
  3  4  1  0
  4  5  1  0
  4 22  1  0
  4 23  1  0
  5  6  1  0
  5 24  1  0
  5 25  1  0
  6  7  1  0
  6 26  1  0
  7  8  1  0
  7 27  1  0
  7 28  1  0
  8  9  1  0
  8 16  2  0
  9 10  2  0
  9 29  1  0
 10 11  1  0
 11 12  1  0
 11 16  1  0
 12 13  1  6
 12 14  1  0
 12 15  1  0
 13 30  1  0
 13 31  1  0
 13 32  1  0
 14 33  1  0
 14 34  1  0
 14 35  1  0
 15 36  1  0
 15 37  1  0
 15 38  1  0
 16 39  1  0
M  END

