
     RDKit          3D

 69 72  0  0  0  0  0  0  0  0999 V2000
    8.3423   -1.2508   -1.1860 C   0  0  0  0  0  0  0  0  0  0  0  0
    9.2672   -0.0486   -1.0906 C   0  0  0  0  0  0  0  0  0  0  0  0
    8.6096    1.0851   -0.4983 O   0  0  0  0  0  0  0  0  0  0  0  0
    7.9009    1.8944   -1.3140 C   0  0  0  0  0  0  0  0  0  0  0  0
    7.8024    1.7141   -2.5048 O   0  0  0  0  0  0  0  0  0  0  0  0
    7.2830    3.0494   -0.5467 C   0  0  2  0  0  0  0  0  0  0  0  0
    8.1265    3.6369   -0.1386 H   0  0  0  0  0  0  0  0  0  0  0  0
    6.4261    2.5826    0.6465 C   0  0  0  0  0  0  0  0  0  0  0  0
    5.8141    3.7911    1.3614 C   0  0  0  0  0  0  0  0  0  0  0  0
    5.0524    4.6882    0.3830 C   0  0  0  0  0  0  0  0  0  0  0  0
    5.9173    5.0811   -0.7253 N   0  0  0  0  0  0  0  0  0  0  0  0
    5.4656    6.1959   -1.5158 C   0  0  0  0  0  0  0  0  0  0  0  0
    4.2023    5.9477   -2.3606 C   0  0  0  0  0  0  0  0  0  0  0  0
    3.6059    4.8821   -2.3833 O   0  0  0  0  0  0  0  0  0  0  0  0
    3.7575    7.0097   -3.1148 N   0  0  0  0  0  0  0  0  0  0  0  0
    4.4573    8.1751   -3.2269 N   0  0  0  0  0  0  0  0  0  0  0  0
    3.9309    8.9116   -4.1482 C   0  0  0  0  0  0  0  0  0  0  0  0
    4.4669   10.2316   -4.5021 C   0  0  0  0  0  0  0  0  0  0  0  0
    3.8731   10.9958   -5.5210 C   0  0  0  0  0  0  0  0  0  0  0  0
    4.3961   12.2490   -5.8525 C   0  0  0  0  0  0  0  0  0  0  0  0
    5.5075   12.7498   -5.1765 C   0  0  0  0  0  0  0  0  0  0  0  0
    6.1222   12.0049   -4.1508 C   0  0  0  0  0  0  0  0  0  0  0  0
    7.3283   12.5533   -3.4268 C   0  0  0  0  0  0  0  0  0  0  0  0
    5.5906   10.7548   -3.8282 C   0  0  0  0  0  0  0  0  0  0  0  0
    2.7402    8.2498   -4.8198 C   0  0  0  0  0  0  0  0  0  0  0  0
    2.5580    6.9478   -3.9959 C   0  0  2  0  0  0  0  0  0  0  0  0
    2.6556    6.0590   -4.6291 H   0  0  0  0  0  0  0  0  0  0  0  0
    1.2601    6.8684   -3.2020 C   0  0  0  0  0  0  0  0  0  0  0  0
    0.9281    7.9293   -2.3432 C   0  0  0  0  0  0  0  0  0  0  0  0
   -0.2504    7.9460   -1.5897 C   0  0  0  0  0  0  0  0  0  0  0  0
   -0.5808    9.0917   -0.6634 C   0  0  0  0  0  0  0  0  0  0  0  0
   -1.1170    6.8500   -1.7214 C   0  0  0  0  0  0  0  0  0  0  0  0
   -0.7959    5.7868   -2.5625 C   0  0  0  0  0  0  0  0  0  0  0  0
    0.3916    5.7629   -3.3136 C   0  0  0  0  0  0  0  0  0  0  0  0
    0.7149    4.5625   -4.1717 C   0  0  0  0  0  0  0  0  0  0  0  0
    6.4656    3.9560   -1.4746 C   0  0  0  0  0  0  0  0  0  0  0  0
    8.8968   -2.1217   -1.5714 H   0  0  0  0  0  0  0  0  0  0  0  0
    7.5072   -1.0469   -1.8724 H   0  0  0  0  0  0  0  0  0  0  0  0
    7.9335   -1.5135   -0.1977 H   0  0  0  0  0  0  0  0  0  0  0  0
    9.6429    0.2358   -2.0848 H   0  0  0  0  0  0  0  0  0  0  0  0
   10.1214   -0.2547   -0.4289 H   0  0  0  0  0  0  0  0  0  0  0  0
    7.0355    1.9803    1.3366 H   0  0  0  0  0  0  0  0  0  0  0  0
    5.6191    1.9270    0.2713 H   0  0  0  0  0  0  0  0  0  0  0  0
    6.6179    4.3792    1.8378 H   0  0  0  0  0  0  0  0  0  0  0  0
    5.1344    3.4564    2.1628 H   0  0  0  0  0  0  0  0  0  0  0  0
    4.7150    5.6026    0.8999 H   0  0  0  0  0  0  0  0  0  0  0  0
    4.1411    4.1633    0.0286 H   0  0  0  0  0  0  0  0  0  0  0  0
    6.2699    6.5230   -2.1963 H   0  0  0  0  0  0  0  0  0  0  0  0
    5.2685    7.0649   -0.8641 H   0  0  0  0  0  0  0  0  0  0  0  0
    3.0020   10.6169   -6.0592 H   0  0  0  0  0  0  0  0  0  0  0  0
    3.9292   12.8383   -6.6458 H   0  0  0  0  0  0  0  0  0  0  0  0
    5.9081   13.7322   -5.4434 H   0  0  0  0  0  0  0  0  0  0  0  0
    8.1733   12.7061   -4.1193 H   0  0  0  0  0  0  0  0  0  0  0  0
    7.6656   11.8747   -2.6299 H   0  0  0  0  0  0  0  0  0  0  0  0
    7.1089   13.5319   -2.9683 H   0  0  0  0  0  0  0  0  0  0  0  0
    6.0453   10.1552   -3.0372 H   0  0  0  0  0  0  0  0  0  0  0  0
    2.9603    8.0459   -5.8809 H   0  0  0  0  0  0  0  0  0  0  0  0
    1.8417    8.8841   -4.7933 H   0  0  0  0  0  0  0  0  0  0  0  0
    1.6182    8.7738   -2.2485 H   0  0  0  0  0  0  0  0  0  0  0  0
    0.1631    9.8990   -0.7357 H   0  0  0  0  0  0  0  0  0  0  0  0
   -0.6125    8.7600    0.3885 H   0  0  0  0  0  0  0  0  0  0  0  0
   -1.5698    9.5223   -0.8926 H   0  0  0  0  0  0  0  0  0  0  0  0
   -2.0522    6.8255   -1.1538 H   0  0  0  0  0  0  0  0  0  0  0  0
   -1.4826    4.9388   -2.6379 H   0  0  0  0  0  0  0  0  0  0  0  0
   -0.0753    3.8019   -4.0916 H   0  0  0  0  0  0  0  0  0  0  0  0
    1.6656    4.1095   -3.8483 H   0  0  0  0  0  0  0  0  0  0  0  0
    0.8121    4.8215   -5.2397 H   0  0  0  0  0  0  0  0  0  0  0  0
    7.1151    4.3441   -2.2748 H   0  0  0  0  0  0  0  0  0  0  0  0
    5.6799    3.3529   -1.9716 H   0  0  0  0  0  0  0  0  0  0  0  0
  1  2  1  0
  1 37  1  0
  1 38  1  0
  1 39  1  0
  2  3  1  0
  2 40  1  0
  2 41  1  0
  3  4  1  0
  4  5  2  0
  4  6  1  0
  6  7  1  1
  6  8  1  0
  6 36  1  0
  8  9  1  0
  8 42  1  0
  8 43  1  0
  9 10  1  0
  9 44  1  0
  9 45  1  0
 10 11  1  0
 10 46  1  0
 10 47  1  0
 11 12  1  0
 11 36  1  0
 12 13  1  0
 12 48  1  0
 12 49  1  0
 13 14  2  0
 13 15  1  0
 15 16  1  0
 15 26  1  0
 16 17  2  0
 17 18  1  0
 17 25  1  0
 18 19  2  0
 18 24  1  0
 19 20  1  0
 19 50  1  0
 20 21  2  0
 20 51  1  0
 21 22  1  0
 21 52  1  0
 22 23  1  0
 22 24  2  0
 23 53  1  0
 23 54  1  0
 23 55  1  0
 24 56  1  0
 25 26  1  0
 25 57  1  0
 25 58  1  0
 26 27  1  6
 26 28  1  0
 28 29  2  0
 28 34  1  0
 29 30  1  0
 29 59  1  0
 30 31  1  0
 30 32  2  0
 31 60  1  0
 31 61  1  0
 31 62  1  0
 32 33  1  0
 32 63  1  0
 33 34  2  0
 33 64  1  0
 34 35  1  0
 35 65  1  0
 35 66  1  0
 35 67  1  0
 36 68  1  0
 36 69  1  0
M  END

