
     RDKit          3D

 39 42  0  0  0  0  0  0  0  0999 V2000
    1.9546   -0.9609    0.0582 O   0  0  0  0  0  0  0  0  0  0  0  0
    2.3548    0.1422   -0.2887 C   0  0  0  0  0  0  0  0  0  0  0  0
    1.8320    1.3132    0.4906 C   0  0  0  0  0  0  0  0  0  0  0  0
    1.1092    1.2542    1.6520 C   0  0  0  0  0  0  0  0  0  0  0  0
    0.8299    2.6179    1.9381 C   0  0  0  0  0  0  0  0  0  0  0  0
    1.3308    3.4244    1.0320 N   0  0  0  0  0  0  0  0  0  0  0  0
    1.9627    2.6057    0.1179 O   0  0  0  0  0  0  0  0  0  0  0  0
    3.2260    0.3169   -1.3319 N   0  0  0  0  0  0  0  0  0  0  0  0
    3.6652   -0.8619   -2.0782 C   0  0  0  0  0  0  0  0  0  0  0  0
    3.4745   -0.6510   -3.5767 C   0  0  0  0  0  0  0  0  0  0  0  0
    4.1111    0.5896   -4.0223 N   0  0  0  0  0  0  0  0  0  0  0  0
    4.6233    0.6750   -5.3045 C   0  0  0  0  0  0  0  0  0  0  0  0
    4.9914    1.9058   -5.9192 C   0  0  0  0  0  0  0  0  0  0  0  0
    5.5402    1.8644   -7.1808 C   0  0  0  0  0  0  0  0  0  0  0  0
    5.6855    0.5959   -7.7752 C   0  0  0  0  0  0  0  0  0  0  0  0
    6.2410    0.4553   -9.0658 N   0  0  0  0  0  0  0  0  0  0  0  0
    6.4215   -0.7066   -9.7664 C   0  0  0  0  0  0  0  0  0  0  0  0
    6.9918   -0.3481  -10.9709 C   0  0  0  0  0  0  0  0  0  0  0  0
    7.1165    1.0649  -10.9002 C   0  0  0  0  0  0  0  0  0  0  0  0
    6.6618    1.5403   -9.7495 N   0  0  0  0  0  0  0  0  0  0  0  0
    5.3049   -0.5189   -7.1730 N   0  0  0  0  0  0  0  0  0  0  0  0
    4.7783   -0.4848   -5.9656 N   0  0  0  0  0  0  0  0  0  0  0  0
    3.7255    1.7661   -3.2601 C   0  0  0  0  0  0  0  0  0  0  0  0
    3.9094    1.5328   -1.7565 C   0  0  0  0  0  0  0  0  0  0  0  0
    0.8257    0.3582    2.1950 H   0  0  0  0  0  0  0  0  0  0  0  0
    0.2755    3.0426    2.7756 H   0  0  0  0  0  0  0  0  0  0  0  0
    3.0846   -1.7240   -1.7300 H   0  0  0  0  0  0  0  0  0  0  0  0
    4.7327   -1.0503   -1.8601 H   0  0  0  0  0  0  0  0  0  0  0  0
    2.3902   -0.6221   -3.8079 H   0  0  0  0  0  0  0  0  0  0  0  0
    3.9112   -1.4826   -4.1404 H   0  0  0  0  0  0  0  0  0  0  0  0
    4.8449    2.8661   -5.4266 H   0  0  0  0  0  0  0  0  0  0  0  0
    5.8487    2.7579   -7.7225 H   0  0  0  0  0  0  0  0  0  0  0  0
    6.1273   -1.6603   -9.3384 H   0  0  0  0  0  0  0  0  0  0  0  0
    7.2782   -1.0084  -11.7860 H   0  0  0  0  0  0  0  0  0  0  0  0
    7.5212    1.7485  -11.6468 H   0  0  0  0  0  0  0  0  0  0  0  0
    2.6684    2.0413   -3.4580 H   0  0  0  0  0  0  0  0  0  0  0  0
    4.3493    2.6243   -3.5393 H   0  0  0  0  0  0  0  0  0  0  0  0
    3.5415    2.4021   -1.2070 H   0  0  0  0  0  0  0  0  0  0  0  0
    4.9899    1.4211   -1.5460 H   0  0  0  0  0  0  0  0  0  0  0  0
  1  2  2  0
  2  3  1  0
  2  8  1  0
  3  4  2  0
  3  7  1  0
  4  5  1  0
  4 25  1  0
  5  6  2  0
  5 26  1  0
  6  7  1  0
  8  9  1  0
  8 24  1  0
  9 10  1  0
  9 27  1  0
  9 28  1  0
 10 11  1  0
 10 29  1  0
 10 30  1  0
 11 12  1  0
 11 23  1  0
 12 13  2  0
 12 22  1  0
 13 14  1  0
 13 31  1  0
 14 15  2  0
 14 32  1  0
 15 16  1  0
 15 21  1  0
 16 17  1  0
 16 20  1  0
 17 18  2  0
 17 33  1  0
 18 19  1  0
 18 34  1  0
 19 20  2  0
 19 35  1  0
 21 22  2  0
 23 24  1  0
 23 36  1  0
 23 37  1  0
 24 38  1  0
 24 39  1  0
M  END

