
     RDKit          3D

 35 36  0  0  0  0  0  0  0  0999 V2000
    4.2075   -0.8223    0.6275 C   0  0  0  0  0  0  0  0  0  0  0  0
    4.5267   -0.0797   -0.6741 C   0  0  1  0  0  0  0  0  0  0  0  0
    3.3405   -0.1040   -1.5750 N   0  0  0  0  0  0  0  0  0  0  0  0
    2.8680   -1.1206   -2.2900 C   0  0  0  0  0  0  0  0  0  0  0  0
    3.5504   -2.3770   -2.3486 C   0  0  0  0  0  0  0  0  0  0  0  0
    2.9327   -3.4755   -2.8966 C   0  0  0  0  0  0  0  0  0  0  0  0
    1.6099   -3.3420   -3.3920 C   0  0  0  0  0  0  0  0  0  0  0  0
    0.9890   -2.1821   -3.4545 N   0  0  0  0  0  0  0  0  0  0  0  0
    1.5877   -1.0596   -3.0214 C   0  0  0  0  0  0  0  0  0  0  0  0
    0.9192    0.1003   -3.2674 N   0  0  0  0  0  0  0  0  0  0  0  0
   -0.4671    0.0436   -3.7294 C   0  0  0  0  0  0  0  0  0  0  0  0
    1.5411    1.4212   -3.3651 C   0  0  0  0  0  0  0  0  0  0  0  0
    4.9530    1.3767   -0.4306 C   0  0  0  0  0  0  0  0  0  0  0  0
    4.8261    2.3505   -1.3984 C   0  0  0  0  0  0  0  0  0  0  0  0
    5.2180    3.6620   -1.2396 N   0  0  0  0  0  0  0  0  0  0  0  0
    5.7977    3.8665   -0.0196 C   0  0  0  0  0  0  0  0  0  0  0  0
    5.9571    2.8910    0.9412 C   0  0  0  0  0  0  0  0  0  0  0  0
    5.5289    1.5909    0.7885 N   0  0  0  0  0  0  0  0  0  0  0  0
    4.0087   -1.8926    0.4627 H   0  0  0  0  0  0  0  0  0  0  0  0
    3.3388   -0.3684    1.1289 H   0  0  0  0  0  0  0  0  0  0  0  0
    5.0638   -0.6924    1.2985 H   0  0  0  0  0  0  0  0  0  0  0  0
    5.3349   -0.6121   -1.2016 H   0  0  0  0  0  0  0  0  0  0  0  0
    2.8038    0.7547   -1.5190 H   0  0  0  0  0  0  0  0  0  0  0  0
    4.5412   -2.4585   -1.9087 H   0  0  0  0  0  0  0  0  0  0  0  0
    3.4338   -4.4442   -2.9233 H   0  0  0  0  0  0  0  0  0  0  0  0
    1.0641   -4.2167   -3.7604 H   0  0  0  0  0  0  0  0  0  0  0  0
   -0.9668   -0.8416   -3.3256 H   0  0  0  0  0  0  0  0  0  0  0  0
   -0.5125   -0.0074   -4.8303 H   0  0  0  0  0  0  0  0  0  0  0  0
   -0.9788    0.9565   -3.3940 H   0  0  0  0  0  0  0  0  0  0  0  0
    2.6240    1.3475   -3.5004 H   0  0  0  0  0  0  0  0  0  0  0  0
    1.3241    2.0435   -2.4823 H   0  0  0  0  0  0  0  0  0  0  0  0
    1.1259    1.9326   -4.2454 H   0  0  0  0  0  0  0  0  0  0  0  0
    4.4297    2.1078   -2.3916 H   0  0  0  0  0  0  0  0  0  0  0  0
    6.1594    4.8824    0.1856 H   0  0  0  0  0  0  0  0  0  0  0  0
    6.4459    3.1347    1.8912 H   0  0  0  0  0  0  0  0  0  0  0  0
  1  2  1  0
  1 19  1  0
  1 20  1  0
  1 21  1  0
  2  3  1  0
  2 13  1  0
  2 22  1  6
  3  4  1  0
  3 23  1  0
  4  5  2  0
  4  9  1  0
  5  6  1  0
  5 24  1  0
  6  7  2  0
  6 25  1  0
  7  8  1  0
  7 26  1  0
  8  9  2  0
  9 10  1  0
 10 11  1  0
 10 12  1  0
 11 27  1  0
 11 28  1  0
 11 29  1  0
 12 30  1  0
 12 31  1  0
 12 32  1  0
 13 14  2  0
 13 18  1  0
 14 15  1  0
 14 33  1  0
 15 16  2  0
 16 17  1  0
 16 34  1  0
 17 18  2  0
 17 35  1  0
M  END

