
     RDKit          3D

 45 47  0  0  0  0  0  0  0  0999 V2000
    3.1286    2.7612    6.3283 C   0  0  0  0  0  0  0  0  0  0  0  0
    4.5180    2.5641    6.0554 O   0  0  0  0  0  0  0  0  0  0  0  0
    4.8402    1.4248    5.4200 C   0  0  0  0  0  0  0  0  0  0  0  0
    4.0378    0.5666    5.1399 O   0  0  0  0  0  0  0  0  0  0  0  0
    6.3172    1.3679    5.0919 C   0  0  0  0  0  0  0  0  0  0  0  0
    6.6637    1.5864    3.5805 C   0  0  2  0  0  0  0  0  0  0  0  0
    8.0589    1.5130    3.4371 O   0  0  0  0  0  0  0  0  0  0  0  0
    6.1137    2.9723    3.1932 C   0  0  0  0  0  0  0  0  0  0  0  0
    4.9547    3.2092    2.9667 O   0  0  0  0  0  0  0  0  0  0  0  0
    7.0830    3.9030    3.2027 O   0  0  0  0  0  0  0  0  0  0  0  0
    6.6901    5.2469    2.8969 C   0  0  0  0  0  0  0  0  0  0  0  0
    6.0078    0.5103    2.6829 C   0  0  2  0  0  0  0  0  0  0  0  0
    4.9308    0.5040    2.8769 H   0  0  0  0  0  0  0  0  0  0  0  0
    6.6255   -0.9021    2.8606 C   0  0  0  0  0  0  0  0  0  0  0  0
    7.5705   -1.1519    1.7234 C   0  0  0  0  0  0  0  0  0  0  0  0
    7.4401   -0.2799    0.6969 C   0  0  0  0  0  0  0  0  0  0  0  0
    8.1392   -0.3145   -0.4445 O   0  0  0  0  0  0  0  0  0  0  0  0
    9.0716   -1.3109   -0.6105 C   0  0  0  0  0  0  0  0  0  0  0  0
    9.7510   -1.2861   -1.8331 C   0  0  0  0  0  0  0  0  0  0  0  0
   10.7195   -2.2523   -2.0993 C   0  0  0  0  0  0  0  0  0  0  0  0
   11.4727   -2.2656   -3.4059 C   0  0  0  0  0  0  0  0  0  0  0  0
   10.9842   -3.2268   -1.1222 C   0  0  0  0  0  0  0  0  0  0  0  0
   10.3049   -3.2509    0.0996 C   0  0  0  0  0  0  0  0  0  0  0  0
   10.5739   -4.1934    1.0232 O   0  0  0  0  0  0  0  0  0  0  0  0
    9.3102   -2.2741    0.3917 C   0  0  0  0  0  0  0  0  0  0  0  0
    8.5383   -2.2422    1.6724 C   0  0  0  0  0  0  0  0  0  0  0  0
    8.6757   -3.0373    2.5930 O   0  0  0  0  0  0  0  0  0  0  0  0
    6.2211    0.9765    0.8820 S   0  0  0  0  0  0  0  0  0  0  0  0
    3.0564    3.7084    6.8769 H   0  0  0  0  0  0  0  0  0  0  0  0
    2.7276    1.9350    6.9337 H   0  0  0  0  0  0  0  0  0  0  0  0
    2.5599    2.8194    5.3882 H   0  0  0  0  0  0  0  0  0  0  0  0
    6.6998    0.3773    5.3743 H   0  0  0  0  0  0  0  0  0  0  0  0
    6.8634    2.1263    5.6689 H   0  0  0  0  0  0  0  0  0  0  0  0
    8.4058    2.4161    3.4201 H   0  0  0  0  0  0  0  0  0  0  0  0
    7.5990    5.8554    2.9707 H   0  0  0  0  0  0  0  0  0  0  0  0
    5.9315    5.5948    3.6127 H   0  0  0  0  0  0  0  0  0  0  0  0
    6.2722    5.2996    1.8812 H   0  0  0  0  0  0  0  0  0  0  0  0
    5.8283   -1.6649    2.8755 H   0  0  0  0  0  0  0  0  0  0  0  0
    7.1558   -0.9949    3.8198 H   0  0  0  0  0  0  0  0  0  0  0  0
    9.5038   -0.5051   -2.5536 H   0  0  0  0  0  0  0  0  0  0  0  0
   11.1771   -1.4274   -4.0530 H   0  0  0  0  0  0  0  0  0  0  0  0
   11.2896   -3.2021   -3.9590 H   0  0  0  0  0  0  0  0  0  0  0  0
   12.5605   -2.1990   -3.2381 H   0  0  0  0  0  0  0  0  0  0  0  0
   11.7429   -3.9931   -1.3151 H   0  0  0  0  0  0  0  0  0  0  0  0
   11.2628   -4.7787    0.6802 H   0  0  0  0  0  0  0  0  0  0  0  0
  1  2  1  0
  1 29  1  0
  1 30  1  0
  1 31  1  0
  2  3  1  0
  3  4  2  0
  3  5  1  0
  5  6  1  0
  5 32  1  0
  5 33  1  0
  6  7  1  1
  6  8  1  0
  6 12  1  0
  7 34  1  0
  8  9  2  0
  8 10  1  0
 10 11  1  0
 11 35  1  0
 11 36  1  0
 11 37  1  0
 12 13  1  1
 12 14  1  0
 12 28  1  0
 14 15  1  0
 14 38  1  0
 14 39  1  0
 15 16  2  0
 15 26  1  0
 16 17  1  0
 16 28  1  0
 17 18  1  0
 18 19  1  0
 18 25  2  0
 19 20  2  0
 19 40  1  0
 20 21  1  0
 20 22  1  0
 21 41  1  0
 21 42  1  0
 21 43  1  0
 22 23  2  0
 22 44  1  0
 23 24  1  0
 23 25  1  0
 24 45  1  0
 25 26  1  0
 26 27  2  0
M  END

