
     RDKit          3D

 38 40  0  0  0  0  0  0  0  0999 V2000
    1.0683    0.1430    0.2679 C   0  0  0  0  0  0  0  0  0  0  0  0
    2.5229    0.1359    0.0733 C   0  0  0  0  0  0  0  0  0  0  0  0
    3.3040    1.2386   -0.0413 N   0  0  0  0  0  0  0  0  0  0  0  0
    4.5346    0.7892   -0.2102 C   0  0  0  0  0  0  0  0  0  0  0  0
    4.5320   -0.6604   -0.2157 C   0  0  0  0  0  0  0  0  0  0  0  0
    3.2708   -1.0317   -0.0261 N   0  0  0  0  0  0  0  0  0  0  0  0
    2.7377   -2.4210   -0.0271 C   0  0  0  0  0  0  0  0  0  0  0  0
    3.2741   -3.3327    0.8524 C   0  0  0  0  0  0  0  0  0  0  0  0
    2.7586   -4.6783    0.7868 C   0  0  0  0  0  0  0  0  0  0  0  0
    1.7405   -4.9331   -0.1724 C   0  0  0  0  0  0  0  0  0  0  0  0
    1.1943   -6.2174   -0.2088 N   0  0  0  0  0  0  0  0  0  0  0  0
    0.3624   -6.7233   -1.2891 C   0  0  1  0  0  0  0  0  0  0  0  0
    1.1464   -6.9881   -2.5846 C   0  0  0  0  0  0  0  0  0  0  0  0
   -0.4378   -7.9237   -0.7817 C   0  0  0  0  0  0  0  0  0  0  0  0
   -1.0140   -7.8933    0.4987 C   0  0  0  0  0  0  0  0  0  0  0  0
   -1.7715   -8.9768    0.9388 C   0  0  0  0  0  0  0  0  0  0  0  0
   -1.9298  -10.0724    0.0829 C   0  0  0  0  0  0  0  0  0  0  0  0
   -1.3877  -10.1263   -1.1333 N   0  0  0  0  0  0  0  0  0  0  0  0
   -0.6646   -9.0793   -1.5461 C   0  0  0  0  0  0  0  0  0  0  0  0
    1.2968   -3.9021   -1.0086 C   0  0  0  0  0  0  0  0  0  0  0  0
    1.7866   -2.5993   -0.9362 N   0  0  0  0  0  0  0  0  0  0  0  0
    0.6898    1.1709    0.2546 H   0  0  0  0  0  0  0  0  0  0  0  0
    0.8210   -0.3466    1.2256 H   0  0  0  0  0  0  0  0  0  0  0  0
    0.6160   -0.4951   -0.5084 H   0  0  0  0  0  0  0  0  0  0  0  0
    5.4012    1.4403   -0.3258 H   0  0  0  0  0  0  0  0  0  0  0  0
    5.3378   -1.3763   -0.3510 H   0  0  0  0  0  0  0  0  0  0  0  0
    4.0386   -3.0576    1.5798 H   0  0  0  0  0  0  0  0  0  0  0  0
    3.0825   -5.4478    1.4866 H   0  0  0  0  0  0  0  0  0  0  0  0
    1.7871   -6.9224    0.2179 H   0  0  0  0  0  0  0  0  0  0  0  0
   -0.3795   -5.9338   -1.5048 H   0  0  0  0  0  0  0  0  0  0  0  0
    1.8562   -7.8218   -2.4569 H   0  0  0  0  0  0  0  0  0  0  0  0
    1.7170   -6.0871   -2.8511 H   0  0  0  0  0  0  0  0  0  0  0  0
    0.4812   -7.2290   -3.4286 H   0  0  0  0  0  0  0  0  0  0  0  0
   -0.8504   -7.0211    1.1359 H   0  0  0  0  0  0  0  0  0  0  0  0
   -2.2324   -8.9774    1.9298 H   0  0  0  0  0  0  0  0  0  0  0  0
   -2.5182  -10.9427    0.3991 H   0  0  0  0  0  0  0  0  0  0  0  0
   -0.2387   -9.1681   -2.5502 H   0  0  0  0  0  0  0  0  0  0  0  0
    0.5341   -4.0715   -1.7687 H   0  0  0  0  0  0  0  0  0  0  0  0
  1  2  1  0
  1 22  1  0
  1 23  1  0
  1 24  1  0
  2  3  2  0
  2  6  1  0
  3  4  1  0
  4  5  2  0
  4 25  1  0
  5  6  1  0
  5 26  1  0
  6  7  1  0
  7  8  2  0
  7 21  1  0
  8  9  1  0
  8 27  1  0
  9 10  2  0
  9 28  1  0
 10 11  1  0
 10 20  1  0
 11 12  1  0
 11 29  1  0
 12 13  1  0
 12 14  1  0
 12 30  1  6
 13 31  1  0
 13 32  1  0
 13 33  1  0
 14 15  2  0
 14 19  1  0
 15 16  1  0
 15 34  1  0
 16 17  2  0
 16 35  1  0
 17 18  1  0
 17 36  1  0
 18 19  2  0
 19 37  1  0
 20 21  2  0
 20 38  1  0
M  END

