
     RDKit          3D

 66 70  0  0  0  0  0  0  0  0999 V2000
    0.3033   -0.8080   -1.5019 C   0  0  0  0  0  0  0  0  0  0  0  0
    1.7870   -0.2566   -0.6339 S   0  0  1  0  0  0  0  0  0  0  0  0
    1.8314    1.2138   -0.7294 O   0  0  0  0  0  0  0  0  0  0  0  0
    1.6729   -0.8511    0.7428 O   0  0  0  0  0  0  0  0  0  0  0  0
    3.1872   -0.9700   -1.4162 C   0  0  0  0  0  0  0  0  0  0  0  0
    3.6538   -0.2980   -2.5479 C   0  0  0  0  0  0  0  0  0  0  0  0
    4.6309   -0.8587   -3.3851 C   0  0  0  0  0  0  0  0  0  0  0  0
    5.1034   -0.1483   -4.5184 C   0  0  0  0  0  0  0  0  0  0  0  0
    5.4976    0.4204   -5.4595 N   0  0  0  0  0  0  0  0  0  0  0  0
    5.1347   -2.1847   -3.0632 C   0  0  0  0  0  0  0  0  0  0  0  0
    4.6812   -2.8294   -1.9286 C   0  0  0  0  0  0  0  0  0  0  0  0
    3.7124   -2.2857   -1.0600 C   0  0  0  0  0  0  0  0  0  0  0  0
    3.4919   -2.9169    0.2989 C   0  0  1  0  0  0  0  0  0  0  0  0
    3.0028   -4.2908    0.3279 C   0  0  0  0  0  0  0  0  0  0  0  0
    3.5267   -5.2694    1.1716 C   0  0  0  0  0  0  0  0  0  0  0  0
    2.7943   -6.5843    1.0799 C   0  0  0  0  0  0  0  0  0  0  0  0
    1.6927   -6.3280    0.0347 C   0  0  0  0  0  0  0  0  0  0  0  0
    1.8049   -4.8496   -0.3563 C   0  0  0  0  0  0  0  0  0  0  0  0
    1.0255   -4.2427   -1.0518 O   0  0  0  0  0  0  0  0  0  0  0  0
    4.5670   -5.0048    1.9740 N   0  0  0  0  0  0  0  0  0  0  0  0
    5.1211   -6.0011    2.8559 C   0  0  0  0  0  0  0  0  0  0  0  0
    5.8562   -7.0661    2.3305 C   0  0  0  0  0  0  0  0  0  0  0  0
    6.3869   -8.0250    3.1980 C   0  0  0  0  0  0  0  0  0  0  0  0
    6.1856   -7.9135    4.5735 C   0  0  0  0  0  0  0  0  0  0  0  0
    5.4538   -6.8348    5.0887 C   0  0  0  0  0  0  0  0  0  0  0  0
    5.2129   -6.7493    6.5802 C   0  0  1  0  0  0  0  0  0  0  0  0
    6.3280   -7.0353    7.2703 F   0  0  0  0  0  0  0  0  0  0  0  0
    4.7959   -5.5325    6.9521 F   0  0  0  0  0  0  0  0  0  0  0  0
    4.2736   -7.6338    6.9643 F   0  0  0  0  0  0  0  0  0  0  0  0
    4.9266   -5.8663    4.2344 C   0  0  0  0  0  0  0  0  0  0  0  0
    5.1564   -3.6550    2.0724 C   0  0  0  0  0  0  0  0  0  0  0  0
    6.0700   -3.4941    2.8424 O   0  0  0  0  0  0  0  0  0  0  0  0
    4.6215   -2.7274    1.2377 N   0  0  0  0  0  0  0  0  0  0  0  0
    4.9393   -1.3451    1.5637 C   0  0  0  0  0  0  0  0  0  0  0  0
    3.9732   -0.8744    2.6793 C   0  0  0  0  0  0  0  0  0  0  0  0
    3.4122   -1.6966    3.3918 O   0  0  0  0  0  0  0  0  0  0  0  0
    3.8010    0.4599    2.8041 N   0  0  0  0  0  0  0  0  0  0  0  0
    2.7530    0.9842    3.6992 C   0  0  0  0  0  0  0  0  0  0  0  0
    2.4904    2.3877    3.1478 C   0  0  0  0  0  0  0  0  0  0  0  0
    3.8504    2.7879    2.5839 C   0  0  2  0  0  0  0  0  0  0  0  0
    3.7792    3.8208    1.6795 F   0  0  0  0  0  0  0  0  0  0  0  0
    4.3407    1.4962    1.9189 C   0  0  0  0  0  0  0  0  0  0  0  0
   -0.5473   -0.4156   -0.9269 H   0  0  0  0  0  0  0  0  0  0  0  0
    0.3035   -1.9053   -1.5194 H   0  0  0  0  0  0  0  0  0  0  0  0
    0.3191   -0.3873   -2.5154 H   0  0  0  0  0  0  0  0  0  0  0  0
    3.2418    0.6849   -2.7865 H   0  0  0  0  0  0  0  0  0  0  0  0
    5.8699   -2.6546   -3.7160 H   0  0  0  0  0  0  0  0  0  0  0  0
    5.1165   -3.8036   -1.6817 H   0  0  0  0  0  0  0  0  0  0  0  0
    2.6258   -2.3261    0.7540 H   0  0  0  0  0  0  0  0  0  0  0  0
    2.3936   -6.8496    2.0729 H   0  0  0  0  0  0  0  0  0  0  0  0
    3.4764   -7.4007    0.8001 H   0  0  0  0  0  0  0  0  0  0  0  0
    0.6792   -6.5254    0.4136 H   0  0  0  0  0  0  0  0  0  0  0  0
    1.8175   -6.9417   -0.8714 H   0  0  0  0  0  0  0  0  0  0  0  0
    6.0333   -7.1327    1.2549 H   0  0  0  0  0  0  0  0  0  0  0  0
    6.9707   -8.8554    2.7959 H   0  0  0  0  0  0  0  0  0  0  0  0
    6.6069   -8.6572    5.2527 H   0  0  0  0  0  0  0  0  0  0  0  0
    4.3808   -5.0088    4.6295 H   0  0  0  0  0  0  0  0  0  0  0  0
    4.8512   -0.7430    0.6529 H   0  0  0  0  0  0  0  0  0  0  0  0
    5.9745   -1.2894    1.9280 H   0  0  0  0  0  0  0  0  0  0  0  0
    3.1151    1.0046    4.7423 H   0  0  0  0  0  0  0  0  0  0  0  0
    1.8761    0.3233    3.6652 H   0  0  0  0  0  0  0  0  0  0  0  0
    2.1065    3.0892    3.9018 H   0  0  0  0  0  0  0  0  0  0  0  0
    1.7812    2.3426    2.3056 H   0  0  0  0  0  0  0  0  0  0  0  0
    4.5387    3.0979    3.3913 H   0  0  0  0  0  0  0  0  0  0  0  0
    5.4377    1.4488    1.8437 H   0  0  0  0  0  0  0  0  0  0  0  0
    3.9017    1.4473    0.9066 H   0  0  0  0  0  0  0  0  0  0  0  0
  2  1  1  1
  1 43  1  0
  1 44  1  0
  1 45  1  0
  2  3  2  0
  2  4  2  0
  2  5  1  0
  5  6  2  0
  5 12  1  0
  6  7  1  0
  6 46  1  0
  7  8  1  0
  7 10  2  0
  8  9  3  0
 10 11  1  0
 10 47  1  0
 11 12  2  0
 11 48  1  0
 12 13  1  0
 13 14  1  0
 13 33  1  0
 13 49  1  1
 14 15  2  0
 14 18  1  0
 15 16  1  0
 15 20  1  0
 16 17  1  0
 16 50  1  0
 16 51  1  0
 17 18  1  0
 17 52  1  0
 17 53  1  0
 18 19  2  0
 20 21  1  0
 20 31  1  0
 21 22  2  0
 21 30  1  0
 22 23  1  0
 22 54  1  0
 23 24  2  0
 23 55  1  0
 24 25  1  0
 24 56  1  0
 25 26  1  0
 25 30  2  0
 26 27  1  1
 26 28  1  0
 26 29  1  0
 30 57  1  0
 31 32  2  0
 31 33  1  0
 33 34  1  0
 34 35  1  0
 34 58  1  0
 34 59  1  0
 35 36  2  0
 35 37  1  0
 37 38  1  0
 37 42  1  0
 38 39  1  0
 38 60  1  0
 38 61  1  0
 39 40  1  0
 39 62  1  0
 39 63  1  0
 40 41  1  0
 40 42  1  0
 40 64  1  1
 42 65  1  0
 42 66  1  0
M  END

