
     RDKit          3D

 75 78  0  0  0  0  0  0  0  0999 V2000
    3.6901    0.9911   -0.2802 C   0  0  0  0  0  0  0  0  0  0  0  0
    2.8027   -0.1248   -0.3004 O   0  0  0  0  0  0  0  0  0  0  0  0
    3.2491   -1.3715   -0.2660 C   0  0  0  0  0  0  0  0  0  0  0  0
    4.6174   -1.6835   -0.2079 C   0  0  0  0  0  0  0  0  0  0  0  0
    5.0420   -3.0102   -0.1671 C   0  0  0  0  0  0  0  0  0  0  0  0
    6.3010   -3.4122   -0.1124 O   0  0  0  0  0  0  0  0  0  0  0  0
    7.3651   -2.4657   -0.0925 C   0  0  0  0  0  0  0  0  0  0  0  0
    4.0549   -4.0737   -0.1827 C   0  0  0  0  0  0  0  0  0  0  0  0
    4.5482   -5.2997   -0.1387 O   0  0  0  0  0  0  0  0  0  0  0  0
    3.6810   -6.4338   -0.1477 C   0  0  0  0  0  0  0  0  0  0  0  0
    2.6983   -3.7427   -0.2418 C   0  0  0  0  0  0  0  0  0  0  0  0
    2.2427   -2.4195   -0.2894 C   0  0  0  0  0  0  0  0  0  0  0  0
    0.8034   -2.2114   -0.3588 C   0  0  0  0  0  0  0  0  0  0  0  0
    0.0841   -1.0742   -0.4564 C   0  0  0  0  0  0  0  0  0  0  0  0
   -1.4393   -1.1905   -0.5249 C   0  0  0  0  0  0  0  0  0  0  0  0
   -1.9105   -2.3210   -0.4930 O   0  0  0  0  0  0  0  0  0  0  0  0
   -2.2374    0.0285   -0.6253 C   0  0  0  0  0  0  0  0  0  0  0  0
   -3.6486   -0.0891   -0.7022 C   0  0  0  0  0  0  0  0  0  0  0  0
   -4.4801    1.0085   -0.8013 C   0  0  0  0  0  0  0  0  0  0  0  0
   -3.9312    2.3240   -0.8314 C   0  0  0  0  0  0  0  0  0  0  0  0
   -4.6803    3.4556   -0.9455 N   0  0  0  0  0  0  0  0  0  0  0  0
   -6.1060    3.6016   -0.9988 C   0  0  0  0  0  0  0  0  0  0  0  0
   -6.8453    2.6395   -0.7282 O   0  0  0  0  0  0  0  0  0  0  0  0
   -6.5797    4.9264   -1.2933 C   0  0  0  0  0  0  0  0  0  0  0  0
   -5.7523    6.0091   -1.6641 C   0  0  0  0  0  0  0  0  0  0  0  0
   -5.9640    7.4232   -1.5884 C   0  0  0  0  0  0  0  0  0  0  0  0
   -7.0360    8.0501   -0.8877 C   0  0  0  0  0  0  0  0  0  0  0  0
   -7.1443    9.4331   -0.8115 C   0  0  0  0  0  0  0  0  0  0  0  0
   -6.2131   10.2938   -1.4225 C   0  0  0  0  0  0  0  0  0  0  0  0
   -6.3745   11.7932   -1.3741 C   0  0  0  0  0  0  0  0  0  0  0  0
   -5.1446    9.6878   -2.1101 C   0  0  0  0  0  0  0  0  0  0  0  0
   -5.0213    8.3068   -2.1903 C   0  0  0  0  0  0  0  0  0  0  0  0
   -7.9862    5.0107   -1.1329 N   0  0  0  0  0  0  0  0  0  0  0  0
   -8.8667    5.5681   -2.0283 C   0  0  0  0  0  0  0  0  0  0  0  0
   -8.5343    6.1828   -3.0303 O   0  0  0  0  0  0  0  0  0  0  0  0
  -10.3279    5.3889   -1.6774 C   0  0  0  0  0  0  0  0  0  0  0  0
  -10.7956    5.0063   -0.4090 C   0  0  0  0  0  0  0  0  0  0  0  0
  -12.1653    4.8594   -0.1706 C   0  0  0  0  0  0  0  0  0  0  0  0
  -13.0869    5.0979   -1.1941 C   0  0  0  0  0  0  0  0  0  0  0  0
  -12.6306    5.4931   -2.4571 C   0  0  0  0  0  0  0  0  0  0  0  0
  -11.2641    5.6424   -2.6933 C   0  0  0  0  0  0  0  0  0  0  0  0
   -2.5163    2.4485   -0.7499 C   0  0  0  0  0  0  0  0  0  0  0  0
   -1.6993    1.3367   -0.6513 C   0  0  0  0  0  0  0  0  0  0  0  0
    4.2859    0.9997    0.6460 H   0  0  0  0  0  0  0  0  0  0  0  0
    3.0538    1.8822   -0.3144 H   0  0  0  0  0  0  0  0  0  0  0  0
    4.3536    0.9788   -1.1590 H   0  0  0  0  0  0  0  0  0  0  0  0
    5.3526   -0.8847   -0.1938 H   0  0  0  0  0  0  0  0  0  0  0  0
    8.2901   -3.0515   -0.0487 H   0  0  0  0  0  0  0  0  0  0  0  0
    7.2967   -1.8177    0.7959 H   0  0  0  0  0  0  0  0  0  0  0  0
    7.3605   -1.8516   -1.0073 H   0  0  0  0  0  0  0  0  0  0  0  0
    4.3350   -7.3116   -0.1042 H   0  0  0  0  0  0  0  0  0  0  0  0
    3.0839   -6.4602   -1.0723 H   0  0  0  0  0  0  0  0  0  0  0  0
    3.0154   -6.4220    0.7293 H   0  0  0  0  0  0  0  0  0  0  0  0
    1.9509   -4.5341   -0.2557 H   0  0  0  0  0  0  0  0  0  0  0  0
    0.2010   -3.1267   -0.3392 H   0  0  0  0  0  0  0  0  0  0  0  0
    0.5589   -0.0991   -0.4921 H   0  0  0  0  0  0  0  0  0  0  0  0
   -4.0786   -1.0925   -0.6808 H   0  0  0  0  0  0  0  0  0  0  0  0
   -5.5619    0.9061   -0.8458 H   0  0  0  0  0  0  0  0  0  0  0  0
   -4.1745    4.3337   -0.9451 H   0  0  0  0  0  0  0  0  0  0  0  0
   -4.7888    5.7315   -2.1042 H   0  0  0  0  0  0  0  0  0  0  0  0
   -7.7752    7.4300   -0.3808 H   0  0  0  0  0  0  0  0  0  0  0  0
   -7.9840    9.8655   -0.2567 H   0  0  0  0  0  0  0  0  0  0  0  0
   -6.9970   12.1695   -2.2078 H   0  0  0  0  0  0  0  0  0  0  0  0
   -5.4030   12.3098   -1.4428 H   0  0  0  0  0  0  0  0  0  0  0  0
   -6.8624   12.1197   -0.4410 H   0  0  0  0  0  0  0  0  0  0  0  0
   -4.3928   10.3198   -2.5953 H   0  0  0  0  0  0  0  0  0  0  0  0
   -4.1753    7.8757   -2.7352 H   0  0  0  0  0  0  0  0  0  0  0  0
   -8.3453    4.2333   -0.5839 H   0  0  0  0  0  0  0  0  0  0  0  0
  -10.0914    4.8437    0.4101 H   0  0  0  0  0  0  0  0  0  0  0  0
  -12.5135    4.5653    0.8233 H   0  0  0  0  0  0  0  0  0  0  0  0
  -14.1580    4.9838   -1.0063 H   0  0  0  0  0  0  0  0  0  0  0  0
  -13.3466    5.6891   -3.2602 H   0  0  0  0  0  0  0  0  0  0  0  0
  -10.8823    5.9621   -3.6647 H   0  0  0  0  0  0  0  0  0  0  0  0
   -2.0721    3.4475   -0.7684 H   0  0  0  0  0  0  0  0  0  0  0  0
   -0.6226    1.5061   -0.5934 H   0  0  0  0  0  0  0  0  0  0  0  0
  1  2  1  0
  1 44  1  0
  1 45  1  0
  1 46  1  0
  2  3  1  0
  3  4  2  0
  3 12  1  0
  4  5  1  0
  4 47  1  0
  5  6  1  0
  5  8  2  0
  6  7  1  0
  7 48  1  0
  7 49  1  0
  7 50  1  0
  8  9  1  0
  8 11  1  0
  9 10  1  0
 10 51  1  0
 10 52  1  0
 10 53  1  0
 11 12  2  0
 11 54  1  0
 12 13  1  0
 13 14  2  0
 13 55  1  0
 14 15  1  0
 14 56  1  0
 15 16  2  0
 15 17  1  0
 17 18  2  0
 17 43  1  0
 18 19  1  0
 18 57  1  0
 19 20  2  0
 19 58  1  0
 20 21  1  0
 20 42  1  0
 21 22  1  0
 21 59  1  0
 22 23  2  0
 22 24  1  0
 24 25  2  0
 24 33  1  0
 25 26  1  0
 25 60  1  0
 26 27  2  0
 26 32  1  0
 27 28  1  0
 27 61  1  0
 28 29  2  0
 28 62  1  0
 29 30  1  0
 29 31  1  0
 30 63  1  0
 30 64  1  0
 30 65  1  0
 31 32  2  0
 31 66  1  0
 32 67  1  0
 33 34  1  0
 33 68  1  0
 34 35  2  0
 34 36  1  0
 36 37  2  0
 36 41  1  0
 37 38  1  0
 37 69  1  0
 38 39  2  0
 38 70  1  0
 39 40  1  0
 39 71  1  0
 40 41  2  0
 40 72  1  0
 41 73  1  0
 42 43  2  0
 42 74  1  0
 43 75  1  0
M  END

