
     RDKit          3D

 30 31  0  0  0  0  0  0  0  0999 V2000
    0.8697    0.0962   -0.6311 C   0  0  0  0  0  0  0  0  0  0  0  0
    2.3234    0.3793   -0.2614 C   0  0  0  0  0  0  0  0  0  0  0  0
    3.1688    0.9597   -1.3973 C   0  0  1  0  0  0  0  0  0  0  0  0
    2.5410    2.5994   -1.9066 Cl  0  0  0  0  0  0  0  0  0  0  0  0
    4.6250    1.0654   -1.0449 C   0  0  0  0  0  0  0  0  0  0  0  0
    5.4745    2.1538   -0.9679 C   0  0  0  0  0  0  0  0  0  0  0  0
    6.6601    1.6178   -0.5716 N   0  0  0  0  0  0  0  0  0  0  0  0
    7.9766    2.2666   -0.4439 C   0  0  0  0  0  0  0  0  0  0  0  0
    8.7145    2.3489   -1.7395 C   0  0  0  0  0  0  0  0  0  0  0  0
    9.2626    1.1888   -2.3744 C   0  0  0  0  0  0  0  0  0  0  0  0
    9.8719    1.2937   -3.6609 C   0  0  0  0  0  0  0  0  0  0  0  0
    9.9561    2.5312   -4.3604 C   0  0  0  0  0  0  0  0  0  0  0  0
    9.4062    3.6974   -3.7598 C   0  0  0  0  0  0  0  0  0  0  0  0
    8.7976    3.5688   -2.4847 C   0  0  0  0  0  0  0  0  0  0  0  0
    8.2732    4.6665   -1.9374 F   0  0  0  0  0  0  0  0  0  0  0  0
    6.5590    0.2868   -0.4311 N   0  0  0  0  0  0  0  0  0  0  0  0
    5.3335   -0.0492   -0.7085 N   0  0  0  0  0  0  0  0  0  0  0  0
    0.3288   -0.3410    0.2224 H   0  0  0  0  0  0  0  0  0  0  0  0
    0.8014   -0.6163   -1.4702 H   0  0  0  0  0  0  0  0  0  0  0  0
    0.3477    1.0179   -0.9295 H   0  0  0  0  0  0  0  0  0  0  0  0
    2.8324   -0.5513    0.0426 H   0  0  0  0  0  0  0  0  0  0  0  0
    2.3825    1.0649    0.6006 H   0  0  0  0  0  0  0  0  0  0  0  0
    3.0601    0.3313   -2.2946 H   0  0  0  0  0  0  0  0  0  0  0  0
    5.3297    3.2126   -1.1562 H   0  0  0  0  0  0  0  0  0  0  0  0
    8.5258    1.6444    0.2822 H   0  0  0  0  0  0  0  0  0  0  0  0
    7.8177    3.2622   -0.0097 H   0  0  0  0  0  0  0  0  0  0  0  0
    9.1887    0.2213   -1.8766 H   0  0  0  0  0  0  0  0  0  0  0  0
   10.2841    0.3930   -4.1213 H   0  0  0  0  0  0  0  0  0  0  0  0
   10.4312    2.5831   -5.3400 H   0  0  0  0  0  0  0  0  0  0  0  0
    9.4465    4.6806   -4.2288 H   0  0  0  0  0  0  0  0  0  0  0  0
  1  2  1  0
  1 18  1  0
  1 19  1  0
  1 20  1  0
  2  3  1  0
  2 21  1  0
  2 22  1  0
  3  4  1  0
  3  5  1  0
  3 23  1  6
  5  6  2  0
  5 17  1  0
  6  7  1  0
  6 24  1  0
  7  8  1  0
  7 16  1  0
  8  9  1  0
  8 25  1  0
  8 26  1  0
  9 10  2  0
  9 14  1  0
 10 11  1  0
 10 27  1  0
 11 12  2  0
 11 28  1  0
 12 13  1  0
 12 29  1  0
 13 14  2  0
 13 30  1  0
 14 15  1  0
 16 17  2  0
M  END

