
     RDKit          3D

 34 35  0  0  0  0  0  0  0  0999 V2000
    3.6997   -4.2772   -1.4319 C   0  0  0  0  0  0  0  0  0  0  0  0
    2.4069   -4.2352   -0.5960 C   0  0  1  0  0  0  0  0  0  0  0  0
    1.8948   -5.5448   -0.1902 N   0  0  0  0  0  0  0  0  0  0  0  0
    2.6045   -3.3919    0.6461 C   0  0  0  0  0  0  0  0  0  0  0  0
    3.4251   -3.6941    1.5942 N   0  0  0  0  0  0  0  0  0  0  0  0
    3.4068   -2.7664    2.6265 C   0  0  0  0  0  0  0  0  0  0  0  0
    4.2696   -3.0066    3.7115 C   0  0  0  0  0  0  0  0  0  0  0  0
    4.2998   -2.2413    4.7899 O   0  0  0  0  0  0  0  0  0  0  0  0
    5.1457   -4.0428    3.7027 N   0  0  0  0  0  0  0  0  0  0  0  0
    5.7786   -4.5967    4.8967 C   0  0  1  0  0  0  0  0  0  0  0  0
    4.8186   -5.4369    5.7609 C   0  0  0  0  0  0  0  0  0  0  0  0
    4.3012   -6.6527    4.9842 C   0  0  0  0  0  0  0  0  0  0  0  0
    5.3540   -7.4062    4.1744 C   0  0  0  0  0  0  0  0  0  0  0  0
    5.1797   -8.5435    3.7819 O   0  0  0  0  0  0  0  0  0  0  0  0
    6.4804   -6.6895    3.8271 N   0  0  0  0  0  0  0  0  0  0  0  0
    6.9566   -5.4719    4.4719 C   0  0  0  0  0  0  0  0  0  0  0  0
    2.5124   -1.6785    2.4270 C   0  0  0  0  0  0  0  0  0  0  0  0
    1.6936   -1.8954    0.9034 S   0  0  0  0  0  0  0  0  0  0  0  0
    3.5485   -4.8852   -2.3392 H   0  0  0  0  0  0  0  0  0  0  0  0
    4.5180   -4.7225   -0.8443 H   0  0  0  0  0  0  0  0  0  0  0  0
    4.0131   -3.2678   -1.7448 H   0  0  0  0  0  0  0  0  0  0  0  0
    1.6229   -3.7492   -1.2020 H   0  0  0  0  0  0  0  0  0  0  0  0
    2.5605   -5.9797    0.4507 H   0  0  0  0  0  0  0  0  0  0  0  0
    1.8274   -6.1594   -1.0025 H   0  0  0  0  0  0  0  0  0  0  0  0
    5.0193   -4.6405    2.8865 H   0  0  0  0  0  0  0  0  0  0  0  0
    6.1695   -3.7562    5.4913 H   0  0  0  0  0  0  0  0  0  0  0  0
    3.9814   -4.8129    6.1094 H   0  0  0  0  0  0  0  0  0  0  0  0
    5.3679   -5.7612    6.6615 H   0  0  0  0  0  0  0  0  0  0  0  0
    3.5301   -6.3425    4.2570 H   0  0  0  0  0  0  0  0  0  0  0  0
    3.8137   -7.3860    5.6423 H   0  0  0  0  0  0  0  0  0  0  0  0
    7.1545   -7.2379    3.2994 H   0  0  0  0  0  0  0  0  0  0  0  0
    7.5968   -4.9202    3.7662 H   0  0  0  0  0  0  0  0  0  0  0  0
    7.5684   -5.6962    5.3663 H   0  0  0  0  0  0  0  0  0  0  0  0
    2.3227   -0.8193    3.0619 H   0  0  0  0  0  0  0  0  0  0  0  0
  1  2  1  0
  1 19  1  0
  1 20  1  0
  1 21  1  0
  2  3  1  0
  2  4  1  0
  2 22  1  6
  3 23  1  0
  3 24  1  0
  4  5  2  0
  4 18  1  0
  5  6  1  0
  6  7  1  0
  6 17  2  0
  7  8  2  0
  7  9  1  0
  9 10  1  0
  9 25  1  0
 10 11  1  0
 10 16  1  0
 10 26  1  1
 11 12  1  0
 11 27  1  0
 11 28  1  0
 12 13  1  0
 12 29  1  0
 12 30  1  0
 13 14  2  0
 13 15  1  0
 15 16  1  0
 15 31  1  0
 16 32  1  0
 16 33  1  0
 17 18  1  0
 17 34  1  0
M  END

