
     RDKit          3D

 34 36  0  0  0  0  0  0  0  0999 V2000
    1.1127    0.1052   -0.1664 C   0  0  0  0  0  0  0  0  0  0  0  0
    2.5567    0.1153   -0.1739 N   0  0  0  0  0  0  0  0  0  0  0  0
    3.2825   -1.0635   -0.2703 C   0  0  0  0  0  0  0  0  0  0  0  0
    2.7201   -2.1668   -0.2485 O   0  0  0  0  0  0  0  0  0  0  0  0
    4.7412   -0.9666   -0.3869 C   0  0  0  0  0  0  0  0  0  0  0  0
    5.5170    0.2099   -0.2874 C   0  0  0  0  0  0  0  0  0  0  0  0
    6.8986    0.2105   -0.4074 C   0  0  0  0  0  0  0  0  0  0  0  0
    7.5506   -1.0470   -0.6125 C   0  0  0  0  0  0  0  0  0  0  0  0
    8.8939   -1.2965   -0.7664 N   0  0  0  0  0  0  0  0  0  0  0  0
    9.0104   -2.5958   -0.9302 C   0  0  0  0  0  0  0  0  0  0  0  0
    7.7355   -3.2505   -0.8541 C   0  0  0  0  0  0  0  0  0  0  0  0
    7.4520   -4.6226   -0.8185 C   0  0  0  0  0  0  0  0  0  0  0  0
    6.2789   -5.3178   -0.4659 C   0  0  0  0  0  0  0  0  0  0  0  0
    6.4355   -6.7073   -0.5412 C   0  0  0  0  0  0  0  0  0  0  0  0
    5.4870   -7.6192   -0.2513 O   0  0  0  0  0  0  0  0  0  0  0  0
    7.7212   -7.1170   -0.9529 C   0  0  0  0  0  0  0  0  0  0  0  0
    8.3140   -8.4637   -1.1696 C   0  0  0  0  0  0  0  0  0  0  0  0
    7.4928   -9.5232   -0.9421 N   0  0  0  0  0  0  0  0  0  0  0  0
    9.4767   -8.5661   -1.5321 O   0  0  0  0  0  0  0  0  0  0  0  0
    8.7473   -5.7623   -1.2465 S   0  0  0  0  0  0  0  0  0  0  0  0
    6.8113   -2.1829   -0.6720 N   0  0  0  0  0  0  0  0  0  0  0  0
    5.4367   -2.2066   -0.5957 C   0  0  0  0  0  0  0  0  0  0  0  0
    0.6721    0.2644   -1.1703 H   0  0  0  0  0  0  0  0  0  0  0  0
    0.7172    0.8820    0.5092 H   0  0  0  0  0  0  0  0  0  0  0  0
    0.7838   -0.8805    0.1873 H   0  0  0  0  0  0  0  0  0  0  0  0
    3.0104    0.9768   -0.4458 H   0  0  0  0  0  0  0  0  0  0  0  0
    5.0240    1.1680   -0.0983 H   0  0  0  0  0  0  0  0  0  0  0  0
    7.5034    1.1119   -0.3368 H   0  0  0  0  0  0  0  0  0  0  0  0
    9.9750   -3.0892   -1.0627 H   0  0  0  0  0  0  0  0  0  0  0  0
    5.3701   -4.8348   -0.1138 H   0  0  0  0  0  0  0  0  0  0  0  0
    4.6583   -7.1841   -0.0038 H   0  0  0  0  0  0  0  0  0  0  0  0
    6.5335   -9.4053   -0.6404 H   0  0  0  0  0  0  0  0  0  0  0  0
    7.8746  -10.4506   -1.0837 H   0  0  0  0  0  0  0  0  0  0  0  0
    4.8988   -3.1200   -0.8025 H   0  0  0  0  0  0  0  0  0  0  0  0
  1  2  1  0
  1 23  1  0
  1 24  1  0
  1 25  1  0
  2  3  1  0
  2 26  1  0
  3  4  2  0
  3  5  1  0
  5  6  1  0
  5 22  2  0
  6  7  2  0
  6 27  1  0
  7  8  1  0
  7 28  1  0
  8  9  2  0
  8 21  1  0
  9 10  1  0
 10 11  2  0
 10 29  1  0
 11 12  1  0
 11 21  1  0
 12 13  2  0
 12 20  1  0
 13 14  1  0
 13 30  1  0
 14 15  1  0
 14 16  2  0
 15 31  1  0
 16 17  1  0
 16 20  1  0
 17 18  1  0
 17 19  2  0
 18 32  1  0
 18 33  1  0
 21 22  1  0
 22 34  1  0
M  END

