
     RDKit          3D

 41 44  0  0  0  0  0  0  0  0999 V2000
    2.5995    1.7077   -0.7479 O   0  0  0  0  0  0  0  0  0  0  0  0
    2.2846    0.9153    0.1240 C   0  0  0  0  0  0  0  0  0  0  0  0
    0.8710    0.6098    0.4768 C   0  0  0  0  0  0  0  0  0  0  0  0
   -0.1325    1.2143   -0.1905 C   0  0  0  0  0  0  0  0  0  0  0  0
   -1.5736    1.0495   -0.0006 C   0  0  0  0  0  0  0  0  0  0  0  0
   -2.1366    0.1952    0.9711 C   0  0  0  0  0  0  0  0  0  0  0  0
   -3.5149    0.0709    1.1122 C   0  0  0  0  0  0  0  0  0  0  0  0
   -4.3637    0.8071    0.2748 C   0  0  0  0  0  0  0  0  0  0  0  0
   -6.0922    0.6520    0.4502 Cl  0  0  0  0  0  0  0  0  0  0  0  0
   -3.8380    1.6625   -0.6972 C   0  0  0  0  0  0  0  0  0  0  0  0
   -2.4545    1.7766   -0.8264 C   0  0  0  0  0  0  0  0  0  0  0  0
    3.2039    0.2061    0.8862 N   0  0  0  0  0  0  0  0  0  0  0  0
    4.6007    0.2263    0.8357 C   0  0  0  0  0  0  0  0  0  0  0  0
    5.3314    1.0361   -0.0705 C   0  0  0  0  0  0  0  0  0  0  0  0
    6.7158    0.9904   -0.0561 C   0  0  0  0  0  0  0  0  0  0  0  0
    7.4267    0.1629    0.8336 C   0  0  0  0  0  0  0  0  0  0  0  0
    8.9005    0.1194    0.8380 C   0  0  0  0  0  0  0  0  0  0  0  0
    9.5958    0.7861    0.0855 O   0  0  0  0  0  0  0  0  0  0  0  0
    9.4783   -0.8100    1.8452 C   0  0  0  0  0  0  0  0  0  0  0  0
   10.8715   -0.9537    1.9630 C   0  0  0  0  0  0  0  0  0  0  0  0
   11.4126   -1.8193    2.9043 C   0  0  0  0  0  0  0  0  0  0  0  0
   10.5663   -2.5579    3.7462 C   0  0  0  0  0  0  0  0  0  0  0  0
    9.1844   -2.4288    3.6430 C   0  0  0  0  0  0  0  0  0  0  0  0
    8.1317   -3.3445    4.6862 Cl  0  0  0  0  0  0  0  0  0  0  0  0
    8.6303   -1.5516    2.6884 C   0  0  0  0  0  0  0  0  0  0  0  0
    7.2786   -1.4628    2.6268 O   0  0  0  0  0  0  0  0  0  0  0  0
    6.6842   -0.6307    1.7255 C   0  0  0  0  0  0  0  0  0  0  0  0
    5.2892   -0.6048    1.7320 C   0  0  0  0  0  0  0  0  0  0  0  0
    0.6750   -0.1104    1.2771 H   0  0  0  0  0  0  0  0  0  0  0  0
    0.1760    1.9151   -0.9743 H   0  0  0  0  0  0  0  0  0  0  0  0
   -1.4886   -0.3852    1.6313 H   0  0  0  0  0  0  0  0  0  0  0  0
   -3.9418   -0.5924    1.8661 H   0  0  0  0  0  0  0  0  0  0  0  0
   -4.5098    2.2306   -1.3426 H   0  0  0  0  0  0  0  0  0  0  0  0
   -2.0422    2.4454   -1.5863 H   0  0  0  0  0  0  0  0  0  0  0  0
    2.8114   -0.4207    1.5786 H   0  0  0  0  0  0  0  0  0  0  0  0
    4.7912    1.6774   -0.7617 H   0  0  0  0  0  0  0  0  0  0  0  0
    7.3012    1.6028   -0.7451 H   0  0  0  0  0  0  0  0  0  0  0  0
   11.4956   -0.3621    1.2906 H   0  0  0  0  0  0  0  0  0  0  0  0
   12.4950   -1.9319    2.9973 H   0  0  0  0  0  0  0  0  0  0  0  0
   10.9746   -3.2428    4.4915 H   0  0  0  0  0  0  0  0  0  0  0  0
    4.7605   -1.2419    2.4444 H   0  0  0  0  0  0  0  0  0  0  0  0
  1  2  2  0
  2  3  1  0
  2 12  1  0
  3  4  2  0
  3 29  1  0
  4  5  1  0
  4 30  1  0
  5  6  2  0
  5 11  1  0
  6  7  1  0
  6 31  1  0
  7  8  2  0
  7 32  1  0
  8  9  1  0
  8 10  1  0
 10 11  2  0
 10 33  1  0
 11 34  1  0
 12 13  1  0
 12 35  1  0
 13 14  2  0
 13 28  1  0
 14 15  1  0
 14 36  1  0
 15 16  2  0
 15 37  1  0
 16 17  1  0
 16 27  1  0
 17 18  2  0
 17 19  1  0
 19 20  2  0
 19 25  1  0
 20 21  1  0
 20 38  1  0
 21 22  2  0
 21 39  1  0
 22 23  1  0
 22 40  1  0
 23 24  1  0
 23 25  2  0
 25 26  1  0
 26 27  1  0
 27 28  2  0
 28 41  1  0
M  END

