
     RDKit          3D

 42 45  0  0  0  0  0  0  0  0999 V2000
    4.2983    1.0365    1.1758 C   0  0  0  0  0  0  0  0  0  0  0  0
    3.9275   -0.3242    1.1802 O   0  0  0  0  0  0  0  0  0  0  0  0
    3.0887   -0.7874    0.2204 C   0  0  0  0  0  0  0  0  0  0  0  0
    2.5402   -0.0163   -0.7913 C   0  0  0  0  0  0  0  0  0  0  0  0
    1.6719   -0.6114   -1.7450 C   0  0  0  0  0  0  0  0  0  0  0  0
    1.3530   -1.9484   -1.6967 C   0  0  0  0  0  0  0  0  0  0  0  0
    1.9002   -2.7713   -0.6681 C   0  0  0  0  0  0  0  0  0  0  0  0
    1.5751   -4.0849   -0.6371 N   0  0  0  0  0  0  0  0  0  0  0  0
    2.0744   -4.8649    0.3122 C   0  0  0  0  0  0  0  0  0  0  0  0
    1.7081   -6.2888    0.3265 C   0  0  0  0  0  0  0  0  0  0  0  0
    0.8885   -6.8673   -0.5744 C   0  0  0  0  0  0  0  0  0  0  0  0
    0.5216   -8.2757   -0.5663 C   0  0  0  0  0  0  0  0  0  0  0  0
   -0.3050   -8.8149   -1.4974 N   0  0  0  0  0  0  0  0  0  0  0  0
   -0.3828  -10.0943   -1.1426 C   0  0  0  0  0  0  0  0  0  0  0  0
   -1.0773  -11.2179   -1.6844 C   0  0  0  0  0  0  0  0  0  0  0  0
   -1.9297  -11.0474   -2.9061 C   0  0  0  0  0  0  0  0  0  0  0  0
   -0.9639  -12.3959   -1.1061 N   0  0  0  0  0  0  0  0  0  0  0  0
   -0.1897  -12.5403    0.0008 C   0  0  0  0  0  0  0  0  0  0  0  0
    0.5199  -11.5205    0.6008 C   0  0  0  0  0  0  0  0  0  0  0  0
    1.3828  -11.6235    1.8138 C   0  0  0  0  0  0  0  0  0  0  0  0
    0.3957  -10.2958   -0.0096 N   0  0  0  0  0  0  0  0  0  0  0  0
    0.9714   -9.1477    0.3606 N   0  0  0  0  0  0  0  0  0  0  0  0
    2.9551   -4.3636    1.3178 C   0  0  0  0  0  0  0  0  0  0  0  0
    3.3030   -3.0318    1.3101 C   0  0  0  0  0  0  0  0  0  0  0  0
    2.7788   -2.1848    0.3032 C   0  0  0  0  0  0  0  0  0  0  0  0
    4.9778    1.1790    2.0267 H   0  0  0  0  0  0  0  0  0  0  0  0
    3.4229    1.6989    1.2997 H   0  0  0  0  0  0  0  0  0  0  0  0
    4.8247    1.3132    0.2448 H   0  0  0  0  0  0  0  0  0  0  0  0
    2.7644    1.0471   -0.8700 H   0  0  0  0  0  0  0  0  0  0  0  0
    1.2530    0.0204   -2.5327 H   0  0  0  0  0  0  0  0  0  0  0  0
    0.6875   -2.4156   -2.4239 H   0  0  0  0  0  0  0  0  0  0  0  0
    2.1372   -6.9008    1.1251 H   0  0  0  0  0  0  0  0  0  0  0  0
    0.4561   -6.2642   -1.3754 H   0  0  0  0  0  0  0  0  0  0  0  0
   -2.7253  -10.3057   -2.7272 H   0  0  0  0  0  0  0  0  0  0  0  0
   -2.3791  -12.0112   -3.1769 H   0  0  0  0  0  0  0  0  0  0  0  0
   -1.3317  -10.6667   -3.7501 H   0  0  0  0  0  0  0  0  0  0  0  0
   -0.1367  -13.5436    0.4338 H   0  0  0  0  0  0  0  0  0  0  0  0
    1.3880  -12.6541    2.1931 H   0  0  0  0  0  0  0  0  0  0  0  0
    1.0240  -10.9477    2.6071 H   0  0  0  0  0  0  0  0  0  0  0  0
    2.4164  -11.3167    1.5851 H   0  0  0  0  0  0  0  0  0  0  0  0
    3.3435   -5.0409    2.0817 H   0  0  0  0  0  0  0  0  0  0  0  0
    3.9735   -2.6146    2.0629 H   0  0  0  0  0  0  0  0  0  0  0  0
  1  2  1  0
  1 26  1  0
  1 27  1  0
  1 28  1  0
  2  3  1  0
  3  4  2  0
  3 25  1  0
  4  5  1  0
  4 29  1  0
  5  6  2  0
  5 30  1  0
  6  7  1  0
  6 31  1  0
  7  8  1  0
  7 25  2  0
  8  9  2  0
  9 10  1  0
  9 23  1  0
 10 11  2  0
 10 32  1  0
 11 12  1  0
 11 33  1  0
 12 13  1  0
 12 22  2  0
 13 14  2  0
 14 15  1  0
 14 21  1  0
 15 16  1  0
 15 17  2  0
 16 34  1  0
 16 35  1  0
 16 36  1  0
 17 18  1  0
 18 19  2  0
 18 37  1  0
 19 20  1  0
 19 21  1  0
 20 38  1  0
 20 39  1  0
 20 40  1  0
 21 22  1  0
 23 24  2  0
 23 41  1  0
 24 25  1  0
 24 42  1  0
M  END

