
     RDKit          3D

 55 57  0  0  0  0  0  0  0  0999 V2000
    5.5165   -0.9333   -0.2619 C   0  0  0  0  0  0  0  0  0  0  0  0
    4.2465   -0.1282   -0.2807 C   0  0  0  0  0  0  0  0  0  0  0  0
    4.3423    1.3167   -0.1625 C   0  0  0  0  0  0  0  0  0  0  0  0
    3.1541    2.0623   -0.1803 C   0  0  0  0  0  0  0  0  0  0  0  0
    3.2681    3.4065   -0.0769 F   0  0  0  0  0  0  0  0  0  0  0  0
    1.8886    1.5229   -0.2917 C   0  0  0  0  0  0  0  0  0  0  0  0
    1.7653    0.0810   -0.3929 C   0  0  0  0  0  0  0  0  0  0  0  0
    2.9714   -0.6586   -0.3912 C   0  0  0  0  0  0  0  0  0  0  0  0
    2.8223   -2.1053   -0.5122 N   0  0  0  0  0  0  0  0  0  0  0  0
    2.6906   -2.6888   -1.8285 C   0  0  0  0  0  0  0  0  0  0  0  0
    3.0366   -4.1776   -1.8962 C   0  0  0  0  0  0  0  0  0  0  0  0
    2.3879   -4.9642   -0.7565 C   0  0  0  0  0  0  0  0  0  0  0  0
    2.8176   -4.3676    0.5895 C   0  0  2  0  0  0  0  0  0  0  0  0
    2.2621   -5.0309    1.7496 N   0  0  0  0  0  0  0  0  0  0  0  0
    2.9717   -6.0786    2.3414 C   0  0  0  0  0  0  0  0  0  0  0  0
    4.1045   -6.3749    1.9983 O   0  0  0  0  0  0  0  0  0  0  0  0
    2.2871   -6.7344    3.3327 N   0  0  0  0  0  0  0  0  0  0  0  0
    2.8801   -7.8475    4.0558 C   0  0  0  0  0  0  0  0  0  0  0  0
    3.8902   -7.4286    5.1458 C   0  0  1  0  0  0  0  0  0  0  0  0
    3.2701   -6.6102    6.2823 C   0  0  0  0  0  0  0  0  0  0  0  0
    2.4036   -7.4428    7.1060 N   0  0  0  0  0  0  0  0  0  0  0  0
    1.6949   -6.6887    8.1205 C   0  0  0  0  0  0  0  0  0  0  0  0
    3.1619   -8.5590    7.6568 C   0  0  0  0  0  0  0  0  0  0  0  0
    3.7865   -9.3734    6.5291 C   0  0  0  0  0  0  0  0  0  0  0  0
    4.5648   -8.5687    5.6617 O   0  0  0  0  0  0  0  0  0  0  0  0
    2.4846   -2.8660    0.6673 C   0  0  0  0  0  0  0  0  0  0  0  0
    6.1922   -0.6393   -1.0887 H   0  0  0  0  0  0  0  0  0  0  0  0
    5.3664   -2.0213   -0.3391 H   0  0  0  0  0  0  0  0  0  0  0  0
    6.0912   -0.7554    0.6677 H   0  0  0  0  0  0  0  0  0  0  0  0
    5.3063    1.8170   -0.0850 H   0  0  0  0  0  0  0  0  0  0  0  0
    1.0143    2.1730   -0.2927 H   0  0  0  0  0  0  0  0  0  0  0  0
    0.7956   -0.3976   -0.5201 H   0  0  0  0  0  0  0  0  0  0  0  0
    3.2902   -2.0744   -2.5131 H   0  0  0  0  0  0  0  0  0  0  0  0
    1.6325   -2.5197   -2.1215 H   0  0  0  0  0  0  0  0  0  0  0  0
    4.1318   -4.2957   -1.8484 H   0  0  0  0  0  0  0  0  0  0  0  0
    2.7216   -4.5593   -2.8789 H   0  0  0  0  0  0  0  0  0  0  0  0
    2.6933   -6.0207   -0.7930 H   0  0  0  0  0  0  0  0  0  0  0  0
    1.2858   -4.9366   -0.8482 H   0  0  0  0  0  0  0  0  0  0  0  0
    3.9076   -4.4915    0.6786 H   0  0  0  0  0  0  0  0  0  0  0  0
    1.2494   -5.0608    1.8166 H   0  0  0  0  0  0  0  0  0  0  0  0
    1.4318   -6.3290    3.6929 H   0  0  0  0  0  0  0  0  0  0  0  0
    3.4149   -8.4882    3.3400 H   0  0  0  0  0  0  0  0  0  0  0  0
    2.0587   -8.4270    4.4993 H   0  0  0  0  0  0  0  0  0  0  0  0
    4.6696   -6.8262    4.6552 H   0  0  0  0  0  0  0  0  0  0  0  0
    2.6857   -5.7748    5.8617 H   0  0  0  0  0  0  0  0  0  0  0  0
    4.0923   -6.1563    6.8825 H   0  0  0  0  0  0  0  0  0  0  0  0
    1.0914   -5.8950    7.6511 H   0  0  0  0  0  0  0  0  0  0  0  0
    2.3720   -6.2036    8.8607 H   0  0  0  0  0  0  0  0  0  0  0  0
    1.0110   -7.3505    8.6758 H   0  0  0  0  0  0  0  0  0  0  0  0
    2.4899   -9.2052    8.2463 H   0  0  0  0  0  0  0  0  0  0  0  0
    3.9659   -8.2031    8.3434 H   0  0  0  0  0  0  0  0  0  0  0  0
    2.9873   -9.9028    5.9746 H   0  0  0  0  0  0  0  0  0  0  0  0
    4.4674  -10.1352    6.9386 H   0  0  0  0  0  0  0  0  0  0  0  0
    2.9659   -2.3817    1.5268 H   0  0  0  0  0  0  0  0  0  0  0  0
    1.3924   -2.7242    0.8130 H   0  0  0  0  0  0  0  0  0  0  0  0
  1  2  1  0
  1 27  1  0
  1 28  1  0
  1 29  1  0
  2  3  2  0
  2  8  1  0
  3  4  1  0
  3 30  1  0
  4  5  1  0
  4  6  2  0
  6  7  1  0
  6 31  1  0
  7  8  2  0
  7 32  1  0
  8  9  1  0
  9 10  1  0
  9 26  1  0
 10 11  1  0
 10 33  1  0
 10 34  1  0
 11 12  1  0
 11 35  1  0
 11 36  1  0
 12 13  1  0
 12 37  1  0
 12 38  1  0
 13 14  1  0
 13 26  1  0
 13 39  1  6
 14 15  1  0
 14 40  1  0
 15 16  2  0
 15 17  1  0
 17 18  1  0
 17 41  1  0
 18 19  1  0
 18 42  1  0
 18 43  1  0
 19 20  1  0
 19 25  1  0
 19 44  1  6
 20 21  1  0
 20 45  1  0
 20 46  1  0
 21 22  1  0
 21 23  1  0
 22 47  1  0
 22 48  1  0
 22 49  1  0
 23 24  1  0
 23 50  1  0
 23 51  1  0
 24 25  1  0
 24 52  1  0
 24 53  1  0
 26 54  1  0
 26 55  1  0
M  END

