
     RDKit          3D

 85 89  0  0  0  0  0  0  0  0999 V2000
   10.3304    0.9264    2.5942 C   0  0  0  0  0  0  0  0  0  0  0  0
   10.6108    1.3715    3.9519 N   0  0  0  0  0  0  0  0  0  0  0  0
   12.0231    1.4166    4.2974 C   0  0  0  0  0  0  0  0  0  0  0  0
   12.7061    2.7597    3.9959 C   0  0  0  0  0  0  0  0  0  0  0  0
   13.9214    2.8613    3.9785 O   0  0  0  0  0  0  0  0  0  0  0  0
   11.8378    3.7946    3.8136 N   0  0  0  0  0  0  0  0  0  0  0  0
   12.2722    5.1713    3.6722 C   0  0  1  0  0  0  0  0  0  0  0  0
   11.9490    5.7579    2.2862 C   0  0  0  0  0  0  0  0  0  0  0  0
   12.6286    6.6542    1.8341 O   0  0  0  0  0  0  0  0  0  0  0  0
   10.7465    5.2089    1.5292 C   0  0  0  0  0  0  0  0  0  0  0  0
   10.4466    5.9605    0.2328 C   0  0  0  0  0  0  0  0  0  0  0  0
    9.3095    5.3575   -0.6090 C   0  0  0  0  0  0  0  0  0  0  0  0
    7.8846    5.3611   -0.0023 C   0  0  2  0  0  0  0  0  0  0  0  0
    7.9321    4.9253    1.0127 H   0  0  0  0  0  0  0  0  0  0  0  0
    6.8453    4.5780   -0.8471 C   0  0  2  0  0  0  0  0  0  0  0  0
    5.9816    4.4232   -0.1797 H   0  0  0  0  0  0  0  0  0  0  0  0
    7.2571    3.2225   -1.4116 C   0  0  0  0  0  0  0  0  0  0  0  0
    6.3991    5.6202   -1.9202 C   0  0  1  0  0  0  0  0  0  0  0  0
    7.1053    5.5494   -2.7639 H   0  0  0  0  0  0  0  0  0  0  0  0
    5.0171    5.3917   -2.4740 C   0  0  0  0  0  0  0  0  0  0  0  0
    3.8154    5.7306   -1.8909 C   0  0  0  0  0  0  0  0  0  0  0  0
    2.7646    5.3145   -2.6889 N   0  0  0  0  0  0  0  0  0  0  0  0
    1.7859    5.4636   -2.4852 H   0  0  0  0  0  0  0  0  0  0  0  0
    3.2595    4.6975   -3.8114 C   0  0  0  0  0  0  0  0  0  0  0  0
    2.5886    4.1251   -4.9029 C   0  0  0  0  0  0  0  0  0  0  0  0
    3.3844    3.5764   -5.8971 C   0  0  0  0  0  0  0  0  0  0  0  0
    2.7893    3.0144   -6.9648 F   0  0  0  0  0  0  0  0  0  0  0  0
    4.7902    3.5792   -5.8437 C   0  0  0  0  0  0  0  0  0  0  0  0
    5.4401    4.1502   -4.7547 C   0  0  0  0  0  0  0  0  0  0  0  0
    4.6830    4.7221   -3.7131 C   0  0  0  0  0  0  0  0  0  0  0  0
    6.6204    6.9866   -1.2136 C   0  0  0  0  0  0  0  0  0  0  0  0
    7.2060    6.6555    0.0785 N   0  0  0  0  0  0  0  0  0  0  0  0
    7.6962    7.7412    0.8888 C   0  0  0  0  0  0  0  0  0  0  0  0
    6.5861    8.6341    1.4248 C   0  0  0  0  0  0  0  0  0  0  0  0
    6.7348   10.0220    1.5191 C   0  0  0  0  0  0  0  0  0  0  0  0
    5.7001   10.7875    2.0616 C   0  0  0  0  0  0  0  0  0  0  0  0
    4.5410   10.1333    2.4876 C   0  0  0  0  0  0  0  0  0  0  0  0
    4.3761    8.8101    2.3983 N   0  0  0  0  0  0  0  0  0  0  0  0
    5.3739    8.0905    1.8822 C   0  0  0  0  0  0  0  0  0  0  0  0
   11.7055    6.0835    4.8122 C   0  0  1  0  0  0  0  0  0  0  0  0
   11.9535    5.4780    6.2121 C   0  0  0  0  0  0  0  0  0  0  0  0
   13.4285    5.5322    6.6360 C   0  0  0  0  0  0  0  0  0  0  0  0
   13.9759    6.9646    6.5731 C   0  0  0  0  0  0  0  0  0  0  0  0
   13.7374    7.6043    5.1992 C   0  0  0  0  0  0  0  0  0  0  0  0
   12.2623    7.5247    4.7803 C   0  0  0  0  0  0  0  0  0  0  0  0
    9.2431    0.9074    2.4220 H   0  0  0  0  0  0  0  0  0  0  0  0
   10.7373   -0.0794    2.3587 H   0  0  0  0  0  0  0  0  0  0  0  0
   10.7668    1.6317    1.8683 H   0  0  0  0  0  0  0  0  0  0  0  0
   10.0983    0.8026    4.6208 H   0  0  0  0  0  0  0  0  0  0  0  0
   12.6346    0.6331    3.8080 H   0  0  0  0  0  0  0  0  0  0  0  0
   12.1395    1.2643    5.3835 H   0  0  0  0  0  0  0  0  0  0  0  0
   10.8551    3.5480    3.9210 H   0  0  0  0  0  0  0  0  0  0  0  0
   13.3693    5.1449    3.7310 H   0  0  0  0  0  0  0  0  0  0  0  0
    9.8837    5.2095    2.2215 H   0  0  0  0  0  0  0  0  0  0  0  0
   10.9402    4.1400    1.3277 H   0  0  0  0  0  0  0  0  0  0  0  0
   11.3666    5.9649   -0.3734 H   0  0  0  0  0  0  0  0  0  0  0  0
   10.2607    7.0200    0.4622 H   0  0  0  0  0  0  0  0  0  0  0  0
    9.5807    4.3115   -0.8340 H   0  0  0  0  0  0  0  0  0  0  0  0
    9.2859    5.8746   -1.5839 H   0  0  0  0  0  0  0  0  0  0  0  0
    8.0684    3.3047   -2.1526 H   0  0  0  0  0  0  0  0  0  0  0  0
    6.4025    2.7430   -1.9140 H   0  0  0  0  0  0  0  0  0  0  0  0
    7.5975    2.5404   -0.6146 H   0  0  0  0  0  0  0  0  0  0  0  0
    3.6194    6.2492   -0.9539 H   0  0  0  0  0  0  0  0  0  0  0  0
    1.5011    4.1004   -4.9908 H   0  0  0  0  0  0  0  0  0  0  0  0
    5.3440    3.1278   -6.6689 H   0  0  0  0  0  0  0  0  0  0  0  0
    6.5320    4.1505   -4.7153 H   0  0  0  0  0  0  0  0  0  0  0  0
    5.6808    7.5466   -1.0795 H   0  0  0  0  0  0  0  0  0  0  0  0
    7.2819    7.6387   -1.8262 H   0  0  0  0  0  0  0  0  0  0  0  0
    8.4344    8.3875    0.3617 H   0  0  0  0  0  0  0  0  0  0  0  0
    8.2335    7.3077    1.7505 H   0  0  0  0  0  0  0  0  0  0  0  0
    7.6540   10.5006    1.1669 H   0  0  0  0  0  0  0  0  0  0  0  0
    5.7862   11.8733    2.1473 H   0  0  0  0  0  0  0  0  0  0  0  0
    3.7089   10.7046    2.9165 H   0  0  0  0  0  0  0  0  0  0  0  0
    5.2192    7.0078    1.8075 H   0  0  0  0  0  0  0  0  0  0  0  0
   10.6103    6.1373    4.6592 H   0  0  0  0  0  0  0  0  0  0  0  0
   11.5783    4.4439    6.2575 H   0  0  0  0  0  0  0  0  0  0  0  0
   11.3494    6.0562    6.9343 H   0  0  0  0  0  0  0  0  0  0  0  0
   14.0285    4.8719    5.9857 H   0  0  0  0  0  0  0  0  0  0  0  0
   13.5329    5.1296    7.6578 H   0  0  0  0  0  0  0  0  0  0  0  0
   15.0508    6.9752    6.8202 H   0  0  0  0  0  0  0  0  0  0  0  0
   13.4741    7.5762    7.3467 H   0  0  0  0  0  0  0  0  0  0  0  0
   14.3632    7.1064    4.4386 H   0  0  0  0  0  0  0  0  0  0  0  0
   14.0589    8.6594    5.2091 H   0  0  0  0  0  0  0  0  0  0  0  0
   12.1302    7.9783    3.7879 H   0  0  0  0  0  0  0  0  0  0  0  0
   11.6577    8.1254    5.4837 H   0  0  0  0  0  0  0  0  0  0  0  0
  1  2  1  0
  1 46  1  0
  1 47  1  0
  1 48  1  0
  2  3  1  0
  2 49  1  0
  3  4  1  0
  3 50  1  0
  3 51  1  0
  4  5  2  0
  4  6  1  0
  6  7  1  0
  6 52  1  0
  7  8  1  0
  7 40  1  0
  7 53  1  1
  8  9  2  0
  8 10  1  0
 10 11  1  0
 10 54  1  0
 10 55  1  0
 11 12  1  0
 11 56  1  0
 11 57  1  0
 12 13  1  0
 12 58  1  0
 12 59  1  0
 13 14  1  1
 13 15  1  0
 13 32  1  0
 15 16  1  1
 15 17  1  0
 15 18  1  0
 17 60  1  0
 17 61  1  0
 17 62  1  0
 18 19  1  6
 18 20  1  0
 18 31  1  0
 20 21  2  0
 20 30  1  0
 21 22  1  0
 21 63  1  0
 22 23  1  0
 22 24  1  0
 24 25  1  0
 24 30  2  0
 25 26  2  0
 25 64  1  0
 26 27  1  0
 26 28  1  0
 28 29  2  0
 28 65  1  0
 29 30  1  0
 29 66  1  0
 31 32  1  0
 31 67  1  0
 31 68  1  0
 32 33  1  0
 33 34  1  0
 33 69  1  0
 33 70  1  0
 34 35  2  0
 34 39  1  0
 35 36  1  0
 35 71  1  0
 36 37  2  0
 36 72  1  0
 37 38  1  0
 37 73  1  0
 38 39  2  0
 39 74  1  0
 40 41  1  0
 40 45  1  0
 40 75  1  6
 41 42  1  0
 41 76  1  0
 41 77  1  0
 42 43  1  0
 42 78  1  0
 42 79  1  0
 43 44  1  0
 43 80  1  0
 43 81  1  0
 44 45  1  0
 44 82  1  0
 44 83  1  0
 45 84  1  0
 45 85  1  0
M  END

