
     RDKit          3D

 58 60  0  0  0  0  0  0  0  0999 V2000
    3.2856   -1.2580   -0.5634 C   0  0  0  0  0  0  0  0  0  0  0  0
    2.4990    0.0090   -0.1827 C   0  0  1  0  0  0  0  0  0  0  0  0
    2.5340    0.9805   -1.3859 C   0  0  0  0  0  0  0  0  0  0  0  0
    1.0352   -0.3990    0.1058 C   0  0  0  0  0  0  0  0  0  0  0  0
    3.0857    0.7117    1.0560 C   0  0  0  0  0  0  0  0  0  0  0  0
    4.2231    0.2428    1.7318 C   0  0  0  0  0  0  0  0  0  0  0  0
    4.7256    0.8979    2.8611 C   0  0  0  0  0  0  0  0  0  0  0  0
    4.1100    2.0585    3.3515 C   0  0  0  0  0  0  0  0  0  0  0  0
    4.6364    2.8619    4.5069 C   0  0  0  0  0  0  0  0  0  0  0  0
    4.4283    4.0630    4.5533 O   0  0  0  0  0  0  0  0  0  0  0  0
    5.4182    2.2002    5.6101 C   0  0  0  0  0  0  0  0  0  0  0  0
    6.3400    2.9853    6.3243 C   0  0  0  0  0  0  0  0  0  0  0  0
    7.0451    2.4255    7.3866 C   0  0  0  0  0  0  0  0  0  0  0  0
    6.8380    1.0995    7.7804 C   0  0  0  0  0  0  0  0  0  0  0  0
    5.8978    0.3135    7.0902 C   0  0  0  0  0  0  0  0  0  0  0  0
    5.5963   -1.0224    7.4176 N   0  0  0  0  0  0  0  0  0  0  0  0
    6.1237   -1.7972    8.4167 C   0  0  0  0  0  0  0  0  0  0  0  0
    6.9962   -1.4048    9.1770 O   0  0  0  0  0  0  0  0  0  0  0  0
    5.6264   -3.2289    8.5321 C   0  0  0  0  0  0  0  0  0  0  0  0
    6.4445   -4.0545    9.3297 C   0  0  0  0  0  0  0  0  0  0  0  0
    6.1811   -5.3944    9.5768 C   0  0  0  0  0  0  0  0  0  0  0  0
    5.0384   -5.9889    9.0102 C   0  0  0  0  0  0  0  0  0  0  0  0
    4.6993   -7.3327    9.1939 N   0  0  0  0  0  0  0  0  0  0  0  0
    5.6183   -8.5892    9.8599 S   0  0  1  0  0  0  0  0  0  0  0  0
    6.8662   -8.9340    8.6104 C   0  0  0  0  0  0  0  0  0  0  0  0
    6.3115   -8.1013   11.0475 O   0  0  0  0  0  0  0  0  0  0  0  0
    4.6864   -9.7104    9.9051 O   0  0  0  0  0  0  0  0  0  0  0  0
    4.1901   -5.1937    8.2228 C   0  0  0  0  0  0  0  0  0  0  0  0
    4.4777   -3.8473    7.9970 C   0  0  0  0  0  0  0  0  0  0  0  0
    3.2764   -3.0001    7.0170 Cl  0  0  0  0  0  0  0  0  0  0  0  0
    5.2008    0.8736    6.0030 C   0  0  0  0  0  0  0  0  0  0  0  0
    2.9865    2.5518    2.6637 C   0  0  0  0  0  0  0  0  0  0  0  0
    2.4820    1.8857    1.5529 C   0  0  0  0  0  0  0  0  0  0  0  0
    2.8276   -1.7286   -1.4475 H   0  0  0  0  0  0  0  0  0  0  0  0
    3.2812   -2.0038    0.2470 H   0  0  0  0  0  0  0  0  0  0  0  0
    4.3332   -1.0322   -0.8166 H   0  0  0  0  0  0  0  0  0  0  0  0
    2.1111    0.4963   -2.2815 H   0  0  0  0  0  0  0  0  0  0  0  0
    3.5670    1.2842   -1.6188 H   0  0  0  0  0  0  0  0  0  0  0  0
    1.9512    1.8941   -1.1945 H   0  0  0  0  0  0  0  0  0  0  0  0
    0.5977   -0.9012   -0.7726 H   0  0  0  0  0  0  0  0  0  0  0  0
    0.4035    0.4711    0.3402 H   0  0  0  0  0  0  0  0  0  0  0  0
    0.9785   -1.0943    0.9584 H   0  0  0  0  0  0  0  0  0  0  0  0
    4.7435   -0.6477    1.3792 H   0  0  0  0  0  0  0  0  0  0  0  0
    5.6253    0.5100    3.3425 H   0  0  0  0  0  0  0  0  0  0  0  0
    6.4817    4.0264    6.0302 H   0  0  0  0  0  0  0  0  0  0  0  0
    7.7729    3.0299    7.9341 H   0  0  0  0  0  0  0  0  0  0  0  0
    7.3841    0.6662    8.6142 H   0  0  0  0  0  0  0  0  0  0  0  0
    4.8724   -1.4464    6.8489 H   0  0  0  0  0  0  0  0  0  0  0  0
    7.3185   -3.5791    9.7775 H   0  0  0  0  0  0  0  0  0  0  0  0
    6.8333   -5.9706   10.2315 H   0  0  0  0  0  0  0  0  0  0  0  0
    3.8186   -7.6722    8.8183 H   0  0  0  0  0  0  0  0  0  0  0  0
    7.4550   -8.0256    8.4262 H   0  0  0  0  0  0  0  0  0  0  0  0
    6.3640   -9.2834    7.6996 H   0  0  0  0  0  0  0  0  0  0  0  0
    7.5041   -9.7236    9.0309 H   0  0  0  0  0  0  0  0  0  0  0  0
    3.2883   -5.6214    7.7815 H   0  0  0  0  0  0  0  0  0  0  0  0
    4.4589    0.2672    5.4782 H   0  0  0  0  0  0  0  0  0  0  0  0
    2.5213    3.4724    3.0218 H   0  0  0  0  0  0  0  0  0  0  0  0
    1.5993    2.2944    1.0556 H   0  0  0  0  0  0  0  0  0  0  0  0
  2  1  1  6
  1 34  1  0
  1 35  1  0
  1 36  1  0
  2  3  1  0
  2  4  1  0
  2  5  1  0
  3 37  1  0
  3 38  1  0
  3 39  1  0
  4 40  1  0
  4 41  1  0
  4 42  1  0
  5  6  2  0
  5 33  1  0
  6  7  1  0
  6 43  1  0
  7  8  2  0
  7 44  1  0
  8  9  1  0
  8 32  1  0
  9 10  2  0
  9 11  1  0
 11 12  2  0
 11 31  1  0
 12 13  1  0
 12 45  1  0
 13 14  2  0
 13 46  1  0
 14 15  1  0
 14 47  1  0
 15 16  1  0
 15 31  2  0
 16 17  1  0
 16 48  1  0
 17 18  2  0
 17 19  1  0
 19 20  2  0
 19 29  1  0
 20 21  1  0
 20 49  1  0
 21 22  2  0
 21 50  1  0
 22 23  1  0
 22 28  1  0
 24 23  1  6
 23 51  1  0
 24 25  1  0
 24 26  2  0
 24 27  2  0
 25 52  1  0
 25 53  1  0
 25 54  1  0
 28 29  2  0
 28 55  1  0
 29 30  1  0
 31 56  1  0
 32 33  2  0
 32 57  1  0
 33 58  1  0
M  END

