
     RDKit          3D

 30 31  0  0  0  0  0  0  0  0999 V2000
    1.1523   -0.3915   -0.3127 C   0  0  0  0  0  0  0  0  0  0  0  0
    2.6207   -0.1899   -0.0822 C   0  0  0  0  0  0  0  0  0  0  0  0
    3.1736    1.0426    0.1880 C   0  0  0  0  0  0  0  0  0  0  0  0
    4.5770    1.1640    0.3874 C   0  0  0  0  0  0  0  0  0  0  0  0
    5.3781   -0.0237    0.2953 C   0  0  0  0  0  0  0  0  0  0  0  0
    6.8501    0.1742    0.4637 C   0  0  0  0  0  0  0  0  0  0  0  0
    7.7447   -0.7575    0.2220 N   0  0  0  0  0  0  0  0  0  0  0  0
    7.2654    1.4120    0.8606 N   0  0  0  0  0  0  0  0  0  0  0  0
    8.6169    1.4585    0.9141 O   0  0  0  0  0  0  0  0  0  0  0  0
    4.7097   -1.2331    0.0474 C   0  0  0  0  0  0  0  0  0  0  0  0
    5.5462   -2.8590   -0.0696 S   0  0  0  0  0  0  0  0  0  0  0  0
    5.6058   -3.3777    1.6757 C   0  0  0  0  0  0  0  0  0  0  0  0
    5.0041   -4.6023    2.0204 C   0  0  0  0  0  0  0  0  0  0  0  0
    5.1446   -5.0366    3.3442 C   0  0  0  0  0  0  0  0  0  0  0  0
    5.8606   -4.2402    4.2314 C   0  0  0  0  0  0  0  0  0  0  0  0
    6.1170   -4.7799    6.0435 Br  0  0  0  0  0  0  0  0  0  0  0  0
    6.4181   -3.0258    3.7940 C   0  0  0  0  0  0  0  0  0  0  0  0
    6.2760   -2.6185    2.5301 N   0  0  0  0  0  0  0  0  0  0  0  0
    3.3884   -1.3364   -0.1460 N   0  0  0  0  0  0  0  0  0  0  0  0
    0.5953    0.5565   -0.3084 H   0  0  0  0  0  0  0  0  0  0  0  0
    0.7357   -1.0560    0.4654 H   0  0  0  0  0  0  0  0  0  0  0  0
    0.9889   -0.9061   -1.2754 H   0  0  0  0  0  0  0  0  0  0  0  0
    2.5350    1.9273    0.2487 H   0  0  0  0  0  0  0  0  0  0  0  0
    5.0295    2.1272    0.6002 H   0  0  0  0  0  0  0  0  0  0  0  0
    7.3918   -1.7184    0.0428 H   0  0  0  0  0  0  0  0  0  0  0  0
    8.7251   -0.5645    0.4106 H   0  0  0  0  0  0  0  0  0  0  0  0
    8.8161    2.3524    1.2312 H   0  0  0  0  0  0  0  0  0  0  0  0
    4.4490   -5.1816    1.2830 H   0  0  0  0  0  0  0  0  0  0  0  0
    4.6627   -5.9556    3.6839 H   0  0  0  0  0  0  0  0  0  0  0  0
    6.9922   -2.3933    4.4749 H   0  0  0  0  0  0  0  0  0  0  0  0
  1  2  1  0
  1 20  1  0
  1 21  1  0
  1 22  1  0
  2  3  2  0
  2 19  1  0
  3  4  1  0
  3 23  1  0
  4  5  2  0
  4 24  1  0
  5  6  1  0
  5 10  1  0
  6  7  1  0
  6  8  2  0
  7 25  1  0
  7 26  1  0
  8  9  1  0
  9 27  1  0
 10 11  1  0
 10 19  2  0
 11 12  1  0
 12 13  2  0
 12 18  1  0
 13 14  1  0
 13 28  1  0
 14 15  2  0
 14 29  1  0
 15 16  1  0
 15 17  1  0
 17 18  2  0
 17 30  1  0
M  END

