
     RDKit          3D

 14 14  0  0  0  0  0  0  0  0999 V2000
    1.2060    0.1977    0.1701 O   0  0  0  0  0  0  0  0  0  0  0  0
    2.3581    0.0526   -0.0743 C   0  0  0  0  0  0  0  0  0  0  0  0
    3.4383    1.5223   -0.0901 Cl  0  0  0  0  0  0  0  0  0  0  0  0
    3.0618   -1.2295   -0.3672 C   0  0  0  0  0  0  0  0  0  0  0  0
    4.2923   -1.2194   -1.0546 C   0  0  0  0  0  0  0  0  0  0  0  0
    4.9600   -2.3886   -1.3962 C   0  0  0  0  0  0  0  0  0  0  0  0
    4.3983   -3.6145   -1.0297 C   0  0  0  0  0  0  0  0  0  0  0  0
    5.2143   -5.0971   -1.4317 Cl  0  0  0  0  0  0  0  0  0  0  0  0
    3.1854   -3.6675   -0.3376 C   0  0  0  0  0  0  0  0  0  0  0  0
    2.5100   -2.4865   -0.0136 C   0  0  0  0  0  0  0  0  0  0  0  0
    0.6958   -2.7641    1.0615 I   0  0  0  0  0  0  0  0  0  0  0  0
    4.7241   -0.2574   -1.3291 H   0  0  0  0  0  0  0  0  0  0  0  0
    5.9060   -2.3557   -1.9377 H   0  0  0  0  0  0  0  0  0  0  0  0
    2.7735   -4.6357   -0.0544 H   0  0  0  0  0  0  0  0  0  0  0  0
  1  2  2  0
  2  3  1  0
  2  4  1  0
  4  5  2  0
  4 10  1  0
  5  6  1  0
  5 12  1  0
  6  7  2  0
  6 13  1  0
  7  8  1  0
  7  9  1  0
  9 10  2  0
  9 14  1  0
 10 11  1  0
M  END

