
     RDKit          3D

 56 59  0  0  0  0  0  0  0  0999 V2000
   12.4826   -5.8865   -1.8757 C   0  0  0  0  0  0  0  0  0  0  0  0
   11.6179   -4.7870   -1.7203 O   0  0  0  0  0  0  0  0  0  0  0  0
   10.4137   -4.9699   -1.1149 C   0  0  0  0  0  0  0  0  0  0  0  0
    9.6081   -3.8248   -0.9790 C   0  0  0  0  0  0  0  0  0  0  0  0
    8.3627   -3.9186   -0.3727 C   0  0  0  0  0  0  0  0  0  0  0  0
    7.8843   -5.1451    0.1237 C   0  0  0  0  0  0  0  0  0  0  0  0
    6.5153   -5.1463    0.7586 C   0  0  0  0  0  0  0  0  0  0  0  0
    5.7809   -4.1644    0.6728 O   0  0  0  0  0  0  0  0  0  0  0  0
    6.1662   -6.2781    1.4269 N   0  0  0  0  0  0  0  0  0  0  0  0
    4.8559   -6.4695    2.0260 C   0  0  2  0  0  0  0  0  0  0  0  0
    4.3116   -5.5215    1.9212 H   0  0  0  0  0  0  0  0  0  0  0  0
    4.9681   -6.9534    3.4851 C   0  0  0  0  0  0  0  0  0  0  0  0
    5.1450   -8.4931    3.3588 C   0  0  0  0  0  0  0  0  0  0  0  0
    4.8023   -8.8505    1.9676 N   0  0  0  0  0  0  0  0  0  0  0  0
    5.8940   -9.3748    1.1751 C   0  0  0  0  0  0  0  0  0  0  0  0
    7.0857   -9.0433    1.4233 O   0  0  0  0  0  0  0  0  0  0  0  0
    5.5317  -10.2560    0.0949 C   0  0  0  0  0  0  0  0  0  0  0  0
    6.5412  -10.7019   -0.8237 C   0  0  0  0  0  0  0  0  0  0  0  0
    6.2352  -11.5211   -1.8926 C   0  0  0  0  0  0  0  0  0  0  0  0
    4.9084  -11.9621   -2.1034 C   0  0  0  0  0  0  0  0  0  0  0  0
    3.9022  -11.5588   -1.1959 C   0  0  0  0  0  0  0  0  0  0  0  0
    4.1964  -10.7236   -0.1310 C   0  0  0  0  0  0  0  0  0  0  0  0
    2.5084  -12.0770   -1.4772 C   0  0  0  0  0  0  0  0  0  0  0  0
    2.1923  -12.0058   -2.9695 C   0  0  0  0  0  0  0  0  0  0  0  0
    3.2205  -12.6165   -3.7961 N   0  0  0  0  0  0  0  0  0  0  0  0
    2.9831  -12.8577   -5.1920 C   0  0  0  0  0  0  0  0  0  0  0  0
    4.5460  -12.9019   -3.2220 C   0  0  0  0  0  0  0  0  0  0  0  0
    4.1298   -7.6746    1.3885 C   0  0  0  0  0  0  0  0  0  0  0  0
    8.6890   -6.2834   -0.0245 C   0  0  0  0  0  0  0  0  0  0  0  0
    9.9451   -6.2027   -0.6370 C   0  0  0  0  0  0  0  0  0  0  0  0
   13.3877   -5.5077   -2.3705 H   0  0  0  0  0  0  0  0  0  0  0  0
   12.0372   -6.6784   -2.5058 H   0  0  0  0  0  0  0  0  0  0  0  0
   12.7664   -6.3305   -0.9040 H   0  0  0  0  0  0  0  0  0  0  0  0
    9.9885   -2.8748   -1.3606 H   0  0  0  0  0  0  0  0  0  0  0  0
    7.7200   -3.0426   -0.2660 H   0  0  0  0  0  0  0  0  0  0  0  0
    6.7962   -7.0845    1.4688 H   0  0  0  0  0  0  0  0  0  0  0  0
    4.0394   -6.7079    4.0255 H   0  0  0  0  0  0  0  0  0  0  0  0
    5.8003   -6.4653    4.0128 H   0  0  0  0  0  0  0  0  0  0  0  0
    4.4827   -9.0237    4.0656 H   0  0  0  0  0  0  0  0  0  0  0  0
    6.1799   -8.8014    3.5603 H   0  0  0  0  0  0  0  0  0  0  0  0
    7.5639  -10.3628   -0.6541 H   0  0  0  0  0  0  0  0  0  0  0  0
    7.0302  -11.8302   -2.5801 H   0  0  0  0  0  0  0  0  0  0  0  0
    3.4141  -10.4192    0.5669 H   0  0  0  0  0  0  0  0  0  0  0  0
    1.7428  -11.4979   -0.9415 H   0  0  0  0  0  0  0  0  0  0  0  0
    2.3926  -13.1259   -1.1444 H   0  0  0  0  0  0  0  0  0  0  0  0
    2.1268  -10.9535   -3.3113 H   0  0  0  0  0  0  0  0  0  0  0  0
    1.2320  -12.4783   -3.2361 H   0  0  0  0  0  0  0  0  0  0  0  0
    1.9108  -12.8390   -5.4209 H   0  0  0  0  0  0  0  0  0  0  0  0
    3.4205  -13.8257   -5.4792 H   0  0  0  0  0  0  0  0  0  0  0  0
    3.4954  -12.0753   -5.7811 H   0  0  0  0  0  0  0  0  0  0  0  0
    5.2734  -12.8802   -4.0467 H   0  0  0  0  0  0  0  0  0  0  0  0
    4.4627  -13.9673   -2.9146 H   0  0  0  0  0  0  0  0  0  0  0  0
    3.0600   -7.6536    1.6753 H   0  0  0  0  0  0  0  0  0  0  0  0
    4.1915   -7.6818    0.2916 H   0  0  0  0  0  0  0  0  0  0  0  0
    8.3521   -7.2636    0.3247 H   0  0  0  0  0  0  0  0  0  0  0  0
   10.5427   -7.1093   -0.7354 H   0  0  0  0  0  0  0  0  0  0  0  0
  1  2  1  0
  1 31  1  0
  1 32  1  0
  1 33  1  0
  2  3  1  0
  3  4  2  0
  3 30  1  0
  4  5  1  0
  4 34  1  0
  5  6  2  0
  5 35  1  0
  6  7  1  0
  6 29  1  0
  7  8  2  0
  7  9  1  0
  9 10  1  0
  9 36  1  0
 10 11  1  1
 10 12  1  0
 10 28  1  0
 12 13  1  0
 12 37  1  0
 12 38  1  0
 13 14  1  0
 13 39  1  0
 13 40  1  0
 14 15  1  0
 14 28  1  0
 15 16  2  0
 15 17  1  0
 17 18  2  0
 17 22  1  0
 18 19  1  0
 18 41  1  0
 19 20  2  0
 19 42  1  0
 20 21  1  0
 20 27  1  0
 21 22  2  0
 21 23  1  0
 22 43  1  0
 23 24  1  0
 23 44  1  0
 23 45  1  0
 24 25  1  0
 24 46  1  0
 24 47  1  0
 25 26  1  0
 25 27  1  0
 26 48  1  0
 26 49  1  0
 26 50  1  0
 27 51  1  0
 27 52  1  0
 28 53  1  0
 28 54  1  0
 29 30  2  0
 29 55  1  0
 30 56  1  0
M  END

