
     RDKit          3D

 49 50  0  0  0  0  0  0  0  0999 V2000
    4.2544    0.6302    2.2923 C   0  0  0  0  0  0  0  0  0  0  0  0
    4.5182   -0.7687    2.8231 C   0  0  0  0  0  0  0  0  0  0  0  0
    5.1265   -1.6142    1.8269 O   0  0  0  0  0  0  0  0  0  0  0  0
    4.3116   -2.2580    0.9693 C   0  0  0  0  0  0  0  0  0  0  0  0
    3.1081   -2.1537    0.9919 O   0  0  0  0  0  0  0  0  0  0  0  0
    5.0969   -3.1621    0.0190 C   0  0  1  0  0  0  0  0  0  0  0  0
    4.1934   -3.7473   -1.0781 C   0  0  0  0  0  0  0  0  0  0  0  0
    3.8533   -2.7174   -2.1598 C   0  0  0  0  0  0  0  0  0  0  0  0
    5.0705   -2.1042   -2.6869 N   0  0  0  0  0  0  0  0  0  0  0  0
    5.1060   -1.7850   -4.0380 C   0  0  0  0  0  0  0  0  0  0  0  0
    4.1690   -2.1179   -4.8204 O   0  0  0  0  0  0  0  0  0  0  0  0
    6.2610   -1.1054   -4.6237 C   0  0  0  0  0  0  0  0  0  0  0  0
    7.3183   -0.7569   -3.9851 O   0  0  0  0  0  0  0  0  0  0  0  0
    6.1588   -0.8439   -5.9620 N   0  0  0  0  0  0  0  0  0  0  0  0
    7.2634   -0.3987   -6.7841 C   0  0  0  0  0  0  0  0  0  0  0  0
    8.3643   -1.4623   -7.0109 C   0  0  0  0  0  0  0  0  0  0  0  0
    9.5056   -0.9495   -7.8570 C   0  0  0  0  0  0  0  0  0  0  0  0
   10.5679   -0.2358   -7.2808 C   0  0  0  0  0  0  0  0  0  0  0  0
   11.6047    0.2827   -8.0597 C   0  0  0  0  0  0  0  0  0  0  0  0
   11.6012    0.0970   -9.4492 C   0  0  0  0  0  0  0  0  0  0  0  0
   12.5832    0.5745  -10.2581 O   0  0  0  0  0  0  0  0  0  0  0  0
   10.5489   -0.6147  -10.0431 C   0  0  0  0  0  0  0  0  0  0  0  0
    9.5212   -1.1250   -9.2517 C   0  0  0  0  0  0  0  0  0  0  0  0
    5.9011   -1.4620   -1.6874 C   0  0  0  0  0  0  0  0  0  0  0  0
    6.3226   -2.4643   -0.6103 C   0  0  0  0  0  0  0  0  0  0  0  0
    3.8633    1.2689    3.1006 H   0  0  0  0  0  0  0  0  0  0  0  0
    3.5081    0.6079    1.4847 H   0  0  0  0  0  0  0  0  0  0  0  0
    5.1797    1.0890    1.9101 H   0  0  0  0  0  0  0  0  0  0  0  0
    3.5862   -1.2405    3.1678 H   0  0  0  0  0  0  0  0  0  0  0  0
    5.2411   -0.7520    3.6516 H   0  0  0  0  0  0  0  0  0  0  0  0
    5.4675   -3.9800    0.6636 H   0  0  0  0  0  0  0  0  0  0  0  0
    3.2601   -4.1253   -0.6352 H   0  0  0  0  0  0  0  0  0  0  0  0
    4.7161   -4.5981   -1.5451 H   0  0  0  0  0  0  0  0  0  0  0  0
    3.1858   -1.9406   -1.7368 H   0  0  0  0  0  0  0  0  0  0  0  0
    3.3212   -3.1815   -3.0007 H   0  0  0  0  0  0  0  0  0  0  0  0
    5.3514   -1.3114   -6.3757 H   0  0  0  0  0  0  0  0  0  0  0  0
    7.7172    0.4936   -6.3232 H   0  0  0  0  0  0  0  0  0  0  0  0
    6.8467   -0.0804   -7.7523 H   0  0  0  0  0  0  0  0  0  0  0  0
    7.9074   -2.3489   -7.4813 H   0  0  0  0  0  0  0  0  0  0  0  0
    8.7356   -1.7752   -6.0214 H   0  0  0  0  0  0  0  0  0  0  0  0
   10.5921   -0.0861   -6.1972 H   0  0  0  0  0  0  0  0  0  0  0  0
   12.4258    0.8307   -7.5858 H   0  0  0  0  0  0  0  0  0  0  0  0
   13.2424    1.0377   -9.7249 H   0  0  0  0  0  0  0  0  0  0  0  0
   10.5581   -0.7600  -11.1253 H   0  0  0  0  0  0  0  0  0  0  0  0
    8.7110   -1.6826   -9.7315 H   0  0  0  0  0  0  0  0  0  0  0  0
    5.3560   -0.6091   -1.2267 H   0  0  0  0  0  0  0  0  0  0  0  0
    6.7970   -1.0386   -2.1750 H   0  0  0  0  0  0  0  0  0  0  0  0
    6.9159   -1.9577    0.1639 H   0  0  0  0  0  0  0  0  0  0  0  0
    6.9619   -3.2326   -1.0748 H   0  0  0  0  0  0  0  0  0  0  0  0
  1  2  1  0
  1 26  1  0
  1 27  1  0
  1 28  1  0
  2  3  1  0
  2 29  1  0
  2 30  1  0
  3  4  1  0
  4  5  2  0
  4  6  1  0
  6  7  1  0
  6 25  1  0
  6 31  1  1
  7  8  1  0
  7 32  1  0
  7 33  1  0
  8  9  1  0
  8 34  1  0
  8 35  1  0
  9 10  1  0
  9 24  1  0
 10 11  2  0
 10 12  1  0
 12 13  2  0
 12 14  1  0
 14 15  1  0
 14 36  1  0
 15 16  1  0
 15 37  1  0
 15 38  1  0
 16 17  1  0
 16 39  1  0
 16 40  1  0
 17 18  2  0
 17 23  1  0
 18 19  1  0
 18 41  1  0
 19 20  2  0
 19 42  1  0
 20 21  1  0
 20 22  1  0
 21 43  1  0
 22 23  2  0
 22 44  1  0
 23 45  1  0
 24 25  1  0
 24 46  1  0
 24 47  1  0
 25 48  1  0
 25 49  1  0
M  END

