
     RDKit          3D

 38 39  0  0  0  0  0  0  0  0999 V2000
    1.4612    1.1666   -0.6368 C   0  0  0  0  0  0  0  0  0  0  0  0
    2.6029    0.3577   -0.0130 C   0  0  1  0  0  0  0  0  0  0  0  0
    2.1235   -0.7759    0.9240 C   0  0  0  0  0  0  0  0  0  0  0  0
    1.6085   -0.2245    2.2270 C   0  0  0  0  0  0  0  0  0  0  0  0
    0.6653   -0.9760    3.0141 C   0  0  0  0  0  0  0  0  0  0  0  0
    0.8791   -0.9303    4.3916 C   0  0  0  0  0  0  0  0  0  0  0  0
    2.0205   -0.2239    4.7859 C   0  0  0  0  0  0  0  0  0  0  0  0
    2.8837    0.3987    3.3669 S   0  0  0  0  0  0  0  0  0  0  0  0
    3.5008   -0.1654   -1.0693 N   0  0  0  0  0  0  0  0  0  0  0  0
    3.0482   -1.1318   -2.0261 C   0  0  0  0  0  0  0  0  0  0  0  0
    4.8880    0.2919   -1.0714 C   0  0  0  0  0  0  0  0  0  0  0  0
    5.7522   -0.2212   -2.1640 C   0  0  0  0  0  0  0  0  0  0  0  0
    6.7867   -1.1146   -2.1974 C   0  0  0  0  0  0  0  0  0  0  0  0
    7.2351   -1.1634   -3.5580 C   0  0  0  0  0  0  0  0  0  0  0  0
    6.4401   -0.2966   -4.2563 C   0  0  0  0  0  0  0  0  0  0  0  0
    6.3904    0.0979   -5.6999 C   0  0  0  0  0  0  0  0  0  0  0  0
    7.6197   -0.2935   -6.3684 N   0  0  0  0  0  0  0  0  0  0  0  0
    5.5376    0.2844   -3.4170 O   0  0  0  0  0  0  0  0  0  0  0  0
    0.8554    1.5231    0.2042 H   0  0  0  0  0  0  0  0  0  0  0  0
    0.8187    0.5462   -1.2816 H   0  0  0  0  0  0  0  0  0  0  0  0
    1.8252    2.0294   -1.2173 H   0  0  0  0  0  0  0  0  0  0  0  0
    3.2279    1.0389    0.5787 H   0  0  0  0  0  0  0  0  0  0  0  0
    2.9650   -1.5004    1.0521 H   0  0  0  0  0  0  0  0  0  0  0  0
    1.3102   -1.3359    0.4264 H   0  0  0  0  0  0  0  0  0  0  0  0
   -0.1661   -1.5184    2.5547 H   0  0  0  0  0  0  0  0  0  0  0  0
    0.2013   -1.3871    5.1186 H   0  0  0  0  0  0  0  0  0  0  0  0
    2.3855   -0.0145    5.7883 H   0  0  0  0  0  0  0  0  0  0  0  0
    3.7334   -1.9947   -2.0251 H   0  0  0  0  0  0  0  0  0  0  0  0
    3.0985   -0.6936   -3.0378 H   0  0  0  0  0  0  0  0  0  0  0  0
    2.0284   -1.4488   -1.7964 H   0  0  0  0  0  0  0  0  0  0  0  0
    5.3073    0.0135   -0.0911 H   0  0  0  0  0  0  0  0  0  0  0  0
    4.8447    1.3962   -1.0793 H   0  0  0  0  0  0  0  0  0  0  0  0
    7.1876   -1.6667   -1.3492 H   0  0  0  0  0  0  0  0  0  0  0  0
    8.0400   -1.7577   -3.9810 H   0  0  0  0  0  0  0  0  0  0  0  0
    6.1333    1.1780   -5.7522 H   0  0  0  0  0  0  0  0  0  0  0  0
    5.5489   -0.4305   -6.1849 H   0  0  0  0  0  0  0  0  0  0  0  0
    8.3893    0.3212   -6.1033 H   0  0  0  0  0  0  0  0  0  0  0  0
    7.5186   -0.2285   -7.3794 H   0  0  0  0  0  0  0  0  0  0  0  0
  1  2  1  0
  1 19  1  0
  1 20  1  0
  1 21  1  0
  2  3  1  0
  2  9  1  0
  2 22  1  1
  3  4  1  0
  3 23  1  0
  3 24  1  0
  4  5  2  0
  4  8  1  0
  5  6  1  0
  5 25  1  0
  6  7  2  0
  6 26  1  0
  7  8  1  0
  7 27  1  0
  9 10  1  0
  9 11  1  0
 10 28  1  0
 10 29  1  0
 10 30  1  0
 11 12  1  0
 11 31  1  0
 11 32  1  0
 12 13  2  0
 12 18  1  0
 13 14  1  0
 13 33  1  0
 14 15  2  0
 14 34  1  0
 15 16  1  0
 15 18  1  0
 16 17  1  0
 16 35  1  0
 16 36  1  0
 17 37  1  0
 17 38  1  0
M  END

