
     RDKit          3D

 37 38  0  0  0  0  0  0  0  0999 V2000
    2.5378    4.5378   -1.9871 C   0  0  0  0  0  0  0  0  0  0  0  0
    3.3966    3.9843   -0.9427 N   0  0  0  0  0  0  0  0  0  0  0  0
    3.2536    2.3258   -0.6015 S   0  0  1  0  0  0  0  0  0  0  0  0
    2.4713    2.1409    0.6269 O   0  0  0  0  0  0  0  0  0  0  0  0
    2.8482    1.7100   -1.8675 O   0  0  0  0  0  0  0  0  0  0  0  0
    4.8758    1.8616   -0.1787 C   0  0  0  0  0  0  0  0  0  0  0  0
    5.3758    1.3778    1.0245 C   0  0  0  0  0  0  0  0  0  0  0  0
    6.7325    1.1029    0.8220 C   0  0  0  0  0  0  0  0  0  0  0  0
    7.0091    1.4426   -0.5260 C   0  0  0  0  0  0  0  0  0  0  0  0
    8.1602    1.3844   -1.3157 C   0  0  0  0  0  0  0  0  0  0  0  0
    9.3180    0.9829   -0.8201 O   0  0  0  0  0  0  0  0  0  0  0  0
    8.1492    1.7296   -2.6262 N   0  0  0  0  0  0  0  0  0  0  0  0
    9.3463    1.9770   -3.4327 C   0  0  1  0  0  0  0  0  0  0  0  0
   10.2421    0.7415   -3.5352 C   0  0  0  0  0  0  0  0  0  0  0  0
    8.9034    2.4186   -4.8389 C   0  0  0  0  0  0  0  0  0  0  0  0
    8.1125    3.6363   -4.8543 N   0  0  0  0  0  0  0  0  0  0  0  0
    8.4054    4.8415   -5.4150 C   0  0  0  0  0  0  0  0  0  0  0  0
    7.3299    5.6755   -5.1553 C   0  0  0  0  0  0  0  0  0  0  0  0
    6.4289    4.8710   -4.4196 C   0  0  0  0  0  0  0  0  0  0  0  0
    6.9105    3.6430   -4.2505 N   0  0  0  0  0  0  0  0  0  0  0  0
    5.8563    1.9097   -1.1375 O   0  0  0  0  0  0  0  0  0  0  0  0
    2.8550    5.5740   -2.1841 H   0  0  0  0  0  0  0  0  0  0  0  0
    1.4620    4.5412   -1.7319 H   0  0  0  0  0  0  0  0  0  0  0  0
    2.6712    3.9489   -2.9037 H   0  0  0  0  0  0  0  0  0  0  0  0
    3.3580    4.4928   -0.0594 H   0  0  0  0  0  0  0  0  0  0  0  0
    4.7897    1.2419    1.9298 H   0  0  0  0  0  0  0  0  0  0  0  0
    7.4403    0.7035    1.5438 H   0  0  0  0  0  0  0  0  0  0  0  0
    7.3003    2.2296   -2.9337 H   0  0  0  0  0  0  0  0  0  0  0  0
    9.9299    2.8078   -2.9889 H   0  0  0  0  0  0  0  0  0  0  0  0
    9.7060   -0.0925   -4.0146 H   0  0  0  0  0  0  0  0  0  0  0  0
   10.5634    0.4047   -2.5373 H   0  0  0  0  0  0  0  0  0  0  0  0
   11.1478    0.9689   -4.1190 H   0  0  0  0  0  0  0  0  0  0  0  0
    8.3176    1.6109   -5.3081 H   0  0  0  0  0  0  0  0  0  0  0  0
    9.7968    2.5928   -5.4534 H   0  0  0  0  0  0  0  0  0  0  0  0
    9.3365    5.0096   -5.9528 H   0  0  0  0  0  0  0  0  0  0  0  0
    7.2126    6.7135   -5.4566 H   0  0  0  0  0  0  0  0  0  0  0  0
    5.4556    5.1314   -4.0055 H   0  0  0  0  0  0  0  0  0  0  0  0
  1  2  1  0
  1 22  1  0
  1 23  1  0
  1 24  1  0
  3  2  1  6
  2 25  1  0
  3  4  2  0
  3  5  2  0
  3  6  1  0
  6  7  2  0
  6 21  1  0
  7  8  1  0
  7 26  1  0
  8  9  2  0
  8 27  1  0
  9 10  1  0
  9 21  1  0
 10 11  2  0
 10 12  1  0
 12 13  1  0
 12 28  1  0
 13 14  1  0
 13 15  1  0
 13 29  1  1
 14 30  1  0
 14 31  1  0
 14 32  1  0
 15 16  1  0
 15 33  1  0
 15 34  1  0
 16 17  1  0
 16 20  1  0
 17 18  2  0
 17 35  1  0
 18 19  1  0
 18 36  1  0
 19 20  2  0
 19 37  1  0
M  END

