
     RDKit          3D

 35 35  0  0  0  0  0  0  0  0999 V2000
    3.8944   -2.0971    3.0953 C   0  0  0  0  0  0  0  0  0  0  0  0
    3.2791   -1.0895    2.1153 C   0  0  2  0  0  0  0  0  0  0  0  0
    1.8312   -0.7501    2.4847 C   0  0  0  0  0  0  0  0  0  0  0  0
    3.3911   -1.5484    0.6425 C   0  0  2  0  0  0  0  0  0  0  0  0
    2.9185   -0.7838    0.0083 H   0  0  0  0  0  0  0  0  0  0  0  0
    2.7038   -2.8071    0.3514 N   0  0  0  0  0  0  0  0  0  0  0  0
    1.5085   -2.9373   -0.3393 C   0  0  0  0  0  0  0  0  0  0  0  0
    0.8293   -3.9368   -0.3052 O   0  0  0  0  0  0  0  0  0  0  0  0
    1.2362   -1.8399   -1.0696 O   0  0  0  0  0  0  0  0  0  0  0  0
    0.0484   -1.8681   -1.8830 C   0  0  1  0  0  0  0  0  0  0  0  0
   -1.2290   -1.4961   -1.1278 C   0  0  0  0  0  0  0  0  0  0  0  0
   -2.1966   -1.1494   -2.2690 C   0  0  0  0  0  0  0  0  0  0  0  0
   -1.3145   -0.4756   -3.3596 C   0  0  0  0  0  0  0  0  0  0  0  0
    0.1544   -0.8130   -2.9893 C   0  0  0  0  0  0  0  0  0  0  0  0
    4.8630   -1.5891    0.1715 C   0  0  0  0  0  0  0  0  0  0  0  0
    5.6790   -0.7791    0.5218 O   0  0  0  0  0  0  0  0  0  0  0  0
    5.1495   -2.5671   -0.6975 O   0  0  0  0  0  0  0  0  0  0  0  0
    3.8610   -1.7027    4.1228 H   0  0  0  0  0  0  0  0  0  0  0  0
    4.9489   -2.3045    2.8563 H   0  0  0  0  0  0  0  0  0  0  0  0
    3.3424   -3.0538    3.1083 H   0  0  0  0  0  0  0  0  0  0  0  0
    3.8828   -0.1694    2.1627 H   0  0  0  0  0  0  0  0  0  0  0  0
    1.1834   -1.6422    2.4477 H   0  0  0  0  0  0  0  0  0  0  0  0
    1.4038    0.0022    1.8028 H   0  0  0  0  0  0  0  0  0  0  0  0
    1.7752   -0.3472    3.5081 H   0  0  0  0  0  0  0  0  0  0  0  0
    2.8210   -3.5586    1.0260 H   0  0  0  0  0  0  0  0  0  0  0  0
   -0.0508   -2.8834   -2.2974 H   0  0  0  0  0  0  0  0  0  0  0  0
   -1.0218   -0.6091   -0.5032 H   0  0  0  0  0  0  0  0  0  0  0  0
   -1.5829   -2.3031   -0.4703 H   0  0  0  0  0  0  0  0  0  0  0  0
   -3.0296   -0.5113   -1.9380 H   0  0  0  0  0  0  0  0  0  0  0  0
   -2.6461   -2.0749   -2.6651 H   0  0  0  0  0  0  0  0  0  0  0  0
   -1.4667    0.6144   -3.3790 H   0  0  0  0  0  0  0  0  0  0  0  0
   -1.5765   -0.8431   -4.3632 H   0  0  0  0  0  0  0  0  0  0  0  0
    0.6673    0.0682   -2.5718 H   0  0  0  0  0  0  0  0  0  0  0  0
    0.7530   -1.1610   -3.8442 H   0  0  0  0  0  0  0  0  0  0  0  0
    4.3401   -3.1032   -0.8008 H   0  0  0  0  0  0  0  0  0  0  0  0
  1  2  1  0
  1 18  1  0
  1 19  1  0
  1 20  1  0
  2  3  1  0
  2  4  1  0
  2 21  1  6
  3 22  1  0
  3 23  1  0
  3 24  1  0
  4  5  1  6
  4  6  1  0
  4 15  1  0
  6  7  1  0
  6 25  1  0
  7  8  2  0
  7  9  1  0
  9 10  1  0
 10 11  1  0
 10 14  1  0
 10 26  1  6
 11 12  1  0
 11 27  1  0
 11 28  1  0
 12 13  1  0
 12 29  1  0
 12 30  1  0
 13 14  1  0
 13 31  1  0
 13 32  1  0
 14 33  1  0
 14 34  1  0
 15 16  2  0
 15 17  1  0
 17 35  1  0
M  END

