
     RDKit          3D

 49 51  0  0  0  0  0  0  0  0999 V2000
    1.3476    3.8591   -0.5761 C   0  0  0  0  0  0  0  0  0  0  0  0
    2.6930    3.4490   -0.5057 O   0  0  0  0  0  0  0  0  0  0  0  0
    3.1747    2.9478    0.6625 C   0  0  0  0  0  0  0  0  0  0  0  0
    2.4246    2.8175    1.8408 C   0  0  0  0  0  0  0  0  0  0  0  0
    3.0334    2.2779    2.9800 C   0  0  0  0  0  0  0  0  0  0  0  0
    4.3678    1.8753    2.9668 C   0  0  0  0  0  0  0  0  0  0  0  0
    5.1189    2.0059    1.7875 C   0  0  0  0  0  0  0  0  0  0  0  0
    6.5820    1.6281    1.7488 C   0  0  0  0  0  0  0  0  0  0  0  0
    6.8628    0.6284    2.7054 O   0  0  0  0  0  0  0  0  0  0  0  0
    8.2310    0.2905    2.8583 C   0  0  1  0  0  0  0  0  0  0  0  0
    8.9620    1.2156    3.8294 C   0  0  0  0  0  0  0  0  0  0  0  0
    8.3494   -1.1741    3.3153 C   0  0  0  0  0  0  0  0  0  0  0  0
    9.4306   -1.6378    3.6556 O   0  0  0  0  0  0  0  0  0  0  0  0
    7.2003   -1.8851    3.2887 N   0  0  0  0  0  0  0  0  0  0  0  0
    7.1725   -3.2919    3.6408 C   0  0  1  0  0  0  0  0  0  0  0  0
    7.1780   -3.5076    5.1668 C   0  0  0  0  0  0  0  0  0  0  0  0
    5.9707   -3.9098    2.9825 C   0  0  0  0  0  0  0  0  0  0  0  0
    4.9524   -3.2405    2.4841 N   0  0  0  0  0  0  0  0  0  0  0  0
    4.0291   -4.1353    1.9898 N   0  0  0  0  0  0  0  0  0  0  0  0
    4.5220   -5.3250    2.2055 C   0  0  0  0  0  0  0  0  0  0  0  0
    5.7410   -5.2482    2.8240 N   0  0  0  0  0  0  0  0  0  0  0  0
    6.3431   -6.5452    3.1060 C   0  0  0  0  0  0  0  0  0  0  0  0
    5.4876   -7.4885    2.2147 C   0  0  0  0  0  0  0  0  0  0  0  0
    4.1330   -6.7571    1.9915 C   0  0  0  0  0  0  0  0  0  0  0  0
    4.5174    2.5355    0.6447 C   0  0  0  0  0  0  0  0  0  0  0  0
    1.1817    4.2173   -1.6013 H   0  0  0  0  0  0  0  0  0  0  0  0
    1.1287    4.6824    0.1285 H   0  0  0  0  0  0  0  0  0  0  0  0
    0.6505    3.0259   -0.3723 H   0  0  0  0  0  0  0  0  0  0  0  0
    1.3785    3.1215    1.8807 H   0  0  0  0  0  0  0  0  0  0  0  0
    2.4446    2.1696    3.8949 H   0  0  0  0  0  0  0  0  0  0  0  0
    4.8331    1.4466    3.8546 H   0  0  0  0  0  0  0  0  0  0  0  0
    7.1943    2.5315    1.9485 H   0  0  0  0  0  0  0  0  0  0  0  0
    6.8554    1.2783    0.7330 H   0  0  0  0  0  0  0  0  0  0  0  0
    8.7358    0.3269    1.8711 H   0  0  0  0  0  0  0  0  0  0  0  0
    8.4574    1.2100    4.8080 H   0  0  0  0  0  0  0  0  0  0  0  0
    8.9866    2.2501    3.4546 H   0  0  0  0  0  0  0  0  0  0  0  0
    9.9935    0.8618    3.9638 H   0  0  0  0  0  0  0  0  0  0  0  0
    6.3426   -1.4461    2.9585 H   0  0  0  0  0  0  0  0  0  0  0  0
    8.0911   -3.7554    3.2374 H   0  0  0  0  0  0  0  0  0  0  0  0
    6.2879   -3.0476    5.6224 H   0  0  0  0  0  0  0  0  0  0  0  0
    8.0821   -3.0491    5.5917 H   0  0  0  0  0  0  0  0  0  0  0  0
    7.1862   -4.5807    5.4183 H   0  0  0  0  0  0  0  0  0  0  0  0
    6.2510   -6.7867    4.1789 H   0  0  0  0  0  0  0  0  0  0  0  0
    7.4118   -6.5608    2.8447 H   0  0  0  0  0  0  0  0  0  0  0  0
    5.3701   -8.4830    2.6675 H   0  0  0  0  0  0  0  0  0  0  0  0
    5.9946   -7.6249    1.2469 H   0  0  0  0  0  0  0  0  0  0  0  0
    3.3745   -7.0659    2.7317 H   0  0  0  0  0  0  0  0  0  0  0  0
    3.7071   -6.9387    0.9946 H   0  0  0  0  0  0  0  0  0  0  0  0
    5.0699    2.6368   -0.2930 H   0  0  0  0  0  0  0  0  0  0  0  0
  1  2  1  0
  1 26  1  0
  1 27  1  0
  1 28  1  0
  2  3  1  0
  3  4  2  0
  3 25  1  0
  4  5  1  0
  4 29  1  0
  5  6  2  0
  5 30  1  0
  6  7  1  0
  6 31  1  0
  7  8  1  0
  7 25  2  0
  8  9  1  0
  8 32  1  0
  8 33  1  0
  9 10  1  0
 10 11  1  0
 10 12  1  0
 10 34  1  6
 11 35  1  0
 11 36  1  0
 11 37  1  0
 12 13  2  0
 12 14  1  0
 14 15  1  0
 14 38  1  0
 15 16  1  0
 15 17  1  0
 15 39  1  6
 16 40  1  0
 16 41  1  0
 16 42  1  0
 17 18  2  0
 17 21  1  0
 18 19  1  0
 19 20  2  0
 20 21  1  0
 20 24  1  0
 21 22  1  0
 22 23  1  0
 22 43  1  0
 22 44  1  0
 23 24  1  0
 23 45  1  0
 23 46  1  0
 24 47  1  0
 24 48  1  0
 25 49  1  0
M  END

