
     RDKit          3D

 47 49  0  0  0  0  0  0  0  0999 V2000
    2.8412   -0.8831   -1.4017 C   0  0  0  0  0  0  0  0  0  0  0  0
    2.4885   -0.2769   -0.0469 C   0  0  2  0  0  0  0  0  0  0  0  0
    1.3969   -0.3161    0.0874 H   0  0  0  0  0  0  0  0  0  0  0  0
    2.9602    1.1692    0.1514 C   0  0  0  0  0  0  0  0  0  0  0  0
    4.4569    1.2032    0.2839 C   0  0  0  0  0  0  0  0  0  0  0  0
    5.2576    2.2705   -0.1650 C   0  0  0  0  0  0  0  0  0  0  0  0
    4.7475    3.3643   -0.7485 O   0  0  0  0  0  0  0  0  0  0  0  0
    6.6812    2.2611   -0.0294 C   0  0  0  0  0  0  0  0  0  0  0  0
    7.3387    1.1932    0.5598 C   0  0  0  0  0  0  0  0  0  0  0  0
    8.8044    1.1971    0.6691 C   0  0  0  0  0  0  0  0  0  0  0  0
    9.5411    1.9462   -0.0188 O   0  0  0  0  0  0  0  0  0  0  0  0
    9.3561    0.2338    1.5920 N   0  0  0  0  0  0  0  0  0  0  0  0
   10.8203    0.0242    1.5556 C   0  0  1  0  0  0  0  0  0  0  0  0
   11.3134    1.0142    1.5700 H   0  0  0  0  0  0  0  0  0  0  0  0
   11.2594   -0.7929    2.7812 C   0  0  0  0  0  0  0  0  0  0  0  0
   10.8802   -0.1539    4.1000 C   0  0  0  0  0  0  0  0  0  0  0  0
    9.7725   -0.6110    4.8351 C   0  0  0  0  0  0  0  0  0  0  0  0
    9.4081   -0.0027    6.0418 C   0  0  0  0  0  0  0  0  0  0  0  0
   10.1486    1.0741    6.5352 C   0  0  0  0  0  0  0  0  0  0  0  0
   11.2554    1.5385    5.8156 C   0  0  0  0  0  0  0  0  0  0  0  0
   11.6156    0.9305    4.6114 C   0  0  0  0  0  0  0  0  0  0  0  0
   11.2623   -0.6768    0.2446 C   0  0  0  0  0  0  0  0  0  0  0  0
   11.7506   -1.7789    0.2441 O   0  0  0  0  0  0  0  0  0  0  0  0
   11.0987    0.0316   -0.8665 O   0  0  0  0  0  0  0  0  0  0  0  0
    6.5342    0.0573    0.9680 C   0  0  0  0  0  0  0  0  0  0  0  0
    7.1382   -1.0449    1.3498 O   0  0  0  0  0  0  0  0  0  0  0  0
    5.1102    0.0976    0.8834 C   0  0  0  0  0  0  0  0  0  0  0  0
    4.2876   -1.0238    1.4396 C   0  0  0  0  0  0  0  0  0  0  0  0
    4.6767   -1.8145    2.2579 O   0  0  0  0  0  0  0  0  0  0  0  0
    2.9925   -1.0898    1.0260 O   0  0  0  0  0  0  0  0  0  0  0  0
    3.9230   -0.8442   -1.6006 H   0  0  0  0  0  0  0  0  0  0  0  0
    2.3215   -0.3441   -2.2098 H   0  0  0  0  0  0  0  0  0  0  0  0
    2.5236   -1.9357   -1.4304 H   0  0  0  0  0  0  0  0  0  0  0  0
    2.4671    1.5767    1.0549 H   0  0  0  0  0  0  0  0  0  0  0  0
    2.6031    1.7738   -0.7024 H   0  0  0  0  0  0  0  0  0  0  0  0
    3.7808    3.3046   -0.7966 H   0  0  0  0  0  0  0  0  0  0  0  0
    7.2531    3.1105   -0.4055 H   0  0  0  0  0  0  0  0  0  0  0  0
    9.1010    0.4706    2.5591 H   0  0  0  0  0  0  0  0  0  0  0  0
   12.3500   -0.9189    2.7149 H   0  0  0  0  0  0  0  0  0  0  0  0
   10.8321   -1.8030    2.6990 H   0  0  0  0  0  0  0  0  0  0  0  0
    9.1951   -1.4632    4.4640 H   0  0  0  0  0  0  0  0  0  0  0  0
    8.5459   -0.3783    6.5989 H   0  0  0  0  0  0  0  0  0  0  0  0
    9.8687    1.5478    7.4795 H   0  0  0  0  0  0  0  0  0  0  0  0
   11.8443    2.3762    6.1983 H   0  0  0  0  0  0  0  0  0  0  0  0
   12.4877    1.2961    4.0610 H   0  0  0  0  0  0  0  0  0  0  0  0
   10.6405    0.8962   -0.6670 H   0  0  0  0  0  0  0  0  0  0  0  0
    8.1405   -0.8469    1.4164 H   0  0  0  0  0  0  0  0  0  0  0  0
  1  2  1  0
  1 31  1  0
  1 32  1  0
  1 33  1  0
  2  3  1  1
  2  4  1  0
  2 30  1  0
  4  5  1  0
  4 34  1  0
  4 35  1  0
  5  6  1  0
  5 27  2  0
  6  7  1  0
  6  8  2  0
  7 36  1  0
  8  9  1  0
  8 37  1  0
  9 10  1  0
  9 25  2  0
 10 11  2  0
 10 12  1  0
 12 13  1  0
 12 38  1  0
 13 14  1  1
 13 15  1  0
 13 22  1  0
 15 16  1  0
 15 39  1  0
 15 40  1  0
 16 17  2  0
 16 21  1  0
 17 18  1  0
 17 41  1  0
 18 19  2  0
 18 42  1  0
 19 20  1  0
 19 43  1  0
 20 21  2  0
 20 44  1  0
 21 45  1  0
 22 23  2  0
 22 24  1  0
 24 46  1  0
 25 26  1  0
 25 27  1  0
 26 47  1  0
 27 28  1  0
 28 29  2  0
 28 30  1  0
M  END

