
     RDKit          3D

111119  0  0  0  0  0  0  0  0999 V2000
    1.0229   -0.4804   -0.1073 C   0  0  0  0  0  0  0  0  0  0  0  0
    2.4055   -0.3218   -0.3993 O   0  0  0  0  0  0  0  0  0  0  0  0
    3.1042   -1.4649   -0.6087 C   0  0  0  0  0  0  0  0  0  0  0  0
    2.5860   -2.5615   -0.5536 O   0  0  0  0  0  0  0  0  0  0  0  0
    4.5321   -1.2144   -0.9044 C   0  0  0  0  0  0  0  0  0  0  0  0
    5.0865    0.0831   -0.9565 C   0  0  0  0  0  0  0  0  0  0  0  0
    6.4299    0.2666   -1.2420 C   0  0  0  0  0  0  0  0  0  0  0  0
    7.2827   -0.8483   -1.4887 C   0  0  0  0  0  0  0  0  0  0  0  0
    8.6460   -0.6588   -1.7821 C   0  0  0  0  0  0  0  0  0  0  0  0
    9.8372   -0.4516   -2.0292 C   0  0  0  0  0  0  0  0  0  0  0  0
   11.2020   -0.2948   -2.3004 C   0  0  0  0  0  0  0  0  0  0  0  0
   11.9845   -1.4521   -2.5280 C   0  0  0  0  0  0  0  0  0  0  0  0
   13.3741   -1.4257   -2.6554 C   0  0  0  0  0  0  0  0  0  0  0  0
   14.0888   -0.1767   -2.6707 C   0  0  0  0  0  0  0  0  0  0  0  0
   15.5061   -0.0461   -2.6969 C   0  0  0  0  0  0  0  0  0  0  0  0
   16.3798   -1.1960   -2.3228 C   0  0  0  0  0  0  0  0  0  0  0  0
   17.2787   -1.7737   -3.2365 C   0  0  0  0  0  0  0  0  0  0  0  0
   18.0885   -2.8459   -2.8571 C   0  0  0  0  0  0  0  0  0  0  0  0
   18.0303   -3.3471   -1.5526 C   0  0  0  0  0  0  0  0  0  0  0  0
   17.1504   -2.7719   -0.6302 C   0  0  0  0  0  0  0  0  0  0  0  0
   16.3291   -1.7095   -1.0134 C   0  0  0  0  0  0  0  0  0  0  0  0
   16.1146    1.2134   -2.9951 C   0  0  0  0  0  0  0  0  0  0  0  0
   17.6084    1.3395   -2.9881 C   0  0  0  0  0  0  0  0  0  0  0  0
   18.3251    1.2704   -1.7809 C   0  0  0  0  0  0  0  0  0  0  0  0
   19.7161    1.3974   -1.7652 C   0  0  0  0  0  0  0  0  0  0  0  0
   20.4186    1.5889   -2.9586 C   0  0  0  0  0  0  0  0  0  0  0  0
   19.7183    1.6543   -4.1667 C   0  0  0  0  0  0  0  0  0  0  0  0
   18.3268    1.5331   -4.1804 C   0  0  0  0  0  0  0  0  0  0  0  0
   15.3053    2.3161   -3.3328 C   0  0  0  0  0  0  0  0  0  0  0  0
   15.9437    3.5870   -3.8034 C   0  0  0  0  0  0  0  0  0  0  0  0
   15.8185    4.0040   -5.1402 C   0  0  0  0  0  0  0  0  0  0  0  0
   16.4376    5.1746   -5.5833 C   0  0  0  0  0  0  0  0  0  0  0  0
   17.1816    5.9569   -4.6949 C   0  0  0  0  0  0  0  0  0  0  0  0
   17.3069    5.5564   -3.3612 C   0  0  0  0  0  0  0  0  0  0  0  0
   16.6979    4.3792   -2.9209 C   0  0  0  0  0  0  0  0  0  0  0  0
   13.8801    2.2136   -3.2383 C   0  0  0  0  0  0  0  0  0  0  0  0
   13.0160    3.2619   -3.8479 C   0  0  0  0  0  0  0  0  0  0  0  0
   12.1097    2.8848   -4.8626 C   0  0  0  0  0  0  0  0  0  0  0  0
   11.3170    3.8339   -5.5072 C   0  0  0  0  0  0  0  0  0  0  0  0
   11.3979    5.1821   -5.1418 C   0  0  0  0  0  0  0  0  0  0  0  0
   12.2855    5.5696   -4.1323 C   0  0  0  0  0  0  0  0  0  0  0  0
   13.0942    4.6250   -3.5008 C   0  0  0  0  0  0  0  0  0  0  0  0
   13.2799    1.0203   -2.7147 C   0  0  0  0  0  0  0  0  0  0  0  0
   11.9023    0.9834   -2.3003 C   0  0  0  0  0  0  0  0  0  0  0  0
   11.2651    2.1743   -1.7296 C   0  0  0  0  0  0  0  0  0  0  0  0
    9.9257    2.5435   -2.0126 C   0  0  0  0  0  0  0  0  0  0  0  0
    9.3433    3.6464   -1.4019 C   0  0  0  0  0  0  0  0  0  0  0  0
   10.0556    4.4105   -0.4604 C   0  0  0  0  0  0  0  0  0  0  0  0
    9.3711    5.5680    0.1707 C   0  0  0  0  0  0  0  0  0  0  0  0
    8.2345    5.9138   -0.0688 O   0  0  0  0  0  0  0  0  0  0  0  0
   10.1588    6.2170    1.0581 O   0  0  0  0  0  0  0  0  0  0  0  0
    9.5719    7.3378    1.7121 C   0  0  0  0  0  0  0  0  0  0  0  0
   11.3833    4.0496   -0.1576 C   0  0  0  0  0  0  0  0  0  0  0  0
   11.9741    2.9627   -0.7863 C   0  0  0  0  0  0  0  0  0  0  0  0
   13.8809   -2.8137   -2.9864 C   0  0  0  0  0  0  0  0  0  0  0  0
   12.6822   -3.7648   -2.6810 C   0  0  2  0  0  0  0  0  0  0  0  0
   12.8577   -4.4509   -1.3122 C   0  0  0  0  0  0  0  0  0  0  0  0
   12.0529   -4.4382   -0.4169 O   0  0  0  0  0  0  0  0  0  0  0  0
   14.0414   -5.0766   -1.2396 O   0  0  0  0  0  0  0  0  0  0  0  0
   14.2828   -5.8432   -0.0591 C   0  0  0  0  0  0  0  0  0  0  0  0
   12.4972   -4.8888   -3.7047 C   0  0  0  0  0  0  0  0  0  0  0  0
   12.2104   -6.0264   -3.4267 O   0  0  0  0  0  0  0  0  0  0  0  0
   12.6353   -4.4479   -4.9664 O   0  0  0  0  0  0  0  0  0  0  0  0
   12.4072   -5.4078   -6.0020 C   0  0  0  0  0  0  0  0  0  0  0  0
   11.4316   -2.8424   -2.6577 C   0  0  0  0  0  0  0  0  0  0  0  0
    6.7142   -2.1538   -1.4275 C   0  0  0  0  0  0  0  0  0  0  0  0
    5.3707   -2.3254   -1.1425 C   0  0  0  0  0  0  0  0  0  0  0  0
    0.6192    0.5306    0.0333 H   0  0  0  0  0  0  0  0  0  0  0  0
    0.8766   -1.0779    0.8062 H   0  0  0  0  0  0  0  0  0  0  0  0
    0.4989   -0.9868   -0.9332 H   0  0  0  0  0  0  0  0  0  0  0  0
    4.4447    0.9444   -0.7672 H   0  0  0  0  0  0  0  0  0  0  0  0
    6.8515    1.2733   -1.2744 H   0  0  0  0  0  0  0  0  0  0  0  0
   17.3351   -1.3856   -4.2553 H   0  0  0  0  0  0  0  0  0  0  0  0
   18.7725   -3.2907   -3.5843 H   0  0  0  0  0  0  0  0  0  0  0  0
   18.6711   -4.1810   -1.2556 H   0  0  0  0  0  0  0  0  0  0  0  0
   17.1028   -3.1515    0.3936 H   0  0  0  0  0  0  0  0  0  0  0  0
   15.6391   -1.2655   -0.2915 H   0  0  0  0  0  0  0  0  0  0  0  0
   17.7854    1.1188   -0.8432 H   0  0  0  0  0  0  0  0  0  0  0  0
   20.2534    1.3457   -0.8147 H   0  0  0  0  0  0  0  0  0  0  0  0
   21.5071    1.6860   -2.9471 H   0  0  0  0  0  0  0  0  0  0  0  0
   20.2576    1.8021   -5.1059 H   0  0  0  0  0  0  0  0  0  0  0  0
   17.7885    1.5907   -5.1290 H   0  0  0  0  0  0  0  0  0  0  0  0
   15.2323    3.4030   -5.8387 H   0  0  0  0  0  0  0  0  0  0  0  0
   16.3343    5.4788   -6.6280 H   0  0  0  0  0  0  0  0  0  0  0  0
   17.6621    6.8756   -5.0407 H   0  0  0  0  0  0  0  0  0  0  0  0
   17.8853    6.1618   -2.6587 H   0  0  0  0  0  0  0  0  0  0  0  0
   16.8075    4.0691   -1.8795 H   0  0  0  0  0  0  0  0  0  0  0  0
   12.0431    1.8346   -5.1553 H   0  0  0  0  0  0  0  0  0  0  0  0
   10.6321    3.5193   -6.2988 H   0  0  0  0  0  0  0  0  0  0  0  0
   10.7708    5.9262   -5.6390 H   0  0  0  0  0  0  0  0  0  0  0  0
   12.3469    6.6183   -3.8310 H   0  0  0  0  0  0  0  0  0  0  0  0
   13.7751    4.9423   -2.7107 H   0  0  0  0  0  0  0  0  0  0  0  0
    9.3591    1.9816   -2.7540 H   0  0  0  0  0  0  0  0  0  0  0  0
    8.3210    3.9439   -1.6443 H   0  0  0  0  0  0  0  0  0  0  0  0
   10.3406    7.7389    2.3847 H   0  0  0  0  0  0  0  0  0  0  0  0
    8.6824    7.0372    2.2872 H   0  0  0  0  0  0  0  0  0  0  0  0
    9.2658    8.1040    0.9830 H   0  0  0  0  0  0  0  0  0  0  0  0
   11.9384    4.6246    0.5845 H   0  0  0  0  0  0  0  0  0  0  0  0
   12.9953    2.6809   -0.5217 H   0  0  0  0  0  0  0  0  0  0  0  0
   14.7740   -3.1250   -2.4386 H   0  0  0  0  0  0  0  0  0  0  0  0
   14.1389   -2.8609   -4.0578 H   0  0  0  0  0  0  0  0  0  0  0  0
   15.2958   -6.2509   -0.1618 H   0  0  0  0  0  0  0  0  0  0  0  0
   13.5491   -6.6589    0.0238 H   0  0  0  0  0  0  0  0  0  0  0  0
   14.2106   -5.2122    0.8393 H   0  0  0  0  0  0  0  0  0  0  0  0
   12.5669   -4.8781   -6.9490 H   0  0  0  0  0  0  0  0  0  0  0  0
   11.3802   -5.7989   -5.9499 H   0  0  0  0  0  0  0  0  0  0  0  0
   13.1073   -6.2514   -5.9105 H   0  0  0  0  0  0  0  0  0  0  0  0
   10.7636   -3.1107   -1.8265 H   0  0  0  0  0  0  0  0  0  0  0  0
   10.8426   -2.9246   -3.5870 H   0  0  0  0  0  0  0  0  0  0  0  0
    7.3541   -3.0204   -1.6067 H   0  0  0  0  0  0  0  0  0  0  0  0
    4.9312   -3.3236   -1.0951 H   0  0  0  0  0  0  0  0  0  0  0  0
  1  2  1  0
  1 68  1  0
  1 69  1  0
  1 70  1  0
  2  3  1  0
  3  4  2  0
  3  5  1  0
  5  6  2  0
  5 67  1  0
  6  7  1  0
  6 71  1  0
  7  8  2  0
  7 72  1  0
  8  9  1  0
  8 66  1  0
  9 10  3  0
 10 11  1  0
 11 12  1  0
 11 44  2  0
 12 13  2  0
 12 65  1  0
 13 14  1  0
 13 55  1  0
 14 15  2  0
 14 43  1  0
 15 16  1  0
 15 22  1  0
 16 17  2  0
 16 21  1  0
 17 18  1  0
 17 73  1  0
 18 19  2  0
 18 74  1  0
 19 20  1  0
 19 75  1  0
 20 21  2  0
 20 76  1  0
 21 77  1  0
 22 23  1  0
 22 29  2  0
 23 24  2  0
 23 28  1  0
 24 25  1  0
 24 78  1  0
 25 26  2  0
 25 79  1  0
 26 27  1  0
 26 80  1  0
 27 28  2  0
 27 81  1  0
 28 82  1  0
 29 30  1  0
 29 36  1  0
 30 31  2  0
 30 35  1  0
 31 32  1  0
 31 83  1  0
 32 33  2  0
 32 84  1  0
 33 34  1  0
 33 85  1  0
 34 35  2  0
 34 86  1  0
 35 87  1  0
 36 37  1  0
 36 43  2  0
 37 38  2  0
 37 42  1  0
 38 39  1  0
 38 88  1  0
 39 40  2  0
 39 89  1  0
 40 41  1  0
 40 90  1  0
 41 42  2  0
 41 91  1  0
 42 92  1  0
 43 44  1  0
 44 45  1  0
 45 46  2  0
 45 54  1  0
 46 47  1  0
 46 93  1  0
 47 48  2  0
 47 94  1  0
 48 49  1  0
 48 53  1  0
 49 50  2  0
 49 51  1  0
 51 52  1  0
 52 95  1  0
 52 96  1  0
 52 97  1  0
 53 54  2  0
 53 98  1  0
 54 99  1  0
 55 56  1  0
 55100  1  0
 55101  1  0
 56 57  1  1
 56 61  1  0
 56 65  1  0
 57 58  2  0
 57 59  1  0
 59 60  1  0
 60102  1  0
 60103  1  0
 60104  1  0
 61 62  2  0
 61 63  1  0
 63 64  1  0
 64105  1  0
 64106  1  0
 64107  1  0
 65108  1  0
 65109  1  0
 66 67  2  0
 66110  1  0
 67111  1  0
M  END

