
     RDKit          3D

 26 27  0  0  0  0  0  0  0  0999 V2000
    2.9694    1.0955    0.6463 C   0  0  0  0  0  0  0  0  0  0  0  0
    2.7128   -0.2217    0.2127 O   0  0  0  0  0  0  0  0  0  0  0  0
    3.2410   -0.6825   -0.9428 C   0  0  0  0  0  0  0  0  0  0  0  0
    4.0763    0.0507   -1.7716 C   0  0  0  0  0  0  0  0  0  0  0  0
    4.5817   -0.5221   -2.9580 C   0  0  0  0  0  0  0  0  0  0  0  0
    4.2378   -1.8331   -3.3080 C   0  0  0  0  0  0  0  0  0  0  0  0
    3.3883   -2.5836   -2.5026 C   0  0  0  0  0  0  0  0  0  0  0  0
    2.8620   -2.0434   -1.2678 C   0  0  0  0  0  0  0  0  0  0  0  0
    2.0252   -2.7569   -0.3954 C   0  0  0  0  0  0  0  0  0  0  0  0
    1.5025   -2.2984    0.6889 O   0  0  0  0  0  0  0  0  0  0  0  0
    1.6118   -4.2169   -0.6027 C   0  0  0  0  0  0  0  0  0  0  0  0
    2.6419   -4.9741   -1.4237 C   0  0  1  0  0  0  0  0  0  0  0  0
    2.2750   -6.4530   -1.5979 C   0  0  0  0  0  0  0  0  0  0  0  0
    1.4051   -6.9932   -0.9739 O   0  0  0  0  0  0  0  0  0  0  0  0
    3.0382   -7.1263   -2.4761 O   0  0  0  0  0  0  0  0  0  0  0  0
    2.8610   -4.1776   -3.0731 S   0  0  0  0  0  0  0  0  0  0  0  0
    2.4202    1.2261    1.5877 H   0  0  0  0  0  0  0  0  0  0  0  0
    2.6128    1.8383   -0.0889 H   0  0  0  0  0  0  0  0  0  0  0  0
    4.0466    1.2569    0.8291 H   0  0  0  0  0  0  0  0  0  0  0  0
    4.3524    1.0714   -1.5073 H   0  0  0  0  0  0  0  0  0  0  0  0
    5.2450    0.0595   -3.6005 H   0  0  0  0  0  0  0  0  0  0  0  0
    4.6277   -2.2761   -4.2275 H   0  0  0  0  0  0  0  0  0  0  0  0
    0.6247   -4.2439   -1.0934 H   0  0  0  0  0  0  0  0  0  0  0  0
    1.4885   -4.6967    0.3804 H   0  0  0  0  0  0  0  0  0  0  0  0
    3.6232   -4.9454   -0.9180 H   0  0  0  0  0  0  0  0  0  0  0  0
    3.6493   -6.5191   -2.9291 H   0  0  0  0  0  0  0  0  0  0  0  0
  1  2  1  0
  1 17  1  0
  1 18  1  0
  1 19  1  0
  2  3  1  0
  3  4  2  0
  3  8  1  0
  4  5  1  0
  4 20  1  0
  5  6  2  0
  5 21  1  0
  6  7  1  0
  6 22  1  0
  7  8  2  0
  7 16  1  0
  8  9  1  0
  9 10  2  0
  9 11  1  0
 11 12  1  0
 11 23  1  0
 11 24  1  0
 12 13  1  0
 12 16  1  0
 12 25  1  1
 13 14  2  0
 13 15  1  0
 15 26  1  0
M  END

