
     RDKit          3D

 53 55  0  0  0  0  0  0  0  0999 V2000
    2.6577    2.7525   -4.0568 C   0  0  0  0  0  0  0  0  0  0  0  0
    3.5524    1.5361   -3.7812 C   0  0  1  0  0  0  0  0  0  0  0  0
    4.3123    1.0524   -5.0407 C   0  0  0  0  0  0  0  0  0  0  0  0
    5.4707    1.9879   -5.4157 C   0  0  0  0  0  0  0  0  0  0  0  0
    6.3888    2.2156   -4.2077 C   0  0  0  0  0  0  0  0  0  0  0  0
    5.5765    2.6828   -2.9881 C   0  0  0  0  0  0  0  0  0  0  0  0
    4.4605    1.7935   -2.6482 N   0  0  0  0  0  0  0  0  0  0  0  0
    4.8531    0.6216   -1.8792 C   0  0  0  0  0  0  0  0  0  0  0  0
    5.0962    0.9518   -0.4264 C   0  0  0  0  0  0  0  0  0  0  0  0
    4.5786    1.9727    0.3237 C   0  0  0  0  0  0  0  0  0  0  0  0
    4.9409    2.0037    1.6488 N   0  0  0  0  0  0  0  0  0  0  0  0
    5.7337    1.0120    1.9286 C   0  0  0  0  0  0  0  0  0  0  0  0
    6.2293    0.8291    3.2150 N   0  0  0  0  0  0  0  0  0  0  0  0
    7.0688   -0.1810    3.6246 C   0  0  0  0  0  0  0  0  0  0  0  0
    7.4691   -1.0324    2.8499 O   0  0  0  0  0  0  0  0  0  0  0  0
    7.4364   -0.1376    5.1044 C   0  0  0  0  0  0  0  0  0  0  0  0
    8.3725   -1.2616    5.5472 C   0  0  0  0  0  0  0  0  0  0  0  0
    9.7874   -1.1392    4.9948 C   0  0  0  0  0  0  0  0  0  0  0  0
   10.5705   -2.1467    5.6112 O   0  0  0  0  0  0  0  0  0  0  0  0
   11.8794   -2.2858    5.2772 C   0  0  0  0  0  0  0  0  0  0  0  0
   12.5435   -1.4986    4.3234 C   0  0  0  0  0  0  0  0  0  0  0  0
   13.9000   -1.7288    4.0601 C   0  0  0  0  0  0  0  0  0  0  0  0
   14.6032   -2.7289    4.7319 C   0  0  0  0  0  0  0  0  0  0  0  0
   13.9339   -3.5115    5.6827 C   0  0  0  0  0  0  0  0  0  0  0  0
   12.5860   -3.2955    5.9556 C   0  0  0  0  0  0  0  0  0  0  0  0
    6.1176   -0.0511    0.5889 S   0  0  0  0  0  0  0  0  0  0  0  0
    1.9087    2.5111   -4.8278 H   0  0  0  0  0  0  0  0  0  0  0  0
    3.2244    3.6263   -4.4133 H   0  0  0  0  0  0  0  0  0  0  0  0
    2.1300    3.0481   -3.1376 H   0  0  0  0  0  0  0  0  0  0  0  0
    2.8827    0.7213   -3.4595 H   0  0  0  0  0  0  0  0  0  0  0  0
    3.6095    0.9405   -5.8838 H   0  0  0  0  0  0  0  0  0  0  0  0
    4.7188    0.0445   -4.8409 H   0  0  0  0  0  0  0  0  0  0  0  0
    5.0741    2.9588   -5.7633 H   0  0  0  0  0  0  0  0  0  0  0  0
    6.0383    1.5695   -6.2635 H   0  0  0  0  0  0  0  0  0  0  0  0
    7.1702    2.9591   -4.4400 H   0  0  0  0  0  0  0  0  0  0  0  0
    6.9178    1.2759   -3.9667 H   0  0  0  0  0  0  0  0  0  0  0  0
    5.1754    3.6921   -3.1877 H   0  0  0  0  0  0  0  0  0  0  0  0
    6.2209    2.7825   -2.1012 H   0  0  0  0  0  0  0  0  0  0  0  0
    5.7474    0.0984   -2.2845 H   0  0  0  0  0  0  0  0  0  0  0  0
    4.0333   -0.1155   -1.9415 H   0  0  0  0  0  0  0  0  0  0  0  0
    3.9188    2.7421   -0.0780 H   0  0  0  0  0  0  0  0  0  0  0  0
    5.9031    1.5257    3.8783 H   0  0  0  0  0  0  0  0  0  0  0  0
    6.4981   -0.1839    5.6847 H   0  0  0  0  0  0  0  0  0  0  0  0
    7.8754    0.8524    5.3275 H   0  0  0  0  0  0  0  0  0  0  0  0
    7.9570   -2.2345    5.2424 H   0  0  0  0  0  0  0  0  0  0  0  0
    8.4339   -1.2647    6.6472 H   0  0  0  0  0  0  0  0  0  0  0  0
   10.2076   -0.1396    5.2256 H   0  0  0  0  0  0  0  0  0  0  0  0
    9.7828   -1.2638    3.8989 H   0  0  0  0  0  0  0  0  0  0  0  0
   12.0180   -0.7129    3.7806 H   0  0  0  0  0  0  0  0  0  0  0  0
   14.4070   -1.1106    3.3142 H   0  0  0  0  0  0  0  0  0  0  0  0
   15.6609   -2.9003    4.5192 H   0  0  0  0  0  0  0  0  0  0  0  0
   14.4698   -4.3001    6.2180 H   0  0  0  0  0  0  0  0  0  0  0  0
   12.0489   -3.8960    6.6929 H   0  0  0  0  0  0  0  0  0  0  0  0
  1  2  1  0
  1 27  1  0
  1 28  1  0
  1 29  1  0
  2  3  1  0
  2  7  1  0
  2 30  1  1
  3  4  1  0
  3 31  1  0
  3 32  1  0
  4  5  1  0
  4 33  1  0
  4 34  1  0
  5  6  1  0
  5 35  1  0
  5 36  1  0
  6  7  1  0
  6 37  1  0
  6 38  1  0
  7  8  1  0
  8  9  1  0
  8 39  1  0
  8 40  1  0
  9 10  2  0
  9 26  1  0
 10 11  1  0
 10 41  1  0
 11 12  2  0
 12 13  1  0
 12 26  1  0
 13 14  1  0
 13 42  1  0
 14 15  2  0
 14 16  1  0
 16 17  1  0
 16 43  1  0
 16 44  1  0
 17 18  1  0
 17 45  1  0
 17 46  1  0
 18 19  1  0
 18 47  1  0
 18 48  1  0
 19 20  1  0
 20 21  2  0
 20 25  1  0
 21 22  1  0
 21 49  1  0
 22 23  2  0
 22 50  1  0
 23 24  1  0
 23 51  1  0
 24 25  2  0
 24 52  1  0
 25 53  1  0
M  END

