
     RDKit          3D

 63 67  0  0  0  0  0  0  0  0999 V2000
   22.3087    0.0820  -12.2940 C   0  0  0  0  0  0  0  0  0  0  0  0
   23.3267   -0.6028  -11.6208 C   0  0  0  0  0  0  0  0  0  0  0  0
   23.1150   -1.9084  -11.1742 C   0  0  0  0  0  0  0  0  0  0  0  0
   21.8864   -2.5505  -11.3953 C   0  0  0  0  0  0  0  0  0  0  0  0
   21.6917   -3.9716  -10.9147 C   0  0  0  0  0  0  0  0  0  0  0  0
   20.3683   -4.3951  -11.1106 O   0  0  0  0  0  0  0  0  0  0  0  0
   20.1190   -5.7164  -10.6954 C   0  0  0  0  0  0  0  0  0  0  0  0
   18.6540   -6.0557  -10.9722 C   0  0  0  0  0  0  0  0  0  0  0  0
   18.2934   -7.4601  -10.5414 C   0  0  0  0  0  0  0  0  0  0  0  0
   18.4801   -8.5503  -11.4158 C   0  0  0  0  0  0  0  0  0  0  0  0
   18.1924   -9.8517  -11.0039 C   0  0  0  0  0  0  0  0  0  0  0  0
   17.6984  -10.1223   -9.7209 C   0  0  0  0  0  0  0  0  0  0  0  0
   17.4903   -9.0430   -8.8538 C   0  0  0  0  0  0  0  0  0  0  0  0
   17.8090   -7.7289   -9.2609 C   0  0  0  0  0  0  0  0  0  0  0  0
   17.4944   -6.7771   -8.1261 C   0  0  0  0  0  0  0  0  0  0  0  0
   17.3304   -7.7270   -6.9238 C   0  0  0  0  0  0  0  0  0  0  0  0
   17.0321   -9.0331   -7.5268 N   0  0  0  0  0  0  0  0  0  0  0  0
   16.5504  -10.0947   -6.7653 C   0  0  0  0  0  0  0  0  0  0  0  0
   15.8394  -11.1819   -7.3376 C   0  0  0  0  0  0  0  0  0  0  0  0
   15.3552  -12.1842   -6.6188 N   0  0  0  0  0  0  0  0  0  0  0  0
   15.5134  -12.2001   -5.2921 C   0  0  0  0  0  0  0  0  0  0  0  0
   16.1785  -11.1620   -4.6185 C   0  0  0  0  0  0  0  0  0  0  0  0
   16.3629  -11.0996   -3.2788 O   0  0  0  0  0  0  0  0  0  0  0  0
   15.8747  -12.1440   -2.4485 C   0  0  0  0  0  0  0  0  0  0  0  0
   16.2160  -11.8075   -0.9969 C   0  0  2  0  0  0  0  0  0  0  0  0
   15.8222  -10.7921   -0.7987 H   0  0  0  0  0  0  0  0  0  0  0  0
   17.7331  -11.8552   -0.6885 C   0  0  0  0  0  0  0  0  0  0  0  0
   17.9222  -13.1818    0.0651 C   0  0  0  0  0  0  0  0  0  0  0  0
   16.6110  -13.3022    0.8444 C   0  0  0  0  0  0  0  0  0  0  0  0
   15.6220  -12.8283   -0.1211 N   0  0  0  0  0  0  0  0  0  0  0  0
   16.7009  -10.1009   -5.3702 C   0  0  0  0  0  0  0  0  0  0  0  0
   20.8718   -1.8603  -12.0693 C   0  0  0  0  0  0  0  0  0  0  0  0
   21.0831   -0.5508  -12.5148 C   0  0  0  0  0  0  0  0  0  0  0  0
   22.4720    1.1049  -12.6428 H   0  0  0  0  0  0  0  0  0  0  0  0
   24.2890   -0.1162  -11.4410 H   0  0  0  0  0  0  0  0  0  0  0  0
   23.9156   -2.4360  -10.6455 H   0  0  0  0  0  0  0  0  0  0  0  0
   21.9673   -4.0397   -9.8399 H   0  0  0  0  0  0  0  0  0  0  0  0
   22.3959   -4.6433  -11.4532 H   0  0  0  0  0  0  0  0  0  0  0  0
   20.3430   -5.8331   -9.6138 H   0  0  0  0  0  0  0  0  0  0  0  0
   20.7802   -6.4281  -11.2320 H   0  0  0  0  0  0  0  0  0  0  0  0
   18.4737   -5.9324  -12.0521 H   0  0  0  0  0  0  0  0  0  0  0  0
   18.0262   -5.3103  -10.4587 H   0  0  0  0  0  0  0  0  0  0  0  0
   18.8544   -8.3694  -12.4270 H   0  0  0  0  0  0  0  0  0  0  0  0
   18.3564  -10.6844  -11.6930 H   0  0  0  0  0  0  0  0  0  0  0  0
   17.5027  -11.1490   -9.4162 H   0  0  0  0  0  0  0  0  0  0  0  0
   16.5565   -6.2285   -8.3287 H   0  0  0  0  0  0  0  0  0  0  0  0
   18.2756   -6.0238   -7.9474 H   0  0  0  0  0  0  0  0  0  0  0  0
   16.5220   -7.4283   -6.2397 H   0  0  0  0  0  0  0  0  0  0  0  0
   18.2670   -7.7765   -6.3340 H   0  0  0  0  0  0  0  0  0  0  0  0
   15.6407  -11.2062   -8.4116 H   0  0  0  0  0  0  0  0  0  0  0  0
   15.0871  -13.0511   -4.7545 H   0  0  0  0  0  0  0  0  0  0  0  0
   16.3302  -13.1121   -2.7264 H   0  0  0  0  0  0  0  0  0  0  0  0
   14.7796  -12.2459   -2.5573 H   0  0  0  0  0  0  0  0  0  0  0  0
   18.0058  -11.0115   -0.0343 H   0  0  0  0  0  0  0  0  0  0  0  0
   18.3444  -11.7681   -1.5987 H   0  0  0  0  0  0  0  0  0  0  0  0
   18.8114  -13.1904    0.7133 H   0  0  0  0  0  0  0  0  0  0  0  0
   18.0141  -14.0230   -0.6415 H   0  0  0  0  0  0  0  0  0  0  0  0
   16.6635  -12.6809    1.7656 H   0  0  0  0  0  0  0  0  0  0  0  0
   16.3940  -14.3364    1.1617 H   0  0  0  0  0  0  0  0  0  0  0  0
   14.7447  -12.5384    0.3004 H   0  0  0  0  0  0  0  0  0  0  0  0
   17.2266   -9.3081   -4.8380 H   0  0  0  0  0  0  0  0  0  0  0  0
   19.9171   -2.3594  -12.2380 H   0  0  0  0  0  0  0  0  0  0  0  0
   20.2819   -0.0226  -13.0387 H   0  0  0  0  0  0  0  0  0  0  0  0
  1  2  2  0
  1 33  1  0
  1 34  1  0
  2  3  1  0
  2 35  1  0
  3  4  2  0
  3 36  1  0
  4  5  1  0
  4 32  1  0
  5  6  1  0
  5 37  1  0
  5 38  1  0
  6  7  1  0
  7  8  1  0
  7 39  1  0
  7 40  1  0
  8  9  1  0
  8 41  1  0
  8 42  1  0
  9 10  2  0
  9 14  1  0
 10 11  1  0
 10 43  1  0
 11 12  2  0
 11 44  1  0
 12 13  1  0
 12 45  1  0
 13 14  2  0
 13 17  1  0
 14 15  1  0
 15 16  1  0
 15 46  1  0
 15 47  1  0
 16 17  1  0
 16 48  1  0
 16 49  1  0
 17 18  1  0
 18 19  2  0
 18 31  1  0
 19 20  1  0
 19 50  1  0
 20 21  2  0
 21 22  1  0
 21 51  1  0
 22 23  1  0
 22 31  2  0
 23 24  1  0
 24 25  1  0
 24 52  1  0
 24 53  1  0
 25 26  1  1
 25 27  1  0
 25 30  1  0
 27 28  1  0
 27 54  1  0
 27 55  1  0
 28 29  1  0
 28 56  1  0
 28 57  1  0
 29 30  1  0
 29 58  1  0
 29 59  1  0
 30 60  1  0
 31 61  1  0
 32 33  2  0
 32 62  1  0
 33 63  1  0
M  END

