
     RDKit          3D

 33 33  0  0  0  0  0  0  0  0999 V2000
    1.1335   -0.0959    0.2252 C   0  0  0  0  0  0  0  0  0  0  0  0
    2.6338   -0.0974   -0.0751 C   0  0  1  0  0  0  0  0  0  0  0  0
    3.0020   -0.8390   -1.3566 C   0  0  0  0  0  0  0  0  0  0  0  0
    3.1538    1.6670   -0.1627 S   0  0  1  0  0  0  0  0  0  0  0  0
    2.7157    2.2250   -1.4537 O   0  0  0  0  0  0  0  0  0  0  0  0
    2.7663    2.3221    1.0982 O   0  0  0  0  0  0  0  0  0  0  0  0
    4.9833    1.6396   -0.1830 C   0  0  0  0  0  0  0  0  0  0  0  0
    5.4631    3.0837   -0.1887 C   0  0  0  0  0  0  0  0  0  0  0  0
    7.2806    3.0885   -0.2491 S   0  0  1  0  0  0  0  0  0  0  0  0
    7.7802    2.5820    1.0327 O   0  0  0  0  0  0  0  0  0  0  0  0
    7.6771    2.4941   -1.5285 O   0  0  0  0  0  0  0  0  0  0  0  0
    7.7133    4.8157   -0.2827 C   0  0  0  0  0  0  0  0  0  0  0  0
    8.2791    5.6035    0.6857 C   0  0  0  0  0  0  0  0  0  0  0  0
    8.4512    6.8861    0.0851 C   0  0  0  0  0  0  0  0  0  0  0  0
    7.9767    6.7789   -1.1976 C   0  0  0  0  0  0  0  0  0  0  0  0
    7.9025    7.7708   -2.3000 C   0  0  0  0  0  0  0  0  0  0  0  0
    8.2571    8.9093   -2.1543 O   0  0  0  0  0  0  0  0  0  0  0  0
    7.4157    7.3079   -3.4641 O   0  0  0  0  0  0  0  0  0  0  0  0
    7.5228    5.5126   -1.4287 O   0  0  0  0  0  0  0  0  0  0  0  0
    0.7865   -1.1331    0.3518 H   0  0  0  0  0  0  0  0  0  0  0  0
    0.5723    0.3583   -0.6058 H   0  0  0  0  0  0  0  0  0  0  0  0
    0.9136    0.4647    1.1439 H   0  0  0  0  0  0  0  0  0  0  0  0
    3.1914   -0.4872    0.7929 H   0  0  0  0  0  0  0  0  0  0  0  0
    2.5306   -0.3589   -2.2269 H   0  0  0  0  0  0  0  0  0  0  0  0
    2.6423   -1.8781   -1.2938 H   0  0  0  0  0  0  0  0  0  0  0  0
    4.0887   -0.8771   -1.5265 H   0  0  0  0  0  0  0  0  0  0  0  0
    5.3130    1.1092   -1.0868 H   0  0  0  0  0  0  0  0  0  0  0  0
    5.3225    1.1082    0.7177 H   0  0  0  0  0  0  0  0  0  0  0  0
    5.1596    3.6152    0.7240 H   0  0  0  0  0  0  0  0  0  0  0  0
    5.1044    3.6203   -1.0793 H   0  0  0  0  0  0  0  0  0  0  0  0
    8.5390    5.2828    1.6916 H   0  0  0  0  0  0  0  0  0  0  0  0
    8.8743    7.7856    0.5260 H   0  0  0  0  0  0  0  0  0  0  0  0
    7.2019    6.3634   -3.3987 H   0  0  0  0  0  0  0  0  0  0  0  0
  1  2  1  0
  1 20  1  0
  1 21  1  0
  1 22  1  0
  2  3  1  0
  2  4  1  0
  2 23  1  1
  3 24  1  0
  3 25  1  0
  3 26  1  0
  4  5  2  0
  4  6  2  0
  4  7  1  6
  7  8  1  0
  7 27  1  0
  7 28  1  0
  9  8  1  1
  8 29  1  0
  8 30  1  0
  9 10  2  0
  9 11  2  0
  9 12  1  0
 12 13  2  0
 12 19  1  0
 13 14  1  0
 13 31  1  0
 14 15  2  0
 14 32  1  0
 15 16  1  0
 15 19  1  0
 16 17  2  0
 16 18  1  0
 18 33  1  0
M  END

