
     RDKit          3D

 34 36  0  0  0  0  0  0  0  0999 V2000
    1.6543   -1.6188   -0.1313 C   0  0  0  0  0  0  0  0  0  0  0  0
    1.9859   -0.1341   -0.2733 C   0  0  0  0  0  0  0  0  0  0  0  0
    2.5129    0.3209   -1.6115 C   0  0  0  0  0  0  0  0  0  0  0  0
    2.8122   -0.6280   -2.6426 C   0  0  0  0  0  0  0  0  0  0  0  0
    3.2622   -0.2859   -3.9188 C   0  0  0  0  0  0  0  0  0  0  0  0
    3.4422    1.0538   -4.2577 C   0  0  0  0  0  0  0  0  0  0  0  0
    3.1649    2.0312   -3.2738 C   0  0  0  0  0  0  0  0  0  0  0  0
    3.2386    3.4355   -3.3155 C   0  0  0  0  0  0  0  0  0  0  0  0
    2.8392    3.8867   -2.0325 C   0  0  0  0  0  0  0  0  0  0  0  0
    2.5385    2.8628   -1.2389 N   0  0  0  0  0  0  0  0  0  0  0  0
    2.0804    3.0806    0.1780 C   0  0  0  0  0  0  0  0  0  0  0  0
    0.5980    3.2912    0.3251 C   0  0  0  0  0  0  0  0  0  0  0  0
    0.1046    4.5072    0.7457 C   0  0  0  0  0  0  0  0  0  0  0  0
   -1.2986    4.7007    0.9141 C   0  0  0  0  0  0  0  0  0  0  0  0
   -2.0881    3.5509    0.5973 C   0  0  0  0  0  0  0  0  0  0  0  0
   -3.9989    3.6740    0.7604 Br  0  0  0  0  0  0  0  0  0  0  0  0
   -1.5255    2.3684    0.1787 C   0  0  0  0  0  0  0  0  0  0  0  0
   -0.1722    2.1840    0.0320 N   0  0  0  0  0  0  0  0  0  0  0  0
    2.7116    1.6599   -1.9657 C   0  0  0  0  0  0  0  0  0  0  0  0
    1.2436   -1.8018    0.8722 H   0  0  0  0  0  0  0  0  0  0  0  0
    2.5331   -2.2746   -0.2478 H   0  0  0  0  0  0  0  0  0  0  0  0
    0.8880   -1.9393   -0.8552 H   0  0  0  0  0  0  0  0  0  0  0  0
    2.7288    0.1431    0.4963 H   0  0  0  0  0  0  0  0  0  0  0  0
    1.0892    0.4848   -0.0647 H   0  0  0  0  0  0  0  0  0  0  0  0
    2.6718   -1.6831   -2.4115 H   0  0  0  0  0  0  0  0  0  0  0  0
    3.4647   -1.0717   -4.6483 H   0  0  0  0  0  0  0  0  0  0  0  0
    3.7840    1.3508   -5.2510 H   0  0  0  0  0  0  0  0  0  0  0  0
    3.5317    4.0668   -4.1511 H   0  0  0  0  0  0  0  0  0  0  0  0
    2.7508    4.9095   -1.6734 H   0  0  0  0  0  0  0  0  0  0  0  0
    2.6409    3.9552    0.5312 H   0  0  0  0  0  0  0  0  0  0  0  0
    2.4342    2.2133    0.7474 H   0  0  0  0  0  0  0  0  0  0  0  0
    0.7927    5.3306    0.9640 H   0  0  0  0  0  0  0  0  0  0  0  0
   -1.7325    5.6328    1.2633 H   0  0  0  0  0  0  0  0  0  0  0  0
   -2.1657    1.5116   -0.0512 H   0  0  0  0  0  0  0  0  0  0  0  0
  1  2  1  0
  1 20  1  0
  1 21  1  0
  1 22  1  0
  2  3  1  0
  2 23  1  0
  2 24  1  0
  3  4  2  0
  3 19  1  0
  4  5  1  0
  4 25  1  0
  5  6  2  0
  5 26  1  0
  6  7  1  0
  6 27  1  0
  7  8  1  0
  7 19  2  0
  8  9  2  0
  8 28  1  0
  9 10  1  0
  9 29  1  0
 10 11  1  0
 10 19  1  0
 11 12  1  0
 11 30  1  0
 11 31  1  0
 12 13  2  0
 12 18  1  0
 13 14  1  0
 13 32  1  0
 14 15  2  0
 14 33  1  0
 15 16  1  0
 15 17  1  0
 17 18  2  0
 17 34  1  0
M  END

