
     RDKit          3D

 84 89  0  0  0  0  0  0  0  0999 V2000
    1.5451   -0.4555   -1.5428 C   0  0  0  0  0  0  0  0  0  0  0  0
    2.1123    0.8283   -1.5704 O   0  0  0  0  0  0  0  0  0  0  0  0
    3.4367    0.8693   -1.0830 C   0  0  0  0  0  0  0  0  0  0  0  0
    3.8998    2.3195   -1.1331 C   0  0  0  0  0  0  0  0  0  0  0  0
    5.3642    2.5499   -0.7156 C   0  0  0  0  0  0  0  0  0  0  0  0
    6.3988    1.9472   -1.5623 N   0  0  0  0  0  0  0  0  0  0  0  0
    6.9626    0.6666   -1.3137 C   0  0  0  0  0  0  0  0  0  0  0  0
    7.7141    0.1871   -2.1608 O   0  0  0  0  0  0  0  0  0  0  0  0
    6.6918   -0.0658   -0.0642 C   0  0  0  0  0  0  0  0  0  0  0  0
    7.1352   -1.3656    0.1275 C   0  0  0  0  0  0  0  0  0  0  0  0
    6.7614   -1.7084    1.4012 N   0  0  0  0  0  0  0  0  0  0  0  0
    6.9646   -2.9209    2.1190 C   0  0  0  0  0  0  0  0  0  0  0  0
    7.6833   -4.0024    1.4854 C   0  0  0  0  0  0  0  0  0  0  0  0
    8.0264   -4.0229    0.2888 O   0  0  0  0  0  0  0  0  0  0  0  0
    7.9773   -5.1053    2.3064 N   0  0  0  0  0  0  0  0  0  0  0  0
    8.7700   -6.2060    1.7996 C   0  0  0  0  0  0  0  0  0  0  0  0
    7.9841   -7.5074    1.5254 C   0  0  2  0  0  0  0  0  0  0  0  0
    6.8273   -7.2552    0.5297 C   0  0  0  0  0  0  0  0  0  0  0  0
    6.0688   -8.5630    0.2359 C   0  0  1  0  0  0  0  0  0  0  0  0
    7.0374   -9.5948   -0.3731 C   0  0  0  0  0  0  0  0  0  0  0  0
    8.1833   -9.8736    0.6202 C   0  0  2  0  0  0  0  0  0  0  0  0
    7.5975  -10.4321    1.9322 C   0  0  0  0  0  0  0  0  0  0  0  0
    6.6281   -9.4009    2.5430 C   0  0  2  0  0  0  0  0  0  0  0  0
    5.4844   -9.1221    1.5481 C   0  0  0  0  0  0  0  0  0  0  0  0
    7.3891   -8.0915    2.8282 C   0  0  0  0  0  0  0  0  0  0  0  0
    8.9360   -8.5610    0.9134 C   0  0  0  0  0  0  0  0  0  0  0  0
    6.4081   -2.9516    3.4261 C   0  0  0  0  0  0  0  0  0  0  0  0
    5.7518   -1.8543    3.9854 C   0  0  0  0  0  0  0  0  0  0  0  0
    5.5936   -0.6582    3.2794 C   0  0  0  0  0  0  0  0  0  0  0  0
    6.1036   -0.5996    1.9491 C   0  0  0  0  0  0  0  0  0  0  0  0
    6.0537    0.3983    1.0712 N   0  0  0  0  0  0  0  0  0  0  0  0
    6.9326    2.6139   -2.7454 C   0  0  1  0  0  0  0  0  0  0  0  0
    5.8977    3.2349   -3.7037 C   0  0  0  0  0  0  0  0  0  0  0  0
    5.4103    4.6379   -3.3398 C   0  0  0  0  0  0  0  0  0  0  0  0
    6.4395    5.4876   -2.7864 N   0  0  0  0  0  0  0  0  0  0  0  0
    7.5811    5.0085   -2.0385 C   0  0  0  0  0  0  0  0  0  0  0  0
    8.1098    3.6279   -2.4805 C   0  0  1  0  0  0  0  0  0  0  0  0
    9.0504    3.1203   -1.3774 C   0  0  0  0  0  0  0  0  0  0  0  0
    8.9287    3.8148   -3.7782 C   0  0  0  0  0  0  0  0  0  0  0  0
    0.5202   -0.3805   -1.9366 H   0  0  0  0  0  0  0  0  0  0  0  0
    1.4999   -0.8684   -0.5154 H   0  0  0  0  0  0  0  0  0  0  0  0
    2.1119   -1.1749   -2.1685 H   0  0  0  0  0  0  0  0  0  0  0  0
    4.0971    0.2277   -1.7011 H   0  0  0  0  0  0  0  0  0  0  0  0
    3.5001    0.4824   -0.0493 H   0  0  0  0  0  0  0  0  0  0  0  0
    3.2589    2.9059   -0.4510 H   0  0  0  0  0  0  0  0  0  0  0  0
    3.6769    2.6861   -2.1500 H   0  0  0  0  0  0  0  0  0  0  0  0
    5.4945    2.1391    0.2955 H   0  0  0  0  0  0  0  0  0  0  0  0
    5.5434    3.6358   -0.6326 H   0  0  0  0  0  0  0  0  0  0  0  0
    7.6665   -2.0659   -0.5042 H   0  0  0  0  0  0  0  0  0  0  0  0
    8.0064   -4.9356    3.3020 H   0  0  0  0  0  0  0  0  0  0  0  0
    9.5843   -6.4333    2.5128 H   0  0  0  0  0  0  0  0  0  0  0  0
    9.2346   -5.8700    0.8596 H   0  0  0  0  0  0  0  0  0  0  0  0
    7.2283   -6.8178   -0.3996 H   0  0  0  0  0  0  0  0  0  0  0  0
    6.1409   -6.5047    0.9530 H   0  0  0  0  0  0  0  0  0  0  0  0
    5.2498   -8.3600   -0.4761 H   0  0  0  0  0  0  0  0  0  0  0  0
    7.4468   -9.2127   -1.3246 H   0  0  0  0  0  0  0  0  0  0  0  0
    6.5029  -10.5326   -0.6082 H   0  0  0  0  0  0  0  0  0  0  0  0
    8.8818  -10.6092    0.1840 H   0  0  0  0  0  0  0  0  0  0  0  0
    8.4099  -10.6573    2.6457 H   0  0  0  0  0  0  0  0  0  0  0  0
    7.0703  -11.3833    1.7390 H   0  0  0  0  0  0  0  0  0  0  0  0
    6.2110   -9.7982    3.4852 H   0  0  0  0  0  0  0  0  0  0  0  0
    4.7727   -8.3989    1.9829 H   0  0  0  0  0  0  0  0  0  0  0  0
    4.9178  -10.0499    1.3513 H   0  0  0  0  0  0  0  0  0  0  0  0
    8.2011   -8.2808    3.5550 H   0  0  0  0  0  0  0  0  0  0  0  0
    6.7147   -7.3480    3.2858 H   0  0  0  0  0  0  0  0  0  0  0  0
    9.3793   -8.1624   -0.0163 H   0  0  0  0  0  0  0  0  0  0  0  0
    9.7759   -8.7538    1.6062 H   0  0  0  0  0  0  0  0  0  0  0  0
    6.4591   -3.8826    3.9902 H   0  0  0  0  0  0  0  0  0  0  0  0
    5.3423   -1.9429    4.9954 H   0  0  0  0  0  0  0  0  0  0  0  0
    5.0889    0.2143    3.6883 H   0  0  0  0  0  0  0  0  0  0  0  0
    7.4022    1.7909   -3.2999 H   0  0  0  0  0  0  0  0  0  0  0  0
    5.0226    2.5814   -3.7987 H   0  0  0  0  0  0  0  0  0  0  0  0
    6.3445    3.2889   -4.7074 H   0  0  0  0  0  0  0  0  0  0  0  0
    4.6215    4.6097   -2.5649 H   0  0  0  0  0  0  0  0  0  0  0  0
    4.9649    5.1763   -4.1914 H   0  0  0  0  0  0  0  0  0  0  0  0
    6.2331    6.4844   -2.7330 H   0  0  0  0  0  0  0  0  0  0  0  0
    7.2388    4.9848   -0.9869 H   0  0  0  0  0  0  0  0  0  0  0  0
    8.3547    5.7913   -2.0842 H   0  0  0  0  0  0  0  0  0  0  0  0
    8.5204    2.9728   -0.4265 H   0  0  0  0  0  0  0  0  0  0  0  0
    9.8804    3.8272   -1.2133 H   0  0  0  0  0  0  0  0  0  0  0  0
    9.4724    2.1499   -1.6679 H   0  0  0  0  0  0  0  0  0  0  0  0
    8.3410    4.2268   -4.6146 H   0  0  0  0  0  0  0  0  0  0  0  0
    9.3341    2.8467   -4.1049 H   0  0  0  0  0  0  0  0  0  0  0  0
    9.7811    4.4928   -3.6102 H   0  0  0  0  0  0  0  0  0  0  0  0
  1  2  1  0
  1 40  1  0
  1 41  1  0
  1 42  1  0
  2  3  1  0
  3  4  1  0
  3 43  1  0
  3 44  1  0
  4  5  1  0
  4 45  1  0
  4 46  1  0
  5  6  1  0
  5 47  1  0
  5 48  1  0
  6  7  1  0
  6 32  1  0
  7  8  2  0
  7  9  1  0
  9 10  2  0
  9 31  1  0
 10 11  1  0
 10 49  1  0
 11 12  1  0
 11 30  1  0
 12 13  1  0
 12 27  2  0
 13 14  2  0
 13 15  1  0
 15 16  1  0
 15 50  1  0
 17 16  1  1
 16 51  1  0
 16 52  1  0
 17 18  1  0
 17 25  1  0
 17 26  1  0
 18 19  1  0
 18 53  1  0
 18 54  1  0
 19 20  1  0
 19 24  1  0
 19 55  1  6
 20 21  1  0
 20 56  1  0
 20 57  1  0
 21 22  1  0
 21 26  1  0
 21 58  1  6
 22 23  1  0
 22 59  1  0
 22 60  1  0
 23 24  1  0
 23 25  1  0
 23 61  1  1
 24 62  1  0
 24 63  1  0
 25 64  1  0
 25 65  1  0
 26 66  1  0
 26 67  1  0
 27 28  1  0
 27 68  1  0
 28 29  2  0
 28 69  1  0
 29 30  1  0
 29 70  1  0
 30 31  2  0
 32 33  1  0
 32 37  1  0
 32 71  1  6
 33 34  1  0
 33 72  1  0
 33 73  1  0
 34 35  1  0
 34 74  1  0
 34 75  1  0
 35 36  1  0
 35 76  1  0
 36 37  1  0
 36 77  1  0
 36 78  1  0
 37 38  1  1
 37 39  1  0
 38 79  1  0
 38 80  1  0
 38 81  1  0
 39 82  1  0
 39 83  1  0
 39 84  1  0
M  END

