
     RDKit          3D

 44 45  0  0  0  0  0  0  0  0999 V2000
    3.2889    0.4205   -1.9273 C   0  0  0  0  0  0  0  0  0  0  0  0
    4.1221   -0.0599   -0.7611 C   0  0  0  0  0  0  0  0  0  0  0  0
    5.3105    0.6240   -0.4793 C   0  0  0  0  0  0  0  0  0  0  0  0
    6.1622    0.2386    0.5476 C   0  0  0  0  0  0  0  0  0  0  0  0
    5.8393   -0.8455    1.3727 C   0  0  0  0  0  0  0  0  0  0  0  0
    6.6774   -1.1871    2.4310 N   0  0  0  0  0  0  0  0  0  0  0  0
    4.6209   -1.5535    1.1669 C   0  0  0  0  0  0  0  0  0  0  0  0
    4.3297   -2.6463    2.1715 C   0  0  0  0  0  0  0  0  0  0  0  0
    3.8026   -1.1606    0.0790 C   0  0  0  0  0  0  0  0  0  0  0  0
    2.3137   -2.1185   -0.3792 S   0  0  1  0  0  0  0  0  0  0  0  0
    2.3045   -2.3011   -1.8347 O   0  0  0  0  0  0  0  0  0  0  0  0
    2.1950   -3.3250    0.4542 O   0  0  0  0  0  0  0  0  0  0  0  0
    1.0519   -1.0381   -0.0181 N   0  0  0  0  0  0  0  0  0  0  0  0
    0.8123   -0.8194    1.4144 C   0  0  0  0  0  0  0  0  0  0  0  0
    0.0006    0.4627    1.6090 C   0  0  0  0  0  0  0  0  0  0  0  0
   -1.2786    0.4454    0.7686 C   0  0  0  0  0  0  0  0  0  0  0  0
   -0.9693    0.1584   -0.7101 C   0  0  2  0  0  0  0  0  0  0  0  0
   -2.2274    0.1899   -1.5818 C   0  0  0  0  0  0  0  0  0  0  0  0
   -0.1556   -1.1514   -0.8773 C   0  0  2  0  0  0  0  0  0  0  0  0
   -0.9492   -2.4458   -0.6380 C   0  0  0  0  0  0  0  0  0  0  0  0
    3.7010    1.3645   -2.3120 H   0  0  0  0  0  0  0  0  0  0  0  0
    2.2436    0.5945   -1.6339 H   0  0  0  0  0  0  0  0  0  0  0  0
    3.2708   -0.3171   -2.7413 H   0  0  0  0  0  0  0  0  0  0  0  0
    5.5832    1.4786   -1.1040 H   0  0  0  0  0  0  0  0  0  0  0  0
    7.0938    0.7862    0.7180 H   0  0  0  0  0  0  0  0  0  0  0  0
    7.6047   -0.7794    2.3940 H   0  0  0  0  0  0  0  0  0  0  0  0
    6.6989   -2.1643    2.6982 H   0  0  0  0  0  0  0  0  0  0  0  0
    4.5783   -2.2834    3.1820 H   0  0  0  0  0  0  0  0  0  0  0  0
    4.9578   -3.5366    1.9804 H   0  0  0  0  0  0  0  0  0  0  0  0
    3.2956   -2.9901    2.1521 H   0  0  0  0  0  0  0  0  0  0  0  0
    1.7856   -0.7267    1.9194 H   0  0  0  0  0  0  0  0  0  0  0  0
    0.2927   -1.6817    1.8739 H   0  0  0  0  0  0  0  0  0  0  0  0
    0.6239    1.3245    1.3150 H   0  0  0  0  0  0  0  0  0  0  0  0
   -0.2338    0.5824    2.6798 H   0  0  0  0  0  0  0  0  0  0  0  0
   -1.8052    1.4108    0.8560 H   0  0  0  0  0  0  0  0  0  0  0  0
   -1.9739   -0.3191    1.1603 H   0  0  0  0  0  0  0  0  0  0  0  0
   -0.2996    0.9650   -1.0604 H   0  0  0  0  0  0  0  0  0  0  0  0
   -2.9894   -0.5253   -1.2328 H   0  0  0  0  0  0  0  0  0  0  0  0
   -1.9977   -0.0490   -2.6330 H   0  0  0  0  0  0  0  0  0  0  0  0
   -2.6847    1.1921   -1.5591 H   0  0  0  0  0  0  0  0  0  0  0  0
    0.2185   -1.1790   -1.9108 H   0  0  0  0  0  0  0  0  0  0  0  0
   -1.3803   -2.5022    0.3735 H   0  0  0  0  0  0  0  0  0  0  0  0
   -0.2954   -3.3191   -0.7724 H   0  0  0  0  0  0  0  0  0  0  0  0
   -1.7756   -2.5324   -1.3592 H   0  0  0  0  0  0  0  0  0  0  0  0
  1  2  1  0
  1 21  1  0
  1 22  1  0
  1 23  1  0
  2  3  2  0
  2  9  1  0
  3  4  1  0
  3 24  1  0
  4  5  2  0
  4 25  1  0
  5  6  1  0
  5  7  1  0
  6 26  1  0
  6 27  1  0
  7  8  1  0
  7  9  2  0
  8 28  1  0
  8 29  1  0
  8 30  1  0
 10  9  1  1
 10 11  2  0
 10 12  2  0
 10 13  1  0
 13 14  1  0
 13 19  1  0
 14 15  1  0
 14 31  1  0
 14 32  1  0
 15 16  1  0
 15 33  1  0
 15 34  1  0
 16 17  1  0
 16 35  1  0
 16 36  1  0
 17 18  1  0
 17 19  1  0
 17 37  1  6
 18 38  1  0
 18 39  1  0
 18 40  1  0
 19 20  1  0
 19 41  1  6
 20 42  1  0
 20 43  1  0
 20 44  1  0
M  END

