
     RDKit          3D

 53 56  0  0  0  0  0  0  0  0999 V2000
    4.9213    1.7941   -0.3178 C   0  0  0  0  0  0  0  0  0  0  0  0
    3.7830    0.7709   -0.2997 C   0  0  1  0  0  0  0  0  0  0  0  0
    3.4237    0.6697    0.7365 H   0  0  0  0  0  0  0  0  0  0  0  0
    2.6116    1.2028   -1.1548 C   0  0  0  0  0  0  0  0  0  0  0  0
    2.5295    2.3224   -1.7908 N   0  0  0  0  0  0  0  0  0  0  0  0
    1.3255    2.4512   -2.4595 C   0  0  0  0  0  0  0  0  0  0  0  0
    0.9384    3.5555   -3.2372 C   0  0  0  0  0  0  0  0  0  0  0  0
   -0.3070    3.5421   -3.8583 C   0  0  0  0  0  0  0  0  0  0  0  0
   -1.1735    2.4415   -3.7148 C   0  0  0  0  0  0  0  0  0  0  0  0
   -0.8100    1.3347   -2.9481 C   0  0  0  0  0  0  0  0  0  0  0  0
    0.4425    1.3475   -2.3225 C   0  0  0  0  0  0  0  0  0  0  0  0
    1.1912    0.1350   -1.3078 S   0  0  0  0  0  0  0  0  0  0  0  0
    4.2219   -0.5845   -0.6630 N   0  0  0  0  0  0  0  0  0  0  0  0
    4.5889   -0.8574   -2.0493 C   0  0  0  0  0  0  0  0  0  0  0  0
    4.2887   -1.5286    0.3336 C   0  0  0  0  0  0  0  0  0  0  0  0
    4.0014   -1.2789    1.4967 O   0  0  0  0  0  0  0  0  0  0  0  0
    4.7439   -2.9435   -0.0544 C   0  0  0  0  0  0  0  0  0  0  0  0
    6.1720   -3.0032   -0.3507 N   0  0  0  0  0  0  0  0  0  0  0  0
    7.0567   -2.7017    0.7792 C   0  0  0  0  0  0  0  0  0  0  0  0
    7.2042   -3.8630    1.7661 C   0  0  0  0  0  0  0  0  0  0  0  0
    7.5890   -5.0959    1.0757 N   0  0  0  0  0  0  0  0  0  0  0  0
    8.3436   -6.0480    1.7453 C   0  0  0  0  0  0  0  0  0  0  0  0
    8.4513   -7.3935    1.3014 C   0  0  0  0  0  0  0  0  0  0  0  0
    9.2710   -8.2670    2.0065 C   0  0  0  0  0  0  0  0  0  0  0  0
    9.9605   -7.8206    3.1395 C   0  0  0  0  0  0  0  0  0  0  0  0
    9.7695   -6.4895    3.5112 C   0  0  0  0  0  0  0  0  0  0  0  0
    8.9929   -5.6360    2.8473 N   0  0  0  0  0  0  0  0  0  0  0  0
    6.7596   -5.4375   -0.0683 C   0  0  0  0  0  0  0  0  0  0  0  0
    6.6135   -4.2277   -1.0074 C   0  0  0  0  0  0  0  0  0  0  0  0
    4.5520    2.7775    0.0047 H   0  0  0  0  0  0  0  0  0  0  0  0
    5.3445    1.9211   -1.3254 H   0  0  0  0  0  0  0  0  0  0  0  0
    5.7170    1.4681    0.3678 H   0  0  0  0  0  0  0  0  0  0  0  0
    1.6219    4.4009   -3.3375 H   0  0  0  0  0  0  0  0  0  0  0  0
   -0.6188    4.3958   -4.4650 H   0  0  0  0  0  0  0  0  0  0  0  0
   -2.1472    2.4530   -4.2108 H   0  0  0  0  0  0  0  0  0  0  0  0
   -1.4865    0.4843   -2.8396 H   0  0  0  0  0  0  0  0  0  0  0  0
    4.8215    0.0903   -2.5540 H   0  0  0  0  0  0  0  0  0  0  0  0
    3.7687   -1.3386   -2.6102 H   0  0  0  0  0  0  0  0  0  0  0  0
    5.4837   -1.4923   -2.0820 H   0  0  0  0  0  0  0  0  0  0  0  0
    4.1959   -3.2827   -0.9487 H   0  0  0  0  0  0  0  0  0  0  0  0
    4.4230   -3.5825    0.7901 H   0  0  0  0  0  0  0  0  0  0  0  0
    6.6828   -1.8175    1.3159 H   0  0  0  0  0  0  0  0  0  0  0  0
    8.0506   -2.4493    0.3700 H   0  0  0  0  0  0  0  0  0  0  0  0
    6.2532   -4.0167    2.3165 H   0  0  0  0  0  0  0  0  0  0  0  0
    7.9731   -3.6392    2.5139 H   0  0  0  0  0  0  0  0  0  0  0  0
    7.9006   -7.7565    0.4349 H   0  0  0  0  0  0  0  0  0  0  0  0
    9.3623   -9.3049    1.6741 H   0  0  0  0  0  0  0  0  0  0  0  0
   10.6090   -8.4803    3.7185 H   0  0  0  0  0  0  0  0  0  0  0  0
   10.2716   -6.0883    4.4007 H   0  0  0  0  0  0  0  0  0  0  0  0
    5.7605   -5.8020    0.2548 H   0  0  0  0  0  0  0  0  0  0  0  0
    7.2263   -6.2496   -0.6415 H   0  0  0  0  0  0  0  0  0  0  0  0
    5.9176   -4.4792   -1.8243 H   0  0  0  0  0  0  0  0  0  0  0  0
    7.6001   -4.0297   -1.4628 H   0  0  0  0  0  0  0  0  0  0  0  0
  1  2  1  0
  1 30  1  0
  1 31  1  0
  1 32  1  0
  2  3  1  1
  2  4  1  0
  2 13  1  0
  4  5  2  0
  4 12  1  0
  5  6  1  0
  6  7  2  0
  6 11  1  0
  7  8  1  0
  7 33  1  0
  8  9  2  0
  8 34  1  0
  9 10  1  0
  9 35  1  0
 10 11  2  0
 10 36  1  0
 11 12  1  0
 13 14  1  0
 13 15  1  0
 14 37  1  0
 14 38  1  0
 14 39  1  0
 15 16  2  0
 15 17  1  0
 17 18  1  0
 17 40  1  0
 17 41  1  0
 18 19  1  0
 18 29  1  0
 19 20  1  0
 19 42  1  0
 19 43  1  0
 20 21  1  0
 20 44  1  0
 20 45  1  0
 21 22  1  0
 21 28  1  0
 22 23  2  0
 22 27  1  0
 23 24  1  0
 23 46  1  0
 24 25  2  0
 24 47  1  0
 25 26  1  0
 25 48  1  0
 26 27  2  0
 26 49  1  0
 28 29  1  0
 28 50  1  0
 28 51  1  0
 29 52  1  0
 29 53  1  0
M  END

