
     RDKit          3D

 49 53  0  0  0  0  0  0  0  0999 V2000
    0.9287   -1.5959    0.0995 C   0  0  0  0  0  0  0  0  0  0  0  0
    2.2312   -1.3544   -0.6198 C   0  0  0  0  0  0  0  0  0  0  0  0
    2.3379   -0.4340   -1.6749 C   0  0  0  0  0  0  0  0  0  0  0  0
    3.5741   -0.2655   -2.3034 C   0  0  0  0  0  0  0  0  0  0  0  0
    4.6659   -1.0113   -1.8688 C   0  0  0  0  0  0  0  0  0  0  0  0
    4.4719   -1.9104   -0.8043 C   0  0  0  0  0  0  0  0  0  0  0  0
    5.5963   -2.7222   -0.2939 C   0  0  0  0  0  0  0  0  0  0  0  0
    6.8259   -2.5396   -0.8053 N   0  0  0  0  0  0  0  0  0  0  0  0
    7.6203   -3.3725   -0.1298 N   0  0  0  0  0  0  0  0  0  0  0  0
    8.9665   -3.5069   -0.3438 C   0  0  0  0  0  0  0  0  0  0  0  0
    9.6762   -4.4003    0.4136 C   0  0  0  0  0  0  0  0  0  0  0  0
    9.0152   -5.1799    1.4094 C   0  0  0  0  0  0  0  0  0  0  0  0
    7.6627   -5.0387    1.6188 C   0  0  0  0  0  0  0  0  0  0  0  0
    6.9296   -4.1079    0.8368 C   0  0  0  0  0  0  0  0  0  0  0  0
    5.5887   -3.6980    0.7419 C   0  0  0  0  0  0  0  0  0  0  0  0
    4.4938   -4.2134    1.5957 C   0  0  0  0  0  0  0  0  0  0  0  0
    4.4746   -3.9340    2.9516 C   0  0  0  0  0  0  0  0  0  0  0  0
    3.4446   -4.4619    3.7737 C   0  0  0  0  0  0  0  0  0  0  0  0
    2.4759   -5.2309    3.3366 N   0  0  0  0  0  0  0  0  0  0  0  0
    2.4684   -5.5468    2.0081 C   0  0  0  0  0  0  0  0  0  0  0  0
    1.4323   -6.3904    1.5368 C   0  0  0  0  0  0  0  0  0  0  0  0
    1.3538   -6.7765    0.2035 C   0  0  0  0  0  0  0  0  0  0  0  0
    0.3006   -7.6481   -0.3221 C   0  0  0  0  0  0  0  0  0  0  0  0
   -0.7342   -8.1981    0.3440 C   0  0  0  0  0  0  0  0  0  0  0  0
   -1.7076   -9.0648   -0.3755 C   0  0  0  0  0  0  0  0  0  0  0  0
   -1.6517   -9.3282   -1.5498 O   0  0  0  0  0  0  0  0  0  0  0  0
   -2.7111   -9.5678    0.3866 O   0  0  0  0  0  0  0  0  0  0  0  0
    2.3559   -6.3019   -0.6968 C   0  0  0  0  0  0  0  0  0  0  0  0
    3.3727   -5.4776   -0.2701 C   0  0  0  0  0  0  0  0  0  0  0  0
    3.4603   -5.0694    1.0876 C   0  0  0  0  0  0  0  0  0  0  0  0
    3.2858   -2.0671   -0.2054 N   0  0  0  0  0  0  0  0  0  0  0  0
    0.1288   -0.9341   -0.2619 H   0  0  0  0  0  0  0  0  0  0  0  0
    1.0572   -1.4415    1.1824 H   0  0  0  0  0  0  0  0  0  0  0  0
    0.6087   -2.6418   -0.0356 H   0  0  0  0  0  0  0  0  0  0  0  0
    1.4642    0.1380   -1.9953 H   0  0  0  0  0  0  0  0  0  0  0  0
    3.6827    0.4444   -3.1277 H   0  0  0  0  0  0  0  0  0  0  0  0
    5.6520   -0.9165   -2.3233 H   0  0  0  0  0  0  0  0  0  0  0  0
    9.3802   -2.8716   -1.1270 H   0  0  0  0  0  0  0  0  0  0  0  0
   10.7482   -4.5067    0.2428 H   0  0  0  0  0  0  0  0  0  0  0  0
    9.5904   -5.8922    2.0045 H   0  0  0  0  0  0  0  0  0  0  0  0
    7.1339   -5.6244    2.3723 H   0  0  0  0  0  0  0  0  0  0  0  0
    5.2378   -3.2885    3.3918 H   0  0  0  0  0  0  0  0  0  0  0  0
    3.4393   -4.2179    4.8441 H   0  0  0  0  0  0  0  0  0  0  0  0
    0.7044   -6.7212    2.2794 H   0  0  0  0  0  0  0  0  0  0  0  0
    0.3555   -7.8862   -1.3906 H   0  0  0  0  0  0  0  0  0  0  0  0
   -0.8786   -8.0208    1.4151 H   0  0  0  0  0  0  0  0  0  0  0  0
   -2.6228   -9.2702    1.3025 H   0  0  0  0  0  0  0  0  0  0  0  0
    2.3063   -6.6054   -1.7457 H   0  0  0  0  0  0  0  0  0  0  0  0
    4.1262   -5.1277   -0.9773 H   0  0  0  0  0  0  0  0  0  0  0  0
  1  2  1  0
  1 32  1  0
  1 33  1  0
  1 34  1  0
  2  3  2  0
  2 31  1  0
  3  4  1  0
  3 35  1  0
  4  5  2  0
  4 36  1  0
  5  6  1  0
  5 37  1  0
  6  7  1  0
  6 31  2  0
  7  8  2  0
  7 15  1  0
  8  9  1  0
  9 10  1  0
  9 14  1  0
 10 11  2  0
 10 38  1  0
 11 12  1  0
 11 39  1  0
 12 13  2  0
 12 40  1  0
 13 14  1  0
 13 41  1  0
 14 15  2  0
 15 16  1  0
 16 17  2  0
 16 30  1  0
 17 18  1  0
 17 42  1  0
 18 19  2  0
 18 43  1  0
 19 20  1  0
 20 21  1  0
 20 30  2  0
 21 22  2  0
 21 44  1  0
 22 23  1  0
 22 28  1  0
 23 24  2  0
 23 45  1  0
 24 25  1  0
 24 46  1  0
 25 26  2  0
 25 27  1  0
 27 47  1  0
 28 29  2  0
 28 48  1  0
 29 30  1  0
 29 49  1  0
M  END

