
     RDKit          3D

 53 54  0  0  0  0  0  0  0  0999 V2000
    1.3521    1.4921   -1.6770 C   0  0  0  0  0  0  0  0  0  0  0  0
    2.5596    0.8822   -1.0054 C   0  0  0  0  0  0  0  0  0  0  0  0
    3.6153    1.7306   -0.6600 C   0  0  0  0  0  0  0  0  0  0  0  0
    4.7936    1.2762   -0.0488 C   0  0  0  0  0  0  0  0  0  0  0  0
    5.9139    2.2728    0.3053 C   0  0  1  0  0  0  0  0  0  0  0  0
    5.3631    3.3265    1.2944 C   0  0  0  0  0  0  0  0  0  0  0  0
    7.1246    1.5832    0.9593 C   0  0  0  0  0  0  0  0  0  0  0  0
    6.3961    2.9790   -0.9833 C   0  0  0  0  0  0  0  0  0  0  0  0
    4.8847   -0.0933    0.2080 C   0  0  0  0  0  0  0  0  0  0  0  0
    3.8643   -1.0102   -0.1068 C   0  0  0  0  0  0  0  0  0  0  0  0
    4.1350   -2.4613    0.2286 C   0  0  0  0  0  0  0  0  0  0  0  0
    2.6893   -0.5015   -0.7099 C   0  0  0  0  0  0  0  0  0  0  0  0
    1.3365   -1.6071   -1.2054 S   0  0  1  0  0  0  0  0  0  0  0  0
    0.9868   -1.3408   -2.6059 O   0  0  0  0  0  0  0  0  0  0  0  0
    1.6737   -2.9837   -0.8161 O   0  0  0  0  0  0  0  0  0  0  0  0
    0.0275   -1.0610   -0.2778 N   0  0  0  0  0  0  0  0  0  0  0  0
    0.0876   -1.3481    1.1581 C   0  0  0  0  0  0  0  0  0  0  0  0
   -0.5891   -2.6473    1.6101 C   0  0  0  0  0  0  0  0  0  0  0  0
   -2.1104   -2.6636    1.3487 C   0  0  0  0  0  0  0  0  0  0  0  0
   -2.5698   -3.0362    0.0187 N   0  0  0  0  0  0  0  0  0  0  0  0
   -2.8169   -4.4488   -0.1784 C   0  0  0  0  0  0  0  0  0  0  0  0
   -1.9284   -2.4348   -1.1458 C   0  0  0  0  0  0  0  0  0  0  0  0
   -1.2863   -1.0596   -0.9343 C   0  0  0  0  0  0  0  0  0  0  0  0
    1.4924    2.5751   -1.7988 H   0  0  0  0  0  0  0  0  0  0  0  0
    0.4410    1.3234   -1.0840 H   0  0  0  0  0  0  0  0  0  0  0  0
    1.1776    1.0400   -2.6632 H   0  0  0  0  0  0  0  0  0  0  0  0
    3.5002    2.7921   -0.8897 H   0  0  0  0  0  0  0  0  0  0  0  0
    5.0164    2.8515    2.2259 H   0  0  0  0  0  0  0  0  0  0  0  0
    4.5173    3.8873    0.8686 H   0  0  0  0  0  0  0  0  0  0  0  0
    6.1487    4.0544    1.5553 H   0  0  0  0  0  0  0  0  0  0  0  0
    6.8540    1.0832    1.9023 H   0  0  0  0  0  0  0  0  0  0  0  0
    7.8965    2.3331    1.1929 H   0  0  0  0  0  0  0  0  0  0  0  0
    7.5816    0.8353    0.2928 H   0  0  0  0  0  0  0  0  0  0  0  0
    5.5845    3.5341   -1.4776 H   0  0  0  0  0  0  0  0  0  0  0  0
    6.7944    2.2515   -1.7082 H   0  0  0  0  0  0  0  0  0  0  0  0
    7.1970    3.6986   -0.7474 H   0  0  0  0  0  0  0  0  0  0  0  0
    5.7820   -0.4997    0.6731 H   0  0  0  0  0  0  0  0  0  0  0  0
    5.1332   -2.5521    0.6799 H   0  0  0  0  0  0  0  0  0  0  0  0
    4.0870   -3.1035   -0.6609 H   0  0  0  0  0  0  0  0  0  0  0  0
    3.3949   -2.8721    0.9292 H   0  0  0  0  0  0  0  0  0  0  0  0
   -0.3833   -0.4938    1.6798 H   0  0  0  0  0  0  0  0  0  0  0  0
    1.1457   -1.3410    1.4610 H   0  0  0  0  0  0  0  0  0  0  0  0
   -0.4177   -2.7425    2.6972 H   0  0  0  0  0  0  0  0  0  0  0  0
   -0.0980   -3.5088    1.1297 H   0  0  0  0  0  0  0  0  0  0  0  0
   -2.5131   -1.6668    1.6167 H   0  0  0  0  0  0  0  0  0  0  0  0
   -2.5875   -3.3634    2.0520 H   0  0  0  0  0  0  0  0  0  0  0  0
   -3.4490   -4.8466    0.6316 H   0  0  0  0  0  0  0  0  0  0  0  0
   -1.8937   -5.0714   -0.2310 H   0  0  0  0  0  0  0  0  0  0  0  0
   -3.3610   -4.6037   -1.1256 H   0  0  0  0  0  0  0  0  0  0  0  0
   -2.6870   -2.3284   -1.9456 H   0  0  0  0  0  0  0  0  0  0  0  0
   -1.1428   -3.0974   -1.5681 H   0  0  0  0  0  0  0  0  0  0  0  0
   -1.9449   -0.3990   -0.3460 H   0  0  0  0  0  0  0  0  0  0  0  0
   -1.1601   -0.5940   -1.9203 H   0  0  0  0  0  0  0  0  0  0  0  0
  1  2  1  0
  1 24  1  0
  1 25  1  0
  1 26  1  0
  2  3  2  0
  2 12  1  0
  3  4  1  0
  3 27  1  0
  4  5  1  0
  4  9  2  0
  5  6  1  1
  5  7  1  0
  5  8  1  0
  6 28  1  0
  6 29  1  0
  6 30  1  0
  7 31  1  0
  7 32  1  0
  7 33  1  0
  8 34  1  0
  8 35  1  0
  8 36  1  0
  9 10  1  0
  9 37  1  0
 10 11  1  0
 10 12  2  0
 11 38  1  0
 11 39  1  0
 11 40  1  0
 13 12  1  1
 13 14  2  0
 13 15  2  0
 13 16  1  0
 16 17  1  0
 16 23  1  0
 17 18  1  0
 17 41  1  0
 17 42  1  0
 18 19  1  0
 18 43  1  0
 18 44  1  0
 19 20  1  0
 19 45  1  0
 19 46  1  0
 20 21  1  0
 20 22  1  0
 21 47  1  0
 21 48  1  0
 21 49  1  0
 22 23  1  0
 22 50  1  0
 22 51  1  0
 23 52  1  0
 23 53  1  0
M  END

