
     RDKit          3D

 60 64  0  0  0  0  0  0  0  0999 V2000
    1.2034    0.1321   -0.4170 O   0  0  0  0  0  0  0  0  0  0  0  0
    2.4004   -0.0096   -0.1434 C   0  0  0  0  0  0  0  0  0  0  0  0
    3.0201    0.6639    0.8838 N   0  0  0  0  0  0  0  0  0  0  0  0
    2.3309    1.6099    1.7251 C   0  0  0  0  0  0  0  0  0  0  0  0
    2.9997    2.9842    1.7361 C   0  0  2  0  0  0  0  0  0  0  0  0
    3.1063    3.7069    0.3929 C   0  0  0  0  0  0  0  0  0  0  0  0
    4.3177    4.6179    0.6162 C   0  0  0  0  0  0  0  0  0  0  0  0
    5.2325    3.7862    1.5559 C   0  0  2  0  0  0  0  0  0  0  0  0
    5.8942    4.6227    2.6631 C   0  0  0  0  0  0  0  0  0  0  0  0
    7.0486    5.4874    2.1267 C   0  0  0  0  0  0  0  0  0  0  0  0
    8.0606    4.7291    1.3993 N   0  0  0  0  0  0  0  0  0  0  0  0
    7.4814    3.9149    0.3361 C   0  0  0  0  0  0  0  0  0  0  0  0
    6.3233    3.0102    0.7943 C   0  0  0  0  0  0  0  0  0  0  0  0
    4.3501    2.8260    2.1735 O   0  0  0  0  0  0  0  0  0  0  0  0
    3.2475   -0.9158   -0.9095 C   0  0  0  0  0  0  0  0  0  0  0  0
    2.7653   -1.6969   -1.9960 C   0  0  0  0  0  0  0  0  0  0  0  0
    3.5823   -2.5382   -2.7034 C   0  0  0  0  0  0  0  0  0  0  0  0
    4.9890   -2.6154   -2.3064 C   0  0  0  0  0  0  0  0  0  0  0  0
    5.9135   -3.4292   -2.9489 N   0  0  0  0  0  0  0  0  0  0  0  0
    7.2624   -3.4852   -2.6053 C   0  0  0  0  0  0  0  0  0  0  0  0
    7.7273   -2.8051   -1.7022 O   0  0  0  0  0  0  0  0  0  0  0  0
    8.0178   -4.3508   -3.3493 N   0  0  0  0  0  0  0  0  0  0  0  0
    7.5566   -5.1745   -4.4657 C   0  0  0  0  0  0  0  0  0  0  0  0
    8.8184   -5.8791   -4.9005 C   0  0  0  0  0  0  0  0  0  0  0  0
    8.9923   -6.8033   -5.9315 C   0  0  0  0  0  0  0  0  0  0  0  0
   10.2689   -7.3312   -6.1529 C   0  0  0  0  0  0  0  0  0  0  0  0
   11.3494   -6.9373   -5.3526 C   0  0  0  0  0  0  0  0  0  0  0  0
   11.1700   -6.0099   -4.3203 C   0  0  0  0  0  0  0  0  0  0  0  0
    9.8961   -5.4833   -4.1001 C   0  0  0  0  0  0  0  0  0  0  0  0
    9.4511   -4.4822   -3.0668 C   0  0  0  0  0  0  0  0  0  0  0  0
    5.3090   -1.8459   -1.2891 N   0  0  0  0  0  0  0  0  0  0  0  0
    4.6074   -1.0773   -0.6337 N   0  0  0  0  0  0  0  0  0  0  0  0
    4.0049    0.5079    1.0616 H   0  0  0  0  0  0  0  0  0  0  0  0
    2.2819    1.2433    2.7674 H   0  0  0  0  0  0  0  0  0  0  0  0
    1.2997    1.6907    1.3516 H   0  0  0  0  0  0  0  0  0  0  0  0
    2.4469    3.6201    2.4595 H   0  0  0  0  0  0  0  0  0  0  0  0
    2.1888    4.2549    0.1309 H   0  0  0  0  0  0  0  0  0  0  0  0
    3.3043    2.9750   -0.4058 H   0  0  0  0  0  0  0  0  0  0  0  0
    4.0074    5.5487    1.1194 H   0  0  0  0  0  0  0  0  0  0  0  0
    4.8185    4.9060   -0.3196 H   0  0  0  0  0  0  0  0  0  0  0  0
    6.2839    3.9228    3.4228 H   0  0  0  0  0  0  0  0  0  0  0  0
    5.1347    5.2462    3.1657 H   0  0  0  0  0  0  0  0  0  0  0  0
    7.5348    6.0292    2.9546 H   0  0  0  0  0  0  0  0  0  0  0  0
    6.6489    6.2636    1.4474 H   0  0  0  0  0  0  0  0  0  0  0  0
    8.5687    4.1293    2.0501 H   0  0  0  0  0  0  0  0  0  0  0  0
    8.2778    3.3057   -0.1215 H   0  0  0  0  0  0  0  0  0  0  0  0
    7.1271    4.5975   -0.4589 H   0  0  0  0  0  0  0  0  0  0  0  0
    6.7106    2.2333    1.4765 H   0  0  0  0  0  0  0  0  0  0  0  0
    5.8787    2.4795   -0.0653 H   0  0  0  0  0  0  0  0  0  0  0  0
    1.7049   -1.5834   -2.2321 H   0  0  0  0  0  0  0  0  0  0  0  0
    3.2221   -3.1387   -3.5395 H   0  0  0  0  0  0  0  0  0  0  0  0
    5.5465   -4.0227   -3.6801 H   0  0  0  0  0  0  0  0  0  0  0  0
    7.1286   -4.5589   -5.2830 H   0  0  0  0  0  0  0  0  0  0  0  0
    6.7745   -5.8960   -4.1522 H   0  0  0  0  0  0  0  0  0  0  0  0
    8.1509   -7.1127   -6.5576 H   0  0  0  0  0  0  0  0  0  0  0  0
   10.4241   -8.0560   -6.9558 H   0  0  0  0  0  0  0  0  0  0  0  0
   12.3412   -7.3578   -5.5367 H   0  0  0  0  0  0  0  0  0  0  0  0
   12.0160   -5.7050   -3.6986 H   0  0  0  0  0  0  0  0  0  0  0  0
    9.9651   -3.5086   -3.1609 H   0  0  0  0  0  0  0  0  0  0  0  0
    9.6221   -4.8267   -2.0310 H   0  0  0  0  0  0  0  0  0  0  0  0
  1  2  2  0
  2  3  1  0
  2 15  1  0
  3  4  1  0
  3 33  1  0
  4  5  1  0
  4 34  1  0
  4 35  1  0
  5  6  1  0
  5 14  1  0
  5 36  1  1
  6  7  1  0
  6 37  1  0
  6 38  1  0
  7  8  1  0
  7 39  1  0
  7 40  1  0
  8  9  1  0
  8 13  1  0
  8 14  1  1
  9 10  1  0
  9 41  1  0
  9 42  1  0
 10 11  1  0
 10 43  1  0
 10 44  1  0
 11 12  1  0
 11 45  1  0
 12 13  1  0
 12 46  1  0
 12 47  1  0
 13 48  1  0
 13 49  1  0
 15 16  2  0
 15 32  1  0
 16 17  1  0
 16 50  1  0
 17 18  2  0
 17 51  1  0
 18 19  1  0
 18 31  1  0
 19 20  1  0
 19 52  1  0
 20 21  2  0
 20 22  1  0
 22 23  1  0
 22 30  1  0
 23 24  1  0
 23 53  1  0
 23 54  1  0
 24 25  1  0
 24 29  2  0
 25 26  2  0
 25 55  1  0
 26 27  1  0
 26 56  1  0
 27 28  2  0
 27 57  1  0
 28 29  1  0
 28 58  1  0
 29 30  1  0
 30 59  1  0
 30 60  1  0
 31 32  2  0
M  END

