
     RDKit          3D

 56 59  0  0  0  0  0  0  0  0999 V2000
   -0.4228    3.1656    5.1089 C   0  0  0  0  0  0  0  0  0  0  0  0
    0.8625    2.5899    5.1384 O   0  0  0  0  0  0  0  0  0  0  0  0
    1.3821    2.0606    4.0019 C   0  0  0  0  0  0  0  0  0  0  0  0
    0.7335    2.0602    2.7582 C   0  0  0  0  0  0  0  0  0  0  0  0
    1.3737    1.4817    1.6551 C   0  0  0  0  0  0  0  0  0  0  0  0
    2.6393    0.9129    1.7769 C   0  0  0  0  0  0  0  0  0  0  0  0
    3.2889    0.9109    3.0236 C   0  0  0  0  0  0  0  0  0  0  0  0
    4.6675    0.2624    3.1447 C   0  0  1  0  0  0  0  0  0  0  0  0
    5.5251    0.8322    4.1859 N   0  0  0  0  0  0  0  0  0  0  0  0
    6.1782    2.0416    4.2009 C   0  0  0  0  0  0  0  0  0  0  0  0
    6.7411    2.4382    5.2036 O   0  0  0  0  0  0  0  0  0  0  0  0
    6.1514    2.8897    2.9216 C   0  0  0  0  0  0  0  0  0  0  0  0
    6.8095    2.2781    1.7127 C   0  0  0  0  0  0  0  0  0  0  0  0
    6.3432    2.3558    0.4207 C   0  0  0  0  0  0  0  0  0  0  0  0
    7.4264    1.5585   -0.6642 S   0  0  0  0  0  0  0  0  0  0  0  0
    8.4447    1.1618    0.7048 C   0  0  0  0  0  0  0  0  0  0  0  0
    9.7017    0.3601    0.5528 C   0  0  0  0  0  0  0  0  0  0  0  0
    9.3620   -0.9389    0.0906 O   0  0  0  0  0  0  0  0  0  0  0  0
   10.3589   -1.8337   -0.1637 C   0  0  0  0  0  0  0  0  0  0  0  0
    9.9579   -3.0654   -0.7091 C   0  0  0  0  0  0  0  0  0  0  0  0
   10.8983   -4.0491   -0.9981 C   0  0  0  0  0  0  0  0  0  0  0  0
   12.2551   -3.8091   -0.7448 C   0  0  0  0  0  0  0  0  0  0  0  0
   13.4389   -5.0451   -1.1085 Cl  0  0  0  0  0  0  0  0  0  0  0  0
   12.6632   -2.5905   -0.2045 C   0  0  0  0  0  0  0  0  0  0  0  0
   11.7181   -1.6001    0.0889 C   0  0  0  0  0  0  0  0  0  0  0  0
    7.9970    1.5964    1.8463 N   0  0  0  0  0  0  0  0  0  0  0  0
    4.5583   -1.2283    3.3765 C   0  0  0  0  0  0  0  0  0  0  0  0
    3.5369   -1.8452    3.9349 N   0  0  0  0  0  0  0  0  0  0  0  0
    3.8826   -3.1679    3.9912 C   0  0  0  0  0  0  0  0  0  0  0  0
    5.1400   -3.3535    3.4604 C   0  0  0  0  0  0  0  0  0  0  0  0
    5.5736   -2.1049    3.0701 N   0  0  0  0  0  0  0  0  0  0  0  0
    6.8448   -1.7973    2.4353 C   0  0  0  0  0  0  0  0  0  0  0  0
    2.6595    1.4857    4.1243 C   0  0  0  0  0  0  0  0  0  0  0  0
   -0.6350    3.5110    6.1298 H   0  0  0  0  0  0  0  0  0  0  0  0
   -1.1957    2.4337    4.8118 H   0  0  0  0  0  0  0  0  0  0  0  0
   -0.4725    4.0310    4.4227 H   0  0  0  0  0  0  0  0  0  0  0  0
   -0.2555    2.5019    2.6369 H   0  0  0  0  0  0  0  0  0  0  0  0
    0.8680    1.4822    0.6858 H   0  0  0  0  0  0  0  0  0  0  0  0
    3.1234    0.4595    0.9076 H   0  0  0  0  0  0  0  0  0  0  0  0
    5.1746    0.4107    2.1788 H   0  0  0  0  0  0  0  0  0  0  0  0
    5.5165    0.3723    5.0922 H   0  0  0  0  0  0  0  0  0  0  0  0
    6.6779    3.8153    3.1989 H   0  0  0  0  0  0  0  0  0  0  0  0
    5.1104    3.1537    2.6788 H   0  0  0  0  0  0  0  0  0  0  0  0
    5.4280    2.8267    0.0657 H   0  0  0  0  0  0  0  0  0  0  0  0
   10.1883    0.3242    1.5422 H   0  0  0  0  0  0  0  0  0  0  0  0
   10.3939    0.8445   -0.1610 H   0  0  0  0  0  0  0  0  0  0  0  0
    8.8965   -3.2306   -0.9046 H   0  0  0  0  0  0  0  0  0  0  0  0
   10.5867   -5.0049   -1.4228 H   0  0  0  0  0  0  0  0  0  0  0  0
   13.7216   -2.4113   -0.0082 H   0  0  0  0  0  0  0  0  0  0  0  0
   12.0613   -0.6588    0.5182 H   0  0  0  0  0  0  0  0  0  0  0  0
    3.2154   -3.9202    4.4105 H   0  0  0  0  0  0  0  0  0  0  0  0
    5.7553   -4.2407    3.3278 H   0  0  0  0  0  0  0  0  0  0  0  0
    7.5401   -2.6314    2.5975 H   0  0  0  0  0  0  0  0  0  0  0  0
    7.2809   -0.8883    2.8711 H   0  0  0  0  0  0  0  0  0  0  0  0
    6.7345   -1.6464    1.3496 H   0  0  0  0  0  0  0  0  0  0  0  0
    3.1362    1.5014    5.1053 H   0  0  0  0  0  0  0  0  0  0  0  0
  1  2  1  0
  1 34  1  0
  1 35  1  0
  1 36  1  0
  2  3  1  0
  3  4  2  0
  3 33  1  0
  4  5  1  0
  4 37  1  0
  5  6  2  0
  5 38  1  0
  6  7  1  0
  6 39  1  0
  7  8  1  0
  7 33  2  0
  8  9  1  0
  8 27  1  0
  8 40  1  6
  9 10  1  0
  9 41  1  0
 10 11  2  0
 10 12  1  0
 12 13  1  0
 12 42  1  0
 12 43  1  0
 13 14  2  0
 13 26  1  0
 14 15  1  0
 14 44  1  0
 15 16  1  0
 16 17  1  0
 16 26  2  0
 17 18  1  0
 17 45  1  0
 17 46  1  0
 18 19  1  0
 19 20  2  0
 19 25  1  0
 20 21  1  0
 20 47  1  0
 21 22  2  0
 21 48  1  0
 22 23  1  0
 22 24  1  0
 24 25  2  0
 24 49  1  0
 25 50  1  0
 27 28  2  0
 27 31  1  0
 28 29  1  0
 29 30  2  0
 29 51  1  0
 30 31  1  0
 30 52  1  0
 31 32  1  0
 32 53  1  0
 32 54  1  0
 32 55  1  0
 33 56  1  0
M  END

