
     RDKit          3D

 38 39  0  0  0  0  0  0  0  0999 V2000
   -0.3996    3.5005    6.2223 C   0  0  0  0  0  0  0  0  0  0  0  0
    0.2193    2.9055    5.0709 O   0  0  0  0  0  0  0  0  0  0  0  0
    1.4953    3.0590    4.8025 C   0  0  0  0  0  0  0  0  0  0  0  0
    2.4036    3.8232    5.5929 C   0  0  0  0  0  0  0  0  0  0  0  0
    3.7212    3.8983    5.2089 C   0  0  0  0  0  0  0  0  0  0  0  0
    4.1935    3.2318    4.0303 C   0  0  0  0  0  0  0  0  0  0  0  0
    5.6445    3.3659    3.6394 C   0  0  0  0  0  0  0  0  0  0  0  0
    6.5764    3.0152    4.6943 N   0  0  0  0  0  0  0  0  0  0  0  0
    7.0789    1.6432    4.6856 C   0  0  0  0  0  0  0  0  0  0  0  0
    7.0787    4.0627    5.4418 C   0  0  0  0  0  0  0  0  0  0  0  0
    6.5090    5.1531    5.3943 O   0  0  0  0  0  0  0  0  0  0  0  0
    8.3010    3.8819    6.3495 C   0  0  0  0  0  0  0  0  0  0  0  0
    9.4558    3.2258    5.8273 N   0  0  0  0  0  0  0  0  0  0  0  0
   10.0253    3.4228    4.5296 C   0  0  0  0  0  0  0  0  0  0  0  0
   10.7743    2.2083    4.3895 C   0  0  0  0  0  0  0  0  0  0  0  0
   11.6658    1.7657    3.3204 C   0  0  0  0  0  0  0  0  0  0  0  0
   11.9346    2.3937    2.3158 O   0  0  0  0  0  0  0  0  0  0  0  0
   12.2055    0.5332    3.5448 O   0  0  0  0  0  0  0  0  0  0  0  0
   10.5261    1.3787    5.4264 N   0  0  0  0  0  0  0  0  0  0  0  0
    9.7226    1.9148    6.2893 N   0  0  0  0  0  0  0  0  0  0  0  0
    3.2761    2.4859    3.2479 C   0  0  0  0  0  0  0  0  0  0  0  0
    1.9537    2.3916    3.6160 C   0  0  0  0  0  0  0  0  0  0  0  0
   -1.4500    3.1952    6.1827 H   0  0  0  0  0  0  0  0  0  0  0  0
   -0.3221    4.5958    6.1704 H   0  0  0  0  0  0  0  0  0  0  0  0
    0.0697    3.1233    7.1418 H   0  0  0  0  0  0  0  0  0  0  0  0
    2.0620    4.3487    6.4835 H   0  0  0  0  0  0  0  0  0  0  0  0
    4.4430    4.4999    5.7640 H   0  0  0  0  0  0  0  0  0  0  0  0
    5.7981    4.4275    3.3748 H   0  0  0  0  0  0  0  0  0  0  0  0
    5.8532    2.7576    2.7470 H   0  0  0  0  0  0  0  0  0  0  0  0
    7.6585    1.4464    3.7695 H   0  0  0  0  0  0  0  0  0  0  0  0
    6.2380    0.9321    4.7414 H   0  0  0  0  0  0  0  0  0  0  0  0
    7.7455    1.4640    5.5365 H   0  0  0  0  0  0  0  0  0  0  0  0
    7.9926    3.3287    7.2533 H   0  0  0  0  0  0  0  0  0  0  0  0
    8.5253    4.9146    6.6693 H   0  0  0  0  0  0  0  0  0  0  0  0
   10.4102    4.4150    4.2674 H   0  0  0  0  0  0  0  0  0  0  0  0
   11.8407    0.2456    4.4051 H   0  0  0  0  0  0  0  0  0  0  0  0
    3.6280    1.9767    2.3497 H   0  0  0  0  0  0  0  0  0  0  0  0
    1.2252    1.8187    3.0411 H   0  0  0  0  0  0  0  0  0  0  0  0
  1  2  1  0
  1 23  1  0
  1 24  1  0
  1 25  1  0
  2  3  1  0
  3  4  2  0
  3 22  1  0
  4  5  1  0
  4 26  1  0
  5  6  2  0
  5 27  1  0
  6  7  1  0
  6 21  1  0
  7  8  1  0
  7 28  1  0
  7 29  1  0
  8  9  1  0
  8 10  1  0
  9 30  1  0
  9 31  1  0
  9 32  1  0
 10 11  2  0
 10 12  1  0
 12 13  1  0
 12 33  1  0
 12 34  1  0
 13 14  1  0
 13 20  1  0
 14 15  2  0
 14 35  1  0
 15 16  1  0
 15 19  1  0
 16 17  2  0
 16 18  1  0
 18 36  1  0
 19 20  2  0
 21 22  2  0
 21 37  1  0
 22 38  1  0
M  END

