
     RDKit          3D

 67 70  0  0  0  0  0  0  0  0999 V2000
    8.6203    1.6657    1.1871 C   0  0  0  0  0  0  0  0  0  0  0  0
    7.3146    2.3554    0.8327 C   0  0  0  0  0  0  0  0  0  0  0  0
    6.7978    3.1050    1.9535 O   0  0  0  0  0  0  0  0  0  0  0  0
    6.0080    2.4593    2.8230 C   0  0  0  0  0  0  0  0  0  0  0  0
    5.6628    1.3118    2.7261 O   0  0  0  0  0  0  0  0  0  0  0  0
    5.6008    3.4283    3.9304 C   0  0  0  0  0  0  0  0  0  0  0  0
    4.6933    2.6560    5.3019 S   0  0  0  0  0  0  0  0  0  0  0  0
    6.0038    1.7382    6.0165 C   0  0  0  0  0  0  0  0  0  0  0  0
    7.2522    1.8002    5.6337 N   0  0  0  0  0  0  0  0  0  0  0  0
    8.0647    0.9611    6.3159 N   0  0  0  0  0  0  0  0  0  0  0  0
    7.4575    0.2592    7.2264 C   0  0  0  0  0  0  0  0  0  0  0  0
    8.1163   -0.6111    8.1038 N   0  0  0  0  0  0  0  0  0  0  0  0
    8.9173   -0.0497    9.1286 C   0  0  0  0  0  0  0  0  0  0  0  0
    9.0668    1.3163    9.0737 N   0  0  0  0  0  0  0  0  0  0  0  0
    9.4201   -0.8378   10.1280 C   0  0  0  0  0  0  0  0  0  0  0  0
   10.2095   -0.1987   11.1245 C   0  0  0  0  0  0  0  0  0  0  0  0
   10.8429    0.3636   11.9247 N   0  0  0  0  0  0  0  0  0  0  0  0
    9.2307   -2.3453   10.1949 C   0  0  2  0  0  0  0  0  0  0  0  0
   10.5871   -3.0610   10.1356 C   0  0  0  0  0  0  0  0  0  0  0  0
   11.3510   -3.0345    8.9618 C   0  0  0  0  0  0  0  0  0  0  0  0
   12.5984   -3.6701    8.8896 C   0  0  0  0  0  0  0  0  0  0  0  0
   13.3982   -3.6859    7.7839 O   0  0  0  0  0  0  0  0  0  0  0  0
   12.9865   -2.9921    6.6333 C   0  0  0  0  0  0  0  0  0  0  0  0
   13.0812   -4.3419   10.0194 C   0  0  0  0  0  0  0  0  0  0  0  0
   12.3373   -4.3668   11.1975 C   0  0  0  0  0  0  0  0  0  0  0  0
   11.0912   -3.7231   11.2717 C   0  0  0  0  0  0  0  0  0  0  0  0
   10.3251   -3.6841   12.3959 O   0  0  0  0  0  0  0  0  0  0  0  0
   10.7393   -4.3820   13.5446 C   0  0  0  0  0  0  0  0  0  0  0  0
    8.3024   -2.8075    9.0897 C   0  0  0  0  0  0  0  0  0  0  0  0
    7.8330   -1.9970    8.1040 C   0  0  0  0  0  0  0  0  0  0  0  0
    6.9902   -2.5052    6.9558 C   0  0  0  0  0  0  0  0  0  0  0  0
    7.1099   -4.0242    6.7009 C   0  0  2  0  0  0  0  0  0  0  0  0
    8.4743   -4.3710    6.0735 C   0  0  0  0  0  0  0  0  0  0  0  0
    5.9936   -4.4554    5.7356 C   0  0  0  0  0  0  0  0  0  0  0  0
    6.9438   -4.7361    8.0535 C   0  0  0  0  0  0  0  0  0  0  0  0
    7.8783   -4.2283    9.1422 C   0  0  0  0  0  0  0  0  0  0  0  0
    8.2181   -4.9518   10.0614 O   0  0  0  0  0  0  0  0  0  0  0  0
    5.7223    0.6182    7.3305 S   0  0  0  0  0  0  0  0  0  0  0  0
    9.0243    1.1537    0.2990 H   0  0  0  0  0  0  0  0  0  0  0  0
    8.4651    0.9147    1.9759 H   0  0  0  0  0  0  0  0  0  0  0  0
    9.3687    2.3933    1.5369 H   0  0  0  0  0  0  0  0  0  0  0  0
    6.5544    1.6279    0.5126 H   0  0  0  0  0  0  0  0  0  0  0  0
    7.4558    3.1030    0.0390 H   0  0  0  0  0  0  0  0  0  0  0  0
    4.9175    4.1873    3.5182 H   0  0  0  0  0  0  0  0  0  0  0  0
    6.4931    3.9451    4.3076 H   0  0  0  0  0  0  0  0  0  0  0  0
    9.2050    1.7118    8.1470 H   0  0  0  0  0  0  0  0  0  0  0  0
    9.6917    1.6942    9.7794 H   0  0  0  0  0  0  0  0  0  0  0  0
    8.7831   -2.6257   11.1589 H   0  0  0  0  0  0  0  0  0  0  0  0
   10.9516   -2.4985    8.0998 H   0  0  0  0  0  0  0  0  0  0  0  0
   13.7814   -3.1200    5.8854 H   0  0  0  0  0  0  0  0  0  0  0  0
   12.8502   -1.9115    6.8258 H   0  0  0  0  0  0  0  0  0  0  0  0
   12.0432   -3.3948    6.2186 H   0  0  0  0  0  0  0  0  0  0  0  0
   14.0523   -4.8372    9.9590 H   0  0  0  0  0  0  0  0  0  0  0  0
   12.7417   -4.8903   12.0638 H   0  0  0  0  0  0  0  0  0  0  0  0
    9.9572   -4.2321   14.3013 H   0  0  0  0  0  0  0  0  0  0  0  0
   11.6956   -3.9947   13.9417 H   0  0  0  0  0  0  0  0  0  0  0  0
   10.8456   -5.4649   13.3509 H   0  0  0  0  0  0  0  0  0  0  0  0
    7.2581   -1.9558    6.0381 H   0  0  0  0  0  0  0  0  0  0  0  0
    5.9293   -2.2630    7.1480 H   0  0  0  0  0  0  0  0  0  0  0  0
    8.6028   -3.8576    5.1065 H   0  0  0  0  0  0  0  0  0  0  0  0
    8.5470   -5.4546    5.8892 H   0  0  0  0  0  0  0  0  0  0  0  0
    9.3160   -4.0894    6.7236 H   0  0  0  0  0  0  0  0  0  0  0  0
    6.0792   -3.9321    4.7692 H   0  0  0  0  0  0  0  0  0  0  0  0
    4.9955   -4.2382    6.1499 H   0  0  0  0  0  0  0  0  0  0  0  0
    6.0464   -5.5377    5.5373 H   0  0  0  0  0  0  0  0  0  0  0  0
    7.0901   -5.8239    7.9702 H   0  0  0  0  0  0  0  0  0  0  0  0
    5.9123   -4.5862    8.4253 H   0  0  0  0  0  0  0  0  0  0  0  0
  1  2  1  0
  1 39  1  0
  1 40  1  0
  1 41  1  0
  2  3  1  0
  2 42  1  0
  2 43  1  0
  3  4  1  0
  4  5  2  0
  4  6  1  0
  6  7  1  0
  6 44  1  0
  6 45  1  0
  7  8  1  0
  8  9  2  0
  8 38  1  0
  9 10  1  0
 10 11  2  0
 11 12  1  0
 11 38  1  0
 12 13  1  0
 12 30  1  0
 13 14  1  0
 13 15  2  0
 14 46  1  0
 14 47  1  0
 15 16  1  0
 15 18  1  0
 16 17  3  0
 18 19  1  0
 18 29  1  0
 18 48  1  1
 19 20  2  0
 19 26  1  0
 20 21  1  0
 20 49  1  0
 21 22  1  0
 21 24  2  0
 22 23  1  0
 23 50  1  0
 23 51  1  0
 23 52  1  0
 24 25  1  0
 24 53  1  0
 25 26  2  0
 25 54  1  0
 26 27  1  0
 27 28  1  0
 28 55  1  0
 28 56  1  0
 28 57  1  0
 29 30  2  0
 29 36  1  0
 30 31  1  0
 31 32  1  0
 31 58  1  0
 31 59  1  0
 32 33  1  6
 32 34  1  0
 32 35  1  0
 33 60  1  0
 33 61  1  0
 33 62  1  0
 34 63  1  0
 34 64  1  0
 34 65  1  0
 35 36  1  0
 35 66  1  0
 35 67  1  0
 36 37  2  0
M  END

