
     RDKit          3D

 68 74  0  0  0  0  0  0  0  0999 V2000
    2.8724    0.4340    1.4429 C   0  0  0  0  0  0  0  0  0  0  0  0
    3.2637    0.0112    0.1555 O   0  0  0  0  0  0  0  0  0  0  0  0
    3.4332    0.9291   -0.8257 C   0  0  0  0  0  0  0  0  0  0  0  0
    3.2461    2.3132   -0.6657 C   0  0  0  0  0  0  0  0  0  0  0  0
    3.4484    3.1726   -1.7441 C   0  0  0  0  0  0  0  0  0  0  0  0
    3.8415    2.6881   -3.0130 C   0  0  0  0  0  0  0  0  0  0  0  0
    4.0458    3.5665   -4.1055 C   0  0  0  0  0  0  0  0  0  0  0  0
    4.2238    4.3270   -5.0550 C   0  0  0  0  0  0  0  0  0  0  0  0
    4.4290    5.1970   -6.1387 C   0  0  0  0  0  0  0  0  0  0  0  0
    4.8269    4.6606   -7.4220 C   0  0  0  0  0  0  0  0  0  0  0  0
    5.0101    3.2779   -7.6094 C   0  0  0  0  0  0  0  0  0  0  0  0
    5.3976    2.7503   -8.8535 C   0  0  0  0  0  0  0  0  0  0  0  0
    5.6329    1.3884   -9.2414 C   0  0  0  0  0  0  0  0  0  0  0  0
    6.0024    1.2372  -10.5527 C   0  0  0  0  0  0  0  0  0  0  0  0
    6.3220   -0.0254  -11.2894 C   0  0  0  0  0  0  0  0  0  0  0  0
    6.0790    2.7900  -11.3827 S   0  0  0  0  0  0  0  0  0  0  0  0
    5.6042    3.6510   -9.9341 C   0  0  0  0  0  0  0  0  0  0  0  0
    5.4308    5.0251   -9.7825 C   0  0  0  0  0  0  0  0  0  0  0  0
    5.0408    5.5590   -8.5338 C   0  0  0  0  0  0  0  0  0  0  0  0
    4.8546    6.9775   -8.3576 C   0  0  0  0  0  0  0  0  0  0  0  0
    5.0598    7.8476   -9.4413 C   0  0  0  0  0  0  0  0  0  0  0  0
    5.2378    8.6082  -10.3907 C   0  0  0  0  0  0  0  0  0  0  0  0
    5.4421    9.4867  -11.4831 C   0  0  0  0  0  0  0  0  0  0  0  0
    5.2591   10.8887  -11.3441 C   0  0  0  0  0  0  0  0  0  0  0  0
    5.4586   11.7466  -12.4128 C   0  0  0  0  0  0  0  0  0  0  0  0
    5.8503   11.2458  -13.6704 C   0  0  0  0  0  0  0  0  0  0  0  0
    6.0197   12.1637  -14.6515 O   0  0  0  0  0  0  0  0  0  0  0  0
    6.4110   11.7411  -15.9390 C   0  0  0  0  0  0  0  0  0  0  0  0
    6.0375    9.8617  -13.8304 C   0  0  0  0  0  0  0  0  0  0  0  0
    5.8353    9.0023  -12.7521 C   0  0  0  0  0  0  0  0  0  0  0  0
    4.4567    7.5140   -7.0743 C   0  0  0  0  0  0  0  0  0  0  0  0
    4.2735    8.8967   -6.8870 C   0  0  0  0  0  0  0  0  0  0  0  0
    3.8860    9.4243   -5.6428 C   0  0  0  0  0  0  0  0  0  0  0  0
    3.6507   10.7861   -5.2550 C   0  0  0  0  0  0  0  0  0  0  0  0
    3.2812   10.9373   -3.9437 C   0  0  0  0  0  0  0  0  0  0  0  0
    2.9615   12.2000   -3.2069 C   0  0  0  0  0  0  0  0  0  0  0  0
    3.2046    9.3846   -3.1136 S   0  0  0  0  0  0  0  0  0  0  0  0
    3.6795    8.5235   -4.5622 C   0  0  0  0  0  0  0  0  0  0  0  0
    3.8529    7.1495   -4.7138 C   0  0  0  0  0  0  0  0  0  0  0  0
    4.2429    6.6156   -5.9625 C   0  0  0  0  0  0  0  0  0  0  0  0
    4.0243    1.2861   -3.1520 C   0  0  0  0  0  0  0  0  0  0  0  0
    3.8247    0.4281   -2.0832 C   0  0  0  0  0  0  0  0  0  0  0  0
    2.8011   -0.4710    2.0610 H   0  0  0  0  0  0  0  0  0  0  0  0
    1.8881    0.9360    1.4291 H   0  0  0  0  0  0  0  0  0  0  0  0
    3.6141    1.1177    1.8939 H   0  0  0  0  0  0  0  0  0  0  0  0
    2.9431    2.7311    0.2946 H   0  0  0  0  0  0  0  0  0  0  0  0
    3.3001    4.2459   -1.6081 H   0  0  0  0  0  0  0  0  0  0  0  0
    4.8457    2.6052   -6.7662 H   0  0  0  0  0  0  0  0  0  0  0  0
    5.5288    0.5423   -8.5589 H   0  0  0  0  0  0  0  0  0  0  0  0
    6.2232   -0.8903  -10.6172 H   0  0  0  0  0  0  0  0  0  0  0  0
    7.3516   -0.0189  -11.6862 H   0  0  0  0  0  0  0  0  0  0  0  0
    5.6450   -0.1819  -12.1466 H   0  0  0  0  0  0  0  0  0  0  0  0
    5.5924    5.7042  -10.6202 H   0  0  0  0  0  0  0  0  0  0  0  0
    4.9557   11.2912  -10.3754 H   0  0  0  0  0  0  0  0  0  0  0  0
    5.3182   12.8244  -12.3076 H   0  0  0  0  0  0  0  0  0  0  0  0
    6.4821   12.6462  -16.5570 H   0  0  0  0  0  0  0  0  0  0  0  0
    5.6694   11.0573  -16.3900 H   0  0  0  0  0  0  0  0  0  0  0  0
    7.3953   11.2392  -15.9252 H   0  0  0  0  0  0  0  0  0  0  0  0
    6.3406    9.4438  -14.7907 H   0  0  0  0  0  0  0  0  0  0  0  0
    5.9836    7.9290  -12.8881 H   0  0  0  0  0  0  0  0  0  0  0  0
    4.4379    9.5693   -7.7301 H   0  0  0  0  0  0  0  0  0  0  0  0
    3.7548   11.6323   -5.9374 H   0  0  0  0  0  0  0  0  0  0  0  0
    3.0604   13.0649   -3.8792 H   0  0  0  0  0  0  0  0  0  0  0  0
    3.6385   12.3565   -2.3497 H   0  0  0  0  0  0  0  0  0  0  0  0
    1.9319   12.1934   -2.8101 H   0  0  0  0  0  0  0  0  0  0  0  0
    3.6913    6.4703   -3.8761 H   0  0  0  0  0  0  0  0  0  0  0  0
    4.3276    0.8834   -4.1207 H   0  0  0  0  0  0  0  0  0  0  0  0
    3.9650   -0.6496   -2.1884 H   0  0  0  0  0  0  0  0  0  0  0  0
  1  2  1  0
  1 43  1  0
  1 44  1  0
  1 45  1  0
  2  3  1  0
  3  4  2  0
  3 42  1  0
  4  5  1  0
  4 46  1  0
  5  6  2  0
  5 47  1  0
  6  7  1  0
  6 41  1  0
  7  8  3  0
  8  9  1  0
  9 10  1  0
  9 40  2  0
 10 11  2  0
 10 19  1  0
 11 12  1  0
 11 48  1  0
 12 13  1  0
 12 17  2  0
 13 14  2  0
 13 49  1  0
 14 15  1  0
 14 16  1  0
 15 50  1  0
 15 51  1  0
 15 52  1  0
 16 17  1  0
 17 18  1  0
 18 19  2  0
 18 53  1  0
 19 20  1  0
 20 21  1  0
 20 31  2  0
 21 22  3  0
 22 23  1  0
 23 24  2  0
 23 30  1  0
 24 25  1  0
 24 54  1  0
 25 26  2  0
 25 55  1  0
 26 27  1  0
 26 29  1  0
 27 28  1  0
 28 56  1  0
 28 57  1  0
 28 58  1  0
 29 30  2  0
 29 59  1  0
 30 60  1  0
 31 32  1  0
 31 40  1  0
 32 33  2  0
 32 61  1  0
 33 34  1  0
 33 38  1  0
 34 35  2  0
 34 62  1  0
 35 36  1  0
 35 37  1  0
 36 63  1  0
 36 64  1  0
 36 65  1  0
 37 38  1  0
 38 39  2  0
 39 40  1  0
 39 66  1  0
 41 42  2  0
 41 67  1  0
 42 68  1  0
M  END

