
     RDKit          3D

 34 35  0  0  0  0  0  0  0  0999 V2000
    0.8307   -0.7039   -2.3209 C   0  0  0  0  0  0  0  0  0  0  0  0
    2.2138   -0.8450   -2.0080 N   0  0  0  0  0  0  0  0  0  0  0  0
    2.8290   -0.6391   -0.7090 C   0  0  0  0  0  0  0  0  0  0  0  0
    4.3329   -0.6772   -0.7907 C   0  0  0  0  0  0  0  0  0  0  0  0
    5.0830    0.3415   -0.2476 C   0  0  0  0  0  0  0  0  0  0  0  0
    6.5100    0.3456   -0.3518 C   0  0  0  0  0  0  0  0  0  0  0  0
    7.1315   -0.7012   -1.0873 C   0  0  0  0  0  0  0  0  0  0  0  0
    8.4833   -0.7444   -1.2995 O   0  0  0  0  0  0  0  0  0  0  0  0
    9.3090    0.2560   -0.7608 C   0  0  0  0  0  0  0  0  0  0  0  0
   10.7276   -0.0665   -1.2257 C   0  0  0  0  0  0  0  0  0  0  0  0
   11.7052    0.8690   -0.6994 N   0  0  0  0  0  0  0  0  0  0  0  0
   12.6064    0.6584    0.2992 C   0  0  0  0  0  0  0  0  0  0  0  0
   13.2818    1.8532    0.4878 C   0  0  0  0  0  0  0  0  0  0  0  0
   12.6992    2.7309   -0.4574 C   0  0  0  0  0  0  0  0  0  0  0  0
   11.7481    2.1272   -1.1658 N   0  0  0  0  0  0  0  0  0  0  0  0
    6.3703   -1.7226   -1.6409 C   0  0  0  0  0  0  0  0  0  0  0  0
    7.1470   -2.9605   -2.6324 Cl  0  0  0  0  0  0  0  0  0  0  0  0
    4.9278   -1.7550   -1.5350 C   0  0  0  0  0  0  0  0  0  0  0  0
    0.4493   -1.6346   -2.7731 H   0  0  0  0  0  0  0  0  0  0  0  0
    0.7164    0.0886   -3.0830 H   0  0  0  0  0  0  0  0  0  0  0  0
    0.2509   -0.4435   -1.4275 H   0  0  0  0  0  0  0  0  0  0  0  0
    2.8742   -1.1831   -2.7191 H   0  0  0  0  0  0  0  0  0  0  0  0
    2.3963   -1.4557   -0.0884 H   0  0  0  0  0  0  0  0  0  0  0  0
    2.4234    0.2989   -0.2957 H   0  0  0  0  0  0  0  0  0  0  0  0
    4.5904    1.1851    0.2478 H   0  0  0  0  0  0  0  0  0  0  0  0
    7.0928    1.1149    0.1482 H   0  0  0  0  0  0  0  0  0  0  0  0
    9.2681    0.2629    0.3454 H   0  0  0  0  0  0  0  0  0  0  0  0
    9.0225    1.2623   -1.1138 H   0  0  0  0  0  0  0  0  0  0  0  0
   10.7687   -0.0455   -2.3247 H   0  0  0  0  0  0  0  0  0  0  0  0
   11.0032   -1.0784   -0.8959 H   0  0  0  0  0  0  0  0  0  0  0  0
   12.6994   -0.3108    0.7853 H   0  0  0  0  0  0  0  0  0  0  0  0
   14.0804    2.0569    1.1972 H   0  0  0  0  0  0  0  0  0  0  0  0
   12.9399    3.7764   -0.6513 H   0  0  0  0  0  0  0  0  0  0  0  0
    4.4404   -2.7409   -1.5733 H   0  0  0  0  0  0  0  0  0  0  0  0
  1  2  1  0
  1 19  1  0
  1 20  1  0
  1 21  1  0
  2  3  1  0
  2 22  1  0
  3  4  1  0
  3 23  1  0
  3 24  1  0
  4  5  2  0
  4 18  1  0
  5  6  1  0
  5 25  1  0
  6  7  2  0
  6 26  1  0
  7  8  1  0
  7 16  1  0
  8  9  1  0
  9 10  1  0
  9 27  1  0
  9 28  1  0
 10 11  1  0
 10 29  1  0
 10 30  1  0
 11 12  1  0
 11 15  1  0
 12 13  2  0
 12 31  1  0
 13 14  1  0
 13 32  1  0
 14 15  2  0
 14 33  1  0
 16 17  1  0
 16 18  2  0
 18 34  1  0
M  END

