
     RDKit          3D

 63 66  0  0  0  0  0  0  0  0999 V2000
    0.6829   -3.8928   -3.2268 C   0  0  0  0  0  0  0  0  0  0  0  0
    2.0600   -3.7943   -2.5532 C   0  0  1  0  0  0  0  0  0  0  0  0
    3.2237   -4.0416   -3.5375 C   0  0  0  0  0  0  0  0  0  0  0  0
    3.4665   -2.8562   -4.4789 C   0  0  0  0  0  0  0  0  0  0  0  0
    3.6268   -1.6046   -3.7289 N   0  0  0  0  0  0  0  0  0  0  0  0
    5.1567   -0.9775   -3.4698 S   0  0  1  0  0  0  0  0  0  0  0  0
    5.1637   -0.3461   -2.1466 O   0  0  0  0  0  0  0  0  0  0  0  0
    6.1346   -2.0032   -3.8456 O   0  0  0  0  0  0  0  0  0  0  0  0
    5.3121    0.3523   -4.6794 C   0  0  0  0  0  0  0  0  0  0  0  0
    4.9177    1.6479   -4.3277 C   0  0  0  0  0  0  0  0  0  0  0  0
    5.0174    2.6664   -5.2735 C   0  0  0  0  0  0  0  0  0  0  0  0
    5.5134    2.3945   -6.5587 C   0  0  0  0  0  0  0  0  0  0  0  0
    5.6019    3.5300   -7.5271 C   0  0  0  0  0  0  0  0  0  0  0  0
    5.3059    4.6728   -7.2601 O   0  0  0  0  0  0  0  0  0  0  0  0
    6.0312    3.1344   -8.7427 O   0  0  0  0  0  0  0  0  0  0  0  0
    6.2813    4.1463   -9.7518 C   0  0  1  0  0  0  0  0  0  0  0  0
    7.7657    4.4626   -9.7859 C   0  0  0  0  0  0  0  0  0  0  0  0
    5.7958    3.5603  -11.0984 C   0  0  0  0  0  0  0  0  0  0  0  0
    6.6226    3.2344  -11.9313 O   0  0  0  0  0  0  0  0  0  0  0  0
    4.4317    3.4377  -11.2919 N   0  0  0  0  0  0  0  0  0  0  0  0
    3.4320    3.7805  -10.2730 C   0  0  0  0  0  0  0  0  0  0  0  0
    2.6961    2.5208   -9.8232 C   0  0  0  0  0  0  0  0  0  0  0  0
    1.9447    1.9214  -11.0138 C   0  0  0  0  0  0  0  0  0  0  0  0
    2.6930    2.0521  -12.3288 C   0  0  0  0  0  0  0  0  0  0  0  0
    2.1579    1.4429  -13.4745 C   0  0  0  0  0  0  0  0  0  0  0  0
    2.7728    1.5518  -14.7192 C   0  0  0  0  0  0  0  0  0  0  0  0
    3.9498    2.2973  -14.8342 C   0  0  0  0  0  0  0  0  0  0  0  0
    4.5043    2.9152  -13.7159 C   0  0  0  0  0  0  0  0  0  0  0  0
    3.8910    2.7935  -12.4538 C   0  0  0  0  0  0  0  0  0  0  0  0
    5.9272    1.0937   -6.8886 C   0  0  0  0  0  0  0  0  0  0  0  0
    5.8323    0.0694   -5.9464 C   0  0  0  0  0  0  0  0  0  0  0  0
    2.5355   -1.2878   -2.7996 C   0  0  0  0  0  0  0  0  0  0  0  0
    2.2761   -2.4473   -1.8307 C   0  0  0  0  0  0  0  0  0  0  0  0
    0.5424   -4.8824   -3.6910 H   0  0  0  0  0  0  0  0  0  0  0  0
    0.5384   -3.1390   -4.0180 H   0  0  0  0  0  0  0  0  0  0  0  0
   -0.1261   -3.7525   -2.4916 H   0  0  0  0  0  0  0  0  0  0  0  0
    2.1010   -4.5891   -1.7883 H   0  0  0  0  0  0  0  0  0  0  0  0
    3.0364   -4.9510   -4.1339 H   0  0  0  0  0  0  0  0  0  0  0  0
    4.1540   -4.2137   -2.9706 H   0  0  0  0  0  0  0  0  0  0  0  0
    2.6212   -2.7246   -5.1781 H   0  0  0  0  0  0  0  0  0  0  0  0
    4.3670   -3.0287   -5.0809 H   0  0  0  0  0  0  0  0  0  0  0  0
    4.5581    1.8501   -3.3177 H   0  0  0  0  0  0  0  0  0  0  0  0
    4.7223    3.6890   -5.0314 H   0  0  0  0  0  0  0  0  0  0  0  0
    5.7172    5.0478   -9.4769 H   0  0  0  0  0  0  0  0  0  0  0  0
    8.3459    3.5657  -10.0402 H   0  0  0  0  0  0  0  0  0  0  0  0
    8.0859    4.8518   -8.8082 H   0  0  0  0  0  0  0  0  0  0  0  0
    7.9703    5.2248  -10.5515 H   0  0  0  0  0  0  0  0  0  0  0  0
    2.7172    4.4958  -10.7183 H   0  0  0  0  0  0  0  0  0  0  0  0
    3.9003    4.2917   -9.4285 H   0  0  0  0  0  0  0  0  0  0  0  0
    1.9997    2.7567   -9.0028 H   0  0  0  0  0  0  0  0  0  0  0  0
    3.4390    1.8103   -9.4254 H   0  0  0  0  0  0  0  0  0  0  0  0
    0.9702    2.4316  -11.1229 H   0  0  0  0  0  0  0  0  0  0  0  0
    1.7048    0.8612  -10.8287 H   0  0  0  0  0  0  0  0  0  0  0  0
    1.2322    0.8678  -13.3746 H   0  0  0  0  0  0  0  0  0  0  0  0
    2.3366    1.0628  -15.5936 H   0  0  0  0  0  0  0  0  0  0  0  0
    4.4438    2.4030  -15.8033 H   0  0  0  0  0  0  0  0  0  0  0  0
    5.4251    3.4836  -13.8094 H   0  0  0  0  0  0  0  0  0  0  0  0
    6.3346    0.8940   -7.8802 H   0  0  0  0  0  0  0  0  0  0  0  0
    6.1776   -0.9393   -6.1783 H   0  0  0  0  0  0  0  0  0  0  0  0
    1.6359   -1.0625   -3.4002 H   0  0  0  0  0  0  0  0  0  0  0  0
    2.7952   -0.3789   -2.2432 H   0  0  0  0  0  0  0  0  0  0  0  0
    1.4057   -2.2065   -1.1963 H   0  0  0  0  0  0  0  0  0  0  0  0
    3.1499   -2.5254   -1.1621 H   0  0  0  0  0  0  0  0  0  0  0  0
  1  2  1  0
  1 34  1  0
  1 35  1  0
  1 36  1  0
  2  3  1  0
  2 33  1  0
  2 37  1  1
  3  4  1  0
  3 38  1  0
  3 39  1  0
  4  5  1  0
  4 40  1  0
  4 41  1  0
  5  6  1  0
  5 32  1  0
  6  7  2  0
  6  8  2  0
  6  9  1  6
  9 10  2  0
  9 31  1  0
 10 11  1  0
 10 42  1  0
 11 12  2  0
 11 43  1  0
 12 13  1  0
 12 30  1  0
 13 14  2  0
 13 15  1  0
 15 16  1  0
 16 17  1  0
 16 18  1  0
 16 44  1  1
 17 45  1  0
 17 46  1  0
 17 47  1  0
 18 19  2  0
 18 20  1  0
 20 21  1  0
 20 29  1  0
 21 22  1  0
 21 48  1  0
 21 49  1  0
 22 23  1  0
 22 50  1  0
 22 51  1  0
 23 24  1  0
 23 52  1  0
 23 53  1  0
 24 25  2  0
 24 29  1  0
 25 26  1  0
 25 54  1  0
 26 27  2  0
 26 55  1  0
 27 28  1  0
 27 56  1  0
 28 29  2  0
 28 57  1  0
 30 31  2  0
 30 58  1  0
 31 59  1  0
 32 33  1  0
 32 60  1  0
 32 61  1  0
 33 62  1  0
 33 63  1  0
M  END

