
     RDKit          3D

 63 66  0  0  0  0  0  0  0  0999 V2000
   10.4160   -5.8276    0.1824 C   0  0  0  0  0  0  0  0  0  0  0  0
    9.0778   -6.4414   -0.0975 C   0  0  0  0  0  0  0  0  0  0  0  0
    8.7674   -7.5482   -0.9318 C   0  0  0  0  0  0  0  0  0  0  0  0
    7.3932   -7.7089   -0.8372 C   0  0  0  0  0  0  0  0  0  0  0  0
    6.4756   -8.6988   -1.4803 C   0  0  0  0  0  0  0  0  0  0  0  0
    6.9631   -6.7358    0.0220 N   0  0  0  0  0  0  0  0  0  0  0  0
    5.5987   -6.4216    0.4104 C   0  0  0  0  0  0  0  0  0  0  0  0
    4.8449   -5.5627   -0.5922 C   0  0  0  0  0  0  0  0  0  0  0  0
    5.4057   -4.3687   -1.0708 C   0  0  0  0  0  0  0  0  0  0  0  0
    4.6805   -3.5853   -1.9684 C   0  0  0  0  0  0  0  0  0  0  0  0
    3.4051   -3.9557   -2.4050 C   0  0  0  0  0  0  0  0  0  0  0  0
    2.8352   -5.1495   -1.9304 C   0  0  0  0  0  0  0  0  0  0  0  0
    1.5663   -5.6200   -2.3067 N   0  0  0  0  0  0  0  0  0  0  0  0
    0.6311   -5.0417   -3.1549 C   0  0  0  0  0  0  0  0  0  0  0  0
    0.8041   -3.9537   -3.7033 O   0  0  0  0  0  0  0  0  0  0  0  0
   -0.4838   -5.8056   -3.3507 N   0  0  0  0  0  0  0  0  0  0  0  0
   -1.6533   -5.2822   -4.0514 C   0  0  0  0  0  0  0  0  0  0  0  0
   -2.7054   -4.6131   -3.1863 C   0  0  0  0  0  0  0  0  0  0  0  0
   -3.0299   -5.1293   -1.9397 C   0  0  0  0  0  0  0  0  0  0  0  0
   -4.1411   -4.6953   -1.1843 C   0  0  0  0  0  0  0  0  0  0  0  0
   -5.0227   -3.7254   -1.7774 C   0  0  0  0  0  0  0  0  0  0  0  0
   -4.7254   -3.1822   -3.0063 C   0  0  0  0  0  0  0  0  0  0  0  0
   -3.5522   -3.5525   -3.7510 C   0  0  0  0  0  0  0  0  0  0  0  0
   -3.1186   -2.7259   -4.8979 C   0  0  0  0  0  0  0  0  0  0  0  0
   -2.2563   -1.5096   -4.5949 N   0  0  0  0  0  0  0  0  0  0  0  0
   -2.0459   -1.0187   -3.2711 C   0  0  0  0  0  0  0  0  0  0  0  0
   -0.5125   -1.0565   -2.9497 C   0  0  0  0  0  0  0  0  0  0  0  0
    0.1966   -0.3812   -3.9599 O   0  0  0  0  0  0  0  0  0  0  0  0
    0.0326   -0.9816   -5.2124 C   0  0  0  0  0  0  0  0  0  0  0  0
   -1.4798   -0.8893   -5.6216 C   0  0  0  0  0  0  0  0  0  0  0  0
    3.5723   -5.9410   -1.0261 C   0  0  0  0  0  0  0  0  0  0  0  0
    7.9738   -5.9598    0.4690 N   0  0  0  0  0  0  0  0  0  0  0  0
   11.1087   -6.5559    0.6361 H   0  0  0  0  0  0  0  0  0  0  0  0
   10.3006   -4.9827    0.8758 H   0  0  0  0  0  0  0  0  0  0  0  0
   10.8921   -5.4569   -0.7407 H   0  0  0  0  0  0  0  0  0  0  0  0
    9.4522   -8.1558   -1.5203 H   0  0  0  0  0  0  0  0  0  0  0  0
    7.0490   -9.3733   -2.1310 H   0  0  0  0  0  0  0  0  0  0  0  0
    5.7059   -8.2056   -2.0967 H   0  0  0  0  0  0  0  0  0  0  0  0
    5.9516   -9.3215   -0.7344 H   0  0  0  0  0  0  0  0  0  0  0  0
    5.6798   -5.8970    1.3741 H   0  0  0  0  0  0  0  0  0  0  0  0
    5.0527   -7.3601    0.5909 H   0  0  0  0  0  0  0  0  0  0  0  0
    6.4017   -4.0691   -0.7378 H   0  0  0  0  0  0  0  0  0  0  0  0
    5.1144   -2.6544   -2.3438 H   0  0  0  0  0  0  0  0  0  0  0  0
    2.8479   -3.3407   -3.1063 H   0  0  0  0  0  0  0  0  0  0  0  0
    1.3131   -6.5111   -1.8973 H   0  0  0  0  0  0  0  0  0  0  0  0
   -0.6286   -6.6172   -2.7632 H   0  0  0  0  0  0  0  0  0  0  0  0
   -2.0871   -6.1259   -4.6252 H   0  0  0  0  0  0  0  0  0  0  0  0
   -1.2559   -4.5917   -4.8069 H   0  0  0  0  0  0  0  0  0  0  0  0
   -2.4120   -5.9359   -1.5248 H   0  0  0  0  0  0  0  0  0  0  0  0
   -4.3425   -5.1117   -0.1968 H   0  0  0  0  0  0  0  0  0  0  0  0
   -5.9421   -3.4333   -1.2617 H   0  0  0  0  0  0  0  0  0  0  0  0
   -5.4089   -2.4406   -3.4394 H   0  0  0  0  0  0  0  0  0  0  0  0
   -3.9762   -2.2720   -5.4302 H   0  0  0  0  0  0  0  0  0  0  0  0
   -2.5392   -3.2626   -5.6700 H   0  0  0  0  0  0  0  0  0  0  0  0
   -2.6153   -1.6297   -2.5632 H   0  0  0  0  0  0  0  0  0  0  0  0
   -2.3634    0.0379   -3.2166 H   0  0  0  0  0  0  0  0  0  0  0  0
   -0.1867   -2.1041   -2.8724 H   0  0  0  0  0  0  0  0  0  0  0  0
   -0.3377   -0.5264   -2.0047 H   0  0  0  0  0  0  0  0  0  0  0  0
    0.3407   -2.0400   -5.1944 H   0  0  0  0  0  0  0  0  0  0  0  0
    0.6331   -0.4217   -5.9427 H   0  0  0  0  0  0  0  0  0  0  0  0
   -1.6575   -1.3890   -6.5845 H   0  0  0  0  0  0  0  0  0  0  0  0
   -1.7300    0.1820   -5.7077 H   0  0  0  0  0  0  0  0  0  0  0  0
    3.1339   -6.8737   -0.6539 H   0  0  0  0  0  0  0  0  0  0  0  0
  1  2  1  0
  1 33  1  0
  1 34  1  0
  1 35  1  0
  2  3  1  0
  2 32  2  0
  3  4  2  0
  3 36  1  0
  4  5  1  0
  4  6  1  0
  5 37  1  0
  5 38  1  0
  5 39  1  0
  6  7  1  0
  6 32  1  0
  7  8  1  0
  7 40  1  0
  7 41  1  0
  8  9  2  0
  8 31  1  0
  9 10  1  0
  9 42  1  0
 10 11  2  0
 10 43  1  0
 11 12  1  0
 11 44  1  0
 12 13  1  0
 12 31  2  0
 13 14  1  0
 13 45  1  0
 14 15  2  0
 14 16  1  0
 16 17  1  0
 16 46  1  0
 17 18  1  0
 17 47  1  0
 17 48  1  0
 18 19  2  0
 18 23  1  0
 19 20  1  0
 19 49  1  0
 20 21  2  0
 20 50  1  0
 21 22  1  0
 21 51  1  0
 22 23  2  0
 22 52  1  0
 23 24  1  0
 24 25  1  0
 24 53  1  0
 24 54  1  0
 25 26  1  0
 25 30  1  0
 26 27  1  0
 26 55  1  0
 26 56  1  0
 27 28  1  0
 27 57  1  0
 27 58  1  0
 28 29  1  0
 29 30  1  0
 29 59  1  0
 29 60  1  0
 30 61  1  0
 30 62  1  0
 31 63  1  0
M  END

