
     RDKit          3D

 58 66  0  0  0  0  0  0  0  0999 V2000
   -0.5257   -1.0543   -3.2102 C   0  0  0  0  0  0  0  0  0  0  0  0
   -0.3004   -2.1961   -2.4146 C   0  0  0  0  0  0  0  0  0  0  0  0
   -0.0175   -2.1508   -1.1216 N   0  0  0  0  0  0  0  0  0  0  0  0
    0.0642   -0.9540   -0.5150 C   0  0  0  0  0  0  0  0  0  0  0  0
   -0.1468    0.2631   -1.2331 C   0  0  0  0  0  0  0  0  0  0  0  0
   -0.4468    0.1906   -2.6076 C   0  0  0  0  0  0  0  0  0  0  0  0
   -0.0442    1.5104   -0.5234 C   0  0  0  0  0  0  0  0  0  0  0  0
   -0.2027    2.7631   -0.9945 N   0  0  0  0  0  0  0  0  0  0  0  0
   -0.0066    3.5858    0.0537 C   0  0  0  0  0  0  0  0  0  0  0  0
   -0.0763    5.0093    0.0213 C   0  0  0  0  0  0  0  0  0  0  0  0
    0.1530    5.8308    1.1742 C   0  0  0  0  0  0  0  0  0  0  0  0
    0.0747    7.2011    1.1000 C   0  0  0  0  0  0  0  0  0  0  0  0
   -0.2381    7.8591   -0.1322 C   0  0  0  0  0  0  0  0  0  0  0  0
   -0.3078    9.2826   -0.1647 C   0  0  0  0  0  0  0  0  0  0  0  0
   -0.1116   10.1052    0.8835 N   0  0  0  0  0  0  0  0  0  0  0  0
   -0.2702   11.3580    0.4125 C   0  0  0  0  0  0  0  0  0  0  0  0
   -0.1676   12.6052    1.1222 C   0  0  0  0  0  0  0  0  0  0  0  0
    0.1324   12.6777    2.4967 C   0  0  0  0  0  0  0  0  0  0  0  0
    0.2113   13.9227    3.0993 C   0  0  0  0  0  0  0  0  0  0  0  0
   -0.0140   15.0645    2.3036 C   0  0  0  0  0  0  0  0  0  0  0  0
   -0.2969   15.0191    1.0107 N   0  0  0  0  0  0  0  0  0  0  0  0
   -0.3786   13.8224    0.4040 C   0  0  0  0  0  0  0  0  0  0  0  0
   -0.6944   13.7909   -1.0379 C   0  0  0  0  0  0  0  0  0  0  0  0
   -0.8833   14.9547   -1.6743 N   0  0  0  0  0  0  0  0  0  0  0  0
   -1.1676   14.9522   -2.9685 C   0  0  0  0  0  0  0  0  0  0  0  0
   -1.2883   13.7753   -3.7404 C   0  0  0  0  0  0  0  0  0  0  0  0
   -1.0997   12.5583   -3.1156 C   0  0  0  0  0  0  0  0  0  0  0  0
   -0.7936   12.5301   -1.7306 C   0  0  0  0  0  0  0  0  0  0  0  0
   -0.5760   11.3516   -0.9728 C   0  0  0  0  0  0  0  0  0  0  0  0
   -0.5952   10.0238   -1.3155 N   0  0  0  0  0  0  0  0  0  0  0  0
   -0.7745    9.6416   -2.2336 H   0  0  0  0  0  0  0  0  0  0  0  0
   -0.4673    7.0376   -1.2851 C   0  0  0  0  0  0  0  0  0  0  0  0
   -0.3890    5.6673   -1.2109 C   0  0  0  0  0  0  0  0  0  0  0  0
    0.2807    2.8446    1.2046 N   0  0  0  0  0  0  0  0  0  0  0  0
    0.4600    3.2267    2.1227 H   0  0  0  0  0  0  0  0  0  0  0  0
    0.2616    1.5167    0.8618 C   0  0  0  0  0  0  0  0  0  0  0  0
    0.4792    0.3382    1.6197 C   0  0  0  0  0  0  0  0  0  0  0  0
    0.7852    0.3101    3.0047 C   0  0  0  0  0  0  0  0  0  0  0  0
    0.9738   -0.9070    3.6295 C   0  0  0  0  0  0  0  0  0  0  0  0
    0.8531   -2.0839    2.8576 C   0  0  0  0  0  0  0  0  0  0  0  0
    0.5688   -2.0863    1.5634 N   0  0  0  0  0  0  0  0  0  0  0  0
    0.3799   -0.9226    0.9269 C   0  0  0  0  0  0  0  0  0  0  0  0
   -0.7556   -1.1595   -4.2729 H   0  0  0  0  0  0  0  0  0  0  0  0
   -0.3566   -3.1944   -2.8669 H   0  0  0  0  0  0  0  0  0  0  0  0
   -0.6091    1.1174   -3.1619 H   0  0  0  0  0  0  0  0  0  0  0  0
    0.3981    5.3767    2.1383 H   0  0  0  0  0  0  0  0  0  0  0  0
    0.2505    7.8218    1.9795 H   0  0  0  0  0  0  0  0  0  0  0  0
    0.2948   11.7509    3.0509 H   0  0  0  0  0  0  0  0  0  0  0  0
    0.4413   14.0279    4.1620 H   0  0  0  0  0  0  0  0  0  0  0  0
    0.0422   16.0627    2.7560 H   0  0  0  0  0  0  0  0  0  0  0  0
   -1.3125   15.9316   -3.4410 H   0  0  0  0  0  0  0  0  0  0  0  0
   -1.5253   13.8358   -4.8050 H   0  0  0  0  0  0  0  0  0  0  0  0
   -1.1855   11.6266   -3.6818 H   0  0  0  0  0  0  0  0  0  0  0  0
   -0.7124    7.4917   -2.2492 H   0  0  0  0  0  0  0  0  0  0  0  0
   -0.5649    5.0465   -2.0905 H   0  0  0  0  0  0  0  0  0  0  0  0
    0.8710    1.2417    3.5708 H   0  0  0  0  0  0  0  0  0  0  0  0
    1.2108   -0.9675    4.6941 H   0  0  0  0  0  0  0  0  0  0  0  0
    0.9980   -3.0632    3.3301 H   0  0  0  0  0  0  0  0  0  0  0  0
  1  2  2  0
  1  6  1  0
  1 43  1  0
  2  3  1  0
  2 44  1  0
  3  4  2  0
  4  5  1  0
  4 42  1  0
  5  6  2  0
  5  7  1  0
  6 45  1  0
  7  8  1  0
  7 36  2  0
  8  9  2  0
  9 10  1  0
  9 34  1  0
 10 11  2  0
 10 33  1  0
 11 12  1  0
 11 46  1  0
 12 13  2  0
 12 47  1  0
 13 14  1  0
 13 32  1  0
 14 15  2  0
 14 30  1  0
 15 16  1  0
 16 17  2  0
 16 29  1  0
 17 18  1  0
 17 22  1  0
 18 19  2  0
 18 48  1  0
 19 20  1  0
 19 49  1  0
 20 21  2  0
 20 50  1  0
 21 22  1  0
 22 23  2  0
 23 24  1  0
 23 28  1  0
 24 25  2  0
 25 26  1  0
 25 51  1  0
 26 27  2  0
 26 52  1  0
 27 28  1  0
 27 53  1  0
 28 29  2  0
 29 30  1  0
 30 31  1  0
 32 33  2  0
 32 54  1  0
 33 55  1  0
 34 35  1  0
 34 36  1  0
 36 37  1  0
 37 38  1  0
 37 42  2  0
 38 39  2  0
 38 56  1  0
 39 40  1  0
 39 57  1  0
 40 41  2  0
 40 58  1  0
 41 42  1  0
M  END

