
     RDKit          3D

 54 57  0  0  0  0  0  0  0  0999 V2000
    4.8376    2.1594   -0.7394 C   0  0  0  0  0  0  0  0  0  0  0  0
    4.3091    0.8109   -0.3136 C   0  0  0  0  0  0  0  0  0  0  0  0
    3.0347    0.6815    0.2601 C   0  0  0  0  0  0  0  0  0  0  0  0
    2.5701   -0.5668    0.6748 C   0  0  0  0  0  0  0  0  0  0  0  0
    3.3677   -1.7054    0.5276 C   0  0  0  0  0  0  0  0  0  0  0  0
    4.6497   -1.6096   -0.0368 C   0  0  0  0  0  0  0  0  0  0  0  0
    5.5275   -2.8478   -0.2609 C   0  0  1  0  0  0  0  0  0  0  0  0
    5.2498   -3.2705   -1.7365 C   0  0  0  0  0  0  0  0  0  0  0  0
    6.0715   -4.3474   -2.2835 N   0  0  0  0  0  0  0  0  0  0  0  0
    7.0995   -4.1060   -3.1356 C   0  0  0  0  0  0  0  0  0  0  0  0
    7.4677   -3.0186   -3.5214 O   0  0  0  0  0  0  0  0  0  0  0  0
    7.7792   -5.2979   -3.5930 N   0  0  0  0  0  0  0  0  0  0  0  0
    7.0571   -6.4674   -3.9930 C   0  0  0  0  0  0  0  0  0  0  0  0
    7.0004   -6.4486   -5.5833 C   0  0  0  0  0  0  0  0  0  0  0  0
    8.2863   -6.4531   -6.0476 O   0  0  0  0  0  0  0  0  0  0  0  0
    9.0805   -5.2690   -5.7442 C   0  0  2  0  0  0  0  0  0  0  0  0
   10.4829   -5.3458   -6.1975 C   0  0  0  0  0  0  0  0  0  0  0  0
   11.3116   -6.2401   -5.5622 N   0  0  0  0  0  0  0  0  0  0  0  0
   12.2744   -6.6723   -6.3751 C   0  0  0  0  0  0  0  0  0  0  0  0
   12.2374   -6.2653   -7.7062 C   0  0  0  0  0  0  0  0  0  0  0  0
   10.8500   -5.2071   -7.9722 S   0  0  0  0  0  0  0  0  0  0  0  0
    9.0914   -5.1518   -4.1668 C   0  0  0  0  0  0  0  0  0  0  0  0
    7.0414   -2.5777   -0.0062 C   0  0  0  0  0  0  0  0  0  0  0  0
    7.6809   -3.9181    0.4331 C   0  0  0  0  0  0  0  0  0  0  0  0
    6.5092   -4.8570    0.8253 C   0  0  0  0  0  0  0  0  0  0  0  0
    5.2338   -3.9939    0.7451 C   0  0  0  0  0  0  0  0  0  0  0  0
    5.0928   -0.3437   -0.4568 C   0  0  0  0  0  0  0  0  0  0  0  0
    4.0237    2.8355   -1.0424 H   0  0  0  0  0  0  0  0  0  0  0  0
    5.5417    2.0725   -1.5808 H   0  0  0  0  0  0  0  0  0  0  0  0
    5.3783    2.6515    0.0882 H   0  0  0  0  0  0  0  0  0  0  0  0
    2.4019    1.5655    0.3793 H   0  0  0  0  0  0  0  0  0  0  0  0
    1.5742   -0.6576    1.1166 H   0  0  0  0  0  0  0  0  0  0  0  0
    2.9772   -2.6701    0.8567 H   0  0  0  0  0  0  0  0  0  0  0  0
    5.4074   -2.4044   -2.3913 H   0  0  0  0  0  0  0  0  0  0  0  0
    4.1915   -3.5651   -1.8258 H   0  0  0  0  0  0  0  0  0  0  0  0
    5.9739   -5.2746   -1.8891 H   0  0  0  0  0  0  0  0  0  0  0  0
    6.0387   -6.4812   -3.5869 H   0  0  0  0  0  0  0  0  0  0  0  0
    7.6073   -7.3754   -3.7098 H   0  0  0  0  0  0  0  0  0  0  0  0
    6.4212   -5.5532   -5.8839 H   0  0  0  0  0  0  0  0  0  0  0  0
    6.4783   -7.3590   -5.9167 H   0  0  0  0  0  0  0  0  0  0  0  0
    8.5257   -4.3996   -6.1400 H   0  0  0  0  0  0  0  0  0  0  0  0
   13.0513   -7.3409   -5.9877 H   0  0  0  0  0  0  0  0  0  0  0  0
   12.8959   -6.5509   -8.5228 H   0  0  0  0  0  0  0  0  0  0  0  0
    9.5051   -4.1765   -3.9000 H   0  0  0  0  0  0  0  0  0  0  0  0
    9.7560   -5.9721   -3.8526 H   0  0  0  0  0  0  0  0  0  0  0  0
    7.1229   -1.8429    0.8090 H   0  0  0  0  0  0  0  0  0  0  0  0
    7.5433   -2.1391   -0.8809 H   0  0  0  0  0  0  0  0  0  0  0  0
    8.3692   -3.7600    1.2768 H   0  0  0  0  0  0  0  0  0  0  0  0
    8.2893   -4.3611   -0.3703 H   0  0  0  0  0  0  0  0  0  0  0  0
    6.6359   -5.2873    1.8301 H   0  0  0  0  0  0  0  0  0  0  0  0
    6.4524   -5.7238    0.1446 H   0  0  0  0  0  0  0  0  0  0  0  0
    5.0374   -3.5426    1.7302 H   0  0  0  0  0  0  0  0  0  0  0  0
    4.3361   -4.5788    0.4853 H   0  0  0  0  0  0  0  0  0  0  0  0
    6.0809   -0.2448   -0.9140 H   0  0  0  0  0  0  0  0  0  0  0  0
  1  2  1  0
  1 28  1  0
  1 29  1  0
  1 30  1  0
  2  3  2  0
  2 27  1  0
  3  4  1  0
  3 31  1  0
  4  5  2  0
  4 32  1  0
  5  6  1  0
  5 33  1  0
  6  7  1  0
  6 27  2  0
  7  8  1  6
  7 23  1  0
  7 26  1  0
  8  9  1  0
  8 34  1  0
  8 35  1  0
  9 10  1  0
  9 36  1  0
 10 11  2  0
 10 12  1  0
 12 13  1  0
 12 22  1  0
 13 14  1  0
 13 37  1  0
 13 38  1  0
 14 15  1  0
 14 39  1  0
 14 40  1  0
 15 16  1  0
 16 17  1  0
 16 22  1  0
 16 41  1  6
 17 18  2  0
 17 21  1  0
 18 19  1  0
 19 20  2  0
 19 42  1  0
 20 21  1  0
 20 43  1  0
 22 44  1  0
 22 45  1  0
 23 24  1  0
 23 46  1  0
 23 47  1  0
 24 25  1  0
 24 48  1  0
 24 49  1  0
 25 26  1  0
 25 50  1  0
 25 51  1  0
 26 52  1  0
 26 53  1  0
 27 54  1  0
M  END

