
     RDKit          3D

 30 32  0  0  0  0  0  0  0  0999 V2000
    1.8421   -1.7501    1.4895 N   0  0  0  0  0  0  0  0  0  0  0  0
    2.8234   -1.3875    0.9701 C   0  0  0  0  0  0  0  0  0  0  0  0
    4.0132   -0.9637    0.3162 C   0  0  0  0  0  0  0  0  0  0  0  0
    4.8177    0.0171    0.9642 C   0  0  0  0  0  0  0  0  0  0  0  0
    6.1746    0.4157    0.7932 C   0  0  0  0  0  0  0  0  0  0  0  0
    7.1685   -0.3207    0.0727 C   0  0  0  0  0  0  0  0  0  0  0  0
    8.4804    0.1298   -0.0168 C   0  0  0  0  0  0  0  0  0  0  0  0
    8.8471    1.3252    0.6057 C   0  0  0  0  0  0  0  0  0  0  0  0
   10.1165    1.7592    0.5075 F   0  0  0  0  0  0  0  0  0  0  0  0
    7.9207    2.0701    1.3441 C   0  0  0  0  0  0  0  0  0  0  0  0
    6.6149    1.6147    1.4401 C   0  0  0  0  0  0  0  0  0  0  0  0
    4.1943   -1.4586   -1.0288 C   0  0  0  0  0  0  0  0  0  0  0  0
    5.0389   -1.0552   -1.9339 N   0  0  0  0  0  0  0  0  0  0  0  0
    4.8898   -1.7254   -3.1320 C   0  0  0  0  0  0  0  0  0  0  0  0
    5.7680   -1.3655   -4.2027 C   0  0  0  0  0  0  0  0  0  0  0  0
    6.7745   -0.3760   -4.1370 C   0  0  0  0  0  0  0  0  0  0  0  0
    7.4819   -0.2422   -5.3375 C   0  0  0  0  0  0  0  0  0  0  0  0
    7.0308   -1.1136   -6.3267 C   0  0  0  0  0  0  0  0  0  0  0  0
    5.7301   -2.1110   -5.7940 S   0  0  0  0  0  0  0  0  0  0  0  0
    3.8908   -2.6909   -3.1705 C   0  0  0  0  0  0  0  0  0  0  0  0
    3.0867   -2.7946   -1.6597 S   0  0  0  0  0  0  0  0  0  0  0  0
    4.2971    0.5349    1.7769 H   0  0  0  0  0  0  0  0  0  0  0  0
    6.9017   -1.2680   -0.3897 H   0  0  0  0  0  0  0  0  0  0  0  0
    9.2414   -0.4443   -0.5506 H   0  0  0  0  0  0  0  0  0  0  0  0
    8.2426    2.9913    1.8342 H   0  0  0  0  0  0  0  0  0  0  0  0
    5.8905    2.1932    2.0196 H   0  0  0  0  0  0  0  0  0  0  0  0
    6.9416    0.1909   -3.2221 H   0  0  0  0  0  0  0  0  0  0  0  0
    8.2974    0.4637   -5.4972 H   0  0  0  0  0  0  0  0  0  0  0  0
    7.4059   -1.2095   -7.3456 H   0  0  0  0  0  0  0  0  0  0  0  0
    3.6067   -3.3197   -4.0133 H   0  0  0  0  0  0  0  0  0  0  0  0
  1  2  3  0
  2  3  1  0
  3  4  2  0
  3 12  1  0
  4  5  1  0
  4 22  1  0
  5  6  2  0
  5 11  1  0
  6  7  1  0
  6 23  1  0
  7  8  2  0
  7 24  1  0
  8  9  1  0
  8 10  1  0
 10 11  2  0
 10 25  1  0
 11 26  1  0
 12 13  2  0
 12 21  1  0
 13 14  1  0
 14 15  1  0
 14 20  2  0
 15 16  2  0
 15 19  1  0
 16 17  1  0
 16 27  1  0
 17 18  2  0
 17 28  1  0
 18 19  1  0
 18 29  1  0
 20 21  1  0
 20 30  1  0
M  END

