
     RDKit          3D

 54 57  0  0  0  0  0  0  0  0999 V2000
    3.8811   -4.2804    3.5645 C   0  0  0  0  0  0  0  0  0  0  0  0
    4.7860   -3.4818    2.6582 C   0  0  0  0  0  0  0  0  0  0  0  0
    6.1077   -3.8946    2.4234 C   0  0  0  0  0  0  0  0  0  0  0  0
    6.9680   -3.1829    1.5927 C   0  0  0  0  0  0  0  0  0  0  0  0
    6.5118   -2.0162    0.9655 C   0  0  0  0  0  0  0  0  0  0  0  0
    7.4126   -1.3709    0.1667 O   0  0  0  0  0  0  0  0  0  0  0  0
    7.0070   -0.2103   -0.5283 C   0  0  0  0  0  0  0  0  0  0  0  0
    8.1445    0.2722   -1.3637 C   0  0  0  0  0  0  0  0  0  0  0  0
    9.0100    1.3195   -1.2624 C   0  0  0  0  0  0  0  0  0  0  0  0
    9.8511    1.1785   -2.4090 C   0  0  0  0  0  0  0  0  0  0  0  0
   10.9620    2.1619   -2.6933 C   0  0  0  0  0  0  0  0  0  0  0  0
   11.0668    3.1015   -1.9131 O   0  0  0  0  0  0  0  0  0  0  0  0
   11.7980    2.0002   -3.7629 N   0  0  0  0  0  0  0  0  0  0  0  0
   12.8454    2.9912   -3.9897 C   0  0  0  0  0  0  0  0  0  0  0  0
   14.2217    2.3296   -4.0816 C   0  0  0  0  0  0  0  0  0  0  0  0
   14.2270    1.2703   -5.0792 N   0  0  0  0  0  0  0  0  0  0  0  0
   15.4582    0.8313   -5.6029 C   0  0  0  0  0  0  0  0  0  0  0  0
   16.6945    1.2779   -5.0893 C   0  0  0  0  0  0  0  0  0  0  0  0
   17.9020    0.8604   -5.6573 C   0  0  0  0  0  0  0  0  0  0  0  0
   17.9206   -0.0229   -6.7369 C   0  0  0  0  0  0  0  0  0  0  0  0
   16.7011   -0.4799   -7.2498 C   0  0  0  0  0  0  0  0  0  0  0  0
   15.4921   -0.0601   -6.6999 C   0  0  0  0  0  0  0  0  0  0  0  0
   13.1714    0.2856   -4.8517 C   0  0  0  0  0  0  0  0  0  0  0  0
   11.7944    0.9437   -4.7702 C   0  0  0  0  0  0  0  0  0  0  0  0
    9.4985    0.1279   -3.1226 N   0  0  0  0  0  0  0  0  0  0  0  0
    8.4344   -0.4384   -2.4756 O   0  0  0  0  0  0  0  0  0  0  0  0
    5.1974   -1.5845    1.1866 C   0  0  0  0  0  0  0  0  0  0  0  0
    4.3309   -2.3057    2.0258 C   0  0  0  0  0  0  0  0  0  0  0  0
    2.9204   -1.8147    2.2434 C   0  0  0  0  0  0  0  0  0  0  0  0
    4.3971   -5.1674    3.9601 H   0  0  0  0  0  0  0  0  0  0  0  0
    2.9753   -4.6289    3.0389 H   0  0  0  0  0  0  0  0  0  0  0  0
    3.5327   -3.6860    4.4270 H   0  0  0  0  0  0  0  0  0  0  0  0
    6.4730   -4.8051    2.9074 H   0  0  0  0  0  0  0  0  0  0  0  0
    7.9935   -3.5112    1.4135 H   0  0  0  0  0  0  0  0  0  0  0  0
    6.7155    0.5950    0.1695 H   0  0  0  0  0  0  0  0  0  0  0  0
    6.1402   -0.4279   -1.1802 H   0  0  0  0  0  0  0  0  0  0  0  0
    9.0754    2.0934   -0.5046 H   0  0  0  0  0  0  0  0  0  0  0  0
   12.8171    3.7154   -3.1674 H   0  0  0  0  0  0  0  0  0  0  0  0
   12.6354    3.5214   -4.9368 H   0  0  0  0  0  0  0  0  0  0  0  0
   14.5139    1.9530   -3.0767 H   0  0  0  0  0  0  0  0  0  0  0  0
   14.9501    3.1010   -4.3694 H   0  0  0  0  0  0  0  0  0  0  0  0
   16.7265    1.9470   -4.2296 H   0  0  0  0  0  0  0  0  0  0  0  0
   18.8411    1.2268   -5.2335 H   0  0  0  0  0  0  0  0  0  0  0  0
   18.8666   -0.3505   -7.1739 H   0  0  0  0  0  0  0  0  0  0  0  0
   16.6880   -1.1652   -8.1018 H   0  0  0  0  0  0  0  0  0  0  0  0
   14.5592   -0.4083   -7.1463 H   0  0  0  0  0  0  0  0  0  0  0  0
   13.3564   -0.2753   -3.9094 H   0  0  0  0  0  0  0  0  0  0  0  0
   13.1581   -0.4479   -5.6668 H   0  0  0  0  0  0  0  0  0  0  0  0
   11.0314    0.1958   -4.5359 H   0  0  0  0  0  0  0  0  0  0  0  0
   11.5497    1.3922   -5.7513 H   0  0  0  0  0  0  0  0  0  0  0  0
    4.8207   -0.6780    0.7108 H   0  0  0  0  0  0  0  0  0  0  0  0
    2.7213   -0.8911    1.6805 H   0  0  0  0  0  0  0  0  0  0  0  0
    2.7230   -1.6074    3.3090 H   0  0  0  0  0  0  0  0  0  0  0  0
    2.1762   -2.5663    1.9291 H   0  0  0  0  0  0  0  0  0  0  0  0
  1  2  1  0
  1 30  1  0
  1 31  1  0
  1 32  1  0
  2  3  2  0
  2 28  1  0
  3  4  1  0
  3 33  1  0
  4  5  2  0
  4 34  1  0
  5  6  1  0
  5 27  1  0
  6  7  1  0
  7  8  1  0
  7 35  1  0
  7 36  1  0
  8  9  2  0
  8 26  1  0
  9 10  1  0
  9 37  1  0
 10 11  1  0
 10 25  2  0
 11 12  2  0
 11 13  1  0
 13 14  1  0
 13 24  1  0
 14 15  1  0
 14 38  1  0
 14 39  1  0
 15 16  1  0
 15 40  1  0
 15 41  1  0
 16 17  1  0
 16 23  1  0
 17 18  2  0
 17 22  1  0
 18 19  1  0
 18 42  1  0
 19 20  2  0
 19 43  1  0
 20 21  1  0
 20 44  1  0
 21 22  2  0
 21 45  1  0
 22 46  1  0
 23 24  1  0
 23 47  1  0
 23 48  1  0
 24 49  1  0
 24 50  1  0
 25 26  1  0
 27 28  2  0
 27 51  1  0
 28 29  1  0
 29 52  1  0
 29 53  1  0
 29 54  1  0
M  END

