
     RDKit          3D

 54 56  0  0  0  0  0  0  0  0999 V2000
   -0.5877    2.1641    0.6182 C   0  0  0  0  0  0  0  0  0  0  0  0
   -0.9885    2.8463    1.9240 C   0  0  1  0  0  0  0  0  0  0  0  0
    0.2612    3.2067    2.7634 C   0  0  0  0  0  0  0  0  0  0  0  0
    1.3324    3.3923    2.2054 O   0  0  0  0  0  0  0  0  0  0  0  0
    0.1003    3.3463    4.1173 N   0  0  0  0  0  0  0  0  0  0  0  0
   -1.1380    3.0860    4.8427 C   0  0  0  0  0  0  0  0  0  0  0  0
    1.2934    3.5426    4.9111 C   0  0  0  0  0  0  0  0  0  0  0  0
    1.7881    2.2304    5.5404 C   0  0  0  0  0  0  0  0  0  0  0  0
    1.3004    1.1510    5.2246 O   0  0  0  0  0  0  0  0  0  0  0  0
    2.7949    2.3388    6.4500 N   0  0  0  0  0  0  0  0  0  0  0  0
    3.3907    3.5889    6.9370 C   0  0  0  0  0  0  0  0  0  0  0  0
    4.2802    3.1457    8.1161 C   0  0  0  0  0  0  0  0  0  0  0  0
    3.7428    1.7543    8.4925 C   0  0  0  0  0  0  0  0  0  0  0  0
    3.3283    1.1556    7.1360 C   0  0  2  0  0  0  0  0  0  0  0  0
    4.5439    0.4777    6.4165 C   0  0  1  0  0  0  0  0  0  0  0  0
    4.7664   -0.9619    6.9316 C   0  0  0  0  0  0  0  0  0  0  0  0
    3.8796   -2.0005    6.2348 C   0  0  0  0  0  0  0  0  0  0  0  0
    4.1119   -1.9790    4.7215 C   0  0  0  0  0  0  0  0  0  0  0  0
    3.8050   -0.5942    4.1346 C   0  0  0  0  0  0  0  0  0  0  0  0
    4.4437    0.5613    4.8843 C   0  0  0  0  0  0  0  0  0  0  0  0
    4.8352    1.5593    4.3158 O   0  0  0  0  0  0  0  0  0  0  0  0
   -1.7800    4.0579    1.6925 N   0  0  0  0  0  0  0  0  0  0  0  0
   -1.3835    5.2038    1.0732 C   0  0  0  0  0  0  0  0  0  0  0  0
   -2.4772    6.0544    1.0743 C   0  0  0  0  0  0  0  0  0  0  0  0
   -3.4928    5.3169    1.7271 C   0  0  0  0  0  0  0  0  0  0  0  0
   -3.0618    4.1126    2.0966 N   0  0  0  0  0  0  0  0  0  0  0  0
   -0.0867    1.2084    0.8326 H   0  0  0  0  0  0  0  0  0  0  0  0
    0.1178    2.7856    0.0505 H   0  0  0  0  0  0  0  0  0  0  0  0
   -1.4826    1.9676    0.0097 H   0  0  0  0  0  0  0  0  0  0  0  0
   -1.6569    2.1850    2.4876 H   0  0  0  0  0  0  0  0  0  0  0  0
   -2.0178    3.3250    4.2332 H   0  0  0  0  0  0  0  0  0  0  0  0
   -1.1721    3.7407    5.7281 H   0  0  0  0  0  0  0  0  0  0  0  0
   -1.1925    2.0394    5.1864 H   0  0  0  0  0  0  0  0  0  0  0  0
    1.1029    4.3005    5.6892 H   0  0  0  0  0  0  0  0  0  0  0  0
    2.0877    3.9232    4.2515 H   0  0  0  0  0  0  0  0  0  0  0  0
    2.6040    4.2867    7.2711 H   0  0  0  0  0  0  0  0  0  0  0  0
    3.9712    4.0913    6.1463 H   0  0  0  0  0  0  0  0  0  0  0  0
    4.2446    3.8587    8.9525 H   0  0  0  0  0  0  0  0  0  0  0  0
    5.3303    3.0788    7.7932 H   0  0  0  0  0  0  0  0  0  0  0  0
    2.8541    1.8466    9.1383 H   0  0  0  0  0  0  0  0  0  0  0  0
    4.4804    1.1393    9.0284 H   0  0  0  0  0  0  0  0  0  0  0  0
    2.5139    0.4232    7.2238 H   0  0  0  0  0  0  0  0  0  0  0  0
    5.4300    1.0890    6.6489 H   0  0  0  0  0  0  0  0  0  0  0  0
    4.6173   -0.9951    8.0245 H   0  0  0  0  0  0  0  0  0  0  0  0
    5.8228   -1.2361    6.7644 H   0  0  0  0  0  0  0  0  0  0  0  0
    2.8140   -1.7998    6.4456 H   0  0  0  0  0  0  0  0  0  0  0  0
    4.0936   -3.0022    6.6431 H   0  0  0  0  0  0  0  0  0  0  0  0
    3.4899   -2.7389    4.2212 H   0  0  0  0  0  0  0  0  0  0  0  0
    5.1625   -2.2517    4.5122 H   0  0  0  0  0  0  0  0  0  0  0  0
    2.7191   -0.4011    4.1978 H   0  0  0  0  0  0  0  0  0  0  0  0
    4.0900   -0.5055    3.0757 H   0  0  0  0  0  0  0  0  0  0  0  0
   -0.3685    5.3219    0.6996 H   0  0  0  0  0  0  0  0  0  0  0  0
   -2.5311    7.0602    0.6642 H   0  0  0  0  0  0  0  0  0  0  0  0
   -4.5190    5.6151    1.9423 H   0  0  0  0  0  0  0  0  0  0  0  0
  1  2  1  0
  1 27  1  0
  1 28  1  0
  1 29  1  0
  2  3  1  0
  2 22  1  0
  2 30  1  1
  3  4  2  0
  3  5  1  0
  5  6  1  0
  5  7  1  0
  6 31  1  0
  6 32  1  0
  6 33  1  0
  7  8  1  0
  7 34  1  0
  7 35  1  0
  8  9  2  0
  8 10  1  0
 10 11  1  0
 10 14  1  0
 11 12  1  0
 11 36  1  0
 11 37  1  0
 12 13  1  0
 12 38  1  0
 12 39  1  0
 13 14  1  0
 13 40  1  0
 13 41  1  0
 14 15  1  0
 14 42  1  1
 15 16  1  0
 15 20  1  0
 15 43  1  6
 16 17  1  0
 16 44  1  0
 16 45  1  0
 17 18  1  0
 17 46  1  0
 17 47  1  0
 18 19  1  0
 18 48  1  0
 18 49  1  0
 19 20  1  0
 19 50  1  0
 19 51  1  0
 20 21  2  0
 22 23  1  0
 22 26  1  0
 23 24  2  0
 23 52  1  0
 24 25  1  0
 24 53  1  0
 25 26  2  0
 25 54  1  0
M  END

