
     RDKit          3D

 40 41  0  0  0  0  0  0  0  0999 V2000
    3.0916   -0.7732    0.9647 C   0  0  0  0  0  0  0  0  0  0  0  0
    3.2136    0.3903    0.0211 C   0  0  0  0  0  0  0  0  0  0  0  0
    3.9150    1.4178    0.5470 O   0  0  0  0  0  0  0  0  0  0  0  0
    3.5071    0.1598   -1.3184 N   0  0  0  0  0  0  0  0  0  0  0  0
    3.8094    1.2878   -2.2118 C   0  0  0  0  0  0  0  0  0  0  0  0
    3.3249    0.8198   -3.5884 C   0  0  0  0  0  0  0  0  0  0  0  0
    3.3886   -0.7136   -3.4882 C   0  0  2  0  0  0  0  0  0  0  0  0
    2.5888   -1.4138   -4.4715 N   0  0  0  0  0  0  0  0  0  0  0  0
    3.1056   -2.3608   -5.3030 C   0  0  0  0  0  0  0  0  0  0  0  0
    4.2787   -2.6968   -5.2799 O   0  0  0  0  0  0  0  0  0  0  0  0
    2.1267   -2.9946   -6.3367 C   0  0  1  0  0  0  0  0  0  0  0  0
    0.7469   -2.5512   -6.0809 C   0  0  0  0  0  0  0  0  0  0  0  0
   -0.3356   -2.1902   -5.8716 N   0  0  0  0  0  0  0  0  0  0  0  0
    2.5220   -2.5353   -7.7815 C   0  0  0  0  0  0  0  0  0  0  0  0
    3.8077   -3.1879   -8.3023 C   0  0  0  0  0  0  0  0  0  0  0  0
    3.7328   -4.7171   -8.2274 C   0  0  0  0  0  0  0  0  0  0  0  0
    3.4373   -5.1913   -6.8000 C   0  0  0  0  0  0  0  0  0  0  0  0
    2.1575   -4.5562   -6.2428 C   0  0  0  0  0  0  0  0  0  0  0  0
    2.9540   -0.9743   -2.0341 C   0  0  0  0  0  0  0  0  0  0  0  0
    2.7410   -0.4219    1.9463 H   0  0  0  0  0  0  0  0  0  0  0  0
    4.0695   -1.2836    1.1201 H   0  0  0  0  0  0  0  0  0  0  0  0
    2.3630   -1.5054    0.5876 H   0  0  0  0  0  0  0  0  0  0  0  0
    4.8933    1.5007   -2.2085 H   0  0  0  0  0  0  0  0  0  0  0  0
    3.2959    2.2042   -1.8731 H   0  0  0  0  0  0  0  0  0  0  0  0
    3.9260    1.2171   -4.4191 H   0  0  0  0  0  0  0  0  0  0  0  0
    2.2785    1.1307   -3.7513 H   0  0  0  0  0  0  0  0  0  0  0  0
    4.4207   -1.0633   -3.6311 H   0  0  0  0  0  0  0  0  0  0  0  0
    1.5994   -1.1927   -4.5307 H   0  0  0  0  0  0  0  0  0  0  0  0
    2.5981   -1.4360   -7.8004 H   0  0  0  0  0  0  0  0  0  0  0  0
    1.6826   -2.8029   -8.4459 H   0  0  0  0  0  0  0  0  0  0  0  0
    4.6680   -2.8308   -7.7163 H   0  0  0  0  0  0  0  0  0  0  0  0
    3.9654   -2.8609   -9.3438 H   0  0  0  0  0  0  0  0  0  0  0  0
    4.6764   -5.1604   -8.5853 H   0  0  0  0  0  0  0  0  0  0  0  0
    2.9399   -5.0792   -8.9092 H   0  0  0  0  0  0  0  0  0  0  0  0
    4.2845   -4.9416   -6.1455 H   0  0  0  0  0  0  0  0  0  0  0  0
    3.3171   -6.2875   -6.7779 H   0  0  0  0  0  0  0  0  0  0  0  0
    1.9923   -4.8571   -5.1958 H   0  0  0  0  0  0  0  0  0  0  0  0
    1.2899   -4.9267   -6.8154 H   0  0  0  0  0  0  0  0  0  0  0  0
    3.3408   -1.9339   -1.6558 H   0  0  0  0  0  0  0  0  0  0  0  0
    1.8429   -1.0090   -1.9654 H   0  0  0  0  0  0  0  0  0  0  0  0
  1  2  1  0
  1 20  1  0
  1 21  1  0
  1 22  1  0
  2  3  2  0
  2  4  1  0
  4  5  1  0
  4 19  1  0
  5  6  1  0
  5 23  1  0
  5 24  1  0
  6  7  1  0
  6 25  1  0
  6 26  1  0
  7  8  1  0
  7 19  1  0
  7 27  1  1
  8  9  1  0
  8 28  1  0
  9 10  2  0
  9 11  1  0
 11 12  1  1
 11 14  1  0
 11 18  1  0
 12 13  3  0
 14 15  1  0
 14 29  1  0
 14 30  1  0
 15 16  1  0
 15 31  1  0
 15 32  1  0
 16 17  1  0
 16 33  1  0
 16 34  1  0
 17 18  1  0
 17 35  1  0
 17 36  1  0
 18 37  1  0
 18 38  1  0
 19 39  1  0
 19 40  1  0
M  END

