
     RDKit          3D

 75 84  0  0  0  0  0  0  0  0999 V2000
   -0.3968    0.1997    1.2798 O   0  0  0  0  0  0  0  0  0  0  0  0
    0.9476    0.3206    0.6003 P   0  0  2  0  0  0  0  0  0  0  0  0
    2.1842   -0.6165    1.6020 C   0  0  0  0  0  0  0  0  0  0  0  0
    1.7451   -1.2007    2.7987 C   0  0  0  0  0  0  0  0  0  0  0  0
    2.6364   -1.9224    3.5995 C   0  0  0  0  0  0  0  0  0  0  0  0
    3.9707   -2.0668    3.2080 C   0  0  0  0  0  0  0  0  0  0  0  0
    4.4141   -1.4886    2.0126 C   0  0  0  0  0  0  0  0  0  0  0  0
    3.5244   -0.7665    1.2131 C   0  0  0  0  0  0  0  0  0  0  0  0
    1.6097    1.9767    0.2659 C   0  0  0  0  0  0  0  0  0  0  0  0
    1.7763    3.0342    1.1598 C   0  0  0  0  0  0  0  0  0  0  0  0
    2.2114    4.2872    0.7213 C   0  0  0  0  0  0  0  0  0  0  0  0
    2.4615    4.4478   -0.6707 C   0  0  0  0  0  0  0  0  0  0  0  0
    2.8862    5.7642   -1.1494 N   0  0  0  0  0  0  0  0  0  0  0  0
    4.2288    6.0848   -1.2085 C   0  0  0  0  0  0  0  0  0  0  0  0
    5.2440    5.1814   -0.8178 C   0  0  0  0  0  0  0  0  0  0  0  0
    6.5738    5.5570   -0.9042 C   0  0  0  0  0  0  0  0  0  0  0  0
    6.9413    6.8335   -1.3800 C   0  0  0  0  0  0  0  0  0  0  0  0
    5.9636    7.7394   -1.7691 C   0  0  0  0  0  0  0  0  0  0  0  0
    4.6199    7.3683   -1.6821 C   0  0  0  0  0  0  0  0  0  0  0  0
    3.6898    8.2763   -2.0683 O   0  0  0  0  0  0  0  0  0  0  0  0
    2.3704    7.9728   -1.9978 C   0  0  0  0  0  0  0  0  0  0  0  0
    1.4577    8.9501   -2.4012 C   0  0  0  0  0  0  0  0  0  0  0  0
    0.0989    8.6714   -2.3396 C   0  0  0  0  0  0  0  0  0  0  0  0
   -0.3462    7.4156   -1.8747 C   0  0  0  0  0  0  0  0  0  0  0  0
    0.5526    6.4410   -1.4756 C   0  0  0  0  0  0  0  0  0  0  0  0
    1.9421    6.6986   -1.5297 C   0  0  0  0  0  0  0  0  0  0  0  0
    2.3002    3.4260   -1.5916 C   0  0  0  0  0  0  0  0  0  0  0  0
    1.8707    2.1538   -1.1517 C   0  0  0  0  0  0  0  0  0  0  0  0
    1.6185    0.9722   -1.9296 C   0  0  0  0  0  0  0  0  0  0  0  0
    1.7601    0.7899   -3.3254 C   0  0  0  0  0  0  0  0  0  0  0  0
    1.4578   -0.4326   -3.9096 C   0  0  0  0  0  0  0  0  0  0  0  0
    1.6135   -0.5957   -5.3293 N   0  0  0  0  0  0  0  0  0  0  0  0
    2.8262   -1.0630   -5.8614 C   0  0  0  0  0  0  0  0  0  0  0  0
    3.9318   -1.3904   -5.0625 C   0  0  0  0  0  0  0  0  0  0  0  0
    5.1256   -1.8471   -5.6362 C   0  0  0  0  0  0  0  0  0  0  0  0
    5.2378   -1.9870   -7.0179 C   0  0  0  0  0  0  0  0  0  0  0  0
    4.1406   -1.6667   -7.8289 C   0  0  0  0  0  0  0  0  0  0  0  0
    2.9559   -1.2119   -7.2609 C   0  0  0  0  0  0  0  0  0  0  0  0
    1.9225   -0.9065   -8.1149 O   0  0  0  0  0  0  0  0  0  0  0  0
    0.7101   -0.5297   -7.5860 C   0  0  0  0  0  0  0  0  0  0  0  0
   -0.3337   -0.3067   -8.4769 C   0  0  0  0  0  0  0  0  0  0  0  0
   -1.5929    0.0902   -8.0069 C   0  0  0  0  0  0  0  0  0  0  0  0
   -1.7865    0.2556   -6.6370 C   0  0  0  0  0  0  0  0  0  0  0  0
   -0.7360    0.0296   -5.7381 C   0  0  0  0  0  0  0  0  0  0  0  0
    0.5305   -0.3652   -6.1939 C   0  0  0  0  0  0  0  0  0  0  0  0
    0.9941   -1.5243   -3.1248 C   0  0  0  0  0  0  0  0  0  0  0  0
    0.8401   -1.3601   -1.7489 C   0  0  0  0  0  0  0  0  0  0  0  0
    1.1506   -0.1405   -1.1384 C   0  0  0  0  0  0  0  0  0  0  0  0
    0.6950   -1.0794    3.0754 H   0  0  0  0  0  0  0  0  0  0  0  0
    2.2872   -2.3775    4.5307 H   0  0  0  0  0  0  0  0  0  0  0  0
    4.6670   -2.6340    3.8321 H   0  0  0  0  0  0  0  0  0  0  0  0
    5.4561   -1.6062    1.7019 H   0  0  0  0  0  0  0  0  0  0  0  0
    3.8706   -0.3214    0.2759 H   0  0  0  0  0  0  0  0  0  0  0  0
    1.5565    2.8866    2.2215 H   0  0  0  0  0  0  0  0  0  0  0  0
    2.3448    5.1188    1.4141 H   0  0  0  0  0  0  0  0  0  0  0  0
    4.9566    4.1975   -0.4533 H   0  0  0  0  0  0  0  0  0  0  0  0
    7.3479    4.8506   -0.5996 H   0  0  0  0  0  0  0  0  0  0  0  0
    7.9948    7.1111   -1.4435 H   0  0  0  0  0  0  0  0  0  0  0  0
    6.2069    8.7351   -2.1424 H   0  0  0  0  0  0  0  0  0  0  0  0
    1.8411    9.9082   -2.7549 H   0  0  0  0  0  0  0  0  0  0  0  0
   -0.6246    9.4265   -2.6521 H   0  0  0  0  0  0  0  0  0  0  0  0
   -1.4159    7.2042   -1.8284 H   0  0  0  0  0  0  0  0  0  0  0  0
    0.2124    5.4717   -1.1176 H   0  0  0  0  0  0  0  0  0  0  0  0
    2.4982    3.6097   -2.6509 H   0  0  0  0  0  0  0  0  0  0  0  0
    2.1087    1.6031   -3.9671 H   0  0  0  0  0  0  0  0  0  0  0  0
    3.8485   -1.2863   -3.9809 H   0  0  0  0  0  0  0  0  0  0  0  0
    5.9677   -2.0957   -4.9855 H   0  0  0  0  0  0  0  0  0  0  0  0
    6.1652   -2.3440   -7.4712 H   0  0  0  0  0  0  0  0  0  0  0  0
    4.1823   -1.7626   -8.9159 H   0  0  0  0  0  0  0  0  0  0  0  0
   -0.1366   -0.4498   -9.5414 H   0  0  0  0  0  0  0  0  0  0  0  0
   -2.4085    0.2633   -8.7125 H   0  0  0  0  0  0  0  0  0  0  0  0
   -2.7617    0.5603   -6.2494 H   0  0  0  0  0  0  0  0  0  0  0  0
   -0.8949    0.1568   -4.6673 H   0  0  0  0  0  0  0  0  0  0  0  0
    0.7601   -2.4729   -3.6105 H   0  0  0  0  0  0  0  0  0  0  0  0
    0.4696   -2.1926   -1.1433 H   0  0  0  0  0  0  0  0  0  0  0  0
  1  2  2  0
  2  3  1  1
  2  9  1  0
  2 48  1  0
  3  4  2  0
  3  8  1  0
  4  5  1  0
  4 49  1  0
  5  6  2  0
  5 50  1  0
  6  7  1  0
  6 51  1  0
  7  8  2  0
  7 52  1  0
  8 53  1  0
  9 10  2  0
  9 28  1  0
 10 11  1  0
 10 54  1  0
 11 12  2  0
 11 55  1  0
 12 13  1  0
 12 27  1  0
 13 14  1  0
 13 26  1  0
 14 15  2  0
 14 19  1  0
 15 16  1  0
 15 56  1  0
 16 17  2  0
 16 57  1  0
 17 18  1  0
 17 58  1  0
 18 19  2  0
 18 59  1  0
 19 20  1  0
 20 21  1  0
 21 22  2  0
 21 26  1  0
 22 23  1  0
 22 60  1  0
 23 24  2  0
 23 61  1  0
 24 25  1  0
 24 62  1  0
 25 26  2  0
 25 63  1  0
 27 28  2  0
 27 64  1  0
 28 29  1  0
 29 30  2  0
 29 48  1  0
 30 31  1  0
 30 65  1  0
 31 32  1  0
 31 46  2  0
 32 33  1  0
 32 45  1  0
 33 34  2  0
 33 38  1  0
 34 35  1  0
 34 66  1  0
 35 36  2  0
 35 67  1  0
 36 37  1  0
 36 68  1  0
 37 38  2  0
 37 69  1  0
 38 39  1  0
 39 40  1  0
 40 41  2  0
 40 45  1  0
 41 42  1  0
 41 70  1  0
 42 43  2  0
 42 71  1  0
 43 44  1  0
 43 72  1  0
 44 45  2  0
 44 73  1  0
 46 47  1  0
 46 74  1  0
 47 48  2  0
 47 75  1  0
M  END

