
     RDKit          3D

 29 30  0  0  0  0  0  0  0  0999 V2000
    2.9091   -3.4853   -1.3639 C   0  0  0  0  0  0  0  0  0  0  0  0
    2.4782   -2.1275   -1.6433 N   0  0  0  0  0  0  0  0  0  0  0  0
    1.0372   -2.0784   -1.3951 N   0  0  0  0  0  0  0  0  0  0  0  0
    3.1044   -1.1437   -0.7649 C   0  0  0  0  0  0  0  0  0  0  0  0
    4.5978   -0.9455   -1.0231 C   0  0  2  0  0  0  0  0  0  0  0  0
    5.2093    0.2515   -0.2174 C   0  0  0  0  0  0  0  0  0  0  0  0
    5.9502    1.0689   -1.3003 C   0  0  2  0  0  0  0  0  0  0  0  0
    4.8999    1.7861   -2.1804 C   0  0  0  0  0  0  0  0  0  0  0  0
    4.2769    0.6182   -3.0092 C   0  0  0  0  0  0  0  0  0  0  0  0
    5.0260   -0.6257   -2.4830 C   0  0  1  0  0  0  0  0  0  0  0  0
    6.4380   -0.0464   -2.2499 C   0  0  0  0  0  0  0  0  0  0  0  0
    2.4135   -4.1825   -2.0602 H   0  0  0  0  0  0  0  0  0  0  0  0
    2.6691   -3.8071   -0.3268 H   0  0  0  0  0  0  0  0  0  0  0  0
    3.9917   -3.5771   -1.5270 H   0  0  0  0  0  0  0  0  0  0  0  0
    0.6275   -2.6932   -2.1056 H   0  0  0  0  0  0  0  0  0  0  0  0
    0.7487   -1.1442   -1.7030 H   0  0  0  0  0  0  0  0  0  0  0  0
    2.9391   -1.3957    0.3077 H   0  0  0  0  0  0  0  0  0  0  0  0
    2.5834   -0.1846   -0.9301 H   0  0  0  0  0  0  0  0  0  0  0  0
    5.1247   -1.8670   -0.7251 H   0  0  0  0  0  0  0  0  0  0  0  0
    5.9038   -0.1027    0.5607 H   0  0  0  0  0  0  0  0  0  0  0  0
    4.4373    0.8526    0.2910 H   0  0  0  0  0  0  0  0  0  0  0  0
    6.7240    1.7395   -0.8972 H   0  0  0  0  0  0  0  0  0  0  0  0
    5.3814    2.5292   -2.8360 H   0  0  0  0  0  0  0  0  0  0  0  0
    4.1558    2.3263   -1.5733 H   0  0  0  0  0  0  0  0  0  0  0  0
    4.4725    0.7470   -4.0856 H   0  0  0  0  0  0  0  0  0  0  0  0
    3.1864    0.5359   -2.8976 H   0  0  0  0  0  0  0  0  0  0  0  0
    4.9566   -1.4935   -3.1535 H   0  0  0  0  0  0  0  0  0  0  0  0
    6.9110    0.3364   -3.1692 H   0  0  0  0  0  0  0  0  0  0  0  0
    7.1298   -0.7576   -1.7693 H   0  0  0  0  0  0  0  0  0  0  0  0
  1  2  1  0
  1 12  1  0
  1 13  1  0
  1 14  1  0
  2  3  1  0
  2  4  1  0
  3 15  1  0
  3 16  1  0
  4  5  1  0
  4 17  1  0
  4 18  1  0
  5  6  1  0
  5 10  1  0
  5 19  1  1
  6  7  1  0
  6 20  1  0
  6 21  1  0
  7  8  1  0
  7 11  1  0
  7 22  1  1
  8  9  1  0
  8 23  1  0
  8 24  1  0
  9 10  1  0
  9 25  1  0
  9 26  1  0
 10 11  1  0
 10 27  1  6
 11 28  1  0
 11 29  1  0
M  END

