
     RDKit          3D

 49 50  0  0  0  0  0  0  0  0999 V2000
    3.6283   -2.2524   -2.2277 C   0  0  0  0  0  0  0  0  0  0  0  0
    3.7516   -1.2170   -1.1064 C   0  0  0  0  0  0  0  0  0  0  0  0
    4.1530   -1.7913    0.2677 C   0  0  1  0  0  0  0  0  0  0  0  0
    5.4687   -2.5705    0.1645 C   0  0  0  0  0  0  0  0  0  0  0  0
    4.2317   -0.7182    1.2956 N   0  0  0  0  0  0  0  0  0  0  0  0
    3.0597    0.1736    1.3783 C   0  0  0  0  0  0  0  0  0  0  0  0
    1.7238   -0.4834    1.7466 C   0  0  0  0  0  0  0  0  0  0  0  0
    4.6869   -1.1561    2.6216 C   0  0  0  0  0  0  0  0  0  0  0  0
    6.1849   -0.8173    2.8949 C   0  0  1  0  0  0  0  0  0  0  0  0
    6.4163    0.5231    2.3716 N   0  0  0  0  0  0  0  0  0  0  0  0
    7.3720    1.4555    2.8735 C   0  0  0  0  0  0  0  0  0  0  0  0
    6.7099   -1.0690    4.2846 C   0  0  0  0  0  0  0  0  0  0  0  0
    5.9100   -0.7140    5.4087 C   0  0  0  0  0  0  0  0  0  0  0  0
    6.3610   -0.9432    6.7021 C   0  0  0  0  0  0  0  0  0  0  0  0
    7.6180   -1.5325    6.9136 C   0  0  0  0  0  0  0  0  0  0  0  0
    8.4664   -1.8907    5.8269 C   0  0  0  0  0  0  0  0  0  0  0  0
    9.7419   -2.4775    6.0334 C   0  0  0  0  0  0  0  0  0  0  0  0
   10.5837   -2.8203    4.9611 C   0  0  0  0  0  0  0  0  0  0  0  0
   10.1705   -2.5749    3.6572 C   0  0  0  0  0  0  0  0  0  0  0  0
    8.9106   -1.9861    3.4104 C   0  0  0  0  0  0  0  0  0  0  0  0
    8.0172   -1.6446    4.4640 C   0  0  0  0  0  0  0  0  0  0  0  0
    3.2114   -1.7868   -3.1341 H   0  0  0  0  0  0  0  0  0  0  0  0
    2.9540   -3.0772   -1.9420 H   0  0  0  0  0  0  0  0  0  0  0  0
    4.5969   -2.6940   -2.5060 H   0  0  0  0  0  0  0  0  0  0  0  0
    2.7822   -0.7047   -1.0190 H   0  0  0  0  0  0  0  0  0  0  0  0
    4.4860   -0.4404   -1.3880 H   0  0  0  0  0  0  0  0  0  0  0  0
    3.3681   -2.5216    0.5636 H   0  0  0  0  0  0  0  0  0  0  0  0
    6.2929   -1.9228   -0.1782 H   0  0  0  0  0  0  0  0  0  0  0  0
    5.3638   -3.3889   -0.5605 H   0  0  0  0  0  0  0  0  0  0  0  0
    5.7635   -3.0388    1.1135 H   0  0  0  0  0  0  0  0  0  0  0  0
    2.9535    0.7174    0.4279 H   0  0  0  0  0  0  0  0  0  0  0  0
    3.2924    0.9461    2.1308 H   0  0  0  0  0  0  0  0  0  0  0  0
    1.3875   -1.1978    0.9794 H   0  0  0  0  0  0  0  0  0  0  0  0
    0.9407    0.2849    1.8477 H   0  0  0  0  0  0  0  0  0  0  0  0
    1.7854   -1.0236    2.7047 H   0  0  0  0  0  0  0  0  0  0  0  0
    4.5740   -2.2380    2.7862 H   0  0  0  0  0  0  0  0  0  0  0  0
    4.0783   -0.6700    3.3945 H   0  0  0  0  0  0  0  0  0  0  0  0
    6.7435   -1.4358    2.1708 H   0  0  0  0  0  0  0  0  0  0  0  0
    5.8557    0.7147    1.5309 H   0  0  0  0  0  0  0  0  0  0  0  0
    8.3646    0.9789    2.8997 H   0  0  0  0  0  0  0  0  0  0  0  0
    7.1239    1.6788    3.9236 H   0  0  0  0  0  0  0  0  0  0  0  0
    7.3827    2.3670    2.2643 H   0  0  0  0  0  0  0  0  0  0  0  0
    4.9267   -0.2576    5.2674 H   0  0  0  0  0  0  0  0  0  0  0  0
    5.7346   -0.6679    7.5551 H   0  0  0  0  0  0  0  0  0  0  0  0
    7.9710   -1.7212    7.9309 H   0  0  0  0  0  0  0  0  0  0  0  0
   10.0631   -2.6635    7.0620 H   0  0  0  0  0  0  0  0  0  0  0  0
   11.5591   -3.2749    5.1562 H   0  0  0  0  0  0  0  0  0  0  0  0
   10.8162   -2.8344    2.8134 H   0  0  0  0  0  0  0  0  0  0  0  0
    8.6332   -1.8172    2.3670 H   0  0  0  0  0  0  0  0  0  0  0  0
  1  2  1  0
  1 22  1  0
  1 23  1  0
  1 24  1  0
  2  3  1  0
  2 25  1  0
  2 26  1  0
  3  4  1  0
  3  5  1  0
  3 27  1  1
  4 28  1  0
  4 29  1  0
  4 30  1  0
  5  6  1  0
  5  8  1  0
  6  7  1  0
  6 31  1  0
  6 32  1  0
  7 33  1  0
  7 34  1  0
  7 35  1  0
  8  9  1  0
  8 36  1  0
  8 37  1  0
  9 10  1  0
  9 12  1  0
  9 38  1  6
 10 11  1  0
 10 39  1  0
 11 40  1  0
 11 41  1  0
 11 42  1  0
 12 13  2  0
 12 21  1  0
 13 14  1  0
 13 43  1  0
 14 15  2  0
 14 44  1  0
 15 16  1  0
 15 45  1  0
 16 17  1  0
 16 21  2  0
 17 18  2  0
 17 46  1  0
 18 19  1  0
 18 47  1  0
 19 20  2  0
 19 48  1  0
 20 21  1  0
 20 49  1  0
M  END

