
     RDKit          3D

 51 52  0  0  0  0  0  0  0  0999 V2000
    1.5355   -0.8992   -3.0237 C   0  0  0  0  0  0  0  0  0  0  0  0
    1.9392   -1.1239   -1.5679 C   0  0  0  0  0  0  0  0  0  0  0  0
    3.2688   -0.5810   -1.2619 N   0  0  0  0  0  0  0  0  0  0  0  0
    3.3850    0.8638   -1.0071 C   0  0  0  0  0  0  0  0  0  0  0  0
    2.8508    1.3357    0.3466 C   0  0  0  0  0  0  0  0  0  0  0  0
    4.2898   -1.5804   -0.3566 S   0  0  1  0  0  0  0  0  0  0  0  0
    5.4697   -0.7676   -0.0423 O   0  0  0  0  0  0  0  0  0  0  0  0
    3.5462   -2.2449    0.7249 O   0  0  0  0  0  0  0  0  0  0  0  0
    4.7547   -2.8536   -1.5347 C   0  0  0  0  0  0  0  0  0  0  0  0
    5.3973   -2.5022   -2.7179 C   0  0  0  0  0  0  0  0  0  0  0  0
    5.8155   -3.5223   -3.5831 C   0  0  0  0  0  0  0  0  0  0  0  0
    5.5998   -4.8611   -3.2555 C   0  0  0  0  0  0  0  0  0  0  0  0
    5.9658   -5.9229   -4.0263 O   0  0  0  0  0  0  0  0  0  0  0  0
    6.6192   -5.6973   -5.2579 C   0  0  0  0  0  0  0  0  0  0  0  0
    4.9481   -5.2191   -2.0382 C   0  0  0  0  0  0  0  0  0  0  0  0
    4.7756   -6.5594   -1.7647 N   0  0  0  0  0  0  0  0  0  0  0  0
    4.0137   -7.0710   -0.6536 C   0  0  0  0  0  0  0  0  0  0  0  0
    4.7407   -7.0839    0.6888 C   0  0  0  0  0  0  0  0  0  0  0  0
    4.0168   -7.2448    1.8788 C   0  0  0  0  0  0  0  0  0  0  0  0
    4.6748   -7.3299    3.1091 C   0  0  0  0  0  0  0  0  0  0  0  0
    6.0658   -7.2439    3.1692 C   0  0  0  0  0  0  0  0  0  0  0  0
    6.8021   -7.0478    1.9925 C   0  0  0  0  0  0  0  0  0  0  0  0
    8.2994   -6.9538    2.1004 C   0  0  0  0  0  0  0  0  0  0  0  0
    8.9243   -7.3937    3.0289 O   0  0  0  0  0  0  0  0  0  0  0  0
    8.9338   -6.3346    1.0778 O   0  0  0  0  0  0  0  0  0  0  0  0
    6.1331   -6.9818    0.7603 C   0  0  0  0  0  0  0  0  0  0  0  0
    4.5330   -4.1905   -1.1812 C   0  0  0  0  0  0  0  0  0  0  0  0
    0.5384   -1.3285   -3.2129 H   0  0  0  0  0  0  0  0  0  0  0  0
    2.2556   -1.3761   -3.7063 H   0  0  0  0  0  0  0  0  0  0  0  0
    1.4862    0.1720   -3.2756 H   0  0  0  0  0  0  0  0  0  0  0  0
    1.9537   -2.2019   -1.3504 H   0  0  0  0  0  0  0  0  0  0  0  0
    1.1819   -0.6962   -0.8851 H   0  0  0  0  0  0  0  0  0  0  0  0
    2.8510    1.3651   -1.8310 H   0  0  0  0  0  0  0  0  0  0  0  0
    4.4451    1.1347   -1.1049 H   0  0  0  0  0  0  0  0  0  0  0  0
    1.7883    1.0803    0.4863 H   0  0  0  0  0  0  0  0  0  0  0  0
    2.9447    2.4306    0.4299 H   0  0  0  0  0  0  0  0  0  0  0  0
    3.4251    0.8815    1.1678 H   0  0  0  0  0  0  0  0  0  0  0  0
    5.5728   -1.4555   -2.9683 H   0  0  0  0  0  0  0  0  0  0  0  0
    6.3157   -3.2587   -4.5152 H   0  0  0  0  0  0  0  0  0  0  0  0
    6.8171   -6.6854   -5.6938 H   0  0  0  0  0  0  0  0  0  0  0  0
    7.5779   -5.1676   -5.1181 H   0  0  0  0  0  0  0  0  0  0  0  0
    5.9874   -5.1169   -5.9533 H   0  0  0  0  0  0  0  0  0  0  0  0
    5.0184   -7.1870   -2.5191 H   0  0  0  0  0  0  0  0  0  0  0  0
    3.7234   -8.1057   -0.9026 H   0  0  0  0  0  0  0  0  0  0  0  0
    3.0640   -6.5145   -0.5380 H   0  0  0  0  0  0  0  0  0  0  0  0
    2.9247   -7.3076    1.8434 H   0  0  0  0  0  0  0  0  0  0  0  0
    4.0961   -7.4602    4.0268 H   0  0  0  0  0  0  0  0  0  0  0  0
    6.6018   -7.3154    4.1173 H   0  0  0  0  0  0  0  0  0  0  0  0
    8.2911   -5.9013    0.4981 H   0  0  0  0  0  0  0  0  0  0  0  0
    6.6841   -6.8733   -0.1781 H   0  0  0  0  0  0  0  0  0  0  0  0
    4.0477   -4.4064   -0.2300 H   0  0  0  0  0  0  0  0  0  0  0  0
  1  2  1  0
  1 28  1  0
  1 29  1  0
  1 30  1  0
  2  3  1  0
  2 31  1  0
  2 32  1  0
  3  4  1  0
  6  3  1  6
  4  5  1  0
  4 33  1  0
  4 34  1  0
  5 35  1  0
  5 36  1  0
  5 37  1  0
  6  7  2  0
  6  8  2  0
  6  9  1  0
  9 10  2  0
  9 27  1  0
 10 11  1  0
 10 38  1  0
 11 12  2  0
 11 39  1  0
 12 13  1  0
 12 15  1  0
 13 14  1  0
 14 40  1  0
 14 41  1  0
 14 42  1  0
 15 16  1  0
 15 27  2  0
 16 17  1  0
 16 43  1  0
 17 18  1  0
 17 44  1  0
 17 45  1  0
 18 19  2  0
 18 26  1  0
 19 20  1  0
 19 46  1  0
 20 21  2  0
 20 47  1  0
 21 22  1  0
 21 48  1  0
 22 23  1  0
 22 26  2  0
 23 24  2  0
 23 25  1  0
 25 49  1  0
 26 50  1  0
 27 51  1  0
M  END

