
     RDKit          3D

 63 63  0  0  0  0  0  0  0  0999 V2000
    7.4179    1.3614    0.3804 C   0  0  0  0  0  0  0  0  0  0  0  0
    8.8283    1.1944    0.1506 O   0  0  0  0  0  0  0  0  0  0  0  0
    9.2726    1.6364   -1.0389 C   0  0  0  0  0  0  0  0  0  0  0  0
    8.5982    2.1681   -1.8802 O   0  0  0  0  0  0  0  0  0  0  0  0
   10.6354    1.3688   -1.1398 N   0  0  0  0  0  0  0  0  0  0  0  0
   11.6037    1.6532   -2.4940 S   0  0  1  0  0  0  0  0  0  0  0  0
   11.1336    2.8322   -3.1872 O   0  0  0  0  0  0  0  0  0  0  0  0
   12.9562    1.5218   -1.9899 O   0  0  0  0  0  0  0  0  0  0  0  0
   11.4084    0.3123   -3.3949 O   0  0  0  0  0  0  0  0  0  0  0  0
   10.4130    0.0025   -4.4217 C   0  0  2  0  0  0  0  0  0  0  0  0
   10.8895   -0.8720   -4.8939 H   0  0  0  0  0  0  0  0  0  0  0  0
   10.2147    1.0859   -5.4721 C   0  0  0  0  0  0  0  0  0  0  0  0
    9.1093   -0.4732   -3.7500 C   0  0  2  0  0  0  0  0  0  0  0  0
    8.5537    0.3853   -3.3479 H   0  0  0  0  0  0  0  0  0  0  0  0
    9.4313   -1.3849   -2.6777 N   0  0  0  0  0  0  0  0  0  0  0  0
    8.5432   -1.6820   -1.6925 C   0  0  0  0  0  0  0  0  0  0  0  0
    7.4107   -1.2181   -1.6453 O   0  0  0  0  0  0  0  0  0  0  0  0
    9.1605   -2.5694   -0.5939 C   0  0  1  0  0  0  0  0  0  0  0  0
    9.7586   -3.3593   -1.0750 H   0  0  0  0  0  0  0  0  0  0  0  0
   10.1156   -1.7269    0.1165 N   0  0  0  0  0  0  0  0  0  0  0  0
   11.4196   -1.6673   -0.2801 C   0  0  0  0  0  0  0  0  0  0  0  0
   11.9365   -2.4141   -1.0888 O   0  0  0  0  0  0  0  0  0  0  0  0
   12.0599   -0.6438    0.3316 O   0  0  0  0  0  0  0  0  0  0  0  0
   13.5249   -0.5933    0.1434 C   0  0  0  0  0  0  0  0  0  0  0  0
   14.1038    0.3519    1.1271 C   0  0  0  0  0  0  0  0  0  0  0  0
   14.3714   -0.0629    2.4736 C   0  0  0  0  0  0  0  0  0  0  0  0
   14.8995    0.8560    3.4314 C   0  0  0  0  0  0  0  0  0  0  0  0
   15.1681    2.2069    3.0654 C   0  0  0  0  0  0  0  0  0  0  0  0
   14.9046    2.6309    1.7315 C   0  0  0  0  0  0  0  0  0  0  0  0
   14.3756    1.7163    0.7710 C   0  0  0  0  0  0  0  0  0  0  0  0
    8.1197   -3.2340    0.3288 C   0  0  1  0  0  0  0  0  0  0  0  0
    7.2208   -4.1921   -0.4657 C   0  0  0  0  0  0  0  0  0  0  0  0
    8.7941   -3.9660    1.4958 C   0  0  0  0  0  0  0  0  0  0  0  0
    8.2012   -1.1488   -4.7915 C   0  0  0  0  0  0  0  0  0  0  0  0
    8.3104   -2.2966   -5.1409 O   0  0  0  0  0  0  0  0  0  0  0  0
    7.2933   -0.2927   -5.2748 O   0  0  0  0  0  0  0  0  0  0  0  0
    6.3887   -0.8088   -6.2548 C   0  0  0  0  0  0  0  0  0  0  0  0
    7.2532    1.0750    1.4263 H   0  0  0  0  0  0  0  0  0  0  0  0
    6.8528    0.7060   -0.2976 H   0  0  0  0  0  0  0  0  0  0  0  0
    7.1246    2.4079    0.2192 H   0  0  0  0  0  0  0  0  0  0  0  0
   11.0953    0.8266   -0.4054 H   0  0  0  0  0  0  0  0  0  0  0  0
    9.6617    0.6654   -6.3243 H   0  0  0  0  0  0  0  0  0  0  0  0
   11.1901    1.4376   -5.8360 H   0  0  0  0  0  0  0  0  0  0  0  0
    9.6557    1.9431   -5.0781 H   0  0  0  0  0  0  0  0  0  0  0  0
   10.3356   -1.8499   -2.6770 H   0  0  0  0  0  0  0  0  0  0  0  0
    9.7616   -0.9497    0.6666 H   0  0  0  0  0  0  0  0  0  0  0  0
   13.7157   -0.2824   -0.8940 H   0  0  0  0  0  0  0  0  0  0  0  0
   13.8983   -1.6196    0.2811 H   0  0  0  0  0  0  0  0  0  0  0  0
   14.1695   -1.0949    2.7684 H   0  0  0  0  0  0  0  0  0  0  0  0
   15.0965    0.5162    4.4500 H   0  0  0  0  0  0  0  0  0  0  0  0
   15.5697    2.9073    3.7989 H   0  0  0  0  0  0  0  0  0  0  0  0
   15.1043    3.6624    1.4352 H   0  0  0  0  0  0  0  0  0  0  0  0
   14.1682    2.0532   -0.2475 H   0  0  0  0  0  0  0  0  0  0  0  0
    7.4805   -2.4286    0.7323 H   0  0  0  0  0  0  0  0  0  0  0  0
    7.8149   -5.0077   -0.9130 H   0  0  0  0  0  0  0  0  0  0  0  0
    6.6804   -3.6732   -1.2688 H   0  0  0  0  0  0  0  0  0  0  0  0
    6.4734   -4.6547    0.1980 H   0  0  0  0  0  0  0  0  0  0  0  0
    9.4540   -4.7709    1.1295 H   0  0  0  0  0  0  0  0  0  0  0  0
    8.0359   -4.4280    2.1475 H   0  0  0  0  0  0  0  0  0  0  0  0
    9.4055   -3.2912    2.1124 H   0  0  0  0  0  0  0  0  0  0  0  0
    5.7336    0.0251   -6.5336 H   0  0  0  0  0  0  0  0  0  0  0  0
    5.7978   -1.6359   -5.8342 H   0  0  0  0  0  0  0  0  0  0  0  0
    6.9353   -1.1800   -7.1349 H   0  0  0  0  0  0  0  0  0  0  0  0
  1  2  1  0
  1 38  1  0
  1 39  1  0
  1 40  1  0
  2  3  1  0
  3  4  2  0
  3  5  1  0
  5  6  1  0
  5 41  1  0
  6  7  2  0
  6  8  2  0
  6  9  1  6
  9 10  1  0
 10 11  1  6
 10 12  1  0
 10 13  1  0
 12 42  1  0
 12 43  1  0
 12 44  1  0
 13 14  1  1
 13 15  1  0
 13 34  1  0
 15 16  1  0
 15 45  1  0
 16 17  2  0
 16 18  1  0
 18 19  1  6
 18 20  1  0
 18 31  1  0
 20 21  1  0
 20 46  1  0
 21 22  2  0
 21 23  1  0
 23 24  1  0
 24 25  1  0
 24 47  1  0
 24 48  1  0
 25 26  2  0
 25 30  1  0
 26 27  1  0
 26 49  1  0
 27 28  2  0
 27 50  1  0
 28 29  1  0
 28 51  1  0
 29 30  2  0
 29 52  1  0
 30 53  1  0
 31 32  1  0
 31 33  1  0
 31 54  1  1
 32 55  1  0
 32 56  1  0
 32 57  1  0
 33 58  1  0
 33 59  1  0
 33 60  1  0
 34 35  2  0
 34 36  1  0
 36 37  1  0
 37 61  1  0
 37 62  1  0
 37 63  1  0
M  END

