
     RDKit          3D

 41 41  0  0  0  0  0  0  0  0999 V2000
    3.7268   -0.8379   -0.6456 C   0  0  0  0  0  0  0  0  0  0  0  0
    2.5128   -0.1159   -0.0350 C   0  0  1  0  0  0  0  0  0  0  0  0
    1.6661   -1.0793    0.8152 C   0  0  0  0  0  0  0  0  0  0  0  0
    2.9149    1.1339    0.7396 C   0  0  0  0  0  0  0  0  0  0  0  0
    2.4919    2.4024    0.3293 C   0  0  0  0  0  0  0  0  0  0  0  0
    2.8367    3.5755    1.0131 C   0  0  0  0  0  0  0  0  0  0  0  0
    2.3950    4.9489    0.5103 C   0  0  1  0  0  0  0  0  0  0  0  0
    3.5588    5.6907   -0.1804 C   0  0  0  0  0  0  0  0  0  0  0  0
    1.1602    4.9250   -0.3998 C   0  0  0  0  0  0  0  0  0  0  0  0
    3.6431    3.4706    2.1763 C   0  0  0  0  0  0  0  0  0  0  0  0
    4.0464    4.6240    2.8594 N   0  0  0  0  0  0  0  0  0  0  0  0
    4.0959    2.1965    2.6120 C   0  0  0  0  0  0  0  0  0  0  0  0
    4.9593    2.0858    3.8679 C   0  0  1  0  0  0  0  0  0  0  0  0
    4.0960    2.1199    5.1474 C   0  0  0  0  0  0  0  0  0  0  0  0
    5.8889    0.8649    3.8883 C   0  0  0  0  0  0  0  0  0  0  0  0
    3.7206    1.0633    1.8838 C   0  0  0  0  0  0  0  0  0  0  0  0
    3.4088   -1.7029   -1.2515 H   0  0  0  0  0  0  0  0  0  0  0  0
    4.4058   -1.2141    0.1376 H   0  0  0  0  0  0  0  0  0  0  0  0
    4.3084   -0.1628   -1.2929 H   0  0  0  0  0  0  0  0  0  0  0  0
    1.8790    0.2228   -0.8737 H   0  0  0  0  0  0  0  0  0  0  0  0
    2.2416   -1.4694    1.6711 H   0  0  0  0  0  0  0  0  0  0  0  0
    1.3330   -1.9448    0.2183 H   0  0  0  0  0  0  0  0  0  0  0  0
    0.7721   -0.5770    1.2168 H   0  0  0  0  0  0  0  0  0  0  0  0
    1.8667    2.4742   -0.5633 H   0  0  0  0  0  0  0  0  0  0  0  0
    2.1019    5.5454    1.3973 H   0  0  0  0  0  0  0  0  0  0  0  0
    3.8606    5.1556   -1.0955 H   0  0  0  0  0  0  0  0  0  0  0  0
    4.4415    5.7577    0.4729 H   0  0  0  0  0  0  0  0  0  0  0  0
    3.2630    6.7138   -0.4669 H   0  0  0  0  0  0  0  0  0  0  0  0
    1.3756    4.4453   -1.3680 H   0  0  0  0  0  0  0  0  0  0  0  0
    0.8294    5.9533   -0.6163 H   0  0  0  0  0  0  0  0  0  0  0  0
    0.3191    4.3872    0.0647 H   0  0  0  0  0  0  0  0  0  0  0  0
    3.4810    5.4494    2.7016 H   0  0  0  0  0  0  0  0  0  0  0  0
    4.2665    4.5067    3.8401 H   0  0  0  0  0  0  0  0  0  0  0  0
    5.6182    2.9731    3.8827 H   0  0  0  0  0  0  0  0  0  0  0  0
    3.4453    1.2316    5.1943 H   0  0  0  0  0  0  0  0  0  0  0  0
    3.4369    3.0025    5.1828 H   0  0  0  0  0  0  0  0  0  0  0  0
    4.7243    2.1299    6.0537 H   0  0  0  0  0  0  0  0  0  0  0  0
    5.3289   -0.0788    3.9887 H   0  0  0  0  0  0  0  0  0  0  0  0
    6.5759    0.9241    4.7478 H   0  0  0  0  0  0  0  0  0  0  0  0
    6.4953    0.8025    2.9716 H   0  0  0  0  0  0  0  0  0  0  0  0
    4.0720    0.0863    2.2216 H   0  0  0  0  0  0  0  0  0  0  0  0
  1  2  1  0
  1 17  1  0
  1 18  1  0
  1 19  1  0
  2  3  1  0
  2  4  1  0
  2 20  1  6
  3 21  1  0
  3 22  1  0
  3 23  1  0
  4  5  2  0
  4 16  1  0
  5  6  1  0
  5 24  1  0
  6  7  1  0
  6 10  2  0
  7  8  1  0
  7  9  1  0
  7 25  1  1
  8 26  1  0
  8 27  1  0
  8 28  1  0
  9 29  1  0
  9 30  1  0
  9 31  1  0
 10 11  1  0
 10 12  1  0
 11 32  1  0
 11 33  1  0
 12 13  1  0
 12 16  2  0
 13 14  1  0
 13 15  1  0
 13 34  1  1
 14 35  1  0
 14 36  1  0
 14 37  1  0
 15 38  1  0
 15 39  1  0
 15 40  1  0
 16 41  1  0
M  END

