
     RDKit          3D

 46 48  0  0  0  0  0  0  0  0999 V2000
    2.7283    2.6755    0.6650 C   0  0  0  0  0  0  0  0  0  0  0  0
    3.9155    1.8481    0.6365 N   0  0  0  0  0  0  0  0  0  0  0  0
    5.1304    2.4066    0.8114 N   0  0  0  0  0  0  0  0  0  0  0  0
    5.9972    1.4039    0.7221 C   0  0  0  0  0  0  0  0  0  0  0  0
    5.3390    0.1694    0.4838 C   0  0  0  0  0  0  0  0  0  0  0  0
    3.9922    0.5038    0.4280 C   0  0  0  0  0  0  0  0  0  0  0  0
    2.8570   -0.4490    0.2234 C   0  0  0  0  0  0  0  0  0  0  0  0
    3.4161   -1.7900   -0.2886 C   0  0  0  0  0  0  0  0  0  0  0  0
    4.6718   -2.2262    0.4792 C   0  0  0  0  0  0  0  0  0  0  0  0
    5.8529   -1.2344    0.3028 C   0  0  1  0  0  0  0  0  0  0  0  0
    6.5052   -1.3581   -1.0005 N   0  0  0  0  0  0  0  0  0  0  0  0
    7.5283   -2.2476   -1.3035 C   0  0  0  0  0  0  0  0  0  0  0  0
    7.8492   -3.2692   -0.3797 C   0  0  0  0  0  0  0  0  0  0  0  0
    8.8600   -4.1960   -0.6259 C   0  0  0  0  0  0  0  0  0  0  0  0
    9.5824   -4.1318   -1.8131 C   0  0  0  0  0  0  0  0  0  0  0  0
    9.2697   -3.1294   -2.7365 C   0  0  0  0  0  0  0  0  0  0  0  0
    8.2630   -2.1729   -2.5359 C   0  0  0  0  0  0  0  0  0  0  0  0
    7.9891   -1.0980   -3.6221 C   0  0  1  0  0  0  0  0  0  0  0  0
    8.8997   -1.2773   -4.8563 C   0  0  0  0  0  0  0  0  0  0  0  0
    6.5335   -1.2016   -4.1453 C   0  0  0  0  0  0  0  0  0  0  0  0
    8.2880    0.3248   -3.0812 C   0  0  0  0  0  0  0  0  0  0  0  0
    3.0443    3.6891    0.9385 H   0  0  0  0  0  0  0  0  0  0  0  0
    2.0063    2.3068    1.4107 H   0  0  0  0  0  0  0  0  0  0  0  0
    2.2348    2.7057   -0.3205 H   0  0  0  0  0  0  0  0  0  0  0  0
    7.0643    1.5966    0.8389 H   0  0  0  0  0  0  0  0  0  0  0  0
    2.1122   -0.0436   -0.4833 H   0  0  0  0  0  0  0  0  0  0  0  0
    2.3191   -0.6039    1.1785 H   0  0  0  0  0  0  0  0  0  0  0  0
    3.6723   -1.6939   -1.3576 H   0  0  0  0  0  0  0  0  0  0  0  0
    2.6390   -2.5674   -0.2208 H   0  0  0  0  0  0  0  0  0  0  0  0
    4.9852   -3.2263    0.1444 H   0  0  0  0  0  0  0  0  0  0  0  0
    4.4390   -2.3061    1.5565 H   0  0  0  0  0  0  0  0  0  0  0  0
    6.5997   -1.4428    1.0904 H   0  0  0  0  0  0  0  0  0  0  0  0
    6.4182   -0.5420   -1.5834 H   0  0  0  0  0  0  0  0  0  0  0  0
    7.2902   -3.3448    0.5522 H   0  0  0  0  0  0  0  0  0  0  0  0
    9.0737   -4.9682    0.1182 H   0  0  0  0  0  0  0  0  0  0  0  0
   10.3780   -4.8482   -2.0299 H   0  0  0  0  0  0  0  0  0  0  0  0
    9.8484   -3.1007   -3.6583 H   0  0  0  0  0  0  0  0  0  0  0  0
    8.7524   -2.2537   -5.3426 H   0  0  0  0  0  0  0  0  0  0  0  0
    9.9663   -1.1751   -4.6047 H   0  0  0  0  0  0  0  0  0  0  0  0
    8.6613   -0.4997   -5.5990 H   0  0  0  0  0  0  0  0  0  0  0  0
    6.3711   -2.1810   -4.6225 H   0  0  0  0  0  0  0  0  0  0  0  0
    6.3422   -0.4217   -4.9008 H   0  0  0  0  0  0  0  0  0  0  0  0
    5.7749   -1.0995   -3.3582 H   0  0  0  0  0  0  0  0  0  0  0  0
    9.3444    0.4023   -2.7799 H   0  0  0  0  0  0  0  0  0  0  0  0
    7.6869    0.6164   -2.2079 H   0  0  0  0  0  0  0  0  0  0  0  0
    8.1036    1.0777   -3.8652 H   0  0  0  0  0  0  0  0  0  0  0  0
  1  2  1  0
  1 22  1  0
  1 23  1  0
  1 24  1  0
  2  3  1  0
  2  6  1  0
  3  4  2  0
  4  5  1  0
  4 25  1  0
  5  6  2  0
  5 10  1  0
  6  7  1  0
  7  8  1  0
  7 26  1  0
  7 27  1  0
  8  9  1  0
  8 28  1  0
  8 29  1  0
  9 10  1  0
  9 30  1  0
  9 31  1  0
 10 11  1  0
 10 32  1  1
 11 12  1  0
 11 33  1  0
 12 13  2  0
 12 17  1  0
 13 14  1  0
 13 34  1  0
 14 15  2  0
 14 35  1  0
 15 16  1  0
 15 36  1  0
 16 17  2  0
 16 37  1  0
 17 18  1  0
 18 19  1  6
 18 20  1  0
 18 21  1  0
 19 38  1  0
 19 39  1  0
 19 40  1  0
 20 41  1  0
 20 42  1  0
 20 43  1  0
 21 44  1  0
 21 45  1  0
 21 46  1  0
M  END

