
     RDKit          3D

 34 36  0  0  0  0  0  0  0  0999 V2000
    6.7229   -0.4760    3.1539 N   0  0  0  0  0  0  0  0  0  0  0  0
    7.1788   -1.8086    3.5443 C   0  0  0  0  0  0  0  0  0  0  0  0
    6.3930   -2.8691    2.8457 C   0  0  0  0  0  0  0  0  0  0  0  0
    6.7246   -3.8855    1.9809 C   0  0  0  0  0  0  0  0  0  0  0  0
    5.5078   -4.5566    1.6689 C   0  0  0  0  0  0  0  0  0  0  0  0
    4.5124   -3.9026    2.3643 C   0  0  0  0  0  0  0  0  0  0  0  0
    3.0613   -4.0960    2.4710 C   0  0  0  0  0  0  0  0  0  0  0  0
    2.3646   -3.3924    3.1778 O   0  0  0  0  0  0  0  0  0  0  0  0
    2.4585   -5.2597    1.6730 C   0  0  0  0  0  0  0  0  0  0  0  0
    2.4838   -6.5543    2.4582 C   0  0  0  0  0  0  0  0  0  0  0  0
    1.7096   -6.7219    3.6214 C   0  0  0  0  0  0  0  0  0  0  0  0
    1.7392   -7.9191    4.3398 C   0  0  0  0  0  0  0  0  0  0  0  0
    0.6694   -8.0923    5.9134 Br  0  0  0  0  0  0  0  0  0  0  0  0
    2.5337   -9.0014    3.9321 C   0  0  0  0  0  0  0  0  0  0  0  0
    3.3109   -8.8408    2.7906 C   0  0  0  0  0  0  0  0  0  0  0  0
    3.2853   -7.6348    2.0805 C   0  0  0  0  0  0  0  0  0  0  0  0
    4.1041   -7.6423    0.9885 O   0  0  0  0  0  0  0  0  0  0  0  0
    4.9088   -8.8410    1.0456 C   0  0  0  0  0  0  0  0  0  0  0  0
    4.2173   -9.7952    2.0457 C   0  0  0  0  0  0  0  0  0  0  0  0
    5.0639   -2.8789    3.0812 O   0  0  0  0  0  0  0  0  0  0  0  0
    7.2214    0.2318    3.6934 H   0  0  0  0  0  0  0  0  0  0  0  0
    5.7354   -0.3728    3.3924 H   0  0  0  0  0  0  0  0  0  0  0  0
    7.1234   -2.0102    4.6378 H   0  0  0  0  0  0  0  0  0  0  0  0
    8.2351   -1.9323    3.2571 H   0  0  0  0  0  0  0  0  0  0  0  0
    7.7221   -4.1134    1.6115 H   0  0  0  0  0  0  0  0  0  0  0  0
    5.3714   -5.4245    1.0272 H   0  0  0  0  0  0  0  0  0  0  0  0
    2.9778   -5.3975    0.7154 H   0  0  0  0  0  0  0  0  0  0  0  0
    1.4178   -4.9705    1.4653 H   0  0  0  0  0  0  0  0  0  0  0  0
    1.0875   -5.8930    3.9642 H   0  0  0  0  0  0  0  0  0  0  0  0
    2.5340   -9.9347    4.4978 H   0  0  0  0  0  0  0  0  0  0  0  0
    5.9182   -8.5585    1.3923 H   0  0  0  0  0  0  0  0  0  0  0  0
    4.9885   -9.2438    0.0262 H   0  0  0  0  0  0  0  0  0  0  0  0
    4.9429  -10.3096    2.6941 H   0  0  0  0  0  0  0  0  0  0  0  0
    3.6278  -10.5732    1.5297 H   0  0  0  0  0  0  0  0  0  0  0  0
  1  2  1  0
  1 21  1  0
  1 22  1  0
  2  3  1  0
  2 23  1  0
  2 24  1  0
  3  4  2  0
  3 20  1  0
  4  5  1  0
  4 25  1  0
  5  6  2  0
  5 26  1  0
  6  7  1  0
  6 20  1  0
  7  8  2  0
  7  9  1  0
  9 10  1  0
  9 27  1  0
  9 28  1  0
 10 11  2  0
 10 16  1  0
 11 12  1  0
 11 29  1  0
 12 13  1  0
 12 14  2  0
 14 15  1  0
 14 30  1  0
 15 16  2  0
 15 19  1  0
 16 17  1  0
 17 18  1  0
 18 19  1  0
 18 31  1  0
 18 32  1  0
 19 33  1  0
 19 34  1  0
M  END

