
     RDKit          3D

 60 64  0  0  0  0  0  0  0  0999 V2000
    4.7565   -1.0938   -0.0220 C   0  0  0  0  0  0  0  0  0  0  0  0
    4.2954   -1.9726    1.1111 C   0  0  0  0  0  0  0  0  0  0  0  0
    5.1748   -2.4852    2.0747 C   0  0  0  0  0  0  0  0  0  0  0  0
    4.7342   -3.2711    3.1435 C   0  0  0  0  0  0  0  0  0  0  0  0
    3.3741   -3.5418    3.2568 C   0  0  0  0  0  0  0  0  0  0  0  0
    2.9295   -4.2740    4.2840 F   0  0  0  0  0  0  0  0  0  0  0  0
    2.4511   -3.0583    2.3316 C   0  0  0  0  0  0  0  0  0  0  0  0
    2.9367   -2.3001    1.2659 C   0  0  0  0  0  0  0  0  0  0  0  0
    2.0870   -1.7247    0.3287 O   0  0  0  0  0  0  0  0  0  0  0  0
    0.9059   -2.1608   -0.0373 C   0  0  0  0  0  0  0  0  0  0  0  0
    0.3835   -3.5102   -0.1257 C   0  0  0  0  0  0  0  0  0  0  0  0
    0.9812   -4.8481    0.1861 C   0  0  0  0  0  0  0  0  0  0  0  0
    0.3498   -5.6094    0.9135 O   0  0  0  0  0  0  0  0  0  0  0  0
    2.1836   -5.1811   -0.3726 N   0  0  0  0  0  0  0  0  0  0  0  0
    2.8326   -6.4336    0.0197 C   0  0  0  0  0  0  0  0  0  0  0  0
    3.0646   -7.3208   -1.2015 C   0  0  0  0  0  0  0  0  0  0  0  0
    3.7905   -6.5648   -2.2150 N   0  0  0  0  0  0  0  0  0  0  0  0
    3.1142   -5.3454   -2.6618 C   0  0  1  0  0  0  0  0  0  0  0  0
    3.8274   -4.8008   -3.3048 H   0  0  0  0  0  0  0  0  0  0  0  0
    1.8248   -5.5681   -3.4711 C   0  0  0  0  0  0  0  0  0  0  0  0
    2.8853   -4.4529   -1.4255 C   0  0  0  0  0  0  0  0  0  0  0  0
   -0.9463   -3.3478   -0.5345 C   0  0  0  0  0  0  0  0  0  0  0  0
   -2.0058   -4.2677   -0.7556 C   0  0  0  0  0  0  0  0  0  0  0  0
   -3.2220   -3.7925   -1.2020 C   0  0  0  0  0  0  0  0  0  0  0  0
   -4.2983   -4.5703   -1.4282 O   0  0  0  0  0  0  0  0  0  0  0  0
   -3.3917   -2.3760   -1.4423 C   0  0  0  0  0  0  0  0  0  0  0  0
   -4.9166   -1.8268   -2.0062 Cl  0  0  0  0  0  0  0  0  0  0  0  0
   -2.3628   -1.4479   -1.2220 C   0  0  0  0  0  0  0  0  0  0  0  0
   -1.1562   -1.9392   -0.7637 C   0  0  0  0  0  0  0  0  0  0  0  0
    0.0032   -1.2438   -0.4470 N   0  0  0  0  0  0  0  0  0  0  0  0
    0.1824    0.2080   -0.5353 C   0  0  0  0  0  0  0  0  0  0  0  0
    0.0949    0.9702    0.6946 C   0  0  0  0  0  0  0  0  0  0  0  0
    0.6936    2.2069    0.7855 C   0  0  0  0  0  0  0  0  0  0  0  0
    1.4659    2.7474   -0.2869 C   0  0  0  0  0  0  0  0  0  0  0  0
    1.6386    1.9491   -1.4579 C   0  0  0  0  0  0  0  0  0  0  0  0
    1.0526    0.7085   -1.5808 C   0  0  0  0  0  0  0  0  0  0  0  0
    5.8271   -0.8662    0.0747 H   0  0  0  0  0  0  0  0  0  0  0  0
    4.1931   -0.1483   -0.0478 H   0  0  0  0  0  0  0  0  0  0  0  0
    4.5981   -1.5765   -1.0007 H   0  0  0  0  0  0  0  0  0  0  0  0
    6.2388   -2.2516    1.9893 H   0  0  0  0  0  0  0  0  0  0  0  0
    5.4249   -3.6600    3.8934 H   0  0  0  0  0  0  0  0  0  0  0  0
    1.3915   -3.2740    2.4677 H   0  0  0  0  0  0  0  0  0  0  0  0
    2.1939   -6.9277    0.7610 H   0  0  0  0  0  0  0  0  0  0  0  0
    3.8053   -6.1892    0.4827 H   0  0  0  0  0  0  0  0  0  0  0  0
    2.0850   -7.7166   -1.5464 H   0  0  0  0  0  0  0  0  0  0  0  0
    3.6738   -8.1888   -0.9019 H   0  0  0  0  0  0  0  0  0  0  0  0
    4.0366   -7.1530   -3.0082 H   0  0  0  0  0  0  0  0  0  0  0  0
    1.0276   -6.0286   -2.8672 H   0  0  0  0  0  0  0  0  0  0  0  0
    2.0199   -6.2292   -4.3312 H   0  0  0  0  0  0  0  0  0  0  0  0
    1.4370   -4.6151   -3.8659 H   0  0  0  0  0  0  0  0  0  0  0  0
    2.3134   -3.5630   -1.7143 H   0  0  0  0  0  0  0  0  0  0  0  0
    3.8667   -4.1266   -1.0418 H   0  0  0  0  0  0  0  0  0  0  0  0
   -1.8565   -5.3263   -0.5336 H   0  0  0  0  0  0  0  0  0  0  0  0
   -4.0867   -5.4899   -1.2151 H   0  0  0  0  0  0  0  0  0  0  0  0
   -2.5024   -0.3828   -1.3988 H   0  0  0  0  0  0  0  0  0  0  0  0
   -0.4923    0.5818    1.5323 H   0  0  0  0  0  0  0  0  0  0  0  0
    0.5616    2.7928    1.7008 H   0  0  0  0  0  0  0  0  0  0  0  0
    1.9403    3.7248   -0.1994 H   0  0  0  0  0  0  0  0  0  0  0  0
    2.2357    2.3376   -2.2896 H   0  0  0  0  0  0  0  0  0  0  0  0
    1.1934    0.1229   -2.4947 H   0  0  0  0  0  0  0  0  0  0  0  0
  1  2  1  0
  1 37  1  0
  1 38  1  0
  1 39  1  0
  2  3  2  0
  2  8  1  0
  3  4  1  0
  3 40  1  0
  4  5  2  0
  4 41  1  0
  5  6  1  0
  5  7  1  0
  7  8  2  0
  7 42  1  0
  8  9  1  0
  9 10  1  0
 10 11  2  0
 10 30  1  0
 11 12  1  0
 11 22  1  0
 12 13  2  0
 12 14  1  0
 14 15  1  0
 14 21  1  0
 15 16  1  0
 15 43  1  0
 15 44  1  0
 16 17  1  0
 16 45  1  0
 16 46  1  0
 17 18  1  0
 17 47  1  0
 18 19  1  6
 18 20  1  0
 18 21  1  0
 20 48  1  0
 20 49  1  0
 20 50  1  0
 21 51  1  0
 21 52  1  0
 22 23  2  0
 22 29  1  0
 23 24  1  0
 23 53  1  0
 24 25  1  0
 24 26  2  0
 25 54  1  0
 26 27  1  0
 26 28  1  0
 28 29  2  0
 28 55  1  0
 29 30  1  0
 30 31  1  0
 31 32  2  0
 31 36  1  0
 32 33  1  0
 32 56  1  0
 33 34  2  0
 33 57  1  0
 34 35  1  0
 34 58  1  0
 35 36  2  0
 35 59  1  0
 36 60  1  0
M  END

