
     RDKit          3D

 80 84  0  0  0  0  0  0  0  0999 V2000
    0.9476    0.4731    0.5643 C   0  0  0  0  0  0  0  0  0  0  0  0
    2.4198    0.3153    0.0539 C   0  0  1  0  0  0  0  0  0  0  0  0
    2.4623   -0.8545   -0.9507 C   0  0  0  0  0  0  0  0  0  0  0  0
    3.0569   -0.7289   -2.2132 C   0  0  0  0  0  0  0  0  0  0  0  0
    3.0928   -1.8102   -3.1092 C   0  0  0  0  0  0  0  0  0  0  0  0
    2.5306   -3.0447   -2.7437 C   0  0  0  0  0  0  0  0  0  0  0  0
    1.9311   -3.1851   -1.4952 C   0  0  0  0  0  0  0  0  0  0  0  0
    1.8879   -2.0980   -0.6008 C   0  0  0  0  0  0  0  0  0  0  0  0
    2.9082    1.6296   -0.5774 C   0  0  0  0  0  0  0  0  0  0  0  0
    2.0288    2.5131   -1.2180 C   0  0  0  0  0  0  0  0  0  0  0  0
    2.5164    3.6626   -1.8794 C   0  0  0  0  0  0  0  0  0  0  0  0
    3.8913    3.9441   -1.8601 C   0  0  0  0  0  0  0  0  0  0  0  0
    4.4361    5.0337   -2.4613 O   0  0  0  0  0  0  0  0  0  0  0  0
    3.6288    5.9839   -3.1419 C   0  0  0  0  0  0  0  0  0  0  0  0
    4.5676    7.0957   -3.5798 C   0  0  0  0  0  0  0  0  0  0  0  0
    5.6033    6.6167   -4.4034 O   0  0  0  0  0  0  0  0  0  0  0  0
    4.8079    3.0857   -1.2054 C   0  0  0  0  0  0  0  0  0  0  0  0
    6.2838    3.4139   -1.1637 C   0  0  0  0  0  0  0  0  0  0  0  0
    6.6450    4.5152   -0.1772 C   0  0  0  0  0  0  0  0  0  0  0  0
    7.1125    5.7647   -0.6169 C   0  0  0  0  0  0  0  0  0  0  0  0
    7.4343    6.7761    0.2934 C   0  0  0  0  0  0  0  0  0  0  0  0
    7.2934    6.5584    1.6670 C   0  0  0  0  0  0  0  0  0  0  0  0
    6.8293    5.3169    2.1194 C   0  0  0  0  0  0  0  0  0  0  0  0
    6.5093    4.3099    1.2073 C   0  0  0  0  0  0  0  0  0  0  0  0
    4.2896    1.9346   -0.5717 C   0  0  0  0  0  0  0  0  0  0  0  0
    3.3051    0.0714    1.2735 C   0  0  0  0  0  0  0  0  0  0  0  0
    3.3681    1.0815    2.2856 C   0  0  0  0  0  0  0  0  0  0  0  0
    4.1875    0.9361    3.4026 C   0  0  0  0  0  0  0  0  0  0  0  0
    4.9790   -0.2283    3.5268 C   0  0  0  0  0  0  0  0  0  0  0  0
    5.7928   -0.4650    4.5530 O   0  0  0  0  0  0  0  0  0  0  0  0
    6.0361    0.4997    5.5870 C   0  0  0  0  0  0  0  0  0  0  0  0
    7.2491    0.0215    6.3669 C   0  0  0  0  0  0  0  0  0  0  0  0
    8.4297    0.0787    5.6175 O   0  0  0  0  0  0  0  0  0  0  0  0
    4.9501   -1.2615    2.5228 C   0  0  0  0  0  0  0  0  0  0  0  0
    5.8404   -2.4711    2.6520 C   0  0  0  0  0  0  0  0  0  0  0  0
    7.3167   -2.1609    2.4386 C   0  0  0  0  0  0  0  0  0  0  0  0
    8.2724   -2.4961    3.4156 C   0  0  0  0  0  0  0  0  0  0  0  0
    9.6293   -2.2127    3.2190 C   0  0  0  0  0  0  0  0  0  0  0  0
   10.0536   -1.5850    2.0441 C   0  0  0  0  0  0  0  0  0  0  0  0
    9.1105   -1.2504    1.0634 C   0  0  0  0  0  0  0  0  0  0  0  0
    7.7573   -1.5345    1.2607 C   0  0  0  0  0  0  0  0  0  0  0  0
    4.1188   -1.0736    1.4142 C   0  0  0  0  0  0  0  0  0  0  0  0
    0.2649    0.5312   -0.2937 H   0  0  0  0  0  0  0  0  0  0  0  0
    0.8172    1.3784    1.1730 H   0  0  0  0  0  0  0  0  0  0  0  0
    0.6484   -0.3939    1.1673 H   0  0  0  0  0  0  0  0  0  0  0  0
    3.4987    0.2231   -2.5086 H   0  0  0  0  0  0  0  0  0  0  0  0
    3.5601   -1.6852   -4.0889 H   0  0  0  0  0  0  0  0  0  0  0  0
    2.5590   -3.8891   -3.4380 H   0  0  0  0  0  0  0  0  0  0  0  0
    1.4852   -4.1403   -1.2045 H   0  0  0  0  0  0  0  0  0  0  0  0
    1.4065   -2.2322    0.3697 H   0  0  0  0  0  0  0  0  0  0  0  0
    0.9565    2.3217   -1.2349 H   0  0  0  0  0  0  0  0  0  0  0  0
    1.8190    4.3127   -2.4061 H   0  0  0  0  0  0  0  0  0  0  0  0
    2.8408    6.3772   -2.4744 H   0  0  0  0  0  0  0  0  0  0  0  0
    3.1479    5.5107   -4.0175 H   0  0  0  0  0  0  0  0  0  0  0  0
    4.9619    7.6016   -2.6751 H   0  0  0  0  0  0  0  0  0  0  0  0
    3.9984    7.8428   -4.1569 H   0  0  0  0  0  0  0  0  0  0  0  0
    5.9737    5.8416   -3.9575 H   0  0  0  0  0  0  0  0  0  0  0  0
    6.6353    3.7108   -2.1654 H   0  0  0  0  0  0  0  0  0  0  0  0
    6.8352    2.4956   -0.8965 H   0  0  0  0  0  0  0  0  0  0  0  0
    7.2237    5.9494   -1.6890 H   0  0  0  0  0  0  0  0  0  0  0  0
    7.7993    7.7393   -0.0741 H   0  0  0  0  0  0  0  0  0  0  0  0
    7.5450    7.3475    2.3803 H   0  0  0  0  0  0  0  0  0  0  0  0
    6.7215    5.1329    3.1922 H   0  0  0  0  0  0  0  0  0  0  0  0
    6.1437    3.3451    1.5709 H   0  0  0  0  0  0  0  0  0  0  0  0
    4.9961    1.2269   -0.1329 H   0  0  0  0  0  0  0  0  0  0  0  0
    2.7508    1.9739    2.1858 H   0  0  0  0  0  0  0  0  0  0  0  0
    4.2121    1.7109    4.1672 H   0  0  0  0  0  0  0  0  0  0  0  0
    5.1411    0.5761    6.2292 H   0  0  0  0  0  0  0  0  0  0  0  0
    6.2451    1.4801    5.1304 H   0  0  0  0  0  0  0  0  0  0  0  0
    7.0396   -0.9934    6.7631 H   0  0  0  0  0  0  0  0  0  0  0  0
    7.3753    0.6880    7.2362 H   0  0  0  0  0  0  0  0  0  0  0  0
    8.3630   -0.5386    4.8716 H   0  0  0  0  0  0  0  0  0  0  0  0
    5.5085   -3.2229    1.9173 H   0  0  0  0  0  0  0  0  0  0  0  0
    5.7166   -2.9228    3.6493 H   0  0  0  0  0  0  0  0  0  0  0  0
    7.9508   -3.0037    4.3302 H   0  0  0  0  0  0  0  0  0  0  0  0
   10.3567   -2.4842    3.9887 H   0  0  0  0  0  0  0  0  0  0  0  0
   11.1117   -1.3597    1.8914 H   0  0  0  0  0  0  0  0  0  0  0  0
    9.4318   -0.7637    0.1391 H   0  0  0  0  0  0  0  0  0  0  0  0
    7.0323   -1.2648    0.4875 H   0  0  0  0  0  0  0  0  0  0  0  0
    4.0993   -1.8319    0.6333 H   0  0  0  0  0  0  0  0  0  0  0  0
  2  1  1  1
  1 43  1  0
  1 44  1  0
  1 45  1  0
  2  3  1  0
  2  9  1  0
  2 26  1  0
  3  4  2  0
  3  8  1  0
  4  5  1  0
  4 46  1  0
  5  6  2  0
  5 47  1  0
  6  7  1  0
  6 48  1  0
  7  8  2  0
  7 49  1  0
  8 50  1  0
  9 10  2  0
  9 25  1  0
 10 11  1  0
 10 51  1  0
 11 12  2  0
 11 52  1  0
 12 13  1  0
 12 17  1  0
 13 14  1  0
 14 15  1  0
 14 53  1  0
 14 54  1  0
 15 16  1  0
 15 55  1  0
 15 56  1  0
 16 57  1  0
 17 18  1  0
 17 25  2  0
 18 19  1  0
 18 58  1  0
 18 59  1  0
 19 20  2  0
 19 24  1  0
 20 21  1  0
 20 60  1  0
 21 22  2  0
 21 61  1  0
 22 23  1  0
 22 62  1  0
 23 24  2  0
 23 63  1  0
 24 64  1  0
 25 65  1  0
 26 27  2  0
 26 42  1  0
 27 28  1  0
 27 66  1  0
 28 29  2  0
 28 67  1  0
 29 30  1  0
 29 34  1  0
 30 31  1  0
 31 32  1  0
 31 68  1  0
 31 69  1  0
 32 33  1  0
 32 70  1  0
 32 71  1  0
 33 72  1  0
 34 35  1  0
 34 42  2  0
 35 36  1  0
 35 73  1  0
 35 74  1  0
 36 37  2  0
 36 41  1  0
 37 38  1  0
 37 75  1  0
 38 39  2  0
 38 76  1  0
 39 40  1  0
 39 77  1  0
 40 41  2  0
 40 78  1  0
 41 79  1  0
 42 80  1  0
M  END

