
     RDKit          3D

 71 75  0  0  0  0  0  0  0  0999 V2000
    9.1390    4.1047    0.7264 C   0  0  0  0  0  0  0  0  0  0  0  0
    7.7688    3.7051    0.8231 O   0  0  0  0  0  0  0  0  0  0  0  0
    6.9880    3.6943   -0.2520 C   0  0  0  0  0  0  0  0  0  0  0  0
    7.3969    4.0705   -1.5417 C   0  0  0  0  0  0  0  0  0  0  0  0
    6.5070    4.0255   -2.5984 C   0  0  0  0  0  0  0  0  0  0  0  0
    5.1393    3.5980   -2.4375 C   0  0  0  0  0  0  0  0  0  0  0  0
    4.2011    3.6058   -3.6593 C   0  0  1  0  0  0  0  0  0  0  0  0
    2.7994    3.0832   -3.3090 C   0  0  0  0  0  0  0  0  0  0  0  0
    4.0612    5.0857   -4.1167 C   0  0  0  0  0  0  0  0  0  0  0  0
    4.8891    2.8297   -4.7884 C   0  0  0  0  0  0  0  0  0  0  0  0
    5.9372    3.3376   -5.4099 N   0  0  0  0  0  0  0  0  0  0  0  0
    6.3446    2.4584   -6.3667 N   0  0  0  0  0  0  0  0  0  0  0  0
    5.5228    1.4299   -6.3052 C   0  0  0  0  0  0  0  0  0  0  0  0
    5.5466    0.0123   -7.3501 S   0  0  0  0  0  0  0  0  0  0  0  0
    7.0926    0.3731   -8.2621 C   0  0  0  0  0  0  0  0  0  0  0  0
    8.3378    0.0330   -7.4579 C   0  0  0  0  0  0  0  0  0  0  0  0
    9.4651    0.2866   -8.2888 O   0  0  0  0  0  0  0  0  0  0  0  0
   10.7127    0.0983   -7.8059 C   0  0  0  0  0  0  0  0  0  0  0  0
   11.7733    0.4169   -8.6763 C   0  0  0  0  0  0  0  0  0  0  0  0
   13.0904    0.2528   -8.2712 C   0  0  0  0  0  0  0  0  0  0  0  0
   13.3909   -0.2350   -6.9840 C   0  0  0  0  0  0  0  0  0  0  0  0
   14.7843   -0.4097   -6.5670 C   0  0  0  0  0  0  0  0  0  0  0  0
   15.8586   -0.1183   -7.3539 N   0  0  0  0  0  0  0  0  0  0  0  0
   16.9214   -0.4014   -6.6605 N   0  0  0  0  0  0  0  0  0  0  0  0
   16.4936   -0.8494   -5.4887 N   0  0  0  0  0  0  0  0  0  0  0  0
   17.3931   -1.2769   -4.4387 C   0  0  0  0  0  0  0  0  0  0  0  0
   15.1748   -0.8748   -5.3768 N   0  0  0  0  0  0  0  0  0  0  0  0
   12.3312   -0.5509   -6.1218 C   0  0  0  0  0  0  0  0  0  0  0  0
   11.0028   -0.3881   -6.5189 C   0  0  0  0  0  0  0  0  0  0  0  0
    4.5879    1.5955   -5.3187 N   0  0  0  0  0  0  0  0  0  0  0  0
    3.5781    0.6031   -4.9625 C   0  0  0  0  0  0  0  0  0  0  0  0
    2.4330    0.5295   -5.7378 C   0  0  0  0  0  0  0  0  0  0  0  0
    1.4294   -0.4649   -5.4145 C   0  0  0  0  0  0  0  0  0  0  0  0
    1.6960   -1.3014   -4.3207 C   0  0  0  0  0  0  0  0  0  0  0  0
    0.7629   -2.2392   -4.0137 F   0  0  0  0  0  0  0  0  0  0  0  0
    2.8315   -1.2378   -3.5368 C   0  0  0  0  0  0  0  0  0  0  0  0
    3.8375   -0.2300   -3.8554 C   0  0  0  0  0  0  0  0  0  0  0  0
    4.7324    3.2268   -1.1761 C   0  0  0  0  0  0  0  0  0  0  0  0
    5.6138    3.2582   -0.0649 C   0  0  0  0  0  0  0  0  0  0  0  0
    5.0807    2.8758    1.0771 O   0  0  0  0  0  0  0  0  0  0  0  0
    5.7285    2.7763    2.3521 C   0  0  0  0  0  0  0  0  0  0  0  0
    9.5493    4.0149    1.7383 H   0  0  0  0  0  0  0  0  0  0  0  0
    9.2139    5.1478    0.3841 H   0  0  0  0  0  0  0  0  0  0  0  0
    9.6869    3.4418    0.0405 H   0  0  0  0  0  0  0  0  0  0  0  0
    8.4214    4.3934   -1.7192 H   0  0  0  0  0  0  0  0  0  0  0  0
    6.8396    4.2778   -3.6075 H   0  0  0  0  0  0  0  0  0  0  0  0
    2.3202    3.7553   -2.5798 H   0  0  0  0  0  0  0  0  0  0  0  0
    2.8160    2.0595   -2.9162 H   0  0  0  0  0  0  0  0  0  0  0  0
    2.1740    3.0662   -4.2087 H   0  0  0  0  0  0  0  0  0  0  0  0
    3.6405    5.6992   -3.3038 H   0  0  0  0  0  0  0  0  0  0  0  0
    3.3752    5.1322   -4.9743 H   0  0  0  0  0  0  0  0  0  0  0  0
    5.0193    5.5121   -4.4401 H   0  0  0  0  0  0  0  0  0  0  0  0
    7.1005    1.4324   -8.5512 H   0  0  0  0  0  0  0  0  0  0  0  0
    7.0392   -0.2470   -9.1694 H   0  0  0  0  0  0  0  0  0  0  0  0
    8.3187   -1.0273   -7.1484 H   0  0  0  0  0  0  0  0  0  0  0  0
    8.3810    0.6650   -6.5552 H   0  0  0  0  0  0  0  0  0  0  0  0
   11.5285    0.7935   -9.6714 H   0  0  0  0  0  0  0  0  0  0  0  0
   13.9103    0.4997   -8.9481 H   0  0  0  0  0  0  0  0  0  0  0  0
   18.4167   -1.1432   -4.8080 H   0  0  0  0  0  0  0  0  0  0  0  0
   17.2138   -2.3347   -4.1977 H   0  0  0  0  0  0  0  0  0  0  0  0
   17.2343   -0.6686   -3.5366 H   0  0  0  0  0  0  0  0  0  0  0  0
   12.5534   -0.9338   -5.1234 H   0  0  0  0  0  0  0  0  0  0  0  0
   10.2024   -0.6459   -5.8257 H   0  0  0  0  0  0  0  0  0  0  0  0
    2.2807    1.2252   -6.5638 H   0  0  0  0  0  0  0  0  0  0  0  0
    0.5244   -0.5957   -6.0033 H   0  0  0  0  0  0  0  0  0  0  0  0
    2.9527   -1.9332   -2.7072 H   0  0  0  0  0  0  0  0  0  0  0  0
    4.8123   -0.2306   -3.3712 H   0  0  0  0  0  0  0  0  0  0  0  0
    3.7227    2.8780   -0.9738 H   0  0  0  0  0  0  0  0  0  0  0  0
    4.9540    2.4041    3.0313 H   0  0  0  0  0  0  0  0  0  0  0  0
    6.0882    3.7600    2.6808 H   0  0  0  0  0  0  0  0  0  0  0  0
    6.5677    2.0705    2.3051 H   0  0  0  0  0  0  0  0  0  0  0  0
  1  2  1  0
  1 42  1  0
  1 43  1  0
  1 44  1  0
  2  3  1  0
  3  4  2  0
  3 39  1  0
  4  5  1  0
  4 45  1  0
  5  6  2  0
  5 46  1  0
  6  7  1  0
  6 38  1  0
  7  8  1  6
  7  9  1  0
  7 10  1  0
  8 47  1  0
  8 48  1  0
  8 49  1  0
  9 50  1  0
  9 51  1  0
  9 52  1  0
 10 11  2  0
 10 30  1  0
 11 12  1  0
 12 13  2  0
 13 14  1  0
 13 30  1  0
 14 15  1  0
 15 16  1  0
 15 53  1  0
 15 54  1  0
 16 17  1  0
 16 55  1  0
 16 56  1  0
 17 18  1  0
 18 19  2  0
 18 29  1  0
 19 20  1  0
 19 57  1  0
 20 21  2  0
 20 58  1  0
 21 22  1  0
 21 28  1  0
 22 23  1  0
 22 27  2  0
 23 24  2  0
 24 25  1  0
 25 26  1  0
 25 27  1  0
 26 59  1  0
 26 60  1  0
 26 61  1  0
 28 29  2  0
 28 62  1  0
 29 63  1  0
 30 31  1  0
 31 32  2  0
 31 37  1  0
 32 33  1  0
 32 64  1  0
 33 34  2  0
 33 65  1  0
 34 35  1  0
 34 36  1  0
 36 37  2  0
 36 66  1  0
 37 67  1  0
 38 39  2  0
 38 68  1  0
 39 40  1  0
 40 41  1  0
 41 69  1  0
 41 70  1  0
 41 71  1  0
M  END

