
     RDKit          3D

 29 29  0  0  0  0  0  0  0  0999 V2000
    2.4530   -2.6322    0.5809 C   0  0  0  0  0  0  0  0  0  0  0  0
    3.4604   -3.3765    1.0435 C   0  0  0  0  0  0  0  0  0  0  0  0
    4.1088   -3.1670    2.3809 C   0  0  0  0  0  0  0  0  0  0  0  0
    5.5079   -2.8356    2.2358 O   0  0  0  0  0  0  0  0  0  0  0  0
    5.8045   -1.5363    2.0626 C   0  0  0  0  0  0  0  0  0  0  0  0
    5.0036   -0.6287    2.1273 O   0  0  0  0  0  0  0  0  0  0  0  0
    7.1607   -1.3448    1.8408 N   0  0  0  0  0  0  0  0  0  0  0  0
    8.0844   -2.4046    1.5415 C   0  0  0  0  0  0  0  0  0  0  0  0
    8.4770   -2.3000    0.0324 C   0  0  0  0  0  0  0  0  0  0  0  0
    9.1522   -3.3235   -0.3759 O   0  0  0  0  0  0  0  0  0  0  0  0
    8.9847   -0.9876   -0.2456 N   0  0  0  0  0  0  0  0  0  0  0  0
    8.0628    0.1014    0.0655 C   0  0  1  0  0  0  0  0  0  0  0  0
    8.6425    1.0339   -0.0419 H   0  0  0  0  0  0  0  0  0  0  0  0
    6.8486    0.1676   -0.8934 C   0  0  0  0  0  0  0  0  0  0  0  0
    7.2305   -0.0754   -2.2307 O   0  0  0  0  0  0  0  0  0  0  0  0
    7.6440   -0.0013    1.5421 C   0  0  0  0  0  0  0  0  0  0  0  0
    1.9996   -2.8276   -0.3949 H   0  0  0  0  0  0  0  0  0  0  0  0
    2.0463   -1.7984    1.1617 H   0  0  0  0  0  0  0  0  0  0  0  0
    3.8661   -4.1958    0.4378 H   0  0  0  0  0  0  0  0  0  0  0  0
    4.1142   -4.0969    2.9690 H   0  0  0  0  0  0  0  0  0  0  0  0
    3.6044   -2.3743    2.9502 H   0  0  0  0  0  0  0  0  0  0  0  0
    7.6407   -3.3813    1.7468 H   0  0  0  0  0  0  0  0  0  0  0  0
    9.0093   -2.2778    2.1390 H   0  0  0  0  0  0  0  0  0  0  0  0
    9.2910   -0.9271   -1.2156 H   0  0  0  0  0  0  0  0  0  0  0  0
    6.0632   -0.5366   -0.5694 H   0  0  0  0  0  0  0  0  0  0  0  0
    6.4131    1.1795   -0.8497 H   0  0  0  0  0  0  0  0  0  0  0  0
    7.2353   -1.0339   -2.3591 H   0  0  0  0  0  0  0  0  0  0  0  0
    6.8514    0.7161    1.7844 H   0  0  0  0  0  0  0  0  0  0  0  0
    8.5219    0.1961    2.1791 H   0  0  0  0  0  0  0  0  0  0  0  0
  1  2  2  0
  1 17  1  0
  1 18  1  0
  2  3  1  0
  2 19  1  0
  3  4  1  0
  3 20  1  0
  3 21  1  0
  4  5  1  0
  5  6  2  0
  5  7  1  0
  7  8  1  0
  7 16  1  0
  8  9  1  0
  8 22  1  0
  8 23  1  0
  9 10  2  0
  9 11  1  0
 11 12  1  0
 11 24  1  0
 12 13  1  1
 12 14  1  0
 12 16  1  0
 14 15  1  0
 14 25  1  0
 14 26  1  0
 15 27  1  0
 16 28  1  0
 16 29  1  0
M  END

