
     RDKit          3D

 68 69  0  0  0  0  0  0  0  0999 V2000
    6.7367    3.8258   -6.3865 C   0  0  0  0  0  0  0  0  0  0  0  0
    6.0523    3.4419   -5.0737 C   0  0  0  0  0  0  0  0  0  0  0  0
    4.7561    4.2163   -4.8184 C   0  0  0  0  0  0  0  0  0  0  0  0
    4.0252    3.8317   -3.5250 C   0  0  0  0  0  0  0  0  0  0  0  0
    4.7676    4.1263   -2.3106 N   0  0  0  0  0  0  0  0  0  0  0  0
    5.3568    3.1681   -1.5461 C   0  0  0  0  0  0  0  0  0  0  0  0
    5.2939    1.9676   -1.7728 O   0  0  0  0  0  0  0  0  0  0  0  0
    6.1657    3.7303   -0.3529 C   0  0  1  0  0  0  0  0  0  0  0  0
    6.2140    2.7334    0.7985 C   0  0  0  0  0  0  0  0  0  0  0  0
    7.5029    4.1438   -0.8399 N   0  0  0  0  0  0  0  0  0  0  0  0
    8.5119    3.1034   -1.0454 C   0  0  0  0  0  0  0  0  0  0  0  0
    9.4224    2.8022    0.1391 C   0  0  0  0  0  0  0  0  0  0  0  0
    9.8309    3.7983    1.0374 C   0  0  0  0  0  0  0  0  0  0  0  0
   10.7123    3.4969    2.0808 C   0  0  0  0  0  0  0  0  0  0  0  0
   11.2008    2.1987    2.2469 C   0  0  0  0  0  0  0  0  0  0  0  0
   10.7907    1.2081    1.3500 C   0  0  0  0  0  0  0  0  0  0  0  0
   11.3809   -0.4286    1.5417 Cl  0  0  0  0  0  0  0  0  0  0  0  0
    9.9090    1.4979    0.3052 C   0  0  0  0  0  0  0  0  0  0  0  0
    7.6300    5.4288   -1.3042 C   0  0  0  0  0  0  0  0  0  0  0  0
    6.6711    6.2014   -1.3320 O   0  0  0  0  0  0  0  0  0  0  0  0
    8.9972    5.8873   -1.8055 C   0  0  0  0  0  0  0  0  0  0  0  0
    9.1649    7.4109   -1.7816 C   0  0  0  0  0  0  0  0  0  0  0  0
    9.0484    8.0697   -0.4004 C   0  0  0  0  0  0  0  0  0  0  0  0
    9.8725    7.4102    0.6265 N   0  0  0  0  0  0  0  0  0  0  0  0
   11.3160    7.4252    0.3535 C   0  0  0  0  0  0  0  0  0  0  0  0
    9.5629    7.9582    2.2315 S   0  0  1  0  0  0  0  0  0  0  0  0
   10.4079    7.1306    3.1008 O   0  0  0  0  0  0  0  0  0  0  0  0
    9.6592    9.4229    2.2825 O   0  0  0  0  0  0  0  0  0  0  0  0
    7.8471    7.5182    2.5286 C   0  0  0  0  0  0  0  0  0  0  0  0
    7.5362    6.2270    2.9661 C   0  0  0  0  0  0  0  0  0  0  0  0
    6.2066    5.9178    3.2617 C   0  0  0  0  0  0  0  0  0  0  0  0
    5.2111    6.8927    3.1291 C   0  0  0  0  0  0  0  0  0  0  0  0
    5.5410    8.1859    2.7116 C   0  0  0  0  0  0  0  0  0  0  0  0
    6.8675    8.5096    2.4160 C   0  0  0  0  0  0  0  0  0  0  0  0
    7.6661    3.2544   -6.5405 H   0  0  0  0  0  0  0  0  0  0  0  0
    6.9971    4.8977   -6.4070 H   0  0  0  0  0  0  0  0  0  0  0  0
    6.0820    3.6319   -7.2528 H   0  0  0  0  0  0  0  0  0  0  0  0
    6.7477    3.6120   -4.2330 H   0  0  0  0  0  0  0  0  0  0  0  0
    5.8359    2.3594   -5.0646 H   0  0  0  0  0  0  0  0  0  0  0  0
    4.0582    4.0542   -5.6599 H   0  0  0  0  0  0  0  0  0  0  0  0
    4.9684    5.3021   -4.8087 H   0  0  0  0  0  0  0  0  0  0  0  0
    3.8174    2.7517   -3.5110 H   0  0  0  0  0  0  0  0  0  0  0  0
    3.0551    4.3568   -3.4840 H   0  0  0  0  0  0  0  0  0  0  0  0
    4.9952    5.0939   -2.0841 H   0  0  0  0  0  0  0  0  0  0  0  0
    5.6869    4.6578   -0.0143 H   0  0  0  0  0  0  0  0  0  0  0  0
    6.5858    1.7511    0.4785 H   0  0  0  0  0  0  0  0  0  0  0  0
    5.1927    2.5792    1.1787 H   0  0  0  0  0  0  0  0  0  0  0  0
    6.8403    3.1099    1.6188 H   0  0  0  0  0  0  0  0  0  0  0  0
    9.1330    3.3784   -1.9111 H   0  0  0  0  0  0  0  0  0  0  0  0
    7.9859    2.1852   -1.3487 H   0  0  0  0  0  0  0  0  0  0  0  0
    9.4685    4.8218    0.9310 H   0  0  0  0  0  0  0  0  0  0  0  0
   11.0177    4.2913    2.7670 H   0  0  0  0  0  0  0  0  0  0  0  0
   11.8875    1.9503    3.0576 H   0  0  0  0  0  0  0  0  0  0  0  0
    9.6008    0.6982   -0.3721 H   0  0  0  0  0  0  0  0  0  0  0  0
    9.0962    5.5396   -2.8501 H   0  0  0  0  0  0  0  0  0  0  0  0
    9.8054    5.4020   -1.2429 H   0  0  0  0  0  0  0  0  0  0  0  0
    8.3911    7.8707   -2.4147 H   0  0  0  0  0  0  0  0  0  0  0  0
   10.1349    7.6577   -2.2427 H   0  0  0  0  0  0  0  0  0  0  0  0
    7.9987    8.0084   -0.0826 H   0  0  0  0  0  0  0  0  0  0  0  0
    9.3124    9.1416   -0.4874 H   0  0  0  0  0  0  0  0  0  0  0  0
   11.5299    6.7750   -0.5067 H   0  0  0  0  0  0  0  0  0  0  0  0
   11.8529    7.0261    1.2227 H   0  0  0  0  0  0  0  0  0  0  0  0
   11.6917    8.4426    0.1345 H   0  0  0  0  0  0  0  0  0  0  0  0
    8.3269    5.4865    3.0910 H   0  0  0  0  0  0  0  0  0  0  0  0
    5.9487    4.9143    3.6083 H   0  0  0  0  0  0  0  0  0  0  0  0
    4.1731    6.6452    3.3648 H   0  0  0  0  0  0  0  0  0  0  0  0
    4.7649    8.9499    2.6242 H   0  0  0  0  0  0  0  0  0  0  0  0
    7.1532    9.5190    2.1161 H   0  0  0  0  0  0  0  0  0  0  0  0
  1  2  1  0
  1 35  1  0
  1 36  1  0
  1 37  1  0
  2  3  1  0
  2 38  1  0
  2 39  1  0
  3  4  1  0
  3 40  1  0
  3 41  1  0
  4  5  1  0
  4 42  1  0
  4 43  1  0
  5  6  1  0
  5 44  1  0
  6  7  2  0
  6  8  1  0
  8  9  1  0
  8 10  1  0
  8 45  1  1
  9 46  1  0
  9 47  1  0
  9 48  1  0
 10 11  1  0
 10 19  1  0
 11 12  1  0
 11 49  1  0
 11 50  1  0
 12 13  2  0
 12 18  1  0
 13 14  1  0
 13 51  1  0
 14 15  2  0
 14 52  1  0
 15 16  1  0
 15 53  1  0
 16 17  1  0
 16 18  2  0
 18 54  1  0
 19 20  2  0
 19 21  1  0
 21 22  1  0
 21 55  1  0
 21 56  1  0
 22 23  1  0
 22 57  1  0
 22 58  1  0
 23 24  1  0
 23 59  1  0
 23 60  1  0
 24 25  1  0
 26 24  1  6
 25 61  1  0
 25 62  1  0
 25 63  1  0
 26 27  2  0
 26 28  2  0
 26 29  1  0
 29 30  2  0
 29 34  1  0
 30 31  1  0
 30 64  1  0
 31 32  2  0
 31 65  1  0
 32 33  1  0
 32 66  1  0
 33 34  2  0
 33 67  1  0
 34 68  1  0
M  END

