
     RDKit          3D

 50 53  0  0  0  0  0  0  0  0999 V2000
    2.0682   -2.0742   -1.2086 C   0  0  0  0  0  0  0  0  0  0  0  0
    3.5224   -1.8560   -0.9247 C   0  0  0  0  0  0  0  0  0  0  0  0
    4.1535   -0.7342   -1.1159 N   0  0  0  0  0  0  0  0  0  0  0  0
    5.4794   -0.8243   -0.7674 C   0  0  0  0  0  0  0  0  0  0  0  0
    6.3339    0.3986   -0.9347 C   0  0  0  0  0  0  0  0  0  0  0  0
    7.6546    0.1001   -0.5280 O   0  0  0  0  0  0  0  0  0  0  0  0
    8.6097    1.0582   -0.5880 C   0  0  0  0  0  0  0  0  0  0  0  0
    8.3927    2.3702   -1.0411 C   0  0  0  0  0  0  0  0  0  0  0  0
    9.4518    3.2778   -1.0577 C   0  0  0  0  0  0  0  0  0  0  0  0
   10.7395    2.9105   -0.6443 C   0  0  0  0  0  0  0  0  0  0  0  0
   11.8067    3.9675   -0.6973 C   0  0  0  0  0  0  0  0  0  0  0  0
   11.5265    5.1514   -0.8121 O   0  0  0  0  0  0  0  0  0  0  0  0
   13.0996    3.4979   -0.6237 N   0  0  0  0  0  0  0  0  0  0  0  0
   14.2970    4.2239   -0.6060 C   0  0  0  0  0  0  0  0  0  0  0  0
   14.3870    5.6266   -0.6109 C   0  0  0  0  0  0  0  0  0  0  0  0
   15.6390    6.2459   -0.5781 C   0  0  0  0  0  0  0  0  0  0  0  0
   16.8134    5.4906   -0.5333 C   0  0  0  0  0  0  0  0  0  0  0  0
   16.7384    4.0948   -0.5221 C   0  0  0  0  0  0  0  0  0  0  0  0
   15.4931    3.4704   -0.5661 C   0  0  0  0  0  0  0  0  0  0  0  0
   15.3461    2.0962   -0.4994 O   0  0  0  0  0  0  0  0  0  0  0  0
   16.1173    1.2515   -1.2704 C   0  0  0  0  0  0  0  0  0  0  0  0
   16.4494    0.0135   -0.7095 C   0  0  0  0  0  0  0  0  0  0  0  0
   17.1698   -0.9145   -1.4648 C   0  0  0  0  0  0  0  0  0  0  0  0
   17.5653   -0.6097   -2.7713 C   0  0  0  0  0  0  0  0  0  0  0  0
   17.2289    0.6315   -3.3208 C   0  0  0  0  0  0  0  0  0  0  0  0
   16.5029    1.5674   -2.5791 C   0  0  0  0  0  0  0  0  0  0  0  0
   10.9388    1.5957   -0.1810 C   0  0  0  0  0  0  0  0  0  0  0  0
    9.8930    0.6812   -0.1525 C   0  0  0  0  0  0  0  0  0  0  0  0
    5.8872   -2.0426   -0.2955 C   0  0  0  0  0  0  0  0  0  0  0  0
    4.5453   -3.1372   -0.2845 S   0  0  0  0  0  0  0  0  0  0  0  0
    1.6471   -1.1414   -1.6069 H   0  0  0  0  0  0  0  0  0  0  0  0
    1.5141   -2.3519   -0.2973 H   0  0  0  0  0  0  0  0  0  0  0  0
    1.9148   -2.8768   -1.9482 H   0  0  0  0  0  0  0  0  0  0  0  0
    5.9135    1.2269   -0.3332 H   0  0  0  0  0  0  0  0  0  0  0  0
    6.3098    0.7226   -1.9926 H   0  0  0  0  0  0  0  0  0  0  0  0
    7.4080    2.6932   -1.3786 H   0  0  0  0  0  0  0  0  0  0  0  0
    9.2955    4.3038   -1.3960 H   0  0  0  0  0  0  0  0  0  0  0  0
   13.2388    2.4945   -0.6217 H   0  0  0  0  0  0  0  0  0  0  0  0
   13.4675    6.2056   -0.6492 H   0  0  0  0  0  0  0  0  0  0  0  0
   15.6910    7.3374   -0.5859 H   0  0  0  0  0  0  0  0  0  0  0  0
   17.7888    5.9814   -0.5004 H   0  0  0  0  0  0  0  0  0  0  0  0
   17.6416    3.4831   -0.4784 H   0  0  0  0  0  0  0  0  0  0  0  0
   16.1348   -0.2023    0.3135 H   0  0  0  0  0  0  0  0  0  0  0  0
   17.4280   -1.8812   -1.0249 H   0  0  0  0  0  0  0  0  0  0  0  0
   18.1320   -1.3358   -3.3586 H   0  0  0  0  0  0  0  0  0  0  0  0
   17.5283    0.8767   -4.3430 H   0  0  0  0  0  0  0  0  0  0  0  0
   16.2348    2.5336   -3.0100 H   0  0  0  0  0  0  0  0  0  0  0  0
   11.9132    1.2735    0.1956 H   0  0  0  0  0  0  0  0  0  0  0  0
   10.0410   -0.3364    0.2138 H   0  0  0  0  0  0  0  0  0  0  0  0
    6.8810   -2.3341    0.0339 H   0  0  0  0  0  0  0  0  0  0  0  0
  1  2  1  0
  1 31  1  0
  1 32  1  0
  1 33  1  0
  2  3  2  0
  2 30  1  0
  3  4  1  0
  4  5  1  0
  4 29  2  0
  5  6  1  0
  5 34  1  0
  5 35  1  0
  6  7  1  0
  7  8  2  0
  7 28  1  0
  8  9  1  0
  8 36  1  0
  9 10  2  0
  9 37  1  0
 10 11  1  0
 10 27  1  0
 11 12  2  0
 11 13  1  0
 13 14  1  0
 13 38  1  0
 14 15  2  0
 14 19  1  0
 15 16  1  0
 15 39  1  0
 16 17  2  0
 16 40  1  0
 17 18  1  0
 17 41  1  0
 18 19  2  0
 18 42  1  0
 19 20  1  0
 20 21  1  0
 21 22  2  0
 21 26  1  0
 22 23  1  0
 22 43  1  0
 23 24  2  0
 23 44  1  0
 24 25  1  0
 24 45  1  0
 25 26  2  0
 25 46  1  0
 26 47  1  0
 27 28  2  0
 27 48  1  0
 28 49  1  0
 29 30  1  0
 29 50  1  0
M  END

