
     RDKit          3D

 51 53  0  0  0  0  0  0  0  0999 V2000
    2.1597   -0.1205   -0.1230 C   0  0  0  0  0  0  0  0  0  0  0  0
    3.5607   -0.6715   -0.0100 C   0  0  0  0  0  0  0  0  0  0  0  0
    4.3433   -0.8984   -1.1576 C   0  0  0  0  0  0  0  0  0  0  0  0
    5.6349   -1.4068   -1.0695 C   0  0  0  0  0  0  0  0  0  0  0  0
    6.1955   -1.7063    0.1842 C   0  0  0  0  0  0  0  0  0  0  0  0
    7.4763   -2.1814    0.1662 O   0  0  0  0  0  0  0  0  0  0  0  0
    8.1457   -2.5737    1.3620 C   0  0  1  0  0  0  0  0  0  0  0  0
    7.7724   -3.9917    1.7862 C   0  0  0  0  0  0  0  0  0  0  0  0
    9.6665   -2.4647    1.1470 C   0  0  0  0  0  0  0  0  0  0  0  0
   10.4312   -2.8062    2.0354 O   0  0  0  0  0  0  0  0  0  0  0  0
   10.0540   -1.9640   -0.0523 N   0  0  0  0  0  0  0  0  0  0  0  0
   11.4426   -1.8641   -0.4390 C   0  0  0  0  0  0  0  0  0  0  0  0
   11.9112   -3.0593   -1.3130 C   0  0  1  0  0  0  0  0  0  0  0  0
   10.9638   -3.2644   -2.4628 C   0  0  0  0  0  0  0  0  0  0  0  0
   10.7870   -2.6212   -3.6591 C   0  0  0  0  0  0  0  0  0  0  0  0
    9.6586   -3.2440   -4.2913 C   0  0  0  0  0  0  0  0  0  0  0  0
    9.2336   -4.2149   -3.4301 C   0  0  0  0  0  0  0  0  0  0  0  0
   10.0177   -4.2338   -2.3214 O   0  0  0  0  0  0  0  0  0  0  0  0
   13.2671   -2.8448   -1.8012 N   0  0  0  0  0  0  0  0  0  0  0  0
   14.2749   -2.5206   -0.7884 C   0  0  0  0  0  0  0  0  0  0  0  0
   15.6173   -2.6479   -1.5360 C   0  0  0  0  0  0  0  0  0  0  0  0
   15.3033   -3.5599   -2.7514 C   0  0  0  0  0  0  0  0  0  0  0  0
   13.8390   -3.9691   -2.5434 C   0  0  0  0  0  0  0  0  0  0  0  0
    5.4331   -1.4945    1.3391 C   0  0  0  0  0  0  0  0  0  0  0  0
    4.1341   -0.9808    1.2279 C   0  0  0  0  0  0  0  0  0  0  0  0
    2.1520    0.8664   -0.6160 H   0  0  0  0  0  0  0  0  0  0  0  0
    1.6920   -0.0027    0.8658 H   0  0  0  0  0  0  0  0  0  0  0  0
    1.5117   -0.7827   -0.7220 H   0  0  0  0  0  0  0  0  0  0  0  0
    3.9296   -0.6714   -2.1450 H   0  0  0  0  0  0  0  0  0  0  0  0
    6.2352   -1.5830   -1.9649 H   0  0  0  0  0  0  0  0  0  0  0  0
    7.9163   -1.8598    2.1730 H   0  0  0  0  0  0  0  0  0  0  0  0
    7.9910   -4.6944    0.9674 H   0  0  0  0  0  0  0  0  0  0  0  0
    6.7040   -4.0655    2.0356 H   0  0  0  0  0  0  0  0  0  0  0  0
    8.3703   -4.2748    2.6634 H   0  0  0  0  0  0  0  0  0  0  0  0
    9.3221   -1.7750   -0.7283 H   0  0  0  0  0  0  0  0  0  0  0  0
   12.0294   -1.8269    0.4881 H   0  0  0  0  0  0  0  0  0  0  0  0
   11.6075   -0.9315   -1.0031 H   0  0  0  0  0  0  0  0  0  0  0  0
   11.8443   -3.9708   -0.6751 H   0  0  0  0  0  0  0  0  0  0  0  0
   11.4028   -1.8101   -4.0410 H   0  0  0  0  0  0  0  0  0  0  0  0
    9.2268   -3.0036   -5.2609 H   0  0  0  0  0  0  0  0  0  0  0  0
    8.4294   -4.9453   -3.4612 H   0  0  0  0  0  0  0  0  0  0  0  0
   14.2363   -3.2398    0.0618 H   0  0  0  0  0  0  0  0  0  0  0  0
   14.1229   -1.5146   -0.3709 H   0  0  0  0  0  0  0  0  0  0  0  0
   16.3952   -3.0679   -0.8811 H   0  0  0  0  0  0  0  0  0  0  0  0
   15.9732   -1.6617   -1.8695 H   0  0  0  0  0  0  0  0  0  0  0  0
   15.9661   -4.4359   -2.8132 H   0  0  0  0  0  0  0  0  0  0  0  0
   15.4116   -2.9996   -3.6923 H   0  0  0  0  0  0  0  0  0  0  0  0
   13.7810   -4.9109   -1.9490 H   0  0  0  0  0  0  0  0  0  0  0  0
   13.2966   -4.1427   -3.4838 H   0  0  0  0  0  0  0  0  0  0  0  0
    5.8288   -1.7235    2.3287 H   0  0  0  0  0  0  0  0  0  0  0  0
    3.5553   -0.8219    2.1424 H   0  0  0  0  0  0  0  0  0  0  0  0
  1  2  1  0
  1 26  1  0
  1 27  1  0
  1 28  1  0
  2  3  2  0
  2 25  1  0
  3  4  1  0
  3 29  1  0
  4  5  2  0
  4 30  1  0
  5  6  1  0
  5 24  1  0
  6  7  1  0
  7  8  1  0
  7  9  1  0
  7 31  1  1
  8 32  1  0
  8 33  1  0
  8 34  1  0
  9 10  2  0
  9 11  1  0
 11 12  1  0
 11 35  1  0
 12 13  1  0
 12 36  1  0
 12 37  1  0
 13 14  1  0
 13 19  1  0
 13 38  1  1
 14 15  2  0
 14 18  1  0
 15 16  1  0
 15 39  1  0
 16 17  2  0
 16 40  1  0
 17 18  1  0
 17 41  1  0
 19 20  1  0
 19 23  1  0
 20 21  1  0
 20 42  1  0
 20 43  1  0
 21 22  1  0
 21 44  1  0
 21 45  1  0
 22 23  1  0
 22 46  1  0
 22 47  1  0
 23 48  1  0
 23 49  1  0
 24 25  2  0
 24 50  1  0
 25 51  1  0
M  END

