
     RDKit          3D

 66 69  0  0  0  0  0  0  0  0999 V2000
    4.2364    3.5043   -6.0039 C   0  0  0  0  0  0  0  0  0  0  0  0
    4.1026    1.9878   -6.0987 C   0  0  0  0  0  0  0  0  0  0  0  0
    4.6524    1.3254   -4.9223 N   0  0  0  0  0  0  0  0  0  0  0  0
    4.0993    0.2088   -4.3798 C   0  0  0  0  0  0  0  0  0  0  0  0
    3.0618   -0.2935   -4.7791 O   0  0  0  0  0  0  0  0  0  0  0  0
    4.8623   -0.3699   -3.1585 C   0  0  1  0  0  0  0  0  0  0  0  0
    4.7368    0.3932   -2.3733 H   0  0  0  0  0  0  0  0  0  0  0  0
    4.2252   -1.6805   -2.6321 C   0  0  0  0  0  0  0  0  0  0  0  0
    2.8959   -1.5106   -1.9184 C   0  0  0  0  0  0  0  0  0  0  0  0
    1.6851   -1.8647   -2.5338 C   0  0  0  0  0  0  0  0  0  0  0  0
    0.4708   -1.7256   -1.8573 C   0  0  0  0  0  0  0  0  0  0  0  0
    0.4419   -1.2210   -0.5535 C   0  0  0  0  0  0  0  0  0  0  0  0
    1.6396   -0.8607    0.0695 C   0  0  0  0  0  0  0  0  0  0  0  0
    2.8541   -1.0091   -0.6072 C   0  0  0  0  0  0  0  0  0  0  0  0
    6.3193   -0.4654   -3.3691 N   0  0  0  0  0  0  0  0  0  0  0  0
    7.1903   -0.1221   -2.2348 C   0  0  0  0  0  0  0  0  0  0  0  0
    7.0670    1.3064   -1.7398 C   0  0  0  0  0  0  0  0  0  0  0  0
    6.6458    1.6187   -0.4292 C   0  0  0  0  0  0  0  0  0  0  0  0
    6.2523    0.3445    0.7157 Cl  0  0  0  0  0  0  0  0  0  0  0  0
    6.5476    2.9315    0.0418 C   0  0  0  0  0  0  0  0  0  0  0  0
    6.8840    3.9898   -0.7993 C   0  0  0  0  0  0  0  0  0  0  0  0
    7.3308    3.7344   -2.0954 C   0  0  0  0  0  0  0  0  0  0  0  0
    7.4205    2.4142   -2.5392 C   0  0  0  0  0  0  0  0  0  0  0  0
    8.0377    2.1586   -4.1641 Cl  0  0  0  0  0  0  0  0  0  0  0  0
    6.9207   -1.1878   -4.3930 C   0  0  0  0  0  0  0  0  0  0  0  0
    8.1131   -1.4540   -4.3709 O   0  0  0  0  0  0  0  0  0  0  0  0
    6.0749   -1.5831   -5.5952 C   0  0  0  0  0  0  0  0  0  0  0  0
    6.8521   -2.4867   -6.5573 C   0  0  0  0  0  0  0  0  0  0  0  0
    6.1198   -2.7049   -7.8024 N   0  0  0  0  0  0  0  0  0  0  0  0
    5.1949   -3.7223   -7.9936 C   0  0  0  0  0  0  0  0  0  0  0  0
    4.9320   -4.5763   -7.1757 O   0  0  0  0  0  0  0  0  0  0  0  0
    4.5951   -3.5857   -9.3587 C   0  0  0  0  0  0  0  0  0  0  0  0
    3.6449   -4.4321   -9.9280 C   0  0  0  0  0  0  0  0  0  0  0  0
    3.1923   -4.1513  -11.2218 C   0  0  0  0  0  0  0  0  0  0  0  0
    3.6825   -3.0451  -11.9313 C   0  0  0  0  0  0  0  0  0  0  0  0
    4.6374   -2.1910  -11.3644 C   0  0  0  0  0  0  0  0  0  0  0  0
    5.0704   -2.4893  -10.0777 C   0  0  0  0  0  0  0  0  0  0  0  0
    6.2684   -1.5861   -9.1060 S   0  0  2  0  0  0  0  0  0  0  0  0
    7.6074   -1.6693   -9.6790 O   0  0  0  0  0  0  0  0  0  0  0  0
    5.7538   -0.2795   -8.6916 O   0  0  0  0  0  0  0  0  0  0  0  0
    3.8310    3.9829   -6.9090 H   0  0  0  0  0  0  0  0  0  0  0  0
    5.2929    3.8084   -5.9137 H   0  0  0  0  0  0  0  0  0  0  0  0
    3.6926    3.8986   -5.1308 H   0  0  0  0  0  0  0  0  0  0  0  0
    4.6004    1.6145   -7.0130 H   0  0  0  0  0  0  0  0  0  0  0  0
    3.0487    1.6834   -6.1674 H   0  0  0  0  0  0  0  0  0  0  0  0
    5.5926    1.5788   -4.6344 H   0  0  0  0  0  0  0  0  0  0  0  0
    4.9487   -2.1240   -1.9289 H   0  0  0  0  0  0  0  0  0  0  0  0
    4.1076   -2.3905   -3.4628 H   0  0  0  0  0  0  0  0  0  0  0  0
    1.6988   -2.2328   -3.5608 H   0  0  0  0  0  0  0  0  0  0  0  0
   -0.4604   -2.0092   -2.3551 H   0  0  0  0  0  0  0  0  0  0  0  0
   -0.5092   -1.1108   -0.0258 H   0  0  0  0  0  0  0  0  0  0  0  0
    1.6321   -0.4695    1.0905 H   0  0  0  0  0  0  0  0  0  0  0  0
    3.7846   -0.7346   -0.1033 H   0  0  0  0  0  0  0  0  0  0  0  0
    8.2155   -0.3097   -2.5808 H   0  0  0  0  0  0  0  0  0  0  0  0
    7.0018   -0.8049   -1.3942 H   0  0  0  0  0  0  0  0  0  0  0  0
    6.2118    3.1085    1.0640 H   0  0  0  0  0  0  0  0  0  0  0  0
    6.8085    5.0185   -0.4399 H   0  0  0  0  0  0  0  0  0  0  0  0
    7.6196    4.5460   -2.7643 H   0  0  0  0  0  0  0  0  0  0  0  0
    5.7880   -0.6659   -6.1301 H   0  0  0  0  0  0  0  0  0  0  0  0
    5.1360   -2.0693   -5.2968 H   0  0  0  0  0  0  0  0  0  0  0  0
    7.0358   -3.4761   -6.1156 H   0  0  0  0  0  0  0  0  0  0  0  0
    7.8320   -2.0517   -6.7971 H   0  0  0  0  0  0  0  0  0  0  0  0
    3.2765   -5.2880   -9.3587 H   0  0  0  0  0  0  0  0  0  0  0  0
    2.4473   -4.8007  -11.6876 H   0  0  0  0  0  0  0  0  0  0  0  0
    3.3157   -2.8443  -12.9406 H   0  0  0  0  0  0  0  0  0  0  0  0
    5.0236   -1.3286  -11.9112 H   0  0  0  0  0  0  0  0  0  0  0  0
  1  2  1  0
  1 41  1  0
  1 42  1  0
  1 43  1  0
  2  3  1  0
  2 44  1  0
  2 45  1  0
  3  4  1  0
  3 46  1  0
  4  5  2  0
  4  6  1  0
  6  7  1  1
  6  8  1  0
  6 15  1  0
  8  9  1  0
  8 47  1  0
  8 48  1  0
  9 10  2  0
  9 14  1  0
 10 11  1  0
 10 49  1  0
 11 12  2  0
 11 50  1  0
 12 13  1  0
 12 51  1  0
 13 14  2  0
 13 52  1  0
 14 53  1  0
 15 16  1  0
 15 25  1  0
 16 17  1  0
 16 54  1  0
 16 55  1  0
 17 18  2  0
 17 23  1  0
 18 19  1  0
 18 20  1  0
 20 21  2  0
 20 56  1  0
 21 22  1  0
 21 57  1  0
 22 23  2  0
 22 58  1  0
 23 24  1  0
 25 26  2  0
 25 27  1  0
 27 28  1  0
 27 59  1  0
 27 60  1  0
 28 29  1  0
 28 61  1  0
 28 62  1  0
 29 30  1  0
 38 29  1  1
 30 31  2  0
 30 32  1  0
 32 33  1  0
 32 37  2  0
 33 34  2  0
 33 63  1  0
 34 35  1  0
 34 64  1  0
 35 36  2  0
 35 65  1  0
 36 37  1  0
 36 66  1  0
 37 38  1  0
 38 39  2  0
 38 40  2  0
M  END

