
     RDKit          3D

 49 51  0  0  0  0  0  0  0  0999 V2000
    0.9550    0.0034    0.2474 C   0  0  0  0  0  0  0  0  0  0  0  0
    2.3908    0.1704    0.4087 N   0  0  0  0  0  0  0  0  0  0  0  0
    2.7322    1.5836    0.4411 C   0  0  0  0  0  0  0  0  0  0  0  0
    2.9604   -0.5944    1.5312 C   0  0  1  0  0  0  0  0  0  0  0  0
    2.5908   -2.0906    1.4717 C   0  0  0  0  0  0  0  0  0  0  0  0
    3.2283   -2.7998    0.2725 C   0  0  0  0  0  0  0  0  0  0  0  0
    4.6841   -2.6353    0.2986 N   0  0  0  0  0  0  0  0  0  0  0  0
    5.4641   -3.7489    0.1700 C   0  0  0  0  0  0  0  0  0  0  0  0
    4.9994   -4.8578   -0.0785 O   0  0  0  0  0  0  0  0  0  0  0  0
    6.9657   -3.6765    0.3531 C   0  0  0  0  0  0  0  0  0  0  0  0
    7.7597   -4.6533   -0.3390 C   0  0  0  0  0  0  0  0  0  0  0  0
    9.0995   -4.6932   -0.1169 C   0  0  0  0  0  0  0  0  0  0  0  0
    9.7249   -3.7940    0.8411 C   0  0  0  0  0  0  0  0  0  0  0  0
   10.9104   -3.7694    1.1369 O   0  0  0  0  0  0  0  0  0  0  0  0
    8.8070   -2.8982    1.4459 N   0  0  0  0  0  0  0  0  0  0  0  0
    9.3158   -1.9616    2.4665 C   0  0  0  0  0  0  0  0  0  0  0  0
    9.2447   -2.5172    3.8748 C   0  0  0  0  0  0  0  0  0  0  0  0
   10.2623   -3.3524    4.3651 C   0  0  0  0  0  0  0  0  0  0  0  0
   10.1826   -3.8775    5.6573 C   0  0  0  0  0  0  0  0  0  0  0  0
    9.0884   -3.5758    6.4747 C   0  0  0  0  0  0  0  0  0  0  0  0
    8.0718   -2.7456    5.9940 C   0  0  0  0  0  0  0  0  0  0  0  0
    8.1504   -2.2211    4.7006 C   0  0  0  0  0  0  0  0  0  0  0  0
    7.4995   -2.8480    1.2142 N   0  0  0  0  0  0  0  0  0  0  0  0
    5.1191   -1.2385    0.3451 C   0  0  0  0  0  0  0  0  0  0  0  0
    4.5025   -0.5217    1.5504 C   0  0  0  0  0  0  0  0  0  0  0  0
    0.6055    0.6387   -0.5805 H   0  0  0  0  0  0  0  0  0  0  0  0
    0.3730    0.2875    1.1551 H   0  0  0  0  0  0  0  0  0  0  0  0
    0.6911   -1.0315   -0.0106 H   0  0  0  0  0  0  0  0  0  0  0  0
    2.2666    2.0939   -0.4156 H   0  0  0  0  0  0  0  0  0  0  0  0
    3.8162    1.7422    0.3579 H   0  0  0  0  0  0  0  0  0  0  0  0
    2.3845    2.0976    1.3677 H   0  0  0  0  0  0  0  0  0  0  0  0
    2.5797   -0.1826    2.4963 H   0  0  0  0  0  0  0  0  0  0  0  0
    1.5020   -2.2426    1.4565 H   0  0  0  0  0  0  0  0  0  0  0  0
    2.9525   -2.5627    2.3998 H   0  0  0  0  0  0  0  0  0  0  0  0
    2.8330   -2.3779   -0.6688 H   0  0  0  0  0  0  0  0  0  0  0  0
    3.0136   -3.8746    0.2775 H   0  0  0  0  0  0  0  0  0  0  0  0
    7.2568   -5.3414   -1.0197 H   0  0  0  0  0  0  0  0  0  0  0  0
    9.7620   -5.4022   -0.6168 H   0  0  0  0  0  0  0  0  0  0  0  0
    8.7090   -1.0515    2.3780 H   0  0  0  0  0  0  0  0  0  0  0  0
   10.3543   -1.7404    2.1914 H   0  0  0  0  0  0  0  0  0  0  0  0
   11.1093   -3.5937    3.7188 H   0  0  0  0  0  0  0  0  0  0  0  0
   10.9809   -4.5252    6.0290 H   0  0  0  0  0  0  0  0  0  0  0  0
    9.0293   -3.9857    7.4864 H   0  0  0  0  0  0  0  0  0  0  0  0
    7.2153   -2.5035    6.6285 H   0  0  0  0  0  0  0  0  0  0  0  0
    7.3538   -1.5713    4.3280 H   0  0  0  0  0  0  0  0  0  0  0  0
    4.7833   -0.7406   -0.5824 H   0  0  0  0  0  0  0  0  0  0  0  0
    6.2093   -1.1903    0.3903 H   0  0  0  0  0  0  0  0  0  0  0  0
    4.8613    0.5171    1.5859 H   0  0  0  0  0  0  0  0  0  0  0  0
    4.8606   -1.0073    2.4726 H   0  0  0  0  0  0  0  0  0  0  0  0
  1  2  1  0
  1 26  1  0
  1 27  1  0
  1 28  1  0
  2  3  1  0
  2  4  1  0
  3 29  1  0
  3 30  1  0
  3 31  1  0
  4  5  1  0
  4 25  1  0
  4 32  1  1
  5  6  1  0
  5 33  1  0
  5 34  1  0
  6  7  1  0
  6 35  1  0
  6 36  1  0
  7  8  1  0
  7 24  1  0
  8  9  2  0
  8 10  1  0
 10 11  1  0
 10 23  2  0
 11 12  2  0
 11 37  1  0
 12 13  1  0
 12 38  1  0
 13 14  2  0
 13 15  1  0
 15 16  1  0
 15 23  1  0
 16 17  1  0
 16 39  1  0
 16 40  1  0
 17 18  2  0
 17 22  1  0
 18 19  1  0
 18 41  1  0
 19 20  2  0
 19 42  1  0
 20 21  1  0
 20 43  1  0
 21 22  2  0
 21 44  1  0
 22 45  1  0
 24 25  1  0
 24 46  1  0
 24 47  1  0
 25 48  1  0
 25 49  1  0
M  END

