
     RDKit          3D

 51 53  0  0  0  0  0  0  0  0999 V2000
    3.1513   -0.0763    1.5221 C   0  0  0  0  0  0  0  0  0  0  0  0
    4.2606   -0.7743    0.7262 C   0  0  1  0  0  0  0  0  0  0  0  0
    3.7697   -1.9529    0.0056 N   0  0  0  0  0  0  0  0  0  0  0  0
    3.5929   -3.1591    0.6328 C   0  0  0  0  0  0  0  0  0  0  0  0
    3.8833   -3.3420    1.8124 O   0  0  0  0  0  0  0  0  0  0  0  0
    3.0739   -4.1631   -0.1609 N   0  0  0  0  0  0  0  0  0  0  0  0
    2.7901   -5.4789    0.3708 C   0  0  0  0  0  0  0  0  0  0  0  0
    3.8777   -6.5457    0.1111 C   0  0  1  0  0  0  0  0  0  0  0  0
    5.2704   -6.1716    0.6399 C   0  0  0  0  0  0  0  0  0  0  0  0
    5.3473   -6.1665    2.1700 C   0  0  0  0  0  0  0  0  0  0  0  0
    4.7511   -7.3131    2.8153 N   0  0  0  0  0  0  0  0  0  0  0  0
    5.1703   -7.7064    4.1447 C   0  0  0  0  0  0  0  0  0  0  0  0
    4.8493   -6.8299    5.2494 C   0  0  0  0  0  0  0  0  0  0  0  0
    5.6206   -6.8890    6.3891 C   0  0  0  0  0  0  0  0  0  0  0  0
    6.7389   -7.6514    6.5558 N   0  0  0  0  0  0  0  0  0  0  0  0
    7.0975   -8.3805    5.4658 C   0  0  0  0  0  0  0  0  0  0  0  0
    6.4240   -8.4231    4.2633 C   0  0  0  0  0  0  0  0  0  0  0  0
    3.5622   -7.9164    2.2535 C   0  0  0  0  0  0  0  0  0  0  0  0
    3.4856   -7.9011    0.7210 C   0  0  0  0  0  0  0  0  0  0  0  0
    4.9658    0.1362   -0.2484 C   0  0  0  0  0  0  0  0  0  0  0  0
    5.9359   -0.2197   -1.2239 C   0  0  0  0  0  0  0  0  0  0  0  0
    6.3661    0.8372   -1.9052 N   0  0  0  0  0  0  0  0  0  0  0  0
    5.7011    1.8811   -1.3927 N   0  0  0  0  0  0  0  0  0  0  0  0
    5.9159    3.2070   -1.9348 C   0  0  0  0  0  0  0  0  0  0  0  0
    4.8450    1.5117   -0.4006 C   0  0  0  0  0  0  0  0  0  0  0  0
    2.6925   -0.7909    2.2200 H   0  0  0  0  0  0  0  0  0  0  0  0
    2.3691    0.3218    0.8549 H   0  0  0  0  0  0  0  0  0  0  0  0
    3.5594    0.7585    2.1132 H   0  0  0  0  0  0  0  0  0  0  0  0
    4.9907   -1.1662    1.4532 H   0  0  0  0  0  0  0  0  0  0  0  0
    3.3457   -1.7902   -0.9008 H   0  0  0  0  0  0  0  0  0  0  0  0
    2.9670   -4.0083   -1.1559 H   0  0  0  0  0  0  0  0  0  0  0  0
    1.8391   -5.8399   -0.0578 H   0  0  0  0  0  0  0  0  0  0  0  0
    2.6245   -5.3465    1.4497 H   0  0  0  0  0  0  0  0  0  0  0  0
    3.9551   -6.6747   -0.9832 H   0  0  0  0  0  0  0  0  0  0  0  0
    5.5806   -5.1804    0.2778 H   0  0  0  0  0  0  0  0  0  0  0  0
    6.0037   -6.8943    0.2438 H   0  0  0  0  0  0  0  0  0  0  0  0
    4.8170   -5.2652    2.5563 H   0  0  0  0  0  0  0  0  0  0  0  0
    6.3786   -6.0880    2.5406 H   0  0  0  0  0  0  0  0  0  0  0  0
    3.9726   -6.1763    5.2140 H   0  0  0  0  0  0  0  0  0  0  0  0
    5.3219   -6.2837    7.2554 H   0  0  0  0  0  0  0  0  0  0  0  0
    8.0029   -8.9929    5.5783 H   0  0  0  0  0  0  0  0  0  0  0  0
    6.7968   -9.0523    3.4498 H   0  0  0  0  0  0  0  0  0  0  0  0
    2.7055   -7.3672    2.7006 H   0  0  0  0  0  0  0  0  0  0  0  0
    3.4973   -8.9319    2.6669 H   0  0  0  0  0  0  0  0  0  0  0  0
    2.4658   -8.1963    0.4248 H   0  0  0  0  0  0  0  0  0  0  0  0
    4.1609   -8.6790    0.3287 H   0  0  0  0  0  0  0  0  0  0  0  0
    6.3328   -1.2106   -1.4451 H   0  0  0  0  0  0  0  0  0  0  0  0
    6.9924    3.4300   -1.9534 H   0  0  0  0  0  0  0  0  0  0  0  0
    5.4046    3.9444   -1.3019 H   0  0  0  0  0  0  0  0  0  0  0  0
    5.5240    3.2780   -2.9617 H   0  0  0  0  0  0  0  0  0  0  0  0
    4.2302    2.2421    0.1205 H   0  0  0  0  0  0  0  0  0  0  0  0
  1  2  1  0
  1 26  1  0
  1 27  1  0
  1 28  1  0
  2  3  1  0
  2 20  1  0
  2 29  1  1
  3  4  1  0
  3 30  1  0
  4  5  2  0
  4  6  1  0
  6  7  1  0
  6 31  1  0
  7  8  1  0
  7 32  1  0
  7 33  1  0
  8  9  1  0
  8 19  1  0
  8 34  1  6
  9 10  1  0
  9 35  1  0
  9 36  1  0
 10 11  1  0
 10 37  1  0
 10 38  1  0
 11 12  1  0
 11 18  1  0
 12 13  2  0
 12 17  1  0
 13 14  1  0
 13 39  1  0
 14 15  2  0
 14 40  1  0
 15 16  1  0
 16 17  2  0
 16 41  1  0
 17 42  1  0
 18 19  1  0
 18 43  1  0
 18 44  1  0
 19 45  1  0
 19 46  1  0
 20 21  1  0
 20 25  2  0
 21 22  2  0
 21 47  1  0
 22 23  1  0
 23 24  1  0
 23 25  1  0
 24 48  1  0
 24 49  1  0
 24 50  1  0
 25 51  1  0
M  END

