
     RDKit          3D

 35 37  0  0  0  0  0  0  0  0999 V2000
    2.6331    0.6639    0.2369 C   0  0  0  0  0  0  0  0  0  0  0  0
    2.2202   -0.7187    0.7399 C   0  0  0  0  0  0  0  0  0  0  0  0
    2.8325   -1.8269   -0.0047 N   0  0  0  0  0  0  0  0  0  0  0  0
    1.9921   -2.5882   -0.9251 C   0  0  0  0  0  0  0  0  0  0  0  0
    1.5301   -1.8199   -2.1483 C   0  0  1  0  0  0  0  0  0  0  0  0
    0.3560   -2.3387   -2.9390 C   0  0  0  0  0  0  0  0  0  0  0  0
    0.2264   -1.0585   -2.1547 C   0  0  0  0  0  0  0  0  0  0  0  0
    4.1045   -2.1739    0.3596 C   0  0  0  0  0  0  0  0  0  0  0  0
    4.6947   -1.6211    1.2785 O   0  0  0  0  0  0  0  0  0  0  0  0
    4.8115   -3.2964   -0.3744 C   0  0  0  0  0  0  0  0  0  0  0  0
    5.3534   -4.3306    0.3490 C   0  0  0  0  0  0  0  0  0  0  0  0
    6.1433   -5.3657   -0.2574 C   0  0  0  0  0  0  0  0  0  0  0  0
    6.4111   -5.3153   -1.5918 C   0  0  0  0  0  0  0  0  0  0  0  0
    5.9041   -4.2680   -2.3182 N   0  0  0  0  0  0  0  0  0  0  0  0
    6.0910   -4.0073   -3.7003 C   0  0  0  0  0  0  0  0  0  0  0  0
    6.7178   -4.6685   -4.4995 O   0  0  0  0  0  0  0  0  0  0  0  0
    5.3803   -2.8407   -3.8415 N   0  0  0  0  0  0  0  0  0  0  0  0
    5.2902   -2.3302   -4.7109 H   0  0  0  0  0  0  0  0  0  0  0  0
    4.7873   -2.3674   -2.6978 N   0  0  0  0  0  0  0  0  0  0  0  0
    5.1137   -3.2449   -1.7806 C   0  0  0  0  0  0  0  0  0  0  0  0
    2.1428    1.4469    0.8380 H   0  0  0  0  0  0  0  0  0  0  0  0
    2.3506    0.8108   -0.8166 H   0  0  0  0  0  0  0  0  0  0  0  0
    3.7210    0.7945    0.3323 H   0  0  0  0  0  0  0  0  0  0  0  0
    1.1290   -0.8424    0.6759 H   0  0  0  0  0  0  0  0  0  0  0  0
    2.5111   -0.8227    1.7963 H   0  0  0  0  0  0  0  0  0  0  0  0
    1.1077   -2.9603   -0.3717 H   0  0  0  0  0  0  0  0  0  0  0  0
    2.5507   -3.4788   -1.2428 H   0  0  0  0  0  0  0  0  0  0  0  0
    2.3603   -1.3957   -2.7201 H   0  0  0  0  0  0  0  0  0  0  0  0
   -0.1678   -3.2227   -2.5603 H   0  0  0  0  0  0  0  0  0  0  0  0
    0.4025   -2.2852   -4.0302 H   0  0  0  0  0  0  0  0  0  0  0  0
   -0.3917   -1.0790   -1.2515 H   0  0  0  0  0  0  0  0  0  0  0  0
    0.1824   -0.1119   -2.7007 H   0  0  0  0  0  0  0  0  0  0  0  0
    5.1822   -4.3554    1.4274 H   0  0  0  0  0  0  0  0  0  0  0  0
    6.5381   -6.1831    0.3465 H   0  0  0  0  0  0  0  0  0  0  0  0
    7.0054   -6.0342   -2.1585 H   0  0  0  0  0  0  0  0  0  0  0  0
  1  2  1  0
  1 21  1  0
  1 22  1  0
  1 23  1  0
  2  3  1  0
  2 24  1  0
  2 25  1  0
  3  4  1  0
  3  8  1  0
  4  5  1  0
  4 26  1  0
  4 27  1  0
  5  6  1  0
  5  7  1  0
  5 28  1  6
  6  7  1  0
  6 29  1  0
  6 30  1  0
  7 31  1  0
  7 32  1  0
  8  9  2  0
  8 10  1  0
 10 11  2  0
 10 20  1  0
 11 12  1  0
 11 33  1  0
 12 13  2  0
 12 34  1  0
 13 14  1  0
 13 35  1  0
 14 15  1  0
 14 20  1  0
 15 16  2  0
 15 17  1  0
 17 18  1  0
 17 19  1  0
 19 20  2  0
M  END

