
     RDKit          3D

 66 66  0  0  0  0  0  0  0  0999 V2000
    1.2320   -1.4875    1.4225 C   0  0  0  0  0  0  0  0  0  0  0  0
    2.7175   -1.2801    1.1245 C   0  0  0  0  0  0  0  0  0  0  0  0
    3.1227   -1.6984   -0.2931 C   0  0  0  0  0  0  0  0  0  0  0  0
    4.6103   -1.4831   -0.5891 C   0  0  0  0  0  0  0  0  0  0  0  0
    5.0894   -1.9904   -1.9628 C   0  0  1  0  0  0  0  0  0  0  0  0
    4.3774   -1.3459   -3.1722 C   0  0  0  0  0  0  0  0  0  0  0  0
    4.5058    0.1747   -3.2991 C   0  0  0  0  0  0  0  0  0  0  0  0
    6.6124   -1.8613   -2.0500 C   0  0  0  0  0  0  0  0  0  0  0  0
    7.0745   -2.3962   -3.2706 O   0  0  0  0  0  0  0  0  0  0  0  0
    8.4651   -2.3277   -3.4431 C   0  0  0  0  0  0  0  0  0  0  0  0
    8.7998   -2.9212   -4.8014 C   0  0  0  0  0  0  0  0  0  0  0  0
   10.1992   -2.8566   -4.9704 O   0  0  0  0  0  0  0  0  0  0  0  0
   10.7049   -3.4010   -6.1744 C   0  0  1  0  0  0  0  0  0  0  0  0
   10.3385   -2.5997   -7.3196 N   0  0  0  0  0  0  0  0  0  0  0  0
    9.3590   -2.9026   -8.2252 C   0  0  0  0  0  0  0  0  0  0  0  0
    9.0207   -2.1923   -9.1446 O   0  0  0  0  0  0  0  0  0  0  0  0
   12.2491   -3.5514   -6.0041 C   0  0  1  0  0  0  0  0  0  0  0  0
   12.8446   -2.1578   -5.7108 C   0  0  0  0  0  0  0  0  0  0  0  0
   12.5512   -4.4873   -4.8067 C   0  0  0  0  0  0  0  0  0  0  0  0
   12.2945   -5.9702   -5.0960 C   0  0  0  0  0  0  0  0  0  0  0  0
   13.1097   -6.4470   -6.3024 C   0  0  0  0  0  0  0  0  0  0  0  0
   12.8345   -5.6379   -7.5927 C   0  0  2  0  0  0  0  0  0  0  0  0
   11.4743   -6.0390   -8.2005 C   0  0  0  0  0  0  0  0  0  0  0  0
   13.9165   -5.9713   -8.6388 C   0  0  0  0  0  0  0  0  0  0  0  0
   12.9379   -4.1171   -7.2781 C   0  0  0  0  0  0  0  0  0  0  0  0
    0.9774   -1.1802    2.4494 H   0  0  0  0  0  0  0  0  0  0  0  0
    0.9451   -2.5468    1.3114 H   0  0  0  0  0  0  0  0  0  0  0  0
    0.5989   -0.9027    0.7340 H   0  0  0  0  0  0  0  0  0  0  0  0
    3.3232   -1.8446    1.8569 H   0  0  0  0  0  0  0  0  0  0  0  0
    2.9794   -0.2171    1.2773 H   0  0  0  0  0  0  0  0  0  0  0  0
    2.5072   -1.1388   -1.0195 H   0  0  0  0  0  0  0  0  0  0  0  0
    2.8704   -2.7648   -0.4442 H   0  0  0  0  0  0  0  0  0  0  0  0
    5.1999   -1.9933    0.1946 H   0  0  0  0  0  0  0  0  0  0  0  0
    4.8492   -0.4089   -0.4829 H   0  0  0  0  0  0  0  0  0  0  0  0
    4.8710   -3.0735   -2.0117 H   0  0  0  0  0  0  0  0  0  0  0  0
    3.3090   -1.6187   -3.1380 H   0  0  0  0  0  0  0  0  0  0  0  0
    4.7802   -1.8182   -4.0818 H   0  0  0  0  0  0  0  0  0  0  0  0
    4.0747    0.7063   -2.4350 H   0  0  0  0  0  0  0  0  0  0  0  0
    3.9783    0.5334   -4.1973 H   0  0  0  0  0  0  0  0  0  0  0  0
    5.5567    0.4926   -3.3943 H   0  0  0  0  0  0  0  0  0  0  0  0
    7.0795   -2.3986   -1.1982 H   0  0  0  0  0  0  0  0  0  0  0  0
    6.9210   -0.7984   -1.9583 H   0  0  0  0  0  0  0  0  0  0  0  0
    8.9998   -2.8898   -2.6495 H   0  0  0  0  0  0  0  0  0  0  0  0
    8.8294   -1.2805   -3.3991 H   0  0  0  0  0  0  0  0  0  0  0  0
    8.2674   -2.3541   -5.5874 H   0  0  0  0  0  0  0  0  0  0  0  0
    8.4413   -3.9690   -4.8470 H   0  0  0  0  0  0  0  0  0  0  0  0
   10.2439   -4.3893   -6.3371 H   0  0  0  0  0  0  0  0  0  0  0  0
   10.7662   -1.6833   -7.4273 H   0  0  0  0  0  0  0  0  0  0  0  0
    8.9001   -3.9035   -8.0291 H   0  0  0  0  0  0  0  0  0  0  0  0
   12.3650   -1.6986   -4.8353 H   0  0  0  0  0  0  0  0  0  0  0  0
   12.7312   -1.4712   -6.5667 H   0  0  0  0  0  0  0  0  0  0  0  0
   13.9243   -2.2399   -5.5121 H   0  0  0  0  0  0  0  0  0  0  0  0
   11.9786   -4.1520   -3.9298 H   0  0  0  0  0  0  0  0  0  0  0  0
   13.6189   -4.3666   -4.5507 H   0  0  0  0  0  0  0  0  0  0  0  0
   11.2181   -6.1536   -5.2608 H   0  0  0  0  0  0  0  0  0  0  0  0
   12.5607   -6.5674   -4.2077 H   0  0  0  0  0  0  0  0  0  0  0  0
   12.9315   -7.5193   -6.4948 H   0  0  0  0  0  0  0  0  0  0  0  0
   14.1826   -6.3538   -6.0530 H   0  0  0  0  0  0  0  0  0  0  0  0
   11.5074   -7.0855   -8.5454 H   0  0  0  0  0  0  0  0  0  0  0  0
   11.2256   -5.4112   -9.0713 H   0  0  0  0  0  0  0  0  0  0  0  0
   10.6405   -5.9688   -7.4876 H   0  0  0  0  0  0  0  0  0  0  0  0
   13.9093   -7.0456   -8.8859 H   0  0  0  0  0  0  0  0  0  0  0  0
   14.9239   -5.7184   -8.2696 H   0  0  0  0  0  0  0  0  0  0  0  0
   13.7516   -5.4120   -9.5748 H   0  0  0  0  0  0  0  0  0  0  0  0
   12.6174   -3.5402   -8.1616 H   0  0  0  0  0  0  0  0  0  0  0  0
   14.0122   -3.8967   -7.1542 H   0  0  0  0  0  0  0  0  0  0  0  0
  1  2  1  0
  1 26  1  0
  1 27  1  0
  1 28  1  0
  2  3  1  0
  2 29  1  0
  2 30  1  0
  3  4  1  0
  3 31  1  0
  3 32  1  0
  4  5  1  0
  4 33  1  0
  4 34  1  0
  5  6  1  0
  5  8  1  0
  5 35  1  1
  6  7  1  0
  6 36  1  0
  6 37  1  0
  7 38  1  0
  7 39  1  0
  7 40  1  0
  8  9  1  0
  8 41  1  0
  8 42  1  0
  9 10  1  0
 10 11  1  0
 10 43  1  0
 10 44  1  0
 11 12  1  0
 11 45  1  0
 11 46  1  0
 12 13  1  0
 13 14  1  0
 13 17  1  0
 13 47  1  6
 14 15  1  0
 14 48  1  0
 15 16  2  0
 15 49  1  0
 17 18  1  1
 17 19  1  0
 17 25  1  0
 18 50  1  0
 18 51  1  0
 18 52  1  0
 19 20  1  0
 19 53  1  0
 19 54  1  0
 20 21  1  0
 20 55  1  0
 20 56  1  0
 21 22  1  0
 21 57  1  0
 21 58  1  0
 22 23  1  6
 22 24  1  0
 22 25  1  0
 23 59  1  0
 23 60  1  0
 23 61  1  0
 24 62  1  0
 24 63  1  0
 24 64  1  0
 25 65  1  0
 25 66  1  0
M  END

