
     RDKit          3D

 20 21  0  0  0  0  0  0  0  0999 V2000
    1.2421    0.8713   -0.4175 Cl  0  0  0  0  0  0  0  0  0  0  0  0
    2.8789    0.1466    0.1011 C   0  0  0  0  0  0  0  0  0  0  0  0
    3.2193   -1.0863   -0.6323 C   0  0  0  0  0  0  0  0  0  0  0  0
    3.0308   -2.3998   -0.1528 C   0  0  0  0  0  0  0  0  0  0  0  0
    3.3052   -3.4958   -0.9579 C   0  0  0  0  0  0  0  0  0  0  0  0
    3.7653   -3.3466   -2.3095 C   0  0  0  0  0  0  0  0  0  0  0  0
    4.0566   -4.3905   -3.1970 C   0  0  0  0  0  0  0  0  0  0  0  0
    4.4990   -4.1580   -4.5110 C   0  0  0  0  0  0  0  0  0  0  0  0
    4.6542   -2.8440   -4.9473 C   0  0  0  0  0  0  0  0  0  0  0  0
    5.2011   -2.5384   -6.5781 Cl  0  0  0  0  0  0  0  0  0  0  0  0
    4.3870   -1.7430   -4.1221 C   0  0  0  0  0  0  0  0  0  0  0  0
    3.9436   -1.9784   -2.8024 C   0  0  0  0  0  0  0  0  0  0  0  0
    3.6637   -1.0487   -1.9035 N   0  0  0  0  0  0  0  0  0  0  0  0
    2.7912   -0.0559    1.1736 H   0  0  0  0  0  0  0  0  0  0  0  0
    3.6023    0.9525   -0.0724 H   0  0  0  0  0  0  0  0  0  0  0  0
    2.6583   -2.5157    0.8680 H   0  0  0  0  0  0  0  0  0  0  0  0
    3.1626   -4.5057   -0.5677 H   0  0  0  0  0  0  0  0  0  0  0  0
    3.9295   -5.4165   -2.8421 H   0  0  0  0  0  0  0  0  0  0  0  0
    4.7185   -4.9874   -5.1832 H   0  0  0  0  0  0  0  0  0  0  0  0
    4.5117   -0.7242   -4.4834 H   0  0  0  0  0  0  0  0  0  0  0  0
  1  2  1  0
  2  3  1  0
  2 14  1  0
  2 15  1  0
  3  4  2  0
  3 13  1  0
  4  5  1  0
  4 16  1  0
  5  6  2  0
  5 17  1  0
  6  7  1  0
  6 12  1  0
  7  8  2  0
  7 18  1  0
  8  9  1  0
  8 19  1  0
  9 10  1  0
  9 11  2  0
 11 12  1  0
 11 20  1  0
 12 13  2  0
M  END

