
     RDKit          3D

 34 36  0  0  0  0  0  0  0  0999 V2000
    1.2029    0.0421   -0.2913 C   0  0  0  0  0  0  0  0  0  0  0  0
    2.6900    0.0450   -0.0674 C   0  0  0  0  0  0  0  0  0  0  0  0
    3.4517   -1.1234    0.0202 C   0  0  0  0  0  0  0  0  0  0  0  0
    4.8476   -1.1026    0.2308 C   0  0  0  0  0  0  0  0  0  0  0  0
    5.5507    0.0931    0.3640 C   0  0  0  0  0  0  0  0  0  0  0  0
    4.7960    1.2687    0.2767 C   0  0  0  0  0  0  0  0  0  0  0  0
    5.1247    2.6088    0.3603 N   0  0  0  0  0  0  0  0  0  0  0  0
    6.0451    3.0101    0.4934 H   0  0  0  0  0  0  0  0  0  0  0  0
    3.9578    3.3258    0.1996 C   0  0  0  0  0  0  0  0  0  0  0  0
    3.9288    4.8301    0.2243 C   0  0  0  0  0  0  0  0  0  0  0  0
    4.6409    5.4763   -0.9487 C   0  0  0  0  0  0  0  0  0  0  0  0
    3.9514    5.9821   -2.0578 C   0  0  0  0  0  0  0  0  0  0  0  0
    4.6261    6.5662   -3.1336 C   0  0  0  0  0  0  0  0  0  0  0  0
    6.0203    6.6528   -3.1160 C   0  0  0  0  0  0  0  0  0  0  0  0
    6.7809    7.2979   -4.2495 C   0  0  1  0  0  0  0  0  0  0  0  0
    5.9886    7.5806   -5.2945 F   0  0  0  0  0  0  0  0  0  0  0  0
    7.3587    8.4498   -3.8597 F   0  0  0  0  0  0  0  0  0  0  0  0
    7.7694    6.4996   -4.6925 F   0  0  0  0  0  0  0  0  0  0  0  0
    6.7406    6.1511   -2.0244 C   0  0  0  0  0  0  0  0  0  0  0  0
    6.0373    5.5780   -0.9760 C   0  0  0  0  0  0  0  0  0  0  0  0
    6.7367    5.0822    0.0726 F   0  0  0  0  0  0  0  0  0  0  0  0
    2.9116    2.5588    0.0222 N   0  0  0  0  0  0  0  0  0  0  0  0
    3.3939    1.2606    0.0658 C   0  0  0  0  0  0  0  0  0  0  0  0
    0.8101   -0.9816   -0.3772 H   0  0  0  0  0  0  0  0  0  0  0  0
    0.9404    0.5948   -1.2083 H   0  0  0  0  0  0  0  0  0  0  0  0
    0.6778    0.5493    0.5349 H   0  0  0  0  0  0  0  0  0  0  0  0
    2.9486   -2.0895   -0.0779 H   0  0  0  0  0  0  0  0  0  0  0  0
    5.3885   -2.0505    0.2906 H   0  0  0  0  0  0  0  0  0  0  0  0
    6.6306    0.1059    0.5275 H   0  0  0  0  0  0  0  0  0  0  0  0
    4.3745    5.1922    1.1663 H   0  0  0  0  0  0  0  0  0  0  0  0
    2.8709    5.1206    0.2207 H   0  0  0  0  0  0  0  0  0  0  0  0
    2.8610    5.9145   -2.0763 H   0  0  0  0  0  0  0  0  0  0  0  0
    4.0683    6.9523   -3.9873 H   0  0  0  0  0  0  0  0  0  0  0  0
    7.8300    6.1960   -1.9817 H   0  0  0  0  0  0  0  0  0  0  0  0
  1  2  1  0
  1 24  1  0
  1 25  1  0
  1 26  1  0
  2  3  2  0
  2 23  1  0
  3  4  1  0
  3 27  1  0
  4  5  2  0
  4 28  1  0
  5  6  1  0
  5 29  1  0
  6  7  1  0
  6 23  2  0
  7  8  1  0
  7  9  1  0
  9 10  1  0
  9 22  2  0
 10 11  1  0
 10 30  1  0
 10 31  1  0
 11 12  2  0
 11 20  1  0
 12 13  1  0
 12 32  1  0
 13 14  2  0
 13 33  1  0
 14 15  1  0
 14 19  1  0
 15 16  1  6
 15 17  1  0
 15 18  1  0
 19 20  2  0
 19 34  1  0
 20 21  1  0
 22 23  1  0
M  END

