
     RDKit          3D

 39 41  0  0  0  0  0  0  0  0999 V2000
    3.8697    1.9247    3.1404 O   0  0  0  0  0  0  0  0  0  0  0  0
    3.8329    1.0762    2.1911 C   0  0  0  0  0  0  0  0  0  0  0  0
    3.3372    1.5028    0.8920 N   0  0  0  0  0  0  0  0  0  0  0  0
    2.7962    2.7030    0.6098 C   0  0  0  0  0  0  0  0  0  0  0  0
    2.3332    3.1936   -0.9549 S   0  0  0  0  0  0  0  0  0  0  0  0
    2.6629    3.5457    1.6618 N   0  0  0  0  0  0  0  0  0  0  0  0
    2.1327    4.8381    1.5075 C   0  0  0  0  0  0  0  0  0  0  0  0
    0.8052    5.0489    1.8794 C   0  0  0  0  0  0  0  0  0  0  0  0
    0.1988    6.3031    1.8082 C   0  0  0  0  0  0  0  0  0  0  0  0
    0.9411    7.4077    1.3507 C   0  0  0  0  0  0  0  0  0  0  0  0
    2.2644    7.2544    0.9968 C   0  0  0  0  0  0  0  0  0  0  0  0
    2.9276    5.9825    1.0809 C   0  0  0  0  0  0  0  0  0  0  0  0
    4.2536    5.9266    0.8109 N   0  0  0  0  0  0  0  0  0  0  0  0
    5.1318    4.7374    0.8654 C   0  0  0  0  0  0  0  0  0  0  0  0
    6.5437    5.3108    0.7700 C   0  0  0  0  0  0  0  0  0  0  0  0
    6.3588    6.5280   -0.1386 C   0  0  0  0  0  0  0  0  0  0  0  0
    5.0077    7.0939    0.3066 C   0  0  0  0  0  0  0  0  0  0  0  0
    4.2494   -0.2578    2.2576 C   0  0  0  0  0  0  0  0  0  0  0  0
    4.8003   -1.0352    3.3001 C   0  0  0  0  0  0  0  0  0  0  0  0
    5.0346   -2.3175    2.7524 C   0  0  0  0  0  0  0  0  0  0  0  0
    4.6368   -2.2887    1.4362 C   0  0  0  0  0  0  0  0  0  0  0  0
    4.1550   -1.0442    1.1112 O   0  0  0  0  0  0  0  0  0  0  0  0
    3.4024    0.8338    0.1333 H   0  0  0  0  0  0  0  0  0  0  0  0
    3.0418    3.1178    2.5668 H   0  0  0  0  0  0  0  0  0  0  0  0
    0.2397    4.1778    2.2104 H   0  0  0  0  0  0  0  0  0  0  0  0
   -0.8479    6.4222    2.0934 H   0  0  0  0  0  0  0  0  0  0  0  0
    0.4758    8.3930    1.2831 H   0  0  0  0  0  0  0  0  0  0  0  0
    2.8218    8.1290    0.6704 H   0  0  0  0  0  0  0  0  0  0  0  0
    4.8825    4.1080   -0.0074 H   0  0  0  0  0  0  0  0  0  0  0  0
    4.9487    4.1484    1.7685 H   0  0  0  0  0  0  0  0  0  0  0  0
    7.2547    4.5728    0.3748 H   0  0  0  0  0  0  0  0  0  0  0  0
    6.9004    5.6183    1.7671 H   0  0  0  0  0  0  0  0  0  0  0  0
    6.3035    6.2130   -1.1929 H   0  0  0  0  0  0  0  0  0  0  0  0
    7.1615    7.2738   -0.0535 H   0  0  0  0  0  0  0  0  0  0  0  0
    4.4596    7.5790   -0.5136 H   0  0  0  0  0  0  0  0  0  0  0  0
    5.1205    7.8307    1.1212 H   0  0  0  0  0  0  0  0  0  0  0  0
    4.9908   -0.6888    4.3107 H   0  0  0  0  0  0  0  0  0  0  0  0
    5.4522   -3.1813    3.2673 H   0  0  0  0  0  0  0  0  0  0  0  0
    4.6264   -3.0281    0.6418 H   0  0  0  0  0  0  0  0  0  0  0  0
  1  2  2  0
  2  3  1  0
  2 18  1  0
  3  4  1  0
  3 23  1  0
  4  5  2  0
  4  6  1  0
  6  7  1  0
  6 24  1  0
  7  8  2  0
  7 12  1  0
  8  9  1  0
  8 25  1  0
  9 10  2  0
  9 26  1  0
 10 11  1  0
 10 27  1  0
 11 12  2  0
 11 28  1  0
 12 13  1  0
 13 14  1  0
 13 17  1  0
 14 15  1  0
 14 29  1  0
 14 30  1  0
 15 16  1  0
 15 31  1  0
 15 32  1  0
 16 17  1  0
 16 33  1  0
 16 34  1  0
 17 35  1  0
 17 36  1  0
 18 19  2  0
 18 22  1  0
 19 20  1  0
 19 37  1  0
 20 21  2  0
 20 38  1  0
 21 22  1  0
 21 39  1  0
M  END

