
     RDKit          3D

 68 72  0  0  0  0  0  0  0  0999 V2000
    3.3785   -3.7157  -10.6212 C   0  0  0  0  0  0  0  0  0  0  0  0
    2.6205   -3.7851   -9.3196 C   0  0  0  0  0  0  0  0  0  0  0  0
    1.2286   -3.9732   -9.2946 C   0  0  0  0  0  0  0  0  0  0  0  0
    0.5313   -4.0223   -8.0890 C   0  0  0  0  0  0  0  0  0  0  0  0
    1.2135   -3.8838   -6.8702 C   0  0  0  0  0  0  0  0  0  0  0  0
    0.4149   -3.9465   -5.6176 C   0  0  0  0  0  0  0  0  0  0  0  0
   -0.7765   -4.1122   -5.5599 O   0  0  0  0  0  0  0  0  0  0  0  0
    1.2092   -3.7979   -4.5081 O   0  0  0  0  0  0  0  0  0  0  0  0
    0.6945   -3.8022   -3.2229 C   0  0  0  0  0  0  0  0  0  0  0  0
   -0.4607   -3.0573   -2.8821 C   0  0  0  0  0  0  0  0  0  0  0  0
   -0.8813   -3.0330   -1.5723 C   0  0  0  0  0  0  0  0  0  0  0  0
   -0.1899   -3.7476   -0.5559 C   0  0  0  0  0  0  0  0  0  0  0  0
   -0.6385   -3.7466    0.7941 C   0  0  0  0  0  0  0  0  0  0  0  0
    0.0296   -4.4640    1.7633 C   0  0  0  0  0  0  0  0  0  0  0  0
    1.1759   -5.2213    1.4178 C   0  0  0  0  0  0  0  0  0  0  0  0
    1.6415   -5.2403    0.1190 C   0  0  0  0  0  0  0  0  0  0  0  0
    0.9838   -4.4983   -0.9048 C   0  0  0  0  0  0  0  0  0  0  0  0
    1.4309   -4.4976   -2.2715 C   0  0  0  0  0  0  0  0  0  0  0  0
    2.6311   -5.2614   -2.7136 C   0  0  0  0  0  0  0  0  0  0  0  0
    3.8512   -5.0861   -2.3546 N   0  0  0  0  0  0  0  0  0  0  0  0
    4.1555   -4.0794   -1.5077 N   0  0  0  0  0  0  0  0  0  0  0  0
    5.4288   -3.8273   -1.0422 C   0  0  0  0  0  0  0  0  0  0  0  0
    5.6572   -2.8076   -0.4188 O   0  0  0  0  0  0  0  0  0  0  0  0
    6.5436   -4.8602   -1.3128 C   0  0  2  0  0  0  0  0  0  0  0  0
    7.3704   -4.5210   -0.6658 H   0  0  0  0  0  0  0  0  0  0  0  0
    7.0061   -4.8565   -2.7658 C   0  0  0  0  0  0  0  0  0  0  0  0
    6.1814   -6.1912   -0.9839 O   0  0  0  0  0  0  0  0  0  0  0  0
    5.9704   -6.5505    0.3117 C   0  0  0  0  0  0  0  0  0  0  0  0
    5.6122   -7.8934    0.5232 C   0  0  0  0  0  0  0  0  0  0  0  0
    5.3809   -8.3661    1.8097 C   0  0  0  0  0  0  0  0  0  0  0  0
    5.4949   -7.5249    2.9367 C   0  0  0  0  0  0  0  0  0  0  0  0
    5.2444   -8.0333    4.3111 C   0  0  0  0  0  0  0  0  0  0  0  0
    5.5942   -9.3480    4.6765 C   0  0  0  0  0  0  0  0  0  0  0  0
    5.3568   -9.8267    5.9666 C   0  0  0  0  0  0  0  0  0  0  0  0
    4.7657   -9.0019    6.9283 C   0  0  0  0  0  0  0  0  0  0  0  0
    4.4141   -7.6933    6.5839 C   0  0  0  0  0  0  0  0  0  0  0  0
    4.6487   -7.2169    5.2926 C   0  0  0  0  0  0  0  0  0  0  0  0
    5.8520   -6.1868    2.7029 C   0  0  0  0  0  0  0  0  0  0  0  0
    6.0871   -5.6923    1.4160 C   0  0  0  0  0  0  0  0  0  0  0  0
    2.6067   -3.6970   -6.8818 C   0  0  0  0  0  0  0  0  0  0  0  0
    3.2941   -3.6501   -8.0922 C   0  0  0  0  0  0  0  0  0  0  0  0
    2.7458   -3.9953  -11.4760 H   0  0  0  0  0  0  0  0  0  0  0  0
    4.2551   -4.3835  -10.6103 H   0  0  0  0  0  0  0  0  0  0  0  0
    3.7559   -2.6948  -10.8035 H   0  0  0  0  0  0  0  0  0  0  0  0
    0.6844   -4.0840  -10.2364 H   0  0  0  0  0  0  0  0  0  0  0  0
   -0.5502   -4.1695   -8.0707 H   0  0  0  0  0  0  0  0  0  0  0  0
   -1.0028   -2.5162   -3.6553 H   0  0  0  0  0  0  0  0  0  0  0  0
   -1.7693   -2.4568   -1.2996 H   0  0  0  0  0  0  0  0  0  0  0  0
   -1.5308   -3.1680    1.0481 H   0  0  0  0  0  0  0  0  0  0  0  0
   -0.3256   -4.4565    2.7966 H   0  0  0  0  0  0  0  0  0  0  0  0
    1.6963   -5.7998    2.1849 H   0  0  0  0  0  0  0  0  0  0  0  0
    2.5196   -5.8384   -0.1298 H   0  0  0  0  0  0  0  0  0  0  0  0
    2.4846   -6.0561   -3.4550 H   0  0  0  0  0  0  0  0  0  0  0  0
    3.4515   -3.3886   -1.2309 H   0  0  0  0  0  0  0  0  0  0  0  0
    7.8739   -5.5243   -2.8727 H   0  0  0  0  0  0  0  0  0  0  0  0
    7.3054   -3.8409   -3.0662 H   0  0  0  0  0  0  0  0  0  0  0  0
    6.2003   -5.2107   -3.4218 H   0  0  0  0  0  0  0  0  0  0  0  0
    5.5142   -8.5461   -0.3466 H   0  0  0  0  0  0  0  0  0  0  0  0
    5.0805   -9.4081    1.9420 H   0  0  0  0  0  0  0  0  0  0  0  0
    6.0822   -9.9975    3.9460 H   0  0  0  0  0  0  0  0  0  0  0  0
    5.6453  -10.8492    6.2247 H   0  0  0  0  0  0  0  0  0  0  0  0
    4.5808   -9.3759    7.9384 H   0  0  0  0  0  0  0  0  0  0  0  0
    3.9445   -7.0396    7.3239 H   0  0  0  0  0  0  0  0  0  0  0  0
    4.3442   -6.2000    5.0338 H   0  0  0  0  0  0  0  0  0  0  0  0
    5.9734   -5.5057    3.5484 H   0  0  0  0  0  0  0  0  0  0  0  0
    6.3540   -4.6425    1.2932 H   0  0  0  0  0  0  0  0  0  0  0  0
    3.1453   -3.5933   -5.9393 H   0  0  0  0  0  0  0  0  0  0  0  0
    4.3784   -3.5070   -8.0878 H   0  0  0  0  0  0  0  0  0  0  0  0
  1  2  1  0
  1 42  1  0
  1 43  1  0
  1 44  1  0
  2  3  2  0
  2 41  1  0
  3  4  1  0
  3 45  1  0
  4  5  2  0
  4 46  1  0
  5  6  1  0
  5 40  1  0
  6  7  2  0
  6  8  1  0
  8  9  1  0
  9 10  2  0
  9 18  1  0
 10 11  1  0
 10 47  1  0
 11 12  2  0
 11 48  1  0
 12 13  1  0
 12 17  1  0
 13 14  2  0
 13 49  1  0
 14 15  1  0
 14 50  1  0
 15 16  2  0
 15 51  1  0
 16 17  1  0
 16 52  1  0
 17 18  2  0
 18 19  1  0
 19 20  2  0
 19 53  1  0
 20 21  1  0
 21 22  1  0
 21 54  1  0
 22 23  2  0
 22 24  1  0
 24 25  1  1
 24 26  1  0
 24 27  1  0
 26 55  1  0
 26 56  1  0
 26 57  1  0
 27 28  1  0
 28 29  2  0
 28 39  1  0
 29 30  1  0
 29 58  1  0
 30 31  2  0
 30 59  1  0
 31 32  1  0
 31 38  1  0
 32 33  2  0
 32 37  1  0
 33 34  1  0
 33 60  1  0
 34 35  2  0
 34 61  1  0
 35 36  1  0
 35 62  1  0
 36 37  2  0
 36 63  1  0
 37 64  1  0
 38 39  2  0
 38 65  1  0
 39 66  1  0
 40 41  2  0
 40 67  1  0
 41 68  1  0
M  END

