
     RDKit          3D

 42 45  0  0  0  0  0  0  0  0999 V2000
    0.8052   -1.3248    0.0924 C   0  0  0  0  0  0  0  0  0  0  0  0
    1.9509   -0.5208   -0.0195 C   0  0  0  0  0  0  0  0  0  0  0  0
    1.8134    0.8591   -0.0697 C   0  0  0  0  0  0  0  0  0  0  0  0
    0.5088    1.3943   -0.0053 C   0  0  0  0  0  0  0  0  0  0  0  0
    0.3981    2.7377   -0.0456 O   0  0  0  0  0  0  0  0  0  0  0  0
   -0.9078    3.3505    0.0408 C   0  0  1  0  0  0  0  0  0  0  0  0
   -0.6797    4.7665    0.5751 C   0  0  0  0  0  0  0  0  0  0  0  0
    0.0384    5.6454   -0.4642 C   0  0  0  0  0  0  0  0  0  0  0  0
   -0.6295    5.6846   -1.7676 N   0  0  0  0  0  0  0  0  0  0  0  0
   -1.8153    6.5350   -1.8090 C   0  0  0  0  0  0  0  0  0  0  0  0
   -2.2503    6.8592   -3.2056 C   0  0  0  0  0  0  0  0  0  0  0  0
   -3.4516    6.6378   -3.7107 N   0  0  0  0  0  0  0  0  0  0  0  0
   -3.4270    7.1041   -4.9745 N   0  0  0  0  0  0  0  0  0  0  0  0
   -2.2671    7.5865   -5.2652 N   0  0  0  0  0  0  0  0  0  0  0  0
   -1.4991    7.4456   -4.1693 N   0  0  0  0  0  0  0  0  0  0  0  0
   -0.1341    7.9052   -4.1095 C   0  0  1  0  0  0  0  0  0  0  0  0
    0.5637    8.3101   -5.3747 C   0  0  0  0  0  0  0  0  0  0  0  0
    0.1748    9.3605   -4.3652 C   0  0  0  0  0  0  0  0  0  0  0  0
   -0.8269    4.3293   -2.3008 C   0  0  0  0  0  0  0  0  0  0  0  0
   -1.5754    3.3913   -1.3397 C   0  0  0  0  0  0  0  0  0  0  0  0
   -0.5793    0.6432    0.0967 N   0  0  0  0  0  0  0  0  0  0  0  0
   -0.4312   -0.6878    0.1469 C   0  0  0  0  0  0  0  0  0  0  0  0
    0.8734   -2.4134    0.1339 H   0  0  0  0  0  0  0  0  0  0  0  0
    2.9448   -0.9738   -0.0659 H   0  0  0  0  0  0  0  0  0  0  0  0
    2.6686    1.5316   -0.1526 H   0  0  0  0  0  0  0  0  0  0  0  0
   -1.5186    2.7556    0.7347 H   0  0  0  0  0  0  0  0  0  0  0  0
   -0.0932    4.7211    1.5070 H   0  0  0  0  0  0  0  0  0  0  0  0
   -1.6609    5.2004    0.8331 H   0  0  0  0  0  0  0  0  0  0  0  0
    1.0549    5.2470   -0.6186 H   0  0  0  0  0  0  0  0  0  0  0  0
    0.1500    6.6755   -0.0884 H   0  0  0  0  0  0  0  0  0  0  0  0
   -1.5701    7.4756   -1.2858 H   0  0  0  0  0  0  0  0  0  0  0  0
   -2.7114    6.1193   -1.3069 H   0  0  0  0  0  0  0  0  0  0  0  0
    0.4131    7.3565   -3.3399 H   0  0  0  0  0  0  0  0  0  0  0  0
   -0.0217    8.2592   -6.2950 H   0  0  0  0  0  0  0  0  0  0  0  0
    1.6164    8.0316   -5.4729 H   0  0  0  0  0  0  0  0  0  0  0  0
   -0.6719   10.0047   -4.6177 H   0  0  0  0  0  0  0  0  0  0  0  0
    0.9498    9.8311   -3.7536 H   0  0  0  0  0  0  0  0  0  0  0  0
    0.1694    3.9078   -2.5146 H   0  0  0  0  0  0  0  0  0  0  0  0
   -1.3589    4.3927   -3.2624 H   0  0  0  0  0  0  0  0  0  0  0  0
   -1.6304    2.3735   -1.7542 H   0  0  0  0  0  0  0  0  0  0  0  0
   -2.6179    3.7285   -1.2078 H   0  0  0  0  0  0  0  0  0  0  0  0
   -1.3545   -1.2724    0.2324 H   0  0  0  0  0  0  0  0  0  0  0  0
  1  2  2  0
  1 22  1  0
  1 23  1  0
  2  3  1  0
  2 24  1  0
  3  4  2  0
  3 25  1  0
  4  5  1  0
  4 21  1  0
  5  6  1  0
  6  7  1  0
  6 20  1  0
  6 26  1  1
  7  8  1  0
  7 27  1  0
  7 28  1  0
  8  9  1  0
  8 29  1  0
  8 30  1  0
  9 10  1  0
  9 19  1  0
 10 11  1  0
 10 31  1  0
 10 32  1  0
 11 12  2  0
 11 15  1  0
 12 13  1  0
 13 14  2  0
 14 15  1  0
 15 16  1  0
 16 17  1  0
 16 18  1  0
 16 33  1  1
 17 18  1  0
 17 34  1  0
 17 35  1  0
 18 36  1  0
 18 37  1  0
 19 20  1  0
 19 38  1  0
 19 39  1  0
 20 40  1  0
 20 41  1  0
 21 22  2  0
 22 42  1  0
M  END

