
     RDKit          3D

102107  0  0  0  0  0  0  0  0999 V2000
    1.3809   -0.7739    0.0873 C   0  0  0  0  0  0  0  0  0  0  0  0
    2.8431   -0.5370   -0.3349 C   0  0  1  0  0  0  0  0  0  0  0  0
    3.4199   -1.8184   -0.9682 C   0  0  0  0  0  0  0  0  0  0  0  0
    3.0379    0.9983   -1.4759 Si  0  0  1  0  0  4  0  0  0  0  0  0
    2.5374    0.4625   -3.1763 C   0  0  0  0  0  0  0  0  0  0  0  0
    2.1594    0.0959   -4.2877 C   0  0  0  0  0  0  0  0  0  0  0  0
    1.7165   -0.3223   -5.5528 C   0  0  0  0  0  0  0  0  0  0  0  0
    1.6278   -1.7303   -5.8476 C   0  0  0  0  0  0  0  0  0  0  0  0
    1.9651   -2.6140   -4.9077 N   0  0  0  0  0  0  0  0  0  0  0  0
    1.8697   -3.9277   -5.2127 C   0  0  0  0  0  0  0  0  0  0  0  0
    2.2164   -4.9089   -4.2471 C   0  0  0  0  0  0  0  0  0  0  0  0
    2.1191   -6.2571   -4.5508 C   0  0  0  0  0  0  0  0  0  0  0  0
    1.6731   -6.6764   -5.8274 C   0  0  0  0  0  0  0  0  0  0  0  0
    1.3273   -5.7452   -6.7932 C   0  0  0  0  0  0  0  0  0  0  0  0
    1.4154   -4.3558   -6.5164 C   0  0  0  0  0  0  0  0  0  0  0  0
    1.0763   -3.4525   -7.4644 N   0  0  0  0  0  0  0  0  0  0  0  0
    1.1739   -2.1592   -7.1565 C   0  0  0  0  0  0  0  0  0  0  0  0
    0.8221   -1.1693   -8.1459 C   0  0  0  0  0  0  0  0  0  0  0  0
    0.4089   -1.5898   -9.4215 C   0  0  0  0  0  0  0  0  0  0  0  0
    0.0600   -1.9926  -10.5304 C   0  0  0  0  0  0  0  0  0  0  0  0
   -0.4577   -2.6973  -12.1657 Si  0  0  1  0  0  4  0  0  0  0  0  0
    0.5101   -1.7583  -13.5323 C   0  0  1  0  0  0  0  0  0  0  0  0
    0.1941   -0.2528  -13.5390 C   0  0  0  0  0  0  0  0  0  0  0  0
    2.0282   -1.9972  -13.4583 C   0  0  0  0  0  0  0  0  0  0  0  0
    0.0512   -4.5451  -12.1357 C   0  0  1  0  0  0  0  0  0  0  0  0
   -0.3777   -5.2960  -10.8625 C   0  0  0  0  0  0  0  0  0  0  0  0
   -0.3463   -5.3163  -13.4072 C   0  0  0  0  0  0  0  0  0  0  0  0
   -2.3361   -2.3195  -12.3315 C   0  0  1  0  0  0  0  0  0  0  0  0
   -2.8991   -2.5854  -13.7389 C   0  0  0  0  0  0  0  0  0  0  0  0
   -3.2045   -2.9826  -11.2493 C   0  0  0  0  0  0  0  0  0  0  0  0
    0.8926    0.2332   -7.8402 C   0  0  0  0  0  0  0  0  0  0  0  0
    0.5352    1.1271   -8.7685 N   0  0  0  0  0  0  0  0  0  0  0  0
    0.6128    2.4310   -8.4618 C   0  0  0  0  0  0  0  0  0  0  0  0
    1.0785    2.8559   -7.1675 C   0  0  0  0  0  0  0  0  0  0  0  0
    1.1638    4.2542   -6.8731 C   0  0  0  0  0  0  0  0  0  0  0  0
    0.8026    5.1912   -7.8051 C   0  0  0  0  0  0  0  0  0  0  0  0
    0.3241    4.8130   -9.1048 C   0  0  0  0  0  0  0  0  0  0  0  0
   -0.0555    5.7789  -10.0679 C   0  0  0  0  0  0  0  0  0  0  0  0
   -0.5188    5.3934  -11.3152 C   0  0  0  0  0  0  0  0  0  0  0  0
   -0.6190    4.0231  -11.6417 C   0  0  0  0  0  0  0  0  0  0  0  0
   -0.2535    3.0558  -10.7199 C   0  0  0  0  0  0  0  0  0  0  0  0
    0.2242    3.4256   -9.4411 C   0  0  0  0  0  0  0  0  0  0  0  0
    1.4342    1.9596   -6.2289 N   0  0  0  0  0  0  0  0  0  0  0  0
    1.3492    0.6611   -6.5357 C   0  0  0  0  0  0  0  0  0  0  0  0
    1.8066    2.3782   -0.9565 C   0  0  1  0  0  0  0  0  0  0  0  0
    2.0945    2.9154    0.4567 C   0  0  0  0  0  0  0  0  0  0  0  0
    1.6576    3.5245   -1.9712 C   0  0  0  0  0  0  0  0  0  0  0  0
    4.8416    1.6749   -1.5317 C   0  0  1  0  0  0  0  0  0  0  0  0
    5.9420    0.6151   -1.3619 C   0  0  0  0  0  0  0  0  0  0  0  0
    5.1137    2.5338   -2.7800 C   0  0  0  0  0  0  0  0  0  0  0  0
    1.3041   -1.6670    0.7317 H   0  0  0  0  0  0  0  0  0  0  0  0
    0.7338   -0.9519   -0.7883 H   0  0  0  0  0  0  0  0  0  0  0  0
    0.9557    0.0711    0.6503 H   0  0  0  0  0  0  0  0  0  0  0  0
    3.4271   -0.3100    0.5784 H   0  0  0  0  0  0  0  0  0  0  0  0
    2.8997   -2.0670   -1.9078 H   0  0  0  0  0  0  0  0  0  0  0  0
    3.3022   -2.6743   -0.2802 H   0  0  0  0  0  0  0  0  0  0  0  0
    4.4910   -1.7324   -1.2015 H   0  0  0  0  0  0  0  0  0  0  0  0
    2.5575   -4.5636   -3.2692 H   0  0  0  0  0  0  0  0  0  0  0  0
    2.3880   -7.0050   -3.8006 H   0  0  0  0  0  0  0  0  0  0  0  0
    1.6021   -7.7439   -6.0503 H   0  0  0  0  0  0  0  0  0  0  0  0
    0.9815   -6.0472   -7.7836 H   0  0  0  0  0  0  0  0  0  0  0  0
    0.1481   -2.1859  -14.4871 H   0  0  0  0  0  0  0  0  0  0  0  0
    0.5137    0.2237  -12.5974 H   0  0  0  0  0  0  0  0  0  0  0  0
   -0.8804   -0.0478  -13.6685 H   0  0  0  0  0  0  0  0  0  0  0  0
    0.7267    0.2562  -14.3613 H   0  0  0  0  0  0  0  0  0  0  0  0
    2.4457   -1.6403  -12.5018 H   0  0  0  0  0  0  0  0  0  0  0  0
    2.5497   -1.4539  -14.2657 H   0  0  0  0  0  0  0  0  0  0  0  0
    2.2925   -3.0615  -13.5587 H   0  0  0  0  0  0  0  0  0  0  0  0
    1.1560   -4.4890  -12.1149 H   0  0  0  0  0  0  0  0  0  0  0  0
   -1.4712   -5.4229  -10.8103 H   0  0  0  0  0  0  0  0  0  0  0  0
   -0.0549   -4.7729   -9.9487 H   0  0  0  0  0  0  0  0  0  0  0  0
    0.0639   -6.3085  -10.8468 H   0  0  0  0  0  0  0  0  0  0  0  0
   -1.4390   -5.4444  -13.4796 H   0  0  0  0  0  0  0  0  0  0  0  0
    0.0952   -6.3283  -13.4044 H   0  0  0  0  0  0  0  0  0  0  0  0
   -0.0101   -4.8177  -14.3312 H   0  0  0  0  0  0  0  0  0  0  0  0
   -2.3768   -1.2275  -12.1582 H   0  0  0  0  0  0  0  0  0  0  0  0
   -2.8945   -3.6592  -13.9869 H   0  0  0  0  0  0  0  0  0  0  0  0
   -2.3354   -2.0620  -14.5276 H   0  0  0  0  0  0  0  0  0  0  0  0
   -3.9474   -2.2449  -13.8076 H   0  0  0  0  0  0  0  0  0  0  0  0
   -3.2612   -4.0747  -11.3866 H   0  0  0  0  0  0  0  0  0  0  0  0
   -4.2391   -2.5990  -11.2909 H   0  0  0  0  0  0  0  0  0  0  0  0
   -2.8207   -2.7944  -10.2345 H   0  0  0  0  0  0  0  0  0  0  0  0
    1.5263    4.5369   -5.8830 H   0  0  0  0  0  0  0  0  0  0  0  0
    0.8726    6.2561   -7.5676 H   0  0  0  0  0  0  0  0  0  0  0  0
    0.0215    6.8390   -9.8112 H   0  0  0  0  0  0  0  0  0  0  0  0
   -0.8085    6.1503  -12.0485 H   0  0  0  0  0  0  0  0  0  0  0  0
   -0.9868    3.7260  -12.6271 H   0  0  0  0  0  0  0  0  0  0  0  0
   -0.3253    1.9926  -10.9527 H   0  0  0  0  0  0  0  0  0  0  0  0
    0.8373    1.8472   -0.9236 H   0  0  0  0  0  0  0  0  0  0  0  0
    3.0521    3.4619    0.4964 H   0  0  0  0  0  0  0  0  0  0  0  0
    2.1408    2.1158    1.2141 H   0  0  0  0  0  0  0  0  0  0  0  0
    1.3090    3.6226    0.7764 H   0  0  0  0  0  0  0  0  0  0  0  0
    2.5556    4.1638   -1.9963 H   0  0  0  0  0  0  0  0  0  0  0  0
    0.8101    4.1770   -1.6966 H   0  0  0  0  0  0  0  0  0  0  0  0
    1.4813    3.1543   -2.9934 H   0  0  0  0  0  0  0  0  0  0  0  0
    4.8855    2.3396   -0.6467 H   0  0  0  0  0  0  0  0  0  0  0  0
    5.9509   -0.0990   -2.2019 H   0  0  0  0  0  0  0  0  0  0  0  0
    5.8334    0.0380   -0.4308 H   0  0  0  0  0  0  0  0  0  0  0  0
    6.9360    1.0954   -1.3356 H   0  0  0  0  0  0  0  0  0  0  0  0
    5.0786    1.9242   -3.6974 H   0  0  0  0  0  0  0  0  0  0  0  0
    6.1166    2.9923   -2.7240 H   0  0  0  0  0  0  0  0  0  0  0  0
    4.3850    3.3479   -2.9053 H   0  0  0  0  0  0  0  0  0  0  0  0
  1  2  1  0
  1 51  1  0
  1 52  1  0
  1 53  1  0
  2  3  1  0
  2  4  1  0
  2 54  1  1
  3 55  1  0
  3 56  1  0
  3 57  1  0
  4  5  1  6
  4 45  1  0
  4 48  1  0
  5  6  3  0
  6  7  1  0
  7  8  2  0
  7 44  1  0
  8  9  1  0
  8 17  1  0
  9 10  2  0
 10 11  1  0
 10 15  1  0
 11 12  2  0
 11 58  1  0
 12 13  1  0
 12 59  1  0
 13 14  2  0
 13 60  1  0
 14 15  1  0
 14 61  1  0
 15 16  2  0
 16 17  1  0
 17 18  2  0
 18 19  1  0
 18 31  1  0
 19 20  3  0
 21 20  1  1
 21 22  1  0
 21 25  1  0
 21 28  1  0
 22 23  1  0
 22 24  1  0
 22 62  1  6
 23 63  1  0
 23 64  1  0
 23 65  1  0
 24 66  1  0
 24 67  1  0
 24 68  1  0
 25 26  1  0
 25 27  1  0
 25 69  1  1
 26 70  1  0
 26 71  1  0
 26 72  1  0
 27 73  1  0
 27 74  1  0
 27 75  1  0
 28 29  1  0
 28 30  1  0
 28 76  1  1
 29 77  1  0
 29 78  1  0
 29 79  1  0
 30 80  1  0
 30 81  1  0
 30 82  1  0
 31 32  1  0
 31 44  2  0
 32 33  2  0
 33 34  1  0
 33 42  1  0
 34 35  1  0
 34 43  2  0
 35 36  2  0
 35 83  1  0
 36 37  1  0
 36 84  1  0
 37 38  1  0
 37 42  2  0
 38 39  2  0
 38 85  1  0
 39 40  1  0
 39 86  1  0
 40 41  2  0
 40 87  1  0
 41 42  1  0
 41 88  1  0
 43 44  1  0
 45 46  1  0
 45 47  1  0
 45 89  1  1
 46 90  1  0
 46 91  1  0
 46 92  1  0
 47 93  1  0
 47 94  1  0
 47 95  1  0
 48 49  1  0
 48 50  1  0
 48 96  1  1
 49 97  1  0
 49 98  1  0
 49 99  1  0
 50100  1  0
 50101  1  0
 50102  1  0
M  END

