
     RDKit          3D

 82 85  0  0  0  0  0  0  0  0999 V2000
   17.4042  -10.0953   -4.9649 C   0  0  0  0  0  0  0  0  0  0  0  0
   16.9596   -8.7784   -4.6414 O   0  0  0  0  0  0  0  0  0  0  0  0
   15.7449   -8.4263   -5.1089 C   0  0  0  0  0  0  0  0  0  0  0  0
   15.0522   -9.1618   -5.7683 O   0  0  0  0  0  0  0  0  0  0  0  0
   15.3897   -7.0136   -4.6929 C   0  0  0  0  0  0  0  0  0  0  0  0
   14.0321   -6.5486   -5.2133 C   0  0  0  0  0  0  0  0  0  0  0  0
   13.6749   -5.1280   -4.7671 C   0  0  0  0  0  0  0  0  0  0  0  0
   12.3081   -4.6799   -5.2934 C   0  0  0  0  0  0  0  0  0  0  0  0
   11.8700   -3.3857   -4.7761 N   0  0  0  0  0  0  0  0  0  0  0  0
   12.6529   -2.2259   -5.2165 C   0  0  0  0  0  0  0  0  0  0  0  0
   12.5461   -1.8628   -6.6931 C   0  0  0  0  0  0  0  0  0  0  0  0
   11.5332   -1.0051   -7.1571 C   0  0  0  0  0  0  0  0  0  0  0  0
   11.4081   -0.7051   -8.5121 C   0  0  0  0  0  0  0  0  0  0  0  0
   12.3005   -1.2569   -9.4438 C   0  0  0  0  0  0  0  0  0  0  0  0
   12.1226   -0.9020  -10.8829 C   0  0  0  0  0  0  0  0  0  0  0  0
   11.2573   -0.1699  -11.3060 O   0  0  0  0  0  0  0  0  0  0  0  0
   13.0391   -1.4892  -11.6778 O   0  0  0  0  0  0  0  0  0  0  0  0
   12.9392   -1.2033  -13.0714 C   0  0  0  0  0  0  0  0  0  0  0  0
   13.3228   -2.1062   -8.9942 C   0  0  0  0  0  0  0  0  0  0  0  0
   13.4400   -2.3999   -7.6352 C   0  0  0  0  0  0  0  0  0  0  0  0
   10.4362   -3.1597   -4.7855 C   0  0  0  0  0  0  0  0  0  0  0  0
    9.6096   -4.0824   -3.8365 C   0  0  2  0  0  0  0  0  0  0  0  0
    8.6868   -3.5039   -3.6114 H   0  0  0  0  0  0  0  0  0  0  0  0
   10.2770   -4.3674   -2.6299 O   0  0  0  0  0  0  0  0  0  0  0  0
   10.5187   -3.2684   -1.7803 C   0  0  0  0  0  0  0  0  0  0  0  0
   11.1310   -3.7438   -0.4839 C   0  0  0  0  0  0  0  0  0  0  0  0
   12.0220   -4.8269   -0.4611 C   0  0  0  0  0  0  0  0  0  0  0  0
   12.6247   -5.2342    0.7293 C   0  0  0  0  0  0  0  0  0  0  0  0
   12.3410   -4.5591    1.9212 C   0  0  0  0  0  0  0  0  0  0  0  0
   12.9060   -5.0532    3.0746 O   0  0  0  0  0  0  0  0  0  0  0  0
   13.3901   -4.2295    4.0577 C   0  0  0  0  0  0  0  0  0  0  0  0
   13.2794   -4.6842    5.3776 C   0  0  0  0  0  0  0  0  0  0  0  0
   13.8122   -3.9336    6.4257 C   0  0  0  0  0  0  0  0  0  0  0  0
   14.4516   -2.7206    6.1520 C   0  0  0  0  0  0  0  0  0  0  0  0
   15.1137   -1.7708    7.4645 Cl  0  0  0  0  0  0  0  0  0  0  0  0
   14.5671   -2.2622    4.8366 C   0  0  0  0  0  0  0  0  0  0  0  0
   14.0401   -3.0176    3.7871 C   0  0  0  0  0  0  0  0  0  0  0  0
   11.4470   -3.4820    1.9213 C   0  0  0  0  0  0  0  0  0  0  0  0
   10.8515   -3.0856    0.7215 C   0  0  0  0  0  0  0  0  0  0  0  0
    9.1362   -5.4013   -4.4445 C   0  0  0  0  0  0  0  0  0  0  0  0
    9.3253   -6.6193   -3.7755 C   0  0  0  0  0  0  0  0  0  0  0  0
    8.8516   -7.8120   -4.3300 C   0  0  0  0  0  0  0  0  0  0  0  0
    8.1734   -7.8166   -5.5502 C   0  0  0  0  0  0  0  0  0  0  0  0
    7.9714   -6.5986   -6.2043 C   0  0  0  0  0  0  0  0  0  0  0  0
    7.1076   -6.5695   -7.7276 Cl  0  0  0  0  0  0  0  0  0  0  0  0
    8.4413   -5.3998   -5.6642 C   0  0  0  0  0  0  0  0  0  0  0  0
   18.3971  -10.2045   -4.5110 H   0  0  0  0  0  0  0  0  0  0  0  0
   17.4667  -10.2327   -6.0553 H   0  0  0  0  0  0  0  0  0  0  0  0
   16.7157  -10.8532   -4.5607 H   0  0  0  0  0  0  0  0  0  0  0  0
   16.2042   -6.3511   -5.0352 H   0  0  0  0  0  0  0  0  0  0  0  0
   15.4338   -6.9722   -3.5902 H   0  0  0  0  0  0  0  0  0  0  0  0
   13.2554   -7.2560   -4.8773 H   0  0  0  0  0  0  0  0  0  0  0  0
   14.0270   -6.6127   -6.3148 H   0  0  0  0  0  0  0  0  0  0  0  0
   14.4696   -4.4370   -5.1001 H   0  0  0  0  0  0  0  0  0  0  0  0
   13.6594   -5.0658   -3.6649 H   0  0  0  0  0  0  0  0  0  0  0  0
   11.5692   -5.4291   -4.9812 H   0  0  0  0  0  0  0  0  0  0  0  0
   12.3087   -4.7062   -6.4053 H   0  0  0  0  0  0  0  0  0  0  0  0
   13.7093   -2.4081   -4.9676 H   0  0  0  0  0  0  0  0  0  0  0  0
   12.3347   -1.3611   -4.6106 H   0  0  0  0  0  0  0  0  0  0  0  0
   10.8391   -0.5534   -6.4429 H   0  0  0  0  0  0  0  0  0  0  0  0
   10.6247   -0.0362   -8.8736 H   0  0  0  0  0  0  0  0  0  0  0  0
   13.7524   -1.7567  -13.5570 H   0  0  0  0  0  0  0  0  0  0  0  0
   13.0464   -0.1239  -13.2587 H   0  0  0  0  0  0  0  0  0  0  0  0
   11.9656   -1.5278  -13.4694 H   0  0  0  0  0  0  0  0  0  0  0  0
   14.0249   -2.5283   -9.7143 H   0  0  0  0  0  0  0  0  0  0  0  0
   14.2511   -3.0511   -7.2982 H   0  0  0  0  0  0  0  0  0  0  0  0
    9.9814   -3.2168   -5.7973 H   0  0  0  0  0  0  0  0  0  0  0  0
   10.2754   -2.1218   -4.4519 H   0  0  0  0  0  0  0  0  0  0  0  0
    9.5744   -2.7242   -1.5720 H   0  0  0  0  0  0  0  0  0  0  0  0
   11.2081   -2.5538   -2.2713 H   0  0  0  0  0  0  0  0  0  0  0  0
   12.2375   -5.3572   -1.3903 H   0  0  0  0  0  0  0  0  0  0  0  0
   13.3152   -6.0796    0.7568 H   0  0  0  0  0  0  0  0  0  0  0  0
   12.7749   -5.6338    5.5659 H   0  0  0  0  0  0  0  0  0  0  0  0
   13.7289   -4.2834    7.4560 H   0  0  0  0  0  0  0  0  0  0  0  0
   15.0768   -1.3187    4.6343 H   0  0  0  0  0  0  0  0  0  0  0  0
   14.1394   -2.6662    2.7588 H   0  0  0  0  0  0  0  0  0  0  0  0
   11.2069   -2.9687    2.8542 H   0  0  0  0  0  0  0  0  0  0  0  0
   10.1435   -2.2516    0.7322 H   0  0  0  0  0  0  0  0  0  0  0  0
    9.8427   -6.6208   -2.8171 H   0  0  0  0  0  0  0  0  0  0  0  0
    9.0109   -8.7554   -3.8015 H   0  0  0  0  0  0  0  0  0  0  0  0
    7.8004   -8.7424   -5.9907 H   0  0  0  0  0  0  0  0  0  0  0  0
    8.2499   -4.4712   -6.2049 H   0  0  0  0  0  0  0  0  0  0  0  0
  1  2  1  0
  1 47  1  0
  1 48  1  0
  1 49  1  0
  2  3  1  0
  3  4  2  0
  3  5  1  0
  5  6  1  0
  5 50  1  0
  5 51  1  0
  6  7  1  0
  6 52  1  0
  6 53  1  0
  7  8  1  0
  7 54  1  0
  7 55  1  0
  8  9  1  0
  8 56  1  0
  8 57  1  0
  9 10  1  0
  9 21  1  0
 10 11  1  0
 10 58  1  0
 10 59  1  0
 11 12  2  0
 11 20  1  0
 12 13  1  0
 12 60  1  0
 13 14  2  0
 13 61  1  0
 14 15  1  0
 14 19  1  0
 15 16  2  0
 15 17  1  0
 17 18  1  0
 18 62  1  0
 18 63  1  0
 18 64  1  0
 19 20  2  0
 19 65  1  0
 20 66  1  0
 21 22  1  0
 21 67  1  0
 21 68  1  0
 22 23  1  1
 22 24  1  0
 22 40  1  0
 24 25  1  0
 25 26  1  0
 25 69  1  0
 25 70  1  0
 26 27  2  0
 26 39  1  0
 27 28  1  0
 27 71  1  0
 28 29  2  0
 28 72  1  0
 29 30  1  0
 29 38  1  0
 30 31  1  0
 31 32  2  0
 31 37  1  0
 32 33  1  0
 32 73  1  0
 33 34  2  0
 33 74  1  0
 34 35  1  0
 34 36  1  0
 36 37  2  0
 36 75  1  0
 37 76  1  0
 38 39  2  0
 38 77  1  0
 39 78  1  0
 40 41  2  0
 40 46  1  0
 41 42  1  0
 41 79  1  0
 42 43  2  0
 42 80  1  0
 43 44  1  0
 43 81  1  0
 44 45  1  0
 44 46  2  0
 46 82  1  0
M  END

