
     RDKit          3D

 51 55  0  0  0  0  0  0  0  0999 V2000
    3.3451   -0.0076    3.2207 C   0  0  0  0  0  0  0  0  0  0  0  0
    3.9351   -0.0713    1.8494 C   0  0  0  0  0  0  0  0  0  0  0  0
    4.0242   -1.1276    0.9677 C   0  0  0  0  0  0  0  0  0  0  0  0
    4.6552   -0.6367   -0.2226 C   0  0  0  0  0  0  0  0  0  0  0  0
    4.9122   -1.2602   -1.3913 N   0  0  0  0  0  0  0  0  0  0  0  0
    5.4409   -0.4756   -2.3154 C   0  0  0  0  0  0  0  0  0  0  0  0
    5.7820    0.8200   -2.2009 N   0  0  0  0  0  0  0  0  0  0  0  0
    5.5755    1.4600   -1.0464 C   0  0  0  0  0  0  0  0  0  0  0  0
    5.9288    2.8009   -0.9558 N   0  0  0  0  0  0  0  0  0  0  0  0
    6.3536    3.4882   -2.1748 C   0  0  0  0  0  0  0  0  0  0  0  0
    6.0824    4.9921   -2.0597 C   0  0  0  0  0  0  0  0  0  0  0  0
    6.7069    5.6355   -0.8057 C   0  0  2  0  0  0  0  0  0  0  0  0
    8.2281    5.8211   -0.9846 C   0  0  0  0  0  0  0  0  0  0  0  0
    8.8794    6.5072    0.1353 N   0  0  0  0  0  0  0  0  0  0  0  0
    9.5418    5.7297    0.9988 N   0  0  0  0  0  0  0  0  0  0  0  0
   10.1654    6.2704    2.0154 C   0  0  0  0  0  0  0  0  0  0  0  0
   10.9083    5.3771    2.9519 C   0  0  1  0  0  0  0  0  0  0  0  0
   10.4158    3.9729    3.2399 C   0  0  0  0  0  0  0  0  0  0  0  0
   11.6581    4.1668    2.4279 C   0  0  0  0  0  0  0  0  0  0  0  0
   10.1463    7.6930    2.2168 C   0  0  0  0  0  0  0  0  0  0  0  0
    9.4739    8.4862    1.3406 C   0  0  0  0  0  0  0  0  0  0  0  0
    8.7676    7.9122    0.2039 C   0  0  0  0  0  0  0  0  0  0  0  0
    8.1301    8.5347   -0.6347 O   0  0  0  0  0  0  0  0  0  0  0  0
    6.3202    4.8071    0.4337 C   0  0  0  0  0  0  0  0  0  0  0  0
    6.5886    3.3119    0.2465 C   0  0  0  0  0  0  0  0  0  0  0  0
    4.9554    0.7332   -0.0011 C   0  0  0  0  0  0  0  0  0  0  0  0
    4.5103    1.0474    1.2707 N   0  0  0  0  0  0  0  0  0  0  0  0
    4.4410    1.9799    1.6540 H   0  0  0  0  0  0  0  0  0  0  0  0
    2.9442   -0.9886    3.5089 H   0  0  0  0  0  0  0  0  0  0  0  0
    2.5191    0.7230    3.2760 H   0  0  0  0  0  0  0  0  0  0  0  0
    4.0963    0.2868    3.9740 H   0  0  0  0  0  0  0  0  0  0  0  0
    3.6705   -2.1416    1.1378 H   0  0  0  0  0  0  0  0  0  0  0  0
    5.6406   -0.9292   -3.2946 H   0  0  0  0  0  0  0  0  0  0  0  0
    5.8083    3.0552   -3.0216 H   0  0  0  0  0  0  0  0  0  0  0  0
    7.4266    3.2901   -2.3760 H   0  0  0  0  0  0  0  0  0  0  0  0
    4.9906    5.1447   -2.0245 H   0  0  0  0  0  0  0  0  0  0  0  0
    6.4427    5.4975   -2.9713 H   0  0  0  0  0  0  0  0  0  0  0  0
    6.2910    6.6492   -0.6969 H   0  0  0  0  0  0  0  0  0  0  0  0
    8.3974    6.4359   -1.8800 H   0  0  0  0  0  0  0  0  0  0  0  0
    8.7554    4.8660   -1.1015 H   0  0  0  0  0  0  0  0  0  0  0  0
   11.3703    5.9126    3.7858 H   0  0  0  0  0  0  0  0  0  0  0  0
    9.5107    3.6611    2.7118 H   0  0  0  0  0  0  0  0  0  0  0  0
   10.5069    3.6022    4.2649 H   0  0  0  0  0  0  0  0  0  0  0  0
   11.5907    3.9898    1.3511 H   0  0  0  0  0  0  0  0  0  0  0  0
   12.6268    3.9321    2.8781 H   0  0  0  0  0  0  0  0  0  0  0  0
   10.6768    8.1205    3.0718 H   0  0  0  0  0  0  0  0  0  0  0  0
    9.4281    9.5723    1.4401 H   0  0  0  0  0  0  0  0  0  0  0  0
    5.2426    4.9503    0.6252 H   0  0  0  0  0  0  0  0  0  0  0  0
    6.8557    5.1641    1.3277 H   0  0  0  0  0  0  0  0  0  0  0  0
    6.2553    2.7502    1.1280 H   0  0  0  0  0  0  0  0  0  0  0  0
    7.6820    3.1322    0.1788 H   0  0  0  0  0  0  0  0  0  0  0  0
  1  2  1  0
  1 29  1  0
  1 30  1  0
  1 31  1  0
  2  3  2  0
  2 27  1  0
  3  4  1  0
  3 32  1  0
  4  5  2  0
  4 26  1  0
  5  6  1  0
  6  7  2  0
  6 33  1  0
  7  8  1  0
  8  9  1  0
  8 26  2  0
  9 10  1  0
  9 25  1  0
 10 11  1  0
 10 34  1  0
 10 35  1  0
 11 12  1  0
 11 36  1  0
 11 37  1  0
 12 13  1  0
 12 24  1  0
 12 38  1  1
 13 14  1  0
 13 39  1  0
 13 40  1  0
 14 15  1  0
 14 22  1  0
 15 16  2  0
 16 17  1  0
 16 20  1  0
 17 18  1  0
 17 19  1  0
 17 41  1  1
 18 19  1  0
 18 42  1  0
 18 43  1  0
 19 44  1  0
 19 45  1  0
 20 21  2  0
 20 46  1  0
 21 22  1  0
 21 47  1  0
 22 23  2  0
 24 25  1  0
 24 48  1  0
 24 49  1  0
 25 50  1  0
 25 51  1  0
 26 27  1  0
 27 28  1  0
M  END

