
     RDKit          3D

 74 78  0  0  0  0  0  0  0  0999 V2000
    0.9003    0.0955    0.3202 C   0  0  0  0  0  0  0  0  0  0  0  0
    2.4059    0.1182    0.2192 C   0  0  0  0  0  0  0  0  0  0  0  0
    3.0610    0.7498   -0.8397 C   0  0  0  0  0  0  0  0  0  0  0  0
    4.4614    0.7878   -0.9368 C   0  0  0  0  0  0  0  0  0  0  0  0
    5.0463    1.5111   -2.1353 C   0  0  0  0  0  0  0  0  0  0  0  0
    5.2643    0.1493    0.0469 C   0  0  0  0  0  0  0  0  0  0  0  0
    6.8513    0.1748   -0.0493 B   0  0  0  0  0  0  0  0  0  0  0  0
    7.5925    1.5495   -0.1517 C   0  0  0  0  0  0  0  0  0  0  0  0
    7.0117    2.7546    0.3078 C   0  0  0  0  0  0  0  0  0  0  0  0
    7.6736    3.9759    0.2381 C   0  0  0  0  0  0  0  0  0  0  0  0
    8.9599    4.0610   -0.3367 C   0  0  0  0  0  0  0  0  0  0  0  0
    9.6316    5.2965   -0.4265 N   0  0  0  0  0  0  0  0  0  0  0  0
   11.0493    5.3649   -0.3172 C   0  0  0  0  0  0  0  0  0  0  0  0
   11.7925    6.1607   -1.2067 C   0  0  0  0  0  0  0  0  0  0  0  0
   13.1808    6.2447   -1.0868 C   0  0  0  0  0  0  0  0  0  0  0  0
   13.8525    5.5279   -0.0916 C   0  0  0  0  0  0  0  0  0  0  0  0
   13.1173    4.7310    0.7921 C   0  0  0  0  0  0  0  0  0  0  0  0
   11.7274    4.6546    0.6896 C   0  0  0  0  0  0  0  0  0  0  0  0
    8.9011    6.5034   -0.6234 C   0  0  0  0  0  0  0  0  0  0  0  0
    9.1781    7.6376    0.1594 C   0  0  0  0  0  0  0  0  0  0  0  0
    8.4750    8.8258   -0.0478 C   0  0  0  0  0  0  0  0  0  0  0  0
    7.4771    8.8989   -1.0249 C   0  0  0  0  0  0  0  0  0  0  0  0
    7.1946    7.7705   -1.8018 C   0  0  0  0  0  0  0  0  0  0  0  0
    7.9044    6.5837   -1.6118 C   0  0  0  0  0  0  0  0  0  0  0  0
    9.5536    2.8749   -0.8196 C   0  0  0  0  0  0  0  0  0  0  0  0
    8.8888    1.6585   -0.7082 C   0  0  0  0  0  0  0  0  0  0  0  0
    7.7122   -1.1629   -0.0476 C   0  0  0  0  0  0  0  0  0  0  0  0
    7.4978   -2.1784   -1.0192 C   0  0  0  0  0  0  0  0  0  0  0  0
    6.4465   -2.0437   -2.1007 C   0  0  0  0  0  0  0  0  0  0  0  0
    8.2830   -3.3409   -1.0095 C   0  0  0  0  0  0  0  0  0  0  0  0
    9.2733   -3.5618   -0.0479 C   0  0  0  0  0  0  0  0  0  0  0  0
   10.1015   -4.8235   -0.0402 C   0  0  0  0  0  0  0  0  0  0  0  0
    9.4714   -2.5667    0.9164 C   0  0  0  0  0  0  0  0  0  0  0  0
    8.7291   -1.3787    0.9256 C   0  0  0  0  0  0  0  0  0  0  0  0
    9.0482   -0.3674    2.0103 C   0  0  0  0  0  0  0  0  0  0  0  0
    4.5970   -0.5154    1.1177 C   0  0  0  0  0  0  0  0  0  0  0  0
    5.3565   -1.2331    2.2132 C   0  0  0  0  0  0  0  0  0  0  0  0
    3.1996   -0.5059    1.1904 C   0  0  0  0  0  0  0  0  0  0  0  0
    0.4287    0.6178   -0.5256 H   0  0  0  0  0  0  0  0  0  0  0  0
    0.5541    0.5786    1.2496 H   0  0  0  0  0  0  0  0  0  0  0  0
    0.5149   -0.9380    0.3360 H   0  0  0  0  0  0  0  0  0  0  0  0
    2.4653    1.2312   -1.6220 H   0  0  0  0  0  0  0  0  0  0  0  0
    4.3591    1.4560   -2.9939 H   0  0  0  0  0  0  0  0  0  0  0  0
    6.0154    1.1042   -2.4532 H   0  0  0  0  0  0  0  0  0  0  0  0
    5.2119    2.5793   -1.9171 H   0  0  0  0  0  0  0  0  0  0  0  0
    6.0146    2.7257    0.7560 H   0  0  0  0  0  0  0  0  0  0  0  0
    7.1999    4.8770    0.6312 H   0  0  0  0  0  0  0  0  0  0  0  0
   11.2743    6.7135   -1.9926 H   0  0  0  0  0  0  0  0  0  0  0  0
   13.7429    6.8679   -1.7872 H   0  0  0  0  0  0  0  0  0  0  0  0
   14.9398    5.5906   -0.0042 H   0  0  0  0  0  0  0  0  0  0  0  0
   13.6283    4.1722    1.5805 H   0  0  0  0  0  0  0  0  0  0  0  0
   11.1577    4.0432    1.3921 H   0  0  0  0  0  0  0  0  0  0  0  0
    9.9486    7.5811    0.9308 H   0  0  0  0  0  0  0  0  0  0  0  0
    8.7022    9.6988    0.5697 H   0  0  0  0  0  0  0  0  0  0  0  0
    6.9244    9.8284   -1.1807 H   0  0  0  0  0  0  0  0  0  0  0  0
    6.4228    7.8167   -2.5746 H   0  0  0  0  0  0  0  0  0  0  0  0
    7.6913    5.7096   -2.2302 H   0  0  0  0  0  0  0  0  0  0  0  0
   10.5411    2.9173   -1.2820 H   0  0  0  0  0  0  0  0  0  0  0  0
    9.3802    0.7575   -1.0857 H   0  0  0  0  0  0  0  0  0  0  0  0
    6.5986   -1.1402   -2.7133 H   0  0  0  0  0  0  0  0  0  0  0  0
    5.4327   -1.9734   -1.6780 H   0  0  0  0  0  0  0  0  0  0  0  0
    6.4702   -2.9072   -2.7818 H   0  0  0  0  0  0  0  0  0  0  0  0
    8.1070   -4.1021   -1.7762 H   0  0  0  0  0  0  0  0  0  0  0  0
    9.7880   -5.5193   -0.8327 H   0  0  0  0  0  0  0  0  0  0  0  0
   10.0197   -5.3516    0.9246 H   0  0  0  0  0  0  0  0  0  0  0  0
   11.1716   -4.6015   -0.1923 H   0  0  0  0  0  0  0  0  0  0  0  0
   10.2314   -2.7191    1.6901 H   0  0  0  0  0  0  0  0  0  0  0  0
    9.5121   -0.8606    2.8781 H   0  0  0  0  0  0  0  0  0  0  0  0
    8.1610    0.1738    2.3675 H   0  0  0  0  0  0  0  0  0  0  0  0
    9.7541    0.3986    1.6494 H   0  0  0  0  0  0  0  0  0  0  0  0
    6.0682   -0.5677    2.7275 H   0  0  0  0  0  0  0  0  0  0  0  0
    5.9413   -2.0771    1.8171 H   0  0  0  0  0  0  0  0  0  0  0  0
    4.6674   -1.6260    2.9753 H   0  0  0  0  0  0  0  0  0  0  0  0
    2.7123   -1.0109    2.0309 H   0  0  0  0  0  0  0  0  0  0  0  0
  1  2  1  0
  1 39  1  0
  1 40  1  0
  1 41  1  0
  2  3  2  0
  2 38  1  0
  3  4  1  0
  3 42  1  0
  4  5  1  0
  4  6  2  0
  5 43  1  0
  5 44  1  0
  5 45  1  0
  6  7  1  0
  6 36  1  0
  7  8  1  0
  7 27  1  0
  8  9  2  0
  8 26  1  0
  9 10  1  0
  9 46  1  0
 10 11  2  0
 10 47  1  0
 11 12  1  0
 11 25  1  0
 12 13  1  0
 12 19  1  0
 13 14  2  0
 13 18  1  0
 14 15  1  0
 14 48  1  0
 15 16  2  0
 15 49  1  0
 16 17  1  0
 16 50  1  0
 17 18  2  0
 17 51  1  0
 18 52  1  0
 19 20  2  0
 19 24  1  0
 20 21  1  0
 20 53  1  0
 21 22  2  0
 21 54  1  0
 22 23  1  0
 22 55  1  0
 23 24  2  0
 23 56  1  0
 24 57  1  0
 25 26  2  0
 25 58  1  0
 26 59  1  0
 27 28  2  0
 27 34  1  0
 28 29  1  0
 28 30  1  0
 29 60  1  0
 29 61  1  0
 29 62  1  0
 30 31  2  0
 30 63  1  0
 31 32  1  0
 31 33  1  0
 32 64  1  0
 32 65  1  0
 32 66  1  0
 33 34  2  0
 33 67  1  0
 34 35  1  0
 35 68  1  0
 35 69  1  0
 35 70  1  0
 36 37  1  0
 36 38  2  0
 37 71  1  0
 37 72  1  0
 37 73  1  0
 38 74  1  0
M  END

