
     RDKit          3D

 52 56  0  0  0  0  0  0  0  0999 V2000
    3.2928   -4.4510   -1.6556 N   0  0  0  0  0  0  0  0  0  0  0  0
    3.8681   -3.4484   -1.7314 C   0  0  0  0  0  0  0  0  0  0  0  0
    4.6132   -2.1914   -1.8014 C   0  0  0  0  0  0  0  0  0  0  0  0
    5.5948   -2.0306   -0.6248 C   0  0  0  0  0  0  0  0  0  0  0  0
    6.3013   -0.7667   -0.7031 N   0  0  0  0  0  0  0  0  0  0  0  0
    7.6393   -0.5585   -0.8321 C   0  0  0  0  0  0  0  0  0  0  0  0
    7.8371    0.8197   -0.8781 C   0  0  0  0  0  0  0  0  0  0  0  0
    9.1027    1.5556   -1.0077 C   0  0  0  0  0  0  0  0  0  0  0  0
    9.1242    2.8838   -1.4783 C   0  0  0  0  0  0  0  0  0  0  0  0
   10.3153    3.5903   -1.6155 C   0  0  0  0  0  0  0  0  0  0  0  0
   11.5304    2.9796   -1.2751 C   0  0  0  0  0  0  0  0  0  0  0  0
   12.7409    3.7040   -1.4105 N   0  0  0  0  0  0  0  0  0  0  0  0
   12.7502    5.0563   -1.2610 N   0  0  0  0  0  0  0  0  0  0  0  0
   13.9395    5.5200   -1.4231 N   0  0  0  0  0  0  0  0  0  0  0  0
   14.7826    4.4637   -1.6888 C   0  0  0  0  0  0  0  0  0  0  0  0
   16.0903    4.5095   -1.9386 N   0  0  0  0  0  0  0  0  0  0  0  0
   16.6434    3.3203   -2.1914 C   0  0  0  0  0  0  0  0  0  0  0  0
   17.9844    3.2461   -2.4102 N   0  0  0  0  0  0  0  0  0  0  0  0
   18.8765    4.3835   -2.4670 C   0  0  1  0  0  0  0  0  0  0  0  0
   20.2853    4.0638   -1.9241 C   0  0  0  0  0  0  0  0  0  0  0  0
   21.1576    5.1574   -2.5409 C   0  0  0  0  0  0  0  0  0  0  0  0
   20.6519    5.2375   -3.9942 C   0  0  2  0  0  0  0  0  0  0  0  0
   21.0207    6.4033   -4.6931 O   0  0  0  0  0  0  0  0  0  0  0  0
   19.1231    4.9848   -3.8856 C   0  0  0  0  0  0  0  0  0  0  0  0
   15.9853    2.1187   -2.2553 N   0  0  0  0  0  0  0  0  0  0  0  0
   14.6913    2.0850   -2.0131 C   0  0  0  0  0  0  0  0  0  0  0  0
   14.0193    3.2774   -1.6859 C   0  0  0  0  0  0  0  0  0  0  0  0
   11.5346    1.6650   -0.7908 C   0  0  0  0  0  0  0  0  0  0  0  0
   10.3345    0.9670   -0.6653 C   0  0  0  0  0  0  0  0  0  0  0  0
    6.5162    1.3431   -0.7674 C   0  0  0  0  0  0  0  0  0  0  0  0
    5.6077    0.3824   -0.6601 N   0  0  0  0  0  0  0  0  0  0  0  0
    3.9087   -1.3449   -1.7941 H   0  0  0  0  0  0  0  0  0  0  0  0
    5.1594   -2.1515   -2.7582 H   0  0  0  0  0  0  0  0  0  0  0  0
    6.3406   -2.8377   -0.6258 H   0  0  0  0  0  0  0  0  0  0  0  0
    5.0452   -2.0785    0.3283 H   0  0  0  0  0  0  0  0  0  0  0  0
    8.3399   -1.3884   -0.8967 H   0  0  0  0  0  0  0  0  0  0  0  0
    8.1903    3.3698   -1.7679 H   0  0  0  0  0  0  0  0  0  0  0  0
   10.3195    4.6150   -1.9874 H   0  0  0  0  0  0  0  0  0  0  0  0
   18.3244    2.3300   -2.6795 H   0  0  0  0  0  0  0  0  0  0  0  0
   18.4169    5.1577   -1.8371 H   0  0  0  0  0  0  0  0  0  0  0  0
   20.6120    3.0740   -2.2941 H   0  0  0  0  0  0  0  0  0  0  0  0
   20.3146    4.0254   -0.8247 H   0  0  0  0  0  0  0  0  0  0  0  0
   22.2392    4.9659   -2.4760 H   0  0  0  0  0  0  0  0  0  0  0  0
   20.9625    6.1234   -2.0384 H   0  0  0  0  0  0  0  0  0  0  0  0
   21.1132    4.4136   -4.5645 H   0  0  0  0  0  0  0  0  0  0  0  0
   20.6277    7.1622   -4.2397 H   0  0  0  0  0  0  0  0  0  0  0  0
   18.7645    4.3037   -4.6724 H   0  0  0  0  0  0  0  0  0  0  0  0
   18.5729    5.9309   -4.0137 H   0  0  0  0  0  0  0  0  0  0  0  0
   14.1857    1.1157   -2.0879 H   0  0  0  0  0  0  0  0  0  0  0  0
   12.4683    1.1951   -0.4784 H   0  0  0  0  0  0  0  0  0  0  0  0
   10.3576   -0.0477   -0.2618 H   0  0  0  0  0  0  0  0  0  0  0  0
    6.2045    2.3870   -0.7413 H   0  0  0  0  0  0  0  0  0  0  0  0
  1  2  3  0
  2  3  1  0
  3  4  1  0
  3 32  1  0
  3 33  1  0
  4  5  1  0
  4 34  1  0
  4 35  1  0
  5  6  1  0
  5 31  1  0
  6  7  2  0
  6 36  1  0
  7  8  1  0
  7 30  1  0
  8  9  2  0
  8 29  1  0
  9 10  1  0
  9 37  1  0
 10 11  2  0
 10 38  1  0
 11 12  1  0
 11 28  1  0
 12 13  1  0
 12 27  1  0
 13 14  2  0
 14 15  1  0
 15 16  1  0
 15 27  2  0
 16 17  2  0
 17 18  1  0
 17 25  1  0
 18 19  1  0
 18 39  1  0
 19 20  1  0
 19 24  1  0
 19 40  1  1
 20 21  1  0
 20 41  1  0
 20 42  1  0
 21 22  1  0
 21 43  1  0
 21 44  1  0
 22 23  1  0
 22 24  1  0
 22 45  1  6
 23 46  1  0
 24 47  1  0
 24 48  1  0
 25 26  2  0
 26 27  1  0
 26 49  1  0
 28 29  2  0
 28 50  1  0
 29 51  1  0
 30 31  2  0
 30 52  1  0
M  END

