
     RDKit          3D

 34 34  0  0  0  0  0  0  0  0999 V2000
    4.5663    3.8444    0.9930 C   0  0  0  0  0  0  0  0  0  0  0  0
    4.7550    2.4798    1.2489 O   0  0  0  0  0  0  0  0  0  0  0  0
    3.6362    1.6856    0.9677 C   0  0  0  0  0  0  0  0  0  0  0  0
    3.9577    0.2265    1.2627 C   0  0  0  0  0  0  0  0  0  0  0  0
    4.2818   -0.0315    2.6661 N   0  0  0  0  0  0  0  0  0  0  0  0
    3.1782   -0.0812    3.6042 C   0  0  0  0  0  0  0  0  0  0  0  0
    2.6053   -1.5110    3.7293 C   0  0  0  0  0  0  0  0  0  0  0  0
    2.9895   -2.3900    2.9746 O   0  0  0  0  0  0  0  0  0  0  0  0
    1.6513   -1.7114    4.6906 N   0  0  0  0  0  0  0  0  0  0  0  0
    1.2877   -0.7250    5.6935 C   0  0  0  0  0  0  0  0  0  0  0  0
    1.1482   -3.0592    4.9049 C   0  0  0  0  0  0  0  0  0  0  0  0
    5.5453   -0.4650    2.9477 C   0  0  0  0  0  0  0  0  0  0  0  0
    6.4404   -0.5512    2.1172 O   0  0  0  0  0  0  0  0  0  0  0  0
    5.9128   -0.8655    4.3536 C   0  0  0  0  0  0  0  0  0  0  0  0
    5.2161   -0.8835    5.4546 N   0  0  0  0  0  0  0  0  0  0  0  0
    5.9051   -1.3185    6.5373 N   0  0  0  0  0  0  0  0  0  0  0  0
    7.1313   -1.6302    6.2344 C   0  0  0  0  0  0  0  0  0  0  0  0
    8.2528   -2.2181    7.3934 Cl  0  0  0  0  0  0  0  0  0  0  0  0
    7.5642   -1.4115    4.5620 S   0  0  0  0  0  0  0  0  0  0  0  0
    5.4985    4.3677    1.2511 H   0  0  0  0  0  0  0  0  0  0  0  0
    3.7418    4.2726    1.6005 H   0  0  0  0  0  0  0  0  0  0  0  0
    4.3362    4.0411   -0.0744 H   0  0  0  0  0  0  0  0  0  0  0  0
    3.3427    1.7644   -0.1016 H   0  0  0  0  0  0  0  0  0  0  0  0
    2.7553    2.0293    1.5553 H   0  0  0  0  0  0  0  0  0  0  0  0
    4.8289   -0.0763    0.6693 H   0  0  0  0  0  0  0  0  0  0  0  0
    3.1042   -0.4085    0.9730 H   0  0  0  0  0  0  0  0  0  0  0  0
    2.3884    0.5947    3.2402 H   0  0  0  0  0  0  0  0  0  0  0  0
    3.4945    0.2862    4.5857 H   0  0  0  0  0  0  0  0  0  0  0  0
    1.3617    0.2985    5.3054 H   0  0  0  0  0  0  0  0  0  0  0  0
    1.9188   -0.7999    6.5985 H   0  0  0  0  0  0  0  0  0  0  0  0
    0.2398   -0.8832    5.9933 H   0  0  0  0  0  0  0  0  0  0  0  0
    1.5115   -3.7009    4.0943 H   0  0  0  0  0  0  0  0  0  0  0  0
    0.0449   -3.0628    4.9125 H   0  0  0  0  0  0  0  0  0  0  0  0
    1.5023   -3.4661    5.8695 H   0  0  0  0  0  0  0  0  0  0  0  0
  1  2  1  0
  1 20  1  0
  1 21  1  0
  1 22  1  0
  2  3  1  0
  3  4  1  0
  3 23  1  0
  3 24  1  0
  4  5  1  0
  4 25  1  0
  4 26  1  0
  5  6  1  0
  5 12  1  0
  6  7  1  0
  6 27  1  0
  6 28  1  0
  7  8  2  0
  7  9  1  0
  9 10  1  0
  9 11  1  0
 10 29  1  0
 10 30  1  0
 10 31  1  0
 11 32  1  0
 11 33  1  0
 11 34  1  0
 12 13  2  0
 12 14  1  0
 14 15  2  0
 14 19  1  0
 15 16  1  0
 16 17  2  0
 17 18  1  0
 17 19  1  0
M  END

