
     RDKit          3D

 35 37  0  0  0  0  0  0  0  0999 V2000
    1.4446   -3.2863    6.3180 C   0  0  0  0  0  0  0  0  0  0  0  0
    1.4497   -2.1092    5.4657 N   0  0  0  0  0  0  0  0  0  0  0  0
    0.3201   -1.2080    5.5254 C   0  0  0  0  0  0  0  0  0  0  0  0
    2.3399   -2.0307    4.4407 C   0  0  0  0  0  0  0  0  0  0  0  0
    3.3236   -2.8692    4.2323 N   0  0  0  0  0  0  0  0  0  0  0  0
    4.0536   -2.4679    3.1470 C   0  0  0  0  0  0  0  0  0  0  0  0
    5.2988   -3.2332    2.7467 C   0  0  0  0  0  0  0  0  0  0  0  0
    5.1549   -4.6636    2.7780 N   0  0  0  0  0  0  0  0  0  0  0  0
    5.4510   -5.4204    3.8628 C   0  0  0  0  0  0  0  0  0  0  0  0
    6.0207   -5.1124    4.8943 O   0  0  0  0  0  0  0  0  0  0  0  0
    4.9834   -6.7408    3.5937 N   0  0  0  0  0  0  0  0  0  0  0  0
    4.6365   -6.8806    2.1989 C   0  0  1  0  0  0  0  0  0  0  0  0
    5.6857   -7.5943    1.3097 C   0  0  0  0  0  0  0  0  0  0  0  0
    5.4748   -9.1062    1.3448 C   0  0  0  0  0  0  0  0  0  0  0  0
    3.6838   -9.3916    1.6027 S   0  0  0  0  0  0  0  0  0  0  0  0
    3.3203   -7.6563    1.9584 C   0  0  0  0  0  0  0  0  0  0  0  0
    4.3987   -5.3995    1.7445 C   0  0  0  0  0  0  0  0  0  0  0  0
    4.4676   -5.1137    0.5148 O   0  0  0  0  0  0  0  0  0  0  0  0
    3.7057   -1.3923    2.4820 N   0  0  0  0  0  0  0  0  0  0  0  0
    2.3325   -0.7457    3.2221 S   0  0  0  0  0  0  0  0  0  0  0  0
    1.2618   -2.9905    7.3640 H   0  0  0  0  0  0  0  0  0  0  0  0
    2.4201   -3.7816    6.2425 H   0  0  0  0  0  0  0  0  0  0  0  0
    0.6596   -4.0074    6.0181 H   0  0  0  0  0  0  0  0  0  0  0  0
   -0.0423   -1.1423    6.5625 H   0  0  0  0  0  0  0  0  0  0  0  0
   -0.5241   -1.5307    4.8842 H   0  0  0  0  0  0  0  0  0  0  0  0
    0.6210   -0.1947    5.2139 H   0  0  0  0  0  0  0  0  0  0  0  0
    6.1080   -2.9662    3.4455 H   0  0  0  0  0  0  0  0  0  0  0  0
    5.5783   -2.9219    1.7312 H   0  0  0  0  0  0  0  0  0  0  0  0
    5.5254   -7.4505    4.0774 H   0  0  0  0  0  0  0  0  0  0  0  0
    6.7088   -7.3431    1.6210 H   0  0  0  0  0  0  0  0  0  0  0  0
    5.5428   -7.2035    0.2894 H   0  0  0  0  0  0  0  0  0  0  0  0
    5.9433   -9.6114    2.2095 H   0  0  0  0  0  0  0  0  0  0  0  0
    5.7673   -9.6712    0.4460 H   0  0  0  0  0  0  0  0  0  0  0  0
    2.5967   -7.6042    2.7824 H   0  0  0  0  0  0  0  0  0  0  0  0
    2.8432   -7.2811    1.0331 H   0  0  0  0  0  0  0  0  0  0  0  0
  1  2  1  0
  1 21  1  0
  1 22  1  0
  1 23  1  0
  2  3  1  0
  2  4  1  0
  3 24  1  0
  3 25  1  0
  3 26  1  0
  4  5  2  0
  4 20  1  0
  5  6  1  0
  6  7  1  0
  6 19  2  0
  7  8  1  0
  7 27  1  0
  7 28  1  0
  8  9  1  0
  8 17  1  0
  9 10  2  0
  9 11  1  0
 11 12  1  0
 11 29  1  0
 12 13  1  0
 12 16  1  0
 12 17  1  6
 13 14  1  0
 13 30  1  0
 13 31  1  0
 14 15  1  0
 14 32  1  0
 14 33  1  0
 15 16  1  0
 16 34  1  0
 16 35  1  0
 17 18  2  0
 19 20  1  0
M  END

