
     RDKit          3D

 22 24  0  0  0  0  0  0  0  0999 V2000
    1.0813   -0.0656   -0.7862 N   0  0  0  0  0  0  0  0  0  0  0  0
    2.2384   -0.0399   -0.6056 C   0  0  0  0  0  0  0  0  0  0  0  0
    3.6116    0.0215   -0.3983 C   0  0  0  0  0  0  0  0  0  0  0  0
    4.4858    1.1687   -0.5221 C   0  0  0  0  0  0  0  0  0  0  0  0
    5.7185    0.8693   -0.2551 N   0  0  0  0  0  0  0  0  0  0  0  0
    5.7134   -0.5112    0.0622 N   0  0  0  0  0  0  0  0  0  0  0  0
    6.8758   -1.2058    0.4078 C   0  0  0  0  0  0  0  0  0  0  0  0
    8.1696   -0.5180    0.4606 C   0  0  1  0  0  0  0  0  0  0  0  0
    9.2307   -0.8895    1.4949 C   0  0  0  0  0  0  0  0  0  0  0  0
    9.4648   -1.2172    0.0522 C   0  0  0  0  0  0  0  0  0  0  0  0
    6.6029   -2.5882    0.6809 C   0  0  0  0  0  0  0  0  0  0  0  0
    5.3313   -3.0951    0.5947 C   0  0  0  0  0  0  0  0  0  0  0  0
    4.2071   -2.3456    0.2427 N   0  0  0  0  0  0  0  0  0  0  0  0
    4.4926   -1.0862   -0.0014 C   0  0  0  0  0  0  0  0  0  0  0  0
    4.2007    2.1834   -0.8018 H   0  0  0  0  0  0  0  0  0  0  0  0
    8.1011    0.5412    0.2081 H   0  0  0  0  0  0  0  0  0  0  0  0
    8.9972   -1.7078    2.1824 H   0  0  0  0  0  0  0  0  0  0  0  0
    9.7971   -0.0711    1.9491 H   0  0  0  0  0  0  0  0  0  0  0  0
    9.3951   -2.2628   -0.2618 H   0  0  0  0  0  0  0  0  0  0  0  0
   10.1958   -0.6291   -0.5104 H   0  0  0  0  0  0  0  0  0  0  0  0
    7.4280   -3.2445    0.9634 H   0  0  0  0  0  0  0  0  0  0  0  0
    5.1425   -4.1507    0.8074 H   0  0  0  0  0  0  0  0  0  0  0  0
  1  2  3  0
  2  3  1  0
  3  4  1  0
  3 14  2  0
  4  5  2  0
  4 15  1  0
  5  6  1  0
  6  7  1  0
  6 14  1  0
  7  8  1  0
  7 11  2  0
  8  9  1  0
  8 10  1  0
  8 16  1  6
  9 10  1  0
  9 17  1  0
  9 18  1  0
 10 19  1  0
 10 20  1  0
 11 12  1  0
 11 21  1  0
 12 13  2  0
 12 22  1  0
 13 14  1  0
M  END

