
     RDKit          3D

 50 52  0  0  0  0  0  0  0  0999 V2000
    3.3290    2.0562    2.6088 C   0  0  0  0  0  0  0  0  0  0  0  0
    3.7108    0.8031    3.3968 C   0  0  0  0  0  0  0  0  0  0  0  0
    4.6022   -0.1820    2.6225 C   0  0  0  0  0  0  0  0  0  0  0  0
    5.8926    0.3414    2.2225 N   0  0  0  0  0  0  0  0  0  0  0  0
    6.9504    0.4332    3.1143 C   0  0  0  0  0  0  0  0  0  0  0  0
    6.8156    0.0033    4.2805 O   0  0  0  0  0  0  0  0  0  0  0  0
    8.1977    0.9967    2.6192 C   0  0  0  0  0  0  0  0  0  0  0  0
    9.1561    1.4919    3.5709 C   0  0  0  0  0  0  0  0  0  0  0  0
   10.4239    1.8647    3.1993 C   0  0  0  0  0  0  0  0  0  0  0  0
   10.8293    1.7578    1.8270 C   0  0  0  0  0  0  0  0  0  0  0  0
   12.5058    1.7139    1.4413 S   0  0  1  0  0  0  0  0  0  0  0  0
   12.7901    2.1735    0.0758 O   0  0  0  0  0  0  0  0  0  0  0  0
   13.2850    2.2382    2.5810 O   0  0  0  0  0  0  0  0  0  0  0  0
   12.9021    0.0029    1.2983 N   0  0  0  0  0  0  0  0  0  0  0  0
   13.0439   -0.7471    2.5342 C   0  0  0  0  0  0  0  0  0  0  0  0
   11.7366   -1.5054    2.8589 C   0  0  0  0  0  0  0  0  0  0  0  0
   11.7117   -2.2529    4.1479 C   0  0  0  0  0  0  0  0  0  0  0  0
   12.7731   -3.0290    4.7082 C   0  0  0  0  0  0  0  0  0  0  0  0
   12.3709   -3.5957    5.8560 N   0  0  0  0  0  0  0  0  0  0  0  0
   12.9476   -4.1860    6.4460 H   0  0  0  0  0  0  0  0  0  0  0  0
   11.0419   -3.2318    6.1263 C   0  0  0  0  0  0  0  0  0  0  0  0
   10.2198   -3.5632    7.1855 C   0  0  0  0  0  0  0  0  0  0  0  0
    8.9113   -3.0131    7.1785 C   0  0  0  0  0  0  0  0  0  0  0  0
    8.4731   -2.1718    6.1536 C   0  0  0  0  0  0  0  0  0  0  0  0
    9.3184   -1.8449    5.0846 C   0  0  0  0  0  0  0  0  0  0  0  0
   10.6220   -2.3868    5.0632 C   0  0  0  0  0  0  0  0  0  0  0  0
    9.8667    1.3462    0.8492 C   0  0  0  0  0  0  0  0  0  0  0  0
    8.5913    1.0020    1.2350 C   0  0  0  0  0  0  0  0  0  0  0  0
    2.6904    2.7280    3.2045 H   0  0  0  0  0  0  0  0  0  0  0  0
    2.7747    1.8033    1.6878 H   0  0  0  0  0  0  0  0  0  0  0  0
    4.2216    2.6320    2.3144 H   0  0  0  0  0  0  0  0  0  0  0  0
    2.7960    0.2657    3.7070 H   0  0  0  0  0  0  0  0  0  0  0  0
    4.2424    1.0806    4.3215 H   0  0  0  0  0  0  0  0  0  0  0  0
    4.0758   -0.5289    1.7149 H   0  0  0  0  0  0  0  0  0  0  0  0
    4.7861   -1.0629    3.2555 H   0  0  0  0  0  0  0  0  0  0  0  0
    5.9349    0.9176    1.3918 H   0  0  0  0  0  0  0  0  0  0  0  0
    8.8389    1.5811    4.6119 H   0  0  0  0  0  0  0  0  0  0  0  0
   11.1369    2.2524    3.9286 H   0  0  0  0  0  0  0  0  0  0  0  0
   13.7320   -0.0262    0.7072 H   0  0  0  0  0  0  0  0  0  0  0  0
   13.3163   -0.0835    3.3766 H   0  0  0  0  0  0  0  0  0  0  0  0
   13.8741   -1.4642    2.4139 H   0  0  0  0  0  0  0  0  0  0  0  0
   11.5465   -2.2291    2.0443 H   0  0  0  0  0  0  0  0  0  0  0  0
   10.8940   -0.8048    2.8374 H   0  0  0  0  0  0  0  0  0  0  0  0
   13.7784   -3.1821    4.3226 H   0  0  0  0  0  0  0  0  0  0  0  0
   10.5492   -4.2125    7.9988 H   0  0  0  0  0  0  0  0  0  0  0  0
    8.2399   -3.2538    8.0052 H   0  0  0  0  0  0  0  0  0  0  0  0
    7.4741   -1.7351    6.1565 H   0  0  0  0  0  0  0  0  0  0  0  0
    8.9496   -1.1639    4.3196 H   0  0  0  0  0  0  0  0  0  0  0  0
   10.1642    1.2977   -0.2000 H   0  0  0  0  0  0  0  0  0  0  0  0
    7.8871    0.6679    0.4679 H   0  0  0  0  0  0  0  0  0  0  0  0
  1  2  1  0
  1 29  1  0
  1 30  1  0
  1 31  1  0
  2  3  1  0
  2 32  1  0
  2 33  1  0
  3  4  1  0
  3 34  1  0
  3 35  1  0
  4  5  1  0
  4 36  1  0
  5  6  2  0
  5  7  1  0
  7  8  2  0
  7 28  1  0
  8  9  1  0
  8 37  1  0
  9 10  2  0
  9 38  1  0
 10 11  1  0
 10 27  1  0
 11 12  2  0
 11 13  2  0
 11 14  1  6
 14 15  1  0
 14 39  1  0
 15 16  1  0
 15 40  1  0
 15 41  1  0
 16 17  1  0
 16 42  1  0
 16 43  1  0
 17 18  2  0
 17 26  1  0
 18 19  1  0
 18 44  1  0
 19 20  1  0
 19 21  1  0
 21 22  1  0
 21 26  2  0
 22 23  2  0
 22 45  1  0
 23 24  1  0
 23 46  1  0
 24 25  2  0
 24 47  1  0
 25 26  1  0
 25 48  1  0
 27 28  2  0
 27 49  1  0
 28 50  1  0
M  END

