
     RDKit          3D

 29 31  0  0  0  0  0  0  0  0999 V2000
    0.8666   -0.0791   -0.1369 C   0  0  0  0  0  0  0  0  0  0  0  0
    2.3772    0.0517    0.1081 C   0  0  1  0  0  0  0  0  0  0  0  0
    3.1654   -0.4755   -1.1079 C   0  0  0  0  0  0  0  0  0  0  0  0
    2.8333    1.4600    0.4805 C   0  0  0  0  0  0  0  0  0  0  0  0
    2.1074    2.5715    0.0360 C   0  0  0  0  0  0  0  0  0  0  0  0
    2.4881    3.8894    0.3260 C   0  0  0  0  0  0  0  0  0  0  0  0
    3.6198    4.1411    1.0919 C   0  0  0  0  0  0  0  0  0  0  0  0
    4.3578    3.0449    1.5466 C   0  0  0  0  0  0  0  0  0  0  0  0
    5.8020    3.1923    2.5436 S   0  0  0  0  0  0  0  0  0  0  0  0
    5.9820    1.4547    2.5905 C   0  0  0  0  0  0  0  0  0  0  0  0
    6.9932    0.7513    3.2505 C   0  0  0  0  0  0  0  0  0  0  0  0
    6.9661   -0.6381    3.1577 C   0  0  0  0  0  0  0  0  0  0  0  0
    6.0388   -1.3159    2.4682 N   0  0  0  0  0  0  0  0  0  0  0  0
    5.0818   -0.6374    1.8418 C   0  0  0  0  0  0  0  0  0  0  0  0
    4.9719    0.7715    1.8621 C   0  0  0  0  0  0  0  0  0  0  0  0
    4.0055    1.6983    1.2549 C   0  0  0  0  0  0  0  0  0  0  0  0
    0.5995   -1.1413   -0.2538 H   0  0  0  0  0  0  0  0  0  0  0  0
    0.5465    0.4344   -1.0578 H   0  0  0  0  0  0  0  0  0  0  0  0
    0.2796    0.3272    0.7014 H   0  0  0  0  0  0  0  0  0  0  0  0
    2.6013   -0.5965    0.9692 H   0  0  0  0  0  0  0  0  0  0  0  0
    2.9336    0.1251   -2.0025 H   0  0  0  0  0  0  0  0  0  0  0  0
    2.9001   -1.5235   -1.3237 H   0  0  0  0  0  0  0  0  0  0  0  0
    4.2531   -0.4262   -0.9501 H   0  0  0  0  0  0  0  0  0  0  0  0
    1.2064    2.4146   -0.5578 H   0  0  0  0  0  0  0  0  0  0  0  0
    1.8860    4.7214   -0.0476 H   0  0  0  0  0  0  0  0  0  0  0  0
    3.9238    5.1612    1.3360 H   0  0  0  0  0  0  0  0  0  0  0  0
    7.7746    1.2639    3.8154 H   0  0  0  0  0  0  0  0  0  0  0  0
    7.7353   -1.2350    3.6613 H   0  0  0  0  0  0  0  0  0  0  0  0
    4.3662   -1.2466    1.2872 H   0  0  0  0  0  0  0  0  0  0  0  0
  1  2  1  0
  1 17  1  0
  1 18  1  0
  1 19  1  0
  2  3  1  0
  2  4  1  0
  2 20  1  1
  3 21  1  0
  3 22  1  0
  3 23  1  0
  4  5  2  0
  4 16  1  0
  5  6  1  0
  5 24  1  0
  6  7  2  0
  6 25  1  0
  7  8  1  0
  7 26  1  0
  8  9  1  0
  8 16  2  0
  9 10  1  0
 10 11  1  0
 10 15  2  0
 11 12  2  0
 11 27  1  0
 12 13  1  0
 12 28  1  0
 13 14  2  0
 14 15  1  0
 14 29  1  0
 15 16  1  0
M  END

