
     RDKit          3D

 52 52  0  0  0  0  0  0  0  0999 V2000
    0.9552   -6.5552    4.5105 C   0  0  0  0  0  0  0  0  0  0  0  0
    2.4791   -6.4268    4.5206 C   0  0  0  0  0  0  0  0  0  0  0  0
    3.0479   -5.7598    3.2643 C   0  0  0  0  0  0  0  0  0  0  0  0
    4.5738   -5.6307    3.2657 C   0  0  0  0  0  0  0  0  0  0  0  0
    5.1415   -4.9604    2.0103 C   0  0  0  0  0  0  0  0  0  0  0  0
    6.6697   -4.8421    2.0165 C   0  0  0  0  0  0  0  0  0  0  0  0
    7.2993   -4.2548    0.7326 C   0  0  1  0  0  0  0  0  0  0  0  0
    6.9169   -2.7880    0.5112 C   0  0  0  0  0  0  0  0  0  0  0  0
    8.7572   -4.3674    0.6832 N   0  0  0  0  0  0  0  0  0  0  0  0
    9.3174   -5.7026    0.5684 C   0  0  0  0  0  0  0  0  0  0  0  0
   10.8046   -5.6895    0.2601 C   0  0  0  0  0  0  0  0  0  0  0  0
   11.4331   -4.5555   -0.2791 C   0  0  0  0  0  0  0  0  0  0  0  0
   12.7928   -4.5786   -0.5786 C   0  0  0  0  0  0  0  0  0  0  0  0
   13.5513   -5.7355   -0.3681 C   0  0  0  0  0  0  0  0  0  0  0  0
   12.9392   -6.8837    0.1511 C   0  0  0  0  0  0  0  0  0  0  0  0
   13.5788   -8.0675    0.3588 O   0  0  0  0  0  0  0  0  0  0  0  0
   14.9386   -8.2052   -0.0195 C   0  0  0  0  0  0  0  0  0  0  0  0
   15.3676   -9.6325    0.2630 C   0  0  0  0  0  0  0  0  0  0  0  0
   11.5606   -6.8533    0.4768 C   0  0  0  0  0  0  0  0  0  0  0  0
   10.9191   -7.9763    0.9319 O   0  0  0  0  0  0  0  0  0  0  0  0
   11.2926   -8.4756    2.2074 C   0  0  0  0  0  0  0  0  0  0  0  0
    0.5827   -7.0405    5.4268 H   0  0  0  0  0  0  0  0  0  0  0  0
    0.6091   -7.1554    3.6521 H   0  0  0  0  0  0  0  0  0  0  0  0
    0.4697   -5.5674    4.4368 H   0  0  0  0  0  0  0  0  0  0  0  0
    2.9329   -7.4282    4.6361 H   0  0  0  0  0  0  0  0  0  0  0  0
    2.7951   -5.8522    5.4106 H   0  0  0  0  0  0  0  0  0  0  0  0
    2.5963   -4.7565    3.1486 H   0  0  0  0  0  0  0  0  0  0  0  0
    2.7311   -6.3332    2.3728 H   0  0  0  0  0  0  0  0  0  0  0  0
    5.0246   -6.6343    3.3795 H   0  0  0  0  0  0  0  0  0  0  0  0
    4.8905   -5.0591    4.1582 H   0  0  0  0  0  0  0  0  0  0  0  0
    4.6833   -3.9616    1.9014 H   0  0  0  0  0  0  0  0  0  0  0  0
    4.8262   -5.5343    1.1185 H   0  0  0  0  0  0  0  0  0  0  0  0
    7.0945   -5.8464    2.1878 H   0  0  0  0  0  0  0  0  0  0  0  0
    6.9904   -4.2255    2.8786 H   0  0  0  0  0  0  0  0  0  0  0  0
    6.9164   -4.8405   -0.1250 H   0  0  0  0  0  0  0  0  0  0  0  0
    7.2805   -2.1610    1.3445 H   0  0  0  0  0  0  0  0  0  0  0  0
    5.8272   -2.6506    0.4437 H   0  0  0  0  0  0  0  0  0  0  0  0
    7.3743   -2.4136   -0.4164 H   0  0  0  0  0  0  0  0  0  0  0  0
    9.1775   -3.8699    1.4690 H   0  0  0  0  0  0  0  0  0  0  0  0
    8.7941   -6.2175   -0.2596 H   0  0  0  0  0  0  0  0  0  0  0  0
    9.1504   -6.3497    1.4525 H   0  0  0  0  0  0  0  0  0  0  0  0
   10.8296   -3.6639   -0.4530 H   0  0  0  0  0  0  0  0  0  0  0  0
   13.2773   -3.6900   -0.9916 H   0  0  0  0  0  0  0  0  0  0  0  0
   14.6115   -5.7389   -0.6206 H   0  0  0  0  0  0  0  0  0  0  0  0
   15.5660   -7.4892    0.5451 H   0  0  0  0  0  0  0  0  0  0  0  0
   15.0555   -7.9681   -1.0938 H   0  0  0  0  0  0  0  0  0  0  0  0
   15.2760   -9.8655    1.3351 H   0  0  0  0  0  0  0  0  0  0  0  0
   16.4176   -9.7793   -0.0345 H   0  0  0  0  0  0  0  0  0  0  0  0
   14.7430  -10.3438   -0.2986 H   0  0  0  0  0  0  0  0  0  0  0  0
   10.6208   -9.3186    2.4246 H   0  0  0  0  0  0  0  0  0  0  0  0
   11.1636   -7.7071    2.9919 H   0  0  0  0  0  0  0  0  0  0  0  0
   12.3343   -8.8304    2.2189 H   0  0  0  0  0  0  0  0  0  0  0  0
  1  2  1  0
  1 22  1  0
  1 23  1  0
  1 24  1  0
  2  3  1  0
  2 25  1  0
  2 26  1  0
  3  4  1  0
  3 27  1  0
  3 28  1  0
  4  5  1  0
  4 29  1  0
  4 30  1  0
  5  6  1  0
  5 31  1  0
  5 32  1  0
  6  7  1  0
  6 33  1  0
  6 34  1  0
  7  8  1  0
  7  9  1  0
  7 35  1  6
  8 36  1  0
  8 37  1  0
  8 38  1  0
  9 10  1  0
  9 39  1  0
 10 11  1  0
 10 40  1  0
 10 41  1  0
 11 12  2  0
 11 19  1  0
 12 13  1  0
 12 42  1  0
 13 14  2  0
 13 43  1  0
 14 15  1  0
 14 44  1  0
 15 16  1  0
 15 19  2  0
 16 17  1  0
 17 18  1  0
 17 45  1  0
 17 46  1  0
 18 47  1  0
 18 48  1  0
 18 49  1  0
 19 20  1  0
 20 21  1  0
 21 50  1  0
 21 51  1  0
 21 52  1  0
M  END

