
     RDKit          3D

 54 53  0  0  0  0  0  0  0  0999 V2000
    1.8036    4.5104   -0.0990 C   0  0  0  0  0  0  0  0  0  0  0  0
    2.1018    3.0523    0.2676 C   0  0  1  0  0  0  0  0  0  0  0  0
    2.6724    2.9201    1.6838 C   0  0  0  0  0  0  0  0  0  0  0  0
    0.8500    2.1874    0.1050 C   0  0  0  0  0  0  0  0  0  0  0  0
    3.0292    2.4698   -0.7032 O   0  0  0  0  0  0  0  0  0  0  0  0
    4.2782    2.9567   -0.8787 C   0  0  0  0  0  0  0  0  0  0  0  0
    4.7684    3.8994   -0.2871 O   0  0  0  0  0  0  0  0  0  0  0  0
    4.9306    2.2169   -1.8243 N   0  0  0  0  0  0  0  0  0  0  0  0
    6.2440    2.5858   -2.3120 C   0  0  0  0  0  0  0  0  0  0  0  0
    6.2120    3.5040   -3.5422 C   0  0  0  0  0  0  0  0  0  0  0  0
    7.6215    3.8906   -3.9928 C   0  0  0  0  0  0  0  0  0  0  0  0
    7.7372    4.7170   -5.3084 C   0  0  1  0  0  0  0  0  0  0  0  0
    6.8430    5.9608   -5.2944 C   0  0  0  0  0  0  0  0  0  0  0  0
    9.1587    5.0407   -5.4379 N   0  0  0  0  0  0  0  0  0  0  0  0
    9.7309    5.9596   -6.3022 C   0  0  0  0  0  0  0  0  0  0  0  0
    9.1517    6.5630   -7.1748 O   0  0  0  0  0  0  0  0  0  0  0  0
   11.0445    6.0489   -6.0053 O   0  0  0  0  0  0  0  0  0  0  0  0
   11.9524    6.9351   -6.7486 C   0  0  1  0  0  0  0  0  0  0  0  0
   11.5086    8.3924   -6.5874 C   0  0  0  0  0  0  0  0  0  0  0  0
   13.2967    6.6972   -6.0590 C   0  0  0  0  0  0  0  0  0  0  0  0
   12.0093    6.5064   -8.2181 C   0  0  0  0  0  0  0  0  0  0  0  0
    7.3857    3.8253   -6.5484 C   0  0  0  0  0  0  0  0  0  0  0  0
    6.1133    3.5125   -6.6750 O   0  0  0  0  0  0  0  0  0  0  0  0
    8.2152    2.7521   -6.7359 O   0  0  0  0  0  0  0  0  0  0  0  0
    1.0235    4.9101    0.5678 H   0  0  0  0  0  0  0  0  0  0  0  0
    1.4337    4.5761   -1.1344 H   0  0  0  0  0  0  0  0  0  0  0  0
    2.7031    5.1317   -0.0039 H   0  0  0  0  0  0  0  0  0  0  0  0
    1.9272    3.2606    2.4199 H   0  0  0  0  0  0  0  0  0  0  0  0
    3.5830    3.5216    1.7974 H   0  0  0  0  0  0  0  0  0  0  0  0
    2.9121    1.8675    1.9025 H   0  0  0  0  0  0  0  0  0  0  0  0
    0.0594    2.5258    0.7918 H   0  0  0  0  0  0  0  0  0  0  0  0
    1.0765    1.1330    0.3253 H   0  0  0  0  0  0  0  0  0  0  0  0
    0.4676    2.2495   -0.9253 H   0  0  0  0  0  0  0  0  0  0  0  0
    4.3871    1.5206   -2.3204 H   0  0  0  0  0  0  0  0  0  0  0  0
    6.8054    1.6638   -2.5424 H   0  0  0  0  0  0  0  0  0  0  0  0
    6.7652    3.0878   -1.4828 H   0  0  0  0  0  0  0  0  0  0  0  0
    5.6341    4.4044   -3.2803 H   0  0  0  0  0  0  0  0  0  0  0  0
    5.6797    3.0053   -4.3666 H   0  0  0  0  0  0  0  0  0  0  0  0
    8.2233    2.9734   -4.1291 H   0  0  0  0  0  0  0  0  0  0  0  0
    8.1071    4.4747   -3.1884 H   0  0  0  0  0  0  0  0  0  0  0  0
    7.0413    6.5678   -4.3970 H   0  0  0  0  0  0  0  0  0  0  0  0
    5.7878    5.6499   -5.2873 H   0  0  0  0  0  0  0  0  0  0  0  0
    7.0190    6.5695   -6.1887 H   0  0  0  0  0  0  0  0  0  0  0  0
    9.7861    4.6873   -4.7227 H   0  0  0  0  0  0  0  0  0  0  0  0
   11.4328    8.6552   -5.5206 H   0  0  0  0  0  0  0  0  0  0  0  0
   10.5370    8.5680   -7.0662 H   0  0  0  0  0  0  0  0  0  0  0  0
   12.2544    9.0579   -7.0493 H   0  0  0  0  0  0  0  0  0  0  0  0
   13.2393    6.9651   -4.9932 H   0  0  0  0  0  0  0  0  0  0  0  0
   14.0793    7.3104   -6.5307 H   0  0  0  0  0  0  0  0  0  0  0  0
   13.5906    5.6393   -6.1344 H   0  0  0  0  0  0  0  0  0  0  0  0
   11.0398    6.6494   -8.7121 H   0  0  0  0  0  0  0  0  0  0  0  0
   12.2970    5.4463   -8.2990 H   0  0  0  0  0  0  0  0  0  0  0  0
   12.7664    7.1047   -8.7485 H   0  0  0  0  0  0  0  0  0  0  0  0
    9.1131    3.1132   -6.6466 H   0  0  0  0  0  0  0  0  0  0  0  0
  1  2  1  0
  1 25  1  0
  1 26  1  0
  1 27  1  0
  2  3  1  0
  2  4  1  0
  2  5  1  6
  3 28  1  0
  3 29  1  0
  3 30  1  0
  4 31  1  0
  4 32  1  0
  4 33  1  0
  5  6  1  0
  6  7  2  0
  6  8  1  0
  8  9  1  0
  8 34  1  0
  9 10  1  0
  9 35  1  0
  9 36  1  0
 10 11  1  0
 10 37  1  0
 10 38  1  0
 11 12  1  0
 11 39  1  0
 11 40  1  0
 12 13  1  0
 12 14  1  0
 12 22  1  6
 13 41  1  0
 13 42  1  0
 13 43  1  0
 14 15  1  0
 14 44  1  0
 15 16  2  0
 15 17  1  0
 18 17  1  1
 18 19  1  0
 18 20  1  0
 18 21  1  0
 19 45  1  0
 19 46  1  0
 19 47  1  0
 20 48  1  0
 20 49  1  0
 20 50  1  0
 21 51  1  0
 21 52  1  0
 21 53  1  0
 22 23  2  0
 22 24  1  0
 24 54  1  0
M  END

