
     RDKit          3D

 51 54  0  0  0  0  0  0  0  0999 V2000
    1.2533    0.1470    0.6350 C   0  0  0  0  0  0  0  0  0  0  0  0
    2.6466    0.1806   -0.0437 C   0  0  1  0  0  0  0  0  0  0  0  0
    2.4476    0.2822   -1.5667 C   0  0  0  0  0  0  0  0  0  0  0  0
    3.4161    1.4360    0.4283 C   0  0  0  0  0  0  0  0  0  0  0  0
    3.9249    1.3338    1.8355 C   0  0  0  0  0  0  0  0  0  0  0  0
    4.2840    0.1552    2.3884 C   0  0  0  0  0  0  0  0  0  0  0  0
    4.8309    0.1391    3.7749 C   0  0  0  0  0  0  0  0  0  0  0  0
    4.0365    0.4606    4.8863 C   0  0  0  0  0  0  0  0  0  0  0  0
    4.5112    0.4998    6.1330 N   0  0  0  0  0  0  0  0  0  0  0  0
    5.8041    0.2116    6.2834 C   0  0  0  0  0  0  0  0  0  0  0  0
    6.6642   -0.1015    5.3127 N   0  0  0  0  0  0  0  0  0  0  0  0
    6.1768   -0.1366    4.0720 C   0  0  0  0  0  0  0  0  0  0  0  0
    4.1528   -1.0993    1.6044 C   0  0  0  0  0  0  0  0  0  0  0  0
    4.7257   -2.2861    2.0478 C   0  0  0  0  0  0  0  0  0  0  0  0
    4.6582   -3.5025    1.2980 C   0  0  0  0  0  0  0  0  0  0  0  0
    5.2841   -4.6585    1.8406 C   0  0  0  0  0  0  0  0  0  0  0  0
    5.8640   -4.7027    2.9883 O   0  0  0  0  0  0  0  0  0  0  0  0
    5.2981   -6.0028    1.1093 C   0  0  0  0  0  0  0  0  0  0  0  0
    5.7868   -6.2260   -0.1533 C   0  0  0  0  0  0  0  0  0  0  0  0
    5.7840   -7.5326   -0.7263 C   0  0  0  0  0  0  0  0  0  0  0  0
    5.3109   -8.6298   -0.0104 C   0  0  0  0  0  0  0  0  0  0  0  0
    4.8363   -8.4628    1.2947 C   0  0  0  0  0  0  0  0  0  0  0  0
    4.3385   -9.6782    2.0242 C   0  0  0  0  0  0  0  0  0  0  0  0
    4.7695  -10.7787    1.8231 O   0  0  0  0  0  0  0  0  0  0  0  0
    3.3695   -9.4724    2.9552 O   0  0  0  0  0  0  0  0  0  0  0  0
    4.8977   -7.1584    1.8894 C   0  0  0  0  0  0  0  0  0  0  0  0
    4.7023   -6.9050    3.1954 N   0  0  0  0  0  0  0  0  0  0  0  0
    3.9450   -3.4521    0.0604 C   0  0  0  0  0  0  0  0  0  0  0  0
    3.3430   -2.2734   -0.3597 C   0  0  0  0  0  0  0  0  0  0  0  0
    3.4218   -1.0751    0.3709 C   0  0  0  0  0  0  0  0  0  0  0  0
    0.6588    1.0339    0.3553 H   0  0  0  0  0  0  0  0  0  0  0  0
    1.3412    0.1273    1.7317 H   0  0  0  0  0  0  0  0  0  0  0  0
    0.6948   -0.7506    0.3267 H   0  0  0  0  0  0  0  0  0  0  0  0
    1.9799    1.2469   -1.8229 H   0  0  0  0  0  0  0  0  0  0  0  0
    1.7869   -0.5084   -1.9537 H   0  0  0  0  0  0  0  0  0  0  0  0
    3.4076    0.2169   -2.1030 H   0  0  0  0  0  0  0  0  0  0  0  0
    2.7722    2.3251    0.3175 H   0  0  0  0  0  0  0  0  0  0  0  0
    4.2793    1.6071   -0.2461 H   0  0  0  0  0  0  0  0  0  0  0  0
    4.0619    2.2579    2.4058 H   0  0  0  0  0  0  0  0  0  0  0  0
    2.9736    0.6945    4.7483 H   0  0  0  0  0  0  0  0  0  0  0  0
    6.2017    0.2388    7.3057 H   0  0  0  0  0  0  0  0  0  0  0  0
    6.8813   -0.3825    3.2687 H   0  0  0  0  0  0  0  0  0  0  0  0
    5.2613   -2.3277    2.9950 H   0  0  0  0  0  0  0  0  0  0  0  0
    6.1596   -5.3856   -0.7411 H   0  0  0  0  0  0  0  0  0  0  0  0
    6.1361   -7.6681   -1.7511 H   0  0  0  0  0  0  0  0  0  0  0  0
    5.2929   -9.6287   -0.4486 H   0  0  0  0  0  0  0  0  0  0  0  0
    2.9216   -8.6240    2.8142 H   0  0  0  0  0  0  0  0  0  0  0  0
    4.6085   -7.6810    3.8479 H   0  0  0  0  0  0  0  0  0  0  0  0
    5.1537   -5.9338    3.4548 H   0  0  0  0  0  0  0  0  0  0  0  0
    3.8424   -4.3430   -0.5605 H   0  0  0  0  0  0  0  0  0  0  0  0
    2.7855   -2.2918   -1.2982 H   0  0  0  0  0  0  0  0  0  0  0  0
  2  1  1  1
  1 31  1  0
  1 32  1  0
  1 33  1  0
  2  3  1  0
  2  4  1  0
  2 30  1  0
  3 34  1  0
  3 35  1  0
  3 36  1  0
  4  5  1  0
  4 37  1  0
  4 38  1  0
  5  6  2  0
  5 39  1  0
  6  7  1  0
  6 13  1  0
  7  8  2  0
  7 12  1  0
  8  9  1  0
  8 40  1  0
  9 10  2  0
 10 11  1  0
 10 41  1  0
 11 12  2  0
 12 42  1  0
 13 14  1  0
 13 30  2  0
 14 15  2  0
 14 43  1  0
 15 16  1  0
 15 28  1  0
 16 17  2  0
 16 18  1  0
 18 19  2  0
 18 26  1  0
 19 20  1  0
 19 44  1  0
 20 21  2  0
 20 45  1  0
 21 22  1  0
 21 46  1  0
 22 23  1  0
 22 26  2  0
 23 24  2  0
 23 25  1  0
 25 47  1  0
 26 27  1  0
 27 48  1  0
 27 49  1  0
 28 29  2  0
 28 50  1  0
 29 30  1  0
 29 51  1  0
M  END

