
     RDKit          3D

 43 43  0  0  0  0  0  0  0  0999 V2000
    8.4404   -3.7225    5.3639 C   0  0  0  0  0  0  0  0  0  0  0  0
    8.2663   -2.9646    4.0693 C   0  0  0  0  0  0  0  0  0  0  0  0
    8.8317   -1.6982    3.8859 C   0  0  0  0  0  0  0  0  0  0  0  0
    8.6563   -1.0150    2.6746 C   0  0  0  0  0  0  0  0  0  0  0  0
    7.9205   -1.5806    1.6396 C   0  0  0  0  0  0  0  0  0  0  0  0
    7.3467   -2.8527    1.8127 C   0  0  0  0  0  0  0  0  0  0  0  0
    6.6393   -3.3367    0.7551 O   0  0  0  0  0  0  0  0  0  0  0  0
    6.0206   -4.6027    0.8391 C   0  0  0  0  0  0  0  0  0  0  0  0
    5.3370   -4.8507   -0.5055 C   0  0  0  0  0  0  0  0  0  0  0  0
    4.5856   -6.0930   -0.5463 N   0  0  0  0  0  0  0  0  0  0  0  0
    5.2287   -7.2904   -0.7662 C   0  0  0  0  0  0  0  0  0  0  0  0
    6.4337   -7.3563   -0.9454 O   0  0  0  0  0  0  0  0  0  0  0  0
    4.4074   -8.4350   -0.7638 N   0  0  0  0  0  0  0  0  0  0  0  0
    2.9835   -8.3261   -1.0591 C   0  0  0  0  0  0  0  0  0  0  0  0
    2.0704   -8.2915    0.1800 C   0  0  0  0  0  0  0  0  0  0  0  0
    0.8767   -8.2021    0.1002 O   0  0  0  0  0  0  0  0  0  0  0  0
    2.7234   -8.3516    1.3511 O   0  0  0  0  0  0  0  0  0  0  0  0
    5.0914   -9.7209   -1.0659 C   0  0  1  0  0  0  0  0  0  0  0  0
    4.4359  -10.8893   -0.3256 C   0  0  0  0  0  0  0  0  0  0  0  0
    5.2084   -9.9689   -2.5740 C   0  0  0  0  0  0  0  0  0  0  0  0
    7.5211   -3.5378    3.0213 C   0  0  0  0  0  0  0  0  0  0  0  0
    9.0559   -3.1604    6.0814 H   0  0  0  0  0  0  0  0  0  0  0  0
    8.9262   -4.6982    5.1949 H   0  0  0  0  0  0  0  0  0  0  0  0
    7.4679   -3.9270    5.8428 H   0  0  0  0  0  0  0  0  0  0  0  0
    9.4130   -1.2416    4.6911 H   0  0  0  0  0  0  0  0  0  0  0  0
    9.1026   -0.0261    2.5395 H   0  0  0  0  0  0  0  0  0  0  0  0
    7.7730   -1.0655    0.6884 H   0  0  0  0  0  0  0  0  0  0  0  0
    5.2759   -4.6214    1.6590 H   0  0  0  0  0  0  0  0  0  0  0  0
    6.7629   -5.3984    1.0287 H   0  0  0  0  0  0  0  0  0  0  0  0
    6.1024   -4.8789   -1.2930 H   0  0  0  0  0  0  0  0  0  0  0  0
    4.6546   -4.0155   -0.7257 H   0  0  0  0  0  0  0  0  0  0  0  0
    3.6554   -6.0844   -0.1474 H   0  0  0  0  0  0  0  0  0  0  0  0
    2.6516   -9.1765   -1.6721 H   0  0  0  0  0  0  0  0  0  0  0  0
    2.7596   -7.4283   -1.6565 H   0  0  0  0  0  0  0  0  0  0  0  0
    3.6723   -8.4554    1.1359 H   0  0  0  0  0  0  0  0  0  0  0  0
    6.1080   -9.5845   -0.6749 H   0  0  0  0  0  0  0  0  0  0  0  0
    3.4156  -11.1016   -0.6853 H   0  0  0  0  0  0  0  0  0  0  0  0
    4.3830  -10.7087    0.7593 H   0  0  0  0  0  0  0  0  0  0  0  0
    5.0283  -11.8036   -0.4827 H   0  0  0  0  0  0  0  0  0  0  0  0
    4.2219  -10.0888   -3.0528 H   0  0  0  0  0  0  0  0  0  0  0  0
    5.7798  -10.8908   -2.7649 H   0  0  0  0  0  0  0  0  0  0  0  0
    5.7382   -9.1359   -3.0588 H   0  0  0  0  0  0  0  0  0  0  0  0
    7.0841   -4.5271    3.1659 H   0  0  0  0  0  0  0  0  0  0  0  0
  1  2  1  0
  1 22  1  0
  1 23  1  0
  1 24  1  0
  2  3  2  0
  2 21  1  0
  3  4  1  0
  3 25  1  0
  4  5  2  0
  4 26  1  0
  5  6  1  0
  5 27  1  0
  6  7  1  0
  6 21  2  0
  7  8  1  0
  8  9  1  0
  8 28  1  0
  8 29  1  0
  9 10  1  0
  9 30  1  0
  9 31  1  0
 10 11  1  0
 10 32  1  0
 11 12  2  0
 11 13  1  0
 13 14  1  0
 13 18  1  0
 14 15  1  0
 14 33  1  0
 14 34  1  0
 15 16  2  0
 15 17  1  0
 17 35  1  0
 18 19  1  0
 18 20  1  0
 18 36  1  1
 19 37  1  0
 19 38  1  0
 19 39  1  0
 20 40  1  0
 20 41  1  0
 20 42  1  0
 21 43  1  0
M  END

