
     RDKit          3D

 39 41  0  0  0  0  0  0  0  0999 V2000
    0.9366   -0.3407   -0.1341 O   0  0  0  0  0  0  0  0  0  0  0  0
    2.1275   -0.4603   -0.3552 C   0  0  0  0  0  0  0  0  0  0  0  0
    2.9803    0.5984   -0.7010 N   0  0  0  0  0  0  0  0  0  0  0  0
    2.6832    1.9479   -0.7509 C   0  0  0  0  0  0  0  0  0  0  0  0
    1.4139    2.5067   -0.4484 C   0  0  0  0  0  0  0  0  0  0  0  0
    1.2298    3.8861   -0.5267 C   0  0  0  0  0  0  0  0  0  0  0  0
    2.2661    4.7452   -0.8991 C   0  0  0  0  0  0  0  0  0  0  0  0
    3.5180    4.1934   -1.1993 C   0  0  0  0  0  0  0  0  0  0  0  0
    4.8172    5.2593   -1.6656 Cl  0  0  0  0  0  0  0  0  0  0  0  0
    3.7356    2.8225   -1.1308 C   0  0  0  0  0  0  0  0  0  0  0  0
    2.7551   -1.6947   -0.3005 N   0  0  0  0  0  0  0  0  0  0  0  0
    4.1065   -2.0393   -0.4725 C   0  0  0  0  0  0  0  0  0  0  0  0
    5.0047   -1.2184   -0.9566 N   0  0  0  0  0  0  0  0  0  0  0  0
    6.2498   -1.6888   -0.9379 N   0  0  0  0  0  0  0  0  0  0  0  0
    6.3096   -3.0176   -0.6079 C   0  0  0  0  0  0  0  0  0  0  0  0
    7.6251   -3.5373   -0.1821 C   0  0  1  0  0  0  0  0  0  0  0  0
    7.5502   -4.5980    0.1054 H   0  0  0  0  0  0  0  0  0  0  0  0
    8.7042   -3.3450   -1.2694 C   0  0  0  0  0  0  0  0  0  0  0  0
    9.9470   -2.9272   -0.4847 C   0  0  2  0  0  0  0  0  0  0  0  0
   10.6018   -2.2691   -1.0867 H   0  0  0  0  0  0  0  0  0  0  0  0
   10.6743   -4.0137    0.0509 O   0  0  0  0  0  0  0  0  0  0  0  0
    9.3294   -2.1852    0.7152 C   0  0  1  0  0  0  0  0  0  0  0  0
    9.9936   -2.2997    1.5892 H   0  0  0  0  0  0  0  0  0  0  0  0
    9.0800   -0.6537    0.4859 C   0  0  0  0  0  0  0  0  0  0  0  0
    8.4461   -0.3572   -0.7007 O   0  0  0  0  0  0  0  0  0  0  0  0
    8.1302   -2.8164    0.9927 O   0  0  0  0  0  0  0  0  0  0  0  0
    4.7175   -3.5863    0.1127 S   0  0  0  0  0  0  0  0  0  0  0  0
    3.9438    0.2634   -0.9400 H   0  0  0  0  0  0  0  0  0  0  0  0
    0.6077    1.8364   -0.1642 H   0  0  0  0  0  0  0  0  0  0  0  0
    0.2500    4.3096   -0.2921 H   0  0  0  0  0  0  0  0  0  0  0  0
    2.1192    5.8243   -0.9601 H   0  0  0  0  0  0  0  0  0  0  0  0
    4.7171    2.4059   -1.3632 H   0  0  0  0  0  0  0  0  0  0  0  0
    2.1142   -2.4572   -0.1151 H   0  0  0  0  0  0  0  0  0  0  0  0
    8.4123   -2.5354   -1.9492 H   0  0  0  0  0  0  0  0  0  0  0  0
    8.8611   -4.2563   -1.8634 H   0  0  0  0  0  0  0  0  0  0  0  0
   10.9725   -4.5635   -0.6848 H   0  0  0  0  0  0  0  0  0  0  0  0
    8.5122   -0.2938    1.3643 H   0  0  0  0  0  0  0  0  0  0  0  0
   10.0561   -0.1426    0.4903 H   0  0  0  0  0  0  0  0  0  0  0  0
    7.5128   -0.7947   -0.7562 H   0  0  0  0  0  0  0  0  0  0  0  0
  1  2  2  0
  2  3  1  0
  2 11  1  0
  3  4  1  0
  3 28  1  0
  4  5  2  0
  4 10  1  0
  5  6  1  0
  5 29  1  0
  6  7  2  0
  6 30  1  0
  7  8  1  0
  7 31  1  0
  8  9  1  0
  8 10  2  0
 10 32  1  0
 11 12  1  0
 11 33  1  0
 12 13  2  0
 12 27  1  0
 13 14  1  0
 14 15  2  0
 15 16  1  0
 15 27  1  0
 16 17  1  1
 16 18  1  0
 16 26  1  0
 18 19  1  0
 18 34  1  0
 18 35  1  0
 19 20  1  6
 19 21  1  0
 19 22  1  0
 21 36  1  0
 22 23  1  1
 22 24  1  0
 22 26  1  0
 24 25  1  0
 24 37  1  0
 24 38  1  0
 25 39  1  0
M  END

