
     RDKit          3D

 37 38  0  0  0  0  0  0  0  0999 V2000
    0.8523    0.4284   -0.0622 C   0  0  0  0  0  0  0  0  0  0  0  0
    2.3400    0.0857    0.0737 C   0  0  1  0  0  0  0  0  0  0  0  0
    2.9643   -0.1256   -1.3180 C   0  0  0  0  0  0  0  0  0  0  0  0
    3.1236    1.1553    0.8733 C   0  0  0  0  0  0  0  0  0  0  0  0
    4.3413    0.4122    1.4384 C   0  0  0  0  0  0  0  0  0  0  0  0
    3.9255   -0.9964    1.4526 N   0  0  0  0  0  0  0  0  0  0  0  0
    4.5741   -1.9003    2.2769 C   0  0  0  0  0  0  0  0  0  0  0  0
    5.7463   -1.4021    2.7397 O   0  0  0  0  0  0  0  0  0  0  0  0
    4.6602   -3.4005    1.9632 C   0  0  1  0  0  0  0  0  0  0  0  0
    5.2856   -3.6440    0.5748 C   0  0  1  0  0  0  0  0  0  0  0  0
    6.4932   -3.0717    0.4668 F   0  0  0  0  0  0  0  0  0  0  0  0
    5.4406   -4.9558    0.3093 F   0  0  0  0  0  0  0  0  0  0  0  0
    4.5187   -3.1451   -0.4211 F   0  0  0  0  0  0  0  0  0  0  0  0
    5.5272   -4.1129    3.0604 C   0  0  0  0  0  0  0  0  0  0  0  0
    4.5019   -4.8583    3.9171 C   0  0  0  0  0  0  0  0  0  0  0  0
    3.5338   -5.2819    2.9167 N   0  0  0  0  0  0  0  0  0  0  0  0
    3.2762   -4.1239    2.0715 C   0  0  0  0  0  0  0  0  0  0  0  0
    2.5651   -1.1610    0.9586 C   0  0  0  0  0  0  0  0  0  0  0  0
    0.7152    1.3438   -0.6604 H   0  0  0  0  0  0  0  0  0  0  0  0
    0.3826    0.5939    0.9210 H   0  0  0  0  0  0  0  0  0  0  0  0
    0.3018   -0.3820   -0.5679 H   0  0  0  0  0  0  0  0  0  0  0  0
    2.9099    0.7997   -1.9143 H   0  0  0  0  0  0  0  0  0  0  0  0
    2.4297   -0.9146   -1.8711 H   0  0  0  0  0  0  0  0  0  0  0  0
    4.0189   -0.4318   -1.2502 H   0  0  0  0  0  0  0  0  0  0  0  0
    2.4947    1.5288    1.6982 H   0  0  0  0  0  0  0  0  0  0  0  0
    3.4076    2.0216    0.2566 H   0  0  0  0  0  0  0  0  0  0  0  0
    4.6070    0.7604    2.4526 H   0  0  0  0  0  0  0  0  0  0  0  0
    5.2424    0.5351    0.8117 H   0  0  0  0  0  0  0  0  0  0  0  0
    6.1350   -3.4034    3.6371 H   0  0  0  0  0  0  0  0  0  0  0  0
    6.2023   -4.8360    2.5850 H   0  0  0  0  0  0  0  0  0  0  0  0
    4.0813   -4.1733    4.6866 H   0  0  0  0  0  0  0  0  0  0  0  0
    4.9400   -5.7234    4.4407 H   0  0  0  0  0  0  0  0  0  0  0  0
    2.6807   -5.6678    3.3159 H   0  0  0  0  0  0  0  0  0  0  0  0
    2.5546   -3.4136    2.5210 H   0  0  0  0  0  0  0  0  0  0  0  0
    2.8833   -4.4322    1.0893 H   0  0  0  0  0  0  0  0  0  0  0  0
    1.8332   -1.1870    1.7937 H   0  0  0  0  0  0  0  0  0  0  0  0
    2.4576   -2.0936    0.3865 H   0  0  0  0  0  0  0  0  0  0  0  0
  2  1  1  6
  1 19  1  0
  1 20  1  0
  1 21  1  0
  2  3  1  0
  2  4  1  0
  2 18  1  0
  3 22  1  0
  3 23  1  0
  3 24  1  0
  4  5  1  0
  4 25  1  0
  4 26  1  0
  5  6  1  0
  5 27  1  0
  5 28  1  0
  6  7  1  0
  6 18  1  0
  7  8  2  0
  9  7  1  6
  9 10  1  0
  9 14  1  0
  9 17  1  0
 10 11  1  6
 10 12  1  0
 10 13  1  0
 14 15  1  0
 14 29  1  0
 14 30  1  0
 15 16  1  0
 15 31  1  0
 15 32  1  0
 16 17  1  0
 16 33  1  0
 17 34  1  0
 17 35  1  0
 18 36  1  0
 18 37  1  0
M  END

