
     RDKit          3D

 37 38  0  0  0  0  0  0  0  0999 V2000
    4.4245   -1.2203    1.5414 C   0  0  0  0  0  0  0  0  0  0  0  0
    4.3155   -0.3386    0.7179 C   0  0  0  0  0  0  0  0  0  0  0  0
    4.1989    0.7183   -0.2851 C   0  0  0  0  0  0  0  0  0  0  0  0
    4.5699    0.2348   -1.7106 C   0  0  1  0  0  0  0  0  0  0  0  0
    3.7588   -0.8809   -2.1513 N   0  0  0  0  0  0  0  0  0  0  0  0
    2.4782   -0.7535   -2.5986 C   0  0  0  0  0  0  0  0  0  0  0  0
    1.7391   -1.8570   -3.0867 C   0  0  0  0  0  0  0  0  0  0  0  0
    0.4505   -1.5881   -3.5157 C   0  0  0  0  0  0  0  0  0  0  0  0
   -0.0928   -0.3612   -3.4983 N   0  0  0  0  0  0  0  0  0  0  0  0
    0.6814    0.6167   -3.0255 C   0  0  0  0  0  0  0  0  0  0  0  0
    0.1210    2.0209   -3.0461 C   0  0  0  0  0  0  0  0  0  0  0  0
    0.3331    2.7522   -4.3664 C   0  0  0  0  0  0  0  0  0  0  0  0
   -0.6928    3.5508   -4.8943 C   0  0  0  0  0  0  0  0  0  0  0  0
   -0.5103    4.2688   -6.0798 C   0  0  0  0  0  0  0  0  0  0  0  0
    0.7058    4.1945   -6.7642 C   0  0  0  0  0  0  0  0  0  0  0  0
    1.7326    3.3949   -6.2530 C   0  0  0  0  0  0  0  0  0  0  0  0
    1.5508    2.6806   -5.0649 C   0  0  0  0  0  0  0  0  0  0  0  0
    1.9282    0.4696   -2.5582 N   0  0  0  0  0  0  0  0  0  0  0  0
    4.6128    1.3371   -2.8056 C   0  0  0  0  0  0  0  0  0  0  0  0
    4.5667    2.6348   -2.3833 N   0  0  0  0  0  0  0  0  0  0  0  0
    4.7841    1.0286   -3.9680 O   0  0  0  0  0  0  0  0  0  0  0  0
    4.5143   -1.9966    2.2777 H   0  0  0  0  0  0  0  0  0  0  0  0
    4.8680    1.5489   -0.0022 H   0  0  0  0  0  0  0  0  0  0  0  0
    3.1661    1.1049   -0.2993 H   0  0  0  0  0  0  0  0  0  0  0  0
    5.6062   -0.1380   -1.6726 H   0  0  0  0  0  0  0  0  0  0  0  0
    4.1977   -1.7868   -2.2327 H   0  0  0  0  0  0  0  0  0  0  0  0
    2.1600   -2.8638   -3.1235 H   0  0  0  0  0  0  0  0  0  0  0  0
   -0.1817   -2.3983   -3.8985 H   0  0  0  0  0  0  0  0  0  0  0  0
    0.5996    2.5924   -2.2336 H   0  0  0  0  0  0  0  0  0  0  0  0
   -0.9568    1.9654   -2.8387 H   0  0  0  0  0  0  0  0  0  0  0  0
   -1.6508    3.6097   -4.3695 H   0  0  0  0  0  0  0  0  0  0  0  0
   -1.3249    4.8836   -6.4723 H   0  0  0  0  0  0  0  0  0  0  0  0
    0.8501    4.7512   -7.6939 H   0  0  0  0  0  0  0  0  0  0  0  0
    2.6854    3.3187   -6.7839 H   0  0  0  0  0  0  0  0  0  0  0  0
    2.3640    2.0533   -4.6920 H   0  0  0  0  0  0  0  0  0  0  0  0
    4.1301    2.8839   -1.5059 H   0  0  0  0  0  0  0  0  0  0  0  0
    4.5217    3.3316   -3.1201 H   0  0  0  0  0  0  0  0  0  0  0  0
  1  2  3  0
  1 22  1  0
  2  3  1  0
  3  4  1  0
  3 23  1  0
  3 24  1  0
  4  5  1  0
  4 19  1  0
  4 25  1  1
  5  6  1  0
  5 26  1  0
  6  7  2  0
  6 18  1  0
  7  8  1  0
  7 27  1  0
  8  9  2  0
  8 28  1  0
  9 10  1  0
 10 11  1  0
 10 18  2  0
 11 12  1  0
 11 29  1  0
 11 30  1  0
 12 13  2  0
 12 17  1  0
 13 14  1  0
 13 31  1  0
 14 15  2  0
 14 32  1  0
 15 16  1  0
 15 33  1  0
 16 17  2  0
 16 34  1  0
 17 35  1  0
 19 20  1  0
 19 21  2  0
 20 36  1  0
 20 37  1  0
M  END

