
     RDKit          3D

 68 74  0  0  0  0  0  0  0  0999 V2000
    4.4367    5.0567    1.5945 C   0  0  0  0  0  0  0  0  0  0  0  0
    5.1896    3.8987    1.0246 C   0  0  0  0  0  0  0  0  0  0  0  0
    4.6139    3.1165    0.0297 N   0  0  0  0  0  0  0  0  0  0  0  0
    3.6904    3.2624   -0.3551 H   0  0  0  0  0  0  0  0  0  0  0  0
    5.4815    2.1173   -0.3412 C   0  0  0  0  0  0  0  0  0  0  0  0
    5.3600    1.0922   -1.2870 C   0  0  0  0  0  0  0  0  0  0  0  0
    6.4283    0.2136   -1.4360 C   0  0  0  0  0  0  0  0  0  0  0  0
    7.6181    0.3334   -0.6681 C   0  0  0  0  0  0  0  0  0  0  0  0
    8.7348   -0.6280   -0.8581 C   0  0  0  0  0  0  0  0  0  0  0  0
   10.0806   -0.2242   -0.7336 C   0  0  0  0  0  0  0  0  0  0  0  0
   11.1275   -1.1239   -0.9006 C   0  0  0  0  0  0  0  0  0  0  0  0
   10.8808   -2.4780   -1.1985 C   0  0  0  0  0  0  0  0  0  0  0  0
   12.0488   -3.3626   -1.4000 C   0  0  0  0  0  0  0  0  0  0  0  0
   13.1751   -2.9175   -1.8501 N   0  0  0  0  0  0  0  0  0  0  0  0
   14.0761   -4.0175   -1.8686 C   0  0  2  0  0  0  0  0  0  0  0  0
   15.5587   -3.8303   -1.5813 C   0  0  0  0  0  0  0  0  0  0  0  0
   15.1234   -4.1621   -2.9642 C   0  0  0  0  0  0  0  0  0  0  0  0
   13.3583   -5.2186   -1.3441 C   0  0  0  0  0  0  0  0  0  0  0  0
   13.7629   -6.3459   -1.1361 O   0  0  0  0  0  0  0  0  0  0  0  0
   12.0680   -4.7473   -1.0951 N   0  0  0  0  0  0  0  0  0  0  0  0
   11.0929   -5.5694   -0.3896 C   0  0  0  0  0  0  0  0  0  0  0  0
   10.2432   -6.4828   -1.2822 C   0  0  1  0  0  0  0  0  0  0  0  0
   10.9806   -7.6457   -1.9714 C   0  0  0  0  0  0  0  0  0  0  0  0
    9.8502   -8.6105   -2.3518 C   0  0  0  0  0  0  0  0  0  0  0  0
    8.8398   -8.3822   -1.3119 N   0  0  0  0  0  0  0  0  0  0  0  0
    7.6997   -9.0981   -1.0768 C   0  0  0  0  0  0  0  0  0  0  0  0
    6.9405   -8.7984   -0.1607 O   0  0  0  0  0  0  0  0  0  0  0  0
    7.4087  -10.2612   -1.9834 C   0  0  1  0  0  0  0  0  0  0  0  0
    6.7426  -11.4700   -1.3486 C   0  0  0  0  0  0  0  0  0  0  0  0
    5.9450  -10.5748   -2.2368 C   0  0  0  0  0  0  0  0  0  0  0  0
    9.1419   -7.2082   -0.4939 C   0  0  0  0  0  0  0  0  0  0  0  0
    9.5432   -2.8856   -1.3398 C   0  0  0  0  0  0  0  0  0  0  0  0
    8.4964   -1.9792   -1.1720 C   0  0  0  0  0  0  0  0  0  0  0  0
    7.7198    1.3704    0.2713 C   0  0  0  0  0  0  0  0  0  0  0  0
    6.6571    2.2709    0.4467 C   0  0  0  0  0  0  0  0  0  0  0  0
    6.4499    3.4099    1.3123 C   0  0  0  0  0  0  0  0  0  0  0  0
    7.4372    3.9319    2.3112 C   0  0  0  0  0  0  0  0  0  0  0  0
    3.4900    4.7356    2.0637 H   0  0  0  0  0  0  0  0  0  0  0  0
    4.1816    5.7984    0.8170 H   0  0  0  0  0  0  0  0  0  0  0  0
    5.0298    5.5710    2.3618 H   0  0  0  0  0  0  0  0  0  0  0  0
    4.4610    0.9848   -1.8992 H   0  0  0  0  0  0  0  0  0  0  0  0
    6.3586   -0.5749   -2.1880 H   0  0  0  0  0  0  0  0  0  0  0  0
   10.3095    0.8230   -0.5244 H   0  0  0  0  0  0  0  0  0  0  0  0
   12.1633   -0.7914   -0.8170 H   0  0  0  0  0  0  0  0  0  0  0  0
   16.0254   -4.6153   -0.9797 H   0  0  0  0  0  0  0  0  0  0  0  0
   15.8609   -2.8042   -1.3596 H   0  0  0  0  0  0  0  0  0  0  0  0
   15.2902   -5.1779   -3.3335 H   0  0  0  0  0  0  0  0  0  0  0  0
   15.1168   -3.3688   -3.7152 H   0  0  0  0  0  0  0  0  0  0  0  0
   10.4446   -4.9061    0.2003 H   0  0  0  0  0  0  0  0  0  0  0  0
   11.6596   -6.1950    0.3199 H   0  0  0  0  0  0  0  0  0  0  0  0
    9.7627   -5.8700   -2.0658 H   0  0  0  0  0  0  0  0  0  0  0  0
   11.6744   -8.1189   -1.2595 H   0  0  0  0  0  0  0  0  0  0  0  0
   11.5784   -7.3326   -2.8388 H   0  0  0  0  0  0  0  0  0  0  0  0
   10.1930   -9.6569   -2.3645 H   0  0  0  0  0  0  0  0  0  0  0  0
    9.4466   -8.3802   -3.3558 H   0  0  0  0  0  0  0  0  0  0  0  0
    8.1017  -10.4547   -2.8036 H   0  0  0  0  0  0  0  0  0  0  0  0
    6.5586  -11.4001   -0.2736 H   0  0  0  0  0  0  0  0  0  0  0  0
    7.0386  -12.4569   -1.7151 H   0  0  0  0  0  0  0  0  0  0  0  0
    5.2280   -9.9048   -1.7558 H   0  0  0  0  0  0  0  0  0  0  0  0
    5.6731  -10.9240   -3.2368 H   0  0  0  0  0  0  0  0  0  0  0  0
    9.4995   -7.5096    0.5098 H   0  0  0  0  0  0  0  0  0  0  0  0
    8.2348   -6.6052   -0.3377 H   0  0  0  0  0  0  0  0  0  0  0  0
    9.3015   -3.9138   -1.6070 H   0  0  0  0  0  0  0  0  0  0  0  0
    7.4695   -2.3371   -1.2692 H   0  0  0  0  0  0  0  0  0  0  0  0
    8.6162    1.4614    0.8890 H   0  0  0  0  0  0  0  0  0  0  0  0
    8.3858    4.2253    1.8286 H   0  0  0  0  0  0  0  0  0  0  0  0
    7.6886    3.1708    3.0703 H   0  0  0  0  0  0  0  0  0  0  0  0
    7.0559    4.8141    2.8462 H   0  0  0  0  0  0  0  0  0  0  0  0
  1  2  1  0
  1 38  1  0
  1 39  1  0
  1 40  1  0
  2  3  1  0
  2 36  2  0
  3  4  1  0
  3  5  1  0
  5  6  2  0
  5 35  1  0
  6  7  1  0
  6 41  1  0
  7  8  2  0
  7 42  1  0
  8  9  1  0
  8 34  1  0
  9 10  2  0
  9 33  1  0
 10 11  1  0
 10 43  1  0
 11 12  2  0
 11 44  1  0
 12 13  1  0
 12 32  1  0
 13 14  2  0
 13 20  1  0
 15 14  1  6
 15 16  1  0
 15 17  1  0
 15 18  1  0
 16 17  1  0
 16 45  1  0
 16 46  1  0
 17 47  1  0
 17 48  1  0
 18 19  2  0
 18 20  1  0
 20 21  1  0
 21 22  1  0
 21 49  1  0
 21 50  1  0
 22 23  1  0
 22 31  1  0
 22 51  1  6
 23 24  1  0
 23 52  1  0
 23 53  1  0
 24 25  1  0
 24 54  1  0
 24 55  1  0
 25 26  1  0
 25 31  1  0
 26 27  2  0
 26 28  1  0
 28 29  1  0
 28 30  1  0
 28 56  1  6
 29 30  1  0
 29 57  1  0
 29 58  1  0
 30 59  1  0
 30 60  1  0
 31 61  1  0
 31 62  1  0
 32 33  2  0
 32 63  1  0
 33 64  1  0
 34 35  2  0
 34 65  1  0
 35 36  1  0
 36 37  1  0
 37 66  1  0
 37 67  1  0
 37 68  1  0
M  END

