
     RDKit          3D

 52 54  0  0  0  0  0  0  0  0999 V2000
    8.3896   -0.4875   -7.3446 C   0  0  0  0  0  0  0  0  0  0  0  0
    8.8818    0.3357   -6.2023 C   0  0  0  0  0  0  0  0  0  0  0  0
    9.7719   -0.0337   -5.1534 C   0  0  0  0  0  0  0  0  0  0  0  0
    9.4759    0.8174   -4.1044 C   0  0  0  0  0  0  0  0  0  0  0  0
   10.1584    0.9264   -2.8303 N   0  0  0  0  0  0  0  0  0  0  0  0
   10.9671    2.0764   -2.6190 C   0  0  0  0  0  0  0  0  0  0  0  0
   10.0421    3.3011   -2.1535 C   0  0  0  0  0  0  0  0  0  0  0  0
    9.3011    2.8939   -0.9960 N   0  0  0  0  0  0  0  0  0  0  0  0
    9.8628    3.1689    0.3227 C   0  0  0  0  0  0  0  0  0  0  0  0
    9.6911    4.6267    0.7708 C   0  0  0  0  0  0  0  0  0  0  0  0
    8.2343    5.0725    0.9278 C   0  0  0  0  0  0  0  0  0  0  0  0
    8.1037    6.5206    1.4131 C   0  0  0  0  0  0  0  0  0  0  0  0
    6.6575    7.0552    1.4728 C   0  0  1  0  0  0  0  0  0  0  0  0
    5.7658    6.3553    2.5236 C   0  0  0  0  0  0  0  0  0  0  0  0
    6.0698    6.8305    3.9465 C   0  0  0  0  0  0  0  0  0  0  0  0
    5.9656    8.2347    4.0647 O   0  0  0  0  0  0  0  0  0  0  0  0
    6.8559    8.9206    3.2067 C   0  0  0  0  0  0  0  0  0  0  0  0
    6.6051    8.5765    1.7367 C   0  0  0  0  0  0  0  0  0  0  0  0
    8.4882    1.7337   -1.2024 C   0  0  0  0  0  0  0  0  0  0  0  0
    9.4401    0.5263   -1.6717 C   0  0  0  0  0  0  0  0  0  0  0  0
    8.4683    1.6965   -4.3359 N   0  0  0  0  0  0  0  0  0  0  0  0
    7.9834    1.2894   -5.5998 N   0  0  0  0  0  0  0  0  0  0  0  0
    7.7206    2.0963   -6.1696 H   0  0  0  0  0  0  0  0  0  0  0  0
    9.1755   -1.1784   -7.6900 H   0  0  0  0  0  0  0  0  0  0  0  0
    8.1007    0.1287   -8.2190 H   0  0  0  0  0  0  0  0  0  0  0  0
    7.4904   -1.1041   -7.0978 H   0  0  0  0  0  0  0  0  0  0  0  0
   10.5384   -0.8055   -5.1833 H   0  0  0  0  0  0  0  0  0  0  0  0
   11.4742    2.3676   -3.5453 H   0  0  0  0  0  0  0  0  0  0  0  0
   11.7141    1.9019   -1.8233 H   0  0  0  0  0  0  0  0  0  0  0  0
    9.3641    3.4860   -2.9953 H   0  0  0  0  0  0  0  0  0  0  0  0
   10.6677    4.1760   -1.9305 H   0  0  0  0  0  0  0  0  0  0  0  0
   10.9396    2.9110    0.3214 H   0  0  0  0  0  0  0  0  0  0  0  0
    9.3713    2.4998    1.0445 H   0  0  0  0  0  0  0  0  0  0  0  0
   10.2136    5.2934    0.0627 H   0  0  0  0  0  0  0  0  0  0  0  0
   10.2238    4.7358    1.7313 H   0  0  0  0  0  0  0  0  0  0  0  0
    7.7249    4.3876    1.6286 H   0  0  0  0  0  0  0  0  0  0  0  0
    7.7109    4.9623   -0.0383 H   0  0  0  0  0  0  0  0  0  0  0  0
    8.6786    7.1711    0.7293 H   0  0  0  0  0  0  0  0  0  0  0  0
    8.5982    6.6173    2.3959 H   0  0  0  0  0  0  0  0  0  0  0  0
    6.2143    6.8728    0.4775 H   0  0  0  0  0  0  0  0  0  0  0  0
    5.8589    5.2579    2.4687 H   0  0  0  0  0  0  0  0  0  0  0  0
    4.7107    6.5909    2.3039 H   0  0  0  0  0  0  0  0  0  0  0  0
    7.0820    6.4965    4.2623 H   0  0  0  0  0  0  0  0  0  0  0  0
    5.3504    6.4011    4.6609 H   0  0  0  0  0  0  0  0  0  0  0  0
    7.9064    8.6934    3.4887 H   0  0  0  0  0  0  0  0  0  0  0  0
    6.6983    9.9953    3.3863 H   0  0  0  0  0  0  0  0  0  0  0  0
    7.3309    9.1097    1.0986 H   0  0  0  0  0  0  0  0  0  0  0  0
    5.6036    8.9513    1.4652 H   0  0  0  0  0  0  0  0  0  0  0  0
    7.8018    1.8937   -2.0430 H   0  0  0  0  0  0  0  0  0  0  0  0
    7.9585    1.4600   -0.2800 H   0  0  0  0  0  0  0  0  0  0  0  0
    8.8067   -0.3406   -1.8888 H   0  0  0  0  0  0  0  0  0  0  0  0
   10.1215    0.2958   -0.8334 H   0  0  0  0  0  0  0  0  0  0  0  0
  1  2  1  0
  1 24  1  0
  1 25  1  0
  1 26  1  0
  2  3  2  0
  2 22  1  0
  3  4  1  0
  3 27  1  0
  4  5  1  0
  4 21  2  0
  5  6  1  0
  5 20  1  0
  6  7  1  0
  6 28  1  0
  6 29  1  0
  7  8  1  0
  7 30  1  0
  7 31  1  0
  8  9  1  0
  8 19  1  0
  9 10  1  0
  9 32  1  0
  9 33  1  0
 10 11  1  0
 10 34  1  0
 10 35  1  0
 11 12  1  0
 11 36  1  0
 11 37  1  0
 12 13  1  0
 12 38  1  0
 12 39  1  0
 13 14  1  0
 13 18  1  0
 13 40  1  6
 14 15  1  0
 14 41  1  0
 14 42  1  0
 15 16  1  0
 15 43  1  0
 15 44  1  0
 16 17  1  0
 17 18  1  0
 17 45  1  0
 17 46  1  0
 18 47  1  0
 18 48  1  0
 19 20  1  0
 19 49  1  0
 19 50  1  0
 20 51  1  0
 20 52  1  0
 21 22  1  0
 22 23  1  0
M  END

