
     RDKit          3D

 58 60  0  0  0  0  0  0  0  0999 V2000
    7.4046    1.9424    6.0639 C   0  0  0  0  0  0  0  0  0  0  0  0
    6.4143    1.3071    5.0866 C   0  0  0  0  0  0  0  0  0  0  0  0
    6.7153    1.6560    3.6261 C   0  0  0  0  0  0  0  0  0  0  0  0
    5.8060    0.9936    2.5794 C   0  0  0  0  0  0  0  0  0  0  0  0
    4.3737    1.3170    2.6756 N   0  0  0  0  0  0  0  0  0  0  0  0
    3.5639    0.3907    3.3260 C   0  0  0  0  0  0  0  0  0  0  0  0
    4.0594   -0.5492    3.9406 O   0  0  0  0  0  0  0  0  0  0  0  0
    2.0887    0.5728    3.2386 C   0  0  0  0  0  0  0  0  0  0  0  0
    1.2828   -0.3431    3.8267 C   0  0  0  0  0  0  0  0  0  0  0  0
   -0.1608   -0.3989    3.8814 C   0  0  0  0  0  0  0  0  0  0  0  0
   -0.9200   -1.4610    4.4734 C   0  0  0  0  0  0  0  0  0  0  0  0
   -0.4089   -2.6996    5.1416 C   0  0  0  0  0  0  0  0  0  0  0  0
   -2.2208   -1.2356    4.3607 N   0  0  0  0  0  0  0  0  0  0  0  0
   -2.3366   -0.0535    3.7093 N   0  0  0  0  0  0  0  0  0  0  0  0
   -3.6726    0.4830    3.4841 C   0  0  0  0  0  0  0  0  0  0  0  0
   -4.1191    1.5046    4.5150 C   0  0  0  0  0  0  0  0  0  0  0  0
   -4.6926    2.7186    4.1218 C   0  0  0  0  0  0  0  0  0  0  0  0
   -5.1339    3.6454    5.0729 C   0  0  0  0  0  0  0  0  0  0  0  0
   -5.0093    3.3888    6.4444 C   0  0  0  0  0  0  0  0  0  0  0  0
   -5.4706    4.3850    7.4802 C   0  0  0  0  0  0  0  0  0  0  0  0
   -4.4303    2.1667    6.8322 C   0  0  0  0  0  0  0  0  0  0  0  0
   -3.9942    1.2387    5.8887 C   0  0  0  0  0  0  0  0  0  0  0  0
   -1.1318    0.4986    3.4044 C   0  0  0  0  0  0  0  0  0  0  0  0
   -0.9743    1.8075    2.7022 C   0  0  0  0  0  0  0  0  0  0  0  0
    3.8361    2.3011    1.7709 C   0  0  1  0  0  0  0  0  0  0  0  0
    3.1235    3.5280    2.2903 C   0  0  0  0  0  0  0  0  0  0  0  0
    4.4817    3.6596    1.6601 C   0  0  0  0  0  0  0  0  0  0  0  0
    7.1645    1.6820    7.1073 H   0  0  0  0  0  0  0  0  0  0  0  0
    7.3994    3.0435    5.9879 H   0  0  0  0  0  0  0  0  0  0  0  0
    8.4374    1.6067    5.8681 H   0  0  0  0  0  0  0  0  0  0  0  0
    5.3902    1.6333    5.3352 H   0  0  0  0  0  0  0  0  0  0  0  0
    6.4071    0.2116    5.2063 H   0  0  0  0  0  0  0  0  0  0  0  0
    7.7514    1.3514    3.3864 H   0  0  0  0  0  0  0  0  0  0  0  0
    6.6951    2.7540    3.5029 H   0  0  0  0  0  0  0  0  0  0  0  0
    5.8996   -0.0985    2.6675 H   0  0  0  0  0  0  0  0  0  0  0  0
    6.1449    1.2830    1.5718 H   0  0  0  0  0  0  0  0  0  0  0  0
    1.6874    1.4257    2.6977 H   0  0  0  0  0  0  0  0  0  0  0  0
    1.8092   -1.1612    4.3307 H   0  0  0  0  0  0  0  0  0  0  0  0
    0.1962   -3.3122    4.4533 H   0  0  0  0  0  0  0  0  0  0  0  0
   -1.2558   -3.3059    5.4914 H   0  0  0  0  0  0  0  0  0  0  0  0
    0.2293   -2.4598    6.0078 H   0  0  0  0  0  0  0  0  0  0  0  0
   -4.3360   -0.3943    3.4990 H   0  0  0  0  0  0  0  0  0  0  0  0
   -3.7242    0.9153    2.4738 H   0  0  0  0  0  0  0  0  0  0  0  0
   -4.8021    2.9487    3.0573 H   0  0  0  0  0  0  0  0  0  0  0  0
   -5.5794    4.5868    4.7390 H   0  0  0  0  0  0  0  0  0  0  0  0
   -5.9602    5.2546    7.0173 H   0  0  0  0  0  0  0  0  0  0  0  0
   -4.6239    4.7573    8.0815 H   0  0  0  0  0  0  0  0  0  0  0  0
   -6.1865    3.9289    8.1840 H   0  0  0  0  0  0  0  0  0  0  0  0
   -4.3228    1.9381    7.8969 H   0  0  0  0  0  0  0  0  0  0  0  0
   -3.5503    0.2937    6.2121 H   0  0  0  0  0  0  0  0  0  0  0  0
   -1.9328    2.3259    2.5692 H   0  0  0  0  0  0  0  0  0  0  0  0
   -0.5158    1.6739    1.7077 H   0  0  0  0  0  0  0  0  0  0  0  0
   -0.3132    2.4765    3.2758 H   0  0  0  0  0  0  0  0  0  0  0  0
    3.4496    1.8928    0.8253 H   0  0  0  0  0  0  0  0  0  0  0  0
    3.0609    3.6369    3.3762 H   0  0  0  0  0  0  0  0  0  0  0  0
    2.2464    3.8852    1.7429 H   0  0  0  0  0  0  0  0  0  0  0  0
    5.3227    3.8864    2.3176 H   0  0  0  0  0  0  0  0  0  0  0  0
    4.5606    4.0975    0.6614 H   0  0  0  0  0  0  0  0  0  0  0  0
  1  2  1  0
  1 28  1  0
  1 29  1  0
  1 30  1  0
  2  3  1  0
  2 31  1  0
  2 32  1  0
  3  4  1  0
  3 33  1  0
  3 34  1  0
  4  5  1  0
  4 35  1  0
  4 36  1  0
  5  6  1  0
  5 25  1  0
  6  7  2  0
  6  8  1  0
  8  9  2  0
  8 37  1  0
  9 10  1  0
  9 38  1  0
 10 11  1  0
 10 23  2  0
 11 12  1  0
 11 13  2  0
 12 39  1  0
 12 40  1  0
 12 41  1  0
 13 14  1  0
 14 15  1  0
 14 23  1  0
 15 16  1  0
 15 42  1  0
 15 43  1  0
 16 17  2  0
 16 22  1  0
 17 18  1  0
 17 44  1  0
 18 19  2  0
 18 45  1  0
 19 20  1  0
 19 21  1  0
 20 46  1  0
 20 47  1  0
 20 48  1  0
 21 22  2  0
 21 49  1  0
 22 50  1  0
 23 24  1  0
 24 51  1  0
 24 52  1  0
 24 53  1  0
 25 26  1  0
 25 27  1  0
 25 54  1  6
 26 27  1  0
 26 55  1  0
 26 56  1  0
 27 57  1  0
 27 58  1  0
M  END

