
     RDKit          3D

 37 37  0  0  0  0  0  0  0  0999 V2000
    1.1026   -4.7132    1.2065 C   0  0  0  0  0  0  0  0  0  0  0  0
    2.6207   -4.5569    1.1095 C   0  0  0  0  0  0  0  0  0  0  0  0
    3.0739   -3.7047   -0.0801 C   0  0  0  0  0  0  0  0  0  0  0  0
    4.5932   -3.5497   -0.1857 C   0  0  0  0  0  0  0  0  0  0  0  0
    5.0419   -2.6876   -1.3703 C   0  0  0  0  0  0  0  0  0  0  0  0
    6.5589   -2.5384   -1.5053 C   0  0  0  0  0  0  0  0  0  0  0  0
    7.1980   -3.7996   -1.8046 N   0  0  0  0  0  0  0  0  0  0  0  0
    8.5317   -4.1094   -1.6479 C   0  0  0  0  0  0  0  0  0  0  0  0
    9.4511   -3.1654   -1.1394 C   0  0  0  0  0  0  0  0  0  0  0  0
   10.8113   -3.5557   -0.9969 C   0  0  0  0  0  0  0  0  0  0  0  0
   11.2149   -4.8684   -1.3605 C   0  0  0  0  0  0  0  0  0  0  0  0
   12.5390   -5.1999   -1.1876 N   0  0  0  0  0  0  0  0  0  0  0  0
   10.2954   -5.8395   -1.8614 C   0  0  0  0  0  0  0  0  0  0  0  0
   10.6836   -7.2373   -2.2325 C   0  0  0  0  0  0  0  0  0  0  0  0
    8.9352   -5.4252   -2.0194 C   0  0  0  0  0  0  0  0  0  0  0  0
    0.8134   -5.3290    2.0729 H   0  0  0  0  0  0  0  0  0  0  0  0
    0.6904   -5.1951    0.3039 H   0  0  0  0  0  0  0  0  0  0  0  0
    0.6044   -3.7348    1.3128 H   0  0  0  0  0  0  0  0  0  0  0  0
    3.0918   -5.5543    1.0403 H   0  0  0  0  0  0  0  0  0  0  0  0
    3.0066   -4.1090    2.0433 H   0  0  0  0  0  0  0  0  0  0  0  0
    2.6068   -2.7042   -0.0106 H   0  0  0  0  0  0  0  0  0  0  0  0
    2.6856   -4.1498   -1.0157 H   0  0  0  0  0  0  0  0  0  0  0  0
    5.0611   -4.5477   -0.2589 H   0  0  0  0  0  0  0  0  0  0  0  0
    4.9848   -3.1077    0.7489 H   0  0  0  0  0  0  0  0  0  0  0  0
    4.6087   -1.6765   -1.2806 H   0  0  0  0  0  0  0  0  0  0  0  0
    4.6330   -3.1013   -2.3122 H   0  0  0  0  0  0  0  0  0  0  0  0
    6.9836   -2.1502   -0.5652 H   0  0  0  0  0  0  0  0  0  0  0  0
    6.7916   -1.7890   -2.2892 H   0  0  0  0  0  0  0  0  0  0  0  0
    6.6516   -4.4701   -2.3363 H   0  0  0  0  0  0  0  0  0  0  0  0
    9.1528   -2.1366   -0.9400 H   0  0  0  0  0  0  0  0  0  0  0  0
   11.5586   -2.8450   -0.6369 H   0  0  0  0  0  0  0  0  0  0  0  0
   13.1984   -4.4664   -0.9606 H   0  0  0  0  0  0  0  0  0  0  0  0
   12.9162   -6.0195   -1.6455 H   0  0  0  0  0  0  0  0  0  0  0  0
   10.7236   -7.4068   -3.3322 H   0  0  0  0  0  0  0  0  0  0  0  0
    9.9384   -7.9657   -1.8512 H   0  0  0  0  0  0  0  0  0  0  0  0
   11.6563   -7.5516   -1.8198 H   0  0  0  0  0  0  0  0  0  0  0  0
    8.1737   -6.1591   -2.3004 H   0  0  0  0  0  0  0  0  0  0  0  0
  1  2  1  0
  1 16  1  0
  1 17  1  0
  1 18  1  0
  2  3  1  0
  2 19  1  0
  2 20  1  0
  3  4  1  0
  3 21  1  0
  3 22  1  0
  4  5  1  0
  4 23  1  0
  4 24  1  0
  5  6  1  0
  5 25  1  0
  5 26  1  0
  6  7  1  0
  6 27  1  0
  6 28  1  0
  7  8  1  0
  7 29  1  0
  8  9  2  0
  8 15  1  0
  9 10  1  0
  9 30  1  0
 10 11  2  0
 10 31  1  0
 11 12  1  0
 11 13  1  0
 12 32  1  0
 12 33  1  0
 13 14  1  0
 13 15  2  0
 14 34  1  0
 14 35  1  0
 14 36  1  0
 15 37  1  0
M  END

