
     RDKit          3D

 54 57  0  0  0  0  0  0  0  0999 V2000
    4.0441    2.8761    1.3830 C   0  0  0  0  0  0  0  0  0  0  0  0
    3.0420    1.7420    1.1593 C   0  0  0  0  0  0  0  0  0  0  0  0
    3.0737    1.1964   -0.2073 N   0  0  0  0  0  0  0  0  0  0  0  0
    2.1879    1.8037   -1.1960 C   0  0  0  0  0  0  0  0  0  0  0  0
    0.7615    1.2482   -1.4045 C   0  0  1  0  0  0  0  0  0  0  0  0
   -0.0085    2.1676   -2.4280 C   0  0  0  0  0  0  0  0  0  0  0  0
   -1.5004    1.7621   -2.2788 C   0  0  0  0  0  0  0  0  0  0  0  0
   -1.4479    0.6317   -1.2099 C   0  0  1  0  0  0  0  0  0  0  0  0
   -2.4131    0.3942   -0.7405 H   0  0  0  0  0  0  0  0  0  0  0  0
   -0.7502   -0.5153   -1.8914 C   0  0  0  0  0  0  0  0  0  0  0  0
   -1.1301   -1.7184   -2.4358 C   0  0  0  0  0  0  0  0  0  0  0  0
   -0.1031   -2.4692   -3.0672 C   0  0  0  0  0  0  0  0  0  0  0  0
   -0.3786   -3.8039   -3.6633 C   0  0  0  0  0  0  0  0  0  0  0  0
    0.0790   -4.1642   -4.9438 C   0  0  0  0  0  0  0  0  0  0  0  0
    0.7238   -3.2608   -5.6814 F   0  0  0  0  0  0  0  0  0  0  0  0
   -0.1455   -5.4251   -5.4920 C   0  0  0  0  0  0  0  0  0  0  0  0
   -0.8517   -6.3742   -4.7507 C   0  0  0  0  0  0  0  0  0  0  0  0
   -1.3349   -6.0623   -3.4780 C   0  0  0  0  0  0  0  0  0  0  0  0
   -1.0934   -4.7914   -2.9669 C   0  0  0  0  0  0  0  0  0  0  0  0
   -1.5561   -4.4982   -1.7395 F   0  0  0  0  0  0  0  0  0  0  0  0
    1.1565   -2.0370   -3.1639 N   0  0  0  0  0  0  0  0  0  0  0  0
    1.5085   -0.8572   -2.6509 N   0  0  0  0  0  0  0  0  0  0  0  0
    0.6053   -0.1354   -2.0198 C   0  0  0  0  0  0  0  0  0  0  0  0
   -0.3181    1.1311   -0.2345 C   0  0  1  0  0  0  0  0  0  0  0  0
   -0.0169    0.0809    0.8503 C   0  0  0  0  0  0  0  0  0  0  0  0
   -0.6794    2.4521    0.4622 C   0  0  0  0  0  0  0  0  0  0  0  0
    4.1651    0.3933   -0.4862 C   0  0  0  0  0  0  0  0  0  0  0  0
    4.8990   -0.0020    0.4008 O   0  0  0  0  0  0  0  0  0  0  0  0
    4.4419    0.0550   -1.9568 C   0  0  0  0  0  0  0  0  0  0  0  0
    5.5784   -0.8477   -2.1162 C   0  0  0  0  0  0  0  0  0  0  0  0
    6.4712   -1.5614   -2.3009 N   0  0  0  0  0  0  0  0  0  0  0  0
    3.9567    3.2635    2.4109 H   0  0  0  0  0  0  0  0  0  0  0  0
    3.8682    3.7174    0.6920 H   0  0  0  0  0  0  0  0  0  0  0  0
    5.0729    2.5147    1.2434 H   0  0  0  0  0  0  0  0  0  0  0  0
    2.0241    2.0992    1.3554 H   0  0  0  0  0  0  0  0  0  0  0  0
    3.2487    0.9204    1.8585 H   0  0  0  0  0  0  0  0  0  0  0  0
    2.6726    1.7876   -2.1821 H   0  0  0  0  0  0  0  0  0  0  0  0
    2.0868    2.8723   -0.9397 H   0  0  0  0  0  0  0  0  0  0  0  0
    0.3754    2.0171   -3.4476 H   0  0  0  0  0  0  0  0  0  0  0  0
    0.1513    3.2278   -2.1795 H   0  0  0  0  0  0  0  0  0  0  0  0
   -1.9425    1.4086   -3.2211 H   0  0  0  0  0  0  0  0  0  0  0  0
   -2.1184    2.5996   -1.9246 H   0  0  0  0  0  0  0  0  0  0  0  0
   -2.1538   -2.0945   -2.3925 H   0  0  0  0  0  0  0  0  0  0  0  0
    0.2344   -5.6380   -6.4923 H   0  0  0  0  0  0  0  0  0  0  0  0
   -1.0294   -7.3671   -5.1697 H   0  0  0  0  0  0  0  0  0  0  0  0
   -1.8868   -6.7826   -2.8724 H   0  0  0  0  0  0  0  0  0  0  0  0
    0.7673    0.4181    1.5401 H   0  0  0  0  0  0  0  0  0  0  0  0
   -0.9241   -0.0960    1.4514 H   0  0  0  0  0  0  0  0  0  0  0  0
    0.3011   -0.8877    0.4405 H   0  0  0  0  0  0  0  0  0  0  0  0
   -1.5890    2.3146    1.0694 H   0  0  0  0  0  0  0  0  0  0  0  0
   -0.8666    3.2870   -0.2256 H   0  0  0  0  0  0  0  0  0  0  0  0
    0.1171    2.7691    1.1518 H   0  0  0  0  0  0  0  0  0  0  0  0
    4.6580    0.9841   -2.5132 H   0  0  0  0  0  0  0  0  0  0  0  0
    3.5416   -0.3911   -2.4221 H   0  0  0  0  0  0  0  0  0  0  0  0
  1  2  1  0
  1 32  1  0
  1 33  1  0
  1 34  1  0
  2  3  1  0
  2 35  1  0
  2 36  1  0
  3  4  1  0
  3 27  1  0
  5  4  1  1
  4 37  1  0
  4 38  1  0
  5  6  1  0
  5 23  1  0
  5 24  1  0
  6  7  1  0
  6 39  1  0
  6 40  1  0
  7  8  1  0
  7 41  1  0
  7 42  1  0
  8  9  1  1
  8 10  1  0
  8 24  1  0
 10 11  1  0
 10 23  2  0
 11 12  2  0
 11 43  1  0
 12 13  1  0
 12 21  1  0
 13 14  2  0
 13 19  1  0
 14 15  1  0
 14 16  1  0
 16 17  2  0
 16 44  1  0
 17 18  1  0
 17 45  1  0
 18 19  2  0
 18 46  1  0
 19 20  1  0
 21 22  2  0
 22 23  1  0
 24 25  1  1
 24 26  1  0
 25 47  1  0
 25 48  1  0
 25 49  1  0
 26 50  1  0
 26 51  1  0
 26 52  1  0
 27 28  2  0
 27 29  1  0
 29 30  1  0
 29 53  1  0
 29 54  1  0
 30 31  3  0
M  END

