
     RDKit          3D

 76 78  0  0  0  0  0  0  0  0999 V2000
    1.7091    2.3297    0.0650 C   0  0  0  0  0  0  0  0  0  0  0  0
    3.0887    2.6323   -0.4788 C   0  0  0  0  0  0  0  0  0  0  0  0
    3.6814    1.3895   -0.8972 O   0  0  0  0  0  0  0  0  0  0  0  0
    4.9005    1.4580   -1.4148 C   0  0  0  0  0  0  0  0  0  0  0  0
    5.6543    2.5170   -1.5905 N   0  0  0  0  0  0  0  0  0  0  0  0
    6.7953    1.9913   -2.1495 C   0  0  0  0  0  0  0  0  0  0  0  0
    7.9510    2.8187   -2.5232 C   0  0  0  0  0  0  0  0  0  0  0  0
    7.9142    4.2109   -2.3421 C   0  0  0  0  0  0  0  0  0  0  0  0
    9.0061    5.0018   -2.6937 C   0  0  0  0  0  0  0  0  0  0  0  0
   10.1769    4.4371   -3.2359 C   0  0  0  0  0  0  0  0  0  0  0  0
   11.3403    5.2824   -3.6059 C   0  0  0  0  0  0  0  0  0  0  0  0
   11.6840    6.4233   -2.8621 C   0  0  0  0  0  0  0  0  0  0  0  0
   12.7745    7.2299   -3.2008 C   0  0  0  0  0  0  0  0  0  0  0  0
   13.5605    6.9055   -4.3164 C   0  0  0  0  0  0  0  0  0  0  0  0
   14.6365    7.6213   -4.7354 O   0  0  0  0  0  0  0  0  0  0  0  0
   15.0203    8.7887   -4.0310 C   0  0  0  0  0  0  0  0  0  0  0  0
   16.2425    9.4002   -4.7376 C   0  0  1  0  0  0  0  0  0  0  0  0
   17.4251    8.4089   -4.7301 C   0  0  0  0  0  0  0  0  0  0  0  0
   15.8868    9.7968   -6.1860 C   0  0  0  0  0  0  0  0  0  0  0  0
   16.6278   10.6544   -3.9487 C   0  0  0  0  0  0  0  0  0  0  0  0
   16.0621   11.0570   -2.9596 O   0  0  0  0  0  0  0  0  0  0  0  0
   17.6912   11.2784   -4.4861 O   0  0  0  0  0  0  0  0  0  0  0  0
   18.1338   12.4646   -3.8254 C   0  0  0  0  0  0  0  0  0  0  0  0
   13.2354    5.7664   -5.0730 C   0  0  0  0  0  0  0  0  0  0  0  0
   12.1487    4.9748   -4.7210 C   0  0  0  0  0  0  0  0  0  0  0  0
   10.2020    3.0384   -3.4129 C   0  0  0  0  0  0  0  0  0  0  0  0
    9.1135    2.2435   -3.0653 C   0  0  0  0  0  0  0  0  0  0  0  0
    6.7616    0.6769   -2.3137 N   0  0  0  0  0  0  0  0  0  0  0  0
    5.5360    0.3289   -1.8278 N   0  0  0  0  0  0  0  0  0  0  0  0
    5.0250   -1.0298   -1.8972 C   0  0  0  0  0  0  0  0  0  0  0  0
    4.3359   -1.3150   -3.0707 O   0  0  0  0  0  0  0  0  0  0  0  0
    5.1377   -1.5918   -4.2260 C   0  0  0  0  0  0  0  0  0  0  0  0
    5.6172   -3.0401   -4.2846 C   0  0  0  0  0  0  0  0  0  0  0  0
    6.5430   -3.5579   -5.8702 Si  0  0  1  0  0  4  0  0  0  0  0  0
    6.9814   -5.3919   -5.7137 C   0  0  0  0  0  0  0  0  0  0  0  0
    5.4298   -3.3005   -7.3804 C   0  0  0  0  0  0  0  0  0  0  0  0
    8.1263   -2.5392   -6.0644 C   0  0  0  0  0  0  0  0  0  0  0  0
    1.2250    3.2622    0.3937 H   0  0  0  0  0  0  0  0  0  0  0  0
    1.7656    1.6469    0.9267 H   0  0  0  0  0  0  0  0  0  0  0  0
    1.0762    1.8632   -0.7055 H   0  0  0  0  0  0  0  0  0  0  0  0
    3.7400    3.0995    0.2780 H   0  0  0  0  0  0  0  0  0  0  0  0
    3.0522    3.3156   -1.3428 H   0  0  0  0  0  0  0  0  0  0  0  0
    7.0108    4.6633   -1.9295 H   0  0  0  0  0  0  0  0  0  0  0  0
    8.9397    6.0851   -2.5683 H   0  0  0  0  0  0  0  0  0  0  0  0
   11.1016    6.6826   -1.9749 H   0  0  0  0  0  0  0  0  0  0  0  0
   13.0044    8.0985   -2.5835 H   0  0  0  0  0  0  0  0  0  0  0  0
   15.2709    8.5455   -2.9838 H   0  0  0  0  0  0  0  0  0  0  0  0
   14.1926    9.5187   -4.0092 H   0  0  0  0  0  0  0  0  0  0  0  0
   17.1354    7.4839   -5.2487 H   0  0  0  0  0  0  0  0  0  0  0  0
   17.7179    8.1446   -3.7009 H   0  0  0  0  0  0  0  0  0  0  0  0
   18.2993    8.8424   -5.2359 H   0  0  0  0  0  0  0  0  0  0  0  0
   15.5543    8.9082   -6.7412 H   0  0  0  0  0  0  0  0  0  0  0  0
   16.7581   10.2311   -6.6959 H   0  0  0  0  0  0  0  0  0  0  0  0
   15.0702   10.5366   -6.2072 H   0  0  0  0  0  0  0  0  0  0  0  0
   18.9957   12.8299   -4.3972 H   0  0  0  0  0  0  0  0  0  0  0  0
   18.4280   12.2478   -2.7873 H   0  0  0  0  0  0  0  0  0  0  0  0
   17.3368   13.2233   -3.8088 H   0  0  0  0  0  0  0  0  0  0  0  0
   13.8484    5.5279   -5.9447 H   0  0  0  0  0  0  0  0  0  0  0  0
   11.9047    4.1096   -5.3419 H   0  0  0  0  0  0  0  0  0  0  0  0
   11.1032    2.5621   -3.8061 H   0  0  0  0  0  0  0  0  0  0  0  0
    9.1562    1.1609   -3.1998 H   0  0  0  0  0  0  0  0  0  0  0  0
    4.3120   -1.1484   -1.0697 H   0  0  0  0  0  0  0  0  0  0  0  0
    5.8942   -1.6908   -1.7385 H   0  0  0  0  0  0  0  0  0  0  0  0
    5.9877   -0.8891   -4.2692 H   0  0  0  0  0  0  0  0  0  0  0  0
    4.4813   -1.3681   -5.0812 H   0  0  0  0  0  0  0  0  0  0  0  0
    4.7441   -3.7070   -4.1652 H   0  0  0  0  0  0  0  0  0  0  0  0
    6.2869   -3.2554   -3.4314 H   0  0  0  0  0  0  0  0  0  0  0  0
    6.0768   -6.0127   -5.6022 H   0  0  0  0  0  0  0  0  0  0  0  0
    7.6253   -5.5778   -4.8379 H   0  0  0  0  0  0  0  0  0  0  0  0
    7.5225   -5.7475   -6.6065 H   0  0  0  0  0  0  0  0  0  0  0  0
    4.4866   -3.8639   -7.2838 H   0  0  0  0  0  0  0  0  0  0  0  0
    5.9308   -3.6460   -8.3003 H   0  0  0  0  0  0  0  0  0  0  0  0
    5.1723   -2.2381   -7.5248 H   0  0  0  0  0  0  0  0  0  0  0  0
    8.7892   -2.6601   -5.1915 H   0  0  0  0  0  0  0  0  0  0  0  0
    7.9097   -1.4635   -6.1718 H   0  0  0  0  0  0  0  0  0  0  0  0
    8.6900   -2.8556   -6.9581 H   0  0  0  0  0  0  0  0  0  0  0  0
  1  2  1  0
  1 38  1  0
  1 39  1  0
  1 40  1  0
  2  3  1  0
  2 41  1  0
  2 42  1  0
  3  4  1  0
  4  5  2  0
  4 29  1  0
  5  6  1  0
  6  7  1  0
  6 28  2  0
  7  8  2  0
  7 27  1  0
  8  9  1  0
  8 43  1  0
  9 10  2  0
  9 44  1  0
 10 11  1  0
 10 26  1  0
 11 12  2  0
 11 25  1  0
 12 13  1  0
 12 45  1  0
 13 14  2  0
 13 46  1  0
 14 15  1  0
 14 24  1  0
 15 16  1  0
 16 17  1  0
 16 47  1  0
 16 48  1  0
 17 18  1  0
 17 19  1  0
 17 20  1  1
 18 49  1  0
 18 50  1  0
 18 51  1  0
 19 52  1  0
 19 53  1  0
 19 54  1  0
 20 21  2  0
 20 22  1  0
 22 23  1  0
 23 55  1  0
 23 56  1  0
 23 57  1  0
 24 25  2  0
 24 58  1  0
 25 59  1  0
 26 27  2  0
 26 60  1  0
 27 61  1  0
 28 29  1  0
 29 30  1  0
 30 31  1  0
 30 62  1  0
 30 63  1  0
 31 32  1  0
 32 33  1  0
 32 64  1  0
 32 65  1  0
 34 33  1  1
 33 66  1  0
 33 67  1  0
 34 35  1  0
 34 36  1  0
 34 37  1  0
 35 68  1  0
 35 69  1  0
 35 70  1  0
 36 71  1  0
 36 72  1  0
 36 73  1  0
 37 74  1  0
 37 75  1  0
 37 76  1  0
M  END

