
     RDKit          3D

 40 40  0  0  0  0  0  0  0  0999 V2000
    5.1343    1.8844   -2.3127 C   0  0  0  0  0  0  0  0  0  0  0  0
    4.7186    0.9697   -1.1882 C   0  0  0  0  0  0  0  0  0  0  0  0
    3.8877    1.4405   -0.1498 C   0  0  0  0  0  0  0  0  0  0  0  0
    3.5017    0.6035    0.8929 C   0  0  0  0  0  0  0  0  0  0  0  0
    3.9282   -0.7325    0.9596 C   0  0  0  0  0  0  0  0  0  0  0  0
    3.4767   -1.6328    2.0671 C   0  0  0  0  0  0  0  0  0  0  0  0
    4.7711   -1.2225   -0.0781 C   0  0  0  0  0  0  0  0  0  0  0  0
    5.2404   -2.6415   -0.0991 C   0  0  0  0  0  0  0  0  0  0  0  0
    4.1630   -3.6659   -0.6110 C   0  0  0  0  0  0  0  0  0  0  0  0
    3.1735   -3.9160    0.1613 O   0  0  0  0  0  0  0  0  0  0  0  0
    4.8207   -4.9007   -1.3296 C   0  0  1  0  0  0  0  0  0  0  0  0
    5.4886   -5.8081   -0.4176 N   0  0  0  0  0  0  0  0  0  0  0  0
    3.7979   -5.6604   -2.2431 C   0  0  1  0  0  0  0  0  0  0  0  0
    3.0233   -4.6606   -3.1182 C   0  0  0  0  0  0  0  0  0  0  0  0
    4.6096   -6.6074   -3.1541 C   0  0  0  0  0  0  0  0  0  0  0  0
    2.8083   -6.4810   -1.4007 C   0  0  0  0  0  0  0  0  0  0  0  0
    5.1358   -0.3598   -1.1301 C   0  0  0  0  0  0  0  0  0  0  0  0
    4.2563    2.3237   -2.8151 H   0  0  0  0  0  0  0  0  0  0  0  0
    5.7267    1.3523   -3.0710 H   0  0  0  0  0  0  0  0  0  0  0  0
    5.7424    2.7259   -1.9389 H   0  0  0  0  0  0  0  0  0  0  0  0
    3.5388    2.4773   -0.1672 H   0  0  0  0  0  0  0  0  0  0  0  0
    2.8496    0.9902    1.6808 H   0  0  0  0  0  0  0  0  0  0  0  0
    2.7525   -1.1354    2.7278 H   0  0  0  0  0  0  0  0  0  0  0  0
    4.3226   -1.9870    2.6814 H   0  0  0  0  0  0  0  0  0  0  0  0
    3.0169   -2.5483    1.6360 H   0  0  0  0  0  0  0  0  0  0  0  0
    5.5508   -2.9764    0.9110 H   0  0  0  0  0  0  0  0  0  0  0  0
    6.1075   -2.7327   -0.7688 H   0  0  0  0  0  0  0  0  0  0  0  0
    5.5923   -4.4688   -1.9893 H   0  0  0  0  0  0  0  0  0  0  0  0
    4.8712   -6.0820    0.3461 H   0  0  0  0  0  0  0  0  0  0  0  0
    6.3290   -5.3993   -0.0131 H   0  0  0  0  0  0  0  0  0  0  0  0
    3.7075   -3.9989   -3.6749 H   0  0  0  0  0  0  0  0  0  0  0  0
    2.3602   -4.0258   -2.5134 H   0  0  0  0  0  0  0  0  0  0  0  0
    2.4060   -5.2017   -3.8546 H   0  0  0  0  0  0  0  0  0  0  0  0
    5.2702   -6.0402   -3.8313 H   0  0  0  0  0  0  0  0  0  0  0  0
    3.9327   -7.2132   -3.7783 H   0  0  0  0  0  0  0  0  0  0  0  0
    5.2361   -7.2824   -2.5537 H   0  0  0  0  0  0  0  0  0  0  0  0
    2.2855   -5.8352   -0.6768 H   0  0  0  0  0  0  0  0  0  0  0  0
    3.3197   -7.2840   -0.8461 H   0  0  0  0  0  0  0  0  0  0  0  0
    2.0538   -6.9549   -2.0498 H   0  0  0  0  0  0  0  0  0  0  0  0
    5.7732   -0.7525   -1.9280 H   0  0  0  0  0  0  0  0  0  0  0  0
  1  2  1  0
  1 18  1  0
  1 19  1  0
  1 20  1  0
  2  3  2  0
  2 17  1  0
  3  4  1  0
  3 21  1  0
  4  5  2  0
  4 22  1  0
  5  6  1  0
  5  7  1  0
  6 23  1  0
  6 24  1  0
  6 25  1  0
  7  8  1  0
  7 17  2  0
  8  9  1  0
  8 26  1  0
  8 27  1  0
  9 10  2  0
  9 11  1  0
 11 12  1  0
 11 13  1  0
 11 28  1  6
 12 29  1  0
 12 30  1  0
 13 14  1  6
 13 15  1  0
 13 16  1  0
 14 31  1  0
 14 32  1  0
 14 33  1  0
 15 34  1  0
 15 35  1  0
 15 36  1  0
 16 37  1  0
 16 38  1  0
 16 39  1  0
 17 40  1  0
M  END

