
     RDKit          3D

 42 45  0  0  0  0  0  0  0  0999 V2000
    1.7820   -0.3966   -1.0723 O   0  0  0  0  0  0  0  0  0  0  0  0
    2.6523   -0.1873   -0.2530 C   0  0  0  0  0  0  0  0  0  0  0  0
    3.3604    1.1675   -0.1226 C   0  0  0  0  0  0  0  0  0  0  0  0
    3.8074    1.5860    1.3095 C   0  0  1  0  0  0  0  0  0  0  0  0
    2.6349    2.1709    2.1055 C   0  0  0  0  0  0  0  0  0  0  0  0
    1.7775    1.3633    2.8699 C   0  0  0  0  0  0  0  0  0  0  0  0
    0.6862    1.9345    3.5298 C   0  0  0  0  0  0  0  0  0  0  0  0
    0.4340    3.3050    3.4442 C   0  0  0  0  0  0  0  0  0  0  0  0
    1.2878    4.1174    2.6842 C   0  0  0  0  0  0  0  0  0  0  0  0
    1.1086    5.4578    2.5614 O   0  0  0  0  0  0  0  0  0  0  0  0
    2.3820    3.5457    2.0203 C   0  0  0  0  0  0  0  0  0  0  0  0
    4.4440    0.3704    1.9210 C   0  0  0  0  0  0  0  0  0  0  0  0
    4.0967   -0.9104    1.5492 C   0  0  0  0  0  0  0  0  0  0  0  0
    4.8854   -1.8372    2.3030 C   0  0  0  0  0  0  0  0  0  0  0  0
    4.7446   -3.2986    2.1942 C   0  0  0  0  0  0  0  0  0  0  0  0
    3.8750   -3.8223    1.5355 O   0  0  0  0  0  0  0  0  0  0  0  0
    5.6332   -4.0662    2.8665 O   0  0  0  0  0  0  0  0  0  0  0  0
    5.7085   -1.0618    3.1172 C   0  0  0  0  0  0  0  0  0  0  0  0
    5.4462    0.2646    2.8890 N   0  0  0  0  0  0  0  0  0  0  0  0
    6.1457    1.3312    3.5220 C   0  0  0  0  0  0  0  0  0  0  0  0
    5.4522    2.4137    4.0809 C   0  0  0  0  0  0  0  0  0  0  0  0
    6.1666    3.4407    4.7036 C   0  0  0  0  0  0  0  0  0  0  0  0
    7.5598    3.3982    4.7936 C   0  0  0  0  0  0  0  0  0  0  0  0
    8.2249    2.3072    4.2381 C   0  0  0  0  0  0  0  0  0  0  0  0
    9.5604    2.2499    4.3062 F   0  0  0  0  0  0  0  0  0  0  0  0
    7.5457    1.2765    3.5941 C   0  0  0  0  0  0  0  0  0  0  0  0
    3.1397   -1.1738    0.5789 N   0  0  0  0  0  0  0  0  0  0  0  0
    2.6979    1.9194   -0.5691 H   0  0  0  0  0  0  0  0  0  0  0  0
    4.2584    1.0954   -0.7629 H   0  0  0  0  0  0  0  0  0  0  0  0
    4.5548    2.3871    1.1942 H   0  0  0  0  0  0  0  0  0  0  0  0
    1.9604    0.2904    2.9487 H   0  0  0  0  0  0  0  0  0  0  0  0
    0.0185    1.3026    4.1210 H   0  0  0  0  0  0  0  0  0  0  0  0
   -0.4213    3.7462    3.9657 H   0  0  0  0  0  0  0  0  0  0  0  0
    0.3151    5.7237    3.0443 H   0  0  0  0  0  0  0  0  0  0  0  0
    3.0306    4.2026    1.4351 H   0  0  0  0  0  0  0  0  0  0  0  0
    6.3156   -3.5193    3.2787 H   0  0  0  0  0  0  0  0  0  0  0  0
    6.4247   -1.3473    3.8851 H   0  0  0  0  0  0  0  0  0  0  0  0
    4.3637    2.4421    4.0429 H   0  0  0  0  0  0  0  0  0  0  0  0
    5.6237    4.2835    5.1374 H   0  0  0  0  0  0  0  0  0  0  0  0
    8.1341    4.1877    5.2812 H   0  0  0  0  0  0  0  0  0  0  0  0
    8.1099    0.4617    3.1391 H   0  0  0  0  0  0  0  0  0  0  0  0
    2.8206   -2.1339    0.4635 H   0  0  0  0  0  0  0  0  0  0  0  0
  1  2  2  0
  2  3  1  0
  2 27  1  0
  3  4  1  0
  3 28  1  0
  3 29  1  0
  4  5  1  0
  4 12  1  0
  4 30  1  6
  5  6  2  0
  5 11  1  0
  6  7  1  0
  6 31  1  0
  7  8  2  0
  7 32  1  0
  8  9  1  0
  8 33  1  0
  9 10  1  0
  9 11  2  0
 10 34  1  0
 11 35  1  0
 12 13  2  0
 12 19  1  0
 13 14  1  0
 13 27  1  0
 14 15  1  0
 14 18  2  0
 15 16  2  0
 15 17  1  0
 17 36  1  0
 18 19  1  0
 18 37  1  0
 19 20  1  0
 20 21  2  0
 20 26  1  0
 21 22  1  0
 21 38  1  0
 22 23  2  0
 22 39  1  0
 23 24  1  0
 23 40  1  0
 24 25  1  0
 24 26  2  0
 26 41  1  0
 27 42  1  0
M  END

