
     RDKit          3D

 39 40  0  0  0  0  0  0  0  0999 V2000
    3.4351    1.0059    1.5217 C   0  0  0  0  0  0  0  0  0  0  0  0
    2.8764    0.2824    0.2958 C   0  0  1  0  0  0  0  0  0  0  0  0
    3.1527   -1.2215    0.3235 C   0  0  0  0  0  0  0  0  0  0  0  0
    1.3889    0.5713    0.1084 C   0  0  0  0  0  0  0  0  0  0  0  0
    3.4786    0.8684   -0.9362 O   0  0  0  0  0  0  0  0  0  0  0  0
    4.7726    0.8366   -1.1878 C   0  0  0  0  0  0  0  0  0  0  0  0
    5.6569    0.3678   -0.5130 O   0  0  0  0  0  0  0  0  0  0  0  0
    5.0602    1.4998   -2.5369 C   0  0  0  0  0  0  0  0  0  0  0  0
    6.4658    1.5518   -2.7805 N   0  0  0  0  0  0  0  0  0  0  0  0
    7.1263    2.2807   -3.8817 C   0  0  0  0  0  0  0  0  0  0  0  0
    8.5584    1.9576   -4.0702 C   0  0  0  0  0  0  0  0  0  0  0  0
    9.5924    2.8287   -3.6081 C   0  0  0  0  0  0  0  0  0  0  0  0
   10.9340    2.5699   -3.8393 C   0  0  0  0  0  0  0  0  0  0  0  0
   11.3536    1.4109   -4.5661 C   0  0  0  0  0  0  0  0  0  0  0  0
   10.3390    0.5589   -5.0514 C   0  0  0  0  0  0  0  0  0  0  0  0
   10.4444   -0.5933   -5.7954 N   0  0  0  0  0  0  0  0  0  0  0  0
   11.3206   -0.9871   -6.1071 H   0  0  0  0  0  0  0  0  0  0  0  0
    9.1874   -1.1199   -6.0722 C   0  0  0  0  0  0  0  0  0  0  0  0
    8.2476   -0.2730   -5.4793 C   0  0  0  0  0  0  0  0  0  0  0  0
    8.9465    0.7873   -4.8342 C   0  0  0  0  0  0  0  0  0  0  0  0
    2.9088    0.6521    2.4213 H   0  0  0  0  0  0  0  0  0  0  0  0
    3.2723    2.0917    1.4399 H   0  0  0  0  0  0  0  0  0  0  0  0
    4.5080    0.8133    1.6512 H   0  0  0  0  0  0  0  0  0  0  0  0
    2.6141   -1.6723    1.1709 H   0  0  0  0  0  0  0  0  0  0  0  0
    4.2230   -1.4351    0.4419 H   0  0  0  0  0  0  0  0  0  0  0  0
    2.7911   -1.6998   -0.5998 H   0  0  0  0  0  0  0  0  0  0  0  0
    0.8215    0.1823    0.9667 H   0  0  0  0  0  0  0  0  0  0  0  0
    1.0094    0.0903   -0.8055 H   0  0  0  0  0  0  0  0  0  0  0  0
    1.2070    1.6538    0.0334 H   0  0  0  0  0  0  0  0  0  0  0  0
    4.6238    2.5114   -2.5887 H   0  0  0  0  0  0  0  0  0  0  0  0
    4.5726    0.9252   -3.3465 H   0  0  0  0  0  0  0  0  0  0  0  0
    7.0571    1.0272   -2.1246 H   0  0  0  0  0  0  0  0  0  0  0  0
    6.9586    3.3441   -3.6113 H   0  0  0  0  0  0  0  0  0  0  0  0
    6.4761    2.0983   -4.7632 H   0  0  0  0  0  0  0  0  0  0  0  0
    9.3168    3.7365   -3.0582 H   0  0  0  0  0  0  0  0  0  0  0  0
   11.6872    3.2678   -3.4635 H   0  0  0  0  0  0  0  0  0  0  0  0
   12.4094    1.2060   -4.7526 H   0  0  0  0  0  0  0  0  0  0  0  0
    9.0682   -2.0304   -6.6522 H   0  0  0  0  0  0  0  0  0  0  0  0
    7.1689   -0.4240   -5.5287 H   0  0  0  0  0  0  0  0  0  0  0  0
  1  2  1  0
  1 21  1  0
  1 22  1  0
  1 23  1  0
  2  3  1  0
  2  4  1  0
  2  5  1  6
  3 24  1  0
  3 25  1  0
  3 26  1  0
  4 27  1  0
  4 28  1  0
  4 29  1  0
  5  6  1  0
  6  7  2  0
  6  8  1  0
  8  9  1  0
  8 30  1  0
  8 31  1  0
  9 10  1  0
  9 32  1  0
 10 11  1  0
 10 33  1  0
 10 34  1  0
 11 12  2  0
 11 20  1  0
 12 13  1  0
 12 35  1  0
 13 14  2  0
 13 36  1  0
 14 15  1  0
 14 37  1  0
 15 16  1  0
 15 20  2  0
 16 17  1  0
 16 18  1  0
 18 19  2  0
 18 38  1  0
 19 20  1  0
 19 39  1  0
M  END

