
     RDKit          3D

 31 32  0  0  0  0  0  0  0  0999 V2000
    1.5384   -0.6617    0.5880 C   0  0  0  0  0  0  0  0  0  0  0  0
    2.8769   -0.2395    0.2216 N   0  0  0  0  0  0  0  0  0  0  0  0
    3.0539    0.0977   -1.1856 C   0  0  1  0  0  0  0  0  0  0  0  0
    2.3199    1.3721   -1.5155 C   0  0  0  0  0  0  0  0  0  0  0  0
    2.3536    2.6032   -0.7672 C   0  0  0  0  0  0  0  0  0  0  0  0
    1.5474    3.4780   -1.4356 C   0  0  0  0  0  0  0  0  0  0  0  0
    1.0125    2.8858   -2.5335 O   0  0  0  0  0  0  0  0  0  0  0  0
    1.4809    1.6116   -2.5681 C   0  0  0  0  0  0  0  0  0  0  0  0
    4.5743    0.1924   -1.4732 C   0  0  1  0  0  0  0  0  0  0  0  0
    5.1119   -1.0464   -1.0204 O   0  0  0  0  0  0  0  0  0  0  0  0
    6.5060   -1.1104   -0.8523 C   0  0  0  0  0  0  0  0  0  0  0  0
    4.9006    0.4407   -2.9323 C   0  0  1  0  0  0  0  0  0  0  0  0
    4.9168    1.8353   -3.5057 C   0  0  0  0  0  0  0  0  0  0  0  0
    6.2079    1.0851   -3.3416 C   0  0  0  0  0  0  0  0  0  0  0  0
    1.5243   -0.9644    1.6470 H   0  0  0  0  0  0  0  0  0  0  0  0
    1.1472   -1.5129   -0.0146 H   0  0  0  0  0  0  0  0  0  0  0  0
    0.8247    0.1701    0.4739 H   0  0  0  0  0  0  0  0  0  0  0  0
    3.5518   -0.9697    0.4415 H   0  0  0  0  0  0  0  0  0  0  0  0
    2.6647   -0.7029   -1.8574 H   0  0  0  0  0  0  0  0  0  0  0  0
    2.8973    2.7833    0.1572 H   0  0  0  0  0  0  0  0  0  0  0  0
    1.2565    4.5107   -1.2594 H   0  0  0  0  0  0  0  0  0  0  0  0
    1.1366    0.9953   -3.3950 H   0  0  0  0  0  0  0  0  0  0  0  0
    4.9904    1.0169   -0.8574 H   0  0  0  0  0  0  0  0  0  0  0  0
    6.7307   -2.0571   -0.3378 H   0  0  0  0  0  0  0  0  0  0  0  0
    6.8852   -0.2750   -0.2299 H   0  0  0  0  0  0  0  0  0  0  0  0
    7.0510   -1.0986   -1.8132 H   0  0  0  0  0  0  0  0  0  0  0  0
    4.5301   -0.3525   -3.5923 H   0  0  0  0  0  0  0  0  0  0  0  0
    4.7158    2.6674   -2.8257 H   0  0  0  0  0  0  0  0  0  0  0  0
    4.5138    1.9788   -4.5117 H   0  0  0  0  0  0  0  0  0  0  0  0
    6.8887    1.4142   -2.5506 H   0  0  0  0  0  0  0  0  0  0  0  0
    6.7133    0.7020   -4.2327 H   0  0  0  0  0  0  0  0  0  0  0  0
  1  2  1  0
  1 15  1  0
  1 16  1  0
  1 17  1  0
  2  3  1  0
  2 18  1  0
  3  4  1  0
  3  9  1  0
  3 19  1  6
  4  5  1  0
  4  8  2  0
  5  6  2  0
  5 20  1  0
  6  7  1  0
  6 21  1  0
  7  8  1  0
  8 22  1  0
  9 10  1  0
  9 12  1  0
  9 23  1  1
 10 11  1  0
 11 24  1  0
 11 25  1  0
 11 26  1  0
 12 13  1  0
 12 14  1  0
 12 27  1  6
 13 14  1  0
 13 28  1  0
 13 29  1  0
 14 30  1  0
 14 31  1  0
M  END

