
     RDKit          3D

 25 26  0  0  0  0  0  0  0  0999 V2000
    5.0734   -1.4293    3.9576 N   0  0  0  0  0  0  0  0  0  0  0  0
    4.9677   -0.9761    2.8953 C   0  0  0  0  0  0  0  0  0  0  0  0
    4.8553   -0.3835    1.5795 C   0  0  0  0  0  0  0  0  0  0  0  0
    5.6120    0.7612    1.2720 C   0  0  0  0  0  0  0  0  0  0  0  0
    5.4764    1.3180    0.0001 C   0  0  0  0  0  0  0  0  0  0  0  0
    6.2583    2.5609   -0.4108 C   0  0  1  0  0  0  0  0  0  0  0  0
    7.2108    2.8171    0.5366 F   0  0  0  0  0  0  0  0  0  0  0  0
    6.9229    2.2754   -1.5709 F   0  0  0  0  0  0  0  0  0  0  0  0
    5.3990    3.7980   -0.6026 C   0  0  0  0  0  0  0  0  0  0  0  0
    4.7517    4.3672    0.5044 C   0  0  0  0  0  0  0  0  0  0  0  0
    3.9669    5.5092    0.3551 C   0  0  0  0  0  0  0  0  0  0  0  0
    3.8354    6.0745   -0.9138 C   0  0  0  0  0  0  0  0  0  0  0  0
    3.0808    7.1682   -1.0625 F   0  0  0  0  0  0  0  0  0  0  0  0
    4.4696    5.5293   -2.0271 C   0  0  0  0  0  0  0  0  0  0  0  0
    5.2566    4.3865   -1.8649 C   0  0  0  0  0  0  0  0  0  0  0  0
    4.6069    0.7018   -0.9060 C   0  0  0  0  0  0  0  0  0  0  0  0
    3.9087   -0.4385   -0.4977 C   0  0  0  0  0  0  0  0  0  0  0  0
    4.0200   -0.9742    0.7171 N   0  0  0  0  0  0  0  0  0  0  0  0
    6.2900    1.1934    2.0079 H   0  0  0  0  0  0  0  0  0  0  0  0
    4.8618    3.9199    1.4949 H   0  0  0  0  0  0  0  0  0  0  0  0
    3.4565    5.9692    1.2031 H   0  0  0  0  0  0  0  0  0  0  0  0
    4.3467    6.0051   -3.0017 H   0  0  0  0  0  0  0  0  0  0  0  0
    5.7706    3.9550   -2.7246 H   0  0  0  0  0  0  0  0  0  0  0  0
    4.4724    1.0976   -1.9146 H   0  0  0  0  0  0  0  0  0  0  0  0
    3.2246   -0.9410   -1.1904 H   0  0  0  0  0  0  0  0  0  0  0  0
  1  2  3  0
  2  3  1  0
  3  4  2  0
  3 18  1  0
  4  5  1  0
  4 19  1  0
  5  6  1  0
  5 16  2  0
  6  7  1  1
  6  8  1  0
  6  9  1  0
  9 10  2  0
  9 15  1  0
 10 11  1  0
 10 20  1  0
 11 12  2  0
 11 21  1  0
 12 13  1  0
 12 14  1  0
 14 15  2  0
 14 22  1  0
 15 23  1  0
 16 17  1  0
 16 24  1  0
 17 18  2  0
 17 25  1  0
M  END

