
     RDKit          3D

 38 40  0  0  0  0  0  0  0  0999 V2000
    1.9097    0.3882    0.8428 C   0  0  0  0  0  0  0  0  0  0  0  0
    2.5092   -0.2457   -0.2679 O   0  0  0  0  0  0  0  0  0  0  0  0
    3.2035    0.4791   -1.1725 C   0  0  0  0  0  0  0  0  0  0  0  0
    3.3860    1.8884   -1.0743 C   0  0  0  0  0  0  0  0  0  0  0  0
    4.1075    2.5568   -2.0429 C   0  0  0  0  0  0  0  0  0  0  0  0
    4.6748    1.8653   -3.1419 C   0  0  0  0  0  0  0  0  0  0  0  0
    5.4237    2.4981   -4.1617 C   0  0  0  0  0  0  0  0  0  0  0  0
    5.9446    1.7560   -5.2072 C   0  0  0  0  0  0  0  0  0  0  0  0
    6.7071    2.3866   -6.2421 C   0  0  0  0  0  0  0  0  0  0  0  0
    7.3284    2.9133   -7.0706 N   0  0  0  0  0  0  0  0  0  0  0  0
    5.6953    0.3298   -5.2137 C   0  0  0  0  0  0  0  0  0  0  0  0
    6.3768   -0.6058   -6.5582 S   0  0  0  0  0  0  0  0  0  0  0  0
    5.7399   -2.2537   -6.1580 C   0  0  0  0  0  0  0  0  0  0  0  0
    4.2592   -2.4651   -6.4994 C   0  0  0  0  0  0  0  0  0  0  0  0
    3.5899   -1.5942   -7.0089 O   0  0  0  0  0  0  0  0  0  0  0  0
    3.6701   -3.8105   -6.1852 C   0  0  0  0  0  0  0  0  0  0  0  0
    4.3951   -4.8578   -5.5890 C   0  0  0  0  0  0  0  0  0  0  0  0
    3.7883   -6.0858   -5.3224 C   0  0  0  0  0  0  0  0  0  0  0  0
    2.4468   -6.2592   -5.6580 C   0  0  0  0  0  0  0  0  0  0  0  0
    1.8596   -7.4332   -5.4033 F   0  0  0  0  0  0  0  0  0  0  0  0
    1.6990   -5.2409   -6.2518 C   0  0  0  0  0  0  0  0  0  0  0  0
    2.3173   -4.0219   -6.5115 C   0  0  0  0  0  0  0  0  0  0  0  0
    5.0121   -0.2713   -4.2770 N   0  0  0  0  0  0  0  0  0  0  0  0
    4.4894    0.4445   -3.2391 C   0  0  0  0  0  0  0  0  0  0  0  0
    3.7506   -0.2237   -2.2415 C   0  0  0  0  0  0  0  0  0  0  0  0
    1.4076   -0.4025    1.4156 H   0  0  0  0  0  0  0  0  0  0  0  0
    1.1582    1.1358    0.5331 H   0  0  0  0  0  0  0  0  0  0  0  0
    2.6576    0.8773    1.4916 H   0  0  0  0  0  0  0  0  0  0  0  0
    2.9602    2.4469   -0.2411 H   0  0  0  0  0  0  0  0  0  0  0  0
    4.2465    3.6386   -1.9669 H   0  0  0  0  0  0  0  0  0  0  0  0
    5.5911    3.5775   -4.1261 H   0  0  0  0  0  0  0  0  0  0  0  0
    5.9019   -2.4454   -5.0878 H   0  0  0  0  0  0  0  0  0  0  0  0
    6.3634   -2.9578   -6.7323 H   0  0  0  0  0  0  0  0  0  0  0  0
    5.4445   -4.7274   -5.3199 H   0  0  0  0  0  0  0  0  0  0  0  0
    4.3357   -6.9086   -4.8589 H   0  0  0  0  0  0  0  0  0  0  0  0
    0.6507   -5.4203   -6.4983 H   0  0  0  0  0  0  0  0  0  0  0  0
    1.7667   -3.2004   -6.9735 H   0  0  0  0  0  0  0  0  0  0  0  0
    3.6045   -1.3016   -2.3139 H   0  0  0  0  0  0  0  0  0  0  0  0
  1  2  1  0
  1 26  1  0
  1 27  1  0
  1 28  1  0
  2  3  1  0
  3  4  2  0
  3 25  1  0
  4  5  1  0
  4 29  1  0
  5  6  2  0
  5 30  1  0
  6  7  1  0
  6 24  1  0
  7  8  2  0
  7 31  1  0
  8  9  1  0
  8 11  1  0
  9 10  3  0
 11 12  1  0
 11 23  2  0
 12 13  1  0
 13 14  1  0
 13 32  1  0
 13 33  1  0
 14 15  2  0
 14 16  1  0
 16 17  2  0
 16 22  1  0
 17 18  1  0
 17 34  1  0
 18 19  2  0
 18 35  1  0
 19 20  1  0
 19 21  1  0
 21 22  2  0
 21 36  1  0
 22 37  1  0
 23 24  1  0
 24 25  2  0
 25 38  1  0
M  END

