
     RDKit          3D

 92 92  0  0  0  0  0  0  0  0999 V2000
   16.3418    1.9534    9.4297 C   0  0  0  0  0  0  0  0  0  0  0  0
   15.4488    2.3483    8.2526 C   0  0  0  0  0  0  0  0  0  0  0  0
   16.2303    2.7796    7.0075 C   0  0  0  0  0  0  0  0  0  0  0  0
   15.3444    3.1760    5.8230 C   0  0  0  0  0  0  0  0  0  0  0  0
   16.1268    3.6086    4.5793 C   0  0  0  0  0  0  0  0  0  0  0  0
   15.2410    4.0042    3.3943 C   0  0  0  0  0  0  0  0  0  0  0  0
   16.0237    4.4438    2.1532 C   0  0  0  0  0  0  0  0  0  0  0  0
   15.1381    4.8381    0.9675 C   0  0  0  0  0  0  0  0  0  0  0  0
   15.9207    5.2920   -0.2685 C   0  0  0  0  0  0  0  0  0  0  0  0
   15.0353    5.6836   -1.4552 C   0  0  0  0  0  0  0  0  0  0  0  0
   15.8170    6.1612   -2.6827 C   0  0  0  0  0  0  0  0  0  0  0  0
   14.9318    6.5463   -3.8716 C   0  0  0  0  0  0  0  0  0  0  0  0
   15.7111    7.0607   -5.0861 C   0  0  0  0  0  0  0  0  0  0  0  0
   14.8169    7.4315   -6.2757 C   0  0  0  0  0  0  0  0  0  0  0  0
   15.5455    8.0650   -7.4688 C   0  0  0  0  0  0  0  0  0  0  0  0
   16.5071    7.1147   -8.1936 C   0  0  0  0  0  0  0  0  0  0  0  0
   17.1565    7.7180   -9.3658 N   0  0  0  0  0  0  0  0  0  0  0  0
   16.5170    7.6160  -10.5882 C   0  0  0  0  0  0  0  0  0  0  0  0
   15.4385    7.0522  -10.6918 O   0  0  0  0  0  0  0  0  0  0  0  0
   17.2271    8.2269  -11.7951 C   0  0  0  0  0  0  0  0  0  0  0  0
   16.5155    7.9292  -13.1138 C   0  0  0  0  0  0  0  0  0  0  0  0
   17.1971    8.5741  -14.3235 C   0  0  0  0  0  0  0  0  0  0  0  0
   16.4922    8.2843  -15.6520 C   0  0  0  0  0  0  0  0  0  0  0  0
   17.1618    8.9355  -16.8657 C   0  0  0  0  0  0  0  0  0  0  0  0
   16.4553    8.6487  -18.1938 C   0  0  0  0  0  0  0  0  0  0  0  0
   17.1217    9.3041  -19.4076 C   0  0  0  0  0  0  0  0  0  0  0  0
   16.4084    9.0148  -20.7292 C   0  0  0  0  0  0  0  0  0  0  0  0
   18.3862    8.4241   -9.1710 C   0  0  0  0  0  0  0  0  0  0  0  0
   18.4024    9.8197   -8.9980 C   0  0  0  0  0  0  0  0  0  0  0  0
   19.5970   10.4990   -8.7848 C   0  0  0  0  0  0  0  0  0  0  0  0
   20.8140    9.7961   -8.7289 C   0  0  0  0  0  0  0  0  0  0  0  0
   21.9252   10.5420   -8.5145 O   0  0  0  0  0  0  0  0  0  0  0  0
   23.1829    9.9081   -8.4463 C   0  0  0  0  0  0  0  0  0  0  0  0
   20.8098    8.4016   -8.8928 C   0  0  0  0  0  0  0  0  0  0  0  0
   19.6013    7.7323   -9.1127 C   0  0  0  0  0  0  0  0  0  0  0  0
   15.7477    1.6485   10.3062 H   0  0  0  0  0  0  0  0  0  0  0  0
   16.9880    2.7914    9.7412 H   0  0  0  0  0  0  0  0  0  0  0  0
   17.0026    1.1103    9.1664 H   0  0  0  0  0  0  0  0  0  0  0  0
   14.7748    3.1688    8.5598 H   0  0  0  0  0  0  0  0  0  0  0  0
   14.7877    1.5020    7.9902 H   0  0  0  0  0  0  0  0  0  0  0  0
   16.9056    1.9591    6.6998 H   0  0  0  0  0  0  0  0  0  0  0  0
   16.8917    3.6270    7.2687 H   0  0  0  0  0  0  0  0  0  0  0  0
   14.6687    3.9956    6.1315 H   0  0  0  0  0  0  0  0  0  0  0  0
   14.6840    2.3282    5.5616 H   0  0  0  0  0  0  0  0  0  0  0  0
   16.8035    2.7897    4.2711 H   0  0  0  0  0  0  0  0  0  0  0  0
   16.7864    4.4571    4.8407 H   0  0  0  0  0  0  0  0  0  0  0  0
   14.5612    4.8200    3.7038 H   0  0  0  0  0  0  0  0  0  0  0  0
   14.5845    3.1543    3.1296 H   0  0  0  0  0  0  0  0  0  0  0  0
   16.7053    3.6293    1.8443 H   0  0  0  0  0  0  0  0  0  0  0  0
   16.6783    5.2950    2.4183 H   0  0  0  0  0  0  0  0  0  0  0  0
   14.4504    5.6462    1.2794 H   0  0  0  0  0  0  0  0  0  0  0  0
   14.4899    3.9841    0.6960 H   0  0  0  0  0  0  0  0  0  0  0  0
   16.6119    4.4863   -0.5793 H   0  0  0  0  0  0  0  0  0  0  0  0
   16.5654    6.1486    0.0036 H   0  0  0  0  0  0  0  0  0  0  0  0
   14.3338    6.4783   -1.1395 H   0  0  0  0  0  0  0  0  0  0  0  0
   14.4014    4.8224   -1.7378 H   0  0  0  0  0  0  0  0  0  0  0  0
   16.5246    5.3707   -2.9954 H   0  0  0  0  0  0  0  0  0  0  0  0
   16.4443    7.0271   -2.3996 H   0  0  0  0  0  0  0  0  0  0  0  0
   14.2078    7.3189   -3.5518 H   0  0  0  0  0  0  0  0  0  0  0  0
   14.3223    5.6735   -4.1712 H   0  0  0  0  0  0  0  0  0  0  0  0
   16.4474    6.2943   -5.3888 H   0  0  0  0  0  0  0  0  0  0  0  0
   16.3050    7.9454   -4.7884 H   0  0  0  0  0  0  0  0  0  0  0  0
   14.0419    8.1372   -5.9273 H   0  0  0  0  0  0  0  0  0  0  0  0
   14.2691    6.5336   -6.6169 H   0  0  0  0  0  0  0  0  0  0  0  0
   16.0993    8.9585   -7.1280 H   0  0  0  0  0  0  0  0  0  0  0  0
   14.8014    8.4104   -8.2047 H   0  0  0  0  0  0  0  0  0  0  0  0
   15.9489    6.2352   -8.5468 H   0  0  0  0  0  0  0  0  0  0  0  0
   17.3036    6.7692   -7.5169 H   0  0  0  0  0  0  0  0  0  0  0  0
   18.2702    7.8678  -11.8212 H   0  0  0  0  0  0  0  0  0  0  0  0
   17.3088    9.3173  -11.6405 H   0  0  0  0  0  0  0  0  0  0  0  0
   15.4694    8.2694  -13.0416 H   0  0  0  0  0  0  0  0  0  0  0  0
   16.4543    6.8365  -13.2537 H   0  0  0  0  0  0  0  0  0  0  0  0
   18.2465    8.2290  -14.3853 H   0  0  0  0  0  0  0  0  0  0  0  0
   17.2537    9.6689  -14.1734 H   0  0  0  0  0  0  0  0  0  0  0  0
   15.4422    8.6249  -15.5873 H   0  0  0  0  0  0  0  0  0  0  0  0
   16.4409    7.1904  -15.8056 H   0  0  0  0  0  0  0  0  0  0  0  0
   18.2120    8.5939  -16.9303 H   0  0  0  0  0  0  0  0  0  0  0  0
   17.2138   10.0294  -16.7098 H   0  0  0  0  0  0  0  0  0  0  0  0
   15.4044    8.9880  -18.1286 H   0  0  0  0  0  0  0  0  0  0  0  0
   16.4054    7.5550  -18.3523 H   0  0  0  0  0  0  0  0  0  0  0  0
   18.1715    8.9638  -19.4727 H   0  0  0  0  0  0  0  0  0  0  0  0
   17.1720   10.3967  -19.2472 H   0  0  0  0  0  0  0  0  0  0  0  0
   16.3752    7.9322  -20.9384 H   0  0  0  0  0  0  0  0  0  0  0  0
   16.9134    9.5019  -21.5788 H   0  0  0  0  0  0  0  0  0  0  0  0
   15.3665    9.3767  -20.7096 H   0  0  0  0  0  0  0  0  0  0  0  0
   17.4604   10.3716   -9.0353 H   0  0  0  0  0  0  0  0  0  0  0  0
   19.6179   11.5826   -8.6529 H   0  0  0  0  0  0  0  0  0  0  0  0
   23.9228   10.6995   -8.2668 H   0  0  0  0  0  0  0  0  0  0  0  0
   23.4348    9.3910   -9.3899 H   0  0  0  0  0  0  0  0  0  0  0  0
   23.2317    9.1787   -7.6176 H   0  0  0  0  0  0  0  0  0  0  0  0
   21.7361    7.8281   -8.8551 H   0  0  0  0  0  0  0  0  0  0  0  0
   19.6009    6.6475   -9.2446 H   0  0  0  0  0  0  0  0  0  0  0  0
  1  2  1  0
  1 36  1  0
  1 37  1  0
  1 38  1  0
  2  3  1  0
  2 39  1  0
  2 40  1  0
  3  4  1  0
  3 41  1  0
  3 42  1  0
  4  5  1  0
  4 43  1  0
  4 44  1  0
  5  6  1  0
  5 45  1  0
  5 46  1  0
  6  7  1  0
  6 47  1  0
  6 48  1  0
  7  8  1  0
  7 49  1  0
  7 50  1  0
  8  9  1  0
  8 51  1  0
  8 52  1  0
  9 10  1  0
  9 53  1  0
  9 54  1  0
 10 11  1  0
 10 55  1  0
 10 56  1  0
 11 12  1  0
 11 57  1  0
 11 58  1  0
 12 13  1  0
 12 59  1  0
 12 60  1  0
 13 14  1  0
 13 61  1  0
 13 62  1  0
 14 15  1  0
 14 63  1  0
 14 64  1  0
 15 16  1  0
 15 65  1  0
 15 66  1  0
 16 17  1  0
 16 67  1  0
 16 68  1  0
 17 18  1  0
 17 28  1  0
 18 19  2  0
 18 20  1  0
 20 21  1  0
 20 69  1  0
 20 70  1  0
 21 22  1  0
 21 71  1  0
 21 72  1  0
 22 23  1  0
 22 73  1  0
 22 74  1  0
 23 24  1  0
 23 75  1  0
 23 76  1  0
 24 25  1  0
 24 77  1  0
 24 78  1  0
 25 26  1  0
 25 79  1  0
 25 80  1  0
 26 27  1  0
 26 81  1  0
 26 82  1  0
 27 83  1  0
 27 84  1  0
 27 85  1  0
 28 29  2  0
 28 35  1  0
 29 30  1  0
 29 86  1  0
 30 31  2  0
 30 87  1  0
 31 32  1  0
 31 34  1  0
 32 33  1  0
 33 88  1  0
 33 89  1  0
 33 90  1  0
 34 35  2  0
 34 91  1  0
 35 92  1  0
M  END

