
     RDKit          3D

 55 57  0  0  0  0  0  0  0  0999 V2000
    2.6714    0.1057   -1.7728 C   0  0  0  0  0  0  0  0  0  0  0  0
    2.5456    0.4716   -0.2944 C   0  0  0  0  0  0  0  0  0  0  0  0
    3.1965   -0.4784    0.7564 C   0  0  1  0  0  0  0  0  0  0  0  0
    2.7549   -1.9544    0.6778 C   0  0  0  0  0  0  0  0  0  0  0  0
    1.2719   -2.1490    1.0463 C   0  0  0  0  0  0  0  0  0  0  0  0
    0.8812   -3.6103    1.1112 C   0  0  0  0  0  0  0  0  0  0  0  0
    0.9781   -4.3301    2.3106 C   0  0  0  0  0  0  0  0  0  0  0  0
    0.6458   -5.6867    2.3675 C   0  0  0  0  0  0  0  0  0  0  0  0
    0.2098   -6.3703    1.2240 C   0  0  0  0  0  0  0  0  0  0  0  0
   -0.1443   -7.8343    1.2514 C   0  0  1  0  0  0  0  0  0  0  0  0
   -0.5929   -8.5618    2.5500 C   0  0  0  0  0  0  0  0  0  0  0  0
   -1.5621   -9.4137    1.6862 C   0  0  0  0  0  0  0  0  0  0  0  0
   -1.4625   -8.3183    0.6158 C   0  0  2  0  0  0  0  0  0  0  0  0
   -1.4034   -8.7128   -0.7038 F   0  0  0  0  0  0  0  0  0  0  0  0
    0.1140   -5.6514    0.0202 C   0  0  0  0  0  0  0  0  0  0  0  0
    0.4414   -4.2962   -0.0329 C   0  0  0  0  0  0  0  0  0  0  0  0
    4.6438   -0.3464    0.7542 N   0  0  0  0  0  0  0  0  0  0  0  0
    5.4709   -0.9574   -0.2464 C   0  0  0  0  0  0  0  0  0  0  0  0
    5.3503    0.4943    1.8200 C   0  0  0  0  0  0  0  0  0  0  0  0
    4.5150    1.2338    2.7775 C   0  0  0  0  0  0  0  0  0  0  0  0
    4.0840    0.6453    4.0263 C   0  0  0  0  0  0  0  0  0  0  0  0
    3.2422    1.3206    4.8825 C   0  0  0  0  0  0  0  0  0  0  0  0
    2.7607    2.6342    4.5702 C   0  0  0  0  0  0  0  0  0  0  0  0
    3.2224    3.2456    3.3694 C   0  0  0  0  0  0  0  0  0  0  0  0
    4.0643    2.5867    2.4973 C   0  0  0  0  0  0  0  0  0  0  0  0
    2.0996    0.8249   -2.3797 H   0  0  0  0  0  0  0  0  0  0  0  0
    2.2693   -0.8955   -1.9953 H   0  0  0  0  0  0  0  0  0  0  0  0
    3.7091    0.1405   -2.1398 H   0  0  0  0  0  0  0  0  0  0  0  0
    1.4813    0.5166   -0.0173 H   0  0  0  0  0  0  0  0  0  0  0  0
    2.9334    1.4841   -0.1075 H   0  0  0  0  0  0  0  0  0  0  0  0
    2.9087   -0.0717    1.7351 H   0  0  0  0  0  0  0  0  0  0  0  0
    3.3683   -2.5389    1.3832 H   0  0  0  0  0  0  0  0  0  0  0  0
    2.9373   -2.3824   -0.3219 H   0  0  0  0  0  0  0  0  0  0  0  0
    0.6337   -1.6338    0.3104 H   0  0  0  0  0  0  0  0  0  0  0  0
    1.0813   -1.6687    2.0197 H   0  0  0  0  0  0  0  0  0  0  0  0
    1.3088   -3.8198    3.2203 H   0  0  0  0  0  0  0  0  0  0  0  0
    0.7252   -6.2166    3.3202 H   0  0  0  0  0  0  0  0  0  0  0  0
    0.6637   -8.4235    0.7805 H   0  0  0  0  0  0  0  0  0  0  0  0
   -1.1356   -7.8867    3.2294 H   0  0  0  0  0  0  0  0  0  0  0  0
    0.1784   -9.0938    3.1245 H   0  0  0  0  0  0  0  0  0  0  0  0
   -2.5559   -9.6557    2.0896 H   0  0  0  0  0  0  0  0  0  0  0  0
   -1.0804  -10.3352    1.3250 H   0  0  0  0  0  0  0  0  0  0  0  0
   -2.2627   -7.5635    0.7071 H   0  0  0  0  0  0  0  0  0  0  0  0
   -0.2294   -6.1639   -0.8828 H   0  0  0  0  0  0  0  0  0  0  0  0
    0.3442   -3.7580   -0.9811 H   0  0  0  0  0  0  0  0  0  0  0  0
    4.9735   -1.7937   -0.7493 H   0  0  0  0  0  0  0  0  0  0  0  0
    6.4129   -1.2953    0.2120 H   0  0  0  0  0  0  0  0  0  0  0  0
    5.7396   -0.1990   -1.0067 H   0  0  0  0  0  0  0  0  0  0  0  0
    6.0253    1.1346    1.2187 H   0  0  0  0  0  0  0  0  0  0  0  0
    5.9992   -0.2639    2.3021 H   0  0  0  0  0  0  0  0  0  0  0  0
    4.4530   -0.3487    4.3077 H   0  0  0  0  0  0  0  0  0  0  0  0
    2.9529    0.8511    5.8284 H   0  0  0  0  0  0  0  0  0  0  0  0
    2.0881    3.1615    5.2473 H   0  0  0  0  0  0  0  0  0  0  0  0
    2.9145    4.2711    3.1374 H   0  0  0  0  0  0  0  0  0  0  0  0
    4.4267    3.1033    1.6009 H   0  0  0  0  0  0  0  0  0  0  0  0
  1  2  1  0
  1 26  1  0
  1 27  1  0
  1 28  1  0
  2  3  1  0
  2 29  1  0
  2 30  1  0
  3  4  1  0
  3 17  1  0
  3 31  1  1
  4  5  1  0
  4 32  1  0
  4 33  1  0
  5  6  1  0
  5 34  1  0
  5 35  1  0
  6  7  2  0
  6 16  1  0
  7  8  1  0
  7 36  1  0
  8  9  2  0
  8 37  1  0
  9 10  1  0
  9 15  1  0
 10 11  1  0
 10 13  1  0
 10 38  1  6
 11 12  1  0
 11 39  1  0
 11 40  1  0
 12 13  1  0
 12 41  1  0
 12 42  1  0
 13 14  1  0
 13 43  1  6
 15 16  2  0
 15 44  1  0
 16 45  1  0
 17 18  1  0
 17 19  1  0
 18 46  1  0
 18 47  1  0
 18 48  1  0
 19 20  1  0
 19 49  1  0
 19 50  1  0
 20 21  2  0
 20 25  1  0
 21 22  1  0
 21 51  1  0
 22 23  2  0
 22 52  1  0
 23 24  1  0
 23 53  1  0
 24 25  2  0
 24 54  1  0
 25 55  1  0
M  END

