
     RDKit          3D

 68 69  0  0  0  0  0  0  0  0999 V2000
    4.7202   -3.5199   -2.9709 C   0  0  0  0  0  0  0  0  0  0  0  0
    6.2038   -3.3188   -2.6587 C   0  0  0  0  0  0  0  0  0  0  0  0
    6.8816   -2.2731   -3.5499 C   0  0  0  0  0  0  0  0  0  0  0  0
    8.3663   -2.0707   -3.2357 C   0  0  0  0  0  0  0  0  0  0  0  0
    9.0817   -1.0331   -4.1261 C   0  0  0  0  0  0  0  0  0  0  0  0
    8.6013    0.3937   -3.9438 C   0  0  0  0  0  0  0  0  0  0  0  0
    7.7573    0.9692   -4.9030 C   0  0  0  0  0  0  0  0  0  0  0  0
    7.2851    2.2792   -4.7555 C   0  0  0  0  0  0  0  0  0  0  0  0
    6.4718    2.8662   -5.6691 O   0  0  0  0  0  0  0  0  0  0  0  0
    7.6570    3.0416   -3.6432 C   0  0  0  0  0  0  0  0  0  0  0  0
    8.4874    2.4696   -2.6807 C   0  0  0  0  0  0  0  0  0  0  0  0
    8.9595    3.1745   -1.6055 O   0  0  0  0  0  0  0  0  0  0  0  0
    8.4500    4.4118   -1.2782 C   0  0  0  0  0  0  0  0  0  0  0  0
    7.1969    4.4466   -0.6270 C   0  0  0  0  0  0  0  0  0  0  0  0
    6.5821    3.2646   -0.4511 O   0  0  0  0  0  0  0  0  0  0  0  0
    5.3131    3.2187    0.1657 C   0  0  0  0  0  0  0  0  0  0  0  0
    6.6853    5.6788   -0.2195 C   0  0  0  0  0  0  0  0  0  0  0  0
    7.4180    6.8437   -0.4617 C   0  0  0  0  0  0  0  0  0  0  0  0
    6.8827    8.0435   -0.0598 O   0  0  0  0  0  0  0  0  0  0  0  0
    8.6801    6.8354   -1.0953 C   0  0  0  0  0  0  0  0  0  0  0  0
    9.4536    8.1137   -1.3520 C   0  0  0  0  0  0  0  0  0  0  0  0
   10.6127    8.1290   -1.6916 O   0  0  0  0  0  0  0  0  0  0  0  0
    8.8009    9.2784   -1.2133 O   0  0  0  0  0  0  0  0  0  0  0  0
    9.2041    5.5686   -1.5141 C   0  0  0  0  0  0  0  0  0  0  0  0
   10.5364    5.4025   -2.2229 C   0  0  0  0  0  0  0  0  0  0  0  0
   11.7715    5.3265   -1.2978 C   0  0  0  0  0  0  0  0  0  0  0  0
   11.8840    4.0682   -0.4329 C   0  0  0  0  0  0  0  0  0  0  0  0
   13.1386    4.0609    0.4470 C   0  0  0  0  0  0  0  0  0  0  0  0
   13.2790    2.8016    1.3037 C   0  0  0  0  0  0  0  0  0  0  0  0
    8.9574    1.1464   -2.8058 C   0  0  0  0  0  0  0  0  0  0  0  0
    9.8696    0.5835   -1.7557 C   0  0  0  0  0  0  0  0  0  0  0  0
   10.9993    0.1980   -1.9512 O   0  0  0  0  0  0  0  0  0  0  0  0
    9.2739    0.5231   -0.5512 O   0  0  0  0  0  0  0  0  0  0  0  0
   10.0790    0.0531    0.5296 C   0  0  0  0  0  0  0  0  0  0  0  0
    4.2649   -4.2754   -2.3106 H   0  0  0  0  0  0  0  0  0  0  0  0
    4.5706   -3.8550   -4.0112 H   0  0  0  0  0  0  0  0  0  0  0  0
    4.1535   -2.5820   -2.8440 H   0  0  0  0  0  0  0  0  0  0  0  0
    6.7356   -4.2828   -2.7583 H   0  0  0  0  0  0  0  0  0  0  0  0
    6.3209   -3.0215   -1.6005 H   0  0  0  0  0  0  0  0  0  0  0  0
    6.3475   -1.3111   -3.4508 H   0  0  0  0  0  0  0  0  0  0  0  0
    6.7701   -2.5716   -4.6099 H   0  0  0  0  0  0  0  0  0  0  0  0
    8.8943   -3.0350   -3.3426 H   0  0  0  0  0  0  0  0  0  0  0  0
    8.4760   -1.7837   -2.1751 H   0  0  0  0  0  0  0  0  0  0  0  0
    8.9502   -1.3182   -5.1830 H   0  0  0  0  0  0  0  0  0  0  0  0
   10.1604   -1.0723   -3.9161 H   0  0  0  0  0  0  0  0  0  0  0  0
    7.4674    0.3868   -5.7831 H   0  0  0  0  0  0  0  0  0  0  0  0
    6.3152    2.2531   -6.3994 H   0  0  0  0  0  0  0  0  0  0  0  0
    7.3129    4.0718   -3.5596 H   0  0  0  0  0  0  0  0  0  0  0  0
    5.0189    2.1617    0.1896 H   0  0  0  0  0  0  0  0  0  0  0  0
    4.5607    3.7887   -0.4078 H   0  0  0  0  0  0  0  0  0  0  0  0
    5.3493    3.6048    1.1999 H   0  0  0  0  0  0  0  0  0  0  0  0
    5.7235    5.7484    0.2909 H   0  0  0  0  0  0  0  0  0  0  0  0
    5.9930    7.9207    0.2947 H   0  0  0  0  0  0  0  0  0  0  0  0
    7.9079    9.1406   -0.8500 H   0  0  0  0  0  0  0  0  0  0  0  0
   10.6814    6.2487   -2.9031 H   0  0  0  0  0  0  0  0  0  0  0  0
   10.4923    4.4862   -2.8284 H   0  0  0  0  0  0  0  0  0  0  0  0
   11.7957    6.2282   -0.6669 H   0  0  0  0  0  0  0  0  0  0  0  0
   12.6636    5.3941   -1.9455 H   0  0  0  0  0  0  0  0  0  0  0  0
   11.8861    3.1713   -1.0777 H   0  0  0  0  0  0  0  0  0  0  0  0
   10.9914    3.9710    0.2119 H   0  0  0  0  0  0  0  0  0  0  0  0
   13.1315    4.9536    1.0989 H   0  0  0  0  0  0  0  0  0  0  0  0
   14.0322    4.1686   -0.1947 H   0  0  0  0  0  0  0  0  0  0  0  0
   12.4210    2.6854    1.9881 H   0  0  0  0  0  0  0  0  0  0  0  0
   14.1919    2.8278    1.9208 H   0  0  0  0  0  0  0  0  0  0  0  0
   13.3275    1.8959    0.6760 H   0  0  0  0  0  0  0  0  0  0  0  0
   10.9248    0.7333    0.7103 H   0  0  0  0  0  0  0  0  0  0  0  0
   10.4771   -0.9506    0.3171 H   0  0  0  0  0  0  0  0  0  0  0  0
    9.4230    0.0256    1.4087 H   0  0  0  0  0  0  0  0  0  0  0  0
  1  2  1  0
  1 35  1  0
  1 36  1  0
  1 37  1  0
  2  3  1  0
  2 38  1  0
  2 39  1  0
  3  4  1  0
  3 40  1  0
  3 41  1  0
  4  5  1  0
  4 42  1  0
  4 43  1  0
  5  6  1  0
  5 44  1  0
  5 45  1  0
  6  7  2  0
  6 30  1  0
  7  8  1  0
  7 46  1  0
  8  9  1  0
  8 10  2  0
  9 47  1  0
 10 11  1  0
 10 48  1  0
 11 12  1  0
 11 30  2  0
 12 13  1  0
 13 14  2  0
 13 24  1  0
 14 15  1  0
 14 17  1  0
 15 16  1  0
 16 49  1  0
 16 50  1  0
 16 51  1  0
 17 18  2  0
 17 52  1  0
 18 19  1  0
 18 20  1  0
 19 53  1  0
 20 21  1  0
 20 24  2  0
 21 22  2  0
 21 23  1  0
 23 54  1  0
 24 25  1  0
 25 26  1  0
 25 55  1  0
 25 56  1  0
 26 27  1  0
 26 57  1  0
 26 58  1  0
 27 28  1  0
 27 59  1  0
 27 60  1  0
 28 29  1  0
 28 61  1  0
 28 62  1  0
 29 63  1  0
 29 64  1  0
 29 65  1  0
 30 31  1  0
 31 32  2  0
 31 33  1  0
 33 34  1  0
 34 66  1  0
 34 67  1  0
 34 68  1  0
M  END

