
     RDKit          3D

 32 34  0  0  0  0  0  0  0  0999 V2000
    1.2894   -0.4822   -0.4620 O   0  0  0  0  0  0  0  0  0  0  0  0
    2.4836   -0.2614   -0.2141 C   0  0  0  0  0  0  0  0  0  0  0  0
    3.1845    0.8710   -0.8221 C   0  0  0  0  0  0  0  0  0  0  0  0
    4.4605    1.4484   -0.5898 C   0  0  0  0  0  0  0  0  0  0  0  0
    4.5626    2.5811   -1.4457 N   0  0  0  0  0  0  0  0  0  0  0  0
    5.3837    3.1702   -1.5091 H   0  0  0  0  0  0  0  0  0  0  0  0
    3.4649    2.7169   -2.2250 C   0  0  0  0  0  0  0  0  0  0  0  0
    3.1773    3.6708   -3.2281 C   0  0  0  0  0  0  0  0  0  0  0  0
    1.9434    3.5799   -3.9058 C   0  0  0  0  0  0  0  0  0  0  0  0
    1.5967    4.8075   -5.3120 Br  0  0  0  0  0  0  0  0  0  0  0  0
    1.0373    2.5618   -3.5435 C   0  0  0  0  0  0  0  0  0  0  0  0
   -0.6122    2.3505   -4.4004 Br  0  0  0  0  0  0  0  0  0  0  0  0
    1.3208    1.6066   -2.5008 C   0  0  0  0  0  0  0  0  0  0  0  0
    2.5550    1.6663   -1.8593 C   0  0  0  0  0  0  0  0  0  0  0  0
    3.1521   -1.0974    0.6685 N   0  0  0  0  0  0  0  0  0  0  0  0
    4.5955   -1.2342    0.8557 C   0  0  0  0  0  0  0  0  0  0  0  0
    4.7725   -2.6667    1.3655 C   0  0  2  0  0  0  0  0  0  0  0  0
    5.6662   -2.7755    2.0067 H   0  0  0  0  0  0  0  0  0  0  0  0
    4.7784   -3.6290    0.3203 O   0  0  0  0  0  0  0  0  0  0  0  0
    3.4630   -2.9222    2.1354 C   0  0  2  0  0  0  0  0  0  0  0  0
    3.5235   -2.4164    3.1140 H   0  0  0  0  0  0  0  0  0  0  0  0
    3.2180   -4.2759    2.3803 O   0  0  0  0  0  0  0  0  0  0  0  0
    2.4175   -2.2163    1.2516 C   0  0  0  0  0  0  0  0  0  0  0  0
    5.1239    1.3762    0.2672 H   0  0  0  0  0  0  0  0  0  0  0  0
    3.8817    4.4653   -3.4760 H   0  0  0  0  0  0  0  0  0  0  0  0
    0.5902    0.8549   -2.2076 H   0  0  0  0  0  0  0  0  0  0  0  0
    4.9884   -0.5230    1.6088 H   0  0  0  0  0  0  0  0  0  0  0  0
    5.1489   -1.0627   -0.0807 H   0  0  0  0  0  0  0  0  0  0  0  0
    5.6107   -3.5745   -0.1645 H   0  0  0  0  0  0  0  0  0  0  0  0
    3.4734   -4.7405    1.5674 H   0  0  0  0  0  0  0  0  0  0  0  0
    1.5375   -1.8681    1.8126 H   0  0  0  0  0  0  0  0  0  0  0  0
    2.0494   -2.9047    0.4691 H   0  0  0  0  0  0  0  0  0  0  0  0
  1  2  2  0
  2  3  1  0
  2 15  1  0
  3  4  2  0
  3 14  1  0
  4  5  1  0
  4 24  1  0
  5  6  1  0
  5  7  1  0
  7  8  1  0
  7 14  2  0
  8  9  2  0
  8 25  1  0
  9 10  1  0
  9 11  1  0
 11 12  1  0
 11 13  2  0
 13 14  1  0
 13 26  1  0
 15 16  1  0
 15 23  1  0
 16 17  1  0
 16 27  1  0
 16 28  1  0
 17 18  1  1
 17 19  1  0
 17 20  1  0
 19 29  1  0
 20 21  1  1
 20 22  1  0
 20 23  1  0
 22 30  1  0
 23 31  1  0
 23 32  1  0
M  END

