
     RDKit          3D

 62 64  0  0  0  0  0  0  0  0999 V2000
    0.6635    0.4012    1.1681 C   0  0  0  0  0  0  0  0  0  0  0  0
    2.0254    0.1994    0.5089 C   0  0  0  0  0  0  0  0  0  0  0  0
    3.1102    0.4116    1.4575 N   0  0  0  0  0  0  0  0  0  0  0  0
    4.2802   -0.3296    1.5302 C   0  0  0  0  0  0  0  0  0  0  0  0
    4.9672   -0.7815    0.5419 N   0  0  0  0  0  0  0  0  0  0  0  0
    4.7729   -0.2811   -0.7974 C   0  0  0  0  0  0  0  0  0  0  0  0
    6.0231   -0.4472   -1.6983 C   0  0  1  0  0  0  0  0  0  0  0  0
    7.1706    0.4189   -1.1862 C   0  0  0  0  0  0  0  0  0  0  0  0
    8.0867   -0.0778   -0.2457 C   0  0  0  0  0  0  0  0  0  0  0  0
    9.1028    0.7309    0.2693 C   0  0  0  0  0  0  0  0  0  0  0  0
    9.1959    2.0531   -0.1605 C   0  0  0  0  0  0  0  0  0  0  0  0
   10.1705    2.8379    0.3305 F   0  0  0  0  0  0  0  0  0  0  0  0
    8.3073    2.5779   -1.0951 C   0  0  0  0  0  0  0  0  0  0  0  0
    7.3005    1.7513   -1.6032 C   0  0  0  0  0  0  0  0  0  0  0  0
    6.4497   -1.8367   -1.8750 N   0  0  0  0  0  0  0  0  0  0  0  0
    5.3959   -2.8288   -1.9467 C   0  0  0  0  0  0  0  0  0  0  0  0
    7.3960   -1.9798   -2.9661 C   0  0  0  0  0  0  0  0  0  0  0  0
    4.7305   -0.5188    2.8460 N   0  0  0  0  0  0  0  0  0  0  0  0
    3.8429   -1.0986    3.8569 C   0  0  0  0  0  0  0  0  0  0  0  0
    3.9610   -2.6304    3.8954 C   0  0  0  0  0  0  0  0  0  0  0  0
    5.4139   -3.1147    4.1006 C   0  0  2  0  0  0  0  0  0  0  0  0
    5.8873   -2.9402    5.5504 C   0  0  0  0  0  0  0  0  0  0  0  0
    6.3108   -2.4188    3.0389 C   0  0  2  0  0  0  0  0  0  0  0  0
    7.7207   -2.7950    3.1223 N   0  0  0  0  0  0  0  0  0  0  0  0
    8.7129   -2.2715    3.9307 C   0  0  0  0  0  0  0  0  0  0  0  0
    9.8544   -2.9837    3.6291 C   0  0  0  0  0  0  0  0  0  0  0  0
    9.5941   -3.9222    2.6648 N   0  0  0  0  0  0  0  0  0  0  0  0
    8.3182   -3.7838    2.3844 C   0  0  0  0  0  0  0  0  0  0  0  0
    6.1255   -0.8892    3.0427 C   0  0  0  0  0  0  0  0  0  0  0  0
   -0.1452    0.2657    0.4335 H   0  0  0  0  0  0  0  0  0  0  0  0
    0.5671    1.4211    1.5776 H   0  0  0  0  0  0  0  0  0  0  0  0
    0.5022   -0.3142    1.9907 H   0  0  0  0  0  0  0  0  0  0  0  0
    2.1090    0.8718   -0.3649 H   0  0  0  0  0  0  0  0  0  0  0  0
    2.0997   -0.8275    0.1181 H   0  0  0  0  0  0  0  0  0  0  0  0
    2.9040    0.9903    2.2633 H   0  0  0  0  0  0  0  0  0  0  0  0
    4.5263    0.7983   -0.7982 H   0  0  0  0  0  0  0  0  0  0  0  0
    3.9281   -0.7781   -1.3080 H   0  0  0  0  0  0  0  0  0  0  0  0
    5.7053   -0.0197   -2.6807 H   0  0  0  0  0  0  0  0  0  0  0  0
    8.0005   -1.1203    0.0631 H   0  0  0  0  0  0  0  0  0  0  0  0
    9.8224    0.3491    0.9967 H   0  0  0  0  0  0  0  0  0  0  0  0
    8.4177    3.6150   -1.4184 H   0  0  0  0  0  0  0  0  0  0  0  0
    6.6054    2.1555   -2.3456 H   0  0  0  0  0  0  0  0  0  0  0  0
    4.8097   -2.8441   -1.0178 H   0  0  0  0  0  0  0  0  0  0  0  0
    5.8514   -3.8247   -2.0662 H   0  0  0  0  0  0  0  0  0  0  0  0
    4.6972   -2.6856   -2.8057 H   0  0  0  0  0  0  0  0  0  0  0  0
    8.2396   -1.2860   -2.8398 H   0  0  0  0  0  0  0  0  0  0  0  0
    6.9416   -1.7786   -3.9652 H   0  0  0  0  0  0  0  0  0  0  0  0
    7.8018   -3.0038   -2.9828 H   0  0  0  0  0  0  0  0  0  0  0  0
    2.8065   -0.8059    3.6415 H   0  0  0  0  0  0  0  0  0  0  0  0
    4.0981   -0.6664    4.8405 H   0  0  0  0  0  0  0  0  0  0  0  0
    3.5758   -3.0297    2.9413 H   0  0  0  0  0  0  0  0  0  0  0  0
    3.3150   -3.0356    4.6930 H   0  0  0  0  0  0  0  0  0  0  0  0
    5.4416   -4.1963    3.8805 H   0  0  0  0  0  0  0  0  0  0  0  0
    5.9087   -1.8859    5.8706 H   0  0  0  0  0  0  0  0  0  0  0  0
    6.8965   -3.3519    5.6960 H   0  0  0  0  0  0  0  0  0  0  0  0
    5.2095   -3.4746    6.2354 H   0  0  0  0  0  0  0  0  0  0  0  0
    5.9740   -2.7504    2.0454 H   0  0  0  0  0  0  0  0  0  0  0  0
    8.5312   -1.4608    4.6300 H   0  0  0  0  0  0  0  0  0  0  0  0
   10.8482   -2.8597    4.0593 H   0  0  0  0  0  0  0  0  0  0  0  0
    7.7569   -4.3575    1.6455 H   0  0  0  0  0  0  0  0  0  0  0  0
    6.7261   -0.4476    2.2396 H   0  0  0  0  0  0  0  0  0  0  0  0
    6.4577   -0.4586    4.0036 H   0  0  0  0  0  0  0  0  0  0  0  0
  1  2  1  0
  1 30  1  0
  1 31  1  0
  1 32  1  0
  2  3  1  0
  2 33  1  0
  2 34  1  0
  3  4  1  0
  3 35  1  0
  4  5  2  0
  4 18  1  0
  5  6  1  0
  6  7  1  0
  6 36  1  0
  6 37  1  0
  7  8  1  0
  7 15  1  0
  7 38  1  6
  8  9  2  0
  8 14  1  0
  9 10  1  0
  9 39  1  0
 10 11  2  0
 10 40  1  0
 11 12  1  0
 11 13  1  0
 13 14  2  0
 13 41  1  0
 14 42  1  0
 15 16  1  0
 15 17  1  0
 16 43  1  0
 16 44  1  0
 16 45  1  0
 17 46  1  0
 17 47  1  0
 17 48  1  0
 18 19  1  0
 18 29  1  0
 19 20  1  0
 19 49  1  0
 19 50  1  0
 20 21  1  0
 20 51  1  0
 20 52  1  0
 21 22  1  0
 21 23  1  0
 21 53  1  6
 22 54  1  0
 22 55  1  0
 22 56  1  0
 23 24  1  0
 23 29  1  0
 23 57  1  6
 24 25  1  0
 24 28  1  0
 25 26  2  0
 25 58  1  0
 26 27  1  0
 26 59  1  0
 27 28  2  0
 28 60  1  0
 29 61  1  0
 29 62  1  0
M  END

