
     RDKit          3D

 35 35  0  0  0  0  0  0  0  0999 V2000
    2.2988   -1.6403   -0.3807 C   0  0  0  0  0  0  0  0  0  0  0  0
    2.8765   -0.0140    0.2010 S   0  0  0  0  0  0  0  0  0  0  0  0
    3.6192    0.7297   -1.3756 C   0  0  1  0  0  0  0  0  0  0  0  0
    4.8080   -0.1084   -1.7780 C   0  0  0  0  0  0  0  0  0  0  0  0
    5.7798   -0.3284   -0.8111 N   0  0  0  0  0  0  0  0  0  0  0  0
    5.3656   -0.0801   -3.4540 S   0  0  0  0  0  0  0  0  0  0  0  0
    2.5678    0.8174   -2.5011 C   0  0  0  0  0  0  0  0  0  0  0  0
    1.4463    1.8280   -2.2082 C   0  0  0  0  0  0  0  0  0  0  0  0
    1.9350    3.1677   -1.8914 N   0  0  0  0  0  0  0  0  0  0  0  0
    2.3467    3.9830   -3.0241 C   0  0  0  0  0  0  0  0  0  0  0  0
    1.1568    4.4565   -3.8572 C   0  0  0  0  0  0  0  0  0  0  0  0
   -0.1215    5.1344   -2.7161 S   0  0  0  0  0  0  0  0  0  0  0  0
   -1.0103    6.1479   -3.9336 C   0  0  1  0  0  0  0  0  0  0  0  0
   -0.2484    7.1178   -4.4719 F   0  0  0  0  0  0  0  0  0  0  0  0
   -1.4864    5.4277   -4.9646 F   0  0  0  0  0  0  0  0  0  0  0  0
   -2.0459    6.7316   -3.3231 F   0  0  0  0  0  0  0  0  0  0  0  0
    2.8630    3.1296   -0.7653 C   0  0  0  0  0  0  0  0  0  0  0  0
    4.0511    2.1738   -0.9726 C   0  0  0  0  0  0  0  0  0  0  0  0
    2.1543   -2.2634    0.5133 H   0  0  0  0  0  0  0  0  0  0  0  0
    3.0591   -2.1039   -1.0281 H   0  0  0  0  0  0  0  0  0  0  0  0
    1.3430   -1.5688   -0.9199 H   0  0  0  0  0  0  0  0  0  0  0  0
    5.3668   -0.4714    0.1137 H   0  0  0  0  0  0  0  0  0  0  0  0
    6.4847   -1.0253   -1.0365 H   0  0  0  0  0  0  0  0  0  0  0  0
    2.1448   -0.1757   -2.7172 H   0  0  0  0  0  0  0  0  0  0  0  0
    3.0989    1.1249   -3.4225 H   0  0  0  0  0  0  0  0  0  0  0  0
    0.8499    1.4720   -1.3517 H   0  0  0  0  0  0  0  0  0  0  0  0
    0.7587    1.8781   -3.0661 H   0  0  0  0  0  0  0  0  0  0  0  0
    3.0659    3.4847   -3.7120 H   0  0  0  0  0  0  0  0  0  0  0  0
    2.8622    4.8690   -2.6213 H   0  0  0  0  0  0  0  0  0  0  0  0
    0.7094    3.6435   -4.4480 H   0  0  0  0  0  0  0  0  0  0  0  0
    1.4750    5.2473   -4.5516 H   0  0  0  0  0  0  0  0  0  0  0  0
    2.2971    2.8244    0.1309 H   0  0  0  0  0  0  0  0  0  0  0  0
    3.2337    4.1494   -0.5733 H   0  0  0  0  0  0  0  0  0  0  0  0
    4.6803    2.1362   -0.0691 H   0  0  0  0  0  0  0  0  0  0  0  0
    4.6978    2.5461   -1.7857 H   0  0  0  0  0  0  0  0  0  0  0  0
  1  2  1  0
  1 19  1  0
  1 20  1  0
  1 21  1  0
  3  2  1  1
  3  4  1  0
  3  7  1  0
  3 18  1  0
  4  5  1  0
  4  6  2  0
  5 22  1  0
  5 23  1  0
  7  8  1  0
  7 24  1  0
  7 25  1  0
  8  9  1  0
  8 26  1  0
  8 27  1  0
  9 10  1  0
  9 17  1  0
 10 11  1  0
 10 28  1  0
 10 29  1  0
 11 12  1  0
 11 30  1  0
 11 31  1  0
 12 13  1  0
 13 14  1  6
 13 15  1  0
 13 16  1  0
 17 18  1  0
 17 32  1  0
 17 33  1  0
 18 34  1  0
 18 35  1  0
M  END

