
     RDKit          3D

 30 31  0  0  0  0  0  0  0  0999 V2000
    2.9720   -1.2174   -0.7882 N   0  0  0  0  0  0  0  0  0  0  0  0
    2.4098    0.0212   -0.2832 C   0  0  0  0  0  0  0  0  0  0  0  0
    2.8966    1.2043   -1.1014 C   0  0  1  0  0  0  0  0  0  0  0  0
    2.3403    2.5825   -0.7491 C   0  0  0  0  0  0  0  0  0  0  0  0
    3.4798    3.5392   -1.1553 C   0  0  0  0  0  0  0  0  0  0  0  0
    4.7198    2.6298   -1.1831 C   0  0  2  0  0  0  0  0  0  0  0  0
    5.5342    2.6182   -2.6587 C   0  0  0  0  0  0  0  0  0  0  0  0
    4.8265    3.0899   -3.5560 O   0  0  0  0  0  0  0  0  0  0  0  0
    6.8528    2.1347   -2.6712 C   0  0  0  0  0  0  0  0  0  0  0  0
    7.5698    2.1449   -3.9242 C   0  0  0  0  0  0  0  0  0  0  0  0
    8.8551    1.6582   -4.0080 C   0  0  0  0  0  0  0  0  0  0  0  0
    9.5169    1.1242   -2.8790 C   0  0  0  0  0  0  0  0  0  0  0  0
   11.1425    0.5247   -3.0369 Cl  0  0  0  0  0  0  0  0  0  0  0  0
    8.8245    1.0907   -1.6464 C   0  0  0  0  0  0  0  0  0  0  0  0
    9.5915    0.4200   -0.2236 Cl  0  0  0  0  0  0  0  0  0  0  0  0
    7.5337    1.5751   -1.5342 C   0  0  0  0  0  0  0  0  0  0  0  0
    4.3237    1.3529   -0.8858 O   0  0  0  0  0  0  0  0  0  0  0  0
    2.6043   -2.0196   -0.2794 H   0  0  0  0  0  0  0  0  0  0  0  0
    3.9844   -1.2243   -0.6613 H   0  0  0  0  0  0  0  0  0  0  0  0
    2.6216    0.2414    0.7867 H   0  0  0  0  0  0  0  0  0  0  0  0
    1.3116   -0.0130   -0.3862 H   0  0  0  0  0  0  0  0  0  0  0  0
    2.7661    0.9735   -2.1749 H   0  0  0  0  0  0  0  0  0  0  0  0
    2.1407    2.6358    0.3335 H   0  0  0  0  0  0  0  0  0  0  0  0
    1.4008    2.7930   -1.2787 H   0  0  0  0  0  0  0  0  0  0  0  0
    3.6159    4.3601   -0.4373 H   0  0  0  0  0  0  0  0  0  0  0  0
    3.3094    3.9782   -2.1452 H   0  0  0  0  0  0  0  0  0  0  0  0
    5.5456    2.9215   -0.5182 H   0  0  0  0  0  0  0  0  0  0  0  0
    7.0807    2.5519   -4.8099 H   0  0  0  0  0  0  0  0  0  0  0  0
    9.3896    1.6811   -4.9597 H   0  0  0  0  0  0  0  0  0  0  0  0
    7.0521    1.4923   -0.5616 H   0  0  0  0  0  0  0  0  0  0  0  0
  1  2  1  0
  1 18  1  0
  1 19  1  0
  2  3  1  0
  2 20  1  0
  2 21  1  0
  3  4  1  0
  3 17  1  0
  3 22  1  6
  4  5  1  0
  4 23  1  0
  4 24  1  0
  5  6  1  0
  5 25  1  0
  5 26  1  0
  6  7  1  0
  6 17  1  0
  6 27  1  1
  7  8  2  0
  7  9  1  0
  9 10  2  0
  9 16  1  0
 10 11  1  0
 10 28  1  0
 11 12  2  0
 11 29  1  0
 12 13  1  0
 12 14  1  0
 14 15  1  0
 14 16  2  0
 16 30  1  0
M  END

