
     RDKit          3D

 55 58  0  0  0  0  0  0  0  0999 V2000
   -1.7185   -7.9237   -2.6809 C   0  0  0  0  0  0  0  0  0  0  0  0
   -0.4053   -7.9893   -2.1506 O   0  0  0  0  0  0  0  0  0  0  0  0
    0.5438   -7.1491   -2.5985 C   0  0  0  0  0  0  0  0  0  0  0  0
    0.3275   -6.1538   -3.5645 C   0  0  0  0  0  0  0  0  0  0  0  0
    1.3774   -5.3458   -4.0067 C   0  0  0  0  0  0  0  0  0  0  0  0
    2.6503   -5.5427   -3.4738 C   0  0  0  0  0  0  0  0  0  0  0  0
    4.0050   -4.5357   -4.0233 S   0  0  1  0  0  0  0  0  0  0  0  0
    3.4871   -3.4061   -4.7856 O   0  0  0  0  0  0  0  0  0  0  0  0
    4.9760   -4.3971   -2.9473 O   0  0  0  0  0  0  0  0  0  0  0  0
    4.8710   -5.5522   -5.1419 N   0  0  0  0  0  0  0  0  0  0  0  0
    4.6347   -5.8409   -6.4584 C   0  0  0  0  0  0  0  0  0  0  0  0
    3.6464   -5.1741   -7.2418 C   0  0  0  0  0  0  0  0  0  0  0  0
    3.4598   -5.5238   -8.5559 C   0  0  0  0  0  0  0  0  0  0  0  0
    4.2357   -6.5611   -9.1785 C   0  0  0  0  0  0  0  0  0  0  0  0
    4.0134   -6.9016  -10.4442 N   0  0  0  0  0  0  0  0  0  0  0  0
    4.7683   -7.8943  -11.2150 C   0  0  0  0  0  0  0  0  0  0  0  0
    4.2036   -9.1117  -11.4733 C   0  0  0  0  0  0  0  0  0  0  0  0
    4.9795  -10.0476  -12.2491 C   0  0  0  0  0  0  0  0  0  0  0  0
    4.5347  -11.3637  -12.6057 C   0  0  0  0  0  0  0  0  0  0  0  0
    5.3729  -12.2253  -13.3817 C   0  0  0  0  0  0  0  0  0  0  0  0
    4.9645  -13.5011  -13.7402 C   0  0  0  0  0  0  0  0  0  0  0  0
    3.7064  -14.0000  -13.3541 C   0  0  0  0  0  0  0  0  0  0  0  0
    2.8662  -13.1714  -12.5924 C   0  0  0  0  0  0  0  0  0  0  0  0
    3.2606  -11.8908  -12.2250 C   0  0  0  0  0  0  0  0  0  0  0  0
    6.2339   -9.6172  -12.6657 N   0  0  0  0  0  0  0  0  0  0  0  0
    6.6363   -8.4164  -12.3418 C   0  0  0  0  0  0  0  0  0  0  0  0
    5.9836   -7.4697  -11.6195 N   0  0  0  0  0  0  0  0  0  0  0  0
    5.2471   -7.2096   -8.3878 C   0  0  0  0  0  0  0  0  0  0  0  0
    5.4303   -6.8546   -7.0782 C   0  0  0  0  0  0  0  0  0  0  0  0
    2.8861   -6.5077   -2.4832 C   0  0  0  0  0  0  0  0  0  0  0  0
    1.8452   -7.3174   -2.0385 C   0  0  0  0  0  0  0  0  0  0  0  0
    2.1223   -8.2841   -1.1315 O   0  0  0  0  0  0  0  0  0  0  0  0
    1.4664   -8.2485    0.1347 C   0  0  0  0  0  0  0  0  0  0  0  0
   -2.2914   -8.7143   -2.1806 H   0  0  0  0  0  0  0  0  0  0  0  0
   -1.7220   -8.1079   -3.7686 H   0  0  0  0  0  0  0  0  0  0  0  0
   -2.1908   -6.9481   -2.4737 H   0  0  0  0  0  0  0  0  0  0  0  0
   -0.6663   -6.0046   -3.9855 H   0  0  0  0  0  0  0  0  0  0  0  0
    1.2009   -4.5650   -4.7472 H   0  0  0  0  0  0  0  0  0  0  0  0
    5.6467   -6.0217   -4.6792 H   0  0  0  0  0  0  0  0  0  0  0  0
    3.0693   -4.3644   -6.8007 H   0  0  0  0  0  0  0  0  0  0  0  0
    2.7091   -5.0007   -9.1520 H   0  0  0  0  0  0  0  0  0  0  0  0
    3.3509   -6.3297  -10.9624 H   0  0  0  0  0  0  0  0  0  0  0  0
    3.2072   -9.3563  -11.1050 H   0  0  0  0  0  0  0  0  0  0  0  0
    6.3480  -11.8430  -13.6847 H   0  0  0  0  0  0  0  0  0  0  0  0
    5.6358  -14.1286  -14.3351 H   0  0  0  0  0  0  0  0  0  0  0  0
    3.3898  -15.0054  -13.6403 H   0  0  0  0  0  0  0  0  0  0  0  0
    1.8820  -13.5361  -12.2816 H   0  0  0  0  0  0  0  0  0  0  0  0
    2.5709  -11.2835  -11.6344 H   0  0  0  0  0  0  0  0  0  0  0  0
    7.6366   -8.1227  -12.6924 H   0  0  0  0  0  0  0  0  0  0  0  0
    5.8702   -7.9690   -8.8537 H   0  0  0  0  0  0  0  0  0  0  0  0
    6.2022   -7.3538   -6.4878 H   0  0  0  0  0  0  0  0  0  0  0  0
    3.8725   -6.6395   -2.0369 H   0  0  0  0  0  0  0  0  0  0  0  0
    1.9177   -9.0490    0.7354 H   0  0  0  0  0  0  0  0  0  0  0  0
    0.3854   -8.4264    0.0405 H   0  0  0  0  0  0  0  0  0  0  0  0
    1.6394   -7.2812    0.6383 H   0  0  0  0  0  0  0  0  0  0  0  0
  1  2  1  0
  1 34  1  0
  1 35  1  0
  1 36  1  0
  2  3  1  0
  3  4  2  0
  3 31  1  0
  4  5  1  0
  4 37  1  0
  5  6  2  0
  5 38  1  0
  6  7  1  0
  6 30  1  0
  7  8  2  0
  7  9  2  0
  7 10  1  6
 10 11  1  0
 10 39  1  0
 11 12  2  0
 11 29  1  0
 12 13  1  0
 12 40  1  0
 13 14  2  0
 13 41  1  0
 14 15  1  0
 14 28  1  0
 15 16  1  0
 15 42  1  0
 16 17  2  0
 16 27  1  0
 17 18  1  0
 17 43  1  0
 18 19  1  0
 18 25  2  0
 19 20  2  0
 19 24  1  0
 20 21  1  0
 20 44  1  0
 21 22  2  0
 21 45  1  0
 22 23  1  0
 22 46  1  0
 23 24  2  0
 23 47  1  0
 24 48  1  0
 25 26  1  0
 26 27  2  0
 26 49  1  0
 28 29  2  0
 28 50  1  0
 29 51  1  0
 30 31  2  0
 30 52  1  0
 31 32  1  0
 32 33  1  0
 33 53  1  0
 33 54  1  0
 33 55  1  0
M  END

