
     RDKit          3D

 57 62  0  0  0  0  0  0  0  0999 V2000
    0.8859   -0.0255   -0.0936 C   0  0  0  0  0  0  0  0  0  0  0  0
   -0.3357    0.0037   -0.1030 C   0  0  0  0  0  0  0  0  0  0  0  0
   -1.7567    0.0114   -0.1066 C   0  0  0  0  0  0  0  0  0  0  0  0
   -2.4556   -1.2056   -0.1044 C   0  0  0  0  0  0  0  0  0  0  0  0
   -3.8577   -1.2573   -0.0999 C   0  0  0  0  0  0  0  0  0  0  0  0
   -4.5117   -2.5194   -0.0997 C   0  0  0  0  0  0  0  0  0  0  0  0
   -5.0439   -3.6193   -0.1010 C   0  0  0  0  0  0  0  0  0  0  0  0
   -5.6749   -4.8786   -0.1027 C   0  0  0  0  0  0  0  0  0  0  0  0
   -5.1082   -6.1367    0.0436 C   0  0  0  0  0  0  0  0  0  0  0  0
   -6.0615   -7.1889   -0.0071 C   0  0  0  0  0  0  0  0  0  0  0  0
   -7.3467   -6.7359   -0.1917 C   0  0  0  0  0  0  0  0  0  0  0  0
   -7.4131   -5.0159   -0.3107 S   0  0  0  0  0  0  0  0  0  0  0  0
   -4.6058   -0.0397   -0.0975 C   0  0  0  0  0  0  0  0  0  0  0  0
   -6.0220   -0.0740   -0.0897 C   0  0  0  0  0  0  0  0  0  0  0  0
   -7.2435   -0.1242   -0.0791 C   0  0  0  0  0  0  0  0  0  0  0  0
   -8.6499   -0.1708   -0.0639 C   0  0  0  0  0  0  0  0  0  0  0  0
   -9.4814   -1.2740    0.0718 C   0  0  0  0  0  0  0  0  0  0  0  0
  -10.8615   -0.9389    0.0471 C   0  0  0  0  0  0  0  0  0  0  0  0
  -11.0814    0.4100   -0.1073 C   0  0  0  0  0  0  0  0  0  0  0  0
   -9.6051    1.2942   -0.2289 S   0  0  0  0  0  0  0  0  0  0  0  0
   -3.9128    1.2061   -0.1017 C   0  0  0  0  0  0  0  0  0  0  0  0
   -4.6467    2.4215   -0.0978 C   0  0  0  0  0  0  0  0  0  0  0  0
   -5.2813    3.4655   -0.0910 C   0  0  0  0  0  0  0  0  0  0  0  0
   -6.0018    4.6752   -0.0817 C   0  0  0  0  0  0  0  0  0  0  0  0
   -7.3625    4.8743    0.1037 C   0  0  0  0  0  0  0  0  0  0  0  0
   -7.7381    6.2434    0.0545 C   0  0  0  0  0  0  0  0  0  0  0  0
   -6.6714    7.0825   -0.1679 C   0  0  0  0  0  0  0  0  0  0  0  0
   -5.1894    6.2134   -0.3251 S   0  0  0  0  0  0  0  0  0  0  0  0
   -2.4874    1.2397   -0.1060 C   0  0  0  0  0  0  0  0  0  0  0  0
   -1.7994    2.4780   -0.1032 C   0  0  0  0  0  0  0  0  0  0  0  0
   -1.2005    3.5438   -0.0954 C   0  0  0  0  0  0  0  0  0  0  0  0
   -0.5007    4.7646   -0.0848 C   0  0  0  0  0  0  0  0  0  0  0  0
   -0.9975    6.0509    0.0744 C   0  0  0  0  0  0  0  0  0  0  0  0
    0.0132    7.0480    0.0362 C   0  0  0  0  0  0  0  0  0  0  0  0
    1.2720    6.5265   -0.1518 C   0  0  0  0  0  0  0  0  0  0  0  0
    1.2435    4.8072   -0.2883 S   0  0  0  0  0  0  0  0  0  0  0  0
    2.2940   -0.0624   -0.0799 C   0  0  0  0  0  0  0  0  0  0  0  0
    3.1880    0.9977   -0.0237 C   0  0  0  0  0  0  0  0  0  0  0  0
    4.5458    0.5812   -0.0252 C   0  0  0  0  0  0  0  0  0  0  0  0
    4.6844   -0.7862   -0.0821 C   0  0  0  0  0  0  0  0  0  0  0  0
    3.1588   -1.5897   -0.1346 S   0  0  0  0  0  0  0  0  0  0  0  0
   -1.8921   -2.1389   -0.1057 H   0  0  0  0  0  0  0  0  0  0  0  0
   -4.0365   -6.2801    0.1837 H   0  0  0  0  0  0  0  0  0  0  0  0
   -5.8071   -8.2454    0.0888 H   0  0  0  0  0  0  0  0  0  0  0  0
   -8.2605   -7.3240   -0.2686 H   0  0  0  0  0  0  0  0  0  0  0  0
   -9.0915   -2.2856    0.1852 H   0  0  0  0  0  0  0  0  0  0  0  0
  -11.6664   -1.6696    0.1394 H   0  0  0  0  0  0  0  0  0  0  0  0
  -12.0361    0.9320   -0.1605 H   0  0  0  0  0  0  0  0  0  0  0  0
   -8.0537    4.0477    0.2690 H   0  0  0  0  0  0  0  0  0  0  0  0
   -8.7625    6.5977    0.1784 H   0  0  0  0  0  0  0  0  0  0  0  0
   -6.6790    8.1685   -0.2527 H   0  0  0  0  0  0  0  0  0  0  0  0
   -2.0600    6.2507    0.2139 H   0  0  0  0  0  0  0  0  0  0  0  0
   -0.1821    8.1161    0.1435 H   0  0  0  0  0  0  0  0  0  0  0  0
    2.2170    7.0640   -0.2210 H   0  0  0  0  0  0  0  0  0  0  0  0
    2.8576    2.0357    0.0178 H   0  0  0  0  0  0  0  0  0  0  0  0
    5.3927    1.2678    0.0146 H   0  0  0  0  0  0  0  0  0  0  0  0
    5.6065   -1.3662   -0.0963 H   0  0  0  0  0  0  0  0  0  0  0  0
  1  2  3  0
  1 37  1  0
  2  3  1  0
  3  4  2  0
  3 29  1  0
  4  5  1  0
  4 42  1  0
  5  6  1  0
  5 13  2  0
  6  7  3  0
  7  8  1  0
  8  9  2  0
  8 12  1  0
  9 10  1  0
  9 43  1  0
 10 11  2  0
 10 44  1  0
 11 12  1  0
 11 45  1  0
 13 14  1  0
 13 21  1  0
 14 15  3  0
 15 16  1  0
 16 17  2  0
 16 20  1  0
 17 18  1  0
 17 46  1  0
 18 19  2  0
 18 47  1  0
 19 20  1  0
 19 48  1  0
 21 22  1  0
 21 29  2  0
 22 23  3  0
 23 24  1  0
 24 25  2  0
 24 28  1  0
 25 26  1  0
 25 49  1  0
 26 27  2  0
 26 50  1  0
 27 28  1  0
 27 51  1  0
 29 30  1  0
 30 31  3  0
 31 32  1  0
 32 33  2  0
 32 36  1  0
 33 34  1  0
 33 52  1  0
 34 35  2  0
 34 53  1  0
 35 36  1  0
 35 54  1  0
 37 38  2  0
 37 41  1  0
 38 39  1  0
 38 55  1  0
 39 40  2  0
 39 56  1  0
 40 41  1  0
 40 57  1  0
M  END

