
     RDKit          3D

 36 37  0  0  0  0  0  0  0  0999 V2000
    0.5649    1.0864   -1.6218 C   0  0  0  0  0  0  0  0  0  0  0  0
    1.9868    1.5141   -1.2497 C   0  0  1  0  0  0  0  0  0  0  0  0
    2.1087    1.8409    0.2480 C   0  0  0  0  0  0  0  0  0  0  0  0
    2.9157    0.4822   -1.6924 N   0  0  0  0  0  0  0  0  0  0  0  0
    4.2982    0.6340   -1.7622 C   0  0  0  0  0  0  0  0  0  0  0  0
    4.9102    1.9184   -1.8339 C   0  0  0  0  0  0  0  0  0  0  0  0
    6.2872    2.0656   -1.9563 C   0  0  0  0  0  0  0  0  0  0  0  0
    7.1244    0.9352   -2.0126 C   0  0  0  0  0  0  0  0  0  0  0  0
    8.5537    0.7100   -2.1329 C   0  0  0  0  0  0  0  0  0  0  0  0
    9.6661    1.7278   -2.2407 C   0  0  1  0  0  0  0  0  0  0  0  0
    9.5509    2.5913   -3.5106 C   0  0  0  0  0  0  0  0  0  0  0  0
    9.7826    2.6025   -0.9787 C   0  0  0  0  0  0  0  0  0  0  0  0
    8.7223   -0.6544   -2.1255 C   0  0  0  0  0  0  0  0  0  0  0  0
    7.4953   -1.2901   -2.0074 N   0  0  0  0  0  0  0  0  0  0  0  0
    7.3548   -2.2902   -1.9938 H   0  0  0  0  0  0  0  0  0  0  0  0
    6.4992   -0.3445   -1.9379 C   0  0  0  0  0  0  0  0  0  0  0  0
    5.1152   -0.5081   -1.8093 C   0  0  0  0  0  0  0  0  0  0  0  0
   -0.1654    1.8625   -1.3463 H   0  0  0  0  0  0  0  0  0  0  0  0
    0.2814    0.1622   -1.0875 H   0  0  0  0  0  0  0  0  0  0  0  0
    0.4833    0.8944   -2.7024 H   0  0  0  0  0  0  0  0  0  0  0  0
    2.2143    2.4295   -1.8223 H   0  0  0  0  0  0  0  0  0  0  0  0
    1.8494    0.9594    0.8589 H   0  0  0  0  0  0  0  0  0  0  0  0
    1.4310    2.6624    0.5331 H   0  0  0  0  0  0  0  0  0  0  0  0
    3.1358    2.1405    0.5058 H   0  0  0  0  0  0  0  0  0  0  0  0
    2.6163   -0.4605   -1.4664 H   0  0  0  0  0  0  0  0  0  0  0  0
    4.2896    2.8143   -1.7995 H   0  0  0  0  0  0  0  0  0  0  0  0
    6.7066    3.0730   -2.0072 H   0  0  0  0  0  0  0  0  0  0  0  0
   10.6069    1.1542   -2.3241 H   0  0  0  0  0  0  0  0  0  0  0  0
    8.6356    3.2048   -3.5006 H   0  0  0  0  0  0  0  0  0  0  0  0
    9.5184    1.9638   -4.4148 H   0  0  0  0  0  0  0  0  0  0  0  0
   10.4104    3.2765   -3.5993 H   0  0  0  0  0  0  0  0  0  0  0  0
    8.8764    3.2096   -0.8232 H   0  0  0  0  0  0  0  0  0  0  0  0
   10.6383    3.2940   -1.0561 H   0  0  0  0  0  0  0  0  0  0  0  0
    9.9236    1.9830   -0.0794 H   0  0  0  0  0  0  0  0  0  0  0  0
    9.6419   -1.2336   -2.1957 H   0  0  0  0  0  0  0  0  0  0  0  0
    4.6701   -1.5062   -1.7545 H   0  0  0  0  0  0  0  0  0  0  0  0
  1  2  1  0
  1 18  1  0
  1 19  1  0
  1 20  1  0
  2  3  1  0
  2  4  1  0
  2 21  1  6
  3 22  1  0
  3 23  1  0
  3 24  1  0
  4  5  1  0
  4 25  1  0
  5  6  2  0
  5 17  1  0
  6  7  1  0
  6 26  1  0
  7  8  2  0
  7 27  1  0
  8  9  1  0
  8 16  1  0
  9 10  1  0
  9 13  2  0
 10 11  1  0
 10 12  1  0
 10 28  1  6
 11 29  1  0
 11 30  1  0
 11 31  1  0
 12 32  1  0
 12 33  1  0
 12 34  1  0
 13 14  1  0
 13 35  1  0
 14 15  1  0
 14 16  1  0
 16 17  2  0
 17 36  1  0
M  END

