
     RDKit          3D

150161  0  0  0  0  0  0  0  0999 V2000
    9.6911    2.6482   -2.4631 C   0  0  0  0  0  0  0  0  0  0  0  0
    8.4109    1.7959   -2.6282 C   0  0  1  0  0  0  0  0  0  0  0  0
    8.3058    1.3140   -4.0939 C   0  0  0  0  0  0  0  0  0  0  0  0
    8.5320    0.5573   -1.7231 C   0  0  0  0  0  0  0  0  0  0  0  0
    7.1774    2.6530   -2.2811 C   0  0  0  0  0  0  0  0  0  0  0  0
    6.9244    3.8337   -3.0227 C   0  0  0  0  0  0  0  0  0  0  0  0
    5.8346    4.6634   -2.7706 C   0  0  0  0  0  0  0  0  0  0  0  0
    4.9694    4.3248   -1.7232 C   0  0  0  0  0  0  0  0  0  0  0  0
    5.1909    3.1495   -0.9671 C   0  0  0  0  0  0  0  0  0  0  0  0
    6.2876    2.3215   -1.2538 C   0  0  0  0  0  0  0  0  0  0  0  0
    4.1314    3.0800    0.0219 C   0  0  0  0  0  0  0  0  0  0  0  0
    3.8413    2.1782    1.0510 C   0  0  0  0  0  0  0  0  0  0  0  0
    2.7479    2.3872    1.9057 C   0  0  0  0  0  0  0  0  0  0  0  0
    2.4516    1.3735    3.0316 C   0  0  1  0  0  0  0  0  0  0  0  0
    3.6624    1.2993    3.9906 C   0  0  0  0  0  0  0  0  0  0  0  0
    1.2121    1.7618    3.8579 C   0  0  0  0  0  0  0  0  0  0  0  0
    2.1991   -0.0227    2.4166 C   0  0  0  0  0  0  0  0  0  0  0  0
    1.9645    3.5433    1.6970 C   0  0  0  0  0  0  0  0  0  0  0  0
    2.2274    4.4621    0.6765 C   0  0  0  0  0  0  0  0  0  0  0  0
    3.3086    4.2205   -0.1755 C   0  0  0  0  0  0  0  0  0  0  0  0
    3.8158    4.9722   -1.2466 N   0  0  0  0  0  0  0  0  0  0  0  0
    3.2766    6.1810   -1.7418 C   0  0  0  0  0  0  0  0  0  0  0  0
    1.8918    6.3103   -1.9538 C   0  0  0  0  0  0  0  0  0  0  0  0
    1.3585    7.5196   -2.4048 C   0  0  0  0  0  0  0  0  0  0  0  0
    2.1900    8.6054   -2.6785 C   0  0  0  0  0  0  0  0  0  0  0  0
    3.5787    8.4721   -2.5149 C   0  0  0  0  0  0  0  0  0  0  0  0
    4.4854    9.6000   -2.8471 C   0  0  0  0  0  0  0  0  0  0  0  0
    3.9670   10.8337   -2.8974 N   0  0  0  0  0  0  0  0  0  0  0  0
    4.8221   11.8241   -3.1785 C   0  0  0  0  0  0  0  0  0  0  0  0
    4.2954   13.2142   -3.2171 C   0  0  0  0  0  0  0  0  0  0  0  0
    2.9594   13.4785   -2.8718 C   0  0  0  0  0  0  0  0  0  0  0  0
    2.4789   14.7877   -2.9046 C   0  0  0  0  0  0  0  0  0  0  0  0
    3.3114   15.8399   -3.2931 C   0  0  0  0  0  0  0  0  0  0  0  0
    4.6509   15.5864   -3.6321 C   0  0  0  0  0  0  0  0  0  0  0  0
    5.5033   16.6501   -4.0238 N   0  0  0  0  0  0  0  0  0  0  0  0
    6.2381   16.7181   -5.2132 C   0  0  0  0  0  0  0  0  0  0  0  0
    6.3084   15.8211   -6.2858 C   0  0  0  0  0  0  0  0  0  0  0  0
    7.1150   16.1590   -7.3704 C   0  0  0  0  0  0  0  0  0  0  0  0
    7.8583   17.3645   -7.4356 C   0  0  0  0  0  0  0  0  0  0  0  0
    8.7292   17.6539   -8.6752 C   0  0  1  0  0  0  0  0  0  0  0  0
    7.8398   17.6776   -9.9400 C   0  0  0  0  0  0  0  0  0  0  0  0
    9.4513   19.0096   -8.5729 C   0  0  0  0  0  0  0  0  0  0  0  0
    9.8011   16.5489   -8.8232 C   0  0  0  0  0  0  0  0  0  0  0  0
    7.7608   18.2491   -6.3560 C   0  0  0  0  0  0  0  0  0  0  0  0
    6.9566   17.9388   -5.2483 C   0  0  0  0  0  0  0  0  0  0  0  0
    6.6452   18.6422   -4.0184 C   0  0  0  0  0  0  0  0  0  0  0  0
    7.0595   19.8715   -3.4825 C   0  0  0  0  0  0  0  0  0  0  0  0
    6.5995   20.2936   -2.2303 C   0  0  0  0  0  0  0  0  0  0  0  0
    7.0214   21.6334   -1.5930 C   0  0  1  0  0  0  0  0  0  0  0  0
    5.7686   22.5041   -1.3406 C   0  0  0  0  0  0  0  0  0  0  0  0
    7.7382   21.3642   -0.2494 C   0  0  0  0  0  0  0  0  0  0  0  0
    7.9819   22.4282   -2.4959 C   0  0  0  0  0  0  0  0  0  0  0  0
    5.7144   19.4368   -1.5286 C   0  0  0  0  0  0  0  0  0  0  0  0
    5.2837   18.2116   -2.0328 C   0  0  0  0  0  0  0  0  0  0  0  0
    5.7483   17.8186   -3.2937 C   0  0  0  0  0  0  0  0  0  0  0  0
    5.1380   14.2748   -3.5849 C   0  0  0  0  0  0  0  0  0  0  0  0
    6.1237   11.6341   -3.4287 N   0  0  0  0  0  0  0  0  0  0  0  0
    6.5551   10.3670   -3.3906 C   0  0  0  0  0  0  0  0  0  0  0  0
    7.9826   10.1089   -3.7195 C   0  0  0  0  0  0  0  0  0  0  0  0
    8.9025   11.1709   -3.7479 C   0  0  0  0  0  0  0  0  0  0  0  0
   10.2434   10.9331   -4.0490 C   0  0  0  0  0  0  0  0  0  0  0  0
   10.6755    9.6397   -4.3547 C   0  0  0  0  0  0  0  0  0  0  0  0
    9.7596    8.5746   -4.3641 C   0  0  0  0  0  0  0  0  0  0  0  0
   10.2257    6.8559   -4.8085 P   0  0  1  0  0  0  0  0  0  0  0  0
    9.2351    5.8419   -4.2887 O   0  0  0  0  0  0  0  0  0  0  0  0
   10.3728    6.7974   -6.6357 C   0  0  0  0  0  0  0  0  0  0  0  0
   10.7736    7.8806   -7.4341 C   0  0  0  0  0  0  0  0  0  0  0  0
   10.8558    7.7381   -8.8224 C   0  0  0  0  0  0  0  0  0  0  0  0
   10.5314    6.5176   -9.4226 C   0  0  0  0  0  0  0  0  0  0  0  0
   10.1179    5.4397   -8.6334 C   0  0  0  0  0  0  0  0  0  0  0  0
   10.0346    5.5780   -7.2458 C   0  0  0  0  0  0  0  0  0  0  0  0
   11.9073    6.6022   -4.1242 C   0  0  0  0  0  0  0  0  0  0  0  0
   13.0910    6.8626   -4.8318 C   0  0  0  0  0  0  0  0  0  0  0  0
   14.3332    6.6433   -4.2273 C   0  0  0  0  0  0  0  0  0  0  0  0
   14.4000    6.1571   -2.9185 C   0  0  0  0  0  0  0  0  0  0  0  0
   13.2228    5.8841   -2.2135 C   0  0  0  0  0  0  0  0  0  0  0  0
   11.9805    6.1018   -2.8128 C   0  0  0  0  0  0  0  0  0  0  0  0
    8.4214    8.8088   -4.0219 C   0  0  0  0  0  0  0  0  0  0  0  0
    5.7742    9.3232   -3.0893 N   0  0  0  0  0  0  0  0  0  0  0  0
    4.1133    7.2676   -2.0343 C   0  0  0  0  0  0  0  0  0  0  0  0
   10.5842    2.0546   -2.7231 H   0  0  0  0  0  0  0  0  0  0  0  0
    9.8016    2.9852   -1.4193 H   0  0  0  0  0  0  0  0  0  0  0  0
    9.6759    3.5418   -3.1050 H   0  0  0  0  0  0  0  0  0  0  0  0
    9.1838    0.7036   -4.3646 H   0  0  0  0  0  0  0  0  0  0  0  0
    8.2564    2.1599   -4.7960 H   0  0  0  0  0  0  0  0  0  0  0  0
    7.4036    0.6993   -4.2442 H   0  0  0  0  0  0  0  0  0  0  0  0
    9.4245   -0.0253   -2.0028 H   0  0  0  0  0  0  0  0  0  0  0  0
    7.6601   -0.1096   -1.8167 H   0  0  0  0  0  0  0  0  0  0  0  0
    8.6383    0.8338   -0.6623 H   0  0  0  0  0  0  0  0  0  0  0  0
    7.6170    4.1479   -3.8051 H   0  0  0  0  0  0  0  0  0  0  0  0
    5.6867    5.5554   -3.3791 H   0  0  0  0  0  0  0  0  0  0  0  0
    6.4332    1.4212   -0.6562 H   0  0  0  0  0  0  0  0  0  0  0  0
    4.4871    1.3073    1.1854 H   0  0  0  0  0  0  0  0  0  0  0  0
    3.8642    2.2819    4.4461 H   0  0  0  0  0  0  0  0  0  0  0  0
    4.5780    0.9788    3.4707 H   0  0  0  0  0  0  0  0  0  0  0  0
    3.4712    0.5789    4.8036 H   0  0  0  0  0  0  0  0  0  0  0  0
    1.3394    2.7349    4.3577 H   0  0  0  0  0  0  0  0  0  0  0  0
    1.0360    1.0089    4.6425 H   0  0  0  0  0  0  0  0  0  0  0  0
    0.3033    1.8116    3.2378 H   0  0  0  0  0  0  0  0  0  0  0  0
    3.0696   -0.3841    1.8480 H   0  0  0  0  0  0  0  0  0  0  0  0
    1.3381   -0.0008    1.7296 H   0  0  0  0  0  0  0  0  0  0  0  0
    1.9864   -0.7623    3.2066 H   0  0  0  0  0  0  0  0  0  0  0  0
    1.1165    3.7487    2.3502 H   0  0  0  0  0  0  0  0  0  0  0  0
    1.6005    5.3480    0.5704 H   0  0  0  0  0  0  0  0  0  0  0  0
    1.2381    5.4558   -1.7740 H   0  0  0  0  0  0  0  0  0  0  0  0
    0.2802    7.6063   -2.5596 H   0  0  0  0  0  0  0  0  0  0  0  0
    1.7837    9.5510   -3.0381 H   0  0  0  0  0  0  0  0  0  0  0  0
    2.3165   12.6486   -2.5784 H   0  0  0  0  0  0  0  0  0  0  0  0
    1.4390   14.9928   -2.6387 H   0  0  0  0  0  0  0  0  0  0  0  0
    2.9278   16.8605   -3.3462 H   0  0  0  0  0  0  0  0  0  0  0  0
    5.7486   14.8846   -6.2847 H   0  0  0  0  0  0  0  0  0  0  0  0
    7.1651   15.4537   -8.2031 H   0  0  0  0  0  0  0  0  0  0  0  0
    7.0700   18.4621   -9.8653 H   0  0  0  0  0  0  0  0  0  0  0  0
    7.3239   16.7183  -10.0987 H   0  0  0  0  0  0  0  0  0  0  0  0
    8.4480   17.8806  -10.8372 H   0  0  0  0  0  0  0  0  0  0  0  0
    8.7419   19.8483   -8.4939 H   0  0  0  0  0  0  0  0  0  0  0  0
   10.0617   19.1772   -9.4744 H   0  0  0  0  0  0  0  0  0  0  0  0
   10.1271   19.0502   -7.7043 H   0  0  0  0  0  0  0  0  0  0  0  0
    9.3493   15.5521   -8.9410 H   0  0  0  0  0  0  0  0  0  0  0  0
   10.4575   16.5165   -7.9389 H   0  0  0  0  0  0  0  0  0  0  0  0
   10.4307   16.7366   -9.7089 H   0  0  0  0  0  0  0  0  0  0  0  0
    8.3039   19.1944   -6.3577 H   0  0  0  0  0  0  0  0  0  0  0  0
    7.7497   20.4867   -4.0600 H   0  0  0  0  0  0  0  0  0  0  0  0
    5.0545   22.0109   -0.6635 H   0  0  0  0  0  0  0  0  0  0  0  0
    5.2410   22.7186   -2.2836 H   0  0  0  0  0  0  0  0  0  0  0  0
    6.0519   23.4660   -0.8815 H   0  0  0  0  0  0  0  0  0  0  0  0
    7.0905   20.8311    0.4633 H   0  0  0  0  0  0  0  0  0  0  0  0
    8.0434   22.3125    0.2235 H   0  0  0  0  0  0  0  0  0  0  0  0
    8.6417   20.7525   -0.4013 H   0  0  0  0  0  0  0  0  0  0  0  0
    7.5219   22.6791   -3.4645 H   0  0  0  0  0  0  0  0  0  0  0  0
    8.9135   21.8746   -2.6923 H   0  0  0  0  0  0  0  0  0  0  0  0
    8.2579   23.3754   -2.0061 H   0  0  0  0  0  0  0  0  0  0  0  0
    5.3478   19.7374   -0.5444 H   0  0  0  0  0  0  0  0  0  0  0  0
    4.6093   17.5812   -1.4511 H   0  0  0  0  0  0  0  0  0  0  0  0
    6.1785   14.0652   -3.8302 H   0  0  0  0  0  0  0  0  0  0  0  0
    8.5523   12.1773   -3.5166 H   0  0  0  0  0  0  0  0  0  0  0  0
   10.9585   11.7594   -4.0419 H   0  0  0  0  0  0  0  0  0  0  0  0
   11.7318    9.4618   -4.5721 H   0  0  0  0  0  0  0  0  0  0  0  0
   11.0076    8.8465   -6.9807 H   0  0  0  0  0  0  0  0  0  0  0  0
   11.1655    8.5868   -9.4376 H   0  0  0  0  0  0  0  0  0  0  0  0
   10.5924    6.4094  -10.5086 H   0  0  0  0  0  0  0  0  0  0  0  0
    9.8517    4.4883   -9.1009 H   0  0  0  0  0  0  0  0  0  0  0  0
    9.6935    4.7481   -6.6229 H   0  0  0  0  0  0  0  0  0  0  0  0
   13.0500    7.2222   -5.8628 H   0  0  0  0  0  0  0  0  0  0  0  0
   15.2512    6.8451   -4.7851 H   0  0  0  0  0  0  0  0  0  0  0  0
   15.3717    5.9828   -2.4492 H   0  0  0  0  0  0  0  0  0  0  0  0
   13.2723    5.4933   -1.1940 H   0  0  0  0  0  0  0  0  0  0  0  0
   11.0578    5.8726   -2.2744 H   0  0  0  0  0  0  0  0  0  0  0  0
    7.7144    7.9785   -3.9916 H   0  0  0  0  0  0  0  0  0  0  0  0
    5.1879    7.1951   -1.8753 H   0  0  0  0  0  0  0  0  0  0  0  0
  2  1  1  6
  1 81  1  0
  1 82  1  0
  1 83  1  0
  2  3  1  0
  2  4  1  0
  2  5  1  0
  3 84  1  0
  3 85  1  0
  3 86  1  0
  4 87  1  0
  4 88  1  0
  4 89  1  0
  5  6  2  0
  5 10  1  0
  6  7  1  0
  6 90  1  0
  7  8  2  0
  7 91  1  0
  8  9  1  0
  8 21  1  0
  9 10  2  0
  9 11  1  0
 10 92  1  0
 11 12  2  0
 11 20  1  0
 12 13  1  0
 12 93  1  0
 13 14  1  0
 13 18  2  0
 14 15  1  1
 14 16  1  0
 14 17  1  0
 15 94  1  0
 15 95  1  0
 15 96  1  0
 16 97  1  0
 16 98  1  0
 16 99  1  0
 17100  1  0
 17101  1  0
 17102  1  0
 18 19  1  0
 18103  1  0
 19 20  2  0
 19104  1  0
 20 21  1  0
 21 22  1  0
 22 23  2  0
 22 80  1  0
 23 24  1  0
 23105  1  0
 24 25  2  0
 24106  1  0
 25 26  1  0
 25107  1  0
 26 27  1  0
 26 80  2  0
 27 28  2  0
 27 79  1  0
 28 29  1  0
 29 30  1  0
 29 57  2  0
 30 31  2  0
 30 56  1  0
 31 32  1  0
 31108  1  0
 32 33  2  0
 32109  1  0
 33 34  1  0
 33110  1  0
 34 35  1  0
 34 56  2  0
 35 36  1  0
 35 55  1  0
 36 37  2  0
 36 45  1  0
 37 38  1  0
 37111  1  0
 38 39  2  0
 38112  1  0
 39 40  1  0
 39 44  1  0
 40 41  1  6
 40 42  1  0
 40 43  1  0
 41113  1  0
 41114  1  0
 41115  1  0
 42116  1  0
 42117  1  0
 42118  1  0
 43119  1  0
 43120  1  0
 43121  1  0
 44 45  2  0
 44122  1  0
 45 46  1  0
 46 47  1  0
 46 55  2  0
 47 48  2  0
 47123  1  0
 48 49  1  0
 48 53  1  0
 49 50  1  1
 49 51  1  0
 49 52  1  0
 50124  1  0
 50125  1  0
 50126  1  0
 51127  1  0
 51128  1  0
 51129  1  0
 52130  1  0
 52131  1  0
 52132  1  0
 53 54  2  0
 53133  1  0
 54 55  1  0
 54134  1  0
 56135  1  0
 57 58  1  0
 58 59  1  0
 58 79  2  0
 59 60  2  0
 59 78  1  0
 60 61  1  0
 60136  1  0
 61 62  2  0
 61137  1  0
 62 63  1  0
 62138  1  0
 64 63  1  6
 63 78  2  0
 64 65  2  0
 64 66  1  0
 64 72  1  0
 66 67  2  0
 66 71  1  0
 67 68  1  0
 67139  1  0
 68 69  2  0
 68140  1  0
 69 70  1  0
 69141  1  0
 70 71  2  0
 70142  1  0
 71143  1  0
 72 73  2  0
 72 77  1  0
 73 74  1  0
 73144  1  0
 74 75  2  0
 74145  1  0
 75 76  1  0
 75146  1  0
 76 77  2  0
 76147  1  0
 77148  1  0
 78149  1  0
 80150  1  0
M  END

