
     RDKit          3D

 36 37  0  0  0  0  0  0  0  0999 V2000
    5.1238    4.7706   -5.4716 C   0  0  0  0  0  0  0  0  0  0  0  0
    6.3353    5.6309   -5.1555 C   0  0  0  0  0  0  0  0  0  0  0  0
    6.5719    5.7112   -3.7364 O   0  0  0  0  0  0  0  0  0  0  0  0
    7.3003    4.7446   -3.1617 C   0  0  0  0  0  0  0  0  0  0  0  0
    7.7798    3.8181   -3.7774 O   0  0  0  0  0  0  0  0  0  0  0  0
    7.4255    4.9942   -1.6909 C   0  0  0  0  0  0  0  0  0  0  0  0
    6.7530    6.1700   -1.1986 C   0  0  0  0  0  0  0  0  0  0  0  0
    6.2280    7.1060   -0.7543 N   0  0  0  0  0  0  0  0  0  0  0  0
    8.0878    4.2516   -0.7459 C   0  0  0  0  0  0  0  0  0  0  0  0
    8.8892    3.0304   -0.7087 C   0  0  0  0  0  0  0  0  0  0  0  0
    9.2219    2.2006   -1.8034 C   0  0  0  0  0  0  0  0  0  0  0  0
    9.9907    1.0571   -1.5961 C   0  0  0  0  0  0  0  0  0  0  0  0
   10.4423    0.7117   -0.3205 C   0  0  0  0  0  0  0  0  0  0  0  0
   10.1319    1.5143    0.7934 C   0  0  0  0  0  0  0  0  0  0  0  0
   10.6097    1.1554    2.1568 C   0  0  0  0  0  0  0  0  0  0  0  0
   10.6541   -0.1865    2.5780 C   0  0  0  0  0  0  0  0  0  0  0  0
   11.1040   -0.5172    3.8573 C   0  0  0  0  0  0  0  0  0  0  0  0
   11.5198    0.4762    4.7472 C   0  0  0  0  0  0  0  0  0  0  0  0
   11.4765    1.8094    4.3304 C   0  0  0  0  0  0  0  0  0  0  0  0
   12.0029    3.0713    5.4216 Cl  0  0  0  0  0  0  0  0  0  0  0  0
   11.0294    2.1543    3.0536 C   0  0  0  0  0  0  0  0  0  0  0  0
    9.3587    2.6616    0.5752 C   0  0  0  0  0  0  0  0  0  0  0  0
    4.9225    4.7972   -6.5545 H   0  0  0  0  0  0  0  0  0  0  0  0
    4.2307    5.1416   -4.9458 H   0  0  0  0  0  0  0  0  0  0  0  0
    5.2978    3.7235   -5.1825 H   0  0  0  0  0  0  0  0  0  0  0  0
    6.1786    6.6738   -5.4651 H   0  0  0  0  0  0  0  0  0  0  0  0
    7.2394    5.2398   -5.6446 H   0  0  0  0  0  0  0  0  0  0  0  0
    7.9912    4.6893    0.2530 H   0  0  0  0  0  0  0  0  0  0  0  0
    8.8728    2.4652   -2.7982 H   0  0  0  0  0  0  0  0  0  0  0  0
   10.2497    0.4250   -2.4490 H   0  0  0  0  0  0  0  0  0  0  0  0
   11.0626   -0.1778   -0.1886 H   0  0  0  0  0  0  0  0  0  0  0  0
   10.3112   -0.9763    1.9067 H   0  0  0  0  0  0  0  0  0  0  0  0
   11.1245   -1.5634    4.1721 H   0  0  0  0  0  0  0  0  0  0  0  0
   11.8730    0.2282    5.7492 H   0  0  0  0  0  0  0  0  0  0  0  0
   11.0351    3.2034    2.7547 H   0  0  0  0  0  0  0  0  0  0  0  0
    9.0872    3.2850    1.4305 H   0  0  0  0  0  0  0  0  0  0  0  0
  1  2  1  0
  1 23  1  0
  1 24  1  0
  1 25  1  0
  2  3  1  0
  2 26  1  0
  2 27  1  0
  3  4  1  0
  4  5  2  0
  4  6  1  0
  6  7  1  0
  6  9  2  0
  7  8  3  0
  9 10  1  0
  9 28  1  0
 10 11  2  0
 10 22  1  0
 11 12  1  0
 11 29  1  0
 12 13  2  0
 12 30  1  0
 13 14  1  0
 13 31  1  0
 14 15  1  0
 14 22  2  0
 15 16  2  0
 15 21  1  0
 16 17  1  0
 16 32  1  0
 17 18  2  0
 17 33  1  0
 18 19  1  0
 18 34  1  0
 19 20  1  0
 19 21  2  0
 21 35  1  0
 22 36  1  0
M  END

