
     RDKit          3D

 60 62  0  0  0  0  0  0  0  0999 V2000
    6.5124    5.0812    1.3560 C   0  0  0  0  0  0  0  0  0  0  0  0
    6.7213    3.7216    0.9821 O   0  0  0  0  0  0  0  0  0  0  0  0
    7.2280    2.9109    1.9367 C   0  0  0  0  0  0  0  0  0  0  0  0
    7.4886    3.2952    3.0510 O   0  0  0  0  0  0  0  0  0  0  0  0
    7.4200    1.5037    1.4147 C   0  0  0  0  0  0  0  0  0  0  0  0
    7.9034    0.5120    2.4824 C   0  0  0  0  0  0  0  0  0  0  0  0
    8.1039   -0.8827    1.9614 C   0  0  0  0  0  0  0  0  0  0  0  0
    7.1334   -1.9175    1.8569 C   0  0  0  0  0  0  0  0  0  0  0  0
    5.6897   -1.8793    2.2614 C   0  0  0  0  0  0  0  0  0  0  0  0
    7.6610   -3.0212    1.3339 N   0  0  0  0  0  0  0  0  0  0  0  0
    8.9595   -2.7336    1.0932 N   0  0  0  0  0  0  0  0  0  0  0  0
    9.8255   -3.7331    0.5605 C   0  0  0  0  0  0  0  0  0  0  0  0
   10.5997   -3.4944   -0.6019 C   0  0  0  0  0  0  0  0  0  0  0  0
   11.4203   -4.4731   -1.1220 C   0  0  0  0  0  0  0  0  0  0  0  0
   11.4989   -5.7810   -0.5195 C   0  0  0  0  0  0  0  0  0  0  0  0
   12.3214   -6.7575   -1.1218 C   0  0  0  0  0  0  0  0  0  0  0  0
   13.0717   -6.7080   -2.0936 O   0  0  0  0  0  0  0  0  0  0  0  0
   12.1813   -8.0839   -0.4497 O   0  0  0  0  0  0  0  0  0  0  0  0
   13.0267   -9.0905   -0.9342 C   0  0  1  0  0  0  0  0  0  0  0  0
   14.1298   -9.4699    0.0534 C   0  0  0  0  0  0  0  0  0  0  0  0
   12.1797  -10.2926   -1.3288 C   0  0  0  0  0  0  0  0  0  0  0  0
   12.5767  -11.3884   -1.6257 O   0  0  0  0  0  0  0  0  0  0  0  0
   10.7772   -9.9604   -1.3230 N   0  0  0  0  0  0  0  0  0  0  0  0
    9.7108  -10.6850   -1.6816 C   0  0  0  0  0  0  0  0  0  0  0  0
    9.8103  -12.0351   -2.1788 C   0  0  0  0  0  0  0  0  0  0  0  0
    8.6602  -12.7095   -2.5260 C   0  0  0  0  0  0  0  0  0  0  0  0
    7.3951  -12.0934   -2.4009 C   0  0  0  0  0  0  0  0  0  0  0  0
    7.2832  -10.7693   -1.9158 C   0  0  0  0  0  0  0  0  0  0  0  0
    8.4112  -10.0691   -1.5603 C   0  0  0  0  0  0  0  0  0  0  0  0
   10.7038   -5.9999    0.6652 C   0  0  0  0  0  0  0  0  0  0  0  0
    9.8969   -5.0037    1.1767 C   0  0  0  0  0  0  0  0  0  0  0  0
    9.2766   -1.4527    1.4658 C   0  0  0  0  0  0  0  0  0  0  0  0
   10.6583   -0.8867    1.3791 C   0  0  0  0  0  0  0  0  0  0  0  0
    6.1082    5.5860    0.4694 H   0  0  0  0  0  0  0  0  0  0  0  0
    7.4568    5.5552    1.6655 H   0  0  0  0  0  0  0  0  0  0  0  0
    5.8008    5.1556    2.1930 H   0  0  0  0  0  0  0  0  0  0  0  0
    8.1320    1.5549    0.5727 H   0  0  0  0  0  0  0  0  0  0  0  0
    6.4694    1.1762    0.9611 H   0  0  0  0  0  0  0  0  0  0  0  0
    7.1746    0.5051    3.3096 H   0  0  0  0  0  0  0  0  0  0  0  0
    8.8364    0.9006    2.9216 H   0  0  0  0  0  0  0  0  0  0  0  0
    5.5684   -1.6270    3.3290 H   0  0  0  0  0  0  0  0  0  0  0  0
    5.2335   -2.8642    2.0874 H   0  0  0  0  0  0  0  0  0  0  0  0
    5.1162   -1.1314    1.6868 H   0  0  0  0  0  0  0  0  0  0  0  0
   10.5331   -2.5242   -1.0997 H   0  0  0  0  0  0  0  0  0  0  0  0
   12.0135   -4.2805   -2.0173 H   0  0  0  0  0  0  0  0  0  0  0  0
   13.4871   -8.7297   -1.8778 H   0  0  0  0  0  0  0  0  0  0  0  0
   13.7017   -9.7565    1.0265 H   0  0  0  0  0  0  0  0  0  0  0  0
   14.7795   -8.5974    0.2044 H   0  0  0  0  0  0  0  0  0  0  0  0
   14.7371  -10.3013   -0.3329 H   0  0  0  0  0  0  0  0  0  0  0  0
   10.6741   -8.9981   -0.9601 H   0  0  0  0  0  0  0  0  0  0  0  0
   10.7954  -12.4875   -2.2625 H   0  0  0  0  0  0  0  0  0  0  0  0
    8.7270  -13.7314   -2.9024 H   0  0  0  0  0  0  0  0  0  0  0  0
    6.4955  -12.6434   -2.6820 H   0  0  0  0  0  0  0  0  0  0  0  0
    6.3009  -10.3042   -1.8255 H   0  0  0  0  0  0  0  0  0  0  0  0
    8.3475   -9.0469   -1.1867 H   0  0  0  0  0  0  0  0  0  0  0  0
   10.7674   -6.9582    1.1805 H   0  0  0  0  0  0  0  0  0  0  0  0
    9.2991   -5.1804    2.0730 H   0  0  0  0  0  0  0  0  0  0  0  0
   11.4155   -1.6459    1.6284 H   0  0  0  0  0  0  0  0  0  0  0  0
   10.7661   -0.0460    2.0806 H   0  0  0  0  0  0  0  0  0  0  0  0
   10.9038   -0.5083    0.3720 H   0  0  0  0  0  0  0  0  0  0  0  0
  1  2  1  0
  1 34  1  0
  1 35  1  0
  1 36  1  0
  2  3  1  0
  3  4  2  0
  3  5  1  0
  5  6  1  0
  5 37  1  0
  5 38  1  0
  6  7  1  0
  6 39  1  0
  6 40  1  0
  7  8  1  0
  7 32  2  0
  8  9  1  0
  8 10  2  0
  9 41  1  0
  9 42  1  0
  9 43  1  0
 10 11  1  0
 11 12  1  0
 11 32  1  0
 12 13  2  0
 12 31  1  0
 13 14  1  0
 13 44  1  0
 14 15  2  0
 14 45  1  0
 15 16  1  0
 15 30  1  0
 16 17  2  0
 16 18  1  0
 18 19  1  0
 19 20  1  0
 19 21  1  0
 19 46  1  6
 20 47  1  0
 20 48  1  0
 20 49  1  0
 21 22  2  0
 21 23  1  0
 23 24  1  0
 23 50  1  0
 24 25  2  0
 24 29  1  0
 25 26  1  0
 25 51  1  0
 26 27  2  0
 26 52  1  0
 27 28  1  0
 27 53  1  0
 28 29  2  0
 28 54  1  0
 29 55  1  0
 30 31  2  0
 30 56  1  0
 31 57  1  0
 32 33  1  0
 33 58  1  0
 33 59  1  0
 33 60  1  0
M  END

