
     RDKit          3D

 62 68  0  0  0  0  0  0  0  0999 V2000
    1.8615   -1.9735   -0.4028 C   0  0  0  0  0  0  0  0  0  0  0  0
    3.0380   -1.2742    0.2738 C   0  0  1  0  0  0  0  0  0  0  0  0
    4.3077   -1.3910   -0.5793 C   0  0  0  0  0  0  0  0  0  0  0  0
    2.6954    0.1821    0.6239 C   0  0  0  0  0  0  0  0  0  0  0  0
    3.7788    0.8355    1.4833 C   0  0  0  0  0  0  0  0  0  0  0  0
    4.2313   -0.0988    2.5754 C   0  0  0  0  0  0  0  0  0  0  0  0
    3.9315   -1.4403    2.5243 C   0  0  0  0  0  0  0  0  0  0  0  0
    4.3151   -2.3588    3.5853 C   0  0  0  0  0  0  0  0  0  0  0  0
    3.9860   -3.7316    3.5207 C   0  0  0  0  0  0  0  0  0  0  0  0
    4.3577   -4.5938    4.5420 C   0  0  0  0  0  0  0  0  0  0  0  0
    5.0719   -4.1095    5.6546 C   0  0  0  0  0  0  0  0  0  0  0  0
    5.4065   -2.7658    5.7337 C   0  0  0  0  0  0  0  0  0  0  0  0
    5.0362   -1.8699    4.7086 C   0  0  0  0  0  0  0  0  0  0  0  0
    5.3806   -0.4555    4.7724 C   0  0  0  0  0  0  0  0  0  0  0  0
    6.0601    0.0180    5.8171 N   0  0  0  0  0  0  0  0  0  0  0  0
    6.3700    1.3218    5.8550 C   0  0  0  0  0  0  0  0  0  0  0  0
    7.1017    1.8361    6.9887 C   0  0  0  0  0  0  0  0  0  0  0  0
    7.4378    3.1697    7.0192 C   0  0  0  0  0  0  0  0  0  0  0  0
    7.0547    4.0877    5.9577 C   0  0  0  0  0  0  0  0  0  0  0  0
    7.3994    5.4571    6.0132 C   0  0  0  0  0  0  0  0  0  0  0  0
    7.0239    6.3198    4.9937 C   0  0  0  0  0  0  0  0  0  0  0  0
    6.2955    5.8383    3.8892 C   0  0  0  0  0  0  0  0  0  0  0  0
    5.9507    4.4969    3.8162 C   0  0  0  0  0  0  0  0  0  0  0  0
    6.3200    3.6015    4.8422 C   0  0  0  0  0  0  0  0  0  0  0  0
    5.9702    2.1883    4.7820 C   0  0  0  0  0  0  0  0  0  0  0  0
    5.2847    1.7161    3.7407 N   0  0  0  0  0  0  0  0  0  0  0  0
    4.9764    0.4120    3.7019 C   0  0  0  0  0  0  0  0  0  0  0  0
    8.1322    3.7437    8.0316 O   0  0  0  0  0  0  0  0  0  0  0  0
    8.7857    2.9054    9.0211 C   0  0  2  0  0  0  0  0  0  0  0  0
    8.9953    3.8193   10.2260 C   0  0  0  0  0  0  0  0  0  0  0  0
   10.1303    2.4452    8.4428 C   0  0  0  0  0  0  0  0  0  0  0  0
    7.8595    1.7294    9.3667 C   0  0  0  0  0  0  0  0  0  0  0  0
    7.4726    0.9214    8.1274 C   0  0  0  0  0  0  0  0  0  0  0  0
    3.2508   -2.0163    1.5038 O   0  0  0  0  0  0  0  0  0  0  0  0
    0.9641   -1.9213    0.2319 H   0  0  0  0  0  0  0  0  0  0  0  0
    2.0954   -3.0337   -0.5829 H   0  0  0  0  0  0  0  0  0  0  0  0
    1.6357   -1.4974   -1.3692 H   0  0  0  0  0  0  0  0  0  0  0  0
    4.1823   -0.8535   -1.5325 H   0  0  0  0  0  0  0  0  0  0  0  0
    4.5183   -2.4480   -0.8015 H   0  0  0  0  0  0  0  0  0  0  0  0
    5.1840   -0.9731   -0.0630 H   0  0  0  0  0  0  0  0  0  0  0  0
    1.7389    0.1807    1.1733 H   0  0  0  0  0  0  0  0  0  0  0  0
    2.5303    0.7520   -0.3043 H   0  0  0  0  0  0  0  0  0  0  0  0
    3.4059    1.7674    1.9346 H   0  0  0  0  0  0  0  0  0  0  0  0
    4.6426    1.1443    0.8673 H   0  0  0  0  0  0  0  0  0  0  0  0
    3.4353   -4.0974    2.6541 H   0  0  0  0  0  0  0  0  0  0  0  0
    4.0959   -5.6534    4.4809 H   0  0  0  0  0  0  0  0  0  0  0  0
    5.3639   -4.7934    6.4557 H   0  0  0  0  0  0  0  0  0  0  0  0
    5.9620   -2.3686    6.5840 H   0  0  0  0  0  0  0  0  0  0  0  0
    7.9649    5.8200    6.8715 H   0  0  0  0  0  0  0  0  0  0  0  0
    7.2960    7.3771    5.0487 H   0  0  0  0  0  0  0  0  0  0  0  0
    6.0027    6.5221    3.0883 H   0  0  0  0  0  0  0  0  0  0  0  0
    5.3891    4.1007    2.9694 H   0  0  0  0  0  0  0  0  0  0  0  0
    8.0292    4.1797   10.6102 H   0  0  0  0  0  0  0  0  0  0  0  0
    9.6026    4.6934    9.9459 H   0  0  0  0  0  0  0  0  0  0  0  0
    9.5138    3.2790   11.0328 H   0  0  0  0  0  0  0  0  0  0  0  0
    9.9976    1.8627    7.5197 H   0  0  0  0  0  0  0  0  0  0  0  0
   10.6678    1.8172    9.1707 H   0  0  0  0  0  0  0  0  0  0  0  0
   10.7582    3.3170    8.2052 H   0  0  0  0  0  0  0  0  0  0  0  0
    6.9512    2.1422    9.8369 H   0  0  0  0  0  0  0  0  0  0  0  0
    8.3475    1.0897   10.1191 H   0  0  0  0  0  0  0  0  0  0  0  0
    6.6255    0.2545    8.3484 H   0  0  0  0  0  0  0  0  0  0  0  0
    8.2929    0.2476    7.8206 H   0  0  0  0  0  0  0  0  0  0  0  0
  2  1  1  6
  1 35  1  0
  1 36  1  0
  1 37  1  0
  2  3  1  0
  2  4  1  0
  2 34  1  0
  3 38  1  0
  3 39  1  0
  3 40  1  0
  4  5  1  0
  4 41  1  0
  4 42  1  0
  5  6  1  0
  5 43  1  0
  5 44  1  0
  6  7  2  0
  6 27  1  0
  7  8  1  0
  7 34  1  0
  8  9  2  0
  8 13  1  0
  9 10  1  0
  9 45  1  0
 10 11  2  0
 10 46  1  0
 11 12  1  0
 11 47  1  0
 12 13  2  0
 12 48  1  0
 13 14  1  0
 14 15  1  0
 14 27  2  0
 15 16  2  0
 16 17  1  0
 16 25  1  0
 17 18  2  0
 17 33  1  0
 18 19  1  0
 18 28  1  0
 19 20  1  0
 19 24  2  0
 20 21  2  0
 20 49  1  0
 21 22  1  0
 21 50  1  0
 22 23  2  0
 22 51  1  0
 23 24  1  0
 23 52  1  0
 24 25  1  0
 25 26  2  0
 26 27  1  0
 28 29  1  0
 29 30  1  1
 29 31  1  0
 29 32  1  0
 30 53  1  0
 30 54  1  0
 30 55  1  0
 31 56  1  0
 31 57  1  0
 31 58  1  0
 32 33  1  0
 32 59  1  0
 32 60  1  0
 33 61  1  0
 33 62  1  0
M  END

