
     RDKit          3D

102115  0  0  0  0  0  0  0  0999 V2000
   -2.7492    0.2847   -1.8263 C   0  0  0  0  0  0  0  0  0  0  0  0
   -1.9343    1.3861   -2.1238 C   0  0  0  0  0  0  0  0  0  0  0  0
   -0.7982    1.6600   -1.3512 C   0  0  0  0  0  0  0  0  0  0  0  0
   -0.4885    0.8222   -0.2817 C   0  0  0  0  0  0  0  0  0  0  0  0
   -1.3061   -0.2847    0.0182 C   0  0  0  0  0  0  0  0  0  0  0  0
   -2.4415   -0.5581   -0.7541 C   0  0  0  0  0  0  0  0  0  0  0  0
   -0.7443   -0.9833    1.1827 C   0  0  0  0  0  0  0  0  0  0  0  0
   -1.1820   -2.1272    1.8586 C   0  0  0  0  0  0  0  0  0  0  0  0
   -0.4455   -2.5888    2.9542 C   0  0  0  0  0  0  0  0  0  0  0  0
    0.7115   -1.9152    3.3665 C   0  0  0  0  0  0  0  0  0  0  0  0
    1.1521   -0.7682    2.6920 C   0  0  0  0  0  0  0  0  0  0  0  0
    0.4203   -0.3057    1.6001 C   0  0  0  0  0  0  0  0  0  0  0  0
    0.6909    0.9214    0.6958 C   0  0  2  0  0  0  0  0  0  0  0  0
    0.6094    2.2158    1.5367 C   0  0  0  0  0  0  0  0  0  0  0  0
   -0.6355    2.8204    1.7734 C   0  0  0  0  0  0  0  0  0  0  0  0
   -0.7981    3.9479    2.5945 C   0  0  0  0  0  0  0  0  0  0  0  0
   -2.1411    4.5437    2.8183 C   0  0  0  0  0  0  0  0  0  0  0  0
   -3.2942    3.7400    2.9015 C   0  0  0  0  0  0  0  0  0  0  0  0
   -4.5559    4.2983    3.1018 C   0  0  0  0  0  0  0  0  0  0  0  0
   -4.7026    5.6859    3.2457 C   0  0  0  0  0  0  0  0  0  0  0  0
   -5.9842    6.2577    3.4600 N   0  0  0  0  0  0  0  0  0  0  0  0
   -6.8527    5.9467    4.5112 C   0  0  0  0  0  0  0  0  0  0  0  0
   -6.6751    5.0609    5.5819 C   0  0  0  0  0  0  0  0  0  0  0  0
   -7.7060    4.9531    6.5164 C   0  0  0  0  0  0  0  0  0  0  0  0
   -8.8874    5.7093    6.3970 C   0  0  0  0  0  0  0  0  0  0  0  0
   -9.0549    6.5989    5.3368 C   0  0  0  0  0  0  0  0  0  0  0  0
   -8.0341    6.7270    4.3834 C   0  0  0  0  0  0  0  0  0  0  0  0
   -7.8680    7.5450    3.1978 C   0  0  0  0  0  0  0  0  0  0  0  0
   -8.6781    8.4908    2.5526 C   0  0  0  0  0  0  0  0  0  0  0  0
   -8.2160    9.0993    1.3864 C   0  0  0  0  0  0  0  0  0  0  0  0
   -6.9552    8.7654    0.8567 C   0  0  0  0  0  0  0  0  0  0  0  0
   -6.1291    7.8283    1.4787 C   0  0  0  0  0  0  0  0  0  0  0  0
   -6.5919    7.2281    2.6571 C   0  0  0  0  0  0  0  0  0  0  0  0
   -3.5624    6.4998    3.1750 C   0  0  0  0  0  0  0  0  0  0  0  0
   -2.3066    5.9353    2.9560 C   0  0  0  0  0  0  0  0  0  0  0  0
    0.3517    4.4946    3.1929 C   0  0  0  0  0  0  0  0  0  0  0  0
    1.5990    3.9265    2.9681 C   0  0  0  0  0  0  0  0  0  0  0  0
    1.7364    2.7909    2.1522 C   0  0  0  0  0  0  0  0  0  0  0  0
    3.3741    2.1359    1.9949 S   0  0  0  0  0  0  0  0  0  0  0  0
    3.2535    1.2296    0.4783 C   0  0  0  0  0  0  0  0  0  0  0  0
    4.4624    0.9813   -0.1933 C   0  0  0  0  0  0  0  0  0  0  0  0
    4.4851    0.2384   -1.3668 C   0  0  0  0  0  0  0  0  0  0  0  0
    3.2915   -0.2699   -1.9106 C   0  0  0  0  0  0  0  0  0  0  0  0
    3.2933   -1.0669   -3.1650 C   0  0  0  0  0  0  0  0  0  0  0  0
    2.4118   -2.1502   -3.3442 C   0  0  0  0  0  0  0  0  0  0  0  0
    2.4064   -2.8940   -4.5234 C   0  0  0  0  0  0  0  0  0  0  0  0
    3.2999   -2.5862   -5.5600 C   0  0  0  0  0  0  0  0  0  0  0  0
    3.3032   -3.3474   -6.7586 N   0  0  0  0  0  0  0  0  0  0  0  0
    3.0926   -2.8458   -8.0467 C   0  0  0  0  0  0  0  0  0  0  0  0
    2.8084   -1.5372   -8.4583 C   0  0  0  0  0  0  0  0  0  0  0  0
    2.6191   -1.3097   -9.8221 C   0  0  0  0  0  0  0  0  0  0  0  0
    2.7049   -2.3561  -10.7600 C   0  0  0  0  0  0  0  0  0  0  0  0
    2.9759   -3.6592  -10.3447 C   0  0  0  0  0  0  0  0  0  0  0  0
    3.1699   -3.9158   -8.9796 C   0  0  0  0  0  0  0  0  0  0  0  0
    3.4412   -5.1176   -8.2151 C   0  0  0  0  0  0  0  0  0  0  0  0
    3.6347   -6.4630   -8.5609 C   0  0  0  0  0  0  0  0  0  0  0  0
    3.9028   -7.3917   -7.5563 C   0  0  0  0  0  0  0  0  0  0  0  0
    3.9862   -6.9861   -6.2108 C   0  0  0  0  0  0  0  0  0  0  0  0
    3.7971   -5.6543   -5.8391 C   0  0  0  0  0  0  0  0  0  0  0  0
    3.5155   -4.7265   -6.8503 C   0  0  0  0  0  0  0  0  0  0  0  0
    4.1905   -1.5156   -5.3935 C   0  0  0  0  0  0  0  0  0  0  0  0
    4.1782   -0.7660   -4.2179 C   0  0  0  0  0  0  0  0  0  0  0  0
    2.0937    0.0028   -1.2306 C   0  0  0  0  0  0  0  0  0  0  0  0
    2.0390    0.7416   -0.0378 C   0  0  0  0  0  0  0  0  0  0  0  0
   -3.6324    0.0840   -2.4380 H   0  0  0  0  0  0  0  0  0  0  0  0
   -2.1872    2.0362   -2.9650 H   0  0  0  0  0  0  0  0  0  0  0  0
   -0.1657    2.5195   -1.5865 H   0  0  0  0  0  0  0  0  0  0  0  0
   -3.0792   -1.4158   -0.5259 H   0  0  0  0  0  0  0  0  0  0  0  0
   -2.0844   -2.6541    1.5379 H   0  0  0  0  0  0  0  0  0  0  0  0
   -0.7748   -3.4813    3.4922 H   0  0  0  0  0  0  0  0  0  0  0  0
    1.2781   -2.2867    4.2241 H   0  0  0  0  0  0  0  0  0  0  0  0
    2.0547   -0.2489    3.0201 H   0  0  0  0  0  0  0  0  0  0  0  0
   -1.5160    2.4000    1.2884 H   0  0  0  0  0  0  0  0  0  0  0  0
   -3.2033    2.6549    2.8187 H   0  0  0  0  0  0  0  0  0  0  0  0
   -5.4382    3.6569    3.1487 H   0  0  0  0  0  0  0  0  0  0  0  0
   -5.7603    4.4760    5.6885 H   0  0  0  0  0  0  0  0  0  0  0  0
   -7.5894    4.2677    7.3598 H   0  0  0  0  0  0  0  0  0  0  0  0
   -9.6759    5.5998    7.1454 H   0  0  0  0  0  0  0  0  0  0  0  0
   -9.9685    7.1925    5.2503 H   0  0  0  0  0  0  0  0  0  0  0  0
   -9.6610    8.7442    2.9580 H   0  0  0  0  0  0  0  0  0  0  0  0
   -8.8372    9.8385    0.8752 H   0  0  0  0  0  0  0  0  0  0  0  0
   -6.6141    9.2473   -0.0632 H   0  0  0  0  0  0  0  0  0  0  0  0
   -5.1571    7.5709    1.0550 H   0  0  0  0  0  0  0  0  0  0  0  0
   -3.6655    7.5804    3.2928 H   0  0  0  0  0  0  0  0  0  0  0  0
   -1.4383    6.5933    2.8788 H   0  0  0  0  0  0  0  0  0  0  0  0
    0.2699    5.3621    3.8511 H   0  0  0  0  0  0  0  0  0  0  0  0
    2.4883    4.3632    3.4294 H   0  0  0  0  0  0  0  0  0  0  0  0
    5.3935    1.3790    0.2185 H   0  0  0  0  0  0  0  0  0  0  0  0
    5.4412    0.0390   -1.8555 H   0  0  0  0  0  0  0  0  0  0  0  0
    1.7235   -2.4250   -2.5420 H   0  0  0  0  0  0  0  0  0  0  0  0
    1.7056   -3.7221   -4.6467 H   0  0  0  0  0  0  0  0  0  0  0  0
    2.7316   -0.7209   -7.7384 H   0  0  0  0  0  0  0  0  0  0  0  0
    2.3970   -0.2964  -10.1664 H   0  0  0  0  0  0  0  0  0  0  0  0
    2.5529   -2.1434  -11.8208 H   0  0  0  0  0  0  0  0  0  0  0  0
    3.0330   -4.4722  -11.0730 H   0  0  0  0  0  0  0  0  0  0  0  0
    3.5790   -6.7782   -9.6060 H   0  0  0  0  0  0  0  0  0  0  0  0
    4.0544   -8.4428   -7.8131 H   0  0  0  0  0  0  0  0  0  0  0  0
    4.2060   -7.7276   -5.4384 H   0  0  0  0  0  0  0  0  0  0  0  0
    3.8714   -5.3486   -4.7943 H   0  0  0  0  0  0  0  0  0  0  0  0
    4.8942   -1.2727   -6.1923 H   0  0  0  0  0  0  0  0  0  0  0  0
    4.8636    0.0790   -4.1226 H   0  0  0  0  0  0  0  0  0  0  0  0
    1.1606   -0.3677   -1.6543 H   0  0  0  0  0  0  0  0  0  0  0  0
  1  2  2  0
  1  6  1  0
  1 65  1  0
  2  3  1  0
  2 66  1  0
  3  4  2  0
  3 67  1  0
  4  5  1  0
 13  4  1  6
  5  6  2  0
  5  7  1  0
  6 68  1  0
  7  8  2  0
  7 12  1  0
  8  9  1  0
  8 69  1  0
  9 10  2  0
  9 70  1  0
 10 11  1  0
 10 71  1  0
 11 12  2  0
 11 72  1  0
 12 13  1  0
 13 14  1  0
 13 64  1  0
 14 15  2  0
 14 38  1  0
 15 16  1  0
 15 73  1  0
 16 17  1  0
 16 36  2  0
 17 18  2  0
 17 35  1  0
 18 19  1  0
 18 74  1  0
 19 20  2  0
 19 75  1  0
 20 21  1  0
 20 34  1  0
 21 22  1  0
 21 33  1  0
 22 23  2  0
 22 27  1  0
 23 24  1  0
 23 76  1  0
 24 25  2  0
 24 77  1  0
 25 26  1  0
 25 78  1  0
 26 27  2  0
 26 79  1  0
 27 28  1  0
 28 29  1  0
 28 33  2  0
 29 30  2  0
 29 80  1  0
 30 31  1  0
 30 81  1  0
 31 32  2  0
 31 82  1  0
 32 33  1  0
 32 83  1  0
 34 35  2  0
 34 84  1  0
 35 85  1  0
 36 37  1  0
 36 86  1  0
 37 38  2  0
 37 87  1  0
 38 39  1  0
 39 40  1  0
 40 41  2  0
 40 64  1  0
 41 42  1  0
 41 88  1  0
 42 43  2  0
 42 89  1  0
 43 44  1  0
 43 63  1  0
 44 45  2  0
 44 62  1  0
 45 46  1  0
 45 90  1  0
 46 47  2  0
 46 91  1  0
 47 48  1  0
 47 61  1  0
 48 49  1  0
 48 60  1  0
 49 50  2  0
 49 54  1  0
 50 51  1  0
 50 92  1  0
 51 52  2  0
 51 93  1  0
 52 53  1  0
 52 94  1  0
 53 54  2  0
 53 95  1  0
 54 55  1  0
 55 56  1  0
 55 60  2  0
 56 57  2  0
 56 96  1  0
 57 58  1  0
 57 97  1  0
 58 59  2  0
 58 98  1  0
 59 60  1  0
 59 99  1  0
 61 62  2  0
 61100  1  0
 62101  1  0
 63 64  2  0
 63102  1  0
M  END

