
     RDKit          3D

 38 39  0  0  0  0  0  0  0  0999 V2000
   -2.2309   -4.7066   -0.1161 C   0  0  0  0  0  0  0  0  0  0  0  0
   -0.7394   -4.7189   -0.0990 C   0  0  0  0  0  0  0  0  0  0  0  0
    0.1315   -3.6330   -0.0832 C   0  0  0  0  0  0  0  0  0  0  0  0
    1.4892   -3.9859   -0.0692 C   0  0  0  0  0  0  0  0  0  0  0  0
    1.6918   -5.3821   -0.0740 C   0  0  0  0  0  0  0  0  0  0  0  0
    2.9258   -6.0859   -0.0626 C   0  0  0  0  0  0  0  0  0  0  0  0
    4.0431   -5.3709   -0.0447 N   0  0  0  0  0  0  0  0  0  0  0  0
    5.1862   -5.9313   -0.0333 N   0  0  0  0  0  0  0  0  0  0  0  0
    6.4777   -5.0773   -0.0104 C   0  0  0  0  0  0  0  0  0  0  0  0
    6.3534   -3.8736   -0.0056 O   0  0  0  0  0  0  0  0  0  0  0  0
    7.5990   -5.9416    0.0012 C   0  0  0  0  0  0  0  0  0  0  0  0
    9.0005   -5.6312    0.0237 C   0  0  0  0  0  0  0  0  0  0  0  0
    9.6522   -6.8405    0.0270 C   0  0  0  0  0  0  0  0  0  0  0  0
   11.1234   -7.2063    0.0471 C   0  0  1  0  0  0  0  0  0  0  0  0
   11.9765   -5.9273    0.0673 C   0  0  0  0  0  0  0  0  0  0  0  0
   11.4350   -8.0437    1.3094 C   0  0  0  0  0  0  0  0  0  0  0  0
   11.4730   -8.0297   -1.2145 C   0  0  0  0  0  0  0  0  0  0  0  0
    8.6633   -7.8100    0.0074 N   0  0  0  0  0  0  0  0  0  0  0  0
    8.7965   -8.8112    0.0039 H   0  0  0  0  0  0  0  0  0  0  0  0
    7.4010   -7.3124   -0.0087 N   0  0  0  0  0  0  0  0  0  0  0  0
    0.1516   -6.2230   -0.0964 S   0  0  0  0  0  0  0  0  0  0  0  0
   -2.6013   -3.6716   -0.1157 H   0  0  0  0  0  0  0  0  0  0  0  0
   -2.6540   -5.2228    0.7634 H   0  0  0  0  0  0  0  0  0  0  0  0
   -2.6336   -5.2148   -1.0098 H   0  0  0  0  0  0  0  0  0  0  0  0
   -0.2288   -2.6026   -0.0821 H   0  0  0  0  0  0  0  0  0  0  0  0
    2.3304   -3.2933   -0.0557 H   0  0  0  0  0  0  0  0  0  0  0  0
    2.9411   -7.1863   -0.0681 H   0  0  0  0  0  0  0  0  0  0  0  0
    5.3300   -6.9516   -0.0362 H   0  0  0  0  0  0  0  0  0  0  0  0
    9.4432   -4.6400    0.0356 H   0  0  0  0  0  0  0  0  0  0  0  0
   11.7598   -5.3174    0.9579 H   0  0  0  0  0  0  0  0  0  0  0  0
   11.7876   -5.3079   -0.8230 H   0  0  0  0  0  0  0  0  0  0  0  0
   13.0482   -6.1825    0.0827 H   0  0  0  0  0  0  0  0  0  0  0  0
   11.2010   -7.4770    2.2239 H   0  0  0  0  0  0  0  0  0  0  0  0
   12.5015   -8.3216    1.3386 H   0  0  0  0  0  0  0  0  0  0  0  0
   10.8485   -8.9764    1.3364 H   0  0  0  0  0  0  0  0  0  0  0  0
   11.2674   -7.4523   -2.1292 H   0  0  0  0  0  0  0  0  0  0  0  0
   10.8866   -8.9612   -1.2697 H   0  0  0  0  0  0  0  0  0  0  0  0
   12.5397   -8.3084   -1.2142 H   0  0  0  0  0  0  0  0  0  0  0  0
  1  2  1  0
  1 22  1  0
  1 23  1  0
  1 24  1  0
  2  3  2  0
  2 21  1  0
  3  4  1  0
  3 25  1  0
  4  5  2  0
  4 26  1  0
  5  6  1  0
  5 21  1  0
  6  7  2  0
  6 27  1  0
  7  8  1  0
  8  9  1  0
  8 28  1  0
  9 10  2  0
  9 11  1  0
 11 12  1  0
 11 20  2  0
 12 13  2  0
 12 29  1  0
 13 14  1  0
 13 18  1  0
 14 15  1  1
 14 16  1  0
 14 17  1  0
 15 30  1  0
 15 31  1  0
 15 32  1  0
 16 33  1  0
 16 34  1  0
 16 35  1  0
 17 36  1  0
 17 37  1  0
 17 38  1  0
 18 19  1  0
 18 20  1  0
M  END

