
     RDKit          3D

 32 34  0  0  0  0  0  0  0  0999 V2000
    1.1806   -0.1405   -0.6870 N   0  0  0  0  0  0  0  0  0  0  0  0
    2.4151    0.1854    0.0214 C   0  0  0  0  0  0  0  0  0  0  0  0
    2.7689   -0.8620    1.0593 C   0  0  0  0  0  0  0  0  0  0  0  0
    2.5347   -2.2275    0.8203 C   0  0  0  0  0  0  0  0  0  0  0  0
    2.8935   -3.1970    1.7512 C   0  0  0  0  0  0  0  0  0  0  0  0
    3.5143   -2.8367    2.9657 C   0  0  0  0  0  0  0  0  0  0  0  0
    3.7510   -1.4633    3.2245 C   0  0  0  0  0  0  0  0  0  0  0  0
    3.3718   -0.5109    2.2719 C   0  0  0  0  0  0  0  0  0  0  0  0
    4.4290   -1.0725    4.5221 C   0  0  1  0  0  0  0  0  0  0  0  0
    4.1291   -0.0541    4.8097 H   0  0  0  0  0  0  0  0  0  0  0  0
    4.0773   -2.0896    5.6124 C   0  0  0  0  0  0  0  0  0  0  0  0
    4.5846   -3.4498    5.1201 C   0  0  1  0  0  0  0  0  0  0  0  0
    4.3956   -4.2298    5.8743 H   0  0  0  0  0  0  0  0  0  0  0  0
    3.8694   -3.7912    3.9026 N   0  0  0  0  0  0  0  0  0  0  0  0
    6.1278   -3.3602    4.9135 C   0  0  2  0  0  0  0  0  0  0  0  0
    6.4867   -4.3109    4.4822 H   0  0  0  0  0  0  0  0  0  0  0  0
    6.7802   -3.2021    6.1604 O   0  0  0  0  0  0  0  0  0  0  0  0
    6.4643   -2.2097    3.9623 C   0  0  0  0  0  0  0  0  0  0  0  0
    5.8667   -0.9991    4.4043 O   0  0  0  0  0  0  0  0  0  0  0  0
    1.0043    0.5350   -1.4301 H   0  0  0  0  0  0  0  0  0  0  0  0
    0.3840   -0.0953   -0.0502 H   0  0  0  0  0  0  0  0  0  0  0  0
    2.4137    1.1804    0.5167 H   0  0  0  0  0  0  0  0  0  0  0  0
    3.2207    0.2332   -0.7360 H   0  0  0  0  0  0  0  0  0  0  0  0
    2.0455   -2.5175   -0.1123 H   0  0  0  0  0  0  0  0  0  0  0  0
    2.6942   -4.2531    1.5448 H   0  0  0  0  0  0  0  0  0  0  0  0
    3.5603    0.5454    2.4930 H   0  0  0  0  0  0  0  0  0  0  0  0
    2.9899   -2.1219    5.7844 H   0  0  0  0  0  0  0  0  0  0  0  0
    4.5652   -1.8241    6.5613 H   0  0  0  0  0  0  0  0  0  0  0  0
    3.8379   -4.7616    3.6196 H   0  0  0  0  0  0  0  0  0  0  0  0
    6.7909   -2.2543    6.3575 H   0  0  0  0  0  0  0  0  0  0  0  0
    6.1577   -2.4523    2.9286 H   0  0  0  0  0  0  0  0  0  0  0  0
    7.5518   -2.0380    3.9631 H   0  0  0  0  0  0  0  0  0  0  0  0
  1  2  1  0
  1 20  1  0
  1 21  1  0
  2  3  1  0
  2 22  1  0
  2 23  1  0
  3  4  2  0
  3  8  1  0
  4  5  1  0
  4 24  1  0
  5  6  2  0
  5 25  1  0
  6  7  1  0
  6 14  1  0
  7  8  2  0
  7  9  1  0
  8 26  1  0
  9 10  1  1
  9 11  1  0
  9 19  1  0
 11 12  1  0
 11 27  1  0
 11 28  1  0
 12 13  1  1
 12 14  1  0
 12 15  1  0
 14 29  1  0
 15 16  1  6
 15 17  1  0
 15 18  1  0
 17 30  1  0
 18 19  1  0
 18 31  1  0
 18 32  1  0
M  END

