
     RDKit          3D

 34 35  0  0  0  0  0  0  0  0999 V2000
    5.3551    3.2956    3.6006 O   0  0  0  0  0  0  0  0  0  0  0  0
    5.6439    2.5016    2.5420 C   0  0  0  0  0  0  0  0  0  0  0  0
    5.0332    2.7312    1.2869 C   0  0  0  0  0  0  0  0  0  0  0  0
    5.3798    1.8746    0.1959 C   0  0  0  0  0  0  0  0  0  0  0  0
    6.3007    0.8173    0.4202 C   0  0  0  0  0  0  0  0  0  0  0  0
    6.5944    0.0165   -0.6711 N   0  0  0  0  0  0  0  0  0  0  0  0
    7.4508   -1.1548   -0.7184 C   0  0  1  0  0  0  0  0  0  0  0  0
    6.6415   -2.4138   -0.3274 C   0  0  0  0  0  0  0  0  0  0  0  0
    7.3868   -3.7549   -0.3848 C   0  0  0  0  0  0  0  0  0  0  0  0
    7.7003   -4.2465   -1.8073 C   0  0  0  0  0  0  0  0  0  0  0  0
    8.9725   -3.6769   -2.4640 C   0  0  0  0  0  0  0  0  0  0  0  0
    9.3166   -2.2089   -2.1531 C   0  0  0  0  0  0  0  0  0  0  0  0
    8.1429   -1.2172   -2.0951 C   0  0  0  0  0  0  0  0  0  0  0  0
    6.8991    0.5855    1.6816 C   0  0  0  0  0  0  0  0  0  0  0  0
    6.5688    1.4586    2.7657 C   0  0  0  0  0  0  0  0  0  0  0  0
    4.7249    3.9730    3.3172 H   0  0  0  0  0  0  0  0  0  0  0  0
    4.3112    3.5423    1.1643 H   0  0  0  0  0  0  0  0  0  0  0  0
    4.9689    2.0396   -0.8028 H   0  0  0  0  0  0  0  0  0  0  0  0
    6.0574    0.2108   -1.5120 H   0  0  0  0  0  0  0  0  0  0  0  0
    8.2383   -1.0014    0.0358 H   0  0  0  0  0  0  0  0  0  0  0  0
    5.7537   -2.4723   -0.9837 H   0  0  0  0  0  0  0  0  0  0  0  0
    6.2613   -2.2399    0.6922 H   0  0  0  0  0  0  0  0  0  0  0  0
    6.7423   -4.5007    0.1095 H   0  0  0  0  0  0  0  0  0  0  0  0
    8.3080   -3.7113    0.2244 H   0  0  0  0  0  0  0  0  0  0  0  0
    6.8240   -4.0259   -2.4428 H   0  0  0  0  0  0  0  0  0  0  0  0
    7.7834   -5.3461   -1.8033 H   0  0  0  0  0  0  0  0  0  0  0  0
    8.8804   -3.8052   -3.5566 H   0  0  0  0  0  0  0  0  0  0  0  0
    9.8409   -4.2913   -2.1695 H   0  0  0  0  0  0  0  0  0  0  0  0
   10.0364   -1.8607   -2.9117 H   0  0  0  0  0  0  0  0  0  0  0  0
    9.8597   -2.1495   -1.1938 H   0  0  0  0  0  0  0  0  0  0  0  0
    7.4002   -1.4434   -2.8832 H   0  0  0  0  0  0  0  0  0  0  0  0
    8.5231   -0.2052   -2.3092 H   0  0  0  0  0  0  0  0  0  0  0  0
    7.5783   -0.2503    1.8414 H   0  0  0  0  0  0  0  0  0  0  0  0
    7.0065    1.3406    3.7564 H   0  0  0  0  0  0  0  0  0  0  0  0
  1  2  1  0
  1 16  1  0
  2  3  2  0
  2 15  1  0
  3  4  1  0
  3 17  1  0
  4  5  2  0
  4 18  1  0
  5  6  1  0
  5 14  1  0
  6  7  1  0
  6 19  1  0
  7  8  1  0
  7 13  1  0
  7 20  1  1
  8  9  1  0
  8 21  1  0
  8 22  1  0
  9 10  1  0
  9 23  1  0
  9 24  1  0
 10 11  1  0
 10 25  1  0
 10 26  1  0
 11 12  1  0
 11 27  1  0
 11 28  1  0
 12 13  1  0
 12 29  1  0
 12 30  1  0
 13 31  1  0
 13 32  1  0
 14 15  2  0
 14 33  1  0
 15 34  1  0
M  END

