
     RDKit          3D

 57 58  0  0  0  0  0  0  0  0999 V2000
    0.8463    1.8077    2.4785 C   0  0  0  0  0  0  0  0  0  0  0  0
    1.7823    1.8692    1.2659 C   0  0  0  0  0  0  0  0  0  0  0  0
    2.6707    0.7163    1.1137 N   0  0  0  0  0  0  0  0  0  0  0  0
    2.1769   -0.3320    0.2309 C   0  0  0  0  0  0  0  0  0  0  0  0
    0.9342   -1.0723    0.7282 C   0  0  0  0  0  0  0  0  0  0  0  0
    4.1078    0.9795    0.9797 C   0  0  1  0  0  0  0  0  0  0  0  0
    4.5531    1.6482   -0.3531 C   0  0  0  0  0  0  0  0  0  0  0  0
    4.2400    3.0586   -0.5166 N   0  0  0  0  0  0  0  0  0  0  0  0
    5.1652    4.0455   -0.3127 C   0  0  0  0  0  0  0  0  0  0  0  0
    6.2973    3.8099    0.0887 O   0  0  0  0  0  0  0  0  0  0  0  0
    4.7102    5.4568   -0.5917 C   0  0  0  0  0  0  0  0  0  0  0  0
    5.4479    6.4775    0.0142 C   0  0  0  0  0  0  0  0  0  0  0  0
    5.0995    7.8204   -0.1894 C   0  0  0  0  0  0  0  0  0  0  0  0
    5.7552    8.8581    0.3673 O   0  0  0  0  0  0  0  0  0  0  0  0
    6.8733    8.6117    1.1954 C   0  0  0  0  0  0  0  0  0  0  0  0
    4.0036    8.1296   -1.0209 C   0  0  0  0  0  0  0  0  0  0  0  0
    3.5244    9.9381   -1.3081 Br  0  0  0  0  0  0  0  0  0  0  0  0
    3.2707    7.1046   -1.6509 C   0  0  0  0  0  0  0  0  0  0  0  0
    2.2524    7.4880   -2.4512 O   0  0  0  0  0  0  0  0  0  0  0  0
    1.4789    6.5157   -3.1167 C   0  0  0  0  0  0  0  0  0  0  0  0
    3.6301    5.7647   -1.4308 C   0  0  0  0  0  0  0  0  0  0  0  0
    4.7155    1.6954    2.2037 C   0  0  0  0  0  0  0  0  0  0  0  0
    4.6259    0.9364    3.5124 C   0  0  0  0  0  0  0  0  0  0  0  0
    5.1814   -0.3474    3.6481 C   0  0  0  0  0  0  0  0  0  0  0  0
    5.1278   -1.0341    4.8631 C   0  0  0  0  0  0  0  0  0  0  0  0
    4.5198   -0.4473    5.9778 C   0  0  0  0  0  0  0  0  0  0  0  0
    3.9726    0.8327    5.8635 C   0  0  0  0  0  0  0  0  0  0  0  0
    4.0281    1.5139    4.6430 C   0  0  0  0  0  0  0  0  0  0  0  0
    0.2537    2.7354    2.5514 H   0  0  0  0  0  0  0  0  0  0  0  0
    1.4269    1.6913    3.4053 H   0  0  0  0  0  0  0  0  0  0  0  0
    0.1439    0.9647    2.4210 H   0  0  0  0  0  0  0  0  0  0  0  0
    2.3919    2.7794    1.3621 H   0  0  0  0  0  0  0  0  0  0  0  0
    1.1763    2.0140    0.3433 H   0  0  0  0  0  0  0  0  0  0  0  0
    2.9879   -1.0694    0.1120 H   0  0  0  0  0  0  0  0  0  0  0  0
    1.9637    0.0536   -0.7955 H   0  0  0  0  0  0  0  0  0  0  0  0
    1.0916   -1.4569    1.7478 H   0  0  0  0  0  0  0  0  0  0  0  0
    0.7163   -1.9232    0.0625 H   0  0  0  0  0  0  0  0  0  0  0  0
    0.0400   -0.4309    0.7366 H   0  0  0  0  0  0  0  0  0  0  0  0
    4.5767   -0.0187    0.9356 H   0  0  0  0  0  0  0  0  0  0  0  0
    4.1095    1.0920   -1.1955 H   0  0  0  0  0  0  0  0  0  0  0  0
    5.6458    1.5618   -0.4393 H   0  0  0  0  0  0  0  0  0  0  0  0
    3.2942    3.3216   -0.7579 H   0  0  0  0  0  0  0  0  0  0  0  0
    6.2958    6.1895    0.6328 H   0  0  0  0  0  0  0  0  0  0  0  0
    7.2381    9.5955    1.5185 H   0  0  0  0  0  0  0  0  0  0  0  0
    7.6784    8.0887    0.6505 H   0  0  0  0  0  0  0  0  0  0  0  0
    6.6004    8.0180    2.0854 H   0  0  0  0  0  0  0  0  0  0  0  0
    0.7211    7.0642   -3.6915 H   0  0  0  0  0  0  0  0  0  0  0  0
    0.9686    5.8394   -2.4073 H   0  0  0  0  0  0  0  0  0  0  0  0
    2.0872    5.9116   -3.8135 H   0  0  0  0  0  0  0  0  0  0  0  0
    3.0918    4.9745   -1.9521 H   0  0  0  0  0  0  0  0  0  0  0  0
    4.2578    2.6892    2.3283 H   0  0  0  0  0  0  0  0  0  0  0  0
    5.7730    1.8998    1.9675 H   0  0  0  0  0  0  0  0  0  0  0  0
    5.6732   -0.8180    2.7917 H   0  0  0  0  0  0  0  0  0  0  0  0
    5.5683   -2.0318    4.9420 H   0  0  0  0  0  0  0  0  0  0  0  0
    4.4781   -0.9831    6.9295 H   0  0  0  0  0  0  0  0  0  0  0  0
    3.5001    1.3065    6.7282 H   0  0  0  0  0  0  0  0  0  0  0  0
    3.6026    2.5188    4.5682 H   0  0  0  0  0  0  0  0  0  0  0  0
  1  2  1  0
  1 29  1  0
  1 30  1  0
  1 31  1  0
  2  3  1  0
  2 32  1  0
  2 33  1  0
  3  4  1  0
  3  6  1  0
  4  5  1  0
  4 34  1  0
  4 35  1  0
  5 36  1  0
  5 37  1  0
  5 38  1  0
  6  7  1  0
  6 22  1  0
  6 39  1  6
  7  8  1  0
  7 40  1  0
  7 41  1  0
  8  9  1  0
  8 42  1  0
  9 10  2  0
  9 11  1  0
 11 12  2  0
 11 21  1  0
 12 13  1  0
 12 43  1  0
 13 14  1  0
 13 16  2  0
 14 15  1  0
 15 44  1  0
 15 45  1  0
 15 46  1  0
 16 17  1  0
 16 18  1  0
 18 19  1  0
 18 21  2  0
 19 20  1  0
 20 47  1  0
 20 48  1  0
 20 49  1  0
 21 50  1  0
 22 23  1  0
 22 51  1  0
 22 52  1  0
 23 24  2  0
 23 28  1  0
 24 25  1  0
 24 53  1  0
 25 26  2  0
 25 54  1  0
 26 27  1  0
 26 55  1  0
 27 28  2  0
 27 56  1  0
 28 57  1  0
M  END

