
     RDKit          3D

 54 56  0  0  0  0  0  0  0  0999 V2000
    2.5576   -0.5691   -4.3392 C   0  0  0  0  0  0  0  0  0  0  0  0
    2.6947   -1.7185   -3.3395 C   0  0  0  0  0  0  0  0  0  0  0  0
    3.7435   -1.4463   -2.2563 C   0  0  0  0  0  0  0  0  0  0  0  0
    3.8600   -2.6067   -1.2617 C   0  0  0  0  0  0  0  0  0  0  0  0
    4.8900   -2.3565   -0.2294 N   0  0  0  0  0  0  0  0  0  0  0  0
    4.4630   -1.6679    0.9446 C   0  0  0  0  0  0  0  0  0  0  0  0
    5.4046   -1.6534    2.1246 C   0  0  0  0  0  0  0  0  0  0  0  0
    3.3531   -1.1864    0.9702 O   0  0  0  0  0  0  0  0  0  0  0  0
    6.1584   -2.8319   -0.4309 C   0  0  0  0  0  0  0  0  0  0  0  0
    6.6361   -4.1654   -0.6712 C   0  0  0  0  0  0  0  0  0  0  0  0
    5.8117   -5.4177   -0.7729 C   0  0  0  0  0  0  0  0  0  0  0  0
    6.5792   -6.6849   -0.3919 C   0  0  0  0  0  0  0  0  0  0  0  0
    7.9609   -4.1613   -0.6935 N   0  0  0  0  0  0  0  0  0  0  0  0
    8.3712   -2.8595   -0.5411 C   0  0  0  0  0  0  0  0  0  0  0  0
    9.6932   -2.3215   -0.6095 C   0  0  0  0  0  0  0  0  0  0  0  0
    9.8318   -0.9455   -0.5075 C   0  0  0  0  0  0  0  0  0  0  0  0
    8.7302   -0.0680   -0.3304 C   0  0  0  0  0  0  0  0  0  0  0  0
    8.8137    1.3910   -0.2696 C   0  0  0  0  0  0  0  0  0  0  0  0
    7.7928    2.0924   -0.2932 O   0  0  0  0  0  0  0  0  0  0  0  0
   10.0835    1.9697   -0.2102 N   0  0  0  0  0  0  0  0  0  0  0  0
   10.1958    3.4060   -0.0035 C   0  0  0  0  0  0  0  0  0  0  0  0
   10.1002    3.8485    1.4380 C   0  0  0  0  0  0  0  0  0  0  0  0
    8.9757    3.9418    2.2257 C   0  0  0  0  0  0  0  0  0  0  0  0
    9.2605    4.3445    3.5659 C   0  0  0  0  0  0  0  0  0  0  0  0
   10.5996    4.5507    3.7880 C   0  0  0  0  0  0  0  0  0  0  0  0
   11.5263    4.2546    2.3571 S   0  0  0  0  0  0  0  0  0  0  0  0
    7.4203   -0.6457   -0.2784 C   0  0  0  0  0  0  0  0  0  0  0  0
    7.3230   -2.0230   -0.3650 N   0  0  0  0  0  0  0  0  0  0  0  0
    1.7968   -0.7920   -5.1036 H   0  0  0  0  0  0  0  0  0  0  0  0
    3.5095   -0.3759   -4.8608 H   0  0  0  0  0  0  0  0  0  0  0  0
    2.2619    0.3654   -3.8350 H   0  0  0  0  0  0  0  0  0  0  0  0
    2.9549   -2.6482   -3.8784 H   0  0  0  0  0  0  0  0  0  0  0  0
    1.7178   -1.9097   -2.8600 H   0  0  0  0  0  0  0  0  0  0  0  0
    3.4793   -0.5323   -1.7006 H   0  0  0  0  0  0  0  0  0  0  0  0
    4.7281   -1.2659   -2.7223 H   0  0  0  0  0  0  0  0  0  0  0  0
    4.1315   -3.5317   -1.7897 H   0  0  0  0  0  0  0  0  0  0  0  0
    2.9035   -2.7662   -0.7466 H   0  0  0  0  0  0  0  0  0  0  0  0
    5.8957   -2.6279    2.2668 H   0  0  0  0  0  0  0  0  0  0  0  0
    4.8177   -1.3908    3.0130 H   0  0  0  0  0  0  0  0  0  0  0  0
    6.1925   -0.8979    1.9810 H   0  0  0  0  0  0  0  0  0  0  0  0
    5.4379   -5.5170   -1.8103 H   0  0  0  0  0  0  0  0  0  0  0  0
    4.9097   -5.3079   -0.1464 H   0  0  0  0  0  0  0  0  0  0  0  0
    7.4754   -6.8012   -1.0175 H   0  0  0  0  0  0  0  0  0  0  0  0
    5.9429   -7.5738   -0.5192 H   0  0  0  0  0  0  0  0  0  0  0  0
    6.9148   -6.6463    0.6559 H   0  0  0  0  0  0  0  0  0  0  0  0
   10.5323   -2.9945   -0.7733 H   0  0  0  0  0  0  0  0  0  0  0  0
   10.8356   -0.5239   -0.6049 H   0  0  0  0  0  0  0  0  0  0  0  0
   10.8193    1.4140    0.2104 H   0  0  0  0  0  0  0  0  0  0  0  0
    9.3743    3.8678   -0.5677 H   0  0  0  0  0  0  0  0  0  0  0  0
   11.1446    3.7533   -0.4433 H   0  0  0  0  0  0  0  0  0  0  0  0
    7.9836    3.7105    1.8350 H   0  0  0  0  0  0  0  0  0  0  0  0
    8.4994    4.4822    4.3363 H   0  0  0  0  0  0  0  0  0  0  0  0
   11.0914    4.8694    4.7060 H   0  0  0  0  0  0  0  0  0  0  0  0
    6.5151   -0.0482   -0.2557 H   0  0  0  0  0  0  0  0  0  0  0  0
  1  2  1  0
  1 29  1  0
  1 30  1  0
  1 31  1  0
  2  3  1  0
  2 32  1  0
  2 33  1  0
  3  4  1  0
  3 34  1  0
  3 35  1  0
  4  5  1  0
  4 36  1  0
  4 37  1  0
  5  6  1  0
  5  9  1  0
  6  7  1  0
  6  8  2  0
  7 38  1  0
  7 39  1  0
  7 40  1  0
  9 10  2  0
  9 28  1  0
 10 11  1  0
 10 13  1  0
 11 12  1  0
 11 41  1  0
 11 42  1  0
 12 43  1  0
 12 44  1  0
 12 45  1  0
 13 14  2  0
 14 15  1  0
 14 28  1  0
 15 16  2  0
 15 46  1  0
 16 17  1  0
 16 47  1  0
 17 18  1  0
 17 27  2  0
 18 19  2  0
 18 20  1  0
 20 21  1  0
 20 48  1  0
 21 22  1  0
 21 49  1  0
 21 50  1  0
 22 23  2  0
 22 26  1  0
 23 24  1  0
 23 51  1  0
 24 25  2  0
 24 52  1  0
 25 26  1  0
 25 53  1  0
 27 28  1  0
 27 54  1  0
M  END

