
     RDKit          3D

 31 31  0  0  0  0  0  0  0  0999 V2000
    1.1754    0.6189   -0.1203 C   0  0  0  0  0  0  0  0  0  0  0  0
    2.6579    0.2454   -0.0803 C   0  0  0  0  0  0  0  0  0  0  0  0
    3.0497   -0.6834    1.0790 C   0  0  1  0  0  0  0  0  0  0  0  0
    2.3052   -2.0502    1.0545 C   0  0  0  0  0  0  0  0  0  0  0  0
    2.4760   -2.8101   -0.1873 C   0  0  0  0  0  0  0  0  0  0  0  0
    2.5984   -3.4132   -1.1688 N   0  0  0  0  0  0  0  0  0  0  0  0
    4.5709   -0.9153    1.1109 C   0  0  0  0  0  0  0  0  0  0  0  0
    5.2348   -0.7472    0.1064 O   0  0  0  0  0  0  0  0  0  0  0  0
    5.2196   -1.3766    2.3818 C   0  0  0  0  0  0  0  0  0  0  0  0
    6.5689   -1.7578    2.3279 C   0  0  0  0  0  0  0  0  0  0  0  0
    7.2474   -2.1950    3.4652 C   0  0  0  0  0  0  0  0  0  0  0  0
    6.5901   -2.2594    4.7047 C   0  0  0  0  0  0  0  0  0  0  0  0
    7.1362   -2.6618    5.8654 O   0  0  0  0  0  0  0  0  0  0  0  0
    8.4906   -3.0684    5.8897 C   0  0  0  0  0  0  0  0  0  0  0  0
    5.2338   -1.8683    4.7539 C   0  0  0  0  0  0  0  0  0  0  0  0
    4.6000   -1.9179    5.9310 F   0  0  0  0  0  0  0  0  0  0  0  0
    4.5582   -1.4386    3.6262 C   0  0  0  0  0  0  0  0  0  0  0  0
    0.9835    1.3510   -0.9200 H   0  0  0  0  0  0  0  0  0  0  0  0
    0.8414    1.0729    0.8286 H   0  0  0  0  0  0  0  0  0  0  0  0
    0.5283   -0.2499   -0.3226 H   0  0  0  0  0  0  0  0  0  0  0  0
    3.2672    1.1600    0.0038 H   0  0  0  0  0  0  0  0  0  0  0  0
    2.9648   -0.2227   -1.0287 H   0  0  0  0  0  0  0  0  0  0  0  0
    2.7521   -0.2060    2.0277 H   0  0  0  0  0  0  0  0  0  0  0  0
    1.2259   -1.8840    1.2018 H   0  0  0  0  0  0  0  0  0  0  0  0
    2.6383   -2.6859    1.8907 H   0  0  0  0  0  0  0  0  0  0  0  0
    7.0790   -1.7038    1.3648 H   0  0  0  0  0  0  0  0  0  0  0  0
    8.2943   -2.4880    3.3854 H   0  0  0  0  0  0  0  0  0  0  0  0
    8.7095   -3.3506    6.9275 H   0  0  0  0  0  0  0  0  0  0  0  0
    9.1668   -2.2492    5.5882 H   0  0  0  0  0  0  0  0  0  0  0  0
    8.6653   -3.9395    5.2344 H   0  0  0  0  0  0  0  0  0  0  0  0
    3.5157   -1.1443    3.7538 H   0  0  0  0  0  0  0  0  0  0  0  0
  1  2  1  0
  1 18  1  0
  1 19  1  0
  1 20  1  0
  2  3  1  0
  2 21  1  0
  2 22  1  0
  3  4  1  0
  3  7  1  0
  3 23  1  1
  4  5  1  0
  4 24  1  0
  4 25  1  0
  5  6  3  0
  7  8  2  0
  7  9  1  0
  9 10  2  0
  9 17  1  0
 10 11  1  0
 10 26  1  0
 11 12  2  0
 11 27  1  0
 12 13  1  0
 12 15  1  0
 13 14  1  0
 14 28  1  0
 14 29  1  0
 14 30  1  0
 15 16  1  0
 15 17  2  0
 17 31  1  0
M  END

