
     RDKit          3D

 31 32  0  0  0  0  0  0  0  0999 V2000
    0.8973    0.0232   -0.1441 N   0  0  0  0  0  0  0  0  0  0  0  0
    2.3004   -0.0402   -0.0162 N   0  0  0  0  0  0  0  0  0  0  0  0
    2.8220    0.8005    1.0642 C   0  0  1  0  0  0  0  0  0  0  0  0
    2.2331    0.3605    2.4416 C   0  0  0  0  0  0  0  0  0  0  0  0
    2.6519   -1.0079    2.9112 C   0  0  0  0  0  0  0  0  0  0  0  0
    1.9692   -2.1738    2.5226 C   0  0  0  0  0  0  0  0  0  0  0  0
    2.3819   -3.4343    2.9573 C   0  0  0  0  0  0  0  0  0  0  0  0
    3.4938   -3.5648    3.7966 C   0  0  0  0  0  0  0  0  0  0  0  0
    4.1762   -2.4196    4.1900 C   0  0  0  0  0  0  0  0  0  0  0  0
    5.2401   -2.5051    4.9971 F   0  0  0  0  0  0  0  0  0  0  0  0
    3.7608   -1.1595    3.7493 C   0  0  0  0  0  0  0  0  0  0  0  0
    4.4498   -0.0820    4.1588 F   0  0  0  0  0  0  0  0  0  0  0  0
    4.3272    0.7904    0.9845 C   0  0  0  0  0  0  0  0  0  0  0  0
    5.0827    1.9342    1.5019 C   0  0  0  0  0  0  0  0  0  0  0  0
    6.3602    1.7851    1.5816 N   0  0  0  0  0  0  0  0  0  0  0  0
    7.1928    0.7867    1.3354 C   0  0  0  0  0  0  0  0  0  0  0  0
    6.4728   -0.3989    0.8390 C   0  0  0  0  0  0  0  0  0  0  0  0
    7.5366   -1.8713    0.3088 Br  0  0  0  0  0  0  0  0  0  0  0  0
    5.1047   -0.3632    0.6941 C   0  0  0  0  0  0  0  0  0  0  0  0
    0.5629   -0.8292   -0.5904 H   0  0  0  0  0  0  0  0  0  0  0  0
    0.5860    0.8205   -0.7093 H   0  0  0  0  0  0  0  0  0  0  0  0
    2.7912    0.2080   -0.8790 H   0  0  0  0  0  0  0  0  0  0  0  0
    2.4890    1.8582    0.9430 H   0  0  0  0  0  0  0  0  0  0  0  0
    1.1377    0.3967    2.3490 H   0  0  0  0  0  0  0  0  0  0  0  0
    2.5341    1.1151    3.1831 H   0  0  0  0  0  0  0  0  0  0  0  0
    1.0991   -2.0719    1.8717 H   0  0  0  0  0  0  0  0  0  0  0  0
    1.8355   -4.3272    2.6447 H   0  0  0  0  0  0  0  0  0  0  0  0
    3.8421   -4.5353    4.1556 H   0  0  0  0  0  0  0  0  0  0  0  0
    4.6222    2.8661    1.8412 H   0  0  0  0  0  0  0  0  0  0  0  0
    8.2705    0.9058    1.3945 H   0  0  0  0  0  0  0  0  0  0  0  0
    4.5822   -1.2514    0.3318 H   0  0  0  0  0  0  0  0  0  0  0  0
  1  2  1  0
  1 20  1  0
  1 21  1  0
  2  3  1  0
  2 22  1  0
  3  4  1  0
  3 13  1  0
  3 23  1  6
  4  5  1  0
  4 24  1  0
  4 25  1  0
  5  6  2  0
  5 11  1  0
  6  7  1  0
  6 26  1  0
  7  8  2  0
  7 27  1  0
  8  9  1  0
  8 28  1  0
  9 10  1  0
  9 11  2  0
 11 12  1  0
 13 14  2  0
 13 19  1  0
 14 15  1  0
 14 29  1  0
 15 16  2  0
 16 17  1  0
 16 30  1  0
 17 18  1  0
 17 19  2  0
 19 31  1  0
M  END

