
     RDKit          3D

 49 51  0  0  0  0  0  0  0  0999 V2000
   10.1698    1.7378   -0.3511 C   0  0  0  0  0  0  0  0  0  0  0  0
    8.7692    1.5269   -0.9251 C   0  0  0  0  0  0  0  0  0  0  0  0
    7.6992    1.3938    0.1789 C   0  0  0  0  0  0  0  0  0  0  0  0
    6.3060    1.2091   -0.3298 C   0  0  0  0  0  0  0  0  0  0  0  0
    5.2807    2.1383   -0.5761 C   0  0  0  0  0  0  0  0  0  0  0  0
    5.2568    3.5879   -0.3897 C   0  0  0  0  0  0  0  0  0  0  0  0
    6.1321    4.3209   -0.0140 O   0  0  0  0  0  0  0  0  0  0  0  0
    3.9499    4.1245   -0.7335 N   0  0  0  0  0  0  0  0  0  0  0  0
    3.7157    5.3944   -0.6592 N   0  0  0  0  0  0  0  0  0  0  0  0
    2.5478    5.8817   -0.9755 C   0  0  0  0  0  0  0  0  0  0  0  0
    2.3404    7.3062   -0.8725 C   0  0  0  0  0  0  0  0  0  0  0  0
    3.4064    8.1568   -0.4321 C   0  0  0  0  0  0  0  0  0  0  0  0
    3.2161    9.5188   -0.3319 C   0  0  0  0  0  0  0  0  0  0  0  0
    1.9727   10.0915   -0.6610 C   0  0  0  0  0  0  0  0  0  0  0  0
    1.7204   11.3941   -0.5881 O   0  0  0  0  0  0  0  0  0  0  0  0
    0.8871    9.2488   -1.1060 C   0  0  0  0  0  0  0  0  0  0  0  0
   -0.2392    9.8941   -1.3881 O   0  0  0  0  0  0  0  0  0  0  0  0
   -1.3975    9.1769   -1.8412 C   0  0  0  0  0  0  0  0  0  0  0  0
   -2.5062   10.1795   -2.0789 C   0  0  0  0  0  0  0  0  0  0  0  0
    1.0929    7.8743   -1.2027 C   0  0  0  0  0  0  0  0  0  0  0  0
    4.1755    1.5139   -1.0332 N   0  0  0  0  0  0  0  0  0  0  0  0
    4.4116    0.2308   -1.1214 N   0  0  0  0  0  0  0  0  0  0  0  0
    5.7153    0.0163   -0.6890 N   0  0  0  0  0  0  0  0  0  0  0  0
    6.2338   -1.2663   -0.6672 C   0  0  0  0  0  0  0  0  0  0  0  0
    7.5327   -1.5391   -0.4277 N   0  0  0  0  0  0  0  0  0  0  0  0
    7.6139   -2.9207   -0.5714 O   0  0  0  0  0  0  0  0  0  0  0  0
    6.3811   -3.4812   -0.9114 N   0  0  0  0  0  0  0  0  0  0  0  0
    5.5366   -2.4789   -0.9652 C   0  0  0  0  0  0  0  0  0  0  0  0
    4.1903   -2.6268   -1.2108 N   0  0  0  0  0  0  0  0  0  0  0  0
   10.9210    1.8329   -1.1517 H   0  0  0  0  0  0  0  0  0  0  0  0
   10.4669    0.8869    0.2836 H   0  0  0  0  0  0  0  0  0  0  0  0
   10.2226    2.6506    0.2670 H   0  0  0  0  0  0  0  0  0  0  0  0
    8.7530    0.6096   -1.5335 H   0  0  0  0  0  0  0  0  0  0  0  0
    8.5013    2.3676   -1.5888 H   0  0  0  0  0  0  0  0  0  0  0  0
    7.7093    2.3048    0.7975 H   0  0  0  0  0  0  0  0  0  0  0  0
    7.9658    0.5395    0.8173 H   0  0  0  0  0  0  0  0  0  0  0  0
    3.2598    3.4260   -1.0458 H   0  0  0  0  0  0  0  0  0  0  0  0
    1.7199    5.2411   -1.3168 H   0  0  0  0  0  0  0  0  0  0  0  0
    4.3625    7.6966   -0.1819 H   0  0  0  0  0  0  0  0  0  0  0  0
    4.0285   10.1690    0.0036 H   0  0  0  0  0  0  0  0  0  0  0  0
    2.5024   11.8786   -0.2822 H   0  0  0  0  0  0  0  0  0  0  0  0
   -1.6806    8.4354   -1.0740 H   0  0  0  0  0  0  0  0  0  0  0  0
   -1.1408    8.6321   -2.7664 H   0  0  0  0  0  0  0  0  0  0  0  0
   -2.7519   10.7185   -1.1519 H   0  0  0  0  0  0  0  0  0  0  0  0
   -3.4096    9.6573   -2.4278 H   0  0  0  0  0  0  0  0  0  0  0  0
   -2.2120   10.9143   -2.8428 H   0  0  0  0  0  0  0  0  0  0  0  0
    0.2871    7.2218   -1.5359 H   0  0  0  0  0  0  0  0  0  0  0  0
    3.9385   -3.4778   -1.6991 H   0  0  0  0  0  0  0  0  0  0  0  0
    3.7368   -1.7719   -1.5198 H   0  0  0  0  0  0  0  0  0  0  0  0
  1  2  1  0
  1 30  1  0
  1 31  1  0
  1 32  1  0
  2  3  1  0
  2 33  1  0
  2 34  1  0
  3  4  1  0
  3 35  1  0
  3 36  1  0
  4  5  2  0
  4 23  1  0
  5  6  1  0
  5 21  1  0
  6  7  2  0
  6  8  1  0
  8  9  1  0
  8 37  1  0
  9 10  2  0
 10 11  1  0
 10 38  1  0
 11 12  2  0
 11 20  1  0
 12 13  1  0
 12 39  1  0
 13 14  2  0
 13 40  1  0
 14 15  1  0
 14 16  1  0
 15 41  1  0
 16 17  1  0
 16 20  2  0
 17 18  1  0
 18 19  1  0
 18 42  1  0
 18 43  1  0
 19 44  1  0
 19 45  1  0
 19 46  1  0
 20 47  1  0
 21 22  2  0
 22 23  1  0
 23 24  1  0
 24 25  2  0
 24 28  1  0
 25 26  1  0
 26 27  1  0
 27 28  2  0
 28 29  1  0
 29 48  1  0
 29 49  1  0
M  END

