
     RDKit          3D

 80 84  0  0  0  0  0  0  0  0999 V2000
    0.7965    0.4096    0.4460 C   0  0  0  0  0  0  0  0  0  0  0  0
    2.2867    0.2741    0.0361 C   0  0  1  0  0  0  0  0  0  0  0  0
    2.3318   -0.8951   -0.9810 C   0  0  0  0  0  0  0  0  0  0  0  0
    2.5761   -0.7019   -2.3488 C   0  0  0  0  0  0  0  0  0  0  0  0
    2.5308   -1.7715   -3.2520 C   0  0  0  0  0  0  0  0  0  0  0  0
    2.2370   -3.0606   -2.8078 C   0  0  0  0  0  0  0  0  0  0  0  0
    1.9841   -3.2704   -1.4478 C   0  0  0  0  0  0  0  0  0  0  0  0
    2.0288   -2.2020   -0.5514 C   0  0  0  0  0  0  0  0  0  0  0  0
    2.8052    1.5907   -0.5930 C   0  0  0  0  0  0  0  0  0  0  0  0
    1.9669    2.6568   -0.9315 C   0  0  0  0  0  0  0  0  0  0  0  0
    2.4682    3.8327   -1.5083 C   0  0  0  0  0  0  0  0  0  0  0  0
    3.8353    3.9644   -1.7596 C   0  0  0  0  0  0  0  0  0  0  0  0
    4.4080    5.0661   -2.3164 O   0  0  0  0  0  0  0  0  0  0  0  0
    3.6250    6.2042   -2.6447 C   0  0  0  0  0  0  0  0  0  0  0  0
    4.5930    7.2428   -3.1864 C   0  0  0  0  0  0  0  0  0  0  0  0
    5.2855    6.7746   -4.3184 O   0  0  0  0  0  0  0  0  0  0  0  0
    4.7155    2.9054   -1.4352 C   0  0  0  0  0  0  0  0  0  0  0  0
    6.2009    3.0399   -1.7061 C   0  0  0  0  0  0  0  0  0  0  0  0
    6.9384    3.9940   -0.7759 C   0  0  0  0  0  0  0  0  0  0  0  0
    7.6118    5.1177   -1.2760 C   0  0  0  0  0  0  0  0  0  0  0  0
    8.3107    5.9779   -0.4228 C   0  0  0  0  0  0  0  0  0  0  0  0
    8.3460    5.7266    0.9513 C   0  0  0  0  0  0  0  0  0  0  0  0
    7.6754    4.6112    1.4641 C   0  0  0  0  0  0  0  0  0  0  0  0
    6.9776    3.7556    0.6076 C   0  0  0  0  0  0  0  0  0  0  0  0
    4.1792    1.7529   -0.8627 C   0  0  0  0  0  0  0  0  0  0  0  0
    3.1514   -0.0242    1.2890 C   0  0  0  0  0  0  0  0  0  0  0  0
    2.9019    0.6276    2.5030 C   0  0  0  0  0  0  0  0  0  0  0  0
    3.6982    0.4126    3.6328 C   0  0  0  0  0  0  0  0  0  0  0  0
    4.7863   -0.4643    3.5680 C   0  0  0  0  0  0  0  0  0  0  0  0
    5.6044   -0.7485    4.6160 O   0  0  0  0  0  0  0  0  0  0  0  0
    5.4705   -0.0586    5.8492 C   0  0  0  0  0  0  0  0  0  0  0  0
    6.6617   -0.4528    6.7065 C   0  0  0  0  0  0  0  0  0  0  0  0
    7.8801   -0.0141    6.1672 O   0  0  0  0  0  0  0  0  0  0  0  0
    5.0820   -1.1262    2.3561 C   0  0  0  0  0  0  0  0  0  0  0  0
    6.2659   -2.0689    2.2825 C   0  0  0  0  0  0  0  0  0  0  0  0
    7.6264   -1.4020    2.4320 C   0  0  0  0  0  0  0  0  0  0  0  0
    8.5744   -1.8984    3.3408 C   0  0  0  0  0  0  0  0  0  0  0  0
    9.8327   -1.2993    3.4712 C   0  0  0  0  0  0  0  0  0  0  0  0
   10.1639   -0.1873    2.6918 C   0  0  0  0  0  0  0  0  0  0  0  0
    9.2298    0.3159    1.7806 C   0  0  0  0  0  0  0  0  0  0  0  0
    7.9754   -0.2868    1.6541 C   0  0  0  0  0  0  0  0  0  0  0  0
    4.2574   -0.8942    1.2514 C   0  0  0  0  0  0  0  0  0  0  0  0
    0.1586    0.5149   -0.4433 H   0  0  0  0  0  0  0  0  0  0  0  0
    0.6179    1.2784    1.0949 H   0  0  0  0  0  0  0  0  0  0  0  0
    0.4681   -0.4893    0.9857 H   0  0  0  0  0  0  0  0  0  0  0  0
    2.8038    0.2966   -2.7233 H   0  0  0  0  0  0  0  0  0  0  0  0
    2.7273   -1.5877   -4.3117 H   0  0  0  0  0  0  0  0  0  0  0  0
    2.2035   -3.8958   -3.5122 H   0  0  0  0  0  0  0  0  0  0  0  0
    1.7498   -4.2736   -1.0815 H   0  0  0  0  0  0  0  0  0  0  0  0
    1.8327   -2.3904    0.5068 H   0  0  0  0  0  0  0  0  0  0  0  0
    0.8921    2.5978   -0.7601 H   0  0  0  0  0  0  0  0  0  0  0  0
    1.7751    4.6364   -1.7578 H   0  0  0  0  0  0  0  0  0  0  0  0
    3.0979    6.5880   -1.7516 H   0  0  0  0  0  0  0  0  0  0  0  0
    2.8743    5.9392   -3.4121 H   0  0  0  0  0  0  0  0  0  0  0  0
    5.2849    7.5397   -2.3724 H   0  0  0  0  0  0  0  0  0  0  0  0
    4.0282    8.1402   -3.4870 H   0  0  0  0  0  0  0  0  0  0  0  0
    5.6454    5.9083   -4.0807 H   0  0  0  0  0  0  0  0  0  0  0  0
    6.3556    3.3719   -2.7449 H   0  0  0  0  0  0  0  0  0  0  0  0
    6.6572    2.0394   -1.6263 H   0  0  0  0  0  0  0  0  0  0  0  0
    7.5848    5.3281   -2.3490 H   0  0  0  0  0  0  0  0  0  0  0  0
    8.8289    6.8478   -0.8352 H   0  0  0  0  0  0  0  0  0  0  0  0
    8.8925    6.3965    1.6203 H   0  0  0  0  0  0  0  0  0  0  0  0
    7.6962    4.4042    2.5373 H   0  0  0  0  0  0  0  0  0  0  0  0
    6.4509    2.8913    1.0219 H   0  0  0  0  0  0  0  0  0  0  0  0
    4.8664    0.9399   -0.6198 H   0  0  0  0  0  0  0  0  0  0  0  0
    2.0733    1.3319    2.5904 H   0  0  0  0  0  0  0  0  0  0  0  0
    3.4565    0.9329    4.5597 H   0  0  0  0  0  0  0  0  0  0  0  0
    4.5189   -0.3288    6.3460 H   0  0  0  0  0  0  0  0  0  0  0  0
    5.4813    1.0329    5.6779 H   0  0  0  0  0  0  0  0  0  0  0  0
    6.6386   -1.5522    6.8585 H   0  0  0  0  0  0  0  0  0  0  0  0
    6.5504    0.0152    7.6987 H   0  0  0  0  0  0  0  0  0  0  0  0
    7.9651   -0.3860    5.2756 H   0  0  0  0  0  0  0  0  0  0  0  0
    6.2298   -2.5970    1.3148 H   0  0  0  0  0  0  0  0  0  0  0  0
    6.1698   -2.8389    3.0648 H   0  0  0  0  0  0  0  0  0  0  0  0
    8.3228   -2.7678    3.9554 H   0  0  0  0  0  0  0  0  0  0  0  0
   10.5522   -1.6995    4.1902 H   0  0  0  0  0  0  0  0  0  0  0  0
   11.1429    0.2869    2.7964 H   0  0  0  0  0  0  0  0  0  0  0  0
    9.4742    1.1889    1.1699 H   0  0  0  0  0  0  0  0  0  0  0  0
    7.2500    0.1223    0.9459 H   0  0  0  0  0  0  0  0  0  0  0  0
    4.4887   -1.4252    0.3257 H   0  0  0  0  0  0  0  0  0  0  0  0
  2  1  1  1
  1 43  1  0
  1 44  1  0
  1 45  1  0
  2  3  1  0
  2  9  1  0
  2 26  1  0
  3  4  2  0
  3  8  1  0
  4  5  1  0
  4 46  1  0
  5  6  2  0
  5 47  1  0
  6  7  1  0
  6 48  1  0
  7  8  2  0
  7 49  1  0
  8 50  1  0
  9 10  2  0
  9 25  1  0
 10 11  1  0
 10 51  1  0
 11 12  2  0
 11 52  1  0
 12 13  1  0
 12 17  1  0
 13 14  1  0
 14 15  1  0
 14 53  1  0
 14 54  1  0
 15 16  1  0
 15 55  1  0
 15 56  1  0
 16 57  1  0
 17 18  1  0
 17 25  2  0
 18 19  1  0
 18 58  1  0
 18 59  1  0
 19 20  2  0
 19 24  1  0
 20 21  1  0
 20 60  1  0
 21 22  2  0
 21 61  1  0
 22 23  1  0
 22 62  1  0
 23 24  2  0
 23 63  1  0
 24 64  1  0
 25 65  1  0
 26 27  2  0
 26 42  1  0
 27 28  1  0
 27 66  1  0
 28 29  2  0
 28 67  1  0
 29 30  1  0
 29 34  1  0
 30 31  1  0
 31 32  1  0
 31 68  1  0
 31 69  1  0
 32 33  1  0
 32 70  1  0
 32 71  1  0
 33 72  1  0
 34 35  1  0
 34 42  2  0
 35 36  1  0
 35 73  1  0
 35 74  1  0
 36 37  2  0
 36 41  1  0
 37 38  1  0
 37 75  1  0
 38 39  2  0
 38 76  1  0
 39 40  1  0
 39 77  1  0
 40 41  2  0
 40 78  1  0
 41 79  1  0
 42 80  1  0
M  END

