
     RDKit          3D

170186  0  0  0  0  0  0  0  0999 V2000
    1.0227   -0.2768    0.4430 C   0  0  0  0  0  0  0  0  0  0  0  0
    2.4955   -0.1973    0.1310 C   0  0  0  0  0  0  0  0  0  0  0  0
    3.3429   -1.2914    0.3869 C   0  0  0  0  0  0  0  0  0  0  0  0
    4.7017   -1.2353    0.0999 C   0  0  0  0  0  0  0  0  0  0  0  0
    5.2860   -0.0676   -0.4376 C   0  0  0  0  0  0  0  0  0  0  0  0
    6.7278   -0.0064   -0.7423 C   0  0  0  0  0  0  0  0  0  0  0  0
    7.3743   -1.1204   -1.3845 C   0  0  0  0  0  0  0  0  0  0  0  0
    8.6827   -1.4009   -1.1241 N   0  0  0  0  0  0  0  0  0  0  0  0
    8.9228   -2.6311   -1.6455 C   0  0  0  0  0  0  0  0  0  0  0  0
    7.7621   -3.1341   -2.3668 C   0  0  0  0  0  0  0  0  0  0  0  0
    7.7587   -4.2903   -3.2992 C   0  0  0  0  0  0  0  0  0  0  0  0
    8.5678   -4.2500   -4.4512 C   0  0  0  0  0  0  0  0  0  0  0  0
    8.5733   -5.3029   -5.3684 C   0  0  0  0  0  0  0  0  0  0  0  0
    7.7714   -6.4275   -5.1521 C   0  0  0  0  0  0  0  0  0  0  0  0
    6.9705   -6.4892   -4.0088 C   0  0  0  0  0  0  0  0  0  0  0  0
    6.9658   -5.4331   -3.0941 C   0  0  0  0  0  0  0  0  0  0  0  0
    6.7721   -2.1598   -2.2142 C   0  0  0  0  0  0  0  0  0  0  0  0
    5.4927   -2.0599   -2.9513 C   0  0  0  0  0  0  0  0  0  0  0  0
    4.5371   -3.0933   -2.9567 C   0  0  0  0  0  0  0  0  0  0  0  0
    3.3605   -2.9862   -3.7019 C   0  0  0  0  0  0  0  0  0  0  0  0
    3.1062   -1.8399   -4.4595 C   0  0  0  0  0  0  0  0  0  0  0  0
    4.0406   -0.7994   -4.4614 C   0  0  0  0  0  0  0  0  0  0  0  0
    5.2158   -0.9089   -3.7170 C   0  0  0  0  0  0  0  0  0  0  0  0
   10.1571   -3.3322   -1.3729 C   0  0  0  0  0  0  0  0  0  0  0  0
   10.1138   -4.7977   -1.2045 C   0  0  0  0  0  0  0  0  0  0  0  0
    9.1153   -5.3946   -0.4065 C   0  0  0  0  0  0  0  0  0  0  0  0
    9.0663   -6.7739   -0.2268 C   0  0  0  0  0  0  0  0  0  0  0  0
    9.9936   -7.6242   -0.8532 C   0  0  0  0  0  0  0  0  0  0  0  0
    9.9543   -9.1157   -0.6363 C   0  0  0  0  0  0  0  0  0  0  0  0
   10.9734   -7.0335   -1.6673 C   0  0  0  0  0  0  0  0  0  0  0  0
   11.0402   -5.6521   -1.8340 C   0  0  0  0  0  0  0  0  0  0  0  0
   11.3831   -2.6337   -1.2733 C   0  0  0  0  0  0  0  0  0  0  0  0
   11.5750   -1.3941   -1.8373 N   0  0  0  0  0  0  0  0  0  0  0  0
   10.8278   -0.8327   -2.2269 H   0  0  0  0  0  0  0  0  0  0  0  0
   12.8848   -0.9937   -1.7697 C   0  0  0  0  0  0  0  0  0  0  0  0
   13.5804   -2.0090   -1.0108 C   0  0  0  0  0  0  0  0  0  0  0  0
   14.9315   -1.8495   -0.4117 C   0  0  0  0  0  0  0  0  0  0  0  0
   15.9970   -2.7197   -0.6935 C   0  0  0  0  0  0  0  0  0  0  0  0
   17.2369   -2.5617   -0.0693 C   0  0  0  0  0  0  0  0  0  0  0  0
   17.4350   -1.5287    0.8505 C   0  0  0  0  0  0  0  0  0  0  0  0
   16.3852   -0.6508    1.1364 C   0  0  0  0  0  0  0  0  0  0  0  0
   15.1471   -0.8088    0.5105 C   0  0  0  0  0  0  0  0  0  0  0  0
   12.6572   -3.0130   -0.6963 C   0  0  0  0  0  0  0  0  0  0  0  0
   12.8658   -4.1041    0.2891 C   0  0  0  0  0  0  0  0  0  0  0  0
   12.1149   -4.1052    1.4796 C   0  0  0  0  0  0  0  0  0  0  0  0
   12.3186   -5.0825    2.4552 C   0  0  0  0  0  0  0  0  0  0  0  0
   13.2777   -6.0814    2.2611 C   0  0  0  0  0  0  0  0  0  0  0  0
   14.0258   -6.0964    1.0812 C   0  0  0  0  0  0  0  0  0  0  0  0
   13.8218   -5.1172    0.1059 C   0  0  0  0  0  0  0  0  0  0  0  0
   13.3702    0.1825   -2.4027 C   0  0  0  0  0  0  0  0  0  0  0  0
   14.7843    0.2499   -2.8169 C   0  0  0  0  0  0  0  0  0  0  0  0
   15.4166   -0.8332   -3.4576 C   0  0  0  0  0  0  0  0  0  0  0  0
   16.7481   -0.7546   -3.8632 C   0  0  0  0  0  0  0  0  0  0  0  0
   17.5116    0.3992   -3.6344 C   0  0  0  0  0  0  0  0  0  0  0  0
   18.9535    0.4929   -4.0645 C   0  0  0  0  0  0  0  0  0  0  0  0
   16.8842    1.4807   -2.9887 C   0  0  0  0  0  0  0  0  0  0  0  0
   15.5517    1.4153   -2.5994 C   0  0  0  0  0  0  0  0  0  0  0  0
   12.5029    1.3057   -2.6396 C   0  0  0  0  0  0  0  0  0  0  0  0
   11.4762    1.5794   -1.7857 N   0  0  0  0  0  0  0  0  0  0  0  0
   11.0176    2.8126   -2.1191 C   0  0  0  0  0  0  0  0  0  0  0  0
   10.0621    3.5036   -1.2829 C   0  0  0  0  0  0  0  0  0  0  0  0
   10.1674    4.9672   -1.1369 C   0  0  0  0  0  0  0  0  0  0  0  0
    9.0358    5.8062   -1.1910 C   0  0  0  0  0  0  0  0  0  0  0  0
    9.1561    7.1869   -1.0571 C   0  0  0  0  0  0  0  0  0  0  0  0
   10.4052    7.7938   -0.8478 C   0  0  0  0  0  0  0  0  0  0  0  0
   10.5246    9.2844   -0.6559 C   0  0  0  0  0  0  0  0  0  0  0  0
   11.5356    6.9604   -0.7985 C   0  0  0  0  0  0  0  0  0  0  0  0
   11.4239    5.5813   -0.9505 C   0  0  0  0  0  0  0  0  0  0  0  0
    9.0337    2.7900   -0.6221 C   0  0  0  0  0  0  0  0  0  0  0  0
    8.5843    1.5675   -1.0620 N   0  0  0  0  0  0  0  0  0  0  0  0
    9.0415    1.0275   -1.7860 H   0  0  0  0  0  0  0  0  0  0  0  0
    7.4635    1.1567   -0.3871 C   0  0  0  0  0  0  0  0  0  0  0  0
    7.2263    2.1426    0.6430 C   0  0  0  0  0  0  0  0  0  0  0  0
    6.3232    1.9561    1.8090 C   0  0  0  0  0  0  0  0  0  0  0  0
    6.5703    0.8963    2.7008 C   0  0  0  0  0  0  0  0  0  0  0  0
    5.7773    0.7150    3.8358 C   0  0  0  0  0  0  0  0  0  0  0  0
    4.7179    1.5881    4.1004 C   0  0  0  0  0  0  0  0  0  0  0  0
    4.4560    2.6398    3.2185 C   0  0  0  0  0  0  0  0  0  0  0  0
    5.2512    2.8209    2.0843 C   0  0  0  0  0  0  0  0  0  0  0  0
    8.1991    3.1407    0.5090 C   0  0  0  0  0  0  0  0  0  0  0  0
    8.5147    4.1869    1.5137 C   0  0  0  0  0  0  0  0  0  0  0  0
    9.7656    4.1571    2.1595 C   0  0  0  0  0  0  0  0  0  0  0  0
   10.0823    5.0849    3.1529 C   0  0  0  0  0  0  0  0  0  0  0  0
    9.1557    6.0647    3.5227 C   0  0  0  0  0  0  0  0  0  0  0  0
    7.9128    6.1100    2.8862 C   0  0  0  0  0  0  0  0  0  0  0  0
    7.5966    5.1808    1.8919 C   0  0  0  0  0  0  0  0  0  0  0  0
   11.6964    3.3263   -3.3016 C   0  0  0  0  0  0  0  0  0  0  0  0
   11.2571    4.4874   -4.1139 C   0  0  0  0  0  0  0  0  0  0  0  0
    9.9612    4.4937   -4.6664 C   0  0  0  0  0  0  0  0  0  0  0  0
    9.5215    5.5487   -5.4682 C   0  0  0  0  0  0  0  0  0  0  0  0
   10.3672    6.6301   -5.7335 C   0  0  0  0  0  0  0  0  0  0  0  0
   11.6515    6.6470   -5.1832 C   0  0  0  0  0  0  0  0  0  0  0  0
   12.0891    5.5890   -4.3825 C   0  0  0  0  0  0  0  0  0  0  0  0
   12.6427    2.3559   -3.6428 C   0  0  0  0  0  0  0  0  0  0  0  0
   13.4128    2.2586   -4.9050 C   0  0  0  0  0  0  0  0  0  0  0  0
   14.3133    3.2530   -5.3288 C   0  0  0  0  0  0  0  0  0  0  0  0
   14.9822    3.1490   -6.5508 C   0  0  0  0  0  0  0  0  0  0  0  0
   14.7706    2.0442   -7.3798 C   0  0  0  0  0  0  0  0  0  0  0  0
   13.8873    1.0403   -6.9708 C   0  0  0  0  0  0  0  0  0  0  0  0
   13.2195    1.1470   -5.7500 C   0  0  0  0  0  0  0  0  0  0  0  0
    4.4367    1.0282   -0.6867 C   0  0  0  0  0  0  0  0  0  0  0  0
    3.0710    0.9588   -0.4157 C   0  0  0  0  0  0  0  0  0  0  0  0
    0.5535   -1.1422   -0.0543 H   0  0  0  0  0  0  0  0  0  0  0  0
    0.4895    0.6296    0.1206 H   0  0  0  0  0  0  0  0  0  0  0  0
    0.8516   -0.3995    1.5265 H   0  0  0  0  0  0  0  0  0  0  0  0
    2.9239   -2.2047    0.8199 H   0  0  0  0  0  0  0  0  0  0  0  0
    5.3372   -2.0975    0.3117 H   0  0  0  0  0  0  0  0  0  0  0  0
    9.1910   -3.3704   -4.6310 H   0  0  0  0  0  0  0  0  0  0  0  0
    9.2042   -5.2421   -6.2594 H   0  0  0  0  0  0  0  0  0  0  0  0
    7.7732   -7.2524   -5.8694 H   0  0  0  0  0  0  0  0  0  0  0  0
    6.3469   -7.3680   -3.8238 H   0  0  0  0  0  0  0  0  0  0  0  0
    6.3569   -5.5053   -2.1913 H   0  0  0  0  0  0  0  0  0  0  0  0
    4.7087   -3.9837   -2.3520 H   0  0  0  0  0  0  0  0  0  0  0  0
    2.6349   -3.8039   -3.6857 H   0  0  0  0  0  0  0  0  0  0  0  0
    2.1863   -1.7567   -5.0441 H   0  0  0  0  0  0  0  0  0  0  0  0
    3.8559    0.1022   -5.0518 H   0  0  0  0  0  0  0  0  0  0  0  0
    5.9457   -0.0961   -3.7364 H   0  0  0  0  0  0  0  0  0  0  0  0
    8.3845   -4.7561    0.0947 H   0  0  0  0  0  0  0  0  0  0  0  0
    8.2903   -7.2039    0.4135 H   0  0  0  0  0  0  0  0  0  0  0  0
    8.9273   -9.4752   -0.4680 H   0  0  0  0  0  0  0  0  0  0  0  0
   10.5478   -9.4010    0.2509 H   0  0  0  0  0  0  0  0  0  0  0  0
   10.3726   -9.6615   -1.4959 H   0  0  0  0  0  0  0  0  0  0  0  0
   11.6960   -7.6707   -2.1853 H   0  0  0  0  0  0  0  0  0  0  0  0
   11.8030   -5.2229   -2.4867 H   0  0  0  0  0  0  0  0  0  0  0  0
   15.8613   -3.5149   -1.4282 H   0  0  0  0  0  0  0  0  0  0  0  0
   18.0536   -3.2484   -0.3069 H   0  0  0  0  0  0  0  0  0  0  0  0
   18.4043   -1.4066    1.3408 H   0  0  0  0  0  0  0  0  0  0  0  0
   16.5289    0.1613    1.8540 H   0  0  0  0  0  0  0  0  0  0  0  0
   14.3270   -0.1246    0.7410 H   0  0  0  0  0  0  0  0  0  0  0  0
   11.3700   -3.3221    1.6393 H   0  0  0  0  0  0  0  0  0  0  0  0
   11.7278   -5.0603    3.3747 H   0  0  0  0  0  0  0  0  0  0  0  0
   13.4396   -6.8458    3.0255 H   0  0  0  0  0  0  0  0  0  0  0  0
   14.7723   -6.8776    0.9153 H   0  0  0  0  0  0  0  0  0  0  0  0
   14.3947   -5.1537   -0.8215 H   0  0  0  0  0  0  0  0  0  0  0  0
   14.8425   -1.7387   -3.6651 H   0  0  0  0  0  0  0  0  0  0  0  0
   17.2043   -1.6073   -4.3742 H   0  0  0  0  0  0  0  0  0  0  0  0
   19.6120    0.7131   -3.2072 H   0  0  0  0  0  0  0  0  0  0  0  0
   19.1003    1.3054   -4.7966 H   0  0  0  0  0  0  0  0  0  0  0  0
   19.3015   -0.4428   -4.5261 H   0  0  0  0  0  0  0  0  0  0  0  0
   17.4568    2.3915   -2.7889 H   0  0  0  0  0  0  0  0  0  0  0  0
   15.0910    2.2675   -2.0958 H   0  0  0  0  0  0  0  0  0  0  0  0
    8.0538    5.3646   -1.3716 H   0  0  0  0  0  0  0  0  0  0  0  0
    8.2600    7.8109   -1.1222 H   0  0  0  0  0  0  0  0  0  0  0  0
   10.4078    9.5558    0.4088 H   0  0  0  0  0  0  0  0  0  0  0  0
    9.7478    9.8284   -1.2154 H   0  0  0  0  0  0  0  0  0  0  0  0
   11.5076    9.6588   -0.9805 H   0  0  0  0  0  0  0  0  0  0  0  0
   12.5228    7.4038   -0.6377 H   0  0  0  0  0  0  0  0  0  0  0  0
   12.3182    4.9563   -0.9025 H   0  0  0  0  0  0  0  0  0  0  0  0
    7.4017    0.2163    2.5006 H   0  0  0  0  0  0  0  0  0  0  0  0
    5.9912   -0.1113    4.5189 H   0  0  0  0  0  0  0  0  0  0  0  0
    4.0976    1.4478    4.9895 H   0  0  0  0  0  0  0  0  0  0  0  0
    3.6243    3.3225    3.4112 H   0  0  0  0  0  0  0  0  0  0  0  0
    5.0228    3.6304    1.3890 H   0  0  0  0  0  0  0  0  0  0  0  0
   10.4891    3.3870    1.8822 H   0  0  0  0  0  0  0  0  0  0  0  0
   11.0574    5.0384    3.6450 H   0  0  0  0  0  0  0  0  0  0  0  0
    9.4024    6.7901    4.3024 H   0  0  0  0  0  0  0  0  0  0  0  0
    7.1832    6.8761    3.1615 H   0  0  0  0  0  0  0  0  0  0  0  0
    6.6321    5.2423    1.3869 H   0  0  0  0  0  0  0  0  0  0  0  0
    9.2979    3.6471   -4.4725 H   0  0  0  0  0  0  0  0  0  0  0  0
    8.5141    5.5235   -5.8925 H   0  0  0  0  0  0  0  0  0  0  0  0
   10.0257    7.4563   -6.3626 H   0  0  0  0  0  0  0  0  0  0  0  0
   12.3179    7.4924   -5.3739 H   0  0  0  0  0  0  0  0  0  0  0  0
   13.0836    5.6288   -3.9357 H   0  0  0  0  0  0  0  0  0  0  0  0
   14.5093    4.1078   -4.6813 H   0  0  0  0  0  0  0  0  0  0  0  0
   15.6775    3.9362   -6.8545 H   0  0  0  0  0  0  0  0  0  0  0  0
   15.2926    1.9642   -8.3369 H   0  0  0  0  0  0  0  0  0  0  0  0
   13.7119    0.1705   -7.6097 H   0  0  0  0  0  0  0  0  0  0  0  0
   12.5212    0.3642   -5.4444 H   0  0  0  0  0  0  0  0  0  0  0  0
    4.8539    1.9362   -1.1274 H   0  0  0  0  0  0  0  0  0  0  0  0
    2.4355    1.8206   -0.6389 H   0  0  0  0  0  0  0  0  0  0  0  0
  1  2  1  0
  1103  1  0
  1104  1  0
  1105  1  0
  2  3  2  0
  2102  1  0
  3  4  1  0
  3106  1  0
  4  5  2  0
  4107  1  0
  5  6  1  0
  5101  1  0
  6  7  1  0
  6 72  2  0
  7  8  2  0
  7 17  1  0
  8  9  1  0
  9 10  1  0
  9 24  2  0
 10 11  1  0
 10 17  2  0
 11 12  2  0
 11 16  1  0
 12 13  1  0
 12108  1  0
 13 14  2  0
 13109  1  0
 14 15  1  0
 14110  1  0
 15 16  2  0
 15111  1  0
 16112  1  0
 17 18  1  0
 18 19  2  0
 18 23  1  0
 19 20  1  0
 19113  1  0
 20 21  2  0
 20114  1  0
 21 22  1  0
 21115  1  0
 22 23  2  0
 22116  1  0
 23117  1  0
 24 25  1  0
 24 32  1  0
 25 26  2  0
 25 31  1  0
 26 27  1  0
 26118  1  0
 27 28  2  0
 27119  1  0
 28 29  1  0
 28 30  1  0
 29120  1  0
 29121  1  0
 29122  1  0
 30 31  2  0
 30123  1  0
 31124  1  0
 32 33  1  0
 32 43  2  0
 33 34  1  0
 33 35  1  0
 35 36  2  0
 35 50  1  0
 36 37  1  0
 36 43  1  0
 37 38  2  0
 37 42  1  0
 38 39  1  0
 38125  1  0
 39 40  2  0
 39126  1  0
 40 41  1  0
 40127  1  0
 41 42  2  0
 41128  1  0
 42129  1  0
 43 44  1  0
 44 45  2  0
 44 49  1  0
 45 46  1  0
 45130  1  0
 46 47  2  0
 46131  1  0
 47 48  1  0
 47132  1  0
 48 49  2  0
 48133  1  0
 49134  1  0
 50 51  1  0
 50 58  2  0
 51 52  2  0
 51 57  1  0
 52 53  1  0
 52135  1  0
 53 54  2  0
 53136  1  0
 54 55  1  0
 54 56  1  0
 55137  1  0
 55138  1  0
 55139  1  0
 56 57  2  0
 56140  1  0
 57141  1  0
 58 59  1  0
 58 94  1  0
 59 60  2  0
 60 61  1  0
 60 87  1  0
 61 62  1  0
 61 69  2  0
 62 63  2  0
 62 68  1  0
 63 64  1  0
 63142  1  0
 64 65  2  0
 64143  1  0
 65 66  1  0
 65 67  1  0
 66144  1  0
 66145  1  0
 66146  1  0
 67 68  2  0
 67147  1  0
 68148  1  0
 69 70  1  0
 69 80  1  0
 70 71  1  0
 70 72  1  0
 72 73  1  0
 73 74  1  0
 73 80  2  0
 74 75  2  0
 74 79  1  0
 75 76  1  0
 75149  1  0
 76 77  2  0
 76150  1  0
 77 78  1  0
 77151  1  0
 78 79  2  0
 78152  1  0
 79153  1  0
 80 81  1  0
 81 82  2  0
 81 86  1  0
 82 83  1  0
 82154  1  0
 83 84  2  0
 83155  1  0
 84 85  1  0
 84156  1  0
 85 86  2  0
 85157  1  0
 86158  1  0
 87 88  1  0
 87 94  2  0
 88 89  2  0
 88 93  1  0
 89 90  1  0
 89159  1  0
 90 91  2  0
 90160  1  0
 91 92  1  0
 91161  1  0
 92 93  2  0
 92162  1  0
 93163  1  0
 94 95  1  0
 95 96  2  0
 95100  1  0
 96 97  1  0
 96164  1  0
 97 98  2  0
 97165  1  0
 98 99  1  0
 98166  1  0
 99100  2  0
 99167  1  0
100168  1  0
101102  2  0
101169  1  0
102170  1  0
M  END

