
     RDKit          3D

 56 58  0  0  0  0  0  0  0  0999 V2000
    4.1817    0.2863    1.5599 C   0  0  0  0  0  0  0  0  0  0  0  0
    5.4005    1.1870    1.7199 C   0  0  0  0  0  0  0  0  0  0  0  0
    5.4500    2.2133    0.7373 O   0  0  0  0  0  0  0  0  0  0  0  0
    5.9744    1.8597   -0.4952 C   0  0  0  0  0  0  0  0  0  0  0  0
    6.4012    0.7120   -0.7291 O   0  0  0  0  0  0  0  0  0  0  0  0
    5.9380    2.9879   -1.3898 C   0  0  0  0  0  0  0  0  0  0  0  0
    5.4649    4.2942   -1.1398 C   0  0  0  0  0  0  0  0  0  0  0  0
    5.6404    5.0467   -2.3269 C   0  0  0  0  0  0  0  0  0  0  0  0
    5.3739    6.3755   -2.7009 C   0  0  0  0  0  0  0  0  0  0  0  0
    4.6731    7.4747   -1.5721 Cl  0  0  0  0  0  0  0  0  0  0  0  0
    5.6716    6.8507   -4.0135 C   0  0  0  0  0  0  0  0  0  0  0  0
    6.2333    6.0113   -4.9529 C   0  0  0  0  0  0  0  0  0  0  0  0
    6.5239    4.6456   -4.6129 C   0  0  0  0  0  0  0  0  0  0  0  0
    7.0637    3.7857   -5.4796 O   0  0  0  0  0  0  0  0  0  0  0  0
    7.4275    4.1860   -6.8115 C   0  0  0  0  0  0  0  0  0  0  0  0
    8.0330    2.9958   -7.5360 C   0  0  0  0  0  0  0  0  0  0  0  0
    7.1259    1.7640   -7.6609 C   0  0  0  0  0  0  0  0  0  0  0  0
    5.7358    2.0450   -8.2482 C   0  0  1  0  0  0  0  0  0  0  0  0
    5.8095    2.8737   -9.4070 O   0  0  0  0  0  0  0  0  0  0  0  0
    4.9305    0.7435   -8.4574 C   0  0  1  0  0  0  0  0  0  0  0  0
    3.4813    0.9569   -8.9338 C   0  0  0  0  0  0  0  0  0  0  0  0
    3.3584    1.1309  -10.4528 C   0  0  0  0  0  0  0  0  0  0  0  0
    4.0818   -0.0208  -11.1564 C   0  0  0  0  0  0  0  0  0  0  0  0
    5.5245   -0.1126  -10.6692 C   0  0  0  0  0  0  0  0  0  0  0  0
    5.6288   -0.2129   -9.2575 O   0  0  0  0  0  0  0  0  0  0  0  0
    6.2248    4.1867   -3.3045 C   0  0  0  0  0  0  0  0  0  0  0  0
    6.4017    2.9519   -2.7299 N   0  0  0  0  0  0  0  0  0  0  0  0
    6.9667    1.7827   -3.3858 C   0  0  0  0  0  0  0  0  0  0  0  0
    4.1332   -0.4433    2.3855 H   0  0  0  0  0  0  0  0  0  0  0  0
    4.2419   -0.2678    0.6118 H   0  0  0  0  0  0  0  0  0  0  0  0
    3.2526    0.8789    1.5670 H   0  0  0  0  0  0  0  0  0  0  0  0
    6.3218    0.5846    1.6729 H   0  0  0  0  0  0  0  0  0  0  0  0
    5.3708    1.7133    2.6875 H   0  0  0  0  0  0  0  0  0  0  0  0
    5.0469    4.6341   -0.1988 H   0  0  0  0  0  0  0  0  0  0  0  0
    5.4446    7.8889   -4.2587 H   0  0  0  0  0  0  0  0  0  0  0  0
    6.4497    6.3852   -5.9514 H   0  0  0  0  0  0  0  0  0  0  0  0
    8.1552    5.0126   -6.7493 H   0  0  0  0  0  0  0  0  0  0  0  0
    6.5325    4.5503   -7.3413 H   0  0  0  0  0  0  0  0  0  0  0  0
    8.9720    2.7065   -7.0356 H   0  0  0  0  0  0  0  0  0  0  0  0
    8.3131    3.3612   -8.5374 H   0  0  0  0  0  0  0  0  0  0  0  0
    6.9957    1.2951   -6.6723 H   0  0  0  0  0  0  0  0  0  0  0  0
    7.6274    1.0075   -8.2873 H   0  0  0  0  0  0  0  0  0  0  0  0
    5.1551    2.6410   -7.5224 H   0  0  0  0  0  0  0  0  0  0  0  0
    6.3919    2.4459  -10.0492 H   0  0  0  0  0  0  0  0  0  0  0  0
    4.8897    0.2722   -7.4604 H   0  0  0  0  0  0  0  0  0  0  0  0
    3.0466    1.8178   -8.4001 H   0  0  0  0  0  0  0  0  0  0  0  0
    2.8964    0.0707   -8.6329 H   0  0  0  0  0  0  0  0  0  0  0  0
    3.8030    2.0927  -10.7541 H   0  0  0  0  0  0  0  0  0  0  0  0
    2.2955    1.1578  -10.7438 H   0  0  0  0  0  0  0  0  0  0  0  0
    4.0731    0.1051  -12.2523 H   0  0  0  0  0  0  0  0  0  0  0  0
    3.5698   -0.9743  -10.9360 H   0  0  0  0  0  0  0  0  0  0  0  0
    6.0979    0.7576  -11.0558 H   0  0  0  0  0  0  0  0  0  0  0  0
    6.0213   -1.0123  -11.0651 H   0  0  0  0  0  0  0  0  0  0  0  0
    7.9738    2.0064   -3.7698 H   0  0  0  0  0  0  0  0  0  0  0  0
    6.3365    1.4757   -4.2366 H   0  0  0  0  0  0  0  0  0  0  0  0
    7.0067    0.9775   -2.6431 H   0  0  0  0  0  0  0  0  0  0  0  0
  1  2  1  0
  1 29  1  0
  1 30  1  0
  1 31  1  0
  2  3  1  0
  2 32  1  0
  2 33  1  0
  3  4  1  0
  4  5  2  0
  4  6  1  0
  6  7  2  0
  6 27  1  0
  7  8  1  0
  7 34  1  0
  8  9  2  0
  8 26  1  0
  9 10  1  0
  9 11  1  0
 11 12  2  0
 11 35  1  0
 12 13  1  0
 12 36  1  0
 13 14  1  0
 13 26  2  0
 14 15  1  0
 15 16  1  0
 15 37  1  0
 15 38  1  0
 16 17  1  0
 16 39  1  0
 16 40  1  0
 17 18  1  0
 17 41  1  0
 17 42  1  0
 18 19  1  0
 18 20  1  0
 18 43  1  1
 19 44  1  0
 20 21  1  0
 20 25  1  0
 20 45  1  1
 21 22  1  0
 21 46  1  0
 21 47  1  0
 22 23  1  0
 22 48  1  0
 22 49  1  0
 23 24  1  0
 23 50  1  0
 23 51  1  0
 24 25  1  0
 24 52  1  0
 24 53  1  0
 26 27  1  0
 27 28  1  0
 28 54  1  0
 28 55  1  0
 28 56  1  0
M  END

