
     RDKit          3D

 66 73  0  0  0  0  0  0  0  0999 V2000
    0.9833   -0.4136    0.6213 O   0  0  0  0  0  0  0  0  0  0  0  0
    2.1837   -0.3032    0.3979 C   0  0  0  0  0  0  0  0  0  0  0  0
    2.7198   -0.0741   -0.9603 C   0  0  0  0  0  0  0  0  0  0  0  0
    1.8203    0.0225   -2.0387 C   0  0  0  0  0  0  0  0  0  0  0  0
    2.2693    0.2382   -3.3326 C   0  0  0  0  0  0  0  0  0  0  0  0
    3.6503    0.3619   -3.5604 C   0  0  0  0  0  0  0  0  0  0  0  0
    4.5613    0.2708   -2.5158 C   0  0  0  0  0  0  0  0  0  0  0  0
    4.1123    0.0500   -1.1923 C   0  0  0  0  0  0  0  0  0  0  0  0
    5.0179   -0.0446   -0.1302 N   0  0  0  0  0  0  0  0  0  0  0  0
    6.4253    0.0831   -0.3939 C   0  0  0  0  0  0  0  0  0  0  0  0
    7.0395    1.3398   -0.3501 C   0  0  0  0  0  0  0  0  0  0  0  0
    8.4042    1.4619   -0.6121 C   0  0  0  0  0  0  0  0  0  0  0  0
    9.1895    0.3359   -0.9245 C   0  0  0  0  0  0  0  0  0  0  0  0
   10.6429    0.4724   -1.2096 C   0  0  0  0  0  0  0  0  0  0  0  0
   11.4360    1.3995   -0.5069 C   0  0  0  0  0  0  0  0  0  0  0  0
   12.7972    1.5372   -0.7793 C   0  0  0  0  0  0  0  0  0  0  0  0
   13.3999    0.7481   -1.7653 C   0  0  0  0  0  0  0  0  0  0  0  0
   14.7998    0.8972   -2.0565 N   0  0  0  0  0  0  0  0  0  0  0  0
   15.7318    0.1197   -1.3613 C   0  0  0  0  0  0  0  0  0  0  0  0
   15.3172   -0.8107   -0.3793 C   0  0  0  0  0  0  0  0  0  0  0  0
   16.2547   -1.5755    0.3032 C   0  0  0  0  0  0  0  0  0  0  0  0
   17.6288   -1.4463    0.0389 C   0  0  0  0  0  0  0  0  0  0  0  0
   18.0439   -0.5368   -0.9216 C   0  0  0  0  0  0  0  0  0  0  0  0
   17.1172    0.2516   -1.6293 C   0  0  0  0  0  0  0  0  0  0  0  0
   17.6178    1.2049   -2.6419 C   0  0  0  0  0  0  0  0  0  0  0  0
   18.8115    1.3355   -2.8893 O   0  0  0  0  0  0  0  0  0  0  0  0
   16.5738    1.9883   -3.3351 C   0  0  0  0  0  0  0  0  0  0  0  0
   16.9620    2.9191   -4.3171 C   0  0  0  0  0  0  0  0  0  0  0  0
   16.0239    3.6795   -4.9980 C   0  0  0  0  0  0  0  0  0  0  0  0
   14.6625    3.5099   -4.6944 C   0  0  0  0  0  0  0  0  0  0  0  0
   14.2499    2.5992   -3.7301 C   0  0  0  0  0  0  0  0  0  0  0  0
   15.2002    1.8190   -3.0300 C   0  0  0  0  0  0  0  0  0  0  0  0
   12.6281   -0.1824   -2.4701 C   0  0  0  0  0  0  0  0  0  0  0  0
   11.2673   -0.3171   -2.1938 C   0  0  0  0  0  0  0  0  0  0  0  0
    8.5552   -0.9204   -0.9623 C   0  0  0  0  0  0  0  0  0  0  0  0
    7.1908   -1.0476   -0.7003 C   0  0  0  0  0  0  0  0  0  0  0  0
    4.5832   -0.2596    1.1820 C   0  0  0  0  0  0  0  0  0  0  0  0
    5.5066   -0.3516    2.2499 C   0  0  0  0  0  0  0  0  0  0  0  0
    5.0597   -0.5646    3.5479 C   0  0  0  0  0  0  0  0  0  0  0  0
    3.6897   -0.6936    3.8325 C   0  0  0  0  0  0  0  0  0  0  0  0
    2.7779   -0.6049    2.7919 C   0  0  0  0  0  0  0  0  0  0  0  0
    3.2010   -0.3895    1.4668 C   0  0  0  0  0  0  0  0  0  0  0  0
    0.7591   -0.0804   -1.8032 H   0  0  0  0  0  0  0  0  0  0  0  0
    1.5635    0.3118   -4.1629 H   0  0  0  0  0  0  0  0  0  0  0  0
    4.0231    0.5331   -4.5738 H   0  0  0  0  0  0  0  0  0  0  0  0
    5.6261    0.3711   -2.7215 H   0  0  0  0  0  0  0  0  0  0  0  0
    6.4390    2.2222   -0.1192 H   0  0  0  0  0  0  0  0  0  0  0  0
    8.8611    2.4537   -0.5988 H   0  0  0  0  0  0  0  0  0  0  0  0
   10.9875    2.0084    0.2810 H   0  0  0  0  0  0  0  0  0  0  0  0
   13.4032    2.2557   -0.2233 H   0  0  0  0  0  0  0  0  0  0  0  0
   14.2584   -0.9312   -0.1537 H   0  0  0  0  0  0  0  0  0  0  0  0
   15.9086   -2.2873    1.0574 H   0  0  0  0  0  0  0  0  0  0  0  0
   18.3554   -2.0536    0.5830 H   0  0  0  0  0  0  0  0  0  0  0  0
   19.0982   -0.3947   -1.1676 H   0  0  0  0  0  0  0  0  0  0  0  0
   18.0326    3.0091   -4.5122 H   0  0  0  0  0  0  0  0  0  0  0  0
   16.3348    4.3991   -5.7586 H   0  0  0  0  0  0  0  0  0  0  0  0
   13.9081    4.1003   -5.2213 H   0  0  0  0  0  0  0  0  0  0  0  0
   13.1879    2.4886   -3.5155 H   0  0  0  0  0  0  0  0  0  0  0  0
   13.0988   -0.7918   -3.2446 H   0  0  0  0  0  0  0  0  0  0  0  0
   10.6753   -1.0292   -2.7726 H   0  0  0  0  0  0  0  0  0  0  0  0
    9.1409   -1.8168   -1.1771 H   0  0  0  0  0  0  0  0  0  0  0  0
    6.7114   -2.0285   -0.7255 H   0  0  0  0  0  0  0  0  0  0  0  0
    6.5744   -0.2552    2.0579 H   0  0  0  0  0  0  0  0  0  0  0  0
    5.7936   -0.6318    4.3554 H   0  0  0  0  0  0  0  0  0  0  0  0
    3.3518   -0.8608    4.8575 H   0  0  0  0  0  0  0  0  0  0  0  0
    1.7021   -0.6974    2.9548 H   0  0  0  0  0  0  0  0  0  0  0  0
  1  2  2  0
  2  3  1  0
  2 42  1  0
  3  4  2  0
  3  8  1  0
  4  5  1  0
  4 43  1  0
  5  6  2  0
  5 44  1  0
  6  7  1  0
  6 45  1  0
  7  8  2  0
  7 46  1  0
  8  9  1  0
  9 10  1  0
  9 37  1  0
 10 11  2  0
 10 36  1  0
 11 12  1  0
 11 47  1  0
 12 13  2  0
 12 48  1  0
 13 14  1  0
 13 35  1  0
 14 15  2  0
 14 34  1  0
 15 16  1  0
 15 49  1  0
 16 17  2  0
 16 50  1  0
 17 18  1  0
 17 33  1  0
 18 19  1  0
 18 32  1  0
 19 20  2  0
 19 24  1  0
 20 21  1  0
 20 51  1  0
 21 22  2  0
 21 52  1  0
 22 23  1  0
 22 53  1  0
 23 24  2  0
 23 54  1  0
 24 25  1  0
 25 26  2  0
 25 27  1  0
 27 28  1  0
 27 32  2  0
 28 29  2  0
 28 55  1  0
 29 30  1  0
 29 56  1  0
 30 31  2  0
 30 57  1  0
 31 32  1  0
 31 58  1  0
 33 34  2  0
 33 59  1  0
 34 60  1  0
 35 36  2  0
 35 61  1  0
 36 62  1  0
 37 38  1  0
 37 42  2  0
 38 39  2  0
 38 63  1  0
 39 40  1  0
 39 64  1  0
 40 41  2  0
 40 65  1  0
 41 42  1  0
 41 66  1  0
M  END

