
     RDKit          3D

 88 99  0  0  0  0  0  0  0  0999 V2000
    0.1277    2.4361   -2.6873 C   0  0  0  0  0  0  0  0  0  0  0  0
    0.6733    3.1493   -1.6142 C   0  0  0  0  0  0  0  0  0  0  0  0
    1.8257    2.6864   -0.9791 C   0  0  0  0  0  0  0  0  0  0  0  0
    2.4484    1.5021   -1.4114 C   0  0  0  0  0  0  0  0  0  0  0  0
    3.6752    1.0075   -0.7346 C   0  0  0  0  0  0  0  0  0  0  0  0
    4.1535    1.7095    0.3009 N   0  0  0  0  0  0  0  0  0  0  0  0
    5.2576    1.2299    0.8880 C   0  0  0  0  0  0  0  0  0  0  0  0
    5.8228    1.9788    2.0400 C   0  0  0  0  0  0  0  0  0  0  0  0
    5.2044    3.1566    2.4958 C   0  0  0  0  0  0  0  0  0  0  0  0
    5.7376    3.8601    3.5759 C   0  0  0  0  0  0  0  0  0  0  0  0
    6.8937    3.3974    4.2140 C   0  0  0  0  0  0  0  0  0  0  0  0
    7.5148    2.2262    3.7667 C   0  0  0  0  0  0  0  0  0  0  0  0
    6.9840    1.5204    2.6869 C   0  0  0  0  0  0  0  0  0  0  0  0
    5.8813    0.1123    0.4920 N   0  0  0  0  0  0  0  0  0  0  0  0
    5.3425   -0.5294   -0.5521 C   0  0  0  0  0  0  0  0  0  0  0  0
    6.0068   -1.7700   -1.0271 C   0  0  0  0  0  0  0  0  0  0  0  0
    7.1352   -2.2767   -0.3595 C   0  0  0  0  0  0  0  0  0  0  0  0
    7.7576   -3.4423   -0.7980 C   0  0  0  0  0  0  0  0  0  0  0  0
    7.2736   -4.1198   -1.9292 C   0  0  0  0  0  0  0  0  0  0  0  0
    7.9080   -5.3042   -2.3832 N   0  0  0  0  0  0  0  0  0  0  0  0
    7.2977   -6.5498   -2.5180 C   0  0  0  0  0  0  0  0  0  0  0  0
    5.9740   -6.9052   -2.2284 C   0  0  0  0  0  0  0  0  0  0  0  0
    5.6082   -8.2422   -2.3688 C   0  0  0  0  0  0  0  0  0  0  0  0
    6.5487   -9.2075   -2.7673 C   0  0  0  0  0  0  0  0  0  0  0  0
    7.8657   -8.8474   -3.0467 C   0  0  0  0  0  0  0  0  0  0  0  0
    8.2663   -7.5022   -2.9498 C   0  0  0  0  0  0  0  0  0  0  0  0
    9.5244   -6.7805   -3.1153 C   0  0  0  0  0  0  0  0  0  0  0  0
   10.8416   -7.0853   -3.5463 C   0  0  0  0  0  0  0  0  0  0  0  0
   11.8269   -6.0771   -3.4664 C   0  0  0  0  0  0  0  0  0  0  0  0
   11.5360   -4.7727   -3.0593 C   0  0  0  0  0  0  0  0  0  0  0  0
   10.2350   -4.4295   -2.7007 C   0  0  0  0  0  0  0  0  0  0  0  0
    9.2587   -5.4338   -2.7161 C   0  0  0  0  0  0  0  0  0  0  0  0
   13.1990   -6.5985   -3.8894 C   0  0  2  0  0  0  0  0  0  0  0  0
   14.2492   -6.5202   -2.7730 C   0  0  0  0  0  0  0  0  0  0  0  0
   14.2087   -7.0835   -1.5005 C   0  0  0  0  0  0  0  0  0  0  0  0
   15.2916   -6.8804   -0.6346 C   0  0  0  0  0  0  0  0  0  0  0  0
   16.3979   -6.1223   -1.0418 C   0  0  0  0  0  0  0  0  0  0  0  0
   16.4411   -5.5558   -2.3200 C   0  0  0  0  0  0  0  0  0  0  0  0
   15.3611   -5.7576   -3.1866 C   0  0  0  0  0  0  0  0  0  0  0  0
   15.1269   -5.2947   -4.5633 C   0  0  0  0  0  0  0  0  0  0  0  0
   15.9145   -4.5133   -5.4161 C   0  0  0  0  0  0  0  0  0  0  0  0
   15.4359   -4.2171   -6.6965 C   0  0  0  0  0  0  0  0  0  0  0  0
   14.1879   -4.6946   -7.1196 C   0  0  0  0  0  0  0  0  0  0  0  0
   13.3978   -5.4776   -6.2674 C   0  0  0  0  0  0  0  0  0  0  0  0
   13.8719   -5.7745   -4.9923 C   0  0  0  0  0  0  0  0  0  0  0  0
   12.8575   -8.0239   -4.3106 C   0  0  0  0  0  0  0  0  0  0  0  0
   13.7171   -8.9786   -4.8442 C   0  0  0  0  0  0  0  0  0  0  0  0
   13.2010  -10.2216   -5.2301 C   0  0  0  0  0  0  0  0  0  0  0  0
   11.8333  -10.4826   -5.0948 C   0  0  0  0  0  0  0  0  0  0  0  0
   10.9706   -9.5247   -4.5511 C   0  0  0  0  0  0  0  0  0  0  0  0
   11.4801   -8.2887   -4.1279 C   0  0  0  0  0  0  0  0  0  0  0  0
    6.1501   -3.6155   -2.6044 C   0  0  0  0  0  0  0  0  0  0  0  0
    5.5206   -2.4584   -2.1518 C   0  0  0  0  0  0  0  0  0  0  0  0
    4.2417   -0.1171   -1.1927 N   0  0  0  0  0  0  0  0  0  0  0  0
    1.8942    0.7916   -2.4908 C   0  0  0  0  0  0  0  0  0  0  0  0
    0.7410    1.2565   -3.1232 C   0  0  0  0  0  0  0  0  0  0  0  0
   -0.7757    2.7997   -3.1840 H   0  0  0  0  0  0  0  0  0  0  0  0
    0.1968    4.0711   -1.2711 H   0  0  0  0  0  0  0  0  0  0  0  0
    2.2605    3.2320   -0.1413 H   0  0  0  0  0  0  0  0  0  0  0  0
    4.3046    3.5060    1.9891 H   0  0  0  0  0  0  0  0  0  0  0  0
    5.2498    4.7746    3.9227 H   0  0  0  0  0  0  0  0  0  0  0  0
    7.3107    3.9499    5.0601 H   0  0  0  0  0  0  0  0  0  0  0  0
    8.4179    1.8619    4.2629 H   0  0  0  0  0  0  0  0  0  0  0  0
    7.4591    0.6071    2.3281 H   0  0  0  0  0  0  0  0  0  0  0  0
    7.5066   -1.7479    0.5185 H   0  0  0  0  0  0  0  0  0  0  0  0
    8.6178   -3.8434   -0.2592 H   0  0  0  0  0  0  0  0  0  0  0  0
    5.2539   -6.1604   -1.8873 H   0  0  0  0  0  0  0  0  0  0  0  0
    4.5809   -8.5433   -2.1484 H   0  0  0  0  0  0  0  0  0  0  0  0
    6.2493  -10.2551   -2.8467 H   0  0  0  0  0  0  0  0  0  0  0  0
    8.5807   -9.6248   -3.3042 H   0  0  0  0  0  0  0  0  0  0  0  0
   12.3255   -4.0180   -3.0370 H   0  0  0  0  0  0  0  0  0  0  0  0
    9.9866   -3.4081   -2.4113 H   0  0  0  0  0  0  0  0  0  0  0  0
   13.3468   -7.6745   -1.1804 H   0  0  0  0  0  0  0  0  0  0  0  0
   15.2731   -7.3168    0.3674 H   0  0  0  0  0  0  0  0  0  0  0  0
   17.2345   -5.9727   -0.3543 H   0  0  0  0  0  0  0  0  0  0  0  0
   17.3063   -4.9656   -2.6330 H   0  0  0  0  0  0  0  0  0  0  0  0
   16.8882   -4.1382   -5.0905 H   0  0  0  0  0  0  0  0  0  0  0  0
   16.0401   -3.6076   -7.3734 H   0  0  0  0  0  0  0  0  0  0  0  0
   13.8275   -4.4540   -8.1230 H   0  0  0  0  0  0  0  0  0  0  0  0
   12.4246   -5.8479   -6.5997 H   0  0  0  0  0  0  0  0  0  0  0  0
   14.7792   -8.7545   -4.9714 H   0  0  0  0  0  0  0  0  0  0  0  0
   13.8639  -10.9810   -5.6525 H   0  0  0  0  0  0  0  0  0  0  0  0
   11.4281  -11.4433   -5.4229 H   0  0  0  0  0  0  0  0  0  0  0  0
    9.9074   -9.7431   -4.4958 H   0  0  0  0  0  0  0  0  0  0  0  0
    5.7827   -4.1316   -3.4933 H   0  0  0  0  0  0  0  0  0  0  0  0
    4.6500   -2.0618   -2.6746 H   0  0  0  0  0  0  0  0  0  0  0  0
    2.3818   -0.1261   -2.8204 H   0  0  0  0  0  0  0  0  0  0  0  0
    0.3175    0.6968   -3.9609 H   0  0  0  0  0  0  0  0  0  0  0  0
  1  2  2  0
  1 56  1  0
  1 57  1  0
  2  3  1  0
  2 58  1  0
  3  4  2  0
  3 59  1  0
  4  5  1  0
  4 55  1  0
  5  6  2  0
  5 54  1  0
  6  7  1  0
  7  8  1  0
  7 14  2  0
  8  9  2  0
  8 13  1  0
  9 10  1  0
  9 60  1  0
 10 11  2  0
 10 61  1  0
 11 12  1  0
 11 62  1  0
 12 13  2  0
 12 63  1  0
 13 64  1  0
 14 15  1  0
 15 16  1  0
 15 54  2  0
 16 17  2  0
 16 53  1  0
 17 18  1  0
 17 65  1  0
 18 19  2  0
 18 66  1  0
 19 20  1  0
 19 52  1  0
 20 21  1  0
 20 32  1  0
 21 22  2  0
 21 26  1  0
 22 23  1  0
 22 67  1  0
 23 24  2  0
 23 68  1  0
 24 25  1  0
 24 69  1  0
 25 26  2  0
 25 70  1  0
 26 27  1  0
 27 28  1  0
 27 32  2  0
 28 29  2  0
 28 51  1  0
 29 30  1  0
 33 29  1  1
 30 31  2  0
 30 71  1  0
 31 32  1  0
 31 72  1  0
 33 34  1  0
 33 45  1  0
 33 46  1  0
 34 35  2  0
 34 39  1  0
 35 36  1  0
 35 73  1  0
 36 37  2  0
 36 74  1  0
 37 38  1  0
 37 75  1  0
 38 39  2  0
 38 76  1  0
 39 40  1  0
 40 41  2  0
 40 45  1  0
 41 42  1  0
 41 77  1  0
 42 43  2  0
 42 78  1  0
 43 44  1  0
 43 79  1  0
 44 45  2  0
 44 80  1  0
 46 47  1  0
 46 51  2  0
 47 48  2  0
 47 81  1  0
 48 49  1  0
 48 82  1  0
 49 50  2  0
 49 83  1  0
 50 51  1  0
 50 84  1  0
 52 53  2  0
 52 85  1  0
 53 86  1  0
 55 56  2  0
 55 87  1  0
 56 88  1  0
M  END

