
     RDKit          3D

 38 39  0  0  0  0  0  0  0  0999 V2000
    0.9130    3.7038   -3.5179 C   0  0  0  0  0  0  0  0  0  0  0  0
    2.4336    3.7509   -3.6154 C   0  0  0  0  0  0  0  0  0  0  0  0
    3.1286    4.7774   -2.2593 S   0  0  0  0  0  0  0  0  0  0  0  0
    4.8917    4.6702   -2.5396 C   0  0  0  0  0  0  0  0  0  0  0  0
    5.6532    3.6167   -1.5514 C   0  0  1  0  0  0  0  0  0  0  0  0
    5.0005    2.2358   -1.5686 C   0  0  0  0  0  0  0  0  0  0  0  0
    7.0066    3.5633   -1.9233 N   0  0  0  0  0  0  0  0  0  0  0  0
    8.1464    4.3506   -1.3409 C   0  0  2  0  0  0  0  0  0  0  0  0
    9.0972    3.3719   -0.6219 C   0  0  0  0  0  0  0  0  0  0  0  0
    8.5994    3.1120    0.7962 C   0  0  0  0  0  0  0  0  0  0  0  0
    8.5112    4.2874    1.5575 O   0  0  0  0  0  0  0  0  0  0  0  0
    7.9166    5.3846    0.9613 C   0  0  0  0  0  0  0  0  0  0  0  0
    7.5454    6.4217    1.8117 C   0  0  0  0  0  0  0  0  0  0  0  0
    6.9412    7.6127    1.2577 C   0  0  0  0  0  0  0  0  0  0  0  0
    6.8393    7.7168   -0.1198 C   0  0  0  0  0  0  0  0  0  0  0  0
    6.1198    9.3537   -0.8769 Br  0  0  0  0  0  0  0  0  0  0  0  0
    7.2181    6.7049   -1.0065 C   0  0  0  0  0  0  0  0  0  0  0  0
    7.7299    5.4526   -0.4360 C   0  0  0  0  0  0  0  0  0  0  0  0
    0.5065    3.1102   -4.3512 H   0  0  0  0  0  0  0  0  0  0  0  0
    0.4733    4.7114   -3.5766 H   0  0  0  0  0  0  0  0  0  0  0  0
    0.5820    3.2393   -2.5764 H   0  0  0  0  0  0  0  0  0  0  0  0
    2.7615    4.1993   -4.5666 H   0  0  0  0  0  0  0  0  0  0  0  0
    2.8704    2.7434   -3.5453 H   0  0  0  0  0  0  0  0  0  0  0  0
    5.3285    5.6480   -2.3028 H   0  0  0  0  0  0  0  0  0  0  0  0
    5.0911    4.4002   -3.5865 H   0  0  0  0  0  0  0  0  0  0  0  0
    5.5959    4.0823   -0.5594 H   0  0  0  0  0  0  0  0  0  0  0  0
    5.0381    1.7696   -2.5681 H   0  0  0  0  0  0  0  0  0  0  0  0
    3.9452    2.3251   -1.2663 H   0  0  0  0  0  0  0  0  0  0  0  0
    5.5067    1.5673   -0.8575 H   0  0  0  0  0  0  0  0  0  0  0  0
    7.2401    2.9407   -2.6973 H   0  0  0  0  0  0  0  0  0  0  0  0
    8.6677    4.7424   -2.2399 H   0  0  0  0  0  0  0  0  0  0  0  0
   10.0933    3.8393   -0.5834 H   0  0  0  0  0  0  0  0  0  0  0  0
    9.2014    2.4188   -1.1688 H   0  0  0  0  0  0  0  0  0  0  0  0
    9.2925    2.4429    1.3310 H   0  0  0  0  0  0  0  0  0  0  0  0
    7.6150    2.5974    0.7623 H   0  0  0  0  0  0  0  0  0  0  0  0
    7.7280    6.3214    2.8814 H   0  0  0  0  0  0  0  0  0  0  0  0
    6.5632    8.3984    1.9110 H   0  0  0  0  0  0  0  0  0  0  0  0
    7.3480    6.9173   -2.0709 H   0  0  0  0  0  0  0  0  0  0  0  0
  1  2  1  0
  1 19  1  0
  1 20  1  0
  1 21  1  0
  2  3  1  0
  2 22  1  0
  2 23  1  0
  3  4  1  0
  4  5  1  0
  4 24  1  0
  4 25  1  0
  5  6  1  0
  5  7  1  0
  5 26  1  1
  6 27  1  0
  6 28  1  0
  6 29  1  0
  7  8  1  0
  7 30  1  0
  8  9  1  0
  8 18  1  0
  8 31  1  6
  9 10  1  0
  9 32  1  0
  9 33  1  0
 10 11  1  0
 10 34  1  0
 10 35  1  0
 11 12  1  0
 12 13  1  0
 12 18  2  0
 13 14  2  0
 13 36  1  0
 14 15  1  0
 14 37  1  0
 15 16  1  0
 15 17  2  0
 17 18  1  0
 17 38  1  0
M  END

