
     RDKit          3D

 37 38  0  0  0  0  0  0  0  0999 V2000
    2.9372    2.0067    0.5762 C   0  0  0  0  0  0  0  0  0  0  0  0
    2.9268    0.6117    0.1373 N   0  0  0  0  0  0  0  0  0  0  0  0
    2.7523    0.3339   -1.2870 C   0  0  0  0  0  0  0  0  0  0  0  0
    3.0856   -0.4024    1.0327 C   0  0  0  0  0  0  0  0  0  0  0  0
    3.2591   -0.1337    2.4292 C   0  0  0  0  0  0  0  0  0  0  0  0
    3.4292   -1.1640    3.3267 C   0  0  0  0  0  0  0  0  0  0  0  0
    3.4439   -2.5161    2.9051 C   0  0  0  0  0  0  0  0  0  0  0  0
    3.7034   -3.6267    3.8768 C   0  0  0  0  0  0  0  0  0  0  0  0
    3.5799   -3.2783    5.2571 N   0  0  0  0  0  0  0  0  0  0  0  0
    4.7161   -3.6076    6.0813 C   0  0  0  0  0  0  0  0  0  0  0  0
    5.7968   -3.7795    5.4772 O   0  0  0  0  0  0  0  0  0  0  0  0
    4.5715   -3.6753    7.5073 C   0  0  0  0  0  0  0  0  0  0  0  0
    5.8023   -3.8185    8.2624 C   0  0  0  0  0  0  0  0  0  0  0  0
    5.8541   -3.7952    9.6360 C   0  0  0  0  0  0  0  0  0  0  0  0
    4.6738   -3.6489   10.4124 C   0  0  0  0  0  0  0  0  0  0  0  0
    3.4453   -3.5724    9.7278 C   0  0  0  0  0  0  0  0  0  0  0  0
    3.3895   -3.5874    8.3461 C   0  0  0  0  0  0  0  0  0  0  0  0
    1.7209   -3.6284    7.6712 Cl  0  0  0  0  0  0  0  0  0  0  0  0
    3.2600   -2.7838    1.5230 C   0  0  0  0  0  0  0  0  0  0  0  0
    3.0867   -1.7709    0.6065 C   0  0  0  0  0  0  0  0  0  0  0  0
    2.8009    2.6589   -0.2921 H   0  0  0  0  0  0  0  0  0  0  0  0
    3.8941    2.2591    1.0572 H   0  0  0  0  0  0  0  0  0  0  0  0
    2.1229    2.1998    1.2905 H   0  0  0  0  0  0  0  0  0  0  0  0
    2.6391    1.2784   -1.8281 H   0  0  0  0  0  0  0  0  0  0  0  0
    1.8544   -0.2782   -1.4609 H   0  0  0  0  0  0  0  0  0  0  0  0
    3.6254   -0.1992   -1.6932 H   0  0  0  0  0  0  0  0  0  0  0  0
    3.2616    0.8912    2.7956 H   0  0  0  0  0  0  0  0  0  0  0  0
    3.5570   -0.9767    4.3924 H   0  0  0  0  0  0  0  0  0  0  0  0
    4.7797   -3.8985    3.7531 H   0  0  0  0  0  0  0  0  0  0  0  0
    3.1266   -4.5212    3.5638 H   0  0  0  0  0  0  0  0  0  0  0  0
    2.6740   -3.4333    5.6881 H   0  0  0  0  0  0  0  0  0  0  0  0
    6.7110   -3.9327    7.6707 H   0  0  0  0  0  0  0  0  0  0  0  0
    6.8226   -3.8967   10.1351 H   0  0  0  0  0  0  0  0  0  0  0  0
    4.7034   -3.6190   11.5021 H   0  0  0  0  0  0  0  0  0  0  0  0
    2.5073   -3.5199   10.2851 H   0  0  0  0  0  0  0  0  0  0  0  0
    3.2609   -3.8211    1.1813 H   0  0  0  0  0  0  0  0  0  0  0  0
    2.9528   -2.0220   -0.4440 H   0  0  0  0  0  0  0  0  0  0  0  0
  1  2  1  0
  1 21  1  0
  1 22  1  0
  1 23  1  0
  2  3  1  0
  2  4  1  0
  3 24  1  0
  3 25  1  0
  3 26  1  0
  4  5  2  0
  4 20  1  0
  5  6  1  0
  5 27  1  0
  6  7  2  0
  6 28  1  0
  7  8  1  0
  7 19  1  0
  8  9  1  0
  8 29  1  0
  8 30  1  0
  9 10  1  0
  9 31  1  0
 10 11  2  0
 10 12  1  0
 12 13  2  0
 12 17  1  0
 13 14  1  0
 13 32  1  0
 14 15  2  0
 14 33  1  0
 15 16  1  0
 15 34  1  0
 16 17  2  0
 16 35  1  0
 17 18  1  0
 19 20  2  0
 19 36  1  0
 20 37  1  0
M  END

