
     RDKit          3D

 45 47  0  0  0  0  0  0  0  0999 V2000
    1.0417   -0.3608    0.6795 C   0  0  0  0  0  0  0  0  0  0  0  0
    2.4304    0.0017    0.2650 C   0  0  0  0  0  0  0  0  0  0  0  0
    3.0703    1.2318    0.0153 C   0  0  0  0  0  0  0  0  0  0  0  0
    2.7447    2.5494    0.0351 N   0  0  0  0  0  0  0  0  0  0  0  0
    1.5550    3.2221    0.2587 C   0  0  0  0  0  0  0  0  0  0  0  0
    0.5228    2.6747    0.5812 O   0  0  0  0  0  0  0  0  0  0  0  0
    1.5904    4.7511    0.0798 C   0  0  1  0  0  0  0  0  0  0  0  0
    1.2014    5.4622    1.3798 C   0  0  0  0  0  0  0  0  0  0  0  0
    3.1945    5.4451   -0.5339 S   0  0  0  0  0  0  0  0  0  0  0  0
    3.0568    4.9912   -2.2321 C   0  0  0  0  0  0  0  0  0  0  0  0
    1.9427    4.8507   -2.9254 N   0  0  0  0  0  0  0  0  0  0  0  0
    2.3261    4.5085   -4.1747 N   0  0  0  0  0  0  0  0  0  0  0  0
    3.6062    4.4442   -4.2655 N   0  0  0  0  0  0  0  0  0  0  0  0
    4.1069    4.7370   -3.0466 N   0  0  0  0  0  0  0  0  0  0  0  0
    5.5331    4.6586   -2.7668 C   0  0  0  0  0  0  0  0  0  0  0  0
    4.4725    0.9357   -0.3768 C   0  0  0  0  0  0  0  0  0  0  0  0
    5.2970    1.7883   -0.6775 O   0  0  0  0  0  0  0  0  0  0  0  0
    4.6141   -0.4296   -0.3325 N   0  0  0  0  0  0  0  0  0  0  0  0
    5.7610   -1.2398   -0.5946 C   0  0  0  0  0  0  0  0  0  0  0  0
    5.8764   -1.9087   -1.8742 C   0  0  0  0  0  0  0  0  0  0  0  0
    6.7387   -2.9731   -2.0158 C   0  0  0  0  0  0  0  0  0  0  0  0
    7.5134   -3.4623   -0.9197 C   0  0  0  0  0  0  0  0  0  0  0  0
    7.3894   -2.8064    0.3421 C   0  0  0  0  0  0  0  0  0  0  0  0
    6.5376   -1.7392    0.5225 C   0  0  0  0  0  0  0  0  0  0  0  0
    3.3653   -0.9425    0.0539 N   0  0  0  0  0  0  0  0  0  0  0  0
    3.1778   -2.3762    0.1868 C   0  0  0  0  0  0  0  0  0  0  0  0
    0.4407    0.5455    0.8014 H   0  0  0  0  0  0  0  0  0  0  0  0
    1.0517   -0.9192    1.6296 H   0  0  0  0  0  0  0  0  0  0  0  0
    0.5657   -1.0048   -0.0777 H   0  0  0  0  0  0  0  0  0  0  0  0
    3.5586    3.1361   -0.1911 H   0  0  0  0  0  0  0  0  0  0  0  0
    0.8530    4.9679   -0.7078 H   0  0  0  0  0  0  0  0  0  0  0  0
    1.9613    5.3219    2.1649 H   0  0  0  0  0  0  0  0  0  0  0  0
    0.2509    5.0443    1.7410 H   0  0  0  0  0  0  0  0  0  0  0  0
    1.0711    6.5392    1.2054 H   0  0  0  0  0  0  0  0  0  0  0  0
    6.0394    4.4985   -3.7258 H   0  0  0  0  0  0  0  0  0  0  0  0
    5.7405    3.8135   -2.0928 H   0  0  0  0  0  0  0  0  0  0  0  0
    5.8870    5.5967   -2.3164 H   0  0  0  0  0  0  0  0  0  0  0  0
    5.3084   -1.5393   -2.7329 H   0  0  0  0  0  0  0  0  0  0  0  0
    6.8471   -3.4396   -3.0000 H   0  0  0  0  0  0  0  0  0  0  0  0
    8.1891   -4.3080   -1.0464 H   0  0  0  0  0  0  0  0  0  0  0  0
    8.0014   -3.1439    1.1847 H   0  0  0  0  0  0  0  0  0  0  0  0
    6.4752   -1.2393    1.4934 H   0  0  0  0  0  0  0  0  0  0  0  0
    2.4005   -2.7123   -0.5145 H   0  0  0  0  0  0  0  0  0  0  0  0
    2.8728   -2.6137    1.2159 H   0  0  0  0  0  0  0  0  0  0  0  0
    4.1323   -2.8588   -0.0467 H   0  0  0  0  0  0  0  0  0  0  0  0
  1  2  1  0
  1 27  1  0
  1 28  1  0
  1 29  1  0
  2  3  2  0
  2 25  1  0
  3  4  1  0
  3 16  1  0
  4  5  1  0
  4 30  1  0
  5  6  2  0
  5  7  1  0
  7  8  1  0
  7  9  1  0
  7 31  1  6
  8 32  1  0
  8 33  1  0
  8 34  1  0
  9 10  1  0
 10 11  2  0
 10 14  1  0
 11 12  1  0
 12 13  2  0
 13 14  1  0
 14 15  1  0
 15 35  1  0
 15 36  1  0
 15 37  1  0
 16 17  2  0
 16 18  1  0
 18 19  1  0
 18 25  1  0
 19 20  2  0
 19 24  1  0
 20 21  1  0
 20 38  1  0
 21 22  2  0
 21 39  1  0
 22 23  1  0
 22 40  1  0
 23 24  2  0
 23 41  1  0
 24 42  1  0
 25 26  1  0
 26 43  1  0
 26 44  1  0
 26 45  1  0
M  END

