
     RDKit          3D

 37 37  0  0  0  0  0  0  0  0999 V2000
    1.4667   -0.2265    0.3866 C   0  0  0  0  0  0  0  0  0  0  0  0
    2.8356    0.4464    0.1984 C   0  0  0  0  0  0  0  0  0  0  0  0
    3.0534    0.9732   -1.2031 C   0  0  0  0  0  0  0  0  0  0  0  0
    2.6568    2.2736   -1.5584 C   0  0  0  0  0  0  0  0  0  0  0  0
    2.8307    2.7522   -2.8559 C   0  0  0  0  0  0  0  0  0  0  0  0
    3.3792    1.9317   -3.8539 C   0  0  0  0  0  0  0  0  0  0  0  0
    3.6318    2.5455   -5.2074 C   0  0  0  0  0  0  0  0  0  0  0  0
    4.0610    3.6925   -5.2812 O   0  0  0  0  0  0  0  0  0  0  0  0
    3.4174    1.7952   -6.3423 N   0  0  0  0  0  0  0  0  0  0  0  0
    2.5464    0.6256   -6.4301 C   0  0  0  0  0  0  0  0  0  0  0  0
    3.7967    2.4218   -7.6117 C   0  0  0  0  0  0  0  0  0  0  0  0
    5.3126    2.4807   -7.8479 C   0  0  0  0  0  0  0  0  0  0  0  0
    6.0241    1.1133   -7.8195 C   0  0  0  0  0  0  0  0  0  0  0  0
    5.5269    0.1678   -8.9010 C   0  0  0  0  0  0  0  0  0  0  0  0
    4.7350   -0.7192   -8.7191 O   0  0  0  0  0  0  0  0  0  0  0  0
    5.9908    0.4095  -10.1514 O   0  0  0  0  0  0  0  0  0  0  0  0
    3.7899    0.6360   -3.5042 C   0  0  0  0  0  0  0  0  0  0  0  0
    3.6321    0.1692   -2.1974 C   0  0  0  0  0  0  0  0  0  0  0  0
    1.3447   -0.5926    1.4188 H   0  0  0  0  0  0  0  0  0  0  0  0
    1.3487   -1.0849   -0.2940 H   0  0  0  0  0  0  0  0  0  0  0  0
    0.6453    0.4773    0.1770 H   0  0  0  0  0  0  0  0  0  0  0  0
    3.6323   -0.2756    0.4446 H   0  0  0  0  0  0  0  0  0  0  0  0
    2.9345    1.2762    0.9185 H   0  0  0  0  0  0  0  0  0  0  0  0
    2.2182    2.9276   -0.7987 H   0  0  0  0  0  0  0  0  0  0  0  0
    2.5546    3.7772   -3.1119 H   0  0  0  0  0  0  0  0  0  0  0  0
    2.1973    0.3274   -5.4365 H   0  0  0  0  0  0  0  0  0  0  0  0
    3.0706   -0.2185   -6.9046 H   0  0  0  0  0  0  0  0  0  0  0  0
    1.6561    0.8606   -7.0411 H   0  0  0  0  0  0  0  0  0  0  0  0
    3.4081    3.4529   -7.6357 H   0  0  0  0  0  0  0  0  0  0  0  0
    3.3052    1.8565   -8.4172 H   0  0  0  0  0  0  0  0  0  0  0  0
    5.7588    3.1286   -7.0793 H   0  0  0  0  0  0  0  0  0  0  0  0
    5.4854    2.9810   -8.8178 H   0  0  0  0  0  0  0  0  0  0  0  0
    5.8529    0.6225   -6.8517 H   0  0  0  0  0  0  0  0  0  0  0  0
    7.1127    1.2636   -7.9258 H   0  0  0  0  0  0  0  0  0  0  0  0
    6.6310    1.1350  -10.1406 H   0  0  0  0  0  0  0  0  0  0  0  0
    4.2606   -0.0094   -4.2497 H   0  0  0  0  0  0  0  0  0  0  0  0
    3.9746   -0.8383   -1.9432 H   0  0  0  0  0  0  0  0  0  0  0  0
  1  2  1  0
  1 19  1  0
  1 20  1  0
  1 21  1  0
  2  3  1  0
  2 22  1  0
  2 23  1  0
  3  4  2  0
  3 18  1  0
  4  5  1  0
  4 24  1  0
  5  6  2  0
  5 25  1  0
  6  7  1  0
  6 17  1  0
  7  8  2  0
  7  9  1  0
  9 10  1  0
  9 11  1  0
 10 26  1  0
 10 27  1  0
 10 28  1  0
 11 12  1  0
 11 29  1  0
 11 30  1  0
 12 13  1  0
 12 31  1  0
 12 32  1  0
 13 14  1  0
 13 33  1  0
 13 34  1  0
 14 15  2  0
 14 16  1  0
 16 35  1  0
 17 18  2  0
 17 36  1  0
 18 37  1  0
M  END

