
     RDKit          3D

 76 81  0  0  0  0  0  0  0  0999 V2000
    2.6430   -1.1243   -1.4829 C   0  0  0  0  0  0  0  0  0  0  0  0
    3.8181   -0.7879   -0.6061 C   0  0  0  0  0  0  0  0  0  0  0  0
    3.9330   -1.3705    0.6712 C   0  0  0  0  0  0  0  0  0  0  0  0
    5.0550   -1.1502    1.4629 C   0  0  0  0  0  0  0  0  0  0  0  0
    6.0886   -0.3445    0.9661 C   0  0  0  0  0  0  0  0  0  0  0  0
    7.6096   -0.2474    1.8817 S   0  0  1  0  0  0  0  0  0  0  0  0
    8.5341    0.6820    1.2126 O   0  0  0  0  0  0  0  0  0  0  0  0
    7.3577   -0.1488    3.3160 O   0  0  0  0  0  0  0  0  0  0  0  0
    8.1141   -1.8914    1.6177 N   0  0  0  0  0  0  0  0  0  0  0  0
    9.1432   -2.0728    0.8790 C   0  0  0  0  0  0  0  0  0  0  0  0
    9.5381   -3.4243    0.4734 C   0  0  0  0  0  0  0  0  0  0  0  0
   10.6038   -3.5550   -0.3805 C   0  0  0  0  0  0  0  0  0  0  0  0
   10.9346   -4.7733   -1.0604 C   0  0  0  0  0  0  0  0  0  0  0  0
   12.2053   -5.1277   -1.6080 C   0  0  0  0  0  0  0  0  0  0  0  0
   13.5186   -4.5517   -1.5026 C   0  0  0  0  0  0  0  0  0  0  0  0
   13.8476   -3.6144   -0.4888 C   0  0  0  0  0  0  0  0  0  0  0  0
   15.1250   -3.0690   -0.4221 C   0  0  0  0  0  0  0  0  0  0  0  0
   16.1037   -3.4440   -1.3520 C   0  0  0  0  0  0  0  0  0  0  0  0
   15.7997   -4.3831   -2.3488 C   0  0  0  0  0  0  0  0  0  0  0  0
   14.5288   -4.9371   -2.4243 C   0  0  0  0  0  0  0  0  0  0  0  0
   12.0728   -6.2415   -2.3367 O   0  0  0  0  0  0  0  0  0  0  0  0
   10.7528   -6.6702   -2.2736 C   0  0  0  0  0  0  0  0  0  0  0  0
   10.4593   -7.8910   -2.9778 C   0  0  0  0  0  0  0  0  0  0  0  0
    9.1872   -8.5148   -2.8831 C   0  0  0  0  0  0  0  0  0  0  0  0
    8.9405   -9.7160   -3.5406 C   0  0  0  0  0  0  0  0  0  0  0  0
    9.9358  -10.3214   -4.3177 C   0  0  0  0  0  0  0  0  0  0  0  0
   11.1968   -9.7171   -4.4225 C   0  0  0  0  0  0  0  0  0  0  0  0
   11.4605   -8.5224   -3.7638 C   0  0  0  0  0  0  0  0  0  0  0  0
    9.9964   -5.7742   -1.4963 C   0  0  0  0  0  0  0  0  0  0  0  0
    8.5593   -5.7210   -1.3247 C   0  0  0  0  0  0  0  0  0  0  0  0
    7.9115   -5.1319   -0.2451 C   0  0  0  0  0  0  0  0  0  0  0  0
    6.4925   -4.9705   -0.1957 C   0  0  0  0  0  0  0  0  0  0  0  0
    5.7091   -5.3668   -1.1904 N   0  0  0  0  0  0  0  0  0  0  0  0
    4.0796   -5.1190   -1.0224 S   0  0  1  0  0  0  0  0  0  0  0  0
    3.7079   -4.6165    0.3203 O   0  0  0  0  0  0  0  0  0  0  0  0
    3.6026   -4.3805   -2.2052 O   0  0  0  0  0  0  0  0  0  0  0  0
    3.4404   -6.7919   -1.1628 C   0  0  0  0  0  0  0  0  0  0  0  0
    3.1134   -7.5078   -0.0096 C   0  0  0  0  0  0  0  0  0  0  0  0
    2.6303   -8.8129   -0.1301 C   0  0  0  0  0  0  0  0  0  0  0  0
    2.4644   -9.4149   -1.3876 C   0  0  0  0  0  0  0  0  0  0  0  0
    1.9096  -10.8127   -1.5154 C   0  0  0  0  0  0  0  0  0  0  0  0
    2.7972   -8.6675   -2.5318 C   0  0  0  0  0  0  0  0  0  0  0  0
    3.2780   -7.3628   -2.4293 C   0  0  0  0  0  0  0  0  0  0  0  0
    8.7306   -4.6141    0.9247 C   0  0  0  0  0  0  0  0  0  0  0  0
    5.9953    0.2699   -0.2852 C   0  0  0  0  0  0  0  0  0  0  0  0
    4.8510    0.0537   -1.0542 C   0  0  0  0  0  0  0  0  0  0  0  0
    1.6958   -1.0716   -0.9229 H   0  0  0  0  0  0  0  0  0  0  0  0
    2.7524   -2.1608   -1.8484 H   0  0  0  0  0  0  0  0  0  0  0  0
    2.5740   -0.4532   -2.3518 H   0  0  0  0  0  0  0  0  0  0  0  0
    3.1533   -2.0478    1.0241 H   0  0  0  0  0  0  0  0  0  0  0  0
    5.1493   -1.6187    2.4441 H   0  0  0  0  0  0  0  0  0  0  0  0
    9.7240   -1.2217    0.4788 H   0  0  0  0  0  0  0  0  0  0  0  0
   11.2038   -2.6676   -0.6036 H   0  0  0  0  0  0  0  0  0  0  0  0
   13.1111   -3.3489    0.2690 H   0  0  0  0  0  0  0  0  0  0  0  0
   15.3668   -2.3557    0.3689 H   0  0  0  0  0  0  0  0  0  0  0  0
   17.1054   -3.0117   -1.2951 H   0  0  0  0  0  0  0  0  0  0  0  0
   16.5636   -4.6787   -3.0715 H   0  0  0  0  0  0  0  0  0  0  0  0
   14.2876   -5.6594   -3.2045 H   0  0  0  0  0  0  0  0  0  0  0  0
    8.4026   -8.0602   -2.2803 H   0  0  0  0  0  0  0  0  0  0  0  0
    7.9565  -10.1823   -3.4505 H   0  0  0  0  0  0  0  0  0  0  0  0
    9.7305  -11.2579   -4.8420 H   0  0  0  0  0  0  0  0  0  0  0  0
   11.9787  -10.1858   -5.0252 H   0  0  0  0  0  0  0  0  0  0  0  0
   12.4459   -8.0633   -3.8448 H   0  0  0  0  0  0  0  0  0  0  0  0
    7.9266   -6.1109   -2.1219 H   0  0  0  0  0  0  0  0  0  0  0  0
    6.0589   -4.5048    0.7002 H   0  0  0  0  0  0  0  0  0  0  0  0
    3.2307   -7.0335    0.9665 H   0  0  0  0  0  0  0  0  0  0  0  0
    2.3717   -9.3738    0.7728 H   0  0  0  0  0  0  0  0  0  0  0  0
    2.0288  -11.3836   -0.5823 H   0  0  0  0  0  0  0  0  0  0  0  0
    2.4041  -11.3722   -2.3252 H   0  0  0  0  0  0  0  0  0  0  0  0
    0.8311  -10.7902   -1.7513 H   0  0  0  0  0  0  0  0  0  0  0  0
    2.6691   -9.1151   -3.5220 H   0  0  0  0  0  0  0  0  0  0  0  0
    3.5194   -6.7761   -3.3175 H   0  0  0  0  0  0  0  0  0  0  0  0
    9.4161   -5.3979    1.2894 H   0  0  0  0  0  0  0  0  0  0  0  0
    8.0779   -4.3146    1.7532 H   0  0  0  0  0  0  0  0  0  0  0  0
    6.8145    0.8946   -0.6454 H   0  0  0  0  0  0  0  0  0  0  0  0
    4.7694    0.5266   -2.0366 H   0  0  0  0  0  0  0  0  0  0  0  0
  1  2  1  0
  1 47  1  0
  1 48  1  0
  1 49  1  0
  2  3  2  0
  2 46  1  0
  3  4  1  0
  3 50  1  0
  4  5  2  0
  4 51  1  0
  5  6  1  0
  5 45  1  0
  6  7  2  0
  6  8  2  0
  6  9  1  6
  9 10  2  0
 10 11  1  0
 10 52  1  0
 11 12  2  0
 11 44  1  0
 12 13  1  0
 12 53  1  0
 13 14  2  0
 13 29  1  0
 14 15  1  0
 14 21  1  0
 15 16  2  0
 15 20  1  0
 16 17  1  0
 16 54  1  0
 17 18  2  0
 17 55  1  0
 18 19  1  0
 18 56  1  0
 19 20  2  0
 19 57  1  0
 20 58  1  0
 21 22  1  0
 22 23  1  0
 22 29  2  0
 23 24  2  0
 23 28  1  0
 24 25  1  0
 24 59  1  0
 25 26  2  0
 25 60  1  0
 26 27  1  0
 26 61  1  0
 27 28  2  0
 27 62  1  0
 28 63  1  0
 29 30  1  0
 30 31  2  0
 30 64  1  0
 31 32  1  0
 31 44  1  0
 32 33  2  0
 32 65  1  0
 34 33  1  1
 34 35  2  0
 34 36  2  0
 34 37  1  0
 37 38  2  0
 37 43  1  0
 38 39  1  0
 38 66  1  0
 39 40  2  0
 39 67  1  0
 40 41  1  0
 40 42  1  0
 41 68  1  0
 41 69  1  0
 41 70  1  0
 42 43  2  0
 42 71  1  0
 43 72  1  0
 44 73  1  0
 44 74  1  0
 45 46  2  0
 45 75  1  0
 46 76  1  0
M  END

