
     RDKit          3D

 40 40  0  0  0  0  0  0  0  0999 V2000
    3.0595    3.5339    0.5489 C   0  0  0  0  0  0  0  0  0  0  0  0
    2.6012    2.0901    0.7564 C   0  0  0  0  0  0  0  0  0  0  0  0
    3.0333    1.1069   -0.3418 C   0  0  0  0  0  0  0  0  0  0  0  0
    4.4895    0.9527   -0.4784 N   0  0  0  0  0  0  0  0  0  0  0  0
    5.1352    0.0336    0.4718 C   0  0  0  0  0  0  0  0  0  0  0  0
    4.9644   -1.4551    0.1278 C   0  0  0  0  0  0  0  0  0  0  0  0
    5.6095   -1.8875   -1.1891 C   0  0  0  0  0  0  0  0  0  0  0  0
    5.0929    1.6425   -1.4828 C   0  0  0  0  0  0  0  0  0  0  0  0
    4.4721    2.3721   -2.2549 O   0  0  0  0  0  0  0  0  0  0  0  0
    6.6380    1.5496   -1.6975 C   0  0  0  0  0  0  0  0  0  0  0  0
    7.4397    0.9751   -0.9681 O   0  0  0  0  0  0  0  0  0  0  0  0
    6.9815    2.2129   -2.8205 N   0  0  0  0  0  0  0  0  0  0  0  0
    8.3541    2.3349   -3.2788 C   0  0  0  0  0  0  0  0  0  0  0  0
    9.0336    3.6155   -2.8198 C   0  0  0  0  0  0  0  0  0  0  0  0
    9.4246    3.7794   -1.4796 C   0  0  0  0  0  0  0  0  0  0  0  0
   10.0272    4.9779   -1.1000 C   0  0  0  0  0  0  0  0  0  0  0  0
   10.2222    5.9693   -2.0660 C   0  0  0  0  0  0  0  0  0  0  0  0
    9.8014    5.7092   -3.3724 C   0  0  0  0  0  0  0  0  0  0  0  0
    9.2210    4.5643   -3.7439 N   0  0  0  0  0  0  0  0  0  0  0  0
    2.6646    4.1874    1.3431 H   0  0  0  0  0  0  0  0  0  0  0  0
    2.7229    3.9281   -0.4222 H   0  0  0  0  0  0  0  0  0  0  0  0
    4.1579    3.6155    0.5711 H   0  0  0  0  0  0  0  0  0  0  0  0
    1.4982    2.0516    0.8017 H   0  0  0  0  0  0  0  0  0  0  0  0
    2.9500    1.7255    1.7395 H   0  0  0  0  0  0  0  0  0  0  0  0
    2.6435    1.4370   -1.3134 H   0  0  0  0  0  0  0  0  0  0  0  0
    2.6091    0.1131   -0.1277 H   0  0  0  0  0  0  0  0  0  0  0  0
    4.6906    0.2278    1.4619 H   0  0  0  0  0  0  0  0  0  0  0  0
    6.1981    0.2834    0.5271 H   0  0  0  0  0  0  0  0  0  0  0  0
    3.8922   -1.7213    0.1238 H   0  0  0  0  0  0  0  0  0  0  0  0
    5.4075   -2.0251    0.9634 H   0  0  0  0  0  0  0  0  0  0  0  0
    5.1615   -1.3627   -2.0489 H   0  0  0  0  0  0  0  0  0  0  0  0
    5.4712   -2.9672   -1.3585 H   0  0  0  0  0  0  0  0  0  0  0  0
    6.6889   -1.6725   -1.1951 H   0  0  0  0  0  0  0  0  0  0  0  0
    6.2221    2.7112   -3.2805 H   0  0  0  0  0  0  0  0  0  0  0  0
    8.3682    2.3217   -4.3775 H   0  0  0  0  0  0  0  0  0  0  0  0
    8.9012    1.4605   -2.8970 H   0  0  0  0  0  0  0  0  0  0  0  0
    9.2499    2.9733   -0.7633 H   0  0  0  0  0  0  0  0  0  0  0  0
   10.3450    5.1359   -0.0659 H   0  0  0  0  0  0  0  0  0  0  0  0
   10.6919    6.9233   -1.8156 H   0  0  0  0  0  0  0  0  0  0  0  0
    9.9400    6.4621   -4.1577 H   0  0  0  0  0  0  0  0  0  0  0  0
  1  2  1  0
  1 20  1  0
  1 21  1  0
  1 22  1  0
  2  3  1  0
  2 23  1  0
  2 24  1  0
  3  4  1  0
  3 25  1  0
  3 26  1  0
  4  5  1  0
  4  8  1  0
  5  6  1  0
  5 27  1  0
  5 28  1  0
  6  7  1  0
  6 29  1  0
  6 30  1  0
  7 31  1  0
  7 32  1  0
  7 33  1  0
  8  9  2  0
  8 10  1  0
 10 11  2  0
 10 12  1  0
 12 13  1  0
 12 34  1  0
 13 14  1  0
 13 35  1  0
 13 36  1  0
 14 15  2  0
 14 19  1  0
 15 16  1  0
 15 37  1  0
 16 17  2  0
 16 38  1  0
 17 18  1  0
 17 39  1  0
 18 19  2  0
 18 40  1  0
M  END

