
     RDKit          3D

 42 44  0  0  0  0  0  0  0  0999 V2000
    1.7556    0.6769   -1.2389 C   0  0  0  0  0  0  0  0  0  0  0  0
    2.5749    0.2569   -0.1718 O   0  0  0  0  0  0  0  0  0  0  0  0
    3.1377    1.1911    0.6301 C   0  0  0  0  0  0  0  0  0  0  0  0
    2.9816    2.5716    0.4896 C   0  0  0  0  0  0  0  0  0  0  0  0
    3.6184    3.4733    1.3728 C   0  0  0  0  0  0  0  0  0  0  0  0
    3.4220    4.9057    1.1578 C   0  0  0  0  0  0  0  0  0  0  0  0
    3.9394    5.9307    1.8667 C   0  0  0  0  0  0  0  0  0  0  0  0
    3.6334    7.3258    1.4930 C   0  0  0  0  0  0  0  0  0  0  0  0
    2.9262    7.6748    0.5701 O   0  0  0  0  0  0  0  0  0  0  0  0
    4.2555    8.1912    2.3266 O   0  0  0  0  0  0  0  0  0  0  0  0
    4.0679    9.6009    2.0888 C   0  0  0  0  0  0  0  0  0  0  0  0
    2.9047   10.1659    2.8706 C   0  0  0  0  0  0  0  0  0  0  0  0
    3.1106   10.7395    4.1342 C   0  0  0  0  0  0  0  0  0  0  0  0
    2.0386   11.2547    4.8683 C   0  0  0  0  0  0  0  0  0  0  0  0
    0.7438   11.2008    4.3445 C   0  0  0  0  0  0  0  0  0  0  0  0
    0.5273   10.6293    3.0861 C   0  0  0  0  0  0  0  0  0  0  0  0
    1.5996   10.1146    2.3533 C   0  0  0  0  0  0  0  0  0  0  0  0
    4.4034    2.9620    2.4171 C   0  0  0  0  0  0  0  0  0  0  0  0
    4.5590    1.5838    2.5700 C   0  0  0  0  0  0  0  0  0  0  0  0
    3.9451    0.6865    1.6764 C   0  0  0  0  0  0  0  0  0  0  0  0
    4.0999   -0.6616    1.7802 O   0  0  0  0  0  0  0  0  0  0  0  0
    5.1659   -1.0676    2.6246 C   0  0  0  0  0  0  0  0  0  0  0  0
    5.1609   -0.2508    3.9050 C   0  0  0  0  0  0  0  0  0  0  0  0
    5.3247    1.1268    3.6060 O   0  0  0  0  0  0  0  0  0  0  0  0
    1.4116   -0.2349   -1.7452 H   0  0  0  0  0  0  0  0  0  0  0  0
    2.3102    1.3009   -1.9630 H   0  0  0  0  0  0  0  0  0  0  0  0
    0.8758    1.2431   -0.8834 H   0  0  0  0  0  0  0  0  0  0  0  0
    2.3678    2.9744   -0.3155 H   0  0  0  0  0  0  0  0  0  0  0  0
    2.7778    5.1825    0.3156 H   0  0  0  0  0  0  0  0  0  0  0  0
    4.5957    5.7892    2.7275 H   0  0  0  0  0  0  0  0  0  0  0  0
    3.9297    9.7615    1.0107 H   0  0  0  0  0  0  0  0  0  0  0  0
    5.0096   10.0663    2.4114 H   0  0  0  0  0  0  0  0  0  0  0  0
    4.1230   10.7857    4.5463 H   0  0  0  0  0  0  0  0  0  0  0  0
    2.2151   11.7012    5.8504 H   0  0  0  0  0  0  0  0  0  0  0  0
   -0.0962   11.6049    4.9156 H   0  0  0  0  0  0  0  0  0  0  0  0
   -0.4835   10.5855    2.6720 H   0  0  0  0  0  0  0  0  0  0  0  0
    1.4344    9.6569    1.3754 H   0  0  0  0  0  0  0  0  0  0  0  0
    4.9033    3.6119    3.1358 H   0  0  0  0  0  0  0  0  0  0  0  0
    6.1316   -0.9376    2.1009 H   0  0  0  0  0  0  0  0  0  0  0  0
    5.0193   -2.1376    2.8322 H   0  0  0  0  0  0  0  0  0  0  0  0
    5.9941   -0.5372    4.5632 H   0  0  0  0  0  0  0  0  0  0  0  0
    4.2106   -0.4105    4.4486 H   0  0  0  0  0  0  0  0  0  0  0  0
  1  2  1  0
  1 25  1  0
  1 26  1  0
  1 27  1  0
  2  3  1  0
  3  4  2  0
  3 20  1  0
  4  5  1  0
  4 28  1  0
  5  6  1  0
  5 18  2  0
  6  7  2  0
  6 29  1  0
  7  8  1  0
  7 30  1  0
  8  9  2  0
  8 10  1  0
 10 11  1  0
 11 12  1  0
 11 31  1  0
 11 32  1  0
 12 13  2  0
 12 17  1  0
 13 14  1  0
 13 33  1  0
 14 15  2  0
 14 34  1  0
 15 16  1  0
 15 35  1  0
 16 17  2  0
 16 36  1  0
 17 37  1  0
 18 19  1  0
 18 38  1  0
 19 20  2  0
 19 24  1  0
 20 21  1  0
 21 22  1  0
 22 23  1  0
 22 39  1  0
 22 40  1  0
 23 24  1  0
 23 41  1  0
 23 42  1  0
M  END

