
     RDKit          3D

 48 52  0  0  0  0  0  0  0  0999 V2000
   13.1795   -2.9324    1.1741 O   0  0  0  0  0  0  0  0  0  0  0  0
   12.2485   -2.1892    0.9828 C   0  0  0  0  0  0  0  0  0  0  0  0
   11.3782   -1.6982    1.9886 N   0  0  0  0  0  0  0  0  0  0  0  0
   10.4019   -0.8654    1.4688 C   0  0  0  0  0  0  0  0  0  0  0  0
    9.3458   -0.1663    2.0199 C   0  0  0  0  0  0  0  0  0  0  0  0
    8.5404    0.6085    1.1383 C   0  0  0  0  0  0  0  0  0  0  0  0
    8.7674    0.6806   -0.2288 C   0  0  0  0  0  0  0  0  0  0  0  0
    7.6736    1.7038   -1.1957 S   0  0  1  0  0  0  0  0  0  0  0  0
    7.3078    1.0103   -2.4344 O   0  0  0  0  0  0  0  0  0  0  0  0
    6.6333    2.2343   -0.3054 O   0  0  0  0  0  0  0  0  0  0  0  0
    8.7209    2.9801   -1.6713 N   0  0  0  0  0  0  0  0  0  0  0  0
    8.3719    3.6874   -2.9163 C   0  0  1  0  0  0  0  0  0  0  0  0
    7.9075    2.9416   -3.5835 H   0  0  0  0  0  0  0  0  0  0  0  0
    7.3715    4.8503   -2.7225 C   0  0  0  0  0  0  0  0  0  0  0  0
    7.6987    5.7902   -1.5946 C   0  0  0  0  0  0  0  0  0  0  0  0
    7.2147    5.6879   -0.3041 C   0  0  0  0  0  0  0  0  0  0  0  0
    7.6986    6.7242    0.4649 N   0  0  0  0  0  0  0  0  0  0  0  0
    7.4677    6.8864    1.4355 H   0  0  0  0  0  0  0  0  0  0  0  0
    8.5084    7.5294   -0.3081 C   0  0  0  0  0  0  0  0  0  0  0  0
    9.2083    8.6985    0.0235 C   0  0  0  0  0  0  0  0  0  0  0  0
    9.9492    9.3113   -0.9825 C   0  0  0  0  0  0  0  0  0  0  0  0
    9.9957    8.7730   -2.2877 C   0  0  0  0  0  0  0  0  0  0  0  0
    9.3034    7.6119   -2.6156 C   0  0  0  0  0  0  0  0  0  0  0  0
    8.5414    6.9685   -1.6184 C   0  0  0  0  0  0  0  0  0  0  0  0
    9.6621    4.1050   -3.6528 C   0  0  0  0  0  0  0  0  0  0  0  0
    9.6637    4.9084   -4.5476 O   0  0  0  0  0  0  0  0  0  0  0  0
   10.7611    3.4517   -3.2635 O   0  0  0  0  0  0  0  0  0  0  0  0
    9.8473   -0.0501   -0.8374 C   0  0  0  0  0  0  0  0  0  0  0  0
   10.2475   -0.1501   -2.2015 C   0  0  0  0  0  0  0  0  0  0  0  0
   11.3496   -0.9237   -2.5584 C   0  0  0  0  0  0  0  0  0  0  0  0
   12.1171   -1.6536   -1.6129 C   0  0  0  0  0  0  0  0  0  0  0  0
   11.7320   -1.5771   -0.2881 C   0  0  0  0  0  0  0  0  0  0  0  0
   10.6254   -0.7907    0.0650 C   0  0  0  0  0  0  0  0  0  0  0  0
   11.4886   -1.9577    2.9615 H   0  0  0  0  0  0  0  0  0  0  0  0
    9.1176   -0.1895    3.0868 H   0  0  0  0  0  0  0  0  0  0  0  0
    7.6998    1.1729    1.5464 H   0  0  0  0  0  0  0  0  0  0  0  0
    8.7766    3.6423   -0.8877 H   0  0  0  0  0  0  0  0  0  0  0  0
    6.3810    4.4041   -2.5462 H   0  0  0  0  0  0  0  0  0  0  0  0
    7.3192    5.3916   -3.6787 H   0  0  0  0  0  0  0  0  0  0  0  0
    6.5395    4.9415    0.1133 H   0  0  0  0  0  0  0  0  0  0  0  0
    9.1719    9.1154    1.0333 H   0  0  0  0  0  0  0  0  0  0  0  0
   10.5061   10.2247   -0.7579 H   0  0  0  0  0  0  0  0  0  0  0  0
   10.5911    9.2783   -3.0521 H   0  0  0  0  0  0  0  0  0  0  0  0
    9.3611    7.1931   -3.6223 H   0  0  0  0  0  0  0  0  0  0  0  0
   10.5011    2.9018   -2.4961 H   0  0  0  0  0  0  0  0  0  0  0  0
    9.6788    0.3658   -2.9750 H   0  0  0  0  0  0  0  0  0  0  0  0
   11.6284   -0.9749   -3.6136 H   0  0  0  0  0  0  0  0  0  0  0  0
   12.9735   -2.2542   -1.9275 H   0  0  0  0  0  0  0  0  0  0  0  0
  1  2  2  0
  2  3  1  0
  2 32  1  0
  3  4  1  0
  3 34  1  0
  4  5  2  0
  4 33  1  0
  5  6  1  0
  5 35  1  0
  6  7  2  0
  6 36  1  0
  7  8  1  0
  7 28  1  0
  8  9  2  0
  8 10  2  0
  8 11  1  6
 11 12  1  0
 11 37  1  0
 12 13  1  6
 12 14  1  0
 12 25  1  0
 14 15  1  0
 14 38  1  0
 14 39  1  0
 15 16  2  0
 15 24  1  0
 16 17  1  0
 16 40  1  0
 17 18  1  0
 17 19  1  0
 19 20  1  0
 19 24  2  0
 20 21  2  0
 20 41  1  0
 21 22  1  0
 21 42  1  0
 22 23  2  0
 22 43  1  0
 23 24  1  0
 23 44  1  0
 25 26  2  0
 25 27  1  0
 27 45  1  0
 28 29  1  0
 28 33  2  0
 29 30  2  0
 29 46  1  0
 30 31  1  0
 30 47  1  0
 31 32  2  0
 31 48  1  0
 32 33  1  0
M  END

