
     RDKit          3D

 22 22  0  0  0  0  0  0  0  0999 V2000
    2.5405   -2.2855    0.1943 C   0  0  0  0  0  0  0  0  0  0  0  0
    3.2432   -0.9801    0.0607 C   0  0  0  0  0  0  0  0  0  0  0  0
    4.5165   -0.5658    0.3274 C   0  0  0  0  0  0  0  0  0  0  0  0
    4.4981    0.8211   -0.0358 C   0  0  0  0  0  0  0  0  0  0  0  0
    5.6014    1.6613    0.0646 N   0  0  0  0  0  0  0  0  0  0  0  0
    5.6629    3.0144   -0.1922 C   0  0  0  0  0  0  0  0  0  0  0  0
    4.7229    3.6906   -0.5412 O   0  0  0  0  0  0  0  0  0  0  0  0
    7.0796    3.6329   -0.0715 C   0  0  1  0  0  0  0  0  0  0  0  0
    7.0074    5.1430    0.1357 C   0  0  0  0  0  0  0  0  0  0  0  0
    8.2066    2.7923    1.1339 S   0  0  0  0  0  0  0  0  0  0  0  0
    3.3191    1.2002   -0.4801 N   0  0  0  0  0  0  0  0  0  0  0  0
    2.5323    0.0548   -0.4148 O   0  0  0  0  0  0  0  0  0  0  0  0
    3.2236   -3.0519    0.5839 H   0  0  0  0  0  0  0  0  0  0  0  0
    2.1518   -2.6211   -0.7805 H   0  0  0  0  0  0  0  0  0  0  0  0
    1.6812   -2.1978    0.8785 H   0  0  0  0  0  0  0  0  0  0  0  0
    5.3454   -1.1485    0.7211 H   0  0  0  0  0  0  0  0  0  0  0  0
    6.4541    1.2467    0.4322 H   0  0  0  0  0  0  0  0  0  0  0  0
    7.5785    3.4216   -1.0345 H   0  0  0  0  0  0  0  0  0  0  0  0
    6.5575    5.3858    1.1113 H   0  0  0  0  0  0  0  0  0  0  0  0
    6.3732    5.5938   -0.6404 H   0  0  0  0  0  0  0  0  0  0  0  0
    8.0118    5.5869    0.0930 H   0  0  0  0  0  0  0  0  0  0  0  0
    7.5220    3.1384    2.2512 H   0  0  0  0  0  0  0  0  0  0  0  0
  1  2  1  0
  1 13  1  0
  1 14  1  0
  1 15  1  0
  2  3  2  0
  2 12  1  0
  3  4  1  0
  3 16  1  0
  4  5  1  0
  4 11  2  0
  5  6  1  0
  5 17  1  0
  6  7  2  0
  6  8  1  0
  8  9  1  0
  8 10  1  0
  8 18  1  6
  9 19  1  0
  9 20  1  0
  9 21  1  0
 10 22  1  0
 11 12  1  0
M  END

