
     RDKit          3D

 60 63  0  0  0  0  0  0  0  0999 V2000
    1.6186    9.8161    3.2848 C   0  0  0  0  0  0  0  0  0  0  0  0
    1.7290    8.4956    3.7653 O   0  0  0  0  0  0  0  0  0  0  0  0
    2.5878    7.6393    3.1551 C   0  0  0  0  0  0  0  0  0  0  0  0
    3.3936    7.9619    2.0576 C   0  0  0  0  0  0  0  0  0  0  0  0
    4.2481    6.9952    1.5050 C   0  0  0  0  0  0  0  0  0  0  0  0
    4.3274    5.6997    2.0258 C   0  0  0  0  0  0  0  0  0  0  0  0
    5.2292    4.6055    1.4543 C   0  0  1  0  0  0  0  0  0  0  0  0
    5.8316    4.9268    0.0591 C   0  0  0  0  0  0  0  0  0  0  0  0
    6.8541    6.0565   -0.0660 C   0  0  0  0  0  0  0  0  0  0  0  0
    6.8260    6.8664   -0.9565 O   0  0  0  0  0  0  0  0  0  0  0  0
    7.8386    6.0781    0.8498 O   0  0  0  0  0  0  0  0  0  0  0  0
    6.2681    4.1144    2.4490 C   0  0  0  0  0  0  0  0  0  0  0  0
    6.7542    4.7718    3.5614 C   0  0  0  0  0  0  0  0  0  0  0  0
    7.6789    3.9793    4.2134 N   0  0  0  0  0  0  0  0  0  0  0  0
    8.1795    4.2410    5.0518 H   0  0  0  0  0  0  0  0  0  0  0  0
    7.8149    2.7831    3.5436 C   0  0  0  0  0  0  0  0  0  0  0  0
    8.6199    1.6771    3.8280 C   0  0  0  0  0  0  0  0  0  0  0  0
    8.5439    0.5758    2.9687 C   0  0  0  0  0  0  0  0  0  0  0  0
    9.3454   -0.4757    3.2855 O   0  0  0  0  0  0  0  0  0  0  0  0
    9.3648   -1.6348    2.4697 C   0  0  0  0  0  0  0  0  0  0  0  0
   10.3578   -2.6232    3.0615 C   0  0  0  0  0  0  0  0  0  0  0  0
    9.9790   -3.1005    4.4721 C   0  0  0  0  0  0  0  0  0  0  0  0
   10.8722   -4.1026    5.0174 N   0  0  0  0  0  0  0  0  0  0  0  0
   12.0536   -3.8105    5.6544 C   0  0  0  0  0  0  0  0  0  0  0  0
   12.9212   -4.8522    6.0767 C   0  0  0  0  0  0  0  0  0  0  0  0
   14.0908   -4.5125    6.7392 C   0  0  0  0  0  0  0  0  0  0  0  0
   14.3865   -3.1610    6.9759 C   0  0  0  0  0  0  0  0  0  0  0  0
   13.4695   -2.2162    6.5191 C   0  0  0  0  0  0  0  0  0  0  0  0
   12.3397   -2.5200    5.8746 N   0  0  0  0  0  0  0  0  0  0  0  0
    7.6731    0.5909    1.8500 C   0  0  0  0  0  0  0  0  0  0  0  0
    6.8799    1.7036    1.5793 C   0  0  0  0  0  0  0  0  0  0  0  0
    6.9381    2.8275    2.4204 C   0  0  0  0  0  0  0  0  0  0  0  0
    3.5003    5.3934    3.1269 C   0  0  0  0  0  0  0  0  0  0  0  0
    2.6475    6.3362    3.6847 C   0  0  0  0  0  0  0  0  0  0  0  0
    0.8804   10.3213    3.9223 H   0  0  0  0  0  0  0  0  0  0  0  0
    1.2661    9.8459    2.2378 H   0  0  0  0  0  0  0  0  0  0  0  0
    2.5787   10.3597    3.3495 H   0  0  0  0  0  0  0  0  0  0  0  0
    3.3707    8.9571    1.6134 H   0  0  0  0  0  0  0  0  0  0  0  0
    4.8467    7.2890    0.6418 H   0  0  0  0  0  0  0  0  0  0  0  0
    4.5712    3.7371    1.2663 H   0  0  0  0  0  0  0  0  0  0  0  0
    5.0303    5.1552   -0.6566 H   0  0  0  0  0  0  0  0  0  0  0  0
    6.3382    4.0175   -0.3084 H   0  0  0  0  0  0  0  0  0  0  0  0
    7.6750    5.4054    1.5388 H   0  0  0  0  0  0  0  0  0  0  0  0
    6.4860    5.7522    3.9498 H   0  0  0  0  0  0  0  0  0  0  0  0
    9.2951    1.6405    4.6845 H   0  0  0  0  0  0  0  0  0  0  0  0
    9.6572   -1.3701    1.4363 H   0  0  0  0  0  0  0  0  0  0  0  0
    8.3522   -2.0826    2.4232 H   0  0  0  0  0  0  0  0  0  0  0  0
   11.3558   -2.1577    3.0982 H   0  0  0  0  0  0  0  0  0  0  0  0
   10.4241   -3.4883    2.3783 H   0  0  0  0  0  0  0  0  0  0  0  0
    8.9578   -3.5205    4.4628 H   0  0  0  0  0  0  0  0  0  0  0  0
    9.9765   -2.2374    5.1506 H   0  0  0  0  0  0  0  0  0  0  0  0
   10.7282   -5.0654    4.7432 H   0  0  0  0  0  0  0  0  0  0  0  0
   12.6639   -5.8974    5.8853 H   0  0  0  0  0  0  0  0  0  0  0  0
   14.7742   -5.2978    7.0742 H   0  0  0  0  0  0  0  0  0  0  0  0
   15.2975   -2.8546    7.4931 H   0  0  0  0  0  0  0  0  0  0  0  0
   13.6573   -1.1468    6.6768 H   0  0  0  0  0  0  0  0  0  0  0  0
    7.6149   -0.2725    1.1880 H   0  0  0  0  0  0  0  0  0  0  0  0
    6.2132    1.6868    0.7132 H   0  0  0  0  0  0  0  0  0  0  0  0
    3.5293    4.3874    3.5552 H   0  0  0  0  0  0  0  0  0  0  0  0
    2.0068    6.0914    4.5345 H   0  0  0  0  0  0  0  0  0  0  0  0
  1  2  1  0
  1 35  1  0
  1 36  1  0
  1 37  1  0
  2  3  1  0
  3  4  2  0
  3 34  1  0
  4  5  1  0
  4 38  1  0
  5  6  2  0
  5 39  1  0
  6  7  1  0
  6 33  1  0
  7  8  1  0
  7 12  1  0
  7 40  1  6
  8  9  1  0
  8 41  1  0
  8 42  1  0
  9 10  2  0
  9 11  1  0
 11 43  1  0
 12 13  2  0
 12 32  1  0
 13 14  1  0
 13 44  1  0
 14 15  1  0
 14 16  1  0
 16 17  1  0
 16 32  2  0
 17 18  2  0
 17 45  1  0
 18 19  1  0
 18 30  1  0
 19 20  1  0
 20 21  1  0
 20 46  1  0
 20 47  1  0
 21 22  1  0
 21 48  1  0
 21 49  1  0
 22 23  1  0
 22 50  1  0
 22 51  1  0
 23 24  1  0
 23 52  1  0
 24 25  2  0
 24 29  1  0
 25 26  1  0
 25 53  1  0
 26 27  2  0
 26 54  1  0
 27 28  1  0
 27 55  1  0
 28 29  2  0
 28 56  1  0
 30 31  2  0
 30 57  1  0
 31 32  1  0
 31 58  1  0
 33 34  2  0
 33 59  1  0
 34 60  1  0
M  END

