
     RDKit          3D

 58 61  0  0  0  0  0  0  0  0999 V2000
    6.7621    3.6788    2.4978 C   0  0  0  0  0  0  0  0  0  0  0  0
    6.1019    2.4475    2.2170 O   0  0  0  0  0  0  0  0  0  0  0  0
    4.9465    2.4639    1.5293 C   0  0  0  0  0  0  0  0  0  0  0  0
    4.3382    3.6149    1.0819 C   0  0  0  0  0  0  0  0  0  0  0  0
    3.1074    3.5577    0.3533 C   0  0  0  0  0  0  0  0  0  0  0  0
    2.5111    4.6890   -0.1118 N   0  0  0  0  0  0  0  0  0  0  0  0
    1.3099    4.6833   -0.9832 C   0  0  0  0  0  0  0  0  0  0  0  0
    1.3302    6.0725   -1.6520 C   0  0  2  0  0  0  0  0  0  0  0  0
    2.2856    6.0246   -2.8597 C   0  0  0  0  0  0  0  0  0  0  0  0
    3.4918    6.1163   -2.6289 O   0  0  0  0  0  0  0  0  0  0  0  0
    1.7341    5.8303   -4.0940 N   0  0  0  0  0  0  0  0  0  0  0  0
    2.5786    5.7786   -5.2554 C   0  0  0  0  0  0  0  0  0  0  0  0
    2.2828    4.8502   -6.2655 C   0  0  0  0  0  0  0  0  0  0  0  0
    3.0593    4.7961   -7.4242 C   0  0  0  0  0  0  0  0  0  0  0  0
    4.1378    5.6693   -7.5980 C   0  0  0  0  0  0  0  0  0  0  0  0
    4.4313    6.5961   -6.5943 C   0  0  0  0  0  0  0  0  0  0  0  0
    3.6629    6.6539   -5.4287 C   0  0  0  0  0  0  0  0  0  0  0  0
    0.3312    5.5339   -4.2835 C   0  0  0  0  0  0  0  0  0  0  0  0
   -0.2282    4.4676   -3.6368 N   0  0  0  0  0  0  0  0  0  0  0  0
   -1.5509    4.6389   -3.4669 C   0  0  0  0  0  0  0  0  0  0  0  0
   -2.3947    3.4939   -2.9645 C   0  0  0  0  0  0  0  0  0  0  0  0
   -2.0808    5.8833   -3.7947 C   0  0  0  0  0  0  0  0  0  0  0  0
   -0.8173    6.9573   -4.4072 S   0  0  0  0  0  0  0  0  0  0  0  0
    1.9557    6.9459   -0.5602 C   0  0  0  0  0  0  0  0  0  0  0  0
    2.9384    6.0401    0.1389 C   0  0  0  0  0  0  0  0  0  0  0  0
    3.8674    6.3479    0.8406 O   0  0  0  0  0  0  0  0  0  0  0  0
    2.4995    2.2952    0.1296 C   0  0  0  0  0  0  0  0  0  0  0  0
    3.0817    1.1247    0.5851 C   0  0  0  0  0  0  0  0  0  0  0  0
    2.4441   -0.0099    0.2873 O   0  0  0  0  0  0  0  0  0  0  0  0
    2.5086   -1.2184    1.0445 C   0  0  0  0  0  0  0  0  0  0  0  0
    4.3585    1.1714    1.2654 C   0  0  0  0  0  0  0  0  0  0  0  0
    4.8881    0.0001    1.5749 O   0  0  0  0  0  0  0  0  0  0  0  0
    6.2036   -0.2406    2.0967 C   0  0  0  0  0  0  0  0  0  0  0  0
    7.6716    3.4155    3.0506 H   0  0  0  0  0  0  0  0  0  0  0  0
    6.1283    4.3342    3.1161 H   0  0  0  0  0  0  0  0  0  0  0  0
    7.0305    4.2035    1.5673 H   0  0  0  0  0  0  0  0  0  0  0  0
    4.7707    4.5908    1.2698 H   0  0  0  0  0  0  0  0  0  0  0  0
    0.4088    4.5464   -0.3638 H   0  0  0  0  0  0  0  0  0  0  0  0
    1.3377    3.8823   -1.7283 H   0  0  0  0  0  0  0  0  0  0  0  0
    0.3215    6.3843   -1.9304 H   0  0  0  0  0  0  0  0  0  0  0  0
    1.4272    4.1891   -6.1269 H   0  0  0  0  0  0  0  0  0  0  0  0
    2.8141    4.0657   -8.2003 H   0  0  0  0  0  0  0  0  0  0  0  0
    4.7408    5.6305   -8.5091 H   0  0  0  0  0  0  0  0  0  0  0  0
    5.2664    7.2912   -6.7180 H   0  0  0  0  0  0  0  0  0  0  0  0
    3.9077    7.3757   -4.6517 H   0  0  0  0  0  0  0  0  0  0  0  0
   -1.8899    2.9629   -2.1413 H   0  0  0  0  0  0  0  0  0  0  0  0
   -2.5754    2.7501   -3.7602 H   0  0  0  0  0  0  0  0  0  0  0  0
   -3.3754    3.8415   -2.6043 H   0  0  0  0  0  0  0  0  0  0  0  0
   -3.1103    6.2183   -3.6941 H   0  0  0  0  0  0  0  0  0  0  0  0
    1.1967    7.2433    0.1854 H   0  0  0  0  0  0  0  0  0  0  0  0
    2.4674    7.8482   -0.9129 H   0  0  0  0  0  0  0  0  0  0  0  0
    1.5578    2.2019   -0.4027 H   0  0  0  0  0  0  0  0  0  0  0  0
    1.5940   -1.7687    0.7903 H   0  0  0  0  0  0  0  0  0  0  0  0
    2.5258   -1.0171    2.1260 H   0  0  0  0  0  0  0  0  0  0  0  0
    3.3867   -1.8172    0.7672 H   0  0  0  0  0  0  0  0  0  0  0  0
    6.3066   -1.3319    2.1010 H   0  0  0  0  0  0  0  0  0  0  0  0
    6.2952    0.1600    3.1133 H   0  0  0  0  0  0  0  0  0  0  0  0
    6.9643    0.2141    1.4504 H   0  0  0  0  0  0  0  0  0  0  0  0
  1  2  1  0
  1 34  1  0
  1 35  1  0
  1 36  1  0
  2  3  1  0
  3  4  2  0
  3 31  1  0
  4  5  1  0
  4 37  1  0
  5  6  1  0
  5 27  2  0
  6  7  1  0
  6 25  1  0
  7  8  1  0
  7 38  1  0
  7 39  1  0
  8  9  1  0
  8 24  1  0
  8 40  1  6
  9 10  2  0
  9 11  1  0
 11 12  1  0
 11 18  1  0
 12 13  2  0
 12 17  1  0
 13 14  1  0
 13 41  1  0
 14 15  2  0
 14 42  1  0
 15 16  1  0
 15 43  1  0
 16 17  2  0
 16 44  1  0
 17 45  1  0
 18 19  2  0
 18 23  1  0
 19 20  1  0
 20 21  1  0
 20 22  2  0
 21 46  1  0
 21 47  1  0
 21 48  1  0
 22 23  1  0
 22 49  1  0
 24 25  1  0
 24 50  1  0
 24 51  1  0
 25 26  2  0
 27 28  1  0
 27 52  1  0
 28 29  1  0
 28 31  2  0
 29 30  1  0
 30 53  1  0
 30 54  1  0
 30 55  1  0
 31 32  1  0
 32 33  1  0
 33 56  1  0
 33 57  1  0
 33 58  1  0
M  END

