
     RDKit          3D

 49 50  0  0  0  0  0  0  0  0999 V2000
    2.5589    1.3852    2.9425 C   0  0  0  0  0  0  0  0  0  0  0  0
    2.5760    0.5011    1.6958 C   0  0  0  0  0  0  0  0  0  0  0  0
    3.4674    1.0551    0.5583 C   0  0  0  0  0  0  0  0  0  0  0  0
    4.9322    1.1549    0.8322 C   0  0  0  0  0  0  0  0  0  0  0  0
    5.5488    2.2635    1.2836 N   0  0  0  0  0  0  0  0  0  0  0  0
    6.8503    2.0235    1.1836 C   0  0  0  0  0  0  0  0  0  0  0  0
    7.1648    0.7403    0.6795 C   0  0  0  0  0  0  0  0  0  0  0  0
    5.8898    0.1939    0.3395 N   0  0  0  0  0  0  0  0  0  0  0  0
    5.6507   -1.2373    0.3645 C   0  0  0  0  0  0  0  0  0  0  0  0
    5.8467   -1.8909   -1.0022 C   0  0  0  0  0  0  0  0  0  0  0  0
    5.6218   -3.2739   -0.8755 O   0  0  0  0  0  0  0  0  0  0  0  0
    5.7301   -3.9984   -2.0776 C   0  0  0  0  0  0  0  0  0  0  0  0
    5.4622   -5.4731   -1.8056 C   0  0  0  0  0  0  0  0  0  0  0  0
    4.0822   -5.7952   -1.2018 C   0  0  1  0  0  0  0  0  0  0  0  0
    2.9257   -5.4187   -2.1368 C   0  0  0  0  0  0  0  0  0  0  0  0
    4.0054   -7.2742   -0.8039 C   0  0  0  0  0  0  0  0  0  0  0  0
    8.4568    0.4593   -0.0080 C   0  0  0  0  0  0  0  0  0  0  0  0
    9.5625    1.3026    0.7034 C   0  0  0  0  0  0  0  0  0  0  0  0
    9.0765    2.6603    0.8282 N   0  0  0  0  0  0  0  0  0  0  0  0
    7.9478    2.9198    1.7155 C   0  0  0  0  0  0  0  0  0  0  0  0
    1.9452    0.9420    3.7442 H   0  0  0  0  0  0  0  0  0  0  0  0
    2.1456    2.3826    2.7143 H   0  0  0  0  0  0  0  0  0  0  0  0
    3.5790    1.5376    3.3282 H   0  0  0  0  0  0  0  0  0  0  0  0
    1.5456    0.3856    1.3088 H   0  0  0  0  0  0  0  0  0  0  0  0
    2.9180   -0.5138    1.9675 H   0  0  0  0  0  0  0  0  0  0  0  0
    3.0985    2.0680    0.3059 H   0  0  0  0  0  0  0  0  0  0  0  0
    3.3118    0.4328   -0.3447 H   0  0  0  0  0  0  0  0  0  0  0  0
    4.6184   -1.4339    0.6949 H   0  0  0  0  0  0  0  0  0  0  0  0
    6.3199   -1.7274    1.1024 H   0  0  0  0  0  0  0  0  0  0  0  0
    6.8716   -1.6943   -1.3838 H   0  0  0  0  0  0  0  0  0  0  0  0
    5.1471   -1.4362   -1.7336 H   0  0  0  0  0  0  0  0  0  0  0  0
    6.7466   -3.8784   -2.5105 H   0  0  0  0  0  0  0  0  0  0  0  0
    5.0215   -3.5981   -2.8329 H   0  0  0  0  0  0  0  0  0  0  0  0
    6.2454   -5.8391   -1.1190 H   0  0  0  0  0  0  0  0  0  0  0  0
    5.5929   -6.0270   -2.7540 H   0  0  0  0  0  0  0  0  0  0  0  0
    3.9875   -5.1875   -0.2853 H   0  0  0  0  0  0  0  0  0  0  0  0
    2.9907   -5.9675   -3.0932 H   0  0  0  0  0  0  0  0  0  0  0  0
    2.9128   -4.3420   -2.3672 H   0  0  0  0  0  0  0  0  0  0  0  0
    1.9537   -5.6653   -1.6796 H   0  0  0  0  0  0  0  0  0  0  0  0
    4.1095   -7.9299   -1.6865 H   0  0  0  0  0  0  0  0  0  0  0  0
    3.0408   -7.5122   -0.3267 H   0  0  0  0  0  0  0  0  0  0  0  0
    4.8053   -7.5434   -0.0947 H   0  0  0  0  0  0  0  0  0  0  0  0
    8.4834    0.7497   -1.0914 H   0  0  0  0  0  0  0  0  0  0  0  0
    8.7817   -0.5941    0.0288 H   0  0  0  0  0  0  0  0  0  0  0  0
   10.4999    1.3085    0.1296 H   0  0  0  0  0  0  0  0  0  0  0  0
    9.7397    0.9159    1.7153 H   0  0  0  0  0  0  0  0  0  0  0  0
    9.0948    3.2099   -0.0324 H   0  0  0  0  0  0  0  0  0  0  0  0
    7.6710    3.9819    1.6658 H   0  0  0  0  0  0  0  0  0  0  0  0
    8.2701    2.6705    2.7414 H   0  0  0  0  0  0  0  0  0  0  0  0
  1  2  1  0
  1 21  1  0
  1 22  1  0
  1 23  1  0
  2  3  1  0
  2 24  1  0
  2 25  1  0
  3  4  1  0
  3 26  1  0
  3 27  1  0
  4  5  2  0
  4  8  1  0
  5  6  1  0
  6  7  2  0
  6 20  1  0
  7  8  1  0
  7 17  1  0
  8  9  1  0
  9 10  1  0
  9 28  1  0
  9 29  1  0
 10 11  1  0
 10 30  1  0
 10 31  1  0
 11 12  1  0
 12 13  1  0
 12 32  1  0
 12 33  1  0
 13 14  1  0
 13 34  1  0
 13 35  1  0
 14 15  1  0
 14 16  1  0
 14 36  1  1
 15 37  1  0
 15 38  1  0
 15 39  1  0
 16 40  1  0
 16 41  1  0
 16 42  1  0
 17 18  1  0
 17 43  1  0
 17 44  1  0
 18 19  1  0
 18 45  1  0
 18 46  1  0
 19 20  1  0
 19 47  1  0
 20 48  1  0
 20 49  1  0
M  END

