
     RDKit          3D

 26 26  0  0  0  0  0  0  0  0999 V2000
    0.9895   -0.0277    0.3802 C   0  0  0  0  0  0  0  0  0  0  0  0
    2.5090   -0.0300    0.1583 C   0  0  1  0  0  0  0  0  0  0  0  0
    3.2156    0.6568    1.3351 C   0  0  0  0  0  0  0  0  0  0  0  0
    3.0356   -1.4724   -0.0610 C   0  0  1  0  0  0  0  0  0  0  0  0
    2.3925   -2.2181   -1.2363 C   0  0  0  0  0  0  0  0  0  0  0  0
    4.5052   -1.4926   -0.2014 N   0  0  0  0  0  0  0  0  0  0  0  0
    5.1991   -0.8842   -1.2401 C   0  0  0  0  0  0  0  0  0  0  0  0
    4.7304   -0.2483   -2.1542 O   0  0  0  0  0  0  0  0  0  0  0  0
    6.6795   -1.1846   -0.9978 C   0  0  0  0  0  0  0  0  0  0  0  0
    6.6297   -1.9632    0.2141 N   0  0  0  0  0  0  0  0  0  0  0  0
    5.3682   -2.1624    0.6783 C   0  0  0  0  0  0  0  0  0  0  0  0
    4.9509   -3.0344    2.0206 S   0  0  0  0  0  0  0  0  0  0  0  0
    0.6358    0.9949    0.5860 H   0  0  0  0  0  0  0  0  0  0  0  0
    0.7108   -0.6542    1.2454 H   0  0  0  0  0  0  0  0  0  0  0  0
    0.4345   -0.3941   -0.4959 H   0  0  0  0  0  0  0  0  0  0  0  0
    2.7227    0.5446   -0.7590 H   0  0  0  0  0  0  0  0  0  0  0  0
    3.0445    0.1106    2.2776 H   0  0  0  0  0  0  0  0  0  0  0  0
    2.8374    1.6831    1.4657 H   0  0  0  0  0  0  0  0  0  0  0  0
    4.3040    0.7257    1.1851 H   0  0  0  0  0  0  0  0  0  0  0  0
    2.8565   -2.0469    0.8619 H   0  0  0  0  0  0  0  0  0  0  0  0
    2.5223   -1.6689   -2.1804 H   0  0  0  0  0  0  0  0  0  0  0  0
    1.3175   -2.3628   -1.0602 H   0  0  0  0  0  0  0  0  0  0  0  0
    2.8453   -3.2159   -1.3438 H   0  0  0  0  0  0  0  0  0  0  0  0
    7.2407   -0.2392   -0.8939 H   0  0  0  0  0  0  0  0  0  0  0  0
    7.0958   -1.7343   -1.8606 H   0  0  0  0  0  0  0  0  0  0  0  0
    7.4200   -2.3826    0.6860 H   0  0  0  0  0  0  0  0  0  0  0  0
  1  2  1  0
  1 13  1  0
  1 14  1  0
  1 15  1  0
  2  3  1  0
  2  4  1  0
  2 16  1  6
  3 17  1  0
  3 18  1  0
  3 19  1  0
  4  5  1  0
  4  6  1  0
  4 20  1  1
  5 21  1  0
  5 22  1  0
  5 23  1  0
  6  7  1  0
  6 11  1  0
  7  8  2  0
  7  9  1  0
  9 10  1  0
  9 24  1  0
  9 25  1  0
 10 11  1  0
 10 26  1  0
 11 12  2  0
M  END

