
     RDKit          3D

 43 46  0  0  0  0  0  0  0  0999 V2000
    0.9400    0.0599   -0.5210 C   0  0  0  0  0  0  0  0  0  0  0  0
    2.3490   -0.0824    0.0421 C   0  0  2  0  0  0  0  0  0  0  0  0
    3.0502   -0.3151   -0.7813 H   0  0  0  0  0  0  0  0  0  0  0  0
    2.4415   -1.1905    1.0944 C   0  0  0  0  0  0  0  0  0  0  0  0
    3.7519   -1.2589    1.7542 N   0  0  0  0  0  0  0  0  0  0  0  0
    4.2239   -2.5275    2.1991 C   0  0  0  0  0  0  0  0  0  0  0  0
    5.6011   -2.8098    2.2556 C   0  0  0  0  0  0  0  0  0  0  0  0
    6.0366   -4.0683    2.6698 C   0  0  0  0  0  0  0  0  0  0  0  0
    5.1311   -5.0722    3.0277 C   0  0  0  0  0  0  0  0  0  0  0  0
    3.7748   -4.7742    2.9649 C   0  0  0  0  0  0  0  0  0  0  0  0
    2.8771   -5.7118    3.3065 F   0  0  0  0  0  0  0  0  0  0  0  0
    3.3050   -3.5254    2.5650 C   0  0  0  0  0  0  0  0  0  0  0  0
    4.3612   -0.0791    2.1976 C   0  0  0  0  0  0  0  0  0  0  0  0
    5.3233   -0.0487    2.9406 O   0  0  0  0  0  0  0  0  0  0  0  0
    3.7571    1.1601    1.6619 C   0  0  0  0  0  0  0  0  0  0  0  0
    4.0309    2.4951    1.9269 C   0  0  0  0  0  0  0  0  0  0  0  0
    3.1930    3.2060    1.0371 C   0  0  0  0  0  0  0  0  0  0  0  0
    3.0255    4.6854    0.8908 C   0  0  0  0  0  0  0  0  0  0  0  0
    4.3259    5.2741    0.7994 O   0  0  0  0  0  0  0  0  0  0  0  0
    4.4093    6.6140    0.7124 C   0  0  0  0  0  0  0  0  0  0  0  0
    5.7024    7.1758    0.6438 C   0  0  0  0  0  0  0  0  0  0  0  0
    5.8098    8.5546    0.5522 C   0  0  0  0  0  0  0  0  0  0  0  0
    4.6353    9.3237    0.5326 C   0  0  0  0  0  0  0  0  0  0  0  0
    4.7107   11.0639    0.4204 Cl  0  0  0  0  0  0  0  0  0  0  0  0
    3.4054    8.6732    0.6050 C   0  0  0  0  0  0  0  0  0  0  0  0
    3.3022    7.3425    0.6926 N   0  0  0  0  0  0  0  0  0  0  0  0
    2.4713    2.3704    0.2792 N   0  0  0  0  0  0  0  0  0  0  0  0
    2.8051    1.1471    0.6836 N   0  0  0  0  0  0  0  0  0  0  0  0
    0.6480   -0.8674   -1.0367 H   0  0  0  0  0  0  0  0  0  0  0  0
    0.8976    0.8914   -1.2361 H   0  0  0  0  0  0  0  0  0  0  0  0
    0.2129    0.2638    0.2804 H   0  0  0  0  0  0  0  0  0  0  0  0
    2.2620   -2.1515    0.5955 H   0  0  0  0  0  0  0  0  0  0  0  0
    1.6335   -1.0449    1.8368 H   0  0  0  0  0  0  0  0  0  0  0  0
    6.3233   -2.0423    1.9867 H   0  0  0  0  0  0  0  0  0  0  0  0
    7.1089   -4.2747    2.7080 H   0  0  0  0  0  0  0  0  0  0  0  0
    5.4554   -6.0634    3.3483 H   0  0  0  0  0  0  0  0  0  0  0  0
    2.2285   -3.3561    2.5687 H   0  0  0  0  0  0  0  0  0  0  0  0
    4.7407    2.8822    2.6523 H   0  0  0  0  0  0  0  0  0  0  0  0
    2.4900    5.1227    1.7508 H   0  0  0  0  0  0  0  0  0  0  0  0
    2.4304    4.9081   -0.0080 H   0  0  0  0  0  0  0  0  0  0  0  0
    6.5780    6.5253    0.6641 H   0  0  0  0  0  0  0  0  0  0  0  0
    6.7853    9.0417    0.4967 H   0  0  0  0  0  0  0  0  0  0  0  0
    2.4754    9.2509    0.5912 H   0  0  0  0  0  0  0  0  0  0  0  0
  1  2  1  0
  1 29  1  0
  1 30  1  0
  1 31  1  0
  2  3  1  6
  2  4  1  0
  2 28  1  0
  4  5  1  0
  4 32  1  0
  4 33  1  0
  5  6  1  0
  5 13  1  0
  6  7  2  0
  6 12  1  0
  7  8  1  0
  7 34  1  0
  8  9  2  0
  8 35  1  0
  9 10  1  0
  9 36  1  0
 10 11  1  0
 10 12  2  0
 12 37  1  0
 13 14  2  0
 13 15  1  0
 15 16  2  0
 15 28  1  0
 16 17  1  0
 16 38  1  0
 17 18  1  0
 17 27  2  0
 18 19  1  0
 18 39  1  0
 18 40  1  0
 19 20  1  0
 20 21  2  0
 20 26  1  0
 21 22  1  0
 21 41  1  0
 22 23  2  0
 22 42  1  0
 23 24  1  0
 23 25  1  0
 25 26  2  0
 25 43  1  0
 27 28  1  0
M  END

