
     RDKit          3D

 66 70  0  0  0  0  0  0  0  0999 V2000
    2.0521   -0.6128    2.3223 C   0  0  0  0  0  0  0  0  0  0  0  0
    1.7920   -0.8900    0.8504 C   0  0  0  0  0  0  0  0  0  0  0  0
    2.4474   -2.0882    0.3995 O   0  0  0  0  0  0  0  0  0  0  0  0
    3.7453   -1.9815    0.0374 C   0  0  0  0  0  0  0  0  0  0  0  0
    4.3386   -0.9199    0.0751 O   0  0  0  0  0  0  0  0  0  0  0  0
    4.3908   -3.2278   -0.4328 C   0  0  0  0  0  0  0  0  0  0  0  0
    3.9261   -4.5163   -0.3465 C   0  0  0  0  0  0  0  0  0  0  0  0
    2.6079   -4.9703    0.2183 C   0  0  0  0  0  0  0  0  0  0  0  0
    4.6926   -5.6036   -0.7734 N   0  0  0  0  0  0  0  0  0  0  0  0
    5.9253   -5.3924   -1.0716 C   0  0  0  0  0  0  0  0  0  0  0  0
    7.0698   -6.6877   -1.3997 S   0  0  0  0  0  0  0  0  0  0  0  0
    8.4252   -5.5253   -1.5359 C   0  0  0  0  0  0  0  0  0  0  0  0
    9.6879   -5.9814   -1.7901 C   0  0  0  0  0  0  0  0  0  0  0  0
   10.9664   -5.3421   -1.9484 C   0  0  0  0  0  0  0  0  0  0  0  0
   11.3492   -3.9539   -1.8890 C   0  0  0  0  0  0  0  0  0  0  0  0
   12.6989   -3.8713   -2.1111 C   0  0  0  0  0  0  0  0  0  0  0  0
   13.5977   -2.6796   -2.1703 C   0  0  0  0  0  0  0  0  0  0  0  0
   13.1763   -5.1748   -2.3088 N   0  0  0  0  0  0  0  0  0  0  0  0
   14.5377   -5.5144   -2.5809 C   0  0  0  0  0  0  0  0  0  0  0  0
   15.4573   -5.6656   -1.5385 C   0  0  0  0  0  0  0  0  0  0  0  0
   16.7815   -5.9945   -1.8278 C   0  0  0  0  0  0  0  0  0  0  0  0
   17.2387   -6.1874   -3.1438 C   0  0  0  0  0  0  0  0  0  0  0  0
   18.6785   -6.5459   -3.4011 C   0  0  0  0  0  0  0  0  0  0  0  0
   16.2889   -6.0284   -4.1718 C   0  0  0  0  0  0  0  0  0  0  0  0
   16.8356   -6.2904   -6.2174 I   0  0  0  0  0  0  0  0  0  0  0  0
   14.9591   -5.6941   -3.9039 C   0  0  0  0  0  0  0  0  0  0  0  0
   12.1409   -6.0747   -2.2141 C   0  0  0  0  0  0  0  0  0  0  0  0
   12.3716   -7.5422   -2.3771 C   0  0  0  0  0  0  0  0  0  0  0  0
    7.9269   -4.1438   -1.3381 C   0  0  0  0  0  0  0  0  0  0  0  0
    8.5543   -3.1019   -1.3560 O   0  0  0  0  0  0  0  0  0  0  0  0
    6.5406   -4.1689   -1.1225 N   0  0  0  0  0  0  0  0  0  0  0  0
    5.7350   -2.9343   -1.0970 C   0  0  1  0  0  0  0  0  0  0  0  0
    6.2869   -2.2051   -0.4907 H   0  0  0  0  0  0  0  0  0  0  0  0
    5.5887   -2.3477   -2.5040 C   0  0  0  0  0  0  0  0  0  0  0  0
    4.7873   -2.9791   -3.4677 C   0  0  0  0  0  0  0  0  0  0  0  0
    4.6717   -2.4482   -4.7549 C   0  0  0  0  0  0  0  0  0  0  0  0
    5.3499   -1.2722   -5.0912 C   0  0  0  0  0  0  0  0  0  0  0  0
    6.1456   -0.6345   -4.1350 C   0  0  0  0  0  0  0  0  0  0  0  0
    6.2659   -1.1713   -2.8504 C   0  0  0  0  0  0  0  0  0  0  0  0
    1.4755    0.2697    2.6439 H   0  0  0  0  0  0  0  0  0  0  0  0
    3.1182   -0.4069    2.4963 H   0  0  0  0  0  0  0  0  0  0  0  0
    1.7476   -1.4673    2.9471 H   0  0  0  0  0  0  0  0  0  0  0  0
    2.1270   -0.0461    0.2297 H   0  0  0  0  0  0  0  0  0  0  0  0
    0.7238   -1.0730    0.6625 H   0  0  0  0  0  0  0  0  0  0  0  0
    2.0683   -4.1869    0.7529 H   0  0  0  0  0  0  0  0  0  0  0  0
    2.7880   -5.8373    0.8722 H   0  0  0  0  0  0  0  0  0  0  0  0
    1.9765   -5.3359   -0.6103 H   0  0  0  0  0  0  0  0  0  0  0  0
    9.7398   -7.0705   -1.8977 H   0  0  0  0  0  0  0  0  0  0  0  0
   10.6713   -3.1276   -1.7036 H   0  0  0  0  0  0  0  0  0  0  0  0
   13.0045   -1.7692   -2.0086 H   0  0  0  0  0  0  0  0  0  0  0  0
   14.1028   -2.5869   -3.1468 H   0  0  0  0  0  0  0  0  0  0  0  0
   14.3878   -2.7102   -1.4009 H   0  0  0  0  0  0  0  0  0  0  0  0
   15.1310   -5.5267   -0.5058 H   0  0  0  0  0  0  0  0  0  0  0  0
   17.4931   -6.1108   -1.0062 H   0  0  0  0  0  0  0  0  0  0  0  0
   19.2402   -6.6146   -2.4589 H   0  0  0  0  0  0  0  0  0  0  0  0
   19.1695   -5.7957   -4.0422 H   0  0  0  0  0  0  0  0  0  0  0  0
   18.7626   -7.5121   -3.9248 H   0  0  0  0  0  0  0  0  0  0  0  0
   14.2403   -5.5672   -4.7143 H   0  0  0  0  0  0  0  0  0  0  0  0
   12.7296   -7.7941   -3.3898 H   0  0  0  0  0  0  0  0  0  0  0  0
   11.4486   -8.1094   -2.2026 H   0  0  0  0  0  0  0  0  0  0  0  0
   13.1303   -7.9151   -1.6688 H   0  0  0  0  0  0  0  0  0  0  0  0
    4.2430   -3.8914   -3.2099 H   0  0  0  0  0  0  0  0  0  0  0  0
    4.0451   -2.9514   -5.4961 H   0  0  0  0  0  0  0  0  0  0  0  0
    5.2564   -0.8529   -6.0966 H   0  0  0  0  0  0  0  0  0  0  0  0
    6.6768    0.2863   -4.3903 H   0  0  0  0  0  0  0  0  0  0  0  0
    6.8931   -0.6779   -2.1052 H   0  0  0  0  0  0  0  0  0  0  0  0
  1  2  1  0
  1 40  1  0
  1 41  1  0
  1 42  1  0
  2  3  1  0
  2 43  1  0
  2 44  1  0
  3  4  1  0
  4  5  2  0
  4  6  1  0
  6  7  2  0
  6 32  1  0
  7  8  1  0
  7  9  1  0
  8 45  1  0
  8 46  1  0
  8 47  1  0
  9 10  2  0
 10 11  1  0
 10 31  1  0
 11 12  1  0
 12 13  2  0
 12 29  1  0
 13 14  1  0
 13 48  1  0
 14 15  1  0
 14 27  2  0
 15 16  2  0
 15 49  1  0
 16 17  1  0
 16 18  1  0
 17 50  1  0
 17 51  1  0
 17 52  1  0
 18 19  1  0
 18 27  1  0
 19 20  2  0
 19 26  1  0
 20 21  1  0
 20 53  1  0
 21 22  2  0
 21 54  1  0
 22 23  1  0
 22 24  1  0
 23 55  1  0
 23 56  1  0
 23 57  1  0
 24 25  1  0
 24 26  2  0
 26 58  1  0
 27 28  1  0
 28 59  1  0
 28 60  1  0
 28 61  1  0
 29 30  2  0
 29 31  1  0
 31 32  1  0
 32 33  1  1
 32 34  1  0
 34 35  2  0
 34 39  1  0
 35 36  1  0
 35 62  1  0
 36 37  2  0
 36 63  1  0
 37 38  1  0
 37 64  1  0
 38 39  2  0
 38 65  1  0
 39 66  1  0
M  END

