
     RDKit          3D

 51 54  0  0  0  0  0  0  0  0999 V2000
    2.5476    0.5756    0.6497 C   0  0  0  0  0  0  0  0  0  0  0  0
    3.8571    0.0580    0.6031 O   0  0  0  0  0  0  0  0  0  0  0  0
    4.0377   -1.2858    0.5385 C   0  0  0  0  0  0  0  0  0  0  0  0
    5.3702   -1.7337    0.5038 C   0  0  0  0  0  0  0  0  0  0  0  0
    5.6620   -3.0891    0.4377 C   0  0  0  0  0  0  0  0  0  0  0  0
    4.6220   -4.0355    0.4055 C   0  0  0  0  0  0  0  0  0  0  0  0
    4.9546   -5.4225    0.3409 N   0  0  0  0  0  0  0  0  0  0  0  0
    6.2625   -5.7957    0.4274 N   0  0  0  0  0  0  0  0  0  0  0  0
    6.3016   -7.1105    0.3380 C   0  0  0  0  0  0  0  0  0  0  0  0
    4.9969   -7.6423    0.1825 C   0  0  0  0  0  0  0  0  0  0  0  0
    4.4447   -8.9649    0.0502 C   0  0  0  0  0  0  0  0  0  0  0  0
    5.0254  -10.0382    0.0708 O   0  0  0  0  0  0  0  0  0  0  0  0
    3.0233   -8.9123   -0.1294 N   0  0  0  0  0  0  0  0  0  0  0  0
    2.3377  -10.1902   -0.2211 C   0  0  0  0  0  0  0  0  0  0  0  0
    1.8857  -10.6565    1.1854 C   0  0  0  0  0  0  0  0  0  0  0  0
    1.5920   -9.7909    1.9953 O   0  0  0  0  0  0  0  0  0  0  0  0
    1.7625  -12.0003    1.4096 N   0  0  0  0  0  0  0  0  0  0  0  0
    2.5146  -13.0104    0.6488 C   0  0  0  0  0  0  0  0  0  0  0  0
    3.8491  -13.3124    1.3439 C   0  0  0  0  0  0  0  0  0  0  0  0
    3.6257  -13.7314    2.8050 C   0  0  0  0  0  0  0  0  0  0  0  0
    2.6860  -12.7693    3.5504 C   0  0  0  0  0  0  0  0  0  0  0  0
    1.3923  -12.5305    2.7515 C   0  0  1  0  0  0  0  0  0  0  0  0
    0.9584  -13.5221    2.5280 H   0  0  0  0  0  0  0  0  0  0  0  0
    0.3207  -11.7552    3.5163 C   0  0  0  0  0  0  0  0  0  0  0  0
    2.3046   -7.7489   -0.0673 C   0  0  0  0  0  0  0  0  0  0  0  0
    2.7972   -6.5553    0.0704 N   0  0  0  0  0  0  0  0  0  0  0  0
    4.1509   -6.5224    0.1897 C   0  0  0  0  0  0  0  0  0  0  0  0
    3.2936   -3.5981    0.4407 C   0  0  0  0  0  0  0  0  0  0  0  0
    3.0031   -2.2308    0.5055 C   0  0  0  0  0  0  0  0  0  0  0  0
    2.6437    1.6686    0.7019 H   0  0  0  0  0  0  0  0  0  0  0  0
    1.9963    0.2229    1.5404 H   0  0  0  0  0  0  0  0  0  0  0  0
    1.9667    0.3114   -0.2529 H   0  0  0  0  0  0  0  0  0  0  0  0
    6.1691   -0.9899    0.5297 H   0  0  0  0  0  0  0  0  0  0  0  0
    6.6934   -3.4373    0.4133 H   0  0  0  0  0  0  0  0  0  0  0  0
    7.2524   -7.6398    0.3848 H   0  0  0  0  0  0  0  0  0  0  0  0
    3.0226  -10.8820   -0.7160 H   0  0  0  0  0  0  0  0  0  0  0  0
    1.4365  -10.0768   -0.8439 H   0  0  0  0  0  0  0  0  0  0  0  0
    2.6684  -12.6894   -0.3870 H   0  0  0  0  0  0  0  0  0  0  0  0
    1.8912  -13.9200    0.5984 H   0  0  0  0  0  0  0  0  0  0  0  0
    4.4765  -12.4063    1.2884 H   0  0  0  0  0  0  0  0  0  0  0  0
    4.3830  -14.1054    0.7932 H   0  0  0  0  0  0  0  0  0  0  0  0
    4.5917  -13.8084    3.3301 H   0  0  0  0  0  0  0  0  0  0  0  0
    3.1819  -14.7442    2.8240 H   0  0  0  0  0  0  0  0  0  0  0  0
    3.1773  -11.7952    3.7183 H   0  0  0  0  0  0  0  0  0  0  0  0
    2.4359  -13.1771    4.5442 H   0  0  0  0  0  0  0  0  0  0  0  0
    0.6974  -10.8108    3.9233 H   0  0  0  0  0  0  0  0  0  0  0  0
   -0.0369  -12.3901    4.3433 H   0  0  0  0  0  0  0  0  0  0  0  0
   -0.5406  -11.5265    2.8704 H   0  0  0  0  0  0  0  0  0  0  0  0
    1.2207   -7.8685   -0.1560 H   0  0  0  0  0  0  0  0  0  0  0  0
    2.4837   -4.3245    0.4126 H   0  0  0  0  0  0  0  0  0  0  0  0
    1.9580   -1.9220    0.5318 H   0  0  0  0  0  0  0  0  0  0  0  0
  1  2  1  0
  1 30  1  0
  1 31  1  0
  1 32  1  0
  2  3  1  0
  3  4  2  0
  3 29  1  0
  4  5  1  0
  4 33  1  0
  5  6  2  0
  5 34  1  0
  6  7  1  0
  6 28  1  0
  7  8  1  0
  7 27  1  0
  8  9  2  0
  9 10  1  0
  9 35  1  0
 10 11  1  0
 10 27  2  0
 11 12  2  0
 11 13  1  0
 13 14  1  0
 13 25  1  0
 14 15  1  0
 14 36  1  0
 14 37  1  0
 15 16  2  0
 15 17  1  0
 17 18  1  0
 17 22  1  0
 18 19  1  0
 18 38  1  0
 18 39  1  0
 19 20  1  0
 19 40  1  0
 19 41  1  0
 20 21  1  0
 20 42  1  0
 20 43  1  0
 21 22  1  0
 21 44  1  0
 21 45  1  0
 22 23  1  6
 22 24  1  0
 24 46  1  0
 24 47  1  0
 24 48  1  0
 25 26  2  0
 25 49  1  0
 26 27  1  0
 28 29  2  0
 28 50  1  0
 29 51  1  0
M  END

