
     RDKit          3D

 71 75  0  0  0  0  0  0  0  0999 V2000
    6.9426   -5.1000    3.0935 C   0  0  0  0  0  0  0  0  0  0  0  0
    8.3468   -4.5279    2.9832 C   0  0  0  0  0  0  0  0  0  0  0  0
    8.5916   -3.9769    1.6801 O   0  0  0  0  0  0  0  0  0  0  0  0
    9.0098   -4.8101    0.7172 C   0  0  0  0  0  0  0  0  0  0  0  0
    9.2427   -5.9839    0.8814 O   0  0  0  0  0  0  0  0  0  0  0  0
    9.2382   -4.0737   -0.6051 C   0  0  0  0  0  0  0  0  0  0  0  0
    8.2704   -3.0682   -0.9201 N   0  0  0  0  0  0  0  0  0  0  0  0
    8.4699   -1.7000   -0.9066 C   0  0  0  0  0  0  0  0  0  0  0  0
    7.3815   -1.0416   -1.2090 N   0  0  0  0  0  0  0  0  0  0  0  0
    6.4131   -1.9853   -1.4245 C   0  0  0  0  0  0  0  0  0  0  0  0
    6.9203   -3.2986   -1.2535 C   0  0  0  0  0  0  0  0  0  0  0  0
    6.3821   -4.6045   -1.3830 C   0  0  0  0  0  0  0  0  0  0  0  0
    5.0253   -4.9928   -1.5780 C   0  0  0  0  0  0  0  0  0  0  0  0
    4.8462   -6.3123   -2.2942 C   0  0  0  0  0  0  0  0  0  0  0  0
    3.4992   -6.8938   -2.1048 N   0  0  0  0  0  0  0  0  0  0  0  0
    3.2272   -8.2681   -1.5876 C   0  0  1  0  0  0  0  0  0  0  0  0
    4.4861   -9.1681   -1.6472 C   0  0  0  0  0  0  0  0  0  0  0  0
    4.9439   -9.8944   -0.5401 C   0  0  0  0  0  0  0  0  0  0  0  0
    6.0246  -10.7767   -0.6598 C   0  0  0  0  0  0  0  0  0  0  0  0
    6.6654  -10.9471   -1.8863 C   0  0  0  0  0  0  0  0  0  0  0  0
    6.2074  -10.2386   -3.0027 C   0  0  0  0  0  0  0  0  0  0  0  0
    5.1229   -9.3717   -2.8858 C   0  0  0  0  0  0  0  0  0  0  0  0
    2.7382   -7.9693   -0.1419 C   0  0  0  0  0  0  0  0  0  0  0  0
    1.4092   -8.1499    0.2696 C   0  0  0  0  0  0  0  0  0  0  0  0
    1.0130   -7.8093    1.5668 C   0  0  0  0  0  0  0  0  0  0  0  0
    1.9326   -7.2617    2.4648 C   0  0  0  0  0  0  0  0  0  0  0  0
    3.2496   -7.0409    2.0532 C   0  0  0  0  0  0  0  0  0  0  0  0
    3.6479   -7.3810    0.7592 C   0  0  0  0  0  0  0  0  0  0  0  0
    2.1862   -9.0081   -2.4675 C   0  0  0  0  0  0  0  0  0  0  0  0
    1.6704  -10.2322   -2.0046 C   0  0  0  0  0  0  0  0  0  0  0  0
    0.8101  -10.9949   -2.7942 C   0  0  0  0  0  0  0  0  0  0  0  0
    0.4558  -10.5608   -4.0756 C   0  0  0  0  0  0  0  0  0  0  0  0
    0.9841   -9.3640   -4.5582 C   0  0  0  0  0  0  0  0  0  0  0  0
    1.8453   -8.5975   -3.7640 C   0  0  0  0  0  0  0  0  0  0  0  0
    2.4047   -5.9580   -2.2872 C   0  0  0  0  0  0  0  0  0  0  0  0
    2.5611   -4.6895   -1.4318 C   0  0  0  0  0  0  0  0  0  0  0  0
    3.9044   -4.0230   -1.7049 C   0  0  2  0  0  0  0  0  0  0  0  0
    3.7586   -3.4214   -3.0266 O   0  0  0  0  0  0  0  0  0  0  0  0
    6.7537   -5.4306    4.1280 H   0  0  0  0  0  0  0  0  0  0  0  0
    6.8255   -5.9658    2.4249 H   0  0  0  0  0  0  0  0  0  0  0  0
    6.1914   -4.3427    2.8222 H   0  0  0  0  0  0  0  0  0  0  0  0
    9.1038   -5.2979    3.1963 H   0  0  0  0  0  0  0  0  0  0  0  0
    8.4862   -3.6841    3.6746 H   0  0  0  0  0  0  0  0  0  0  0  0
    9.3044   -4.8464   -1.3885 H   0  0  0  0  0  0  0  0  0  0  0  0
   10.2298   -3.5954   -0.5381 H   0  0  0  0  0  0  0  0  0  0  0  0
    9.4442   -1.2708   -0.6681 H   0  0  0  0  0  0  0  0  0  0  0  0
    5.4057   -1.6944   -1.7143 H   0  0  0  0  0  0  0  0  0  0  0  0
    7.1084   -5.4236   -1.3465 H   0  0  0  0  0  0  0  0  0  0  0  0
    5.5908   -7.0428   -1.9588 H   0  0  0  0  0  0  0  0  0  0  0  0
    4.9498   -6.2586   -3.4054 H   0  0  0  0  0  0  0  0  0  0  0  0
    4.4600   -9.7842    0.4299 H   0  0  0  0  0  0  0  0  0  0  0  0
    6.3650  -11.3284    0.2197 H   0  0  0  0  0  0  0  0  0  0  0  0
    7.5134  -11.6300   -1.9765 H   0  0  0  0  0  0  0  0  0  0  0  0
    6.6932  -10.3670   -3.9729 H   0  0  0  0  0  0  0  0  0  0  0  0
    4.7673   -8.8474   -3.7753 H   0  0  0  0  0  0  0  0  0  0  0  0
    0.6691   -8.5606   -0.4162 H   0  0  0  0  0  0  0  0  0  0  0  0
   -0.0239   -7.9707    1.8713 H   0  0  0  0  0  0  0  0  0  0  0  0
    1.6202   -6.9946    3.4772 H   0  0  0  0  0  0  0  0  0  0  0  0
    3.9734   -6.5882    2.7341 H   0  0  0  0  0  0  0  0  0  0  0  0
    4.6711   -7.1678    0.4491 H   0  0  0  0  0  0  0  0  0  0  0  0
    1.9575  -10.6054   -1.0200 H   0  0  0  0  0  0  0  0  0  0  0  0
    0.4218  -11.9401   -2.4071 H   0  0  0  0  0  0  0  0  0  0  0  0
   -0.2167  -11.1583   -4.6954 H   0  0  0  0  0  0  0  0  0  0  0  0
    0.7336   -9.0170   -5.5635 H   0  0  0  0  0  0  0  0  0  0  0  0
    2.2532   -7.6797   -4.1865 H   0  0  0  0  0  0  0  0  0  0  0  0
    1.4494   -6.4641   -2.1103 H   0  0  0  0  0  0  0  0  0  0  0  0
    2.4544   -5.6260   -3.3403 H   0  0  0  0  0  0  0  0  0  0  0  0
    2.4668   -4.9448   -0.3668 H   0  0  0  0  0  0  0  0  0  0  0  0
    1.7336   -4.0159   -1.7043 H   0  0  0  0  0  0  0  0  0  0  0  0
    4.0394   -3.2156   -0.9642 H   0  0  0  0  0  0  0  0  0  0  0  0
    4.6451   -3.1363   -3.2896 H   0  0  0  0  0  0  0  0  0  0  0  0
  1  2  1  0
  1 39  1  0
  1 40  1  0
  1 41  1  0
  2  3  1  0
  2 42  1  0
  2 43  1  0
  3  4  1  0
  4  5  2  0
  4  6  1  0
  6  7  1  0
  6 44  1  0
  6 45  1  0
  7  8  1  0
  7 11  1  0
  8  9  2  0
  8 46  1  0
  9 10  1  0
 10 11  2  0
 10 47  1  0
 11 12  1  0
 12 13  2  0
 12 48  1  0
 13 14  1  0
 13 37  1  0
 14 15  1  0
 14 49  1  0
 14 50  1  0
 15 16  1  0
 15 35  1  0
 16 17  1  1
 16 23  1  0
 16 29  1  0
 17 18  2  0
 17 22  1  0
 18 19  1  0
 18 51  1  0
 19 20  2  0
 19 52  1  0
 20 21  1  0
 20 53  1  0
 21 22  2  0
 21 54  1  0
 22 55  1  0
 23 24  2  0
 23 28  1  0
 24 25  1  0
 24 56  1  0
 25 26  2  0
 25 57  1  0
 26 27  1  0
 26 58  1  0
 27 28  2  0
 27 59  1  0
 28 60  1  0
 29 30  2  0
 29 34  1  0
 30 31  1  0
 30 61  1  0
 31 32  2  0
 31 62  1  0
 32 33  1  0
 32 63  1  0
 33 34  2  0
 33 64  1  0
 34 65  1  0
 35 36  1  0
 35 66  1  0
 35 67  1  0
 36 37  1  0
 36 68  1  0
 36 69  1  0
 37 38  1  0
 37 70  1  1
 38 71  1  0
M  END

