
     RDKit          3D

 63 66  0  0  0  0  0  0  0  0999 V2000
    1.0886  -13.0119    9.6765 C   0  0  0  0  0  0  0  0  0  0  0  0
    0.5491  -11.8350    8.8454 C   0  0  0  0  0  0  0  0  0  0  0  0
    0.5710  -12.0751    7.3541 C   0  0  0  0  0  0  0  0  0  0  0  0
   -0.5206  -12.6799    6.6875 C   0  0  0  0  0  0  0  0  0  0  0  0
   -0.5003  -12.9444    5.3300 C   0  0  0  0  0  0  0  0  0  0  0  0
    0.6483  -12.6151    4.5324 C   0  0  0  0  0  0  0  0  0  0  0  0
    0.6479  -12.8754    3.1501 C   0  0  0  0  0  0  0  0  0  0  0  0
   -0.2567  -13.4123    2.4162 O   0  0  0  0  0  0  0  0  0  0  0  0
    1.7443  -12.6251    2.1751 C   0  0  0  0  0  0  0  0  0  0  0  0
    1.7830  -11.5507    1.2567 C   0  0  0  0  0  0  0  0  0  0  0  0
    2.7686  -11.7302    0.3497 N   0  0  0  0  0  0  0  0  0  0  0  0
    3.0912  -10.7841   -0.7139 C   0  0  2  0  0  0  0  0  0  0  0  0
    4.0379  -11.1320   -1.1719 H   0  0  0  0  0  0  0  0  0  0  0  0
    3.2778   -9.5470   -0.0909 O   0  0  0  0  0  0  0  0  0  0  0  0
    3.7431   -8.5127   -0.9601 C   0  0  2  0  0  0  0  0  0  0  0  0
    4.6925   -8.8571   -1.4279 H   0  0  0  0  0  0  0  0  0  0  0  0
    4.0436   -7.3099   -0.0653 C   0  0  0  0  0  0  0  0  0  0  0  0
    5.0725   -7.6019    1.0278 C   0  0  0  0  0  0  0  0  0  0  0  0
    2.7194   -8.2573   -2.0854 C   0  0  1  0  0  0  0  0  0  0  0  0
    1.7995   -7.8821   -1.5982 H   0  0  0  0  0  0  0  0  0  0  0  0
    3.2293   -7.1900   -3.0635 C   0  0  0  0  0  0  0  0  0  0  0  0
    2.3579   -9.5863   -2.8090 C   0  0  2  0  0  0  0  0  0  0  0  0
    3.2647   -9.9130   -3.3579 H   0  0  0  0  0  0  0  0  0  0  0  0
    1.2307   -9.3925   -3.8332 C   0  0  0  0  0  0  0  0  0  0  0  0
    2.0050  -10.7153   -1.8031 C   0  0  1  0  0  0  0  0  0  0  0  0
    1.0688  -10.4268   -1.2910 H   0  0  0  0  0  0  0  0  0  0  0  0
    1.8065  -12.0839   -2.4645 C   0  0  0  0  0  0  0  0  0  0  0  0
    3.4301  -12.9425    0.6292 C   0  0  0  0  0  0  0  0  0  0  0  0
    4.5194  -13.5422    0.0059 C   0  0  0  0  0  0  0  0  0  0  0  0
    4.9605  -14.7713    0.5223 C   0  0  0  0  0  0  0  0  0  0  0  0
    4.3333  -15.3712    1.6251 C   0  0  0  0  0  0  0  0  0  0  0  0
    3.2454  -14.7561    2.2512 C   0  0  0  0  0  0  0  0  0  0  0  0
    2.7867  -13.5296    1.7501 C   0  0  0  0  0  0  0  0  0  0  0  0
    1.7540  -12.0019    5.2110 C   0  0  0  0  0  0  0  0  0  0  0  0
    1.7020  -11.7465    6.5706 C   0  0  0  0  0  0  0  0  0  0  0  0
    1.0526  -12.7929   10.7574 H   0  0  0  0  0  0  0  0  0  0  0  0
    2.1341  -13.2374    9.4101 H   0  0  0  0  0  0  0  0  0  0  0  0
    0.5000  -13.9259    9.4953 H   0  0  0  0  0  0  0  0  0  0  0  0
    1.1393  -10.9318    9.0826 H   0  0  0  0  0  0  0  0  0  0  0  0
   -0.4844  -11.6164    9.1678 H   0  0  0  0  0  0  0  0  0  0  0  0
   -1.4142  -12.9406    7.2652 H   0  0  0  0  0  0  0  0  0  0  0  0
   -1.3607  -13.4023    4.8384 H   0  0  0  0  0  0  0  0  0  0  0  0
    1.1452  -10.6710    1.2307 H   0  0  0  0  0  0  0  0  0  0  0  0
    3.0942   -6.9739    0.3872 H   0  0  0  0  0  0  0  0  0  0  0  0
    4.4023   -6.4825   -0.6963 H   0  0  0  0  0  0  0  0  0  0  0  0
    4.7309   -8.4121    1.6876 H   0  0  0  0  0  0  0  0  0  0  0  0
    5.2511   -6.7089    1.6464 H   0  0  0  0  0  0  0  0  0  0  0  0
    6.0405   -7.9056    0.5947 H   0  0  0  0  0  0  0  0  0  0  0  0
    4.1665   -7.5121   -3.5493 H   0  0  0  0  0  0  0  0  0  0  0  0
    3.4259   -6.2344   -2.5574 H   0  0  0  0  0  0  0  0  0  0  0  0
    2.4988   -6.9826   -3.8570 H   0  0  0  0  0  0  0  0  0  0  0  0
    1.4901   -8.6372   -4.5875 H   0  0  0  0  0  0  0  0  0  0  0  0
    0.3013   -9.0661   -3.3363 H   0  0  0  0  0  0  0  0  0  0  0  0
    1.0101  -10.3208   -4.3783 H   0  0  0  0  0  0  0  0  0  0  0  0
    2.7078  -12.3934   -3.0206 H   0  0  0  0  0  0  0  0  0  0  0  0
    0.9670  -12.0722   -3.1723 H   0  0  0  0  0  0  0  0  0  0  0  0
    1.5850  -12.8621   -1.7190 H   0  0  0  0  0  0  0  0  0  0  0  0
    5.0256  -13.0897   -0.8483 H   0  0  0  0  0  0  0  0  0  0  0  0
    5.8133  -15.2667    0.0525 H   0  0  0  0  0  0  0  0  0  0  0  0
    4.7027  -16.3288    1.9979 H   0  0  0  0  0  0  0  0  0  0  0  0
    2.7520  -15.2137    3.1105 H   0  0  0  0  0  0  0  0  0  0  0  0
    2.6506  -11.7294    4.6480 H   0  0  0  0  0  0  0  0  0  0  0  0
    2.5628  -11.2727    7.0547 H   0  0  0  0  0  0  0  0  0  0  0  0
  1  2  1  0
  1 36  1  0
  1 37  1  0
  1 38  1  0
  2  3  1  0
  2 39  1  0
  2 40  1  0
  3  4  2  0
  3 35  1  0
  4  5  1  0
  4 41  1  0
  5  6  2  0
  5 42  1  0
  6  7  1  0
  6 34  1  0
  7  8  2  0
  7  9  1  0
  9 10  2  0
  9 33  1  0
 10 11  1  0
 10 43  1  0
 11 12  1  0
 11 28  1  0
 12 13  1  6
 12 14  1  0
 12 25  1  0
 14 15  1  0
 15 16  1  6
 15 17  1  0
 15 19  1  0
 17 18  1  0
 17 44  1  0
 17 45  1  0
 18 46  1  0
 18 47  1  0
 18 48  1  0
 19 20  1  1
 19 21  1  0
 19 22  1  0
 21 49  1  0
 21 50  1  0
 21 51  1  0
 22 23  1  6
 22 24  1  0
 22 25  1  0
 24 52  1  0
 24 53  1  0
 24 54  1  0
 25 26  1  1
 25 27  1  0
 27 55  1  0
 27 56  1  0
 27 57  1  0
 28 29  1  0
 28 33  2  0
 29 30  2  0
 29 58  1  0
 30 31  1  0
 30 59  1  0
 31 32  2  0
 31 60  1  0
 32 33  1  0
 32 61  1  0
 34 35  2  0
 34 62  1  0
 35 63  1  0
M  END

