
     RDKit          3D

 92102  0  0  0  0  0  0  0  0999 V2000
    2.4318   -0.6387   -1.3821 C   0  0  0  0  0  0  0  0  0  0  0  0
    2.8133    0.5106   -0.4118 C   0  0  1  0  0  0  0  0  0  0  0  0
    2.1508    1.8303   -0.8903 C   0  0  0  0  0  0  0  0  0  0  0  0
    2.2959    0.1719    0.9933 C   0  0  0  0  0  0  0  0  0  0  0  0
    0.9233   -0.0482    1.1867 C   0  0  0  0  0  0  0  0  0  0  0  0
    0.3771   -0.3624    2.4307 C   0  0  0  0  0  0  0  0  0  0  0  0
    1.2293   -0.4649    3.5312 C   0  0  0  0  0  0  0  0  0  0  0  0
    2.5957   -0.2506    3.3772 C   0  0  0  0  0  0  0  0  0  0  0  0
    3.1473    0.0728    2.1176 C   0  0  0  0  0  0  0  0  0  0  0  0
    4.5312    0.2916    1.9935 N   0  0  0  0  0  0  0  0  0  0  0  0
    5.3641    0.1765    3.1544 C   0  0  0  0  0  0  0  0  0  0  0  0
    5.9661   -1.0539    3.4743 C   0  0  0  0  0  0  0  0  0  0  0  0
    6.7771   -1.1493    4.5942 C   0  0  0  0  0  0  0  0  0  0  0  0
    7.0044   -0.0322    5.4231 C   0  0  0  0  0  0  0  0  0  0  0  0
    6.3941    1.2129    5.1176 C   0  0  0  0  0  0  0  0  0  0  0  0
    5.5802    1.2851    3.9670 C   0  0  0  0  0  0  0  0  0  0  0  0
    6.6190    2.3790    5.9912 C   0  0  0  0  0  0  0  0  0  0  0  0
    6.0133    3.6288    5.7413 C   0  0  0  0  0  0  0  0  0  0  0  0
    6.2233    4.7223    6.5756 C   0  0  0  0  0  0  0  0  0  0  0  0
    5.5769    5.9703    6.2938 N   0  0  0  0  0  0  0  0  0  0  0  0
    4.3076    6.2224    6.8453 C   0  0  0  0  0  0  0  0  0  0  0  0
    3.6918    5.2523    7.6670 C   0  0  0  0  0  0  0  0  0  0  0  0
    2.4347    5.4718    8.2221 C   0  0  0  0  0  0  0  0  0  0  0  0
    1.7590    6.6669    7.9711 C   0  0  0  0  0  0  0  0  0  0  0  0
    2.3689    7.6250    7.1621 C   0  0  0  0  0  0  0  0  0  0  0  0
    3.6358    7.4393    6.5871 C   0  0  0  0  0  0  0  0  0  0  0  0
    4.2300    8.5423    5.6998 C   0  0  1  0  0  0  0  0  0  0  0  0
    3.3096    8.7460    4.4663 C   0  0  0  0  0  0  0  0  0  0  0  0
    4.3037    9.8625    6.5111 C   0  0  0  0  0  0  0  0  0  0  0  0
    5.6375    8.1694    5.2121 C   0  0  0  0  0  0  0  0  0  0  0  0
    6.3569    9.0800    4.4228 C   0  0  0  0  0  0  0  0  0  0  0  0
    7.6318    8.8074    3.9279 C   0  0  0  0  0  0  0  0  0  0  0  0
    8.2191    7.5770    4.2267 C   0  0  0  0  0  0  0  0  0  0  0  0
    7.5346    6.6490    5.0058 C   0  0  0  0  0  0  0  0  0  0  0  0
    6.2442    6.9273    5.5086 C   0  0  0  0  0  0  0  0  0  0  0  0
    7.0635    4.5963    7.6967 C   0  0  0  0  0  0  0  0  0  0  0  0
    7.6723    3.3799    7.9633 C   0  0  0  0  0  0  0  0  0  0  0  0
    7.4607    2.2639    7.1288 C   0  0  0  0  0  0  0  0  0  0  0  0
    8.1068    0.9850    7.4424 C   0  0  0  0  0  0  0  0  0  0  0  0
    8.8938    0.8999    8.5045 N   0  0  0  0  0  0  0  0  0  0  0  0
    9.4755   -0.2843    8.7820 C   0  0  0  0  0  0  0  0  0  0  0  0
   10.3306   -0.4172    9.9140 C   0  0  0  0  0  0  0  0  0  0  0  0
   10.9210   -1.6292   10.1930 C   0  0  0  0  0  0  0  0  0  0  0  0
   10.6874   -2.7611    9.3607 C   0  0  0  0  0  0  0  0  0  0  0  0
    9.8669   -2.6668    8.2592 C   0  0  0  0  0  0  0  0  0  0  0  0
    9.2404   -1.4273    7.9406 C   0  0  0  0  0  0  0  0  0  0  0  0
    8.4381   -1.3286    6.8617 N   0  0  0  0  0  0  0  0  0  0  0  0
    7.8742   -0.1595    6.5972 C   0  0  0  0  0  0  0  0  0  0  0  0
    5.1244    0.5835    0.7520 C   0  0  0  0  0  0  0  0  0  0  0  0
    6.5211    0.7783    0.6675 C   0  0  0  0  0  0  0  0  0  0  0  0
    7.1358    1.0656   -0.5475 C   0  0  0  0  0  0  0  0  0  0  0  0
    6.3715    1.1675   -1.7108 C   0  0  0  0  0  0  0  0  0  0  0  0
    4.9924    0.9792   -1.6256 C   0  0  0  0  0  0  0  0  0  0  0  0
    4.3383    0.6886   -0.4183 C   0  0  0  0  0  0  0  0  0  0  0  0
    1.3417   -0.7859   -1.4170 H   0  0  0  0  0  0  0  0  0  0  0  0
    2.8925   -1.5864   -1.0642 H   0  0  0  0  0  0  0  0  0  0  0  0
    2.7687   -0.4237   -2.4074 H   0  0  0  0  0  0  0  0  0  0  0  0
    1.0540    1.7396   -0.9134 H   0  0  0  0  0  0  0  0  0  0  0  0
    2.4847    2.0977   -1.9046 H   0  0  0  0  0  0  0  0  0  0  0  0
    2.4085    2.6624   -0.2176 H   0  0  0  0  0  0  0  0  0  0  0  0
    0.2528    0.0305    0.3281 H   0  0  0  0  0  0  0  0  0  0  0  0
   -0.6978   -0.5250    2.5359 H   0  0  0  0  0  0  0  0  0  0  0  0
    0.8342   -0.7126    4.5198 H   0  0  0  0  0  0  0  0  0  0  0  0
    3.2473   -0.3342    4.2457 H   0  0  0  0  0  0  0  0  0  0  0  0
    5.7900   -1.9197    2.8328 H   0  0  0  0  0  0  0  0  0  0  0  0
    7.2599   -2.0894    4.8627 H   0  0  0  0  0  0  0  0  0  0  0  0
    5.0958    2.2184    3.6829 H   0  0  0  0  0  0  0  0  0  0  0  0
    5.3547    3.7692    4.8852 H   0  0  0  0  0  0  0  0  0  0  0  0
    4.2059    4.3146    7.8725 H   0  0  0  0  0  0  0  0  0  0  0  0
    1.9858    4.7004    8.8530 H   0  0  0  0  0  0  0  0  0  0  0  0
    0.7708    6.8534    8.3974 H   0  0  0  0  0  0  0  0  0  0  0  0
    1.8350    8.5579    6.9680 H   0  0  0  0  0  0  0  0  0  0  0  0
    2.2904    9.0274    4.7728 H   0  0  0  0  0  0  0  0  0  0  0  0
    3.2420    7.8214    3.8730 H   0  0  0  0  0  0  0  0  0  0  0  0
    3.6939    9.5426    3.8106 H   0  0  0  0  0  0  0  0  0  0  0  0
    3.3068   10.1729    6.8586 H   0  0  0  0  0  0  0  0  0  0  0  0
    4.7096   10.6840    5.9020 H   0  0  0  0  0  0  0  0  0  0  0  0
    4.9497    9.7421    7.3939 H   0  0  0  0  0  0  0  0  0  0  0  0
    5.8998   10.0422    4.1820 H   0  0  0  0  0  0  0  0  0  0  0  0
    8.1556    9.5457    3.3167 H   0  0  0  0  0  0  0  0  0  0  0  0
    9.2164    7.3310    3.8532 H   0  0  0  0  0  0  0  0  0  0  0  0
    8.0053    5.6928    5.2296 H   0  0  0  0  0  0  0  0  0  0  0  0
    7.2238    5.4593    8.3460 H   0  0  0  0  0  0  0  0  0  0  0  0
    8.3261    3.2536    8.8268 H   0  0  0  0  0  0  0  0  0  0  0  0
   10.4932    0.4648   10.5367 H   0  0  0  0  0  0  0  0  0  0  0  0
   11.5768   -1.7302   11.0614 H   0  0  0  0  0  0  0  0  0  0  0  0
   11.1676   -3.7121    9.6041 H   0  0  0  0  0  0  0  0  0  0  0  0
    9.6724   -3.5195    7.6055 H   0  0  0  0  0  0  0  0  0  0  0  0
    7.1316    0.7039    1.5663 H   0  0  0  0  0  0  0  0  0  0  0  0
    8.2188    1.2102   -0.5787 H   0  0  0  0  0  0  0  0  0  0  0  0
    6.8391    1.3923   -2.6720 H   0  0  0  0  0  0  0  0  0  0  0  0
    4.3980    1.0640   -2.5379 H   0  0  0  0  0  0  0  0  0  0  0  0
  2  1  1  6
  1 55  1  0
  1 56  1  0
  1 57  1  0
  2  3  1  0
  2  4  1  0
  2 54  1  0
  3 58  1  0
  3 59  1  0
  3 60  1  0
  4  5  1  0
  4  9  2  0
  5  6  2  0
  5 61  1  0
  6  7  1  0
  6 62  1  0
  7  8  2  0
  7 63  1  0
  8  9  1  0
  8 64  1  0
  9 10  1  0
 10 11  1  0
 10 49  1  0
 11 12  2  0
 11 16  1  0
 12 13  1  0
 12 65  1  0
 13 14  2  0
 13 66  1  0
 14 15  1  0
 14 48  1  0
 15 16  2  0
 15 17  1  0
 16 67  1  0
 17 18  2  0
 17 38  1  0
 18 19  1  0
 18 68  1  0
 19 20  1  0
 19 36  2  0
 20 21  1  0
 20 35  1  0
 21 22  2  0
 21 26  1  0
 22 23  1  0
 22 69  1  0
 23 24  2  0
 23 70  1  0
 24 25  1  0
 24 71  1  0
 25 26  2  0
 25 72  1  0
 26 27  1  0
 27 28  1  6
 27 29  1  0
 27 30  1  0
 28 73  1  0
 28 74  1  0
 28 75  1  0
 29 76  1  0
 29 77  1  0
 29 78  1  0
 30 31  2  0
 30 35  1  0
 31 32  1  0
 31 79  1  0
 32 33  2  0
 32 80  1  0
 33 34  1  0
 33 81  1  0
 34 35  2  0
 34 82  1  0
 36 37  1  0
 36 83  1  0
 37 38  2  0
 37 84  1  0
 38 39  1  0
 39 40  1  0
 39 48  2  0
 40 41  2  0
 41 42  1  0
 41 46  1  0
 42 43  2  0
 42 85  1  0
 43 44  1  0
 43 86  1  0
 44 45  2  0
 44 87  1  0
 45 46  1  0
 45 88  1  0
 46 47  2  0
 47 48  1  0
 49 50  1  0
 49 54  2  0
 50 51  2  0
 50 89  1  0
 51 52  1  0
 51 90  1  0
 52 53  2  0
 52 91  1  0
 53 54  1  0
 53 92  1  0
M  END

