
     RDKit          3D

 57 61  0  0  0  0  0  0  0  0999 V2000
    2.7062    0.5907    3.6849 C   0  0  0  0  0  0  0  0  0  0  0  0
    2.5680   -0.3794    2.5359 C   0  0  0  0  0  0  0  0  0  0  0  0
    1.7705   -0.0866    1.4223 C   0  0  0  0  0  0  0  0  0  0  0  0
    1.6613   -0.9929    0.3604 C   0  0  0  0  0  0  0  0  0  0  0  0
    2.3424   -2.2081    0.3972 C   0  0  0  0  0  0  0  0  0  0  0  0
    3.1482   -2.5230    1.5039 C   0  0  0  0  0  0  0  0  0  0  0  0
    3.8577   -3.8506    1.5623 C   0  0  0  0  0  0  0  0  0  0  0  0
    4.6217   -4.0296    0.3547 O   0  0  0  0  0  0  0  0  0  0  0  0
    5.0139   -5.2690   -0.0086 C   0  0  0  0  0  0  0  0  0  0  0  0
    6.3550   -5.5403   -0.1563 C   0  0  0  0  0  0  0  0  0  0  0  0
    6.7808   -6.8113   -0.6250 C   0  0  0  0  0  0  0  0  0  0  0  0
    5.8551   -7.7680   -0.9204 C   0  0  0  0  0  0  0  0  0  0  0  0
    4.5080   -7.5079   -0.7804 N   0  0  0  0  0  0  0  0  0  0  0  0
    3.5917   -8.5852   -1.1348 C   0  0  0  0  0  0  0  0  0  0  0  0
    4.0843   -9.6366   -1.5161 O   0  0  0  0  0  0  0  0  0  0  0  0
    2.1904   -8.2589   -0.9913 C   0  0  0  0  0  0  0  0  0  0  0  0
    1.2219   -9.3196   -1.3208 C   0  0  0  0  0  0  0  0  0  0  0  0
    1.4612  -10.5628   -1.9890 C   0  0  0  0  0  0  0  0  0  0  0  0
    0.2366  -11.1908   -2.0680 C   0  0  0  0  0  0  0  0  0  0  0  0
   -0.1387  -12.4966   -2.6927 C   0  0  0  0  0  0  0  0  0  0  0  0
   -0.6596  -10.3370   -1.4576 N   0  0  0  0  0  0  0  0  0  0  0  0
   -2.0561  -10.4952   -1.2958 C   0  0  0  0  0  0  0  0  0  0  0  0
   -2.5860  -11.6281   -0.6647 C   0  0  0  0  0  0  0  0  0  0  0  0
   -3.9651  -11.7551   -0.5228 C   0  0  0  0  0  0  0  0  0  0  0  0
   -4.4551  -12.8466    0.0813 F   0  0  0  0  0  0  0  0  0  0  0  0
   -4.8423  -10.7724   -0.9745 C   0  0  0  0  0  0  0  0  0  0  0  0
   -4.3161   -9.6372   -1.5951 C   0  0  0  0  0  0  0  0  0  0  0  0
   -2.9402   -9.5056   -1.7613 C   0  0  0  0  0  0  0  0  0  0  0  0
   -2.4640   -8.4290   -2.3901 F   0  0  0  0  0  0  0  0  0  0  0  0
   -0.0725   -9.2090   -1.0098 N   0  0  0  0  0  0  0  0  0  0  0  0
    1.8274   -6.9666   -0.5678 C   0  0  0  0  0  0  0  0  0  0  0  0
    0.4017   -6.5112   -0.4194 C   0  0  0  0  0  0  0  0  0  0  0  0
    2.7415   -6.0223   -0.2546 N   0  0  0  0  0  0  0  0  0  0  0  0
    4.0304   -6.2794   -0.3453 C   0  0  0  0  0  0  0  0  0  0  0  0
    3.2553   -1.6059    2.5536 C   0  0  0  0  0  0  0  0  0  0  0  0
    2.0834    1.4851    3.5360 H   0  0  0  0  0  0  0  0  0  0  0  0
    3.7507    0.9256    3.8036 H   0  0  0  0  0  0  0  0  0  0  0  0
    2.4078    0.1277    4.6404 H   0  0  0  0  0  0  0  0  0  0  0  0
    1.2293    0.8632    1.3824 H   0  0  0  0  0  0  0  0  0  0  0  0
    1.0350   -0.7453   -0.5009 H   0  0  0  0  0  0  0  0  0  0  0  0
    2.2637   -2.9225   -0.4249 H   0  0  0  0  0  0  0  0  0  0  0  0
    3.1270   -4.6683    1.6515 H   0  0  0  0  0  0  0  0  0  0  0  0
    4.5462   -3.8878    2.4251 H   0  0  0  0  0  0  0  0  0  0  0  0
    7.0726   -4.7541    0.0856 H   0  0  0  0  0  0  0  0  0  0  0  0
    7.8416   -7.0348   -0.7456 H   0  0  0  0  0  0  0  0  0  0  0  0
    6.0735   -8.7722   -1.2792 H   0  0  0  0  0  0  0  0  0  0  0  0
    2.4119  -10.9278   -2.3588 H   0  0  0  0  0  0  0  0  0  0  0  0
    0.6810  -12.8400   -3.3387 H   0  0  0  0  0  0  0  0  0  0  0  0
   -1.0478  -12.4107   -3.3091 H   0  0  0  0  0  0  0  0  0  0  0  0
   -0.3227  -13.2863   -1.9452 H   0  0  0  0  0  0  0  0  0  0  0  0
   -1.9289  -12.4003   -0.2648 H   0  0  0  0  0  0  0  0  0  0  0  0
   -5.9171  -10.9023   -0.8381 H   0  0  0  0  0  0  0  0  0  0  0  0
   -4.9653   -8.8443   -1.9714 H   0  0  0  0  0  0  0  0  0  0  0  0
   -0.2015   -6.7591   -1.3036 H   0  0  0  0  0  0  0  0  0  0  0  0
    0.3940   -5.4298   -0.2323 H   0  0  0  0  0  0  0  0  0  0  0  0
   -0.0887   -7.0346    0.4156 H   0  0  0  0  0  0  0  0  0  0  0  0
    3.8923   -1.8473    3.4112 H   0  0  0  0  0  0  0  0  0  0  0  0
  1  2  1  0
  1 36  1  0
  1 37  1  0
  1 38  1  0
  2  3  2  0
  2 35  1  0
  3  4  1  0
  3 39  1  0
  4  5  2  0
  4 40  1  0
  5  6  1  0
  5 41  1  0
  6  7  1  0
  6 35  2  0
  7  8  1  0
  7 42  1  0
  7 43  1  0
  8  9  1  0
  9 10  2  0
  9 34  1  0
 10 11  1  0
 10 44  1  0
 11 12  2  0
 11 45  1  0
 12 13  1  0
 12 46  1  0
 13 14  1  0
 13 34  1  0
 14 15  2  0
 14 16  1  0
 16 17  1  0
 16 31  2  0
 17 18  1  0
 17 30  2  0
 18 19  2  0
 18 47  1  0
 19 20  1  0
 19 21  1  0
 20 48  1  0
 20 49  1  0
 20 50  1  0
 21 22  1  0
 21 30  1  0
 22 23  2  0
 22 28  1  0
 23 24  1  0
 23 51  1  0
 24 25  1  0
 24 26  2  0
 26 27  1  0
 26 52  1  0
 27 28  2  0
 27 53  1  0
 28 29  1  0
 31 32  1  0
 31 33  1  0
 32 54  1  0
 32 55  1  0
 32 56  1  0
 33 34  2  0
 35 57  1  0
M  END

