
     RDKit          3D

 52 52  0  0  0  0  0  0  0  0999 V2000
    8.2301   -1.2722    2.1225 C   0  0  0  0  0  0  0  0  0  0  0  0
    6.8759   -1.0768    1.4581 C   0  0  0  0  0  0  0  0  0  0  0  0
    6.5281   -2.1830    0.6165 O   0  0  0  0  0  0  0  0  0  0  0  0
    6.9897   -2.1623   -0.6603 C   0  0  0  0  0  0  0  0  0  0  0  0
    7.6724   -1.2567   -1.0930 O   0  0  0  0  0  0  0  0  0  0  0  0
    6.5649   -3.3474   -1.4379 C   0  0  0  0  0  0  0  0  0  0  0  0
    5.7754   -4.3797   -0.8994 C   0  0  0  0  0  0  0  0  0  0  0  0
    5.3957   -5.4791   -1.6611 C   0  0  0  0  0  0  0  0  0  0  0  0
    5.8019   -5.5818   -3.0135 C   0  0  0  0  0  0  0  0  0  0  0  0
    5.4630   -6.6315   -3.8504 N   0  0  0  0  0  0  0  0  0  0  0  0
    4.8297   -7.8469   -3.5656 C   0  0  0  0  0  0  0  0  0  0  0  0
    4.5151   -8.1413   -2.3761 O   0  0  0  0  0  0  0  0  0  0  0  0
    4.5914   -8.7215   -4.6893 C   0  0  0  0  0  0  0  0  0  0  0  0
    5.0885   -8.3445   -5.9652 C   0  0  0  0  0  0  0  0  0  0  0  0
    5.5298   -8.0076   -6.9938 N   0  0  0  0  0  0  0  0  0  0  0  0
    3.9007   -9.9693   -4.5697 C   0  0  0  0  0  0  0  0  0  0  0  0
    3.0617  -10.2051   -3.4554 N   0  0  0  0  0  0  0  0  0  0  0  0
    2.9119  -11.5457   -2.9584 C   0  0  0  0  0  0  0  0  0  0  0  0
    4.1952  -12.2406   -2.4517 C   0  0  0  0  0  0  0  0  0  0  0  0
    5.0026  -11.3638   -1.5942 N   0  0  0  0  0  0  0  0  0  0  0  0
    4.4540  -10.8464   -0.3576 C   0  0  0  0  0  0  0  0  0  0  0  0
    4.9419  -11.6349    0.8718 C   0  0  0  0  0  0  0  0  0  0  0  0
    6.3049  -10.9795   -2.1001 C   0  0  0  0  0  0  0  0  0  0  0  0
    7.0820   -9.9344   -1.3222 C   0  0  0  0  0  0  0  0  0  0  0  0
    6.5922   -4.5368   -3.5558 C   0  0  0  0  0  0  0  0  0  0  0  0
    6.9634   -3.4474   -2.7844 C   0  0  0  0  0  0  0  0  0  0  0  0
    8.4302   -0.4453    2.8234 H   0  0  0  0  0  0  0  0  0  0  0  0
    9.0320   -1.2852    1.3698 H   0  0  0  0  0  0  0  0  0  0  0  0
    8.2588   -2.2175    2.6873 H   0  0  0  0  0  0  0  0  0  0  0  0
    6.8675   -0.1527    0.8609 H   0  0  0  0  0  0  0  0  0  0  0  0
    6.0713   -1.0265    2.2074 H   0  0  0  0  0  0  0  0  0  0  0  0
    5.4505   -4.3088    0.1399 H   0  0  0  0  0  0  0  0  0  0  0  0
    4.7772   -6.2684   -1.2428 H   0  0  0  0  0  0  0  0  0  0  0  0
    5.7245   -6.5051   -4.8238 H   0  0  0  0  0  0  0  0  0  0  0  0
    3.6874  -10.5501   -5.4715 H   0  0  0  0  0  0  0  0  0  0  0  0
    3.2350   -9.4946   -2.7397 H   0  0  0  0  0  0  0  0  0  0  0  0
    2.5073  -12.2084   -3.7446 H   0  0  0  0  0  0  0  0  0  0  0  0
    2.1500  -11.5437   -2.1613 H   0  0  0  0  0  0  0  0  0  0  0  0
    4.8319  -12.5395   -3.2926 H   0  0  0  0  0  0  0  0  0  0  0  0
    3.9565  -13.1495   -1.8709 H   0  0  0  0  0  0  0  0  0  0  0  0
    3.3619  -10.9072   -0.4231 H   0  0  0  0  0  0  0  0  0  0  0  0
    4.7285   -9.7855   -0.2942 H   0  0  0  0  0  0  0  0  0  0  0  0
    4.6435  -12.6923    0.8130 H   0  0  0  0  0  0  0  0  0  0  0  0
    4.4795  -11.1977    1.7673 H   0  0  0  0  0  0  0  0  0  0  0  0
    6.0328  -11.5837    0.9907 H   0  0  0  0  0  0  0  0  0  0  0  0
    6.1057  -10.6438   -3.1339 H   0  0  0  0  0  0  0  0  0  0  0  0
    6.8737  -11.9260   -2.2123 H   0  0  0  0  0  0  0  0  0  0  0  0
    6.5316   -8.9840   -1.3046 H   0  0  0  0  0  0  0  0  0  0  0  0
    8.0319   -9.7615   -1.8478 H   0  0  0  0  0  0  0  0  0  0  0  0
    7.3265  -10.2520   -0.2982 H   0  0  0  0  0  0  0  0  0  0  0  0
    6.9124   -4.5978   -4.6002 H   0  0  0  0  0  0  0  0  0  0  0  0
    7.5728   -2.6470   -3.2088 H   0  0  0  0  0  0  0  0  0  0  0  0
  1  2  1  0
  1 27  1  0
  1 28  1  0
  1 29  1  0
  2  3  1  0
  2 30  1  0
  2 31  1  0
  3  4  1  0
  4  5  2  0
  4  6  1  0
  6  7  2  0
  6 26  1  0
  7  8  1  0
  7 32  1  0
  8  9  2  0
  8 33  1  0
  9 10  1  0
  9 25  1  0
 10 11  1  0
 10 34  1  0
 11 12  2  0
 11 13  1  0
 13 14  1  0
 13 16  2  0
 14 15  3  0
 16 17  1  0
 16 35  1  0
 17 18  1  0
 17 36  1  0
 18 19  1  0
 18 37  1  0
 18 38  1  0
 19 20  1  0
 19 39  1  0
 19 40  1  0
 20 21  1  0
 20 23  1  0
 21 22  1  0
 21 41  1  0
 21 42  1  0
 22 43  1  0
 22 44  1  0
 22 45  1  0
 23 24  1  0
 23 46  1  0
 23 47  1  0
 24 48  1  0
 24 49  1  0
 24 50  1  0
 25 26  2  0
 25 51  1  0
 26 52  1  0
M  END

