
     RDKit          3D

 49 53  0  0  0  0  0  0  0  0999 V2000
    5.9306   -3.5709   -7.9761 C   0  0  0  0  0  0  0  0  0  0  0  0
    5.9191   -3.0246   -6.5669 C   0  0  0  0  0  0  0  0  0  0  0  0
    5.6405   -1.6604   -6.3455 C   0  0  0  0  0  0  0  0  0  0  0  0
    5.6308   -1.1403   -5.0380 C   0  0  0  0  0  0  0  0  0  0  0  0
    5.8954   -1.9763   -3.9631 C   0  0  0  0  0  0  0  0  0  0  0  0
    6.1835   -3.3754   -4.1310 C   0  0  0  0  0  0  0  0  0  0  0  0
    6.1833   -3.8543   -5.4796 C   0  0  0  0  0  0  0  0  0  0  0  0
    6.4508   -4.1867   -3.0045 C   0  0  0  0  0  0  0  0  0  0  0  0
    6.4525   -3.6649   -1.6741 C   0  0  0  0  0  0  0  0  0  0  0  0
    6.8365   -4.4906   -0.4891 C   0  0  0  0  0  0  0  0  0  0  0  0
    5.6982   -5.2675    0.1236 N   0  0  0  0  0  0  0  0  0  0  0  0
    4.4752   -4.5590    0.4775 C   0  0  0  0  0  0  0  0  0  0  0  0
    4.6956   -4.1791    1.9337 C   0  0  0  0  0  0  0  0  0  0  0  0
    5.3559   -2.9622    2.2578 C   0  0  0  0  0  0  0  0  0  0  0  0
    5.5256   -2.6025    3.5838 C   0  0  0  0  0  0  0  0  0  0  0  0
    5.0796   -3.4772    4.5896 C   0  0  0  0  0  0  0  0  0  0  0  0
    5.2517   -3.1406    5.8548 F   0  0  0  0  0  0  0  0  0  0  0  0
    4.4576   -4.7059    4.2991 C   0  0  0  0  0  0  0  0  0  0  0  0
    4.2879   -5.0593    2.9730 C   0  0  0  0  0  0  0  0  0  0  0  0
    5.9524   -6.6086    0.5087 C   0  0  0  0  0  0  0  0  0  0  0  0
    7.0930   -6.9509    0.7540 O   0  0  0  0  0  0  0  0  0  0  0  0
    4.8421   -7.5923    0.5649 C   0  0  0  0  0  0  0  0  0  0  0  0
    4.9265   -8.7682    1.2885 C   0  0  0  0  0  0  0  0  0  0  0  0
    3.8148   -9.6291    1.0923 C   0  0  0  0  0  0  0  0  0  0  0  0
    2.9051   -9.1144    0.1977 C   0  0  0  0  0  0  0  0  0  0  0  0
    3.3879   -7.5764   -0.4080 S   0  0  0  0  0  0  0  0  0  0  0  0
    6.1563   -2.2973   -1.5350 C   0  0  0  0  0  0  0  0  0  0  0  0
    6.0305   -1.4934   -0.4580 N   0  0  0  0  0  0  0  0  0  0  0  0
    5.7164   -0.2692   -0.9309 N   0  0  0  0  0  0  0  0  0  0  0  0
    5.6334   -0.2474   -2.2109 N   0  0  0  0  0  0  0  0  0  0  0  0
    5.9005   -1.5172   -2.6329 N   0  0  0  0  0  0  0  0  0  0  0  0
    6.6771   -3.0512   -8.6004 H   0  0  0  0  0  0  0  0  0  0  0  0
    4.9527   -3.4314   -8.4678 H   0  0  0  0  0  0  0  0  0  0  0  0
    6.1664   -4.6455   -7.9946 H   0  0  0  0  0  0  0  0  0  0  0  0
    5.4334   -1.0003   -7.1910 H   0  0  0  0  0  0  0  0  0  0  0  0
    5.4208   -0.0874   -4.8475 H   0  0  0  0  0  0  0  0  0  0  0  0
    6.4030   -4.9122   -5.6491 H   0  0  0  0  0  0  0  0  0  0  0  0
    6.6911   -5.2394   -3.1715 H   0  0  0  0  0  0  0  0  0  0  0  0
    7.2816   -3.8690    0.3026 H   0  0  0  0  0  0  0  0  0  0  0  0
    7.5882   -5.2482   -0.7397 H   0  0  0  0  0  0  0  0  0  0  0  0
    3.5875   -5.1879    0.3593 H   0  0  0  0  0  0  0  0  0  0  0  0
    4.3826   -3.6805   -0.1671 H   0  0  0  0  0  0  0  0  0  0  0  0
    5.6877   -2.2973    1.4439 H   0  0  0  0  0  0  0  0  0  0  0  0
    5.9932   -1.6577    3.8654 H   0  0  0  0  0  0  0  0  0  0  0  0
    4.1241   -5.3428    5.1195 H   0  0  0  0  0  0  0  0  0  0  0  0
    3.8105   -6.0082    2.7231 H   0  0  0  0  0  0  0  0  0  0  0  0
    5.7830   -8.9896    1.9260 H   0  0  0  0  0  0  0  0  0  0  0  0
    3.6942  -10.5961    1.5821 H   0  0  0  0  0  0  0  0  0  0  0  0
    1.9760   -9.5640   -0.1515 H   0  0  0  0  0  0  0  0  0  0  0  0
  1  2  1  0
  1 32  1  0
  1 33  1  0
  1 34  1  0
  2  3  2  0
  2  7  1  0
  3  4  1  0
  3 35  1  0
  4  5  2  0
  4 36  1  0
  5  6  1  0
  5 31  1  0
  6  7  2  0
  6  8  1  0
  7 37  1  0
  8  9  2  0
  8 38  1  0
  9 10  1  0
  9 27  1  0
 10 11  1  0
 10 39  1  0
 10 40  1  0
 11 12  1  0
 11 20  1  0
 12 13  1  0
 12 41  1  0
 12 42  1  0
 13 14  2  0
 13 19  1  0
 14 15  1  0
 14 43  1  0
 15 16  2  0
 15 44  1  0
 16 17  1  0
 16 18  1  0
 18 19  2  0
 18 45  1  0
 19 46  1  0
 20 21  2  0
 20 22  1  0
 22 23  2  0
 22 26  1  0
 23 24  1  0
 23 47  1  0
 24 25  2  0
 24 48  1  0
 25 26  1  0
 25 49  1  0
 27 28  2  0
 27 31  1  0
 28 29  1  0
 29 30  2  0
 30 31  1  0
M  END

