
     RDKit          3D

 43 46  0  0  0  0  0  0  0  0999 V2000
    4.3036    3.6690    0.7928 C   0  0  0  0  0  0  0  0  0  0  0  0
    5.7317    3.5199    1.0034 N   0  0  0  0  0  0  0  0  0  0  0  0
    6.2617    3.3443    2.3450 C   0  0  0  0  0  0  0  0  0  0  0  0
    6.5934    4.6053    3.1841 C   0  0  2  0  0  0  0  0  0  0  0  0
    5.3727    5.5459    3.3298 C   0  0  0  0  0  0  0  0  0  0  0  0
    5.7122    6.7451    4.2365 C   0  0  1  0  0  0  0  0  0  0  0  0
    6.1256    6.2393    5.6318 C   0  0  0  0  0  0  0  0  0  0  0  0
    7.3600    5.3260    5.5016 C   0  0  2  0  0  0  0  0  0  0  0  0
    8.5231    6.1214    4.8774 C   0  0  0  0  0  0  0  0  0  0  0  0
    8.1082    6.6247    3.4814 C   0  0  2  0  0  0  0  0  0  0  0  0
    6.8751    7.5394    3.6108 C   0  0  0  0  0  0  0  0  0  0  0  0
    7.7661    5.4185    2.5841 C   0  0  0  0  0  0  0  0  0  0  0  0
    7.0130    4.1283    4.5977 C   0  0  0  0  0  0  0  0  0  0  0  0
    6.5744    3.6894   -0.0849 C   0  0  0  0  0  0  0  0  0  0  0  0
    5.9348    3.7318   -1.2802 O   0  0  0  0  0  0  0  0  0  0  0  0
    7.9247    3.0859   -0.1246 C   0  0  2  0  0  0  0  0  0  0  0  0
    8.6695    3.5445    0.5379 H   0  0  0  0  0  0  0  0  0  0  0  0
    8.4778    2.5038   -1.4193 C   0  0  0  0  0  0  0  0  0  0  0  0
    8.1672    1.5784   -0.2928 C   0  0  1  0  0  0  0  0  0  0  0  0
    9.5391    0.8746    0.6133 Cl  0  0  0  0  0  0  0  0  0  0  0  0
    6.7891    0.4799   -0.4195 Cl  0  0  0  0  0  0  0  0  0  0  0  0
    3.7648    3.2386    1.6486 H   0  0  0  0  0  0  0  0  0  0  0  0
    4.0004    3.1255   -0.1167 H   0  0  0  0  0  0  0  0  0  0  0  0
    3.9828    4.7227    0.6834 H   0  0  0  0  0  0  0  0  0  0  0  0
    7.1665    2.7164    2.2868 H   0  0  0  0  0  0  0  0  0  0  0  0
    5.5150    2.7530    2.9035 H   0  0  0  0  0  0  0  0  0  0  0  0
    4.5164    4.9865    3.7479 H   0  0  0  0  0  0  0  0  0  0  0  0
    5.0639    5.9125    2.3372 H   0  0  0  0  0  0  0  0  0  0  0  0
    4.8247    7.3948    4.3253 H   0  0  0  0  0  0  0  0  0  0  0  0
    5.2913    5.6863    6.0980 H   0  0  0  0  0  0  0  0  0  0  0  0
    6.3512    7.0929    6.2942 H   0  0  0  0  0  0  0  0  0  0  0  0
    7.6554    4.9561    6.4983 H   0  0  0  0  0  0  0  0  0  0  0  0
    9.4211    5.4839    4.7993 H   0  0  0  0  0  0  0  0  0  0  0  0
    8.7925    6.9732    5.5256 H   0  0  0  0  0  0  0  0  0  0  0  0
    8.9413    7.1881    3.0274 H   0  0  0  0  0  0  0  0  0  0  0  0
    6.5816    7.9248    2.6189 H   0  0  0  0  0  0  0  0  0  0  0  0
    7.1164    8.4173    4.2350 H   0  0  0  0  0  0  0  0  0  0  0  0
    8.6545    4.7685    2.4902 H   0  0  0  0  0  0  0  0  0  0  0  0
    7.5064    5.7562    1.5665 H   0  0  0  0  0  0  0  0  0  0  0  0
    6.1943    3.5411    5.0511 H   0  0  0  0  0  0  0  0  0  0  0  0
    7.8811    3.4499    4.5182 H   0  0  0  0  0  0  0  0  0  0  0  0
    9.5307    2.6822   -1.6518 H   0  0  0  0  0  0  0  0  0  0  0  0
    7.8117    2.4623   -2.2849 H   0  0  0  0  0  0  0  0  0  0  0  0
  1  2  1  0
  1 22  1  0
  1 23  1  0
  1 24  1  0
  2  3  1  0
  2 14  1  0
  4  3  1  6
  3 25  1  0
  3 26  1  0
  4  5  1  0
  4 12  1  0
  4 13  1  0
  5  6  1  0
  5 27  1  0
  5 28  1  0
  6  7  1  0
  6 11  1  0
  6 29  1  1
  7  8  1  0
  7 30  1  0
  7 31  1  0
  8  9  1  0
  8 13  1  0
  8 32  1  1
  9 10  1  0
  9 33  1  0
  9 34  1  0
 10 11  1  0
 10 12  1  0
 10 35  1  6
 11 36  1  0
 11 37  1  0
 12 38  1  0
 12 39  1  0
 13 40  1  0
 13 41  1  0
 14 15  2  0
 14 16  1  0
 16 17  1  1
 16 18  1  0
 16 19  1  0
 18 19  1  0
 18 42  1  0
 18 43  1  0
 19 20  1  1
 19 21  1  0
M  END

