
     RDKit          3D

 59 63  0  0  0  0  0  0  0  0999 V2000
    1.4183   -9.0223    6.9395 C   0  0  0  0  0  0  0  0  0  0  0  0
    1.0660   -9.0596    5.5672 O   0  0  0  0  0  0  0  0  0  0  0  0
    1.0780   -7.8695    4.8891 C   0  0  0  0  0  0  0  0  0  0  0  0
   -0.1149   -7.3661    4.3653 C   0  0  0  0  0  0  0  0  0  0  0  0
   -0.0968   -6.1707    3.6415 C   0  0  0  0  0  0  0  0  0  0  0  0
    1.0969   -5.4811    3.4458 C   0  0  0  0  0  0  0  0  0  0  0  0
    2.3269   -5.9610    3.9471 C   0  0  0  0  0  0  0  0  0  0  0  0
    3.5709   -5.1760    3.6975 C   0  0  0  0  0  0  0  0  0  0  0  0
    4.8616   -5.7264    3.7616 C   0  0  0  0  0  0  0  0  0  0  0  0
    6.0048   -4.9413    3.4652 C   0  0  0  0  0  0  0  0  0  0  0  0
    7.3528   -5.4736    3.5152 C   0  0  0  0  0  0  0  0  0  0  0  0
    7.8439   -6.7371    3.8433 C   0  0  0  0  0  0  0  0  0  0  0  0
    9.2692   -6.6832    3.7168 C   0  0  0  0  0  0  0  0  0  0  0  0
   10.3189   -7.6009    3.8888 C   0  0  0  0  0  0  0  0  0  0  0  0
   11.6406   -7.1943    3.6692 C   0  0  0  0  0  0  0  0  0  0  0  0
   11.9499   -5.8798    3.2689 C   0  0  0  0  0  0  0  0  0  0  0  0
   13.3844   -5.4578    3.1030 C   0  0  0  0  0  0  0  0  0  0  0  0
   13.9130   -4.5707    4.1775 N   0  0  0  0  0  0  0  0  0  0  0  0
   13.3606   -4.5673    5.4858 C   0  0  0  0  0  0  0  0  0  0  0  0
   14.2165   -5.5489    6.4177 C   0  0  0  0  0  0  0  0  0  0  0  0
   15.5987   -5.1733    6.3717 N   0  0  0  0  0  0  0  0  0  0  0  0
   16.0572   -4.1590    7.3038 C   0  0  0  0  0  0  0  0  0  0  0  0
   16.1407   -5.1616    5.0481 C   0  0  0  0  0  0  0  0  0  0  0  0
   15.2793   -4.1874    4.1172 C   0  0  0  0  0  0  0  0  0  0  0  0
   10.9142   -4.9431    3.0789 C   0  0  0  0  0  0  0  0  0  0  0  0
    9.5978   -5.3450    3.3039 C   0  0  0  0  0  0  0  0  0  0  0  0
    8.4242   -4.6543    3.1938 N   0  0  0  0  0  0  0  0  0  0  0  0
    8.2220   -3.6814    2.9301 H   0  0  0  0  0  0  0  0  0  0  0  0
    5.7958   -3.5612    3.0985 C   0  0  0  0  0  0  0  0  0  0  0  0
    6.6680   -2.7156    2.8043 O   0  0  0  0  0  0  0  0  0  0  0  0
    4.4669   -3.1727    3.0815 N   0  0  0  0  0  0  0  0  0  0  0  0
    4.3015   -2.2060    2.8224 H   0  0  0  0  0  0  0  0  0  0  0  0
    3.3522   -3.8975    3.3558 N   0  0  0  0  0  0  0  0  0  0  0  0
    2.2732   -7.1637    4.6693 C   0  0  0  0  0  0  0  0  0  0  0  0
    3.3941   -7.7040    5.2012 F   0  0  0  0  0  0  0  0  0  0  0  0
    1.2773  -10.0405    7.3306 H   0  0  0  0  0  0  0  0  0  0  0  0
    0.7642   -8.3313    7.5035 H   0  0  0  0  0  0  0  0  0  0  0  0
    2.4679   -8.7224    7.0920 H   0  0  0  0  0  0  0  0  0  0  0  0
   -1.0334   -7.9313    4.5352 H   0  0  0  0  0  0  0  0  0  0  0  0
   -1.0269   -5.7723    3.2280 H   0  0  0  0  0  0  0  0  0  0  0  0
    1.1214   -4.5423    2.8932 H   0  0  0  0  0  0  0  0  0  0  0  0
    4.9886   -6.7724    4.0246 H   0  0  0  0  0  0  0  0  0  0  0  0
    7.2497   -7.5990    4.1354 H   0  0  0  0  0  0  0  0  0  0  0  0
   10.1081   -8.6324    4.1840 H   0  0  0  0  0  0  0  0  0  0  0  0
   12.4492   -7.9221    3.7958 H   0  0  0  0  0  0  0  0  0  0  0  0
   13.5384   -4.8959    2.1680 H   0  0  0  0  0  0  0  0  0  0  0  0
   14.0466   -6.3434    3.0486 H   0  0  0  0  0  0  0  0  0  0  0  0
   12.3178   -4.8958    5.4702 H   0  0  0  0  0  0  0  0  0  0  0  0
   13.4273   -3.5610    5.9314 H   0  0  0  0  0  0  0  0  0  0  0  0
   14.0819   -6.5677    6.0316 H   0  0  0  0  0  0  0  0  0  0  0  0
   13.8297   -5.4970    7.4428 H   0  0  0  0  0  0  0  0  0  0  0  0
   15.7326   -4.4156    8.3206 H   0  0  0  0  0  0  0  0  0  0  0  0
   15.6587   -3.1539    7.0582 H   0  0  0  0  0  0  0  0  0  0  0  0
   17.1539   -4.1071    7.2888 H   0  0  0  0  0  0  0  0  0  0  0  0
   16.0848   -6.1681    4.6082 H   0  0  0  0  0  0  0  0  0  0  0  0
   17.1866   -4.8285    5.0543 H   0  0  0  0  0  0  0  0  0  0  0  0
   15.6623   -4.2470    3.0906 H   0  0  0  0  0  0  0  0  0  0  0  0
   15.4238   -3.1609    4.4940 H   0  0  0  0  0  0  0  0  0  0  0  0
   11.1312   -3.9209    2.7537 H   0  0  0  0  0  0  0  0  0  0  0  0
  1  2  1  0
  1 36  1  0
  1 37  1  0
  1 38  1  0
  2  3  1  0
  3  4  2  0
  3 34  1  0
  4  5  1  0
  4 39  1  0
  5  6  2  0
  5 40  1  0
  6  7  1  0
  6 41  1  0
  7  8  1  0
  7 34  2  0
  8  9  1  0
  8 33  2  0
  9 10  2  0
  9 42  1  0
 10 11  1  0
 10 29  1  0
 11 12  2  0
 11 27  1  0
 12 13  1  0
 12 43  1  0
 13 14  2  0
 13 26  1  0
 14 15  1  0
 14 44  1  0
 15 16  2  0
 15 45  1  0
 16 17  1  0
 16 25  1  0
 17 18  1  0
 17 46  1  0
 17 47  1  0
 18 19  1  0
 18 24  1  0
 19 20  1  0
 19 48  1  0
 19 49  1  0
 20 21  1  0
 20 50  1  0
 20 51  1  0
 21 22  1  0
 21 23  1  0
 22 52  1  0
 22 53  1  0
 22 54  1  0
 23 24  1  0
 23 55  1  0
 23 56  1  0
 24 57  1  0
 24 58  1  0
 25 26  2  0
 25 59  1  0
 26 27  1  0
 27 28  1  0
 29 30  2  0
 29 31  1  0
 31 32  1  0
 31 33  1  0
 34 35  1  0
M  END

