
     RDKit          3D

 41 43  0  0  0  0  0  0  0  0999 V2000
    3.3194   -2.9725    4.5229 C   0  0  0  0  0  0  0  0  0  0  0  0
    2.7890   -2.7634    3.2240 O   0  0  0  0  0  0  0  0  0  0  0  0
    3.5488   -2.2346    2.2562 C   0  0  0  0  0  0  0  0  0  0  0  0
    4.8801   -1.8581    2.4287 C   0  0  0  0  0  0  0  0  0  0  0  0
    5.5960   -1.3086    1.3496 C   0  0  0  0  0  0  0  0  0  0  0  0
    6.8747   -0.9306    1.4617 O   0  0  0  0  0  0  0  0  0  0  0  0
    4.9823   -1.1315    0.0849 C   0  0  0  0  0  0  0  0  0  0  0  0
    3.6703   -1.5024   -0.0873 C   0  0  0  0  0  0  0  0  0  0  0  0
    2.9040   -2.0638    0.9776 C   0  0  0  0  0  0  0  0  0  0  0  0
    1.5496   -2.4434    0.8076 C   0  0  0  0  0  0  0  0  0  0  0  0
    0.9542   -2.2803   -0.3752 N   0  0  0  0  0  0  0  0  0  0  0  0
   -0.2595   -2.6318   -0.5187 N   0  0  0  0  0  0  0  0  0  0  0  0
   -1.0708   -2.2709   -1.7367 C   0  0  0  0  0  0  0  0  0  0  0  0
   -1.6084   -1.1436   -1.7011 O   0  0  0  0  0  0  0  0  0  0  0  0
   -1.1901   -3.3045   -2.6861 C   0  0  0  0  0  0  0  0  0  0  0  0
   -0.6756   -4.6198   -2.8243 C   0  0  0  0  0  0  0  0  0  0  0  0
   -1.2087   -5.1020   -4.0420 C   0  0  0  0  0  0  0  0  0  0  0  0
   -1.0785   -6.4206   -4.7050 C   0  0  0  0  0  0  0  0  0  0  0  0
   -2.0196   -6.7416   -5.7098 C   0  0  0  0  0  0  0  0  0  0  0  0
   -2.0068   -7.9443   -6.4066 C   0  0  0  0  0  0  0  0  0  0  0  0
   -1.0230   -8.8904   -6.1068 C   0  0  0  0  0  0  0  0  0  0  0  0
   -0.9836  -10.4200   -6.9598 Cl  0  0  0  0  0  0  0  0  0  0  0  0
   -0.0676   -8.6239   -5.1307 C   0  0  0  0  0  0  0  0  0  0  0  0
   -0.0998   -7.4017   -4.4464 C   0  0  0  0  0  0  0  0  0  0  0  0
    1.1881   -7.1743   -3.2680 Cl  0  0  0  0  0  0  0  0  0  0  0  0
   -1.9924   -4.1845   -4.6357 N   0  0  0  0  0  0  0  0  0  0  0  0
   -1.9677   -3.1222   -3.8122 N   0  0  0  0  0  0  0  0  0  0  0  0
   -2.4763   -2.2765   -4.0323 H   0  0  0  0  0  0  0  0  0  0  0  0
    2.5085   -3.4073    5.1194 H   0  0  0  0  0  0  0  0  0  0  0  0
    3.6382   -2.0214    4.9812 H   0  0  0  0  0  0  0  0  0  0  0  0
    4.1695   -3.6747    4.4987 H   0  0  0  0  0  0  0  0  0  0  0  0
    5.3781   -1.9828    3.3906 H   0  0  0  0  0  0  0  0  0  0  0  0
    7.2073   -1.0898    2.3564 H   0  0  0  0  0  0  0  0  0  0  0  0
    5.5714   -0.7022   -0.7259 H   0  0  0  0  0  0  0  0  0  0  0  0
    3.1749   -1.3760   -1.0501 H   0  0  0  0  0  0  0  0  0  0  0  0
    0.9970   -2.8688    1.6564 H   0  0  0  0  0  0  0  0  0  0  0  0
   -0.7618   -2.9954    0.3070 H   0  0  0  0  0  0  0  0  0  0  0  0
   -0.0208   -5.1381   -2.1371 H   0  0  0  0  0  0  0  0  0  0  0  0
   -2.7786   -5.9899   -5.9286 H   0  0  0  0  0  0  0  0  0  0  0  0
   -2.7535   -8.1543   -7.1740 H   0  0  0  0  0  0  0  0  0  0  0  0
    0.7077   -9.3532   -4.8989 H   0  0  0  0  0  0  0  0  0  0  0  0
  1  2  1  0
  1 29  1  0
  1 30  1  0
  1 31  1  0
  2  3  1  0
  3  4  2  0
  3  9  1  0
  4  5  1  0
  4 32  1  0
  5  6  1  0
  5  7  2  0
  6 33  1  0
  7  8  1  0
  7 34  1  0
  8  9  2  0
  8 35  1  0
  9 10  1  0
 10 11  2  0
 10 36  1  0
 11 12  1  0
 12 13  1  0
 12 37  1  0
 13 14  2  0
 13 15  1  0
 15 16  2  0
 15 27  1  0
 16 17  1  0
 16 38  1  0
 17 18  1  0
 17 26  2  0
 18 19  2  0
 18 24  1  0
 19 20  1  0
 19 39  1  0
 20 21  2  0
 20 40  1  0
 21 22  1  0
 21 23  1  0
 23 24  2  0
 23 41  1  0
 24 25  1  0
 26 27  1  0
 27 28  1  0
M  END

