
     RDKit          3D

 66 69  0  0  0  0  0  0  0  0999 V2000
    3.4650    3.1628   -2.5565 C   0  0  0  0  0  0  0  0  0  0  0  0
    4.2269    1.9123   -2.1593 C   0  0  0  0  0  0  0  0  0  0  0  0
    5.4565    2.3109   -1.5811 O   0  0  0  0  0  0  0  0  0  0  0  0
    6.3307    1.3645   -1.1425 C   0  0  0  0  0  0  0  0  0  0  0  0
    6.1221   -0.0192   -1.2231 C   0  0  0  0  0  0  0  0  0  0  0  0
    7.0809   -0.9184   -0.7420 C   0  0  0  0  0  0  0  0  0  0  0  0
    8.2684   -0.4475   -0.1639 C   0  0  0  0  0  0  0  0  0  0  0  0
    9.2780   -1.2943    0.3374 N   0  0  0  0  0  0  0  0  0  0  0  0
    9.2808   -2.6602    0.4440 C   0  0  0  0  0  0  0  0  0  0  0  0
    8.4184   -3.3787    0.0243 O   0  0  0  0  0  0  0  0  0  0  0  0
   10.4753   -3.2076    1.2396 C   0  0  0  0  0  0  0  0  0  0  0  0
   10.8929   -4.5036    0.7805 N   0  0  0  0  0  0  0  0  0  0  0  0
   11.5003   -4.6455   -0.4399 C   0  0  0  0  0  0  0  0  0  0  0  0
   11.8219   -3.7508   -1.1819 O   0  0  0  0  0  0  0  0  0  0  0  0
   11.7643   -6.4072   -0.7408 S   0  0  0  0  0  0  0  0  0  0  0  0
   11.0338   -6.8465    0.8142 C   0  0  0  0  0  0  0  0  0  0  0  0
   10.9115   -8.1596    1.2787 C   0  0  0  0  0  0  0  0  0  0  0  0
   10.2844   -8.4178    2.5980 C   0  0  0  0  0  0  0  0  0  0  0  0
   11.0686   -8.6633    3.7186 C   0  0  0  0  0  0  0  0  0  0  0  0
   10.5259   -8.8277    5.0045 C   0  0  0  0  0  0  0  0  0  0  0  0
   11.2146   -9.0130    6.1170 O   0  0  0  0  0  0  0  0  0  0  0  0
   12.6585   -9.0312    6.1424 C   0  0  0  0  0  0  0  0  0  0  0  0
   13.1958  -10.4366    5.9386 C   0  0  0  0  0  0  0  0  0  0  0  0
    9.0869   -8.7528    5.1864 C   0  0  0  0  0  0  0  0  0  0  0  0
    8.6680   -8.8686    6.4435 O   0  0  0  0  0  0  0  0  0  0  0  0
    7.2949   -8.6785    6.7722 C   0  0  0  0  0  0  0  0  0  0  0  0
    7.1390   -8.6216    8.2729 C   0  0  0  0  0  0  0  0  0  0  0  0
    8.2146   -8.3188    9.1166 C   0  0  0  0  0  0  0  0  0  0  0  0
    8.0123   -8.1848   10.4902 C   0  0  0  0  0  0  0  0  0  0  0  0
    6.7351   -8.3294   11.0410 C   0  0  0  0  0  0  0  0  0  0  0  0
    6.5167   -8.1432   12.7546 Cl  0  0  0  0  0  0  0  0  0  0  0  0
    5.6479   -8.6115   10.1949 C   0  0  0  0  0  0  0  0  0  0  0  0
    4.0432   -8.8164   10.8306 Cl  0  0  0  0  0  0  0  0  0  0  0  0
    5.8601   -8.7681    8.8223 C   0  0  0  0  0  0  0  0  0  0  0  0
    8.2718   -8.5644    4.0753 C   0  0  0  0  0  0  0  0  0  0  0  0
    8.8494   -8.4167    2.8109 C   0  0  0  0  0  0  0  0  0  0  0  0
    7.7069   -8.1794    1.3581 Br  0  0  0  0  0  0  0  0  0  0  0  0
   10.5973   -5.6858    1.5223 C   0  0  0  0  0  0  0  0  0  0  0  0
   10.0407   -5.6403    2.6425 O   0  0  0  0  0  0  0  0  0  0  0  0
    8.4692    0.9441   -0.0797 C   0  0  0  0  0  0  0  0  0  0  0  0
    7.5206    1.8363   -0.5631 C   0  0  0  0  0  0  0  0  0  0  0  0
    2.4977    2.8937   -3.0086 H   0  0  0  0  0  0  0  0  0  0  0  0
    4.0398    3.7515   -3.2879 H   0  0  0  0  0  0  0  0  0  0  0  0
    3.2758    3.7982   -1.6777 H   0  0  0  0  0  0  0  0  0  0  0  0
    4.4081    1.2695   -3.0422 H   0  0  0  0  0  0  0  0  0  0  0  0
    3.6426    1.3131   -1.4342 H   0  0  0  0  0  0  0  0  0  0  0  0
    5.2107   -0.4233   -1.6642 H   0  0  0  0  0  0  0  0  0  0  0  0
    6.9150   -1.9915   -0.8070 H   0  0  0  0  0  0  0  0  0  0  0  0
   10.1012   -0.8193    0.6878 H   0  0  0  0  0  0  0  0  0  0  0  0
   10.1444   -3.3516    2.2817 H   0  0  0  0  0  0  0  0  0  0  0  0
   11.3227   -2.5030    1.2201 H   0  0  0  0  0  0  0  0  0  0  0  0
   11.1716   -9.0168    0.6581 H   0  0  0  0  0  0  0  0  0  0  0  0
   12.1470   -8.6779    3.5743 H   0  0  0  0  0  0  0  0  0  0  0  0
   12.9075   -8.6511    7.1427 H   0  0  0  0  0  0  0  0  0  0  0  0
   13.0492   -8.3216    5.3994 H   0  0  0  0  0  0  0  0  0  0  0  0
   12.7839  -11.1252    6.6914 H   0  0  0  0  0  0  0  0  0  0  0  0
   14.2918  -10.4259    6.0441 H   0  0  0  0  0  0  0  0  0  0  0  0
   12.9542  -10.8241    4.9374 H   0  0  0  0  0  0  0  0  0  0  0  0
    6.7000   -9.5106    6.3537 H   0  0  0  0  0  0  0  0  0  0  0  0
    6.9298   -7.7454    6.3061 H   0  0  0  0  0  0  0  0  0  0  0  0
    9.2154   -8.2075    8.6983 H   0  0  0  0  0  0  0  0  0  0  0  0
    8.8490   -7.9667   11.1559 H   0  0  0  0  0  0  0  0  0  0  0  0
    5.0069   -9.0354    8.1944 H   0  0  0  0  0  0  0  0  0  0  0  0
    7.1888   -8.5380    4.1744 H   0  0  0  0  0  0  0  0  0  0  0  0
    9.3894    1.3328    0.3676 H   0  0  0  0  0  0  0  0  0  0  0  0
    7.6810    2.9147   -0.5042 H   0  0  0  0  0  0  0  0  0  0  0  0
  1  2  1  0
  1 42  1  0
  1 43  1  0
  1 44  1  0
  2  3  1  0
  2 45  1  0
  2 46  1  0
  3  4  1  0
  4  5  2  0
  4 41  1  0
  5  6  1  0
  5 47  1  0
  6  7  2  0
  6 48  1  0
  7  8  1  0
  7 40  1  0
  8  9  1  0
  8 49  1  0
  9 10  2  0
  9 11  1  0
 11 12  1  0
 11 50  1  0
 11 51  1  0
 12 13  1  0
 12 38  1  0
 13 14  2  0
 13 15  1  0
 15 16  1  0
 16 17  2  0
 16 38  1  0
 17 18  1  0
 17 52  1  0
 18 19  2  0
 18 36  1  0
 19 20  1  0
 19 53  1  0
 20 21  1  0
 20 24  2  0
 21 22  1  0
 22 23  1  0
 22 54  1  0
 22 55  1  0
 23 56  1  0
 23 57  1  0
 23 58  1  0
 24 25  1  0
 24 35  1  0
 25 26  1  0
 26 27  1  0
 26 59  1  0
 26 60  1  0
 27 28  2  0
 27 34  1  0
 28 29  1  0
 28 61  1  0
 29 30  2  0
 29 62  1  0
 30 31  1  0
 30 32  1  0
 32 33  1  0
 32 34  2  0
 34 63  1  0
 35 36  2  0
 35 64  1  0
 36 37  1  0
 38 39  2  0
 40 41  2  0
 40 65  1  0
 41 66  1  0
M  END

