
     RDKit          3D

 32 33  0  0  0  0  0  0  0  0999 V2000
    0.9133    0.1256    0.3782 C   0  0  0  0  0  0  0  0  0  0  0  0
    2.4075    0.0831    0.0636 C   0  0  1  0  0  0  0  0  0  0  0  0
    2.6662   -0.0141   -1.4470 C   0  0  0  0  0  0  0  0  0  0  0  0
    3.2380    1.2116    0.7088 C   0  0  0  0  0  0  0  0  0  0  0  0
    3.0740    2.3965    0.8031 O   0  0  0  0  0  0  0  0  0  0  0  0
    4.2680    0.2334    1.2821 C   0  0  0  0  0  0  0  0  0  0  0  0
    3.2791   -0.9135    0.9039 C   0  0  2  0  0  0  0  0  0  0  0  0
    3.7786   -1.9948    0.1722 O   0  0  0  0  0  0  0  0  0  0  0  0
    4.5282   -2.9261    0.9219 C   0  0  0  0  0  0  0  0  0  0  0  0
    4.9305   -4.0708    0.0037 C   0  0  1  0  0  0  0  0  0  0  0  0
    5.8812   -3.6986   -1.1407 C   0  0  0  0  0  0  0  0  0  0  0  0
    6.6519   -5.0087   -1.3438 C   0  0  0  0  0  0  0  0  0  0  0  0
    6.7747   -5.5216    0.0953 C   0  0  0  0  0  0  0  0  0  0  0  0
    5.6227   -5.0432    0.7850 O   0  0  0  0  0  0  0  0  0  0  0  0
    0.4490    1.0068   -0.0917 H   0  0  0  0  0  0  0  0  0  0  0  0
    0.7268    0.1891    1.4621 H   0  0  0  0  0  0  0  0  0  0  0  0
    0.4087   -0.7768   -0.0046 H   0  0  0  0  0  0  0  0  0  0  0  0
    2.1897    0.8346   -1.9619 H   0  0  0  0  0  0  0  0  0  0  0  0
    2.2466   -0.9513   -1.8430 H   0  0  0  0  0  0  0  0  0  0  0  0
    3.7394   -0.0056   -1.6884 H   0  0  0  0  0  0  0  0  0  0  0  0
    4.5517    0.3783    2.3356 H   0  0  0  0  0  0  0  0  0  0  0  0
    5.1800    0.2055    0.6623 H   0  0  0  0  0  0  0  0  0  0  0  0
    2.7269   -1.2735    1.7941 H   0  0  0  0  0  0  0  0  0  0  0  0
    3.9325   -3.3241    1.7673 H   0  0  0  0  0  0  0  0  0  0  0  0
    5.4398   -2.4622    1.3505 H   0  0  0  0  0  0  0  0  0  0  0  0
    4.0041   -4.5183   -0.4101 H   0  0  0  0  0  0  0  0  0  0  0  0
    6.5650   -2.8946   -0.8171 H   0  0  0  0  0  0  0  0  0  0  0  0
    5.3502   -3.3477   -2.0365 H   0  0  0  0  0  0  0  0  0  0  0  0
    7.6265   -4.8755   -1.8371 H   0  0  0  0  0  0  0  0  0  0  0  0
    6.0586   -5.7103   -1.9531 H   0  0  0  0  0  0  0  0  0  0  0  0
    7.6904   -5.1319    0.5814 H   0  0  0  0  0  0  0  0  0  0  0  0
    6.8047   -6.6223    0.1620 H   0  0  0  0  0  0  0  0  0  0  0  0
  2  1  1  6
  1 15  1  0
  1 16  1  0
  1 17  1  0
  2  3  1  0
  2  4  1  0
  2  7  1  0
  3 18  1  0
  3 19  1  0
  3 20  1  0
  4  5  2  0
  4  6  1  0
  6  7  1  0
  6 21  1  0
  6 22  1  0
  7  8  1  0
  7 23  1  1
  8  9  1  0
  9 10  1  0
  9 24  1  0
  9 25  1  0
 10 11  1  0
 10 14  1  0
 10 26  1  6
 11 12  1  0
 11 27  1  0
 11 28  1  0
 12 13  1  0
 12 29  1  0
 12 30  1  0
 13 14  1  0
 13 31  1  0
 13 32  1  0
M  END

