
     RDKit          3D

 47 49  0  0  0  0  0  0  0  0999 V2000
    2.4794    0.7886    0.6223 C   0  0  0  0  0  0  0  0  0  0  0  0
    3.4295    0.4189   -0.5244 C   0  0  1  0  0  0  0  0  0  0  0  0
    3.4865   -1.0992   -0.7834 C   0  0  0  0  0  0  0  0  0  0  0  0
    2.2236   -1.6134   -1.4846 C   0  0  2  0  0  0  0  0  0  0  0  0
    2.3225   -3.1108   -1.7880 C   0  0  0  0  0  0  0  0  0  0  0  0
    3.2722   -3.7940   -1.5209 O   0  0  0  0  0  0  0  0  0  0  0  0
    1.2430   -3.6526   -2.3987 O   0  0  0  0  0  0  0  0  0  0  0  0
    1.9506   -0.8006   -2.7656 C   0  0  0  0  0  0  0  0  0  0  0  0
    1.9006    0.6280   -2.4796 N   0  0  0  0  0  0  0  0  0  0  0  0
    0.9203    1.3737   -3.1090 C   0  0  0  0  0  0  0  0  0  0  0  0
    0.0989    0.8522   -3.8523 O   0  0  0  0  0  0  0  0  0  0  0  0
    0.8265    2.8474   -2.8121 C   0  0  0  0  0  0  0  0  0  0  0  0
    0.5402    3.2529   -1.5036 C   0  0  0  0  0  0  0  0  0  0  0  0
    0.1262    4.5561   -1.2273 C   0  0  0  0  0  0  0  0  0  0  0  0
   -0.0274    5.4124   -2.3192 C   0  0  0  0  0  0  0  0  0  0  0  0
    0.2669    5.0691   -3.5666 N   0  0  0  0  0  0  0  0  0  0  0  0
    0.7256    3.8360   -3.8457 C   0  0  0  0  0  0  0  0  0  0  0  0
    1.1000    3.6191   -5.1559 N   0  0  0  0  0  0  0  0  0  0  0  0
    0.5179    4.4169   -6.2357 C   0  0  0  0  0  0  0  0  0  0  0  0
    1.5815    4.8010   -7.2566 C   0  0  0  0  0  0  0  0  0  0  0  0
    2.2661    3.6597   -7.7368 O   0  0  0  0  0  0  0  0  0  0  0  0
    2.8966    2.9674   -6.6852 C   0  0  0  0  0  0  0  0  0  0  0  0
    1.9022    2.4975   -5.6173 C   0  0  0  0  0  0  0  0  0  0  0  0
    3.1046    1.1571   -1.8384 C   0  0  0  0  0  0  0  0  0  0  0  0
    2.7609    0.2589    1.5460 H   0  0  0  0  0  0  0  0  0  0  0  0
    1.4328    0.5267    0.3981 H   0  0  0  0  0  0  0  0  0  0  0  0
    2.5137    1.8689    0.8355 H   0  0  0  0  0  0  0  0  0  0  0  0
    4.4432    0.7431   -0.2318 H   0  0  0  0  0  0  0  0  0  0  0  0
    3.6477   -1.6504    0.1554 H   0  0  0  0  0  0  0  0  0  0  0  0
    4.3521   -1.3358   -1.4246 H   0  0  0  0  0  0  0  0  0  0  0  0
    1.3489   -1.4862   -0.8195 H   0  0  0  0  0  0  0  0  0  0  0  0
    0.5550   -2.9870   -2.5435 H   0  0  0  0  0  0  0  0  0  0  0  0
    0.9989   -1.0620   -3.2465 H   0  0  0  0  0  0  0  0  0  0  0  0
    2.7542   -1.0072   -3.5009 H   0  0  0  0  0  0  0  0  0  0  0  0
    0.5923    2.5162   -0.6992 H   0  0  0  0  0  0  0  0  0  0  0  0
   -0.1153    4.8797   -0.2136 H   0  0  0  0  0  0  0  0  0  0  0  0
   -0.4109    6.4304   -2.1756 H   0  0  0  0  0  0  0  0  0  0  0  0
    0.0578    5.3092   -5.7967 H   0  0  0  0  0  0  0  0  0  0  0  0
   -0.2677    3.8213   -6.7421 H   0  0  0  0  0  0  0  0  0  0  0  0
    2.2990    5.5129   -6.7982 H   0  0  0  0  0  0  0  0  0  0  0  0
    1.1168    5.2887   -8.1270 H   0  0  0  0  0  0  0  0  0  0  0  0
    3.6637    3.6132   -6.2074 H   0  0  0  0  0  0  0  0  0  0  0  0
    3.4057    2.0968   -7.1268 H   0  0  0  0  0  0  0  0  0  0  0  0
    2.4790    2.0827   -4.7793 H   0  0  0  0  0  0  0  0  0  0  0  0
    1.2632    1.6867   -6.0131 H   0  0  0  0  0  0  0  0  0  0  0  0
    2.9834    2.2333   -1.6672 H   0  0  0  0  0  0  0  0  0  0  0  0
    3.9603    1.0321   -2.5323 H   0  0  0  0  0  0  0  0  0  0  0  0
  1  2  1  0
  1 25  1  0
  1 26  1  0
  1 27  1  0
  2  3  1  0
  2 24  1  0
  2 28  1  1
  3  4  1  0
  3 29  1  0
  3 30  1  0
  4  5  1  0
  4  8  1  0
  4 31  1  1
  5  6  2  0
  5  7  1  0
  7 32  1  0
  8  9  1  0
  8 33  1  0
  8 34  1  0
  9 10  1  0
  9 24  1  0
 10 11  2  0
 10 12  1  0
 12 13  2  0
 12 17  1  0
 13 14  1  0
 13 35  1  0
 14 15  2  0
 14 36  1  0
 15 16  1  0
 15 37  1  0
 16 17  2  0
 17 18  1  0
 18 19  1  0
 18 23  1  0
 19 20  1  0
 19 38  1  0
 19 39  1  0
 20 21  1  0
 20 40  1  0
 20 41  1  0
 21 22  1  0
 22 23  1  0
 22 42  1  0
 22 43  1  0
 23 44  1  0
 23 45  1  0
 24 46  1  0
 24 47  1  0
M  END

