
     RDKit          3D

 51 55  0  0  0  0  0  0  0  0999 V2000
    3.8005   -1.5356   -0.3167 C   0  0  0  0  0  0  0  0  0  0  0  0
    3.6343   -0.1304   -0.3060 O   0  0  0  0  0  0  0  0  0  0  0  0
    3.9428    0.5570    0.8238 C   0  0  0  0  0  0  0  0  0  0  0  0
    4.4193    0.0385    2.0179 C   0  0  0  0  0  0  0  0  0  0  0  0
    4.6927    0.8152    3.0802 N   0  0  0  0  0  0  0  0  0  0  0  0
    4.4882    2.1250    2.9448 C   0  0  0  0  0  0  0  0  0  0  0  0
    4.7888    2.9825    4.1033 C   0  0  0  0  0  0  0  0  0  0  0  0
    4.6348    4.3002    4.0442 N   0  0  0  0  0  0  0  0  0  0  0  0
    4.9707    4.7995    5.2457 N   0  0  0  0  0  0  0  0  0  0  0  0
    4.9641    6.2337    5.4644 C   0  0  0  0  0  0  0  0  0  0  0  0
    6.3173    6.8907    5.2430 C   0  0  0  0  0  0  0  0  0  0  0  0
    6.9495    6.7402    3.9983 C   0  0  0  0  0  0  0  0  0  0  0  0
    8.1842    7.3329    3.7637 C   0  0  0  0  0  0  0  0  0  0  0  0
    8.7680    7.1763    2.5693 F   0  0  0  0  0  0  0  0  0  0  0  0
    8.8299    8.0905    4.7400 C   0  0  0  0  0  0  0  0  0  0  0  0
    8.2139    8.2476    5.9798 C   0  0  0  0  0  0  0  0  0  0  0  0
    6.9718    7.6511    6.2268 C   0  0  0  0  0  0  0  0  0  0  0  0
    6.2578    7.8859    7.8178 Cl  0  0  0  0  0  0  0  0  0  0  0  0
    5.3715    3.8135    6.1177 C   0  0  0  0  0  0  0  0  0  0  0  0
    5.8143    3.8761    7.4513 C   0  0  0  0  0  0  0  0  0  0  0  0
    6.1342    2.6698    8.0608 C   0  0  0  0  0  0  0  0  0  0  0  0
    6.0222    1.4370    7.3724 C   0  0  0  0  0  0  0  0  0  0  0  0
    5.5899    1.3813    6.0539 C   0  0  0  0  0  0  0  0  0  0  0  0
    5.2594    2.5903    5.4082 C   0  0  0  0  0  0  0  0  0  0  0  0
    4.0286    2.7239    1.8310 N   0  0  0  0  0  0  0  0  0  0  0  0
    3.7527    1.9744    0.7781 C   0  0  0  0  0  0  0  0  0  0  0  0
    3.2766    2.5101   -0.3940 N   0  0  0  0  0  0  0  0  0  0  0  0
    2.9751    3.8261   -0.7418 C   0  0  0  0  0  0  0  0  0  0  0  0
    3.1021    4.9364    0.1136 C   0  0  0  0  0  0  0  0  0  0  0  0
    2.7526    6.1930   -0.3874 C   0  0  0  0  0  0  0  0  0  0  0  0
    2.3040    6.4291   -1.6234 N   0  0  0  0  0  0  0  0  0  0  0  0
    2.1877    5.3684   -2.4281 C   0  0  0  0  0  0  0  0  0  0  0  0
    2.5033    4.0666   -2.0479 C   0  0  0  0  0  0  0  0  0  0  0  0
    3.4960   -1.8806   -1.3133 H   0  0  0  0  0  0  0  0  0  0  0  0
    3.1660   -2.0221    0.4448 H   0  0  0  0  0  0  0  0  0  0  0  0
    4.8534   -1.8183   -0.1416 H   0  0  0  0  0  0  0  0  0  0  0  0
    4.5913   -1.0351    2.1394 H   0  0  0  0  0  0  0  0  0  0  0  0
    4.6052    6.4350    6.4813 H   0  0  0  0  0  0  0  0  0  0  0  0
    4.2287    6.6474    4.7595 H   0  0  0  0  0  0  0  0  0  0  0  0
    6.4768    6.1486    3.2112 H   0  0  0  0  0  0  0  0  0  0  0  0
    9.7987    8.5436    4.5224 H   0  0  0  0  0  0  0  0  0  0  0  0
    8.6942    8.8310    6.7666 H   0  0  0  0  0  0  0  0  0  0  0  0
    5.9124    4.8257    7.9805 H   0  0  0  0  0  0  0  0  0  0  0  0
    6.4840    2.6718    9.0964 H   0  0  0  0  0  0  0  0  0  0  0  0
    6.2860    0.5134    7.8937 H   0  0  0  0  0  0  0  0  0  0  0  0
    5.5029    0.4409    5.5108 H   0  0  0  0  0  0  0  0  0  0  0  0
    3.1173    1.8166   -1.1169 H   0  0  0  0  0  0  0  0  0  0  0  0
    3.4618    4.8130    1.1328 H   0  0  0  0  0  0  0  0  0  0  0  0
    2.8464    7.0664    0.2696 H   0  0  0  0  0  0  0  0  0  0  0  0
    1.8198    5.5590   -3.4439 H   0  0  0  0  0  0  0  0  0  0  0  0
    2.3844    3.2427   -2.7578 H   0  0  0  0  0  0  0  0  0  0  0  0
  1  2  1  0
  1 34  1  0
  1 35  1  0
  1 36  1  0
  2  3  1  0
  3  4  2  0
  3 26  1  0
  4  5  1  0
  4 37  1  0
  5  6  2  0
  6  7  1  0
  6 25  1  0
  7  8  2  0
  7 24  1  0
  8  9  1  0
  9 10  1  0
  9 19  1  0
 10 11  1  0
 10 38  1  0
 10 39  1  0
 11 12  2  0
 11 17  1  0
 12 13  1  0
 12 40  1  0
 13 14  1  0
 13 15  2  0
 15 16  1  0
 15 41  1  0
 16 17  2  0
 16 42  1  0
 17 18  1  0
 19 20  1  0
 19 24  2  0
 20 21  2  0
 20 43  1  0
 21 22  1  0
 21 44  1  0
 22 23  2  0
 22 45  1  0
 23 24  1  0
 23 46  1  0
 25 26  2  0
 26 27  1  0
 27 28  1  0
 27 47  1  0
 28 29  2  0
 28 33  1  0
 29 30  1  0
 29 48  1  0
 30 31  2  0
 30 49  1  0
 31 32  1  0
 32 33  2  0
 32 50  1  0
 33 51  1  0
M  END

