
     RDKit          3D

 85 90  0  0  0  0  0  0  0  0999 V2000
    0.4584   -5.9950   -4.3387 C   0  0  0  0  0  0  0  0  0  0  0  0
    0.5242   -4.5792   -4.0254 N   0  0  0  0  0  0  0  0  0  0  0  0
    1.2786   -4.2349   -2.8315 C   0  0  0  0  0  0  0  0  0  0  0  0
    2.8037   -4.2394   -3.0339 C   0  0  0  0  0  0  0  0  0  0  0  0
    3.1617   -3.4336   -4.1963 N   0  0  0  0  0  0  0  0  0  0  0  0
    4.4003   -2.8649   -4.3043 C   0  0  0  0  0  0  0  0  0  0  0  0
    4.8756   -2.3145   -5.3860 N   0  0  0  0  0  0  0  0  0  0  0  0
    6.1324   -1.7788   -5.1891 C   0  0  0  0  0  0  0  0  0  0  0  0
    6.8146   -1.1088   -6.3141 C   0  0  0  0  0  0  0  0  0  0  0  0
    6.1985   -1.0618   -7.5781 C   0  0  0  0  0  0  0  0  0  0  0  0
    6.8247   -0.4410   -8.6574 C   0  0  0  0  0  0  0  0  0  0  0  0
    8.0896    0.1520   -8.5129 C   0  0  0  0  0  0  0  0  0  0  0  0
    8.8266    0.8508   -9.6208 C   0  0  0  0  0  0  0  0  0  0  0  0
    9.7455    1.6335   -9.3650 O   0  0  0  0  0  0  0  0  0  0  0  0
    8.4361    0.5501  -10.8906 N   0  0  0  0  0  0  0  0  0  0  0  0
    8.8638    1.1739  -12.1636 C   0  0  1  0  0  0  0  0  0  0  0  0
   10.3051    0.7121  -12.5631 C   0  0  0  0  0  0  0  0  0  0  0  0
   10.5244    0.2177  -13.6635 O   0  0  0  0  0  0  0  0  0  0  0  0
   11.2637    0.9382  -11.6345 N   0  0  0  0  0  0  0  0  0  0  0  0
   12.6620    0.5971  -11.8455 C   0  0  0  0  0  0  0  0  0  0  0  0
   13.1314   -0.6587  -11.0958 C   0  0  0  0  0  0  0  0  0  0  0  0
   12.3909   -1.9622  -11.4346 C   0  0  0  0  0  0  0  0  0  0  0  0
   12.4302   -2.4114  -12.8989 C   0  0  0  0  0  0  0  0  0  0  0  0
   13.7955   -2.8230  -13.3995 C   0  0  0  0  0  0  0  0  0  0  0  0
   14.8210   -2.7499  -12.7548 O   0  0  0  0  0  0  0  0  0  0  0  0
   13.8377   -3.3618  -14.7973 C   0  0  0  0  0  0  0  0  0  0  0  0
   12.8353   -3.5741  -15.5940 N   0  0  0  0  0  0  0  0  0  0  0  0
   13.4063   -4.0795  -16.7504 C   0  0  0  0  0  0  0  0  0  0  0  0
   12.8423   -4.4953  -17.9660 C   0  0  0  0  0  0  0  0  0  0  0  0
   13.7152   -4.9612  -18.9473 C   0  0  0  0  0  0  0  0  0  0  0  0
   15.1107   -5.0151  -18.7329 C   0  0  0  0  0  0  0  0  0  0  0  0
   15.6882   -4.6049  -17.5291 C   0  0  0  0  0  0  0  0  0  0  0  0
   14.8008   -4.1428  -16.5609 C   0  0  0  0  0  0  0  0  0  0  0  0
   15.0651   -3.6830  -15.3094 O   0  0  0  0  0  0  0  0  0  0  0  0
    7.8794    0.6934  -13.2505 C   0  0  0  0  0  0  0  0  0  0  0  0
    6.4599    1.2491  -13.0805 C   0  0  0  0  0  0  0  0  0  0  0  0
    6.4580    2.7801  -13.0090 C   0  0  0  0  0  0  0  0  0  0  0  0
    7.4068    3.2818  -11.9152 C   0  0  0  0  0  0  0  0  0  0  0  0
    8.8248    2.7241  -12.0877 C   0  0  0  0  0  0  0  0  0  0  0  0
    8.6981    0.1246   -7.2463 C   0  0  0  0  0  0  0  0  0  0  0  0
    8.0765   -0.4981   -6.1703 C   0  0  0  0  0  0  0  0  0  0  0  0
    6.6392   -1.9382   -3.9215 C   0  0  0  0  0  0  0  0  0  0  0  0
    5.5106   -2.7964   -2.9165 S   0  0  0  0  0  0  0  0  0  0  0  0
    2.4081   -3.7002   -5.4249 C   0  0  0  0  0  0  0  0  0  0  0  0
    0.9026   -3.7076   -5.1298 C   0  0  0  0  0  0  0  0  0  0  0  0
    0.0525   -6.5451   -3.4742 H   0  0  0  0  0  0  0  0  0  0  0  0
    1.4255   -6.4733   -4.6098 H   0  0  0  0  0  0  0  0  0  0  0  0
   -0.2315   -6.1527   -5.1836 H   0  0  0  0  0  0  0  0  0  0  0  0
    1.0166   -4.9272   -2.0154 H   0  0  0  0  0  0  0  0  0  0  0  0
    0.9781   -3.2205   -2.5123 H   0  0  0  0  0  0  0  0  0  0  0  0
    3.1826   -5.2763   -3.1462 H   0  0  0  0  0  0  0  0  0  0  0  0
    3.2824   -3.8157   -2.1375 H   0  0  0  0  0  0  0  0  0  0  0  0
    5.2143   -1.5159   -7.6938 H   0  0  0  0  0  0  0  0  0  0  0  0
    6.2951   -0.4023   -9.6129 H   0  0  0  0  0  0  0  0  0  0  0  0
    7.7881   -0.2215  -10.9897 H   0  0  0  0  0  0  0  0  0  0  0  0
   10.9700    1.3266  -10.7326 H   0  0  0  0  0  0  0  0  0  0  0  0
   13.2808    1.4524  -11.5245 H   0  0  0  0  0  0  0  0  0  0  0  0
   12.8072    0.4842  -12.9294 H   0  0  0  0  0  0  0  0  0  0  0  0
   13.0319   -0.4793  -10.0103 H   0  0  0  0  0  0  0  0  0  0  0  0
   14.2078   -0.7884  -11.2899 H   0  0  0  0  0  0  0  0  0  0  0  0
   11.3315   -1.8602  -11.1446 H   0  0  0  0  0  0  0  0  0  0  0  0
   12.8071   -2.7640  -10.8020 H   0  0  0  0  0  0  0  0  0  0  0  0
   12.0213   -1.6358  -13.5723 H   0  0  0  0  0  0  0  0  0  0  0  0
   11.7555   -3.2705  -13.0599 H   0  0  0  0  0  0  0  0  0  0  0  0
   11.7635   -4.4492  -18.1246 H   0  0  0  0  0  0  0  0  0  0  0  0
   13.3158   -5.2937  -19.9084 H   0  0  0  0  0  0  0  0  0  0  0  0
   15.7560   -5.3879  -19.5321 H   0  0  0  0  0  0  0  0  0  0  0  0
   16.7644   -4.6422  -17.3542 H   0  0  0  0  0  0  0  0  0  0  0  0
    7.8791   -0.4096  -13.2778 H   0  0  0  0  0  0  0  0  0  0  0  0
    8.2946    1.0022  -14.2200 H   0  0  0  0  0  0  0  0  0  0  0  0
    5.9934    0.8432  -12.1640 H   0  0  0  0  0  0  0  0  0  0  0  0
    5.8326    0.9005  -13.9177 H   0  0  0  0  0  0  0  0  0  0  0  0
    5.4356    3.1564  -12.8372 H   0  0  0  0  0  0  0  0  0  0  0  0
    6.7810    3.1869  -13.9851 H   0  0  0  0  0  0  0  0  0  0  0  0
    7.0154    2.9920  -10.9242 H   0  0  0  0  0  0  0  0  0  0  0  0
    7.4486    4.3837  -11.9161 H   0  0  0  0  0  0  0  0  0  0  0  0
    9.4755    3.0759  -11.2769 H   0  0  0  0  0  0  0  0  0  0  0  0
    9.2551    3.0959  -13.0336 H   0  0  0  0  0  0  0  0  0  0  0  0
    9.6698    0.6073   -7.1301 H   0  0  0  0  0  0  0  0  0  0  0  0
    8.5802   -0.5030   -5.2016 H   0  0  0  0  0  0  0  0  0  0  0  0
    7.5975   -1.6205   -3.5194 H   0  0  0  0  0  0  0  0  0  0  0  0
    2.7284   -4.6685   -5.8603 H   0  0  0  0  0  0  0  0  0  0  0  0
    2.6604   -2.9205   -6.1545 H   0  0  0  0  0  0  0  0  0  0  0  0
    0.3528   -4.0054   -6.0371 H   0  0  0  0  0  0  0  0  0  0  0  0
    0.5900   -2.6777   -4.8798 H   0  0  0  0  0  0  0  0  0  0  0  0
  1  2  1  0
  1 46  1  0
  1 47  1  0
  1 48  1  0
  2  3  1  0
  2 45  1  0
  3  4  1  0
  3 49  1  0
  3 50  1  0
  4  5  1  0
  4 51  1  0
  4 52  1  0
  5  6  1  0
  5 44  1  0
  6  7  2  0
  6 43  1  0
  7  8  1  0
  8  9  1  0
  8 42  2  0
  9 10  2  0
  9 41  1  0
 10 11  1  0
 10 53  1  0
 11 12  2  0
 11 54  1  0
 12 13  1  0
 12 40  1  0
 13 14  2  0
 13 15  1  0
 15 16  1  0
 15 55  1  0
 16 17  1  6
 16 35  1  0
 16 39  1  0
 17 18  2  0
 17 19  1  0
 19 20  1  0
 19 56  1  0
 20 21  1  0
 20 57  1  0
 20 58  1  0
 21 22  1  0
 21 59  1  0
 21 60  1  0
 22 23  1  0
 22 61  1  0
 22 62  1  0
 23 24  1  0
 23 63  1  0
 23 64  1  0
 24 25  2  0
 24 26  1  0
 26 27  2  0
 26 34  1  0
 27 28  1  0
 28 29  2  0
 28 33  1  0
 29 30  1  0
 29 65  1  0
 30 31  2  0
 30 66  1  0
 31 32  1  0
 31 67  1  0
 32 33  2  0
 32 68  1  0
 33 34  1  0
 35 36  1  0
 35 69  1  0
 35 70  1  0
 36 37  1  0
 36 71  1  0
 36 72  1  0
 37 38  1  0
 37 73  1  0
 37 74  1  0
 38 39  1  0
 38 75  1  0
 38 76  1  0
 39 77  1  0
 39 78  1  0
 40 41  2  0
 40 79  1  0
 41 80  1  0
 42 43  1  0
 42 81  1  0
 44 45  1  0
 44 82  1  0
 44 83  1  0
 45 84  1  0
 45 85  1  0
M  END

