
     RDKit          3D

 59 61  0  0  0  0  0  0  0  0999 V2000
    3.2881    1.3078   -0.5700 C   0  0  0  0  0  0  0  0  0  0  0  0
    3.0950    0.9231   -1.9671 N   0  0  0  0  0  0  0  0  0  0  0  0
    3.7497   -0.1656   -2.4673 C   0  0  0  0  0  0  0  0  0  0  0  0
    3.7620   -0.5178   -3.6351 O   0  0  0  0  0  0  0  0  0  0  0  0
    4.5252   -1.0219   -1.4332 C   0  0  0  0  0  0  0  0  0  0  0  0
    4.9164   -2.2415   -2.0406 O   0  0  0  0  0  0  0  0  0  0  0  0
    3.9327   -3.1207   -2.2886 C   0  0  0  0  0  0  0  0  0  0  0  0
    2.8097   -2.9900   -1.8433 O   0  0  0  0  0  0  0  0  0  0  0  0
    4.3750   -4.2094   -3.2101 C   0  0  0  0  0  0  0  0  0  0  0  0
    4.9936   -3.8169   -4.4074 C   0  0  0  0  0  0  0  0  0  0  0  0
    5.3560   -4.7686   -5.3626 C   0  0  0  0  0  0  0  0  0  0  0  0
    5.1111   -6.1215   -5.1194 C   0  0  0  0  0  0  0  0  0  0  0  0
    4.5056   -6.5197   -3.9238 C   0  0  0  0  0  0  0  0  0  0  0  0
    4.1285   -5.5776   -2.9552 C   0  0  0  0  0  0  0  0  0  0  0  0
    3.5669   -6.2292   -1.3776 S   0  0  0  0  0  0  0  0  0  0  0  0
    1.7581   -5.8511   -1.2887 C   0  0  0  0  0  0  0  0  0  0  0  0
    1.0240   -6.0082   -2.6169 C   0  0  0  0  0  0  0  0  0  0  0  0
    0.6117   -7.0829   -3.0223 O   0  0  0  0  0  0  0  0  0  0  0  0
    0.8919   -4.8401   -3.3062 N   0  0  0  0  0  0  0  0  0  0  0  0
    0.2334   -4.7956   -4.6031 C   0  0  0  0  0  0  0  0  0  0  0  0
   -1.2335   -4.5036   -4.5432 C   0  0  0  0  0  0  0  0  0  0  0  0
   -2.3392   -5.3080   -4.4981 C   0  0  0  0  0  0  0  0  0  0  0  0
   -3.4742   -4.4359   -4.3985 C   0  0  0  0  0  0  0  0  0  0  0  0
   -2.9725   -3.1664   -4.3879 C   0  0  0  0  0  0  0  0  0  0  0  0
   -1.6171   -3.1946   -4.4744 O   0  0  0  0  0  0  0  0  0  0  0  0
    2.1449    1.8013   -2.7138 C   0  0  1  0  0  0  0  0  0  0  0  0
    2.0449    1.6315   -4.2450 C   0  0  0  0  0  0  0  0  0  0  0  0
    1.1780    0.4598   -4.7334 C   0  0  0  0  0  0  0  0  0  0  0  0
   -0.1838    0.3859   -4.0323 C   0  0  0  0  0  0  0  0  0  0  0  0
   -0.0227    0.4488   -2.5089 C   0  0  0  0  0  0  0  0  0  0  0  0
    0.7302    1.7176   -2.0953 C   0  0  0  0  0  0  0  0  0  0  0  0
    4.3325    1.1743   -0.2556 H   0  0  0  0  0  0  0  0  0  0  0  0
    2.6405    0.7507    0.1290 H   0  0  0  0  0  0  0  0  0  0  0  0
    3.0600    2.3770   -0.4590 H   0  0  0  0  0  0  0  0  0  0  0  0
    3.9173   -1.2184   -0.5389 H   0  0  0  0  0  0  0  0  0  0  0  0
    5.4607   -0.5264   -1.1350 H   0  0  0  0  0  0  0  0  0  0  0  0
    5.1618   -2.7522   -4.5804 H   0  0  0  0  0  0  0  0  0  0  0  0
    5.8289   -4.4508   -6.2949 H   0  0  0  0  0  0  0  0  0  0  0  0
    5.3910   -6.8747   -5.8603 H   0  0  0  0  0  0  0  0  0  0  0  0
    4.3182   -7.5759   -3.7222 H   0  0  0  0  0  0  0  0  0  0  0  0
    1.6230   -4.8485   -0.8649 H   0  0  0  0  0  0  0  0  0  0  0  0
    1.3724   -6.6126   -0.5975 H   0  0  0  0  0  0  0  0  0  0  0  0
    1.2921   -3.9938   -2.9067 H   0  0  0  0  0  0  0  0  0  0  0  0
    0.3679   -5.7793   -5.0738 H   0  0  0  0  0  0  0  0  0  0  0  0
    0.7342   -4.0382   -5.2263 H   0  0  0  0  0  0  0  0  0  0  0  0
   -2.3306   -6.3956   -4.5187 H   0  0  0  0  0  0  0  0  0  0  0  0
   -4.5238   -4.7177   -4.3445 H   0  0  0  0  0  0  0  0  0  0  0  0
   -3.4290   -2.1814   -4.3349 H   0  0  0  0  0  0  0  0  0  0  0  0
    2.5273    2.8231   -2.5378 H   0  0  0  0  0  0  0  0  0  0  0  0
    3.0448    1.5807   -4.6953 H   0  0  0  0  0  0  0  0  0  0  0  0
    1.5863    2.5755   -4.5929 H   0  0  0  0  0  0  0  0  0  0  0  0
    1.7283   -0.4771   -4.5681 H   0  0  0  0  0  0  0  0  0  0  0  0
    1.0397    0.5521   -5.8241 H   0  0  0  0  0  0  0  0  0  0  0  0
   -0.7029   -0.5415   -4.3239 H   0  0  0  0  0  0  0  0  0  0  0  0
   -0.8249    1.2271   -4.3581 H   0  0  0  0  0  0  0  0  0  0  0  0
    0.5287   -0.4417   -2.1558 H   0  0  0  0  0  0  0  0  0  0  0  0
   -1.0068    0.4207   -2.0119 H   0  0  0  0  0  0  0  0  0  0  0  0
    0.7773    1.8084   -0.9986 H   0  0  0  0  0  0  0  0  0  0  0  0
    0.1691    2.6021   -2.4463 H   0  0  0  0  0  0  0  0  0  0  0  0
  1  2  1  0
  1 32  1  0
  1 33  1  0
  1 34  1  0
  2  3  1  0
  2 26  1  0
  3  4  2  0
  3  5  1  0
  5  6  1  0
  5 35  1  0
  5 36  1  0
  6  7  1  0
  7  8  2  0
  7  9  1  0
  9 10  2  0
  9 14  1  0
 10 11  1  0
 10 37  1  0
 11 12  2  0
 11 38  1  0
 12 13  1  0
 12 39  1  0
 13 14  2  0
 13 40  1  0
 14 15  1  0
 15 16  1  0
 16 17  1  0
 16 41  1  0
 16 42  1  0
 17 18  2  0
 17 19  1  0
 19 20  1  0
 19 43  1  0
 20 21  1  0
 20 44  1  0
 20 45  1  0
 21 22  2  0
 21 25  1  0
 22 23  1  0
 22 46  1  0
 23 24  2  0
 23 47  1  0
 24 25  1  0
 24 48  1  0
 26 27  1  0
 26 31  1  0
 26 49  1  6
 27 28  1  0
 27 50  1  0
 27 51  1  0
 28 29  1  0
 28 52  1  0
 28 53  1  0
 29 30  1  0
 29 54  1  0
 29 55  1  0
 30 31  1  0
 30 56  1  0
 30 57  1  0
 31 58  1  0
 31 59  1  0
M  END

