
     RDKit          3D

 50 51  0  0  0  0  0  0  0  0999 V2000
    0.9093   -1.5566    1.6392 C   0  0  0  0  0  0  0  0  0  0  0  0
    2.3769   -1.9365    1.7331 C   0  0  0  0  0  0  0  0  0  0  0  0
    3.1330   -0.8877    1.1548 O   0  0  0  0  0  0  0  0  0  0  0  0
    4.5592   -0.8931    1.2941 C   0  0  1  0  0  0  0  0  0  0  0  0
    4.8846   -0.7528    2.7764 C   0  0  0  0  0  0  0  0  0  0  0  0
    5.4800   -1.6842    3.4776 N   0  0  0  0  0  0  0  0  0  0  0  0
    5.5248   -1.1525    4.7660 O   0  0  0  0  0  0  0  0  0  0  0  0
    4.9452    0.0542    4.7073 C   0  0  0  0  0  0  0  0  0  0  0  0
    4.8825    0.8996    5.9563 C   0  0  0  0  0  0  0  0  0  0  0  0
    3.8350    1.8921    5.9761 N   0  0  0  0  0  0  0  0  0  0  0  0
    2.4759    1.3709    6.0756 C   0  0  0  0  0  0  0  0  0  0  0  0
    1.4380    2.4757    6.3267 C   0  0  1  0  0  0  0  0  0  0  0  0
    1.3936    3.5033    5.1882 C   0  0  0  0  0  0  0  0  0  0  0  0
    0.0552    1.8584    6.5666 C   0  0  0  0  0  0  0  0  0  0  0  0
    4.5325    0.3574    3.5147 N   0  0  0  0  0  0  0  0  0  0  0  0
    5.1523   -2.1880    0.7000 C   0  0  0  0  0  0  0  0  0  0  0  0
    6.6616   -2.2415    0.4097 C   0  0  0  0  0  0  0  0  0  0  0  0
    7.1197   -1.3480   -0.7543 C   0  0  0  0  0  0  0  0  0  0  0  0
    7.4001    0.1255   -0.4053 C   0  0  0  0  0  0  0  0  0  0  0  0
    6.4762    0.7592    0.6496 C   0  0  0  0  0  0  0  0  0  0  0  0
    4.9867    0.3968    0.5595 C   0  0  0  0  0  0  0  0  0  0  0  0
    0.2758   -2.3532    2.0604 H   0  0  0  0  0  0  0  0  0  0  0  0
    0.6183   -1.3986    0.5890 H   0  0  0  0  0  0  0  0  0  0  0  0
    0.7155   -0.6235    2.1902 H   0  0  0  0  0  0  0  0  0  0  0  0
    2.5549   -2.8931    1.2056 H   0  0  0  0  0  0  0  0  0  0  0  0
    2.6639   -2.0957    2.7907 H   0  0  0  0  0  0  0  0  0  0  0  0
    5.8640    1.3977    6.0638 H   0  0  0  0  0  0  0  0  0  0  0  0
    4.7895    0.2272    6.8250 H   0  0  0  0  0  0  0  0  0  0  0  0
    3.9229    2.4900    5.1558 H   0  0  0  0  0  0  0  0  0  0  0  0
    2.4524    0.6680    6.9272 H   0  0  0  0  0  0  0  0  0  0  0  0
    2.1698    0.7871    5.1790 H   0  0  0  0  0  0  0  0  0  0  0  0
    1.7517    3.0014    7.2469 H   0  0  0  0  0  0  0  0  0  0  0  0
    1.1437    3.0224    4.2264 H   0  0  0  0  0  0  0  0  0  0  0  0
    2.3555    4.0269    5.0675 H   0  0  0  0  0  0  0  0  0  0  0  0
    0.6310    4.2746    5.3832 H   0  0  0  0  0  0  0  0  0  0  0  0
   -0.2990    1.3152    5.6736 H   0  0  0  0  0  0  0  0  0  0  0  0
   -0.6919    2.6336    6.8000 H   0  0  0  0  0  0  0  0  0  0  0  0
    0.0699    1.1448    7.4069 H   0  0  0  0  0  0  0  0  0  0  0  0
    4.6075   -2.3592   -0.2444 H   0  0  0  0  0  0  0  0  0  0  0  0
    4.8987   -3.0234    1.3692 H   0  0  0  0  0  0  0  0  0  0  0  0
    6.8945   -3.2892    0.1562 H   0  0  0  0  0  0  0  0  0  0  0  0
    7.2390   -2.0269    1.3247 H   0  0  0  0  0  0  0  0  0  0  0  0
    6.3533   -1.4015   -1.5478 H   0  0  0  0  0  0  0  0  0  0  0  0
    8.0327   -1.7735   -1.2040 H   0  0  0  0  0  0  0  0  0  0  0  0
    7.3512    0.7162   -1.3368 H   0  0  0  0  0  0  0  0  0  0  0  0
    8.4400    0.2253   -0.0479 H   0  0  0  0  0  0  0  0  0  0  0  0
    6.5754    1.8549    0.5784 H   0  0  0  0  0  0  0  0  0  0  0  0
    6.8446    0.5084    1.6586 H   0  0  0  0  0  0  0  0  0  0  0  0
    4.6571    0.3035   -0.4882 H   0  0  0  0  0  0  0  0  0  0  0  0
    4.3805    1.1980    1.0058 H   0  0  0  0  0  0  0  0  0  0  0  0
  1  2  1  0
  1 22  1  0
  1 23  1  0
  1 24  1  0
  2  3  1  0
  2 25  1  0
  2 26  1  0
  4  3  1  1
  4  5  1  0
  4 16  1  0
  4 21  1  0
  5  6  2  0
  5 15  1  0
  6  7  1  0
  7  8  1  0
  8  9  1  0
  8 15  2  0
  9 10  1  0
  9 27  1  0
  9 28  1  0
 10 11  1  0
 10 29  1  0
 11 12  1  0
 11 30  1  0
 11 31  1  0
 12 13  1  0
 12 14  1  0
 12 32  1  1
 13 33  1  0
 13 34  1  0
 13 35  1  0
 14 36  1  0
 14 37  1  0
 14 38  1  0
 16 17  1  0
 16 39  1  0
 16 40  1  0
 17 18  1  0
 17 41  1  0
 17 42  1  0
 18 19  1  0
 18 43  1  0
 18 44  1  0
 19 20  1  0
 19 45  1  0
 19 46  1  0
 20 21  1  0
 20 47  1  0
 20 48  1  0
 21 49  1  0
 21 50  1  0
M  END

