
     RDKit          3D

 34 37  0  0  0  0  0  0  0  0999 V2000
    4.3398   -0.3224   -1.6626 F   0  0  0  0  0  0  0  0  0  0  0  0
    5.1168   -1.2594   -1.1456 C   0  0  1  0  0  0  0  0  0  0  0  0
    5.4671   -2.0979   -2.1067 F   0  0  0  0  0  0  0  0  0  0  0  0
    6.2728   -0.6626   -0.5963 O   0  0  0  0  0  0  0  0  0  0  0  0
    6.3051   -0.9759    0.7140 C   0  0  0  0  0  0  0  0  0  0  0  0
    7.2523   -0.6219    1.6761 C   0  0  0  0  0  0  0  0  0  0  0  0
    7.0385   -1.0838    2.9623 C   0  0  0  0  0  0  0  0  0  0  0  0
    5.8845   -1.8947    3.3008 C   0  0  0  0  0  0  0  0  0  0  0  0
    5.6881   -2.3199    4.5350 N   0  0  0  0  0  0  0  0  0  0  0  0
    6.5177   -2.1638    5.7725 C   0  0  1  0  0  0  0  0  0  0  0  0
    6.5320   -0.7151    6.3325 C   0  0  0  0  0  0  0  0  0  0  0  0
    6.3418   -0.8668    7.8606 C   0  0  0  0  0  0  0  0  0  0  0  0
    5.7314   -2.2414    8.0196 C   0  0  0  0  0  0  0  0  0  0  0  0
    5.0851   -2.7742    9.1577 C   0  0  0  0  0  0  0  0  0  0  0  0
    4.5804   -4.1192    9.0392 C   0  0  0  0  0  0  0  0  0  0  0  0
    4.7190   -4.8522    7.8769 C   0  0  0  0  0  0  0  0  0  0  0  0
    5.3479   -4.3152    6.7013 C   0  0  0  0  0  0  0  0  0  0  0  0
    5.8826   -2.9798    6.8602 C   0  0  0  0  0  0  0  0  0  0  0  0
    4.9285   -2.2478    2.2719 C   0  0  0  0  0  0  0  0  0  0  0  0
    5.1765   -1.7702    1.0217 C   0  0  0  0  0  0  0  0  0  0  0  0
    4.4549   -1.9350   -0.1243 O   0  0  0  0  0  0  0  0  0  0  0  0
    8.1178   -0.0120    1.4179 H   0  0  0  0  0  0  0  0  0  0  0  0
    7.7473   -0.8392    3.7496 H   0  0  0  0  0  0  0  0  0  0  0  0
    4.8893   -2.9385    4.7217 H   0  0  0  0  0  0  0  0  0  0  0  0
    7.5296   -2.5135    5.4795 H   0  0  0  0  0  0  0  0  0  0  0  0
    5.6823   -0.1579    5.9047 H   0  0  0  0  0  0  0  0  0  0  0  0
    7.4494   -0.1639    6.0628 H   0  0  0  0  0  0  0  0  0  0  0  0
    5.7047   -0.0626    8.2692 H   0  0  0  0  0  0  0  0  0  0  0  0
    7.3095   -0.7909    8.3918 H   0  0  0  0  0  0  0  0  0  0  0  0
    4.9875   -2.2069   10.0836 H   0  0  0  0  0  0  0  0  0  0  0  0
    4.0698   -4.5720    9.8949 H   0  0  0  0  0  0  0  0  0  0  0  0
    4.3358   -5.8780    7.8496 H   0  0  0  0  0  0  0  0  0  0  0  0
    5.7163   -4.9919    5.9216 H   0  0  0  0  0  0  0  0  0  0  0  0
    4.0575   -2.8606    2.5012 H   0  0  0  0  0  0  0  0  0  0  0  0
  2  1  1  6
  2  3  1  0
  2  4  1  0
  2 21  1  0
  4  5  1  0
  5  6  2  0
  5 20  1  0
  6  7  1  0
  6 22  1  0
  7  8  2  0
  7 23  1  0
  8  9  1  0
  8 19  1  0
  9 10  1  0
  9 24  1  0
 10 11  1  0
 10 18  1  0
 10 25  1  6
 11 12  1  0
 11 26  1  0
 11 27  1  0
 12 13  1  0
 12 28  1  0
 12 29  1  0
 13 14  1  0
 13 18  2  0
 14 15  2  0
 14 30  1  0
 15 16  1  0
 15 31  1  0
 16 17  2  0
 16 32  1  0
 17 18  1  0
 17 33  1  0
 19 20  2  0
 19 34  1  0
 20 21  1  0
M  END

