
     RDKit          3D

 82 87  0  0  0  0  0  0  0  0999 V2000
    1.0298    3.8804    3.3432 C   0  0  0  0  0  0  0  0  0  0  0  0
    2.0676    3.4354    2.3104 C   0  0  0  0  0  0  0  0  0  0  0  0
    2.2693    1.9021    2.2813 C   0  0  1  0  0  0  0  0  0  0  0  0
    0.9569    1.1240    2.1510 C   0  0  0  0  0  0  0  0  0  0  0  0
    0.7083    0.0487    2.9774 C   0  0  0  0  0  0  0  0  0  0  0  0
   -0.5241   -0.6810    2.8896 C   0  0  0  0  0  0  0  0  0  0  0  0
   -1.4600   -0.1798    1.9319 C   0  0  0  0  0  0  0  0  0  0  0  0
   -1.1354    0.9087    1.1534 C   0  0  0  0  0  0  0  0  0  0  0  0
    0.0634    1.5941    1.2026 N   0  0  0  0  0  0  0  0  0  0  0  0
    3.3897    1.3557    1.3393 C   0  0  1  0  0  0  0  0  0  0  0  0
    3.0910    1.1893   -0.0709 N   0  0  0  0  0  0  0  0  0  0  0  0
    3.9810    0.3413   -0.8226 C   0  0  0  0  0  0  0  0  0  0  0  0
    3.1971   -0.6070   -1.7424 C   0  0  0  0  0  0  0  0  0  0  0  0
    2.2029    0.1571   -2.6328 C   0  0  2  0  0  0  0  0  0  0  0  0
    2.9106    0.9164   -3.6992 N   0  0  0  0  0  0  0  0  0  0  0  0
    3.3074    0.4573   -4.8620 C   0  0  0  0  0  0  0  0  0  0  0  0
    3.9336    1.2297   -5.7978 N   0  0  0  0  0  0  0  0  0  0  0  0
    4.1626    0.4199   -6.8351 C   0  0  0  0  0  0  0  0  0  0  0  0
    4.7972    0.7269   -8.0842 C   0  0  0  0  0  0  0  0  0  0  0  0
    5.2929    2.1250   -8.3649 C   0  0  0  0  0  0  0  0  0  0  0  0
    4.5714    2.8101   -9.5183 C   0  0  0  0  0  0  0  0  0  0  0  0
    3.7782    3.9459   -9.3062 C   0  0  0  0  0  0  0  0  0  0  0  0
    3.1507    4.5421  -10.4025 C   0  0  0  0  0  0  0  0  0  0  0  0
    3.3331    3.9839  -11.6681 C   0  0  0  0  0  0  0  0  0  0  0  0
    4.1395    2.8468  -11.7773 C   0  0  0  0  0  0  0  0  0  0  0  0
    4.7428    2.2756  -10.7331 N   0  0  0  0  0  0  0  0  0  0  0  0
    4.9019   -0.3191   -8.9871 C   0  0  0  0  0  0  0  0  0  0  0  0
    4.4141   -1.6193   -8.6933 C   0  0  0  0  0  0  0  0  0  0  0  0
    3.7920   -1.9479   -7.4759 C   0  0  0  0  0  0  0  0  0  0  0  0
    3.6746   -0.9185   -6.5636 C   0  0  0  0  0  0  0  0  0  0  0  0
    3.1364   -0.8382   -5.2928 N   0  0  0  0  0  0  0  0  0  0  0  0
    2.7240   -1.5943   -4.7605 H   0  0  0  0  0  0  0  0  0  0  0  0
    1.3576    1.1233   -1.7988 C   0  0  0  0  0  0  0  0  0  0  0  0
    2.1913    2.0006   -0.8546 C   0  0  0  0  0  0  0  0  0  0  0  0
    4.7119    2.0509    1.5438 N   0  0  0  0  0  0  0  0  0  0  0  0
    4.9571    3.3077    0.8466 C   0  0  0  0  0  0  0  0  0  0  0  0
    5.7340    1.3228    2.1086 C   0  0  0  0  0  0  0  0  0  0  0  0
    5.6624    0.1171    2.3293 O   0  0  0  0  0  0  0  0  0  0  0  0
    7.0050    2.0490    2.4925 C   0  0  0  0  0  0  0  0  0  0  0  0
    7.0056    3.2894    3.1490 C   0  0  0  0  0  0  0  0  0  0  0  0
    8.2052    3.8623    3.5812 C   0  0  0  0  0  0  0  0  0  0  0  0
    9.4188    3.2080    3.3511 C   0  0  0  0  0  0  0  0  0  0  0  0
    9.4259    1.9657    2.7064 C   0  0  0  0  0  0  0  0  0  0  0  0
    8.2260    1.3841    2.2955 C   0  0  0  0  0  0  0  0  0  0  0  0
    0.9860    4.9808    3.4083 H   0  0  0  0  0  0  0  0  0  0  0  0
    1.2728    3.4939    4.3474 H   0  0  0  0  0  0  0  0  0  0  0  0
    0.0337    3.5070    3.0694 H   0  0  0  0  0  0  0  0  0  0  0  0
    3.0289    3.9156    2.5548 H   0  0  0  0  0  0  0  0  0  0  0  0
    1.7656    3.8171    1.3224 H   0  0  0  0  0  0  0  0  0  0  0  0
    2.6766    1.6498    3.2751 H   0  0  0  0  0  0  0  0  0  0  0  0
    1.4625   -0.2389    3.7175 H   0  0  0  0  0  0  0  0  0  0  0  0
   -0.7478   -1.5207    3.5452 H   0  0  0  0  0  0  0  0  0  0  0  0
   -2.4444   -0.6446    1.8146 H   0  0  0  0  0  0  0  0  0  0  0  0
   -1.8671    1.2925    0.4302 H   0  0  0  0  0  0  0  0  0  0  0  0
    3.5906    0.3492    1.7202 H   0  0  0  0  0  0  0  0  0  0  0  0
    4.5883   -0.2554   -0.1266 H   0  0  0  0  0  0  0  0  0  0  0  0
    4.7107    0.9267   -1.4371 H   0  0  0  0  0  0  0  0  0  0  0  0
    2.6059   -1.2954   -1.1197 H   0  0  0  0  0  0  0  0  0  0  0  0
    3.8879   -1.2167   -2.3526 H   0  0  0  0  0  0  0  0  0  0  0  0
    1.5378   -0.5485   -3.1591 H   0  0  0  0  0  0  0  0  0  0  0  0
    3.1349    1.8941   -3.5223 H   0  0  0  0  0  0  0  0  0  0  0  0
    6.3620    2.0691   -8.6273 H   0  0  0  0  0  0  0  0  0  0  0  0
    5.2046    2.7284   -7.4529 H   0  0  0  0  0  0  0  0  0  0  0  0
    3.6574    4.3555   -8.3009 H   0  0  0  0  0  0  0  0  0  0  0  0
    2.5280    5.4299  -10.2676 H   0  0  0  0  0  0  0  0  0  0  0  0
    2.8639    4.4163  -12.5542 H   0  0  0  0  0  0  0  0  0  0  0  0
    4.3068    2.3790  -12.7543 H   0  0  0  0  0  0  0  0  0  0  0  0
    5.3548   -0.1252   -9.9595 H   0  0  0  0  0  0  0  0  0  0  0  0
    4.5273   -2.3990   -9.4490 H   0  0  0  0  0  0  0  0  0  0  0  0
    3.4280   -2.9561   -7.2780 H   0  0  0  0  0  0  0  0  0  0  0  0
    0.6775    0.5334   -1.1701 H   0  0  0  0  0  0  0  0  0  0  0  0
    0.7310    1.7468   -2.4593 H   0  0  0  0  0  0  0  0  0  0  0  0
    1.4548    2.4715   -0.1895 H   0  0  0  0  0  0  0  0  0  0  0  0
    2.7275    2.7951   -1.4414 H   0  0  0  0  0  0  0  0  0  0  0  0
    4.3068    3.3480   -0.0371 H   0  0  0  0  0  0  0  0  0  0  0  0
    5.9984    3.3692    0.5010 H   0  0  0  0  0  0  0  0  0  0  0  0
    4.7432    4.2021    1.4518 H   0  0  0  0  0  0  0  0  0  0  0  0
    6.0607    3.7993    3.3468 H   0  0  0  0  0  0  0  0  0  0  0  0
    8.1901    4.8214    4.1057 H   0  0  0  0  0  0  0  0  0  0  0  0
   10.3571    3.6595    3.6842 H   0  0  0  0  0  0  0  0  0  0  0  0
   10.3711    1.4430    2.5366 H   0  0  0  0  0  0  0  0  0  0  0  0
    8.2131    0.3971    1.8286 H   0  0  0  0  0  0  0  0  0  0  0  0
  1  2  1  0
  1 45  1  0
  1 46  1  0
  1 47  1  0
  2  3  1  0
  2 48  1  0
  2 49  1  0
  3  4  1  0
  3 10  1  0
  3 50  1  1
  4  5  2  0
  4  9  1  0
  5  6  1  0
  5 51  1  0
  6  7  2  0
  6 52  1  0
  7  8  1  0
  7 53  1  0
  8  9  2  0
  8 54  1  0
 10 11  1  0
 10 35  1  0
 10 55  1  1
 11 12  1  0
 11 34  1  0
 12 13  1  0
 12 56  1  0
 12 57  1  0
 13 14  1  0
 13 58  1  0
 13 59  1  0
 14 15  1  0
 14 33  1  0
 14 60  1  6
 15 16  1  0
 15 61  1  0
 16 17  2  0
 16 31  1  0
 17 18  1  0
 18 19  2  0
 18 30  1  0
 19 20  1  0
 19 27  1  0
 20 21  1  0
 20 62  1  0
 20 63  1  0
 21 22  2  0
 21 26  1  0
 22 23  1  0
 22 64  1  0
 23 24  2  0
 23 65  1  0
 24 25  1  0
 24 66  1  0
 25 26  2  0
 25 67  1  0
 27 28  2  0
 27 68  1  0
 28 29  1  0
 28 69  1  0
 29 30  2  0
 29 70  1  0
 30 31  1  0
 31 32  1  0
 33 34  1  0
 33 71  1  0
 33 72  1  0
 34 73  1  0
 34 74  1  0
 35 36  1  0
 35 37  1  0
 36 75  1  0
 36 76  1  0
 36 77  1  0
 37 38  2  0
 37 39  1  0
 39 40  2  0
 39 44  1  0
 40 41  1  0
 40 78  1  0
 41 42  2  0
 41 79  1  0
 42 43  1  0
 42 80  1  0
 43 44  2  0
 43 81  1  0
 44 82  1  0
M  END

