
     RDKit          3D

 52 55  0  0  0  0  0  0  0  0999 V2000
    5.0332   -3.4821   -4.5699 C   0  0  0  0  0  0  0  0  0  0  0  0
    5.6723   -2.6203   -3.4993 C   0  0  0  0  0  0  0  0  0  0  0  0
    5.1448   -3.0180   -2.2386 O   0  0  0  0  0  0  0  0  0  0  0  0
    5.5708   -2.4116   -1.1116 C   0  0  0  0  0  0  0  0  0  0  0  0
    6.5031   -1.3802   -1.0570 C   0  0  0  0  0  0  0  0  0  0  0  0
    6.8566   -0.7345    0.1975 C   0  0  0  0  0  0  0  0  0  0  0  0
    7.6777    0.4589    0.1988 C   0  0  0  0  0  0  0  0  0  0  0  0
    7.5442    1.5301    1.1228 C   0  0  0  0  0  0  0  0  0  0  0  0
    8.3199    2.6712    1.0233 C   0  0  0  0  0  0  0  0  0  0  0  0
    9.2577    2.7817   -0.0379 C   0  0  0  0  0  0  0  0  0  0  0  0
   10.0499    3.9227   -0.2489 N   0  0  0  0  0  0  0  0  0  0  0  0
   11.2590    3.7835   -1.0610 C   0  0  0  0  0  0  0  0  0  0  0  0
   11.6188    5.0953   -1.7646 C   0  0  0  0  0  0  0  0  0  0  0  0
   11.6886    6.2796   -0.7929 C   0  0  2  0  0  0  0  0  0  0  0  0
   11.7478    7.2288   -1.3441 H   0  0  0  0  0  0  0  0  0  0  0  0
   12.8877    6.1939    0.0379 N   0  0  0  0  0  0  0  0  0  0  0  0
   13.3950    7.3050    0.6705 C   0  0  0  0  0  0  0  0  0  0  0  0
   12.9260    8.4112    0.5801 O   0  0  0  0  0  0  0  0  0  0  0  0
   14.5058    7.0770    1.4236 O   0  0  0  0  0  0  0  0  0  0  0  0
   10.3904    6.3255    0.0501 C   0  0  1  0  0  0  0  0  0  0  0  0
   10.4977    7.1199    0.8046 H   0  0  0  0  0  0  0  0  0  0  0  0
    9.2876    6.6727   -0.7623 O   0  0  0  0  0  0  0  0  0  0  0  0
   10.1328    4.9835    0.7469 C   0  0  0  0  0  0  0  0  0  0  0  0
    9.3896    1.7850   -0.9228 N   0  0  0  0  0  0  0  0  0  0  0  0
    8.6434    0.6937   -0.8216 C   0  0  0  0  0  0  0  0  0  0  0  0
    6.3272   -1.3664    1.3684 C   0  0  0  0  0  0  0  0  0  0  0  0
    6.5640   -1.3273    2.7927 C   0  0  0  0  0  0  0  0  0  0  0  0
    7.7273   -0.4626    3.6718 Cl  0  0  0  0  0  0  0  0  0  0  0  0
    5.6967   -2.3060    3.3713 C   0  0  0  0  0  0  0  0  0  0  0  0
    5.0029   -2.9308    2.4576 N   0  0  0  0  0  0  0  0  0  0  0  0
    5.4157   -2.3673    1.2447 N   0  0  0  0  0  0  0  0  0  0  0  0
    4.9717   -2.9048    0.0700 C   0  0  0  0  0  0  0  0  0  0  0  0
    5.4172   -3.1988   -5.5620 H   0  0  0  0  0  0  0  0  0  0  0  0
    3.9398   -3.3560   -4.5709 H   0  0  0  0  0  0  0  0  0  0  0  0
    5.2578   -4.5462   -4.4003 H   0  0  0  0  0  0  0  0  0  0  0  0
    5.4553   -1.5496   -3.6698 H   0  0  0  0  0  0  0  0  0  0  0  0
    6.7714   -2.7394   -3.4949 H   0  0  0  0  0  0  0  0  0  0  0  0
    6.9098   -0.9655   -1.9758 H   0  0  0  0  0  0  0  0  0  0  0  0
    6.7918    1.4817    1.9113 H   0  0  0  0  0  0  0  0  0  0  0  0
    8.1778    3.4699    1.7498 H   0  0  0  0  0  0  0  0  0  0  0  0
   11.0850    2.9818   -1.7869 H   0  0  0  0  0  0  0  0  0  0  0  0
   12.1038    3.4409   -0.4184 H   0  0  0  0  0  0  0  0  0  0  0  0
   10.8515    5.3179   -2.5223 H   0  0  0  0  0  0  0  0  0  0  0  0
   12.5756    4.9844   -2.3003 H   0  0  0  0  0  0  0  0  0  0  0  0
   13.2073    5.2718    0.3103 H   0  0  0  0  0  0  0  0  0  0  0  0
   14.8622    6.1908    1.2732 H   0  0  0  0  0  0  0  0  0  0  0  0
    8.9808    5.8547   -1.1823 H   0  0  0  0  0  0  0  0  0  0  0  0
    9.1822    5.0721    1.2851 H   0  0  0  0  0  0  0  0  0  0  0  0
   10.9237    4.7772    1.5005 H   0  0  0  0  0  0  0  0  0  0  0  0
    8.8336   -0.0801   -1.5744 H   0  0  0  0  0  0  0  0  0  0  0  0
    5.5894   -2.5432    4.4294 H   0  0  0  0  0  0  0  0  0  0  0  0
    4.2643   -3.7266    0.1245 H   0  0  0  0  0  0  0  0  0  0  0  0
  1  2  1  0
  1 33  1  0
  1 34  1  0
  1 35  1  0
  2  3  1  0
  2 36  1  0
  2 37  1  0
  3  4  1  0
  4  5  1  0
  4 32  2  0
  5  6  2  0
  5 38  1  0
  6  7  1  0
  6 26  1  0
  7  8  2  0
  7 25  1  0
  8  9  1  0
  8 39  1  0
  9 10  2  0
  9 40  1  0
 10 11  1  0
 10 24  1  0
 11 12  1  0
 11 23  1  0
 12 13  1  0
 12 41  1  0
 12 42  1  0
 13 14  1  0
 13 43  1  0
 13 44  1  0
 14 15  1  6
 14 16  1  0
 14 20  1  0
 16 17  1  0
 16 45  1  0
 17 18  2  0
 17 19  1  0
 19 46  1  0
 20 21  1  1
 20 22  1  0
 20 23  1  0
 22 47  1  0
 23 48  1  0
 23 49  1  0
 24 25  2  0
 25 50  1  0
 26 27  2  0
 26 31  1  0
 27 28  1  0
 27 29  1  0
 29 30  2  0
 29 51  1  0
 30 31  1  0
 31 32  1  0
 32 52  1  0
M  END

