
     RDKit          3D

 41 41  0  0  0  0  0  0  0  0999 V2000
    0.9579   -0.1946   -0.5468 C   0  0  0  0  0  0  0  0  0  0  0  0
    2.4636    0.0462   -0.4352 C   0  0  0  0  0  0  0  0  0  0  0  0
    2.8653    1.3565    0.2695 C   0  0  1  0  0  0  0  0  0  0  0  0
    2.2951    1.5053    1.7017 C   0  0  0  0  0  0  0  0  0  0  0  0
    2.7024    0.4101    2.6887 C   0  0  0  0  0  0  0  0  0  0  0  0
    4.3168    1.4705    0.2098 N   0  0  0  0  0  0  0  0  0  0  0  0
    5.0602    2.6379    0.3165 C   0  0  0  0  0  0  0  0  0  0  0  0
    4.3895    3.8827    0.3551 C   0  0  0  0  0  0  0  0  0  0  0  0
    5.0775    5.0914    0.4274 C   0  0  0  0  0  0  0  0  0  0  0  0
    6.4683    5.0945    0.4721 C   0  0  0  0  0  0  0  0  0  0  0  0
    7.1429    3.8709    0.4334 C   0  0  0  0  0  0  0  0  0  0  0  0
    6.4972    2.6274    0.3522 C   0  0  0  0  0  0  0  0  0  0  0  0
    7.3397    1.3247    0.2836 C   0  0  1  0  0  0  0  0  0  0  0  0
    8.8563    1.6125    0.3139 C   0  0  0  0  0  0  0  0  0  0  0  0
    7.0630    0.4129    1.5075 C   0  0  0  0  0  0  0  0  0  0  0  0
    7.0745    0.5705   -1.0449 C   0  0  0  0  0  0  0  0  0  0  0  0
    0.7508   -1.0933   -1.1488 H   0  0  0  0  0  0  0  0  0  0  0  0
    0.4505    0.6543   -1.0351 H   0  0  0  0  0  0  0  0  0  0  0  0
    0.4839   -0.3440    0.4359 H   0  0  0  0  0  0  0  0  0  0  0  0
    2.9087    0.0682   -1.4439 H   0  0  0  0  0  0  0  0  0  0  0  0
    2.9340   -0.8089    0.0848 H   0  0  0  0  0  0  0  0  0  0  0  0
    2.4404    2.1777   -0.3336 H   0  0  0  0  0  0  0  0  0  0  0  0
    1.1946    1.5580    1.6373 H   0  0  0  0  0  0  0  0  0  0  0  0
    2.6184    2.4827    2.0951 H   0  0  0  0  0  0  0  0  0  0  0  0
    2.3267   -0.5825    2.3913 H   0  0  0  0  0  0  0  0  0  0  0  0
    2.3036    0.6220    3.6932 H   0  0  0  0  0  0  0  0  0  0  0  0
    3.7981    0.3400    2.7837 H   0  0  0  0  0  0  0  0  0  0  0  0
    4.8146    0.6028    0.3256 H   0  0  0  0  0  0  0  0  0  0  0  0
    3.3008    3.9047    0.3256 H   0  0  0  0  0  0  0  0  0  0  0  0
    4.5146    6.0286    0.4531 H   0  0  0  0  0  0  0  0  0  0  0  0
    7.0298    6.0293    0.5353 H   0  0  0  0  0  0  0  0  0  0  0  0
    8.2310    3.8993    0.4640 H   0  0  0  0  0  0  0  0  0  0  0  0
    9.1662    2.1143    1.2432 H   0  0  0  0  0  0  0  0  0  0  0  0
    9.1778    2.2325   -0.5366 H   0  0  0  0  0  0  0  0  0  0  0  0
    9.4072    0.6606    0.2542 H   0  0  0  0  0  0  0  0  0  0  0  0
    7.3108    0.9417    2.4411 H   0  0  0  0  0  0  0  0  0  0  0  0
    7.6869   -0.4946    1.4566 H   0  0  0  0  0  0  0  0  0  0  0  0
    6.0194    0.0794    1.5995 H   0  0  0  0  0  0  0  0  0  0  0  0
    7.3876    1.1897   -1.9002 H   0  0  0  0  0  0  0  0  0  0  0  0
    6.0178    0.3189   -1.2049 H   0  0  0  0  0  0  0  0  0  0  0  0
    7.6542   -0.3669   -1.0763 H   0  0  0  0  0  0  0  0  0  0  0  0
  1  2  1  0
  1 17  1  0
  1 18  1  0
  1 19  1  0
  2  3  1  0
  2 20  1  0
  2 21  1  0
  3  4  1  0
  3  6  1  0
  3 22  1  6
  4  5  1  0
  4 23  1  0
  4 24  1  0
  5 25  1  0
  5 26  1  0
  5 27  1  0
  6  7  1  0
  6 28  1  0
  7  8  2  0
  7 12  1  0
  8  9  1  0
  8 29  1  0
  9 10  2  0
  9 30  1  0
 10 11  1  0
 10 31  1  0
 11 12  2  0
 11 32  1  0
 12 13  1  0
 13 14  1  6
 13 15  1  0
 13 16  1  0
 14 33  1  0
 14 34  1  0
 14 35  1  0
 15 36  1  0
 15 37  1  0
 15 38  1  0
 16 39  1  0
 16 40  1  0
 16 41  1  0
M  END

