
     RDKit          3D

 80 85  0  0  0  0  0  0  0  0999 V2000
    1.7579   -3.2326    0.5122 O   0  0  0  0  0  0  0  0  0  0  0  0
    2.5266   -3.1869   -0.4092 C   0  0  0  0  0  0  0  0  0  0  0  0
    2.1261   -2.6714   -1.5957 O   0  0  0  0  0  0  0  0  0  0  0  0
    3.9667   -3.7240   -0.3710 C   0  0  1  0  0  0  0  0  0  0  0  0
    5.0132   -2.7168   -0.9082 C   0  0  0  0  0  0  0  0  0  0  0  0
    5.2695   -1.5804    0.1007 C   0  0  0  0  0  0  0  0  0  0  0  0
    5.6575   -2.0615    1.4192 N   0  0  0  0  0  0  0  0  0  0  0  0
    7.0328   -2.4894    1.5866 C   0  0  0  0  0  0  0  0  0  0  0  0
    8.0989   -1.3901    1.4209 C   0  0  2  0  0  0  0  0  0  0  0  0
    9.4834   -1.9672    1.8225 C   0  0  0  0  0  0  0  0  0  0  0  0
   10.6379   -0.9499    1.8337 C   0  0  0  0  0  0  0  0  0  0  0  0
   10.3211    0.3121    2.6606 C   0  0  0  0  0  0  0  0  0  0  0  0
    9.0120    0.8653    2.1144 C   0  0  1  0  0  0  0  0  0  0  0  0
    7.8873   -0.1491    2.2790 C   0  0  1  0  0  0  0  0  0  0  0  0
    6.7308    0.6491    2.0168 O   0  0  0  0  0  0  0  0  0  0  0  0
    7.0009    1.9376    2.3939 C   0  0  0  0  0  0  0  0  0  0  0  0
    6.1394    2.7772    2.4453 O   0  0  0  0  0  0  0  0  0  0  0  0
    8.3585    2.0521    2.6746 N   0  0  0  0  0  0  0  0  0  0  0  0
    9.1298    3.3082    2.7867 C   0  0  1  0  0  0  0  0  0  0  0  0
    8.3417    4.6226    2.6157 C   0  0  0  0  0  0  0  0  0  0  0  0
    7.5439    5.0681    3.8520 C   0  0  0  0  0  0  0  0  0  0  0  0
    8.3646    5.0399    5.0571 N   0  0  0  0  0  0  0  0  0  0  0  0
    8.3939    6.0450    5.9911 C   0  0  0  0  0  0  0  0  0  0  0  0
    7.6596    7.2545    5.8537 C   0  0  0  0  0  0  0  0  0  0  0  0
    7.8142    8.1885    6.8703 C   0  0  0  0  0  0  0  0  0  0  0  0
    8.5852    8.0141    7.9432 N   0  0  0  0  0  0  0  0  0  0  0  0
    9.2263    6.8302    7.9910 C   0  0  0  0  0  0  0  0  0  0  0  0
    9.9953    6.6313    9.1059 N   0  0  0  0  0  0  0  0  0  0  0  0
   10.8681    5.5077    9.3442 C   0  0  0  0  0  0  0  0  0  0  0  0
   10.8380    5.0174   10.7812 C   0  0  0  0  0  0  0  0  0  0  0  0
    9.6400    4.9805   11.5117 C   0  0  0  0  0  0  0  0  0  0  0  0
    9.6160    4.4863   12.8184 C   0  0  0  0  0  0  0  0  0  0  0  0
   10.7907    4.0199   13.4176 C   0  0  0  0  0  0  0  0  0  0  0  0
   11.9900    4.0560   12.7008 C   0  0  0  0  0  0  0  0  0  0  0  0
   12.0115    4.5550   11.3950 C   0  0  0  0  0  0  0  0  0  0  0  0
    9.1695    5.8585    7.0738 N   0  0  0  0  0  0  0  0  0  0  0  0
    9.0087    3.7539    5.2949 C   0  0  0  0  0  0  0  0  0  0  0  0
    9.9071    3.3702    4.1190 C   0  0  0  0  0  0  0  0  0  0  0  0
    4.6518   -2.9728    1.9592 C   0  0  0  0  0  0  0  0  0  0  0  0
    4.3515   -4.1787    1.0484 C   0  0  0  0  0  0  0  0  0  0  0  0
    2.8473   -2.7059   -2.2398 H   0  0  0  0  0  0  0  0  0  0  0  0
    3.9541   -4.6045   -1.0418 H   0  0  0  0  0  0  0  0  0  0  0  0
    4.7181   -2.2898   -1.8841 H   0  0  0  0  0  0  0  0  0  0  0  0
    5.9509   -3.2650   -1.1010 H   0  0  0  0  0  0  0  0  0  0  0  0
    4.3498   -0.9784    0.2164 H   0  0  0  0  0  0  0  0  0  0  0  0
    6.0311   -0.8873   -0.2843 H   0  0  0  0  0  0  0  0  0  0  0  0
    7.3334   -3.3327    0.9195 H   0  0  0  0  0  0  0  0  0  0  0  0
    7.1183   -2.8856    2.6133 H   0  0  0  0  0  0  0  0  0  0  0  0
    8.1441   -1.0728    0.3638 H   0  0  0  0  0  0  0  0  0  0  0  0
    9.7347   -2.8059    1.1531 H   0  0  0  0  0  0  0  0  0  0  0  0
    9.3894   -2.4041    2.8335 H   0  0  0  0  0  0  0  0  0  0  0  0
   10.8702   -0.6451    0.7979 H   0  0  0  0  0  0  0  0  0  0  0  0
   11.5482   -1.4344    2.2217 H   0  0  0  0  0  0  0  0  0  0  0  0
   11.1437    1.0383    2.5683 H   0  0  0  0  0  0  0  0  0  0  0  0
   10.2195    0.0624    3.7307 H   0  0  0  0  0  0  0  0  0  0  0  0
    9.1708    1.0415    1.0271 H   0  0  0  0  0  0  0  0  0  0  0  0
    7.8407   -0.4608    3.3418 H   0  0  0  0  0  0  0  0  0  0  0  0
    9.8652    3.2712    1.9610 H   0  0  0  0  0  0  0  0  0  0  0  0
    7.6656    4.5706    1.7523 H   0  0  0  0  0  0  0  0  0  0  0  0
    9.0992    5.3948    2.3985 H   0  0  0  0  0  0  0  0  0  0  0  0
    6.6640    4.4149    3.9715 H   0  0  0  0  0  0  0  0  0  0  0  0
    7.1752    6.0840    3.6731 H   0  0  0  0  0  0  0  0  0  0  0  0
    6.9982    7.4632    5.0167 H   0  0  0  0  0  0  0  0  0  0  0  0
    7.2729    9.1415    6.8117 H   0  0  0  0  0  0  0  0  0  0  0  0
   10.0488    7.4360    9.7196 H   0  0  0  0  0  0  0  0  0  0  0  0
   11.9156    5.7379    9.0653 H   0  0  0  0  0  0  0  0  0  0  0  0
   10.5412    4.7049    8.6652 H   0  0  0  0  0  0  0  0  0  0  0  0
    8.7219    5.3493   11.0479 H   0  0  0  0  0  0  0  0  0  0  0  0
    8.6737    4.4655   13.3726 H   0  0  0  0  0  0  0  0  0  0  0  0
   10.7721    3.6355   14.4407 H   0  0  0  0  0  0  0  0  0  0  0  0
   12.9156    3.7020   13.1624 H   0  0  0  0  0  0  0  0  0  0  0  0
   12.9562    4.5893   10.8437 H   0  0  0  0  0  0  0  0  0  0  0  0
    8.2336    2.9746    5.4359 H   0  0  0  0  0  0  0  0  0  0  0  0
    9.5855    3.8272    6.2222 H   0  0  0  0  0  0  0  0  0  0  0  0
   10.3955    2.4078    4.3282 H   0  0  0  0  0  0  0  0  0  0  0  0
   10.7061    4.1247    4.0197 H   0  0  0  0  0  0  0  0  0  0  0  0
    3.7178   -2.4064    2.1101 H   0  0  0  0  0  0  0  0  0  0  0  0
    4.9779   -3.3188    2.9532 H   0  0  0  0  0  0  0  0  0  0  0  0
    3.5365   -4.7781    1.4800 H   0  0  0  0  0  0  0  0  0  0  0  0
    5.2391   -4.8306    0.9801 H   0  0  0  0  0  0  0  0  0  0  0  0
  1  2  2  0
  2  3  1  0
  2  4  1  0
  3 41  1  0
  4  5  1  0
  4 40  1  0
  4 42  1  6
  5  6  1  0
  5 43  1  0
  5 44  1  0
  6  7  1  0
  6 45  1  0
  6 46  1  0
  7  8  1  0
  7 39  1  0
  8  9  1  0
  8 47  1  0
  8 48  1  0
  9 10  1  0
  9 14  1  0
  9 49  1  6
 10 11  1  0
 10 50  1  0
 10 51  1  0
 11 12  1  0
 11 52  1  0
 11 53  1  0
 12 13  1  0
 12 54  1  0
 12 55  1  0
 13 14  1  0
 13 18  1  0
 13 56  1  6
 14 15  1  0
 14 57  1  1
 15 16  1  0
 16 17  2  0
 16 18  1  0
 18 19  1  0
 19 20  1  0
 19 38  1  0
 19 58  1  6
 20 21  1  0
 20 59  1  0
 20 60  1  0
 21 22  1  0
 21 61  1  0
 21 62  1  0
 22 23  1  0
 22 37  1  0
 23 24  2  0
 23 36  1  0
 24 25  1  0
 24 63  1  0
 25 26  2  0
 25 64  1  0
 26 27  1  0
 27 28  1  0
 27 36  2  0
 28 29  1  0
 28 65  1  0
 29 30  1  0
 29 66  1  0
 29 67  1  0
 30 31  2  0
 30 35  1  0
 31 32  1  0
 31 68  1  0
 32 33  2  0
 32 69  1  0
 33 34  1  0
 33 70  1  0
 34 35  2  0
 34 71  1  0
 35 72  1  0
 37 38  1  0
 37 73  1  0
 37 74  1  0
 38 75  1  0
 38 76  1  0
 39 40  1  0
 39 77  1  0
 39 78  1  0
 40 79  1  0
 40 80  1  0
M  END

