
     RDKit          3D

 69 72  0  0  0  0  0  0  0  0999 V2000
    1.1039   -4.5922   -1.6925 C   0  0  0  0  0  0  0  0  0  0  0  0
    2.6226   -4.7598   -1.8872 C   0  0  2  0  0  0  0  0  0  0  0  0
    2.7950   -5.6715   -2.4761 H   0  0  0  0  0  0  0  0  0  0  0  0
    3.3394   -4.9386   -0.6321 N   0  0  0  0  0  0  0  0  0  0  0  0
    3.3156   -4.1254    0.4525 C   0  0  0  0  0  0  0  0  0  0  0  0
    2.8793   -2.9604    0.4083 O   0  0  0  0  0  0  0  0  0  0  0  0
    3.8867   -4.7595    1.7207 C   0  0  0  0  0  0  0  0  0  0  0  0
    4.6905   -6.0099    1.5207 C   0  0  0  0  0  0  0  0  0  0  0  0
    6.0600   -5.9287    1.0003 C   0  0  0  0  0  0  0  0  0  0  0  0
    6.8273   -7.0824    0.8843 C   0  0  0  0  0  0  0  0  0  0  0  0
    6.3475   -8.3467    1.2692 C   0  0  0  0  0  0  0  0  0  0  0  0
    5.0253   -8.4255    1.8581 C   0  0  0  0  0  0  0  0  0  0  0  0
    4.2525   -7.2851    1.9772 C   0  0  0  0  0  0  0  0  0  0  0  0
    3.1838   -3.6444   -2.7954 C   0  0  0  0  0  0  0  0  0  0  0  0
    3.2680   -3.8212   -4.0125 O   0  0  0  0  0  0  0  0  0  0  0  0
    3.5048   -2.4885   -2.1586 N   0  0  0  0  0  0  0  0  0  0  0  0
    4.2790   -1.3722   -2.6630 C   0  0  2  0  0  0  0  0  0  0  0  0
    3.9329   -0.4808   -2.1114 H   0  0  0  0  0  0  0  0  0  0  0  0
    4.1728   -1.0583   -4.1782 C   0  0  0  0  0  0  0  0  0  0  0  0
    2.8244   -0.6507   -4.6506 C   0  0  0  0  0  0  0  0  0  0  0  0
    1.8080   -1.5402   -5.1293 C   0  0  0  0  0  0  0  0  0  0  0  0
    0.7233   -0.8410   -5.4748 N   0  0  0  0  0  0  0  0  0  0  0  0
   -0.1335   -1.2442   -5.8398 H   0  0  0  0  0  0  0  0  0  0  0  0
    0.9435    0.5308   -5.2529 C   0  0  0  0  0  0  0  0  0  0  0  0
    0.1189    1.6167   -5.4659 C   0  0  0  0  0  0  0  0  0  0  0  0
    0.6438    2.8901   -5.1436 C   0  0  0  0  0  0  0  0  0  0  0  0
    1.9395    3.0478   -4.6347 C   0  0  0  0  0  0  0  0  0  0  0  0
    2.7651    1.9398   -4.4260 C   0  0  0  0  0  0  0  0  0  0  0  0
    2.2630    0.6575   -4.7346 C   0  0  0  0  0  0  0  0  0  0  0  0
    5.8064   -1.4258   -2.3371 C   0  0  0  0  0  0  0  0  0  0  0  0
    6.5186   -0.5135   -2.7358 O   0  0  0  0  0  0  0  0  0  0  0  0
    6.2308   -2.4775   -1.6140 N   0  0  0  0  0  0  0  0  0  0  0  0
    7.6118   -2.6245   -1.1693 C   0  0  0  0  0  0  0  0  0  0  0  0
    7.8647   -2.0221    0.2269 C   0  0  0  0  0  0  0  0  0  0  0  0
    9.2813   -2.2585    0.7032 C   0  0  0  0  0  0  0  0  0  0  0  0
   10.3076   -1.3534    0.3881 C   0  0  0  0  0  0  0  0  0  0  0  0
   11.6237   -1.5905    0.7952 C   0  0  0  0  0  0  0  0  0  0  0  0
   11.9344   -2.7414    1.5256 C   0  0  0  0  0  0  0  0  0  0  0  0
   10.9211   -3.6504    1.8452 C   0  0  0  0  0  0  0  0  0  0  0  0
    9.6057   -3.4117    1.4371 C   0  0  0  0  0  0  0  0  0  0  0  0
    0.8847   -3.7050   -1.0819 H   0  0  0  0  0  0  0  0  0  0  0  0
    0.6971   -5.4750   -1.1775 H   0  0  0  0  0  0  0  0  0  0  0  0
    0.6003   -4.5017   -2.6674 H   0  0  0  0  0  0  0  0  0  0  0  0
    3.7758   -5.8450   -0.4119 H   0  0  0  0  0  0  0  0  0  0  0  0
    3.0050   -4.9480    2.3625 H   0  0  0  0  0  0  0  0  0  0  0  0
    4.4367   -3.9386    2.2268 H   0  0  0  0  0  0  0  0  0  0  0  0
    6.4808   -4.9591    0.7202 H   0  0  0  0  0  0  0  0  0  0  0  0
    7.8461   -7.0005    0.4866 H   0  0  0  0  0  0  0  0  0  0  0  0
    6.9705   -9.2364    1.1704 H   0  0  0  0  0  0  0  0  0  0  0  0
    4.6409   -9.3832    2.2182 H   0  0  0  0  0  0  0  0  0  0  0  0
    3.2593   -7.3618    2.4389 H   0  0  0  0  0  0  0  0  0  0  0  0
    3.2559   -2.4707   -1.1408 H   0  0  0  0  0  0  0  0  0  0  0  0
    4.4954   -1.9416   -4.7419 H   0  0  0  0  0  0  0  0  0  0  0  0
    4.8889   -0.2427   -4.3469 H   0  0  0  0  0  0  0  0  0  0  0  0
    1.8854   -2.6257   -5.1872 H   0  0  0  0  0  0  0  0  0  0  0  0
   -0.8921    1.5133   -5.8628 H   0  0  0  0  0  0  0  0  0  0  0  0
    0.0175    3.7702   -5.2985 H   0  0  0  0  0  0  0  0  0  0  0  0
    2.3062    4.0478   -4.4003 H   0  0  0  0  0  0  0  0  0  0  0  0
    3.7759    2.0592   -4.0326 H   0  0  0  0  0  0  0  0  0  0  0  0
    5.5542   -3.1709   -1.3114 H   0  0  0  0  0  0  0  0  0  0  0  0
    8.2561   -2.1321   -1.9113 H   0  0  0  0  0  0  0  0  0  0  0  0
    7.8525   -3.6975   -1.1656 H   0  0  0  0  0  0  0  0  0  0  0  0
    7.1521   -2.4676    0.9389 H   0  0  0  0  0  0  0  0  0  0  0  0
    7.6528   -0.9416    0.1831 H   0  0  0  0  0  0  0  0  0  0  0  0
   10.0706   -0.4476   -0.1787 H   0  0  0  0  0  0  0  0  0  0  0  0
   12.4085   -0.8717    0.5441 H   0  0  0  0  0  0  0  0  0  0  0  0
   12.9625   -2.9277    1.8474 H   0  0  0  0  0  0  0  0  0  0  0  0
   11.1525   -4.5518    2.4187 H   0  0  0  0  0  0  0  0  0  0  0  0
    8.8201   -4.1284    1.6939 H   0  0  0  0  0  0  0  0  0  0  0  0
  1  2  1  0
  1 41  1  0
  1 42  1  0
  1 43  1  0
  2  3  1  6
  2  4  1  0
  2 14  1  0
  4  5  1  0
  4 44  1  0
  5  6  2  0
  5  7  1  0
  7  8  1  0
  7 45  1  0
  7 46  1  0
  8  9  2  0
  8 13  1  0
  9 10  1  0
  9 47  1  0
 10 11  2  0
 10 48  1  0
 11 12  1  0
 11 49  1  0
 12 13  2  0
 12 50  1  0
 13 51  1  0
 14 15  2  0
 14 16  1  0
 16 17  1  0
 16 52  1  0
 17 18  1  1
 17 19  1  0
 17 30  1  0
 19 20  1  0
 19 53  1  0
 19 54  1  0
 20 21  2  0
 20 29  1  0
 21 22  1  0
 21 55  1  0
 22 23  1  0
 22 24  1  0
 24 25  1  0
 24 29  2  0
 25 26  2  0
 25 56  1  0
 26 27  1  0
 26 57  1  0
 27 28  2  0
 27 58  1  0
 28 29  1  0
 28 59  1  0
 30 31  2  0
 30 32  1  0
 32 33  1  0
 32 60  1  0
 33 34  1  0
 33 61  1  0
 33 62  1  0
 34 35  1  0
 34 63  1  0
 34 64  1  0
 35 36  2  0
 35 40  1  0
 36 37  1  0
 36 65  1  0
 37 38  2  0
 37 66  1  0
 38 39  1  0
 38 67  1  0
 39 40  2  0
 39 68  1  0
 40 69  1  0
M  END

