
     RDKit          3D

 36 38  0  0  0  0  0  0  0  0999 V2000
    0.7073   -0.0745    0.4677 N   0  0  0  0  0  0  0  0  0  0  0  0
    2.1500   -0.0265    0.2478 C   0  0  1  0  0  0  0  0  0  0  0  0
    2.8994    1.2166    0.8398 C   0  0  0  0  0  0  0  0  0  0  0  0
    2.3718    2.5277    0.3080 C   0  0  0  0  0  0  0  0  0  0  0  0
    1.3669    3.2377    0.9864 C   0  0  0  0  0  0  0  0  0  0  0  0
    0.8402    4.4280    0.4773 C   0  0  0  0  0  0  0  0  0  0  0  0
    1.3221    4.9243   -0.7360 C   0  0  0  0  0  0  0  0  0  0  0  0
    0.6751    6.4154   -1.3837 Cl  0  0  0  0  0  0  0  0  0  0  0  0
    2.3228    4.2421   -1.4344 C   0  0  0  0  0  0  0  0  0  0  0  0
    2.8358    3.0550   -0.9093 C   0  0  0  0  0  0  0  0  0  0  0  0
    2.8208   -1.3441    0.6330 C   0  0  0  0  0  0  0  0  0  0  0  0
    3.4416   -2.0709   -0.3698 C   0  0  0  0  0  0  0  0  0  0  0  0
    4.0999   -3.3000   -0.1325 C   0  0  0  0  0  0  0  0  0  0  0  0
    4.1231   -3.7981    1.1436 C   0  0  0  0  0  0  0  0  0  0  0  0
    4.7391   -4.9655    1.3946 F   0  0  0  0  0  0  0  0  0  0  0  0
    3.5115   -3.1202    2.2316 C   0  0  0  0  0  0  0  0  0  0  0  0
    3.5503   -3.6632    3.5447 C   0  0  0  0  0  0  0  0  0  0  0  0
    2.9557   -3.0006    4.5962 C   0  0  0  0  0  0  0  0  0  0  0  0
    2.3020   -1.7671    4.3667 C   0  0  0  0  0  0  0  0  0  0  0  0
    2.2530   -1.2214    3.1000 C   0  0  0  0  0  0  0  0  0  0  0  0
    2.8505   -1.8668    1.9754 C   0  0  0  0  0  0  0  0  0  0  0  0
    0.2679    0.8020    0.1885 H   0  0  0  0  0  0  0  0  0  0  0  0
    0.4638   -0.2464    1.4402 H   0  0  0  0  0  0  0  0  0  0  0  0
    2.2791    0.0607   -0.8439 H   0  0  0  0  0  0  0  0  0  0  0  0
    3.9672    1.1165    0.5865 H   0  0  0  0  0  0  0  0  0  0  0  0
    2.8353    1.2114    1.9379 H   0  0  0  0  0  0  0  0  0  0  0  0
    0.9933    2.8612    1.9428 H   0  0  0  0  0  0  0  0  0  0  0  0
    0.0648    4.9735    1.0179 H   0  0  0  0  0  0  0  0  0  0  0  0
    2.6955    4.6441   -2.3782 H   0  0  0  0  0  0  0  0  0  0  0  0
    3.6228    2.5303   -1.4590 H   0  0  0  0  0  0  0  0  0  0  0  0
    3.4193   -1.6874   -1.3931 H   0  0  0  0  0  0  0  0  0  0  0  0
    4.5797   -3.8550   -0.9405 H   0  0  0  0  0  0  0  0  0  0  0  0
    4.0610   -4.6149    3.6988 H   0  0  0  0  0  0  0  0  0  0  0  0
    2.9884   -3.4232    5.6033 H   0  0  0  0  0  0  0  0  0  0  0  0
    1.8316   -1.2395    5.2003 H   0  0  0  0  0  0  0  0  0  0  0  0
    1.7443   -0.2676    2.9657 H   0  0  0  0  0  0  0  0  0  0  0  0
  1  2  1  0
  1 22  1  0
  1 23  1  0
  2  3  1  0
  2 11  1  0
  2 24  1  6
  3  4  1  0
  3 25  1  0
  3 26  1  0
  4  5  2  0
  4 10  1  0
  5  6  1  0
  5 27  1  0
  6  7  2  0
  6 28  1  0
  7  8  1  0
  7  9  1  0
  9 10  2  0
  9 29  1  0
 10 30  1  0
 11 12  2  0
 11 21  1  0
 12 13  1  0
 12 31  1  0
 13 14  2  0
 13 32  1  0
 14 15  1  0
 14 16  1  0
 16 17  1  0
 16 21  2  0
 17 18  2  0
 17 33  1  0
 18 19  1  0
 18 34  1  0
 19 20  2  0
 19 35  1  0
 20 21  1  0
 20 36  1  0
M  END

