
     RDKit          3D

 43 44  0  0  0  0  0  0  0  0999 V2000
    3.1646    0.8290    0.3640 N   0  0  0  0  0  0  0  0  0  0  0  0
    2.5045   -0.4021    0.6101 C   0  0  0  0  0  0  0  0  0  0  0  0
    3.1014   -1.6091   -0.0357 C   0  0  0  0  0  0  0  0  0  0  0  0
    2.6251   -1.8308   -1.5357 C   0  0  1  0  0  0  0  0  0  0  0  0
    2.7118   -0.5176   -2.2114 N   0  0  0  0  0  0  0  0  0  0  0  0
    2.3428   -0.1360   -3.5465 C   0  0  1  0  0  0  0  0  0  0  0  0
    2.2102   -1.3180   -4.5169 C   0  0  0  0  0  0  0  0  0  0  0  0
    1.7487   -0.7618   -5.7392 O   0  0  0  0  0  0  0  0  0  0  0  0
    0.9789    0.6888   -3.4361 C   0  0  0  0  0  0  0  0  0  0  0  0
    1.2786    2.0755   -4.0255 C   0  0  0  0  0  0  0  0  0  0  0  0
    2.7656    2.2971   -3.7296 C   0  0  0  0  0  0  0  0  0  0  0  0
    3.3799    0.9309   -4.0477 C   0  0  0  0  0  0  0  0  0  0  0  0
    3.2971   -2.9489   -2.2465 C   0  0  0  0  0  0  0  0  0  0  0  0
    2.6659   -4.2273   -2.3245 C   0  0  0  0  0  0  0  0  0  0  0  0
    3.3469   -5.3552   -2.7370 C   0  0  0  0  0  0  0  0  0  0  0  0
    4.7429   -5.2829   -3.0718 C   0  0  0  0  0  0  0  0  0  0  0  0
    5.3905   -4.0389   -2.9582 C   0  0  0  0  0  0  0  0  0  0  0  0
    4.7219   -2.8922   -2.5476 C   0  0  0  0  0  0  0  0  0  0  0  0
    1.3416   -0.3254    1.1659 N   0  0  0  0  0  0  0  0  0  0  0  0
    0.6959   -1.5685    1.1744 O   0  0  0  0  0  0  0  0  0  0  0  0
    4.1455    0.8133    0.6465 H   0  0  0  0  0  0  0  0  0  0  0  0
    2.6831    1.6014    0.8254 H   0  0  0  0  0  0  0  0  0  0  0  0
    2.8051   -2.5156    0.5029 H   0  0  0  0  0  0  0  0  0  0  0  0
    4.2023   -1.5541   -0.0416 H   0  0  0  0  0  0  0  0  0  0  0  0
    1.5352   -2.0247   -1.4712 H   0  0  0  0  0  0  0  0  0  0  0  0
    2.8930    0.2787   -1.5780 H   0  0  0  0  0  0  0  0  0  0  0  0
    1.5022   -2.0629   -4.1178 H   0  0  0  0  0  0  0  0  0  0  0  0
    3.1834   -1.8209   -4.6279 H   0  0  0  0  0  0  0  0  0  0  0  0
    1.7481   -1.4616   -6.4031 H   0  0  0  0  0  0  0  0  0  0  0  0
    0.6753    0.7671   -2.3802 H   0  0  0  0  0  0  0  0  0  0  0  0
    0.1881    0.1470   -3.9702 H   0  0  0  0  0  0  0  0  0  0  0  0
    0.6253    2.8564   -3.6071 H   0  0  0  0  0  0  0  0  0  0  0  0
    1.1203    2.0477   -5.1149 H   0  0  0  0  0  0  0  0  0  0  0  0
    2.9101    2.5564   -2.6651 H   0  0  0  0  0  0  0  0  0  0  0  0
    3.2162    3.1087   -4.3216 H   0  0  0  0  0  0  0  0  0  0  0  0
    4.3791    0.7649   -3.6177 H   0  0  0  0  0  0  0  0  0  0  0  0
    3.4573    0.7966   -5.1354 H   0  0  0  0  0  0  0  0  0  0  0  0
    1.6042   -4.3138   -2.0618 H   0  0  0  0  0  0  0  0  0  0  0  0
    2.8158   -6.3082   -2.8125 H   0  0  0  0  0  0  0  0  0  0  0  0
    5.2906   -6.1734   -3.3839 H   0  0  0  0  0  0  0  0  0  0  0  0
    6.4567   -3.9677   -3.2024 H   0  0  0  0  0  0  0  0  0  0  0  0
    5.2746   -1.9503   -2.4784 H   0  0  0  0  0  0  0  0  0  0  0  0
   -0.1217   -1.3786    1.6510 H   0  0  0  0  0  0  0  0  0  0  0  0
  1  2  1  0
  1 21  1  0
  1 22  1  0
  2  3  1  0
  2 19  2  0
  3  4  1  0
  3 23  1  0
  3 24  1  0
  4  5  1  0
  4 13  1  0
  4 25  1  1
  6  5  1  1
  5 26  1  0
  6  7  1  0
  6  9  1  0
  6 12  1  0
  7  8  1  0
  7 27  1  0
  7 28  1  0
  8 29  1  0
  9 10  1  0
  9 30  1  0
  9 31  1  0
 10 11  1  0
 10 32  1  0
 10 33  1  0
 11 12  1  0
 11 34  1  0
 11 35  1  0
 12 36  1  0
 12 37  1  0
 13 14  2  0
 13 18  1  0
 14 15  1  0
 14 38  1  0
 15 16  2  0
 15 39  1  0
 16 17  1  0
 16 40  1  0
 17 18  2  0
 17 41  1  0
 18 42  1  0
 19 20  1  0
 20 43  1  0
M  END

