
     RDKit          3D

 38 39  0  0  0  0  0  0  0  0999 V2000
    1.6841    1.1094    4.0275 C   0  0  0  0  0  0  0  0  0  0  0  0
    2.9972    1.1084    3.5291 O   0  0  0  0  0  0  0  0  0  0  0  0
    3.0830    0.8967    2.1490 C   0  0  0  0  0  0  0  0  0  0  0  0
    4.5268    0.8872    1.7008 C   0  0  0  0  0  0  0  0  0  0  0  0
    5.5735    0.9817    2.6257 C   0  0  0  0  0  0  0  0  0  0  0  0
    6.9017    0.9639    2.1947 C   0  0  0  0  0  0  0  0  0  0  0  0
    7.2098    0.8500    0.8320 C   0  0  0  0  0  0  0  0  0  0  0  0
    8.6507    0.8031    0.3789 C   0  0  0  0  0  0  0  0  0  0  0  0
    9.2425   -0.5034    0.4808 N   0  0  0  0  0  0  0  0  0  0  0  0
   10.6635   -0.7828    0.6031 C   0  0  0  0  0  0  0  0  0  0  0  0
   10.9946   -2.2056    0.2426 C   0  0  0  0  0  0  0  0  0  0  0  0
   11.9310   -2.4612   -0.7403 C   0  0  0  0  0  0  0  0  0  0  0  0
   12.2318   -3.8072   -1.1290 C   0  0  0  0  0  0  0  0  0  0  0  0
   11.5222   -4.8577   -0.4825 C   0  0  0  0  0  0  0  0  0  0  0  0
   11.7795   -6.1616   -0.8297 O   0  0  0  0  0  0  0  0  0  0  0  0
   10.5681   -4.6174    0.4886 C   0  0  0  0  0  0  0  0  0  0  0  0
   10.2445   -3.2530    0.8719 C   0  0  0  0  0  0  0  0  0  0  0  0
    6.1607    0.7579   -0.0948 C   0  0  0  0  0  0  0  0  0  0  0  0
    4.8352    0.7773    0.3365 C   0  0  0  0  0  0  0  0  0  0  0  0
    1.7385    1.2837    5.1113 H   0  0  0  0  0  0  0  0  0  0  0  0
    1.1736    0.1418    3.8491 H   0  0  0  0  0  0  0  0  0  0  0  0
    1.0695    1.9106    3.5700 H   0  0  0  0  0  0  0  0  0  0  0  0
    2.5310    1.6842    1.5909 H   0  0  0  0  0  0  0  0  0  0  0  0
    2.6086   -0.0688    1.8664 H   0  0  0  0  0  0  0  0  0  0  0  0
    5.3332    1.0721    3.6850 H   0  0  0  0  0  0  0  0  0  0  0  0
    7.7058    1.0445    2.9322 H   0  0  0  0  0  0  0  0  0  0  0  0
    9.2931    1.5060    0.9346 H   0  0  0  0  0  0  0  0  0  0  0  0
    8.7381    1.0965   -0.6876 H   0  0  0  0  0  0  0  0  0  0  0  0
    8.6510   -1.3422    0.4481 H   0  0  0  0  0  0  0  0  0  0  0  0
   10.8734   -0.5444    1.6718 H   0  0  0  0  0  0  0  0  0  0  0  0
   11.2059   -0.0272    0.0118 H   0  0  0  0  0  0  0  0  0  0  0  0
   12.4343   -1.6322   -1.2496 H   0  0  0  0  0  0  0  0  0  0  0  0
   13.0090   -4.0257   -1.8647 H   0  0  0  0  0  0  0  0  0  0  0  0
   12.4575   -6.1495   -1.5161 H   0  0  0  0  0  0  0  0  0  0  0  0
   10.0588   -5.4687    0.9444 H   0  0  0  0  0  0  0  0  0  0  0  0
    9.7509   -3.0761    1.8363 H   0  0  0  0  0  0  0  0  0  0  0  0
    6.3791    0.6742   -1.1633 H   0  0  0  0  0  0  0  0  0  0  0  0
    4.0299    0.7092   -0.4006 H   0  0  0  0  0  0  0  0  0  0  0  0
  1  2  1  0
  1 20  1  0
  1 21  1  0
  1 22  1  0
  2  3  1  0
  3  4  1  0
  3 23  1  0
  3 24  1  0
  4  5  2  0
  4 19  1  0
  5  6  1  0
  5 25  1  0
  6  7  2  0
  6 26  1  0
  7  8  1  0
  7 18  1  0
  8  9  1  0
  8 27  1  0
  8 28  1  0
  9 10  1  0
  9 29  1  0
 10 11  1  0
 10 30  1  0
 10 31  1  0
 11 12  2  0
 11 17  1  0
 12 13  1  0
 12 32  1  0
 13 14  2  0
 13 33  1  0
 14 15  1  0
 14 16  1  0
 15 34  1  0
 16 17  2  0
 16 35  1  0
 17 36  1  0
 18 19  2  0
 18 37  1  0
 19 38  1  0
M  END

