
     RDKit          3D

 36 37  0  0  0  0  0  0  0  0999 V2000
    3.2030    0.3823   -0.8775 C   0  0  0  0  0  0  0  0  0  0  0  0
    2.1429   -0.0417    0.1509 C   0  0  0  0  0  0  0  0  0  0  0  0
    2.7242   -0.7321    1.3663 C   0  0  0  0  0  0  0  0  0  0  0  0
    3.1811    0.0057    2.4732 C   0  0  0  0  0  0  0  0  0  0  0  0
    3.7519   -0.6177    3.5794 C   0  0  0  0  0  0  0  0  0  0  0  0
    3.8835   -2.0143    3.6077 C   0  0  0  0  0  0  0  0  0  0  0  0
    4.4521   -2.5458    4.7326 O   0  0  0  0  0  0  0  0  0  0  0  0
    4.6167   -3.9409    4.8360 C   0  0  0  0  0  0  0  0  0  0  0  0
    5.2660   -4.2562    6.1589 C   0  0  0  0  0  0  0  0  0  0  0  0
    5.4969   -5.4730    6.4631 O   0  0  0  0  0  0  0  0  0  0  0  0
    5.5912   -3.2469    6.9824 N   0  0  0  0  0  0  0  0  0  0  0  0
    6.1884   -3.5096    8.1933 C   0  0  0  0  0  0  0  0  0  0  0  0
    6.4161   -4.8153    8.4808 N   0  0  0  0  0  0  0  0  0  0  0  0
    6.9783   -5.2286    9.6046 C   0  0  0  0  0  0  0  0  0  0  0  0
    7.3763   -4.3108   10.5746 C   0  0  0  0  0  0  0  0  0  0  0  0
    7.1571   -2.9090   10.3174 C   0  0  0  0  0  0  0  0  0  0  0  0
    6.5655   -2.5162    9.1309 C   0  0  0  0  0  0  0  0  0  0  0  0
    6.3016   -1.2292    8.7649 O   0  0  0  0  0  0  0  0  0  0  0  0
    3.4353   -2.7726    2.5193 C   0  0  0  0  0  0  0  0  0  0  0  0
    2.8643   -2.1244    1.4172 C   0  0  0  0  0  0  0  0  0  0  0  0
    2.7392    0.8827   -1.7431 H   0  0  0  0  0  0  0  0  0  0  0  0
    3.7654   -0.4889   -1.2501 H   0  0  0  0  0  0  0  0  0  0  0  0
    3.9318    1.0796   -0.4336 H   0  0  0  0  0  0  0  0  0  0  0  0
    1.4137   -0.7119   -0.3347 H   0  0  0  0  0  0  0  0  0  0  0  0
    1.5752    0.8476    0.4740 H   0  0  0  0  0  0  0  0  0  0  0  0
    3.0826    1.0953    2.4713 H   0  0  0  0  0  0  0  0  0  0  0  0
    4.0998   -0.0388    4.4376 H   0  0  0  0  0  0  0  0  0  0  0  0
    5.2512   -4.3373    4.0165 H   0  0  0  0  0  0  0  0  0  0  0  0
    3.6444   -4.4716    4.7744 H   0  0  0  0  0  0  0  0  0  0  0  0
    5.3886   -2.2929    6.7006 H   0  0  0  0  0  0  0  0  0  0  0  0
    7.1125   -6.3078    9.7301 H   0  0  0  0  0  0  0  0  0  0  0  0
    7.8397   -4.6526   11.4993 H   0  0  0  0  0  0  0  0  0  0  0  0
    7.4543   -2.1551   11.0515 H   0  0  0  0  0  0  0  0  0  0  0  0
    6.5909   -0.6312    9.4664 H   0  0  0  0  0  0  0  0  0  0  0  0
    3.5180   -3.8597    2.5145 H   0  0  0  0  0  0  0  0  0  0  0  0
    2.5147   -2.7309    0.5763 H   0  0  0  0  0  0  0  0  0  0  0  0
  1  2  1  0
  1 21  1  0
  1 22  1  0
  1 23  1  0
  2  3  1  0
  2 24  1  0
  2 25  1  0
  3  4  2  0
  3 20  1  0
  4  5  1  0
  4 26  1  0
  5  6  2  0
  5 27  1  0
  6  7  1  0
  6 19  1  0
  7  8  1  0
  8  9  1  0
  8 28  1  0
  8 29  1  0
  9 10  2  0
  9 11  1  0
 11 12  1  0
 11 30  1  0
 12 13  2  0
 12 17  1  0
 13 14  1  0
 14 15  2  0
 14 31  1  0
 15 16  1  0
 15 32  1  0
 16 17  2  0
 16 33  1  0
 17 18  1  0
 18 34  1  0
 19 20  2  0
 19 35  1  0
 20 36  1  0
M  END

