
     RDKit          3D

 48 51  0  0  0  0  0  0  0  0999 V2000
    1.5798    0.3759    1.1687 C   0  0  0  0  0  0  0  0  0  0  0  0
    2.7431    0.0502    0.2585 C   0  0  0  0  0  0  0  0  0  0  0  0
    3.1665    0.9947   -0.6978 C   0  0  0  0  0  0  0  0  0  0  0  0
    4.2854    0.6962   -1.5006 C   0  0  0  0  0  0  0  0  0  0  0  0
    4.9612   -0.5049   -1.3842 C   0  0  0  0  0  0  0  0  0  0  0  0
    4.5440   -1.5060   -0.4451 C   0  0  0  0  0  0  0  0  0  0  0  0
    5.3011   -2.7210   -0.3921 C   0  0  0  0  0  0  0  0  0  0  0  0
    6.4798   -2.8917   -1.0248 N   0  0  0  0  0  0  0  0  0  0  0  0
    6.9178   -4.1447   -0.7611 C   0  0  0  0  0  0  0  0  0  0  0  0
    8.0728   -4.8618   -1.1325 C   0  0  0  0  0  0  0  0  0  0  0  0
    8.1949   -6.1948   -0.6696 C   0  0  0  0  0  0  0  0  0  0  0  0
    9.4167   -7.0088   -1.0249 C   0  0  0  0  0  0  0  0  0  0  0  0
    7.1799   -6.7523    0.1110 C   0  0  0  0  0  0  0  0  0  0  0  0
    6.0417   -6.0860    0.4840 N   0  0  0  0  0  0  0  0  0  0  0  0
    5.9799   -4.8385    0.0593 C   0  0  0  0  0  0  0  0  0  0  0  0
    4.9578   -3.9304    0.3010 N   0  0  0  0  0  0  0  0  0  0  0  0
    3.7880   -4.3389    1.0216 C   0  0  0  0  0  0  0  0  0  0  0  0
    2.5399   -4.5821    0.1319 C   0  0  1  0  0  0  0  0  0  0  0  0
    2.7726   -5.4978   -1.0801 C   0  0  0  0  0  0  0  0  0  0  0  0
    2.9999   -6.9578   -0.6925 C   0  0  0  0  0  0  0  0  0  0  0  0
    1.8183   -7.4781    0.1882 C   0  0  0  0  0  0  0  0  0  0  0  0
    1.6440   -6.5591    1.2791 N   0  0  0  0  0  0  0  0  0  0  0  0
    1.3730   -5.1660    0.9907 C   0  0  0  0  0  0  0  0  0  0  0  0
    3.4183   -1.1645    0.3761 C   0  0  0  0  0  0  0  0  0  0  0  0
    0.6683    0.6121    0.5922 H   0  0  0  0  0  0  0  0  0  0  0  0
    1.7934    1.2606    1.7934 H   0  0  0  0  0  0  0  0  0  0  0  0
    1.3414   -0.4582    1.8481 H   0  0  0  0  0  0  0  0  0  0  0  0
    2.6448    1.9496   -0.7998 H   0  0  0  0  0  0  0  0  0  0  0  0
    4.6310    1.4309   -2.2348 H   0  0  0  0  0  0  0  0  0  0  0  0
    5.8296   -0.7259   -2.0051 H   0  0  0  0  0  0  0  0  0  0  0  0
    8.8429   -4.4014   -1.7554 H   0  0  0  0  0  0  0  0  0  0  0  0
   10.3375   -6.5467   -0.6286 H   0  0  0  0  0  0  0  0  0  0  0  0
    9.5474   -7.0855   -2.1183 H   0  0  0  0  0  0  0  0  0  0  0  0
    9.3564   -8.0315   -0.6214 H   0  0  0  0  0  0  0  0  0  0  0  0
    7.2670   -7.7869    0.4591 H   0  0  0  0  0  0  0  0  0  0  0  0
    3.5215   -3.6119    1.8041 H   0  0  0  0  0  0  0  0  0  0  0  0
    4.0929   -5.2646    1.5372 H   0  0  0  0  0  0  0  0  0  0  0  0
    2.1804   -3.6068   -0.2232 H   0  0  0  0  0  0  0  0  0  0  0  0
    3.6522   -5.1330   -1.6283 H   0  0  0  0  0  0  0  0  0  0  0  0
    1.9138   -5.4132   -1.7687 H   0  0  0  0  0  0  0  0  0  0  0  0
    3.9483   -7.0643   -0.1429 H   0  0  0  0  0  0  0  0  0  0  0  0
    3.0432   -7.6167   -1.5713 H   0  0  0  0  0  0  0  0  0  0  0  0
    2.0061   -8.4848    0.5809 H   0  0  0  0  0  0  0  0  0  0  0  0
    0.8895   -7.4769   -0.4029 H   0  0  0  0  0  0  0  0  0  0  0  0
    2.1108   -6.7808    2.1579 H   0  0  0  0  0  0  0  0  0  0  0  0
    1.2454   -4.6238    1.9355 H   0  0  0  0  0  0  0  0  0  0  0  0
    0.4337   -5.1264    0.4206 H   0  0  0  0  0  0  0  0  0  0  0  0
    3.0914   -1.8343    1.1714 H   0  0  0  0  0  0  0  0  0  0  0  0
  1  2  1  0
  1 25  1  0
  1 26  1  0
  1 27  1  0
  2  3  2  0
  2 24  1  0
  3  4  1  0
  3 28  1  0
  4  5  2  0
  4 29  1  0
  5  6  1  0
  5 30  1  0
  6  7  1  0
  6 24  2  0
  7  8  2  0
  7 16  1  0
  8  9  1  0
  9 10  2  0
  9 15  1  0
 10 11  1  0
 10 31  1  0
 11 12  1  0
 11 13  2  0
 12 32  1  0
 12 33  1  0
 12 34  1  0
 13 14  1  0
 13 35  1  0
 14 15  2  0
 15 16  1  0
 16 17  1  0
 17 18  1  0
 17 36  1  0
 17 37  1  0
 18 19  1  0
 18 23  1  0
 18 38  1  6
 19 20  1  0
 19 39  1  0
 19 40  1  0
 20 21  1  0
 20 41  1  0
 20 42  1  0
 21 22  1  0
 21 43  1  0
 21 44  1  0
 22 23  1  0
 22 45  1  0
 23 46  1  0
 23 47  1  0
 24 48  1  0
M  END

