
     RDKit          3D

 33 35  0  0  0  0  0  0  0  0999 V2000
    4.4075    1.3343   -3.6990 N   0  0  0  0  0  0  0  0  0  0  0  0
    4.5855    1.0366   -2.5896 C   0  0  0  0  0  0  0  0  0  0  0  0
    4.8313    0.6563   -1.2384 C   0  0  0  0  0  0  0  0  0  0  0  0
    4.2556    1.3036   -0.0572 C   0  0  0  0  0  0  0  0  0  0  0  0
    3.2024    2.3367   -0.1443 C   0  0  0  0  0  0  0  0  0  0  0  0
    2.3014    2.4507   -1.2235 C   0  0  0  0  0  0  0  0  0  0  0  0
    1.3039    3.4191   -1.2216 C   0  0  0  0  0  0  0  0  0  0  0  0
    1.1789    4.3183   -0.1459 C   0  0  0  0  0  0  0  0  0  0  0  0
   -0.1207    5.5236   -0.2720 S   0  0  0  0  0  0  0  0  0  0  0  0
    0.0044    6.4657    1.2488 C   0  0  0  0  0  0  0  0  0  0  0  0
    0.7785    7.6348    1.2853 C   0  0  0  0  0  0  0  0  0  0  0  0
    0.8247    8.4025    2.4525 C   0  0  0  0  0  0  0  0  0  0  0  0
    0.0966    8.0103    3.5803 C   0  0  0  0  0  0  0  0  0  0  0  0
   -0.6812    6.8484    3.5418 C   0  0  0  0  0  0  0  0  0  0  0  0
   -0.7324    6.0770    2.3775 C   0  0  0  0  0  0  0  0  0  0  0  0
    2.0673    4.2098    0.9387 C   0  0  0  0  0  0  0  0  0  0  0  0
    3.0504    3.2280    0.9393 C   0  0  0  0  0  0  0  0  0  0  0  0
    4.6726    0.9956    1.1532 N   0  0  0  0  0  0  0  0  0  0  0  0
    5.6094    0.0490    1.4059 C   0  0  0  0  0  0  0  0  0  0  0  0
    6.2371   -0.3179    2.8934 S   0  0  0  0  0  0  0  0  0  0  0  0
    6.0637   -0.6820    0.2809 N   0  0  0  0  0  0  0  0  0  0  0  0
    6.7290   -1.4288    0.4687 H   0  0  0  0  0  0  0  0  0  0  0  0
    5.7299   -0.3694   -0.9804 C   0  0  0  0  0  0  0  0  0  0  0  0
    6.4881   -1.2874   -2.2227 Cl  0  0  0  0  0  0  0  0  0  0  0  0
    2.3504    1.7682   -2.0704 H   0  0  0  0  0  0  0  0  0  0  0  0
    0.6106    3.4777   -2.0643 H   0  0  0  0  0  0  0  0  0  0  0  0
    1.3401    7.9367    0.3987 H   0  0  0  0  0  0  0  0  0  0  0  0
    1.4299    9.3123    2.4790 H   0  0  0  0  0  0  0  0  0  0  0  0
    0.1330    8.6133    4.4910 H   0  0  0  0  0  0  0  0  0  0  0  0
   -1.2542    6.5418    4.4204 H   0  0  0  0  0  0  0  0  0  0  0  0
   -1.3423    5.1719    2.3371 H   0  0  0  0  0  0  0  0  0  0  0  0
    1.9881    4.8934    1.7847 H   0  0  0  0  0  0  0  0  0  0  0  0
    3.7293    3.1319    1.7874 H   0  0  0  0  0  0  0  0  0  0  0  0
  1  2  3  0
  2  3  1  0
  3  4  1  0
  3 23  2  0
  4  5  1  0
  4 18  2  0
  5  6  2  0
  5 17  1  0
  6  7  1  0
  6 25  1  0
  7  8  2  0
  7 26  1  0
  8  9  1  0
  8 16  1  0
  9 10  1  0
 10 11  2  0
 10 15  1  0
 11 12  1  0
 11 27  1  0
 12 13  2  0
 12 28  1  0
 13 14  1  0
 13 29  1  0
 14 15  2  0
 14 30  1  0
 15 31  1  0
 16 17  2  0
 16 32  1  0
 17 33  1  0
 18 19  1  0
 19 20  2  0
 19 21  1  0
 21 22  1  0
 21 23  1  0
 23 24  1  0
M  END

