
     RDKit          3D

 49 53  0  0  0  0  0  0  0  0999 V2000
    4.6789   -4.0487    3.0027 C   0  0  0  0  0  0  0  0  0  0  0  0
    5.2323   -3.0931    2.0685 N   0  0  0  0  0  0  0  0  0  0  0  0
    4.2198   -2.4199    1.2880 C   0  0  0  0  0  0  0  0  0  0  0  0
    6.1920   -2.2036    2.6470 C   0  0  0  0  0  0  0  0  0  0  0  0
    6.2632   -2.0355    3.8832 O   0  0  0  0  0  0  0  0  0  0  0  0
    7.1187   -1.6123    1.6981 C   0  0  0  0  0  0  0  0  0  0  0  0
    8.0461   -0.6225    2.1379 C   0  0  0  0  0  0  0  0  0  0  0  0
    8.9880   -0.0553    1.2864 C   0  0  0  0  0  0  0  0  0  0  0  0
    9.0922   -0.4541   -0.0627 C   0  0  0  0  0  0  0  0  0  0  0  0
    8.2313   -1.4819   -0.5139 C   0  0  0  0  0  0  0  0  0  0  0  0
    8.3302   -2.0124   -1.8641 C   0  0  0  0  0  0  0  0  0  0  0  0
    7.6626   -3.1638   -2.4452 C   0  0  0  0  0  0  0  0  0  0  0  0
    8.0100   -3.3752   -3.7230 N   0  0  0  0  0  0  0  0  0  0  0  0
    8.8292   -2.3731   -4.0065 C   0  0  0  0  0  0  0  0  0  0  0  0
    9.6744   -1.8056   -5.4008 S   0  0  0  0  0  0  0  0  0  0  0  0
   10.3984   -0.5347   -4.3153 C   0  0  0  0  0  0  0  0  0  0  0  0
   11.2199    0.3975   -4.8360 N   0  0  0  0  0  0  0  0  0  0  0  0
   11.9413    1.3555   -3.9798 C   0  0  0  0  0  0  0  0  0  0  0  0
   12.5717    2.4447   -4.8073 C   0  0  0  0  0  0  0  0  0  0  0  0
   13.9064    2.3464   -5.2292 C   0  0  0  0  0  0  0  0  0  0  0  0
   14.4909    3.3249   -6.0589 C   0  0  0  0  0  0  0  0  0  0  0  0
   13.6853    4.3757   -6.4590 C   0  0  0  0  0  0  0  0  0  0  0  0
   12.3564    4.4852   -6.0377 C   0  0  0  0  0  0  0  0  0  0  0  0
   11.7740    3.5472   -5.2055 C   0  0  0  0  0  0  0  0  0  0  0  0
   11.8019    5.6046   -6.5810 O   0  0  0  0  0  0  0  0  0  0  0  0
   12.8295    6.2517   -7.3287 C   0  0  0  0  0  0  0  0  0  0  0  0
   13.9939    5.4274   -7.2654 O   0  0  0  0  0  0  0  0  0  0  0  0
    9.9625   -0.5231   -3.0905 N   0  0  0  0  0  0  0  0  0  0  0  0
    9.0771   -1.5540   -2.9158 N   0  0  0  0  0  0  0  0  0  0  0  0
    7.2638   -2.0523    0.3447 C   0  0  0  0  0  0  0  0  0  0  0  0
    4.0530   -4.7738    2.4568 H   0  0  0  0  0  0  0  0  0  0  0  0
    4.0566   -3.5854    3.7972 H   0  0  0  0  0  0  0  0  0  0  0  0
    5.4836   -4.6043    3.5092 H   0  0  0  0  0  0  0  0  0  0  0  0
    3.5731   -1.7345    1.8831 H   0  0  0  0  0  0  0  0  0  0  0  0
    3.5436   -3.1515    0.8073 H   0  0  0  0  0  0  0  0  0  0  0  0
    4.6629   -1.8212    0.4717 H   0  0  0  0  0  0  0  0  0  0  0  0
    7.9917   -0.3214    3.1863 H   0  0  0  0  0  0  0  0  0  0  0  0
    9.6726    0.6982    1.6851 H   0  0  0  0  0  0  0  0  0  0  0  0
    9.8358   -0.0216   -0.7236 H   0  0  0  0  0  0  0  0  0  0  0  0
    6.9873   -3.8342   -1.9212 H   0  0  0  0  0  0  0  0  0  0  0  0
   11.5556    0.2854   -5.7872 H   0  0  0  0  0  0  0  0  0  0  0  0
   12.7034    0.8089   -3.3980 H   0  0  0  0  0  0  0  0  0  0  0  0
   11.2327    1.7876   -3.2607 H   0  0  0  0  0  0  0  0  0  0  0  0
   14.5221    1.5133   -4.8805 H   0  0  0  0  0  0  0  0  0  0  0  0
   15.5308    3.2610   -6.3826 H   0  0  0  0  0  0  0  0  0  0  0  0
   10.7353    3.6478   -4.8821 H   0  0  0  0  0  0  0  0  0  0  0  0
   13.0503    7.2358   -6.8787 H   0  0  0  0  0  0  0  0  0  0  0  0
   12.5140    6.3732   -8.3801 H   0  0  0  0  0  0  0  0  0  0  0  0
    6.6578   -2.9043    0.0401 H   0  0  0  0  0  0  0  0  0  0  0  0
  1  2  1  0
  1 31  1  0
  1 32  1  0
  1 33  1  0
  2  3  1  0
  2  4  1  0
  3 34  1  0
  3 35  1  0
  3 36  1  0
  4  5  2  0
  4  6  1  0
  6  7  2  0
  6 30  1  0
  7  8  1  0
  7 37  1  0
  8  9  2  0
  8 38  1  0
  9 10  1  0
  9 39  1  0
 10 11  1  0
 10 30  2  0
 11 12  2  0
 11 29  1  0
 12 13  1  0
 12 40  1  0
 13 14  2  0
 14 15  1  0
 14 29  1  0
 15 16  1  0
 16 17  1  0
 16 28  2  0
 17 18  1  0
 17 41  1  0
 18 19  1  0
 18 42  1  0
 18 43  1  0
 19 20  2  0
 19 24  1  0
 20 21  1  0
 20 44  1  0
 21 22  2  0
 21 45  1  0
 22 23  1  0
 22 27  1  0
 23 24  2  0
 23 25  1  0
 24 46  1  0
 25 26  1  0
 26 27  1  0
 26 47  1  0
 26 48  1  0
 28 29  1  0
 30 49  1  0
M  END

