
     RDKit          3D

 77 81  0  0  0  0  0  0  0  0999 V2000
   -0.7065    1.1703   -1.2818 C   0  0  0  0  0  0  0  0  0  0  0  0
   -0.5381    2.1233   -0.0889 C   0  0  1  0  0  0  0  0  0  0  0  0
    0.6297    3.0031   -0.2660 N   0  0  0  0  0  0  0  0  0  0  0  0
    1.8998    2.5644   -0.0419 C   0  0  0  0  0  0  0  0  0  0  0  0
    2.1485    1.3952    0.2167 O   0  0  0  0  0  0  0  0  0  0  0  0
    3.0116    3.6546   -0.1514 C   0  0  1  0  0  0  0  0  0  0  0  0
    2.7162    4.7254    0.9131 C   0  0  0  0  0  0  0  0  0  0  0  0
    2.6140    4.3296    2.2609 C   0  0  0  0  0  0  0  0  0  0  0  0
    2.3605    5.2581    3.2702 C   0  0  0  0  0  0  0  0  0  0  0  0
    2.1991    6.6125    2.9572 C   0  0  0  0  0  0  0  0  0  0  0  0
    2.2895    7.0202    1.6265 C   0  0  0  0  0  0  0  0  0  0  0  0
    2.5447    6.0860    0.6144 C   0  0  0  0  0  0  0  0  0  0  0  0
    4.4001    3.0162    0.1253 C   0  0  0  0  0  0  0  0  0  0  0  0
    4.8817    2.0535   -0.9654 C   0  0  0  0  0  0  0  0  0  0  0  0
    4.8217    2.6748   -2.2943 N   0  0  0  0  0  0  0  0  0  0  0  0
    5.9403    2.6937   -3.0781 C   0  0  0  0  0  0  0  0  0  0  0  0
    6.9984    2.1879   -2.7021 O   0  0  0  0  0  0  0  0  0  0  0  0
    5.8614    3.3123   -4.4825 C   0  0  1  0  0  0  0  0  0  0  0  0
    7.1728    4.0126   -4.8807 C   0  0  0  0  0  0  0  0  0  0  0  0
    8.3146    3.0076   -5.2279 C   0  0  0  0  0  0  0  0  0  0  0  0
    7.8329    2.0574   -6.1912 N   0  0  0  0  0  0  0  0  0  0  0  0
    8.1086    2.2346   -7.6119 C   0  0  0  0  0  0  0  0  0  0  0  0
    9.0836    1.4950   -8.2805 C   0  0  0  0  0  0  0  0  0  0  0  0
    9.2623    1.7278   -9.6369 C   0  0  0  0  0  0  0  0  0  0  0  0
    8.4379    2.7261  -10.2910 C   0  0  0  0  0  0  0  0  0  0  0  0
    8.5217    3.1007  -11.6941 C   0  0  0  0  0  0  0  0  0  0  0  0
    9.5648    2.5101  -12.4303 N   0  0  0  0  0  0  0  0  0  0  0  0
    7.7252    3.8643  -12.2557 O   0  0  0  0  0  0  0  0  0  0  0  0
    7.4590    3.3681   -9.4804 C   0  0  0  0  0  0  0  0  0  0  0  0
    7.2832    3.1541   -8.1915 N   0  0  0  0  0  0  0  0  0  0  0  0
    6.6971    1.2736   -5.7695 C   0  0  0  0  0  0  0  0  0  0  0  0
    5.4977    2.2358   -5.5277 C   0  0  0  0  0  0  0  0  0  0  0  0
    3.4963    3.1871   -2.6254 C   0  0  0  0  0  0  0  0  0  0  0  0
    3.0372    4.2232   -1.5924 C   0  0  0  0  0  0  0  0  0  0  0  0
   -1.7739    2.9679    0.1773 C   0  0  0  0  0  0  0  0  0  0  0  0
   -2.4652    2.8548    1.3921 C   0  0  0  0  0  0  0  0  0  0  0  0
   -3.6057    3.6238    1.6432 C   0  0  0  0  0  0  0  0  0  0  0  0
   -4.0689    4.5259    0.6819 C   0  0  0  0  0  0  0  0  0  0  0  0
   -3.3875    4.6506   -0.5330 C   0  0  0  0  0  0  0  0  0  0  0  0
   -2.2527    3.8751   -0.7838 C   0  0  0  0  0  0  0  0  0  0  0  0
    0.1988    0.5571   -1.3967 H   0  0  0  0  0  0  0  0  0  0  0  0
   -0.8829    1.7247   -2.2171 H   0  0  0  0  0  0  0  0  0  0  0  0
   -1.5625    0.4988   -1.1139 H   0  0  0  0  0  0  0  0  0  0  0  0
   -0.3390    1.5034    0.8004 H   0  0  0  0  0  0  0  0  0  0  0  0
    0.4615    4.0033   -0.2631 H   0  0  0  0  0  0  0  0  0  0  0  0
    2.7279    3.2744    2.5232 H   0  0  0  0  0  0  0  0  0  0  0  0
    2.2868    4.9223    4.3078 H   0  0  0  0  0  0  0  0  0  0  0  0
    2.0010    7.3419    3.7464 H   0  0  0  0  0  0  0  0  0  0  0  0
    2.1628    8.0741    1.3656 H   0  0  0  0  0  0  0  0  0  0  0  0
    2.6110    6.4426   -0.4143 H   0  0  0  0  0  0  0  0  0  0  0  0
    4.3758    2.4695    1.0779 H   0  0  0  0  0  0  0  0  0  0  0  0
    5.1283    3.8368    0.2346 H   0  0  0  0  0  0  0  0  0  0  0  0
    4.2515    1.1509   -0.9617 H   0  0  0  0  0  0  0  0  0  0  0  0
    5.9210    1.7554   -0.7872 H   0  0  0  0  0  0  0  0  0  0  0  0
    5.0784    4.0830   -4.5151 H   0  0  0  0  0  0  0  0  0  0  0  0
    7.5386    4.6640   -4.0735 H   0  0  0  0  0  0  0  0  0  0  0  0
    6.9905    4.6234   -5.7757 H   0  0  0  0  0  0  0  0  0  0  0  0
    8.5681    2.4784   -4.2946 H   0  0  0  0  0  0  0  0  0  0  0  0
    9.1804    3.5303   -5.6476 H   0  0  0  0  0  0  0  0  0  0  0  0
    9.6814    0.7448   -7.7556 H   0  0  0  0  0  0  0  0  0  0  0  0
    9.9763    1.1278  -10.2014 H   0  0  0  0  0  0  0  0  0  0  0  0
   10.4417    2.3665  -11.9376 H   0  0  0  0  0  0  0  0  0  0  0  0
    9.6859    2.9631  -13.3311 H   0  0  0  0  0  0  0  0  0  0  0  0
    6.8039    4.0987   -9.9663 H   0  0  0  0  0  0  0  0  0  0  0  0
    6.9481    0.7643   -4.8246 H   0  0  0  0  0  0  0  0  0  0  0  0
    6.4604    0.5441   -6.5515 H   0  0  0  0  0  0  0  0  0  0  0  0
    4.6328    1.6330   -5.2102 H   0  0  0  0  0  0  0  0  0  0  0  0
    5.2622    2.7152   -6.4880 H   0  0  0  0  0  0  0  0  0  0  0  0
    2.7852    2.3410   -2.6591 H   0  0  0  0  0  0  0  0  0  0  0  0
    3.4911    3.6371   -3.6239 H   0  0  0  0  0  0  0  0  0  0  0  0
    2.0492    4.6090   -1.8872 H   0  0  0  0  0  0  0  0  0  0  0  0
    3.7402    5.0709   -1.6285 H   0  0  0  0  0  0  0  0  0  0  0  0
   -2.1049    2.1554    2.1516 H   0  0  0  0  0  0  0  0  0  0  0  0
   -4.1317    3.5192    2.5955 H   0  0  0  0  0  0  0  0  0  0  0  0
   -4.9587    5.1295    0.8772 H   0  0  0  0  0  0  0  0  0  0  0  0
   -3.7451    5.3513   -1.2920 H   0  0  0  0  0  0  0  0  0  0  0  0
   -1.7383    3.9752   -1.7440 H   0  0  0  0  0  0  0  0  0  0  0  0
  1  2  1  0
  1 41  1  0
  1 42  1  0
  1 43  1  0
  2  3  1  0
  2 35  1  0
  2 44  1  1
  3  4  1  0
  3 45  1  0
  4  5  2  0
  6  4  1  6
  6  7  1  0
  6 13  1  0
  6 34  1  0
  7  8  2  0
  7 12  1  0
  8  9  1  0
  8 46  1  0
  9 10  2  0
  9 47  1  0
 10 11  1  0
 10 48  1  0
 11 12  2  0
 11 49  1  0
 12 50  1  0
 13 14  1  0
 13 51  1  0
 13 52  1  0
 14 15  1  0
 14 53  1  0
 14 54  1  0
 15 16  1  0
 15 33  1  0
 16 17  2  0
 16 18  1  0
 18 19  1  0
 18 32  1  0
 18 55  1  1
 19 20  1  0
 19 56  1  0
 19 57  1  0
 20 21  1  0
 20 58  1  0
 20 59  1  0
 21 22  1  0
 21 31  1  0
 22 23  2  0
 22 30  1  0
 23 24  1  0
 23 60  1  0
 24 25  2  0
 24 61  1  0
 25 26  1  0
 25 29  1  0
 26 27  1  0
 26 28  2  0
 27 62  1  0
 27 63  1  0
 29 30  2  0
 29 64  1  0
 31 32  1  0
 31 65  1  0
 31 66  1  0
 32 67  1  0
 32 68  1  0
 33 34  1  0
 33 69  1  0
 33 70  1  0
 34 71  1  0
 34 72  1  0
 35 36  2  0
 35 40  1  0
 36 37  1  0
 36 73  1  0
 37 38  2  0
 37 74  1  0
 38 39  1  0
 38 75  1  0
 39 40  2  0
 39 76  1  0
 40 77  1  0
M  END

