
     RDKit          3D

 40 41  0  0  0  0  0  0  0  0999 V2000
    2.1089   -1.3355    2.5298 C   0  0  0  0  0  0  0  0  0  0  0  0
    3.1453   -0.4677    1.8078 C   0  0  0  0  0  0  0  0  0  0  0  0
    2.8004   -0.0286    0.3670 C   0  0  1  0  0  0  0  0  0  0  0  0
    1.4554    0.7375    0.4809 N   0  0  0  0  0  0  0  0  0  0  0  0
    0.9487    1.8101   -0.1244 C   0  0  0  0  0  0  0  0  0  0  0  0
    1.6001    2.5136   -1.2007 C   0  0  0  0  0  0  0  0  0  0  0  0
    1.0021    3.6152   -1.7665 C   0  0  0  0  0  0  0  0  0  0  0  0
   -0.2565    4.0954   -1.3264 C   0  0  0  0  0  0  0  0  0  0  0  0
   -0.8802    5.1525   -1.8271 O   0  0  0  0  0  0  0  0  0  0  0  0
   -0.2933    5.9176   -2.8768 C   0  0  0  0  0  0  0  0  0  0  0  0
   -0.9194    3.3940   -0.2660 C   0  0  0  0  0  0  0  0  0  0  0  0
   -2.4644    3.9632    0.2746 Cl  0  0  0  0  0  0  0  0  0  0  0  0
   -0.3373    2.2942    0.3112 C   0  0  0  0  0  0  0  0  0  0  0  0
    3.8953    0.6422   -0.3746 C   0  0  0  0  0  0  0  0  0  0  0  0
    4.0873    0.3783   -1.7993 C   0  0  0  0  0  0  0  0  0  0  0  0
    5.0322    1.0942   -2.5243 C   0  0  0  0  0  0  0  0  0  0  0  0
    5.8361    2.1042   -1.9561 C   0  0  0  0  0  0  0  0  0  0  0  0
    6.8596    2.8714   -2.7390 C   0  0  0  0  0  0  0  0  0  0  0  0
    5.6437    2.3645   -0.5381 C   0  0  0  0  0  0  0  0  0  0  0  0
    4.7159    1.6591    0.1995 C   0  0  0  0  0  0  0  0  0  0  0  0
    2.5101   -1.7034    3.4874 H   0  0  0  0  0  0  0  0  0  0  0  0
    1.8284   -2.2184    1.9308 H   0  0  0  0  0  0  0  0  0  0  0  0
    1.1784   -0.7947    2.7835 H   0  0  0  0  0  0  0  0  0  0  0  0
    4.0861   -1.0296    1.7161 H   0  0  0  0  0  0  0  0  0  0  0  0
    3.3821    0.4208    2.4162 H   0  0  0  0  0  0  0  0  0  0  0  0
    2.4932   -0.9349   -0.1870 H   0  0  0  0  0  0  0  0  0  0  0  0
    0.8324    0.3336    1.1788 H   0  0  0  0  0  0  0  0  0  0  0  0
    2.5564    2.1530   -1.5700 H   0  0  0  0  0  0  0  0  0  0  0  0
    1.5200    4.1229   -2.5792 H   0  0  0  0  0  0  0  0  0  0  0  0
   -1.0020    6.7261   -3.0900 H   0  0  0  0  0  0  0  0  0  0  0  0
   -0.1518    5.3035   -3.7797 H   0  0  0  0  0  0  0  0  0  0  0  0
    0.6709    6.3447   -2.5607 H   0  0  0  0  0  0  0  0  0  0  0  0
   -0.8590    1.7839    1.1225 H   0  0  0  0  0  0  0  0  0  0  0  0
    3.5173   -0.4190   -2.2868 H   0  0  0  0  0  0  0  0  0  0  0  0
    5.1706    0.8525   -3.5857 H   0  0  0  0  0  0  0  0  0  0  0  0
    6.8906    2.5455   -3.7921 H   0  0  0  0  0  0  0  0  0  0  0  0
    7.8870    2.7517   -2.3345 H   0  0  0  0  0  0  0  0  0  0  0  0
    6.6728    3.9667   -2.7446 H   0  0  0  0  0  0  0  0  0  0  0  0
    6.2638    3.1187   -0.0436 H   0  0  0  0  0  0  0  0  0  0  0  0
    4.6152    1.8987    1.2643 H   0  0  0  0  0  0  0  0  0  0  0  0
  1  2  1  0
  1 21  1  0
  1 22  1  0
  1 23  1  0
  2  3  1  0
  2 24  1  0
  2 25  1  0
  3  4  1  0
  3 14  1  0
  3 26  1  6
  4  5  1  0
  4 27  1  0
  5  6  2  0
  5 13  1  0
  6  7  1  0
  6 28  1  0
  7  8  2  0
  7 29  1  0
  8  9  1  0
  8 11  1  0
  9 10  1  0
 10 30  1  0
 10 31  1  0
 10 32  1  0
 11 12  1  0
 11 13  2  0
 13 33  1  0
 14 15  2  0
 14 20  1  0
 15 16  1  0
 15 34  1  0
 16 17  2  0
 16 35  1  0
 17 18  1  0
 17 19  1  0
 18 36  1  0
 18 37  1  0
 18 38  1  0
 19 20  2  0
 19 39  1  0
 20 40  1  0
M  END

