
     RDKit          3D

 33 35  0  0  0  0  0  0  0  0999 V2000
    0.6928    0.0052    1.7759 C   0  0  0  0  0  0  0  0  0  0  0  0
    1.3703    0.4240    0.4907 C   0  0  0  0  0  0  0  0  0  0  0  0
    1.7393    1.7453    0.2267 C   0  0  0  0  0  0  0  0  0  0  0  0
    2.4282    2.1136   -1.0516 C   0  0  1  0  0  0  0  0  0  0  0  0
    2.2984    3.1902   -1.2428 H   0  0  0  0  0  0  0  0  0  0  0  0
    3.9392    1.7140   -1.1015 C   0  0  2  0  0  0  0  0  0  0  0  0
    4.4519    1.9679   -0.1632 H   0  0  0  0  0  0  0  0  0  0  0  0
    4.5996    2.4461   -2.2879 C   0  0  0  0  0  0  0  0  0  0  0  0
    3.5777    2.5915   -3.4275 C   0  0  0  0  0  0  0  0  0  0  0  0
    2.6407    1.5252   -3.4398 O   0  0  0  0  0  0  0  0  0  0  0  0
    1.9115    1.2516   -2.2311 C   0  0  2  0  0  0  0  0  0  0  0  0
    0.4321    1.3523   -2.5662 C   0  0  0  0  0  0  0  0  0  0  0  0
    2.4460   -0.1658   -1.7813 C   0  0  1  0  0  0  0  0  0  0  0  0
    2.3660   -1.2448   -2.8576 C   0  0  0  0  0  0  0  0  0  0  0  0
    3.8955    0.1710   -1.3177 C   0  0  0  0  0  0  0  0  0  0  0  0
    1.6329   -0.5625   -0.4692 C   0  0  0  0  0  0  0  0  0  0  0  0
    1.3830   -1.8047   -0.4090 O   0  0  0  0  0  0  0  0  0  0  0  0
    1.3025   -0.7228    2.3379 H   0  0  0  0  0  0  0  0  0  0  0  0
   -0.2818   -0.4748    1.5840 H   0  0  0  0  0  0  0  0  0  0  0  0
    0.5207    0.8755    2.4257 H   0  0  0  0  0  0  0  0  0  0  0  0
    1.5473    2.5202    0.9699 H   0  0  0  0  0  0  0  0  0  0  0  0
    5.4923    1.8935   -2.6233 H   0  0  0  0  0  0  0  0  0  0  0  0
    4.9425    3.4488   -1.9820 H   0  0  0  0  0  0  0  0  0  0  0  0
    4.0592    2.5751   -4.4165 H   0  0  0  0  0  0  0  0  0  0  0  0
    3.0431    3.5565   -3.3454 H   0  0  0  0  0  0  0  0  0  0  0  0
    0.1948    2.3854   -2.8652 H   0  0  0  0  0  0  0  0  0  0  0  0
   -0.2023    1.0810   -1.7129 H   0  0  0  0  0  0  0  0  0  0  0  0
    0.1927    0.6964   -3.4165 H   0  0  0  0  0  0  0  0  0  0  0  0
    2.8576   -0.8757   -3.7674 H   0  0  0  0  0  0  0  0  0  0  0  0
    1.3247   -1.5021   -3.1004 H   0  0  0  0  0  0  0  0  0  0  0  0
    2.8686   -2.1655   -2.5282 H   0  0  0  0  0  0  0  0  0  0  0  0
    4.6167   -0.1477   -2.0871 H   0  0  0  0  0  0  0  0  0  0  0  0
    4.1497   -0.3796   -0.4011 H   0  0  0  0  0  0  0  0  0  0  0  0
  1  2  1  0
  1 18  1  0
  1 19  1  0
  1 20  1  0
  2  3  2  0
  2 16  1  0
  3  4  1  0
  3 21  1  0
  4  5  1  6
  4  6  1  0
  4 11  1  0
  6  7  1  1
  6  8  1  0
  6 15  1  0
  8  9  1  0
  8 22  1  0
  8 23  1  0
  9 10  1  0
  9 24  1  0
  9 25  1  0
 10 11  1  0
 11 12  1  6
 11 13  1  0
 12 26  1  0
 12 27  1  0
 12 28  1  0
 13 14  1  6
 13 15  1  0
 13 16  1  0
 14 29  1  0
 14 30  1  0
 14 31  1  0
 15 32  1  0
 15 33  1  0
 16 17  2  0
M  END

