
     RDKit          3D

 55 59  0  0  0  0  0  0  0  0999 V2000
    5.2256    0.4265   -0.6279 C   0  0  0  0  0  0  0  0  0  0  0  0
    3.7623    0.1237   -0.6947 C   0  0  0  0  0  0  0  0  0  0  0  0
    2.7023    0.9192   -0.3318 C   0  0  0  0  0  0  0  0  0  0  0  0
    2.6843    2.2940    0.2257 C   0  0  0  0  0  0  0  0  0  0  0  0
    3.7239    2.9132    0.4399 O   0  0  0  0  0  0  0  0  0  0  0  0
    1.4742    2.8511    0.4968 N   0  0  0  0  0  0  0  0  0  0  0  0
    1.2532    4.1954    1.0149 C   0  0  0  0  0  0  0  0  0  0  0  0
   -0.2799    3.9202    0.9846 C   0  0  1  0  0  0  0  0  0  0  0  0
   -1.0126    3.9226    2.3278 C   0  0  0  0  0  0  0  0  0  0  0  0
   -2.5160    3.9171    2.0328 C   0  0  2  0  0  0  0  0  0  0  0  0
   -3.1064    4.1288    2.9415 H   0  0  0  0  0  0  0  0  0  0  0  0
   -2.9201    2.6633    1.4772 O   0  0  0  0  0  0  0  0  0  0  0  0
   -3.2872    1.6813    2.4306 C   0  0  0  0  0  0  0  0  0  0  0  0
   -4.6647    1.9653    3.0512 C   0  0  0  0  0  0  0  0  0  0  0  0
   -4.7658    2.3679    4.2045 O   0  0  0  0  0  0  0  0  0  0  0  0
   -5.7452    1.7872    2.2457 N   0  0  0  0  0  0  0  0  0  0  0  0
   -7.0968    2.0835    2.7366 C   0  0  0  0  0  0  0  0  0  0  0  0
   -8.0068    1.5727    1.6125 C   0  0  0  0  0  0  0  0  0  0  0  0
   -7.1420    1.7399    0.3536 C   0  0  0  0  0  0  0  0  0  0  0  0
   -5.7393    1.3548    0.8415 C   0  0  0  0  0  0  0  0  0  0  0  0
   -2.7494    5.0064    0.9826 C   0  0  0  0  0  0  0  0  0  0  0  0
   -1.2517    5.0577   -0.0960 S   0  0  0  0  0  0  0  0  0  0  0  0
    0.0492    2.5206    0.3728 C   0  0  0  0  0  0  0  0  0  0  0  0
    1.4924    0.2848   -0.5428 O   0  0  0  0  0  0  0  0  0  0  0  0
    1.7743   -0.9414   -1.0512 C   0  0  0  0  0  0  0  0  0  0  0  0
    0.8509   -1.9212   -1.4127 C   0  0  0  0  0  0  0  0  0  0  0  0
    1.3726   -3.1145   -1.9144 C   0  0  0  0  0  0  0  0  0  0  0  0
    2.7641   -3.3108   -2.0461 C   0  0  0  0  0  0  0  0  0  0  0  0
    3.6709   -2.3187   -1.6799 C   0  0  0  0  0  0  0  0  0  0  0  0
    3.1683   -1.1070   -1.1712 C   0  0  0  0  0  0  0  0  0  0  0  0
    5.3946    1.4321   -0.2265 H   0  0  0  0  0  0  0  0  0  0  0  0
    5.6820    0.3584   -1.6302 H   0  0  0  0  0  0  0  0  0  0  0  0
    5.7449   -0.3078    0.0111 H   0  0  0  0  0  0  0  0  0  0  0  0
    1.6048    4.9955    0.3424 H   0  0  0  0  0  0  0  0  0  0  0  0
    1.6817    4.3694    2.0171 H   0  0  0  0  0  0  0  0  0  0  0  0
   -0.7613    4.8423    2.8829 H   0  0  0  0  0  0  0  0  0  0  0  0
   -0.7084    3.0688    2.9548 H   0  0  0  0  0  0  0  0  0  0  0  0
   -2.5735    1.6299    3.2700 H   0  0  0  0  0  0  0  0  0  0  0  0
   -3.2744    0.7146    1.9037 H   0  0  0  0  0  0  0  0  0  0  0  0
   -7.2107    3.1704    2.9015 H   0  0  0  0  0  0  0  0  0  0  0  0
   -7.2703    1.5967    3.7082 H   0  0  0  0  0  0  0  0  0  0  0  0
   -8.9611    2.1172    1.5621 H   0  0  0  0  0  0  0  0  0  0  0  0
   -8.2415    0.5064    1.7697 H   0  0  0  0  0  0  0  0  0  0  0  0
   -7.1485    2.7931    0.0261 H   0  0  0  0  0  0  0  0  0  0  0  0
   -7.4764    1.1253   -0.4952 H   0  0  0  0  0  0  0  0  0  0  0  0
   -4.9343    1.8493    0.2807 H   0  0  0  0  0  0  0  0  0  0  0  0
   -5.5864    0.2610    0.7655 H   0  0  0  0  0  0  0  0  0  0  0  0
   -2.8826    5.9855    1.4663 H   0  0  0  0  0  0  0  0  0  0  0  0
   -3.6420    4.7815    0.3832 H   0  0  0  0  0  0  0  0  0  0  0  0
   -0.2969    2.3837   -0.6624 H   0  0  0  0  0  0  0  0  0  0  0  0
   -0.2712    1.6559    0.9732 H   0  0  0  0  0  0  0  0  0  0  0  0
   -0.2227   -1.7557   -1.3070 H   0  0  0  0  0  0  0  0  0  0  0  0
    0.6891   -3.9136   -2.2119 H   0  0  0  0  0  0  0  0  0  0  0  0
    3.1322   -4.2597   -2.4436 H   0  0  0  0  0  0  0  0  0  0  0  0
    4.7468   -2.4780   -1.7846 H   0  0  0  0  0  0  0  0  0  0  0  0
  1  2  1  0
  1 31  1  0
  1 32  1  0
  1 33  1  0
  2  3  2  0
  2 30  1  0
  3  4  1  0
  3 24  1  0
  4  5  2  0
  4  6  1  0
  6  7  1  0
  6 23  1  0
  7  8  1  0
  7 34  1  0
  7 35  1  0
  8  9  1  0
  8 22  1  6
  8 23  1  0
  9 10  1  0
  9 36  1  0
  9 37  1  0
 10 11  1  1
 10 12  1  0
 10 21  1  0
 12 13  1  0
 13 14  1  0
 13 38  1  0
 13 39  1  0
 14 15  2  0
 14 16  1  0
 16 17  1  0
 16 20  1  0
 17 18  1  0
 17 40  1  0
 17 41  1  0
 18 19  1  0
 18 42  1  0
 18 43  1  0
 19 20  1  0
 19 44  1  0
 19 45  1  0
 20 46  1  0
 20 47  1  0
 21 22  1  0
 21 48  1  0
 21 49  1  0
 23 50  1  0
 23 51  1  0
 24 25  1  0
 25 26  1  0
 25 30  2  0
 26 27  2  0
 26 52  1  0
 27 28  1  0
 27 53  1  0
 28 29  2  0
 28 54  1  0
 29 30  1  0
 29 55  1  0
M  END

