
     RDKit          3D

 31 32  0  0  0  0  0  0  0  0999 V2000
    0.7245   -0.0581    0.0850 C   0  0  0  0  0  0  0  0  0  0  0  0
    2.2298   -0.0649    0.0227 C   0  0  0  0  0  0  0  0  0  0  0  0
    2.9319   -1.2683   -0.0709 C   0  0  0  0  0  0  0  0  0  0  0  0
    4.2629   -1.1816   -0.1220 N   0  0  0  0  0  0  0  0  0  0  0  0
    5.1044   -0.1511   -0.1024 C   0  0  0  0  0  0  0  0  0  0  0  0
    6.5076   -0.2052   -0.1638 C   0  0  0  0  0  0  0  0  0  0  0  0
    7.2525    0.9867   -0.1285 C   0  0  0  0  0  0  0  0  0  0  0  0
    6.6360    2.2387   -0.0339 C   0  0  0  0  0  0  0  0  0  0  0  0
    7.4470    3.5259   -0.0126 C   0  0  1  0  0  0  0  0  0  0  0  0
    8.4349    3.5951    1.1621 C   0  0  0  0  0  0  0  0  0  0  0  0
    8.1525    3.7612   -1.3666 C   0  0  0  0  0  0  0  0  0  0  0  0
    8.7927    5.0730   -1.4170 N   0  0  0  0  0  0  0  0  0  0  0  0
    5.2277    2.2866    0.0248 C   0  0  0  0  0  0  0  0  0  0  0  0
    4.4128    1.1372   -0.0038 C   0  0  0  0  0  0  0  0  0  0  0  0
    2.9890    1.1261    0.0554 C   0  0  0  0  0  0  0  0  0  0  0  0
    0.3083   -1.0756    0.0531 H   0  0  0  0  0  0  0  0  0  0  0  0
    0.2968    0.5094   -0.7591 H   0  0  0  0  0  0  0  0  0  0  0  0
    0.3699    0.4243    1.0118 H   0  0  0  0  0  0  0  0  0  0  0  0
    2.4694   -2.2569   -0.1038 H   0  0  0  0  0  0  0  0  0  0  0  0
    6.9982   -1.1760   -0.2355 H   0  0  0  0  0  0  0  0  0  0  0  0
    8.3421    0.9153   -0.1727 H   0  0  0  0  0  0  0  0  0  0  0  0
    6.7262    4.3556    0.1115 H   0  0  0  0  0  0  0  0  0  0  0  0
    9.1645    2.7696    1.1189 H   0  0  0  0  0  0  0  0  0  0  0  0
    7.9088    3.5258    2.1270 H   0  0  0  0  0  0  0  0  0  0  0  0
    8.9981    4.5388    1.1249 H   0  0  0  0  0  0  0  0  0  0  0  0
    7.4128    3.5868   -2.1765 H   0  0  0  0  0  0  0  0  0  0  0  0
    8.9365    2.9949   -1.4982 H   0  0  0  0  0  0  0  0  0  0  0  0
    8.0863    5.8087   -1.4681 H   0  0  0  0  0  0  0  0  0  0  0  0
    9.3580    5.1637   -2.2607 H   0  0  0  0  0  0  0  0  0  0  0  0
    4.7237    3.2546    0.1004 H   0  0  0  0  0  0  0  0  0  0  0  0
    2.4709    2.0854    0.1297 H   0  0  0  0  0  0  0  0  0  0  0  0
  1  2  1  0
  1 16  1  0
  1 17  1  0
  1 18  1  0
  2  3  2  0
  2 15  1  0
  3  4  1  0
  3 19  1  0
  4  5  2  0
  5  6  1  0
  5 14  1  0
  6  7  2  0
  6 20  1  0
  7  8  1  0
  7 21  1  0
  8  9  1  0
  8 13  2  0
  9 10  1  0
  9 11  1  0
  9 22  1  1
 10 23  1  0
 10 24  1  0
 10 25  1  0
 11 12  1  0
 11 26  1  0
 11 27  1  0
 12 28  1  0
 12 29  1  0
 13 14  1  0
 13 30  1  0
 14 15  2  0
 15 31  1  0
M  END

