
     RDKit          3D

 62 66  0  0  0  0  0  0  0  0999 V2000
    9.7229    5.0801    2.6590 O   0  0  0  0  0  0  0  0  0  0  0  0
    9.1746    4.0790    1.9362 C   0  0  0  0  0  0  0  0  0  0  0  0
    9.8831    2.9127    1.6060 C   0  0  0  0  0  0  0  0  0  0  0  0
    9.2642    1.9180    0.8579 C   0  0  0  0  0  0  0  0  0  0  0  0
    7.9227    2.0352    0.4623 C   0  0  0  0  0  0  0  0  0  0  0  0
    7.2559    0.9040   -0.2753 C   0  0  0  0  0  0  0  0  0  0  0  0
    7.0684   -0.3377    0.4869 N   0  0  0  0  0  0  0  0  0  0  0  0
    7.4483   -0.4360    1.8896 C   0  0  0  0  0  0  0  0  0  0  0  0
    6.7945   -1.5962    2.6375 C   0  0  0  0  0  0  0  0  0  0  0  0
    6.7581   -2.9085    1.8433 C   0  0  2  0  0  0  0  0  0  0  0  0
    8.0657   -3.4715    1.5677 N   0  0  0  0  0  0  0  0  0  0  0  0
    8.1491   -4.9203    1.3249 C   0  0  0  0  0  0  0  0  0  0  0  0
    9.5015   -4.9886    2.0846 C   0  0  2  0  0  0  0  0  0  0  0  0
   10.7188   -5.1182    1.1572 C   0  0  0  0  0  0  0  0  0  0  0  0
   10.9393   -6.5550    0.6595 C   0  0  0  0  0  0  0  0  0  0  0  0
   11.0413   -7.5543    1.8169 C   0  0  0  0  0  0  0  0  0  0  0  0
    9.8106   -7.4585    2.7242 C   0  0  0  0  0  0  0  0  0  0  0  0
    9.5921   -6.0226    3.2167 C   0  0  0  0  0  0  0  0  0  0  0  0
    9.1760   -3.5249    2.6047 C   0  0  1  0  0  0  0  0  0  0  0  0
   10.1529   -2.4063    2.6628 C   0  0  0  0  0  0  0  0  0  0  0  0
   10.8226   -1.8467    1.5052 C   0  0  0  0  0  0  0  0  0  0  0  0
   11.5384   -0.6703    1.6055 C   0  0  0  0  0  0  0  0  0  0  0  0
   11.6695    0.1023    2.7263 N   0  0  0  0  0  0  0  0  0  0  0  0
   11.0439   -0.4304    3.8306 C   0  0  0  0  0  0  0  0  0  0  0  0
   10.3208   -1.6062    3.8493 C   0  0  0  0  0  0  0  0  0  0  0  0
    6.0331   -2.6100    0.5167 C   0  0  0  0  0  0  0  0  0  0  0  0
    6.8114   -1.5539   -0.2695 C   0  0  0  0  0  0  0  0  0  0  0  0
    7.2235    3.2051    0.7973 C   0  0  0  0  0  0  0  0  0  0  0  0
    7.8425    4.2273    1.5153 C   0  0  0  0  0  0  0  0  0  0  0  0
   10.6280    4.8422    2.9044 H   0  0  0  0  0  0  0  0  0  0  0  0
   10.9008    2.7342    1.9657 H   0  0  0  0  0  0  0  0  0  0  0  0
    9.8404    1.0194    0.6283 H   0  0  0  0  0  0  0  0  0  0  0  0
    7.8211    0.6169   -1.1793 H   0  0  0  0  0  0  0  0  0  0  0  0
    6.2504    1.1946   -0.6320 H   0  0  0  0  0  0  0  0  0  0  0  0
    7.2432    0.5348    2.3597 H   0  0  0  0  0  0  0  0  0  0  0  0
    8.5425   -0.5587    1.8932 H   0  0  0  0  0  0  0  0  0  0  0  0
    5.7558   -1.3309    2.8971 H   0  0  0  0  0  0  0  0  0  0  0  0
    7.3380   -1.7102    3.5832 H   0  0  0  0  0  0  0  0  0  0  0  0
    6.1293   -3.6207    2.4253 H   0  0  0  0  0  0  0  0  0  0  0  0
    8.1590   -5.2197    0.2605 H   0  0  0  0  0  0  0  0  0  0  0  0
    7.3387   -5.4891    1.8297 H   0  0  0  0  0  0  0  0  0  0  0  0
   11.6117   -4.7722    1.7051 H   0  0  0  0  0  0  0  0  0  0  0  0
   10.6094   -4.4420    0.2961 H   0  0  0  0  0  0  0  0  0  0  0  0
   11.8467   -6.5968    0.0329 H   0  0  0  0  0  0  0  0  0  0  0  0
   10.1003   -6.8528    0.0024 H   0  0  0  0  0  0  0  0  0  0  0  0
   11.9477   -7.3324    2.4100 H   0  0  0  0  0  0  0  0  0  0  0  0
   11.1625   -8.5820    1.4335 H   0  0  0  0  0  0  0  0  0  0  0  0
    9.9085   -8.1431    3.5843 H   0  0  0  0  0  0  0  0  0  0  0  0
    8.9185   -7.7955    2.1629 H   0  0  0  0  0  0  0  0  0  0  0  0
   10.4349   -5.7290    3.8700 H   0  0  0  0  0  0  0  0  0  0  0  0
    8.6850   -5.9702    3.8434 H   0  0  0  0  0  0  0  0  0  0  0  0
    8.7356   -3.6430    3.6167 H   0  0  0  0  0  0  0  0  0  0  0  0
   10.7899   -2.3522    0.5380 H   0  0  0  0  0  0  0  0  0  0  0  0
   12.0640   -0.2993    0.7133 H   0  0  0  0  0  0  0  0  0  0  0  0
   11.1518    0.1434    4.7604 H   0  0  0  0  0  0  0  0  0  0  0  0
    9.8747   -1.9349    4.7958 H   0  0  0  0  0  0  0  0  0  0  0  0
    4.9996   -2.2724    0.7042 H   0  0  0  0  0  0  0  0  0  0  0  0
    5.9683   -3.5110   -0.1111 H   0  0  0  0  0  0  0  0  0  0  0  0
    6.3277   -1.2759   -1.2174 H   0  0  0  0  0  0  0  0  0  0  0  0
    7.8113   -1.9721   -0.4894 H   0  0  0  0  0  0  0  0  0  0  0  0
    6.1779    3.3250    0.4971 H   0  0  0  0  0  0  0  0  0  0  0  0
    7.3063    5.1415    1.7767 H   0  0  0  0  0  0  0  0  0  0  0  0
  1  2  1  0
  1 30  1  0
  2  3  2  0
  2 29  1  0
  3  4  1  0
  3 31  1  0
  4  5  2  0
  4 32  1  0
  5  6  1  0
  5 28  1  0
  6  7  1  0
  6 33  1  0
  6 34  1  0
  7  8  1  0
  7 27  1  0
  8  9  1  0
  8 35  1  0
  8 36  1  0
  9 10  1  0
  9 37  1  0
  9 38  1  0
 10 11  1  0
 10 26  1  0
 10 39  1  1
 11 12  1  0
 11 19  1  0
 13 12  1  6
 12 40  1  0
 12 41  1  0
 13 14  1  0
 13 18  1  0
 13 19  1  0
 14 15  1  0
 14 42  1  0
 14 43  1  0
 15 16  1  0
 15 44  1  0
 15 45  1  0
 16 17  1  0
 16 46  1  0
 16 47  1  0
 17 18  1  0
 17 48  1  0
 17 49  1  0
 18 50  1  0
 18 51  1  0
 19 20  1  0
 19 52  1  1
 20 21  2  0
 20 25  1  0
 21 22  1  0
 21 53  1  0
 22 23  2  0
 22 54  1  0
 23 24  1  0
 24 25  2  0
 24 55  1  0
 25 56  1  0
 26 27  1  0
 26 57  1  0
 26 58  1  0
 27 59  1  0
 27 60  1  0
 28 29  2  0
 28 61  1  0
 29 62  1  0
M  END

