
     RDKit          3D

 43 44  0  0  0  0  0  0  0  0999 V2000
    2.2455    0.6875    0.8132 O   0  0  0  0  0  0  0  0  0  0  0  0
    1.7050   -0.2490    0.2471 C   0  0  0  0  0  0  0  0  0  0  0  0
    2.5124   -1.4602   -0.2444 C   0  0  0  0  0  0  0  0  0  0  0  0
    1.8324   -2.2819   -1.2379 N   0  0  0  0  0  0  0  0  0  0  0  0
    1.9210   -1.6675   -2.5637 C   0  0  0  0  0  0  0  0  0  0  0  0
    1.0688   -2.3018   -3.6686 C   0  0  0  0  0  0  0  0  0  0  0  0
    1.5610   -3.6715   -4.1589 C   0  0  0  0  0  0  0  0  0  0  0  0
    1.1671   -4.8788   -3.2890 C   0  0  0  0  0  0  0  0  0  0  0  0
    1.1235   -4.6342   -1.7692 C   0  0  0  0  0  0  0  0  0  0  0  0
    2.1919   -3.7030   -1.1775 C   0  0  0  0  0  0  0  0  0  0  0  0
    0.3648   -0.3465    0.0400 N   0  0  0  0  0  0  0  0  0  0  0  0
   -0.5718    0.6499    0.5156 C   0  0  0  0  0  0  0  0  0  0  0  0
   -1.0537    0.4012    1.9614 C   0  0  0  0  0  0  0  0  0  0  0  0
   -2.0151    1.4637    2.4429 C   0  0  0  0  0  0  0  0  0  0  0  0
   -3.4043    1.2747    2.3689 C   0  0  0  0  0  0  0  0  0  0  0  0
   -4.2905    2.2763    2.7765 C   0  0  0  0  0  0  0  0  0  0  0  0
   -3.7997    3.4906    3.2644 C   0  0  0  0  0  0  0  0  0  0  0  0
   -2.4182    3.6936    3.3431 C   0  0  0  0  0  0  0  0  0  0  0  0
   -1.5362    2.6894    2.9359 C   0  0  0  0  0  0  0  0  0  0  0  0
    2.7149   -2.0674    0.6530 H   0  0  0  0  0  0  0  0  0  0  0  0
    3.4946   -1.0693   -0.5802 H   0  0  0  0  0  0  0  0  0  0  0  0
    2.9811   -1.6442   -2.9099 H   0  0  0  0  0  0  0  0  0  0  0  0
    1.6145   -0.6154   -2.4507 H   0  0  0  0  0  0  0  0  0  0  0  0
    1.0937   -1.5988   -4.5183 H   0  0  0  0  0  0  0  0  0  0  0  0
    0.0133   -2.3531   -3.3474 H   0  0  0  0  0  0  0  0  0  0  0  0
    2.6607   -3.6215   -4.2493 H   0  0  0  0  0  0  0  0  0  0  0  0
    1.1933   -3.8469   -5.1838 H   0  0  0  0  0  0  0  0  0  0  0  0
    1.8663   -5.7042   -3.5086 H   0  0  0  0  0  0  0  0  0  0  0  0
    0.1739   -5.2470   -3.5995 H   0  0  0  0  0  0  0  0  0  0  0  0
    1.1956   -5.6111   -1.2620 H   0  0  0  0  0  0  0  0  0  0  0  0
    0.1449   -4.2168   -1.4790 H   0  0  0  0  0  0  0  0  0  0  0  0
    3.1840   -3.8999   -1.6445 H   0  0  0  0  0  0  0  0  0  0  0  0
    2.3051   -3.9535   -0.1119 H   0  0  0  0  0  0  0  0  0  0  0  0
    0.0514   -1.2042   -0.4076 H   0  0  0  0  0  0  0  0  0  0  0  0
   -1.4358    0.6839   -0.1677 H   0  0  0  0  0  0  0  0  0  0  0  0
   -0.0715    1.6289    0.4690 H   0  0  0  0  0  0  0  0  0  0  0  0
   -0.1643    0.3724    2.6110 H   0  0  0  0  0  0  0  0  0  0  0  0
   -1.5294   -0.5923    2.0155 H   0  0  0  0  0  0  0  0  0  0  0  0
   -3.7978    0.3251    1.9931 H   0  0  0  0  0  0  0  0  0  0  0  0
   -5.3688    2.1057    2.7157 H   0  0  0  0  0  0  0  0  0  0  0  0
   -4.4905    4.2744    3.5858 H   0  0  0  0  0  0  0  0  0  0  0  0
   -2.0247    4.6384    3.7277 H   0  0  0  0  0  0  0  0  0  0  0  0
   -0.4566    2.8543    3.0043 H   0  0  0  0  0  0  0  0  0  0  0  0
  1  2  2  0
  2  3  1  0
  2 11  1  0
  3  4  1  0
  3 20  1  0
  3 21  1  0
  4  5  1  0
  4 10  1  0
  5  6  1  0
  5 22  1  0
  5 23  1  0
  6  7  1  0
  6 24  1  0
  6 25  1  0
  7  8  1  0
  7 26  1  0
  7 27  1  0
  8  9  1  0
  8 28  1  0
  8 29  1  0
  9 10  1  0
  9 30  1  0
  9 31  1  0
 10 32  1  0
 10 33  1  0
 11 12  1  0
 11 34  1  0
 12 13  1  0
 12 35  1  0
 12 36  1  0
 13 14  1  0
 13 37  1  0
 13 38  1  0
 14 15  2  0
 14 19  1  0
 15 16  1  0
 15 39  1  0
 16 17  2  0
 16 40  1  0
 17 18  1  0
 17 41  1  0
 18 19  2  0
 18 42  1  0
 19 43  1  0
M  END

