
     RDKit          3D

 52 54  0  0  0  0  0  0  0  0999 V2000
    8.2170    0.9762   -0.1662 C   0  0  0  0  0  0  0  0  0  0  0  0
    8.2667   -0.4132    0.4483 C   0  0  0  0  0  0  0  0  0  0  0  0
    7.8337   -1.4229   -0.4785 O   0  0  0  0  0  0  0  0  0  0  0  0
    6.5041   -1.6662   -0.5556 C   0  0  0  0  0  0  0  0  0  0  0  0
    5.6922   -1.0742    0.1139 O   0  0  0  0  0  0  0  0  0  0  0  0
    6.2067   -2.7434   -1.5507 C   0  0  0  0  0  0  0  0  0  0  0  0
    7.2652   -3.4346   -2.1731 C   0  0  0  0  0  0  0  0  0  0  0  0
    7.0685   -4.4549   -3.0960 C   0  0  0  0  0  0  0  0  0  0  0  0
    5.7542   -4.8216   -3.4390 C   0  0  0  0  0  0  0  0  0  0  0  0
    5.4387   -5.8314   -4.3593 N   0  0  0  0  0  0  0  0  0  0  0  0
    6.2860   -6.6846   -5.0230 C   0  0  0  0  0  0  0  0  0  0  0  0
    7.5012   -6.6776   -4.9210 O   0  0  0  0  0  0  0  0  0  0  0  0
    5.5611   -7.6945   -5.9377 C   0  0  0  0  0  0  0  0  0  0  0  0
    5.0092   -8.8781   -5.2624 N   0  0  0  0  0  0  0  0  0  0  0  0
    5.7743  -10.0890   -5.1550 C   0  0  0  0  0  0  0  0  0  0  0  0
    7.1307  -10.0199   -4.8006 C   0  0  0  0  0  0  0  0  0  0  0  0
    7.9268  -11.1796   -4.7307 C   0  0  0  0  0  0  0  0  0  0  0  0
    7.3131  -12.3898   -4.9943 C   0  0  0  0  0  0  0  0  0  0  0  0
    5.9608  -12.4587   -5.3396 C   0  0  0  0  0  0  0  0  0  0  0  0
    5.1645  -11.3350   -5.4492 C   0  0  0  0  0  0  0  0  0  0  0  0
    5.6174  -13.7607   -5.5647 O   0  0  0  0  0  0  0  0  0  0  0  0
    6.7860  -14.5406   -5.3211 C   0  0  0  0  0  0  0  0  0  0  0  0
    7.8465  -13.6464   -4.9896 O   0  0  0  0  0  0  0  0  0  0  0  0
    3.4950   -8.7449   -4.5160 S   0  0  1  0  0  0  0  0  0  0  0  0
    3.0523   -7.3602   -4.7805 O   0  0  0  0  0  0  0  0  0  0  0  0
    2.6227   -9.8515   -4.9073 O   0  0  0  0  0  0  0  0  0  0  0  0
    3.8327   -8.9111   -2.7408 C   0  0  0  0  0  0  0  0  0  0  0  0
    2.5364   -8.9005   -1.9391 C   0  0  0  0  0  0  0  0  0  0  0  0
    4.6789   -4.1452   -2.8384 C   0  0  0  0  0  0  0  0  0  0  0  0
    4.8942   -3.1265   -1.9102 C   0  0  0  0  0  0  0  0  0  0  0  0
    3.4625   -2.3768   -1.2556 Cl  0  0  0  0  0  0  0  0  0  0  0  0
    8.6308    1.7129    0.5412 H   0  0  0  0  0  0  0  0  0  0  0  0
    7.1806    1.2656   -0.3939 H   0  0  0  0  0  0  0  0  0  0  0  0
    8.8098    1.0186   -1.0933 H   0  0  0  0  0  0  0  0  0  0  0  0
    7.6406   -0.4646    1.3514 H   0  0  0  0  0  0  0  0  0  0  0  0
    9.2971   -0.6970    0.7081 H   0  0  0  0  0  0  0  0  0  0  0  0
    8.2826   -3.1480   -1.9092 H   0  0  0  0  0  0  0  0  0  0  0  0
    7.9094   -4.9707   -3.5519 H   0  0  0  0  0  0  0  0  0  0  0  0
    4.4435   -6.0120   -4.5076 H   0  0  0  0  0  0  0  0  0  0  0  0
    6.3066   -8.0534   -6.6579 H   0  0  0  0  0  0  0  0  0  0  0  0
    4.7555   -7.1919   -6.4914 H   0  0  0  0  0  0  0  0  0  0  0  0
    7.5879   -9.0505   -4.5982 H   0  0  0  0  0  0  0  0  0  0  0  0
    8.9847  -11.1236   -4.4705 H   0  0  0  0  0  0  0  0  0  0  0  0
    4.1196  -11.3997   -5.7446 H   0  0  0  0  0  0  0  0  0  0  0  0
    7.0491  -15.1106   -6.2300 H   0  0  0  0  0  0  0  0  0  0  0  0
    6.6040  -15.2319   -4.4775 H   0  0  0  0  0  0  0  0  0  0  0  0
    4.4993   -8.0728   -2.4897 H   0  0  0  0  0  0  0  0  0  0  0  0
    4.3882   -9.8542   -2.6301 H   0  0  0  0  0  0  0  0  0  0  0  0
    1.9818   -7.9638   -2.0972 H   0  0  0  0  0  0  0  0  0  0  0  0
    2.7673   -8.9878   -0.8665 H   0  0  0  0  0  0  0  0  0  0  0  0
    1.8913   -9.7420   -2.2289 H   0  0  0  0  0  0  0  0  0  0  0  0
    3.6516   -4.4107   -3.0951 H   0  0  0  0  0  0  0  0  0  0  0  0
  1  2  1  0
  1 32  1  0
  1 33  1  0
  1 34  1  0
  2  3  1  0
  2 35  1  0
  2 36  1  0
  3  4  1  0
  4  5  2  0
  4  6  1  0
  6  7  2  0
  6 30  1  0
  7  8  1  0
  7 37  1  0
  8  9  2  0
  8 38  1  0
  9 10  1  0
  9 29  1  0
 10 11  1  0
 10 39  1  0
 11 12  2  0
 11 13  1  0
 13 14  1  0
 13 40  1  0
 13 41  1  0
 14 15  1  0
 24 14  1  6
 15 16  2  0
 15 20  1  0
 16 17  1  0
 16 42  1  0
 17 18  2  0
 17 43  1  0
 18 19  1  0
 18 23  1  0
 19 20  2  0
 19 21  1  0
 20 44  1  0
 21 22  1  0
 22 23  1  0
 22 45  1  0
 22 46  1  0
 24 25  2  0
 24 26  2  0
 24 27  1  0
 27 28  1  0
 27 47  1  0
 27 48  1  0
 28 49  1  0
 28 50  1  0
 28 51  1  0
 29 30  2  0
 29 52  1  0
 30 31  1  0
M  END

