
     RDKit          3D

 44 45  0  0  0  0  0  0  0  0999 V2000
    2.7797   -1.1989    2.0456 O   0  0  0  0  0  0  0  0  0  0  0  0
    2.2531   -1.0757    0.9213 C   0  0  0  0  0  0  0  0  0  0  0  0
    0.8867   -0.8034    0.6411 C   0  0  0  0  0  0  0  0  0  0  0  0
   -0.0661   -0.7077    1.6702 C   0  0  0  0  0  0  0  0  0  0  0  0
   -1.4536   -0.4405    1.5358 C   0  0  0  0  0  0  0  0  0  0  0  0
   -2.0782   -0.2177    0.2635 C   0  0  0  0  0  0  0  0  0  0  0  0
   -3.4315    0.0427    0.1349 C   0  0  0  0  0  0  0  0  0  0  0  0
   -4.2700    0.1025    1.2581 C   0  0  0  0  0  0  0  0  0  0  0  0
   -3.6979   -0.1092    2.5238 C   0  0  0  0  0  0  0  0  0  0  0  0
   -4.7592   -0.0306    3.9200 Cl  0  0  0  0  0  0  0  0  0  0  0  0
   -2.3377   -0.3730    2.6734 C   0  0  0  0  0  0  0  0  0  0  0  0
   -1.6864   -0.6292    4.2819 Cl  0  0  0  0  0  0  0  0  0  0  0  0
    3.1156   -1.2762   -0.2245 N   0  0  0  0  0  0  0  0  0  0  0  0
    4.4519   -0.6925   -0.1691 C   0  0  0  0  0  0  0  0  0  0  0  0
    5.4557   -1.4049    0.7765 C   0  0  0  0  0  0  0  0  0  0  0  0
    5.0593   -2.7924    1.2607 C   0  0  0  0  0  0  0  0  0  0  0  0
    4.8472   -3.8431    0.2785 N   0  0  0  0  0  0  0  0  0  0  0  0
    5.3614   -3.7774   -1.0792 C   0  0  0  0  0  0  0  0  0  0  0  0
    5.7970   -5.1472   -1.6166 C   0  0  0  0  0  0  0  0  0  0  0  0
    4.7166   -6.2094   -1.4078 C   0  0  0  0  0  0  0  0  0  0  0  0
    4.3387   -6.2780    0.0729 C   0  0  0  0  0  0  0  0  0  0  0  0
    3.9107   -4.9088    0.6108 C   0  0  0  0  0  0  0  0  0  0  0  0
    0.5946   -0.6801   -0.4050 H   0  0  0  0  0  0  0  0  0  0  0  0
    0.3180   -0.8505    2.6804 H   0  0  0  0  0  0  0  0  0  0  0  0
   -1.4560   -0.2519   -0.6319 H   0  0  0  0  0  0  0  0  0  0  0  0
   -3.8579    0.2078   -0.8587 H   0  0  0  0  0  0  0  0  0  0  0  0
   -5.3365    0.3083    1.1757 H   0  0  0  0  0  0  0  0  0  0  0  0
    2.6442   -0.9970   -1.0809 H   0  0  0  0  0  0  0  0  0  0  0  0
    4.4377    0.3766    0.1189 H   0  0  0  0  0  0  0  0  0  0  0  0
    4.8517   -0.7197   -1.1965 H   0  0  0  0  0  0  0  0  0  0  0  0
    5.5300   -0.8311    1.7105 H   0  0  0  0  0  0  0  0  0  0  0  0
    6.4668   -1.3923    0.3327 H   0  0  0  0  0  0  0  0  0  0  0  0
    4.1268   -2.6773    1.8368 H   0  0  0  0  0  0  0  0  0  0  0  0
    5.8288   -3.1974    1.9503 H   0  0  0  0  0  0  0  0  0  0  0  0
    6.1804   -3.0498   -1.1062 H   0  0  0  0  0  0  0  0  0  0  0  0
    4.5357   -3.3630   -1.6811 H   0  0  0  0  0  0  0  0  0  0  0  0
    6.7261   -5.4542   -1.1067 H   0  0  0  0  0  0  0  0  0  0  0  0
    6.0471   -5.0264   -2.6807 H   0  0  0  0  0  0  0  0  0  0  0  0
    5.0755   -7.1898   -1.7556 H   0  0  0  0  0  0  0  0  0  0  0  0
    3.8261   -5.9655   -2.0133 H   0  0  0  0  0  0  0  0  0  0  0  0
    5.1976   -6.6443    0.6611 H   0  0  0  0  0  0  0  0  0  0  0  0
    3.5134   -6.9827    0.2483 H   0  0  0  0  0  0  0  0  0  0  0  0
    3.7710   -4.9105    1.6991 H   0  0  0  0  0  0  0  0  0  0  0  0
    2.9500   -4.5930    0.1694 H   0  0  0  0  0  0  0  0  0  0  0  0
  1  2  2  0
  2  3  1  0
  2 13  1  0
  3  4  2  0
  3 23  1  0
  4  5  1  0
  4 24  1  0
  5  6  2  0
  5 11  1  0
  6  7  1  0
  6 25  1  0
  7  8  2  0
  7 26  1  0
  8  9  1  0
  8 27  1  0
  9 10  1  0
  9 11  2  0
 11 12  1  0
 13 14  1  0
 13 28  1  0
 14 15  1  0
 14 29  1  0
 14 30  1  0
 15 16  1  0
 15 31  1  0
 15 32  1  0
 16 17  1  0
 16 33  1  0
 16 34  1  0
 17 18  1  0
 17 22  1  0
 18 19  1  0
 18 35  1  0
 18 36  1  0
 19 20  1  0
 19 37  1  0
 19 38  1  0
 20 21  1  0
 20 39  1  0
 20 40  1  0
 21 22  1  0
 21 41  1  0
 21 42  1  0
 22 43  1  0
 22 44  1  0
M  END

