
     RDKit          3D

 48 51  0  0  0  0  0  0  0  0999 V2000
    1.2449   -2.5736   -0.4571 O   0  0  0  0  0  0  0  0  0  0  0  0
    2.3037   -2.1265   -0.0981 C   0  0  0  0  0  0  0  0  0  0  0  0
    3.0281   -2.6898    0.8807 O   0  0  0  0  0  0  0  0  0  0  0  0
    2.9516   -0.8509   -0.6707 C   0  0  2  0  0  0  0  0  0  0  0  0
    2.6325   -0.0327    0.0010 H   0  0  0  0  0  0  0  0  0  0  0  0
    2.4715   -0.5317   -2.0997 C   0  0  0  0  0  0  0  0  0  0  0  0
    1.1081    0.1960   -2.1394 C   0  0  1  0  0  0  0  0  0  0  0  0
    1.2168    1.6823   -1.7258 C   0  0  0  0  0  0  0  0  0  0  0  0
    1.8512    2.5699   -2.8084 C   0  0  0  0  0  0  0  0  0  0  0  0
    1.1472    2.4191   -4.1632 C   0  0  0  0  0  0  0  0  0  0  0  0
    1.0806    0.9494   -4.5987 C   0  0  0  0  0  0  0  0  0  0  0  0
    0.4225    0.0817   -3.5169 C   0  0  0  0  0  0  0  0  0  0  0  0
    4.3929   -0.9014   -0.4664 N   0  0  0  0  0  0  0  0  0  0  0  0
    5.2645   -1.7049   -1.3385 C   0  0  0  0  0  0  0  0  0  0  0  0
    6.6196   -1.1004   -1.1032 C   0  0  0  0  0  0  0  0  0  0  0  0
    6.4007    0.0951   -0.4371 C   0  0  0  0  0  0  0  0  0  0  0  0
    7.4653    0.9812   -0.1301 O   0  0  0  0  0  0  0  0  0  0  0  0
    8.6615    0.7337   -0.5619 C   0  0  0  0  0  0  0  0  0  0  0  0
    9.6978    1.6853   -0.2121 C   0  0  0  0  0  0  0  0  0  0  0  0
    9.2629    3.0565    0.7270 Cl  0  0  0  0  0  0  0  0  0  0  0  0
   10.9949    1.4761   -0.6307 C   0  0  0  0  0  0  0  0  0  0  0  0
   11.3082    0.3328   -1.3977 C   0  0  0  0  0  0  0  0  0  0  0  0
   10.3222   -0.5991   -1.7464 C   0  0  0  0  0  0  0  0  0  0  0  0
    8.9972   -0.4373   -1.3591 C   0  0  0  0  0  0  0  0  0  0  0  0
    7.9192   -1.4195   -1.7268 C   0  0  0  0  0  0  0  0  0  0  0  0
    5.0566    0.3244   -0.0384 C   0  0  0  0  0  0  0  0  0  0  0  0
    4.4820    1.2443    0.5494 O   0  0  0  0  0  0  0  0  0  0  0  0
    3.8502   -2.1520    0.9244 H   0  0  0  0  0  0  0  0  0  0  0  0
    2.3980   -1.4659   -2.6801 H   0  0  0  0  0  0  0  0  0  0  0  0
    3.2449    0.0858   -2.5844 H   0  0  0  0  0  0  0  0  0  0  0  0
    0.4611   -0.3222   -1.4144 H   0  0  0  0  0  0  0  0  0  0  0  0
    1.7888    1.7841   -0.7887 H   0  0  0  0  0  0  0  0  0  0  0  0
    0.1996    2.0570   -1.5107 H   0  0  0  0  0  0  0  0  0  0  0  0
    2.9198    2.3124   -2.9221 H   0  0  0  0  0  0  0  0  0  0  0  0
    1.8325    3.6233   -2.4812 H   0  0  0  0  0  0  0  0  0  0  0  0
    1.6539    3.0285   -4.9315 H   0  0  0  0  0  0  0  0  0  0  0  0
    0.1175    2.8158   -4.0829 H   0  0  0  0  0  0  0  0  0  0  0  0
    2.1025    0.5821   -4.8073 H   0  0  0  0  0  0  0  0  0  0  0  0
    0.5247    0.8551   -5.5474 H   0  0  0  0  0  0  0  0  0  0  0  0
    0.3919   -0.9755   -3.8311 H   0  0  0  0  0  0  0  0  0  0  0  0
   -0.6307    0.3993   -3.4079 H   0  0  0  0  0  0  0  0  0  0  0  0
    4.9647   -1.6183   -2.4131 H   0  0  0  0  0  0  0  0  0  0  0  0
    5.1976   -2.7846   -1.0931 H   0  0  0  0  0  0  0  0  0  0  0  0
   11.7674    2.1976   -0.3626 H   0  0  0  0  0  0  0  0  0  0  0  0
   12.3393    0.1770   -1.7213 H   0  0  0  0  0  0  0  0  0  0  0  0
   10.5953   -1.4762   -2.3378 H   0  0  0  0  0  0  0  0  0  0  0  0
    8.2844   -2.4405   -1.4879 H   0  0  0  0  0  0  0  0  0  0  0  0
    7.8504   -1.4224   -2.8406 H   0  0  0  0  0  0  0  0  0  0  0  0
  1  2  2  0
  2  3  1  0
  2  4  1  0
  3 28  1  0
  4  5  1  1
  4  6  1  0
  4 13  1  0
  6  7  1  0
  6 29  1  0
  6 30  1  0
  7  8  1  0
  7 12  1  0
  7 31  1  1
  8  9  1  0
  8 32  1  0
  8 33  1  0
  9 10  1  0
  9 34  1  0
  9 35  1  0
 10 11  1  0
 10 36  1  0
 10 37  1  0
 11 12  1  0
 11 38  1  0
 11 39  1  0
 12 40  1  0
 12 41  1  0
 13 14  1  0
 13 26  1  0
 14 15  1  0
 14 42  1  0
 14 43  1  0
 15 16  2  0
 15 25  1  0
 16 17  1  0
 16 26  1  0
 17 18  1  0
 18 19  2  0
 18 24  1  0
 19 20  1  0
 19 21  1  0
 21 22  2  0
 21 44  1  0
 22 23  1  0
 22 45  1  0
 23 24  2  0
 23 46  1  0
 24 25  1  0
 25 47  1  0
 25 48  1  0
 26 27  2  0
M  END

