
     RDKit          3D

 30 31  0  0  0  0  0  0  0  0999 V2000
    5.5793    1.5437   -4.1178 N   0  0  0  0  0  0  0  0  0  0  0  0
    4.8888    0.7955   -3.5649 C   0  0  0  0  0  0  0  0  0  0  0  0
    4.0353   -0.1717   -2.8719 C   0  0  0  0  0  0  0  0  0  0  0  0
    4.4472   -1.6382   -3.1173 C   0  0  0  0  0  0  0  0  0  0  0  0
    5.7964   -1.9416   -2.6777 N   0  0  0  0  0  0  0  0  0  0  0  0
    6.0938   -2.0815   -1.3678 C   0  0  0  0  0  0  0  0  0  0  0  0
    5.2949   -1.9597   -0.4571 O   0  0  0  0  0  0  0  0  0  0  0  0
    7.5915   -2.4188   -1.0680 C   0  0  0  0  0  0  0  0  0  0  0  0
    7.9460   -3.7485   -1.4708 N   0  0  0  0  0  0  0  0  0  0  0  0
    8.2722   -4.0530   -2.9503 C   0  0  0  0  0  0  0  0  0  0  0  0
    8.2143   -3.1424   -3.7480 O   0  0  0  0  0  0  0  0  0  0  0  0
    8.5614   -5.4786   -3.0042 C   0  0  0  0  0  0  0  0  0  0  0  0
    8.8724   -6.1465   -4.0052 O   0  0  0  0  0  0  0  0  0  0  0  0
    8.3931   -5.9739   -1.6144 C   0  0  0  0  0  0  0  0  0  0  0  0
    8.5399   -7.2427   -1.0932 C   0  0  0  0  0  0  0  0  0  0  0  0
    8.3189   -7.4470    0.2847 C   0  0  0  0  0  0  0  0  0  0  0  0
    7.9559   -6.3892    1.1468 C   0  0  0  0  0  0  0  0  0  0  0  0
    7.8079   -5.1141    0.6361 C   0  0  0  0  0  0  0  0  0  0  0  0
    7.4744   -4.0966    1.4323 F   0  0  0  0  0  0  0  0  0  0  0  0
    8.0168   -4.8771   -0.7538 C   0  0  0  0  0  0  0  0  0  0  0  0
    2.9930   -0.0256   -3.2008 H   0  0  0  0  0  0  0  0  0  0  0  0
    4.0645    0.0339   -1.7898 H   0  0  0  0  0  0  0  0  0  0  0  0
    4.3762   -1.8822   -4.1866 H   0  0  0  0  0  0  0  0  0  0  0  0
    3.7378   -2.2784   -2.5700 H   0  0  0  0  0  0  0  0  0  0  0  0
    6.5449   -2.0746   -3.3603 H   0  0  0  0  0  0  0  0  0  0  0  0
    7.7361   -2.2881    0.0079 H   0  0  0  0  0  0  0  0  0  0  0  0
    8.2208   -1.7172   -1.6382 H   0  0  0  0  0  0  0  0  0  0  0  0
    8.8249   -8.0647   -1.7527 H   0  0  0  0  0  0  0  0  0  0  0  0
    8.4313   -8.4484    0.7067 H   0  0  0  0  0  0  0  0  0  0  0  0
    7.7888   -6.5537    2.2124 H   0  0  0  0  0  0  0  0  0  0  0  0
  1  2  3  0
  2  3  1  0
  3  4  1  0
  3 21  1  0
  3 22  1  0
  4  5  1  0
  4 23  1  0
  4 24  1  0
  5  6  1  0
  5 25  1  0
  6  7  2  0
  6  8  1  0
  8  9  1  0
  8 26  1  0
  8 27  1  0
  9 10  1  0
  9 20  1  0
 10 11  2  0
 10 12  1  0
 12 13  2  0
 12 14  1  0
 14 15  2  0
 14 20  1  0
 15 16  1  0
 15 28  1  0
 16 17  2  0
 16 29  1  0
 17 18  1  0
 17 30  1  0
 18 19  1  0
 18 20  2  0
M  END

