
     RDKit          3D

 43 44  0  0  0  0  0  0  0  0999 V2000
    1.0735    2.0199    1.3392 C   0  0  0  0  0  0  0  0  0  0  0  0
    2.4159    2.2870    0.8605 N   0  0  0  0  0  0  0  0  0  0  0  0
    3.0033    1.2594    0.0115 C   0  0  1  0  0  0  0  0  0  0  0  0
    2.3445    1.2312   -1.3940 C   0  0  0  0  0  0  0  0  0  0  0  0
    2.4563    2.4488   -2.2728 C   0  0  0  0  0  0  0  0  0  0  0  0
    2.0651    3.7462   -2.0358 C   0  0  0  0  0  0  0  0  0  0  0  0
    2.3207    4.6254   -3.1330 C   0  0  0  0  0  0  0  0  0  0  0  0
    2.9016    3.9919   -4.2020 C   0  0  0  0  0  0  0  0  0  0  0  0
    3.1381    2.3087   -3.8748 S   0  0  0  0  0  0  0  0  0  0  0  0
    4.5700    1.3620    0.0756 C   0  0  1  0  0  0  0  0  0  0  0  0
    4.9279    1.3143    1.4786 O   0  0  0  0  0  0  0  0  0  0  0  0
    4.8033    0.1147    2.2037 C   0  0  0  0  0  0  0  0  0  0  0  0
    5.2066    0.1948   -0.7024 C   0  0  0  0  0  0  0  0  0  0  0  0
    6.7426    0.1216   -0.7310 C   0  0  0  0  0  0  0  0  0  0  0  0
    7.4037    1.1643   -1.6481 C   0  0  0  0  0  0  0  0  0  0  0  0
    7.6191    2.5646   -1.0409 C   0  0  0  0  0  0  0  0  0  0  0  0
    6.5542    3.0501   -0.0415 C   0  0  0  0  0  0  0  0  0  0  0  0
    5.0869    2.7449   -0.3902 C   0  0  0  0  0  0  0  0  0  0  0  0
    0.7961    2.7713    2.0949 H   0  0  0  0  0  0  0  0  0  0  0  0
    0.9438    1.0126    1.7973 H   0  0  0  0  0  0  0  0  0  0  0  0
    0.3340    2.1008    0.5246 H   0  0  0  0  0  0  0  0  0  0  0  0
    3.0457    2.4311    1.6481 H   0  0  0  0  0  0  0  0  0  0  0  0
    2.7690    0.2484    0.4200 H   0  0  0  0  0  0  0  0  0  0  0  0
    1.2731    1.0218   -1.2297 H   0  0  0  0  0  0  0  0  0  0  0  0
    2.7173    0.3503   -1.9368 H   0  0  0  0  0  0  0  0  0  0  0  0
    1.6339    4.0582   -1.0849 H   0  0  0  0  0  0  0  0  0  0  0  0
    2.0803    5.6902   -3.1275 H   0  0  0  0  0  0  0  0  0  0  0  0
    3.1951    4.4136   -5.1621 H   0  0  0  0  0  0  0  0  0  0  0  0
    5.0297    0.3584    3.2530 H   0  0  0  0  0  0  0  0  0  0  0  0
    5.5170   -0.6627    1.8751 H   0  0  0  0  0  0  0  0  0  0  0  0
    3.7855   -0.3170    2.1666 H   0  0  0  0  0  0  0  0  0  0  0  0
    4.8556    0.2500   -1.7449 H   0  0  0  0  0  0  0  0  0  0  0  0
    4.8027   -0.7528   -0.3069 H   0  0  0  0  0  0  0  0  0  0  0  0
    7.0123   -0.8841   -1.0955 H   0  0  0  0  0  0  0  0  0  0  0  0
    7.1531    0.1923    0.2908 H   0  0  0  0  0  0  0  0  0  0  0  0
    6.7903    1.2482   -2.5626 H   0  0  0  0  0  0  0  0  0  0  0  0
    8.3809    0.7812   -1.9880 H   0  0  0  0  0  0  0  0  0  0  0  0
    7.7030    3.2867   -1.8722 H   0  0  0  0  0  0  0  0  0  0  0  0
    8.5974    2.5920   -0.5293 H   0  0  0  0  0  0  0  0  0  0  0  0
    6.6647    4.1425    0.0631 H   0  0  0  0  0  0  0  0  0  0  0  0
    6.7571    2.6372    0.9573 H   0  0  0  0  0  0  0  0  0  0  0  0
    4.9170    2.8413   -1.4722 H   0  0  0  0  0  0  0  0  0  0  0  0
    4.4441    3.5016    0.0801 H   0  0  0  0  0  0  0  0  0  0  0  0
  1  2  1  0
  1 19  1  0
  1 20  1  0
  1 21  1  0
  2  3  1  0
  2 22  1  0
  3  4  1  0
  3 10  1  0
  3 23  1  1
  4  5  1  0
  4 24  1  0
  4 25  1  0
  5  6  2  0
  5  9  1  0
  6  7  1  0
  6 26  1  0
  7  8  2  0
  7 27  1  0
  8  9  1  0
  8 28  1  0
 10 11  1  1
 10 13  1  0
 10 18  1  0
 11 12  1  0
 12 29  1  0
 12 30  1  0
 12 31  1  0
 13 14  1  0
 13 32  1  0
 13 33  1  0
 14 15  1  0
 14 34  1  0
 14 35  1  0
 15 16  1  0
 15 36  1  0
 15 37  1  0
 16 17  1  0
 16 38  1  0
 16 39  1  0
 17 18  1  0
 17 40  1  0
 17 41  1  0
 18 42  1  0
 18 43  1  0
M  END

