
     RDKit          3D

 39 41  0  0  0  0  0  0  0  0999 V2000
    1.6776    0.5560    1.9328 C   0  0  0  0  0  0  0  0  0  0  0  0
    2.5256   -0.5237    2.6212 C   0  0  0  0  0  0  0  0  0  0  0  0
    2.6001   -1.8056    1.8680 C   0  0  0  0  0  0  0  0  0  0  0  0
    3.6545   -2.4028    1.3972 N   0  0  0  0  0  0  0  0  0  0  0  0
    3.2704   -3.5537    0.7933 N   0  0  0  0  0  0  0  0  0  0  0  0
    1.8781   -3.5697    0.8074 C   0  0  0  0  0  0  0  0  0  0  0  0
    1.2205   -4.8756    1.1308 C   0  0  1  0  0  0  0  0  0  0  0  0
   -0.3093   -4.8009    1.2191 C   0  0  0  0  0  0  0  0  0  0  0  0
    1.6079   -5.8881    0.0979 N   0  0  0  0  0  0  0  0  0  0  0  0
    1.5770   -5.5786   -1.3018 C   0  0  0  0  0  0  0  0  0  0  0  0
    3.0478   -5.3791   -1.8121 C   0  0  0  0  0  0  0  0  0  0  0  0
    3.8192   -6.5029   -1.4599 O   0  0  0  0  0  0  0  0  0  0  0  0
    3.9211   -6.7050   -0.0785 C   0  0  2  0  0  0  0  0  0  0  0  0
    4.8105   -7.8666    0.2216 C   0  0  0  0  0  0  0  0  0  0  0  0
    4.8981   -9.0532   -0.5792 C   0  0  0  0  0  0  0  0  0  0  0  0
    5.7717   -9.9722   -0.0612 C   0  0  0  0  0  0  0  0  0  0  0  0
    6.4970   -9.4102    1.4080 S   0  0  0  0  0  0  0  0  0  0  0  0
    5.6249   -7.9254    1.3317 C   0  0  0  0  0  0  0  0  0  0  0  0
    2.4110   -6.9996    0.4397 C   0  0  0  0  0  0  0  0  0  0  0  0
    1.4353   -2.5037    1.6411 O   0  0  0  0  0  0  0  0  0  0  0  0
    1.6328    1.4738    2.5412 H   0  0  0  0  0  0  0  0  0  0  0  0
    0.6474    0.2011    1.7737 H   0  0  0  0  0  0  0  0  0  0  0  0
    2.0967    0.8168    0.9478 H   0  0  0  0  0  0  0  0  0  0  0  0
    2.1119   -0.7141    3.6302 H   0  0  0  0  0  0  0  0  0  0  0  0
    3.5607   -0.1769    2.7589 H   0  0  0  0  0  0  0  0  0  0  0  0
    1.5882   -5.3071    2.0856 H   0  0  0  0  0  0  0  0  0  0  0  0
   -0.7459   -4.4259    0.2805 H   0  0  0  0  0  0  0  0  0  0  0  0
   -0.5656   -4.0863    2.0120 H   0  0  0  0  0  0  0  0  0  0  0  0
   -0.7525   -5.7787    1.4631 H   0  0  0  0  0  0  0  0  0  0  0  0
    1.0124   -4.6561   -1.4688 H   0  0  0  0  0  0  0  0  0  0  0  0
    1.1380   -6.4273   -1.8536 H   0  0  0  0  0  0  0  0  0  0  0  0
    3.4427   -4.4647   -1.3488 H   0  0  0  0  0  0  0  0  0  0  0  0
    3.0409   -5.3185   -2.9087 H   0  0  0  0  0  0  0  0  0  0  0  0
    4.2240   -5.7821    0.4416 H   0  0  0  0  0  0  0  0  0  0  0  0
    4.3493   -9.1937   -1.5107 H   0  0  0  0  0  0  0  0  0  0  0  0
    6.0405  -10.9473   -0.4652 H   0  0  0  0  0  0  0  0  0  0  0  0
    5.7623   -7.1610    2.0959 H   0  0  0  0  0  0  0  0  0  0  0  0
    2.4247   -7.1645    1.5224 H   0  0  0  0  0  0  0  0  0  0  0  0
    2.0951   -7.9099   -0.0941 H   0  0  0  0  0  0  0  0  0  0  0  0
  1  2  1  0
  1 21  1  0
  1 22  1  0
  1 23  1  0
  2  3  1  0
  2 24  1  0
  2 25  1  0
  3  4  2  0
  3 20  1  0
  4  5  1  0
  5  6  2  0
  6  7  1  0
  6 20  1  0
  7  8  1  0
  7  9  1  0
  7 26  1  1
  8 27  1  0
  8 28  1  0
  8 29  1  0
  9 10  1  0
  9 19  1  0
 10 11  1  0
 10 30  1  0
 10 31  1  0
 11 12  1  0
 11 32  1  0
 11 33  1  0
 12 13  1  0
 13 14  1  0
 13 19  1  0
 13 34  1  1
 14 15  1  0
 14 18  2  0
 15 16  2  0
 15 35  1  0
 16 17  1  0
 16 36  1  0
 17 18  1  0
 18 37  1  0
 19 38  1  0
 19 39  1  0
M  END

