
     RDKit          3D

 43 44  0  0  0  0  0  0  0  0999 V2000
    1.4264    0.6758    0.5982 C   0  0  0  0  0  0  0  0  0  0  0  0
    2.8222    0.5558   -0.0318 C   0  0  1  0  0  0  0  0  0  0  0  0
    3.2537   -0.9090   -0.2561 C   0  0  0  0  0  0  0  0  0  0  0  0
    2.5601   -1.5549   -1.4619 C   0  0  0  0  0  0  0  0  0  0  0  0
    2.7989   -0.7426   -2.7383 C   0  0  0  0  0  0  0  0  0  0  0  0
    2.3218    0.7181   -2.5848 C   0  0  2  0  0  0  0  0  0  0  0  0
    0.9119    0.7519   -2.3963 O   0  0  0  0  0  0  0  0  0  0  0  0
    2.6931    1.4967   -3.8719 C   0  0  0  0  0  0  0  0  0  0  0  0
    2.1439    2.8382   -3.9559 N   0  0  0  0  0  0  0  0  0  0  0  0
    0.8754    3.0620   -4.3750 C   0  0  0  0  0  0  0  0  0  0  0  0
    0.1121    2.1546   -4.6955 O   0  0  0  0  0  0  0  0  0  0  0  0
    0.4137    4.5353   -4.4163 C   0  0  0  0  0  0  0  0  0  0  0  0
    1.4889    5.5424   -4.6562 C   0  0  0  0  0  0  0  0  0  0  0  0
    1.7511    6.0302   -5.9712 C   0  0  0  0  0  0  0  0  0  0  0  0
    2.7910    6.9499   -6.2578 C   0  0  0  0  0  0  0  0  0  0  0  0
    3.6290    7.3820   -5.1863 C   0  0  0  0  0  0  0  0  0  0  0  0
    3.3686    6.9082   -3.8754 C   0  0  0  0  0  0  0  0  0  0  0  0
    4.1137    7.3243   -2.8309 O   0  0  0  0  0  0  0  0  0  0  0  0
    2.3306    5.9765   -3.5758 C   0  0  0  0  0  0  0  0  0  0  0  0
    2.9793    1.3571   -1.3444 C   0  0  0  0  0  0  0  0  0  0  0  0
    1.3934    0.1466    1.5653 H   0  0  0  0  0  0  0  0  0  0  0  0
    0.6414    0.2713   -0.0544 H   0  0  0  0  0  0  0  0  0  0  0  0
    1.1753    1.7324    0.7876 H   0  0  0  0  0  0  0  0  0  0  0  0
    3.5340    0.9980    0.6890 H   0  0  0  0  0  0  0  0  0  0  0  0
    3.0654   -1.4985    0.6576 H   0  0  0  0  0  0  0  0  0  0  0  0
    4.3472   -0.9369   -0.4206 H   0  0  0  0  0  0  0  0  0  0  0  0
    1.4746   -1.6222   -1.2845 H   0  0  0  0  0  0  0  0  0  0  0  0
    2.9220   -2.5876   -1.5997 H   0  0  0  0  0  0  0  0  0  0  0  0
    2.2712   -1.1991   -3.5932 H   0  0  0  0  0  0  0  0  0  0  0  0
    3.8767   -0.7501   -2.9865 H   0  0  0  0  0  0  0  0  0  0  0  0
    0.4733    0.8605   -3.2592 H   0  0  0  0  0  0  0  0  0  0  0  0
    2.3164    0.9282   -4.7387 H   0  0  0  0  0  0  0  0  0  0  0  0
    3.7874    1.5628   -3.9642 H   0  0  0  0  0  0  0  0  0  0  0  0
    2.7082    3.6440   -3.6915 H   0  0  0  0  0  0  0  0  0  0  0  0
   -0.0870    4.7133   -3.4432 H   0  0  0  0  0  0  0  0  0  0  0  0
   -0.3682    4.5710   -5.1882 H   0  0  0  0  0  0  0  0  0  0  0  0
    1.1190    5.6731   -6.7897 H   0  0  0  0  0  0  0  0  0  0  0  0
    2.9524    7.3084   -7.2741 H   0  0  0  0  0  0  0  0  0  0  0  0
    4.4992    8.0199   -5.3684 H   0  0  0  0  0  0  0  0  0  0  0  0
    4.7404    8.0018   -3.1284 H   0  0  0  0  0  0  0  0  0  0  0  0
    2.0670    5.7977   -2.5306 H   0  0  0  0  0  0  0  0  0  0  0  0
    2.5733    2.3746   -1.2190 H   0  0  0  0  0  0  0  0  0  0  0  0
    4.0585    1.4632   -1.5558 H   0  0  0  0  0  0  0  0  0  0  0  0
  1  2  1  0
  1 21  1  0
  1 22  1  0
  1 23  1  0
  2  3  1  0
  2 20  1  0
  2 24  1  1
  3  4  1  0
  3 25  1  0
  3 26  1  0
  4  5  1  0
  4 27  1  0
  4 28  1  0
  5  6  1  0
  5 29  1  0
  5 30  1  0
  6  7  1  1
  6  8  1  0
  6 20  1  0
  7 31  1  0
  8  9  1  0
  8 32  1  0
  8 33  1  0
  9 10  1  0
  9 34  1  0
 10 11  2  0
 10 12  1  0
 12 13  1  0
 12 35  1  0
 12 36  1  0
 13 14  2  0
 13 19  1  0
 14 15  1  0
 14 37  1  0
 15 16  2  0
 15 38  1  0
 16 17  1  0
 16 39  1  0
 17 18  1  0
 17 19  2  0
 18 40  1  0
 19 41  1  0
 20 42  1  0
 20 43  1  0
M  END

