
     RDKit          3D

 46 49  0  0  0  0  0  0  0  0999 V2000
    1.1804    1.1443   -2.1224 O   0  0  0  0  0  0  0  0  0  0  0  0
    2.0281    0.6891   -1.3416 C   0  0  0  0  0  0  0  0  0  0  0  0
    3.2114    0.1741   -2.0396 N   0  0  0  0  0  0  0  0  0  0  0  0
    4.3901   -0.3782   -1.7279 C   0  0  0  0  0  0  0  0  0  0  0  0
    5.2740   -0.7218   -2.7953 C   0  0  0  0  0  0  0  0  0  0  0  0
    6.5239   -1.2635   -2.5943 C   0  0  0  0  0  0  0  0  0  0  0  0
    7.3259   -1.6711   -3.8068 C   0  0  0  0  0  0  0  0  0  0  0  0
    6.7742   -2.2845   -4.7118 O   0  0  0  0  0  0  0  0  0  0  0  0
    8.6680   -1.3819   -3.8412 N   0  0  0  0  0  0  0  0  0  0  0  0
    9.3320   -0.3380   -3.0596 C   0  0  0  0  0  0  0  0  0  0  0  0
    9.4725    1.0107   -3.7807 C   0  0  0  0  0  0  0  0  0  0  0  0
   10.1207    0.9811   -5.1739 C   0  0  0  0  0  0  0  0  0  0  0  0
    9.2665    0.2885   -6.2509 C   0  0  0  0  0  0  0  0  0  0  0  0
    9.3316   -1.2495   -6.2989 C   0  0  0  0  0  0  0  0  0  0  0  0
    9.4467   -1.9612   -4.9396 C   0  0  0  0  0  0  0  0  0  0  0  0
    6.9446   -1.5537   -1.2559 C   0  0  0  0  0  0  0  0  0  0  0  0
    6.1209   -1.2631   -0.1994 C   0  0  0  0  0  0  0  0  0  0  0  0
    4.8339   -0.6613   -0.3694 C   0  0  0  0  0  0  0  0  0  0  0  0
    4.1198   -0.4138    0.7464 N   0  0  0  0  0  0  0  0  0  0  0  0
    2.8564    0.1360    1.0528 C   0  0  0  0  0  0  0  0  0  0  0  0
    2.5601    0.1704    2.4198 C   0  0  0  0  0  0  0  0  0  0  0  0
    1.3573    0.6869    2.9088 C   0  0  0  0  0  0  0  0  0  0  0  0
    0.4241    1.1878    1.9734 C   0  0  0  0  0  0  0  0  0  0  0  0
    0.6950    1.1642    0.6203 C   0  0  0  0  0  0  0  0  0  0  0  0
    1.9185    0.6382    0.0796 C   0  0  0  0  0  0  0  0  0  0  0  0
    3.0380    0.3055   -3.0347 H   0  0  0  0  0  0  0  0  0  0  0  0
    4.9296   -0.5520   -3.8179 H   0  0  0  0  0  0  0  0  0  0  0  0
   10.3316   -0.7162   -2.7805 H   0  0  0  0  0  0  0  0  0  0  0  0
    8.7848   -0.1777   -2.1221 H   0  0  0  0  0  0  0  0  0  0  0  0
   10.0543    1.6743   -3.1166 H   0  0  0  0  0  0  0  0  0  0  0  0
    8.4706    1.4679   -3.8697 H   0  0  0  0  0  0  0  0  0  0  0  0
   11.1258    0.5221   -5.1204 H   0  0  0  0  0  0  0  0  0  0  0  0
   10.2904    2.0266   -5.4810 H   0  0  0  0  0  0  0  0  0  0  0  0
    9.5541    0.6709   -7.2443 H   0  0  0  0  0  0  0  0  0  0  0  0
    8.2177    0.6050   -6.1103 H   0  0  0  0  0  0  0  0  0  0  0  0
   10.2023   -1.5675   -6.8993 H   0  0  0  0  0  0  0  0  0  0  0  0
    8.4379   -1.6236   -6.8201 H   0  0  0  0  0  0  0  0  0  0  0  0
   10.4955   -1.9644   -4.6034 H   0  0  0  0  0  0  0  0  0  0  0  0
    9.1359   -3.0091   -5.0601 H   0  0  0  0  0  0  0  0  0  0  0  0
    7.9052   -2.0396   -1.0780 H   0  0  0  0  0  0  0  0  0  0  0  0
    6.4380   -1.5035    0.8195 H   0  0  0  0  0  0  0  0  0  0  0  0
    4.6106   -0.6950    1.5907 H   0  0  0  0  0  0  0  0  0  0  0  0
    3.3021   -0.2219    3.1244 H   0  0  0  0  0  0  0  0  0  0  0  0
    1.1541    0.6996    3.9802 H   0  0  0  0  0  0  0  0  0  0  0  0
   -0.5267    1.6003    2.3220 H   0  0  0  0  0  0  0  0  0  0  0  0
   -0.0224    1.5489   -0.1046 H   0  0  0  0  0  0  0  0  0  0  0  0
  1  2  2  0
  2  3  1  0
  2 25  1  0
  3  4  1  0
  3 26  1  0
  4  5  2  0
  4 18  1  0
  5  6  1  0
  5 27  1  0
  6  7  1  0
  6 16  2  0
  7  8  2  0
  7  9  1  0
  9 10  1  0
  9 15  1  0
 10 11  1  0
 10 28  1  0
 10 29  1  0
 11 12  1  0
 11 30  1  0
 11 31  1  0
 12 13  1  0
 12 32  1  0
 12 33  1  0
 13 14  1  0
 13 34  1  0
 13 35  1  0
 14 15  1  0
 14 36  1  0
 14 37  1  0
 15 38  1  0
 15 39  1  0
 16 17  1  0
 16 40  1  0
 17 18  2  0
 17 41  1  0
 18 19  1  0
 19 20  1  0
 19 42  1  0
 20 21  2  0
 20 25  1  0
 21 22  1  0
 21 43  1  0
 22 23  2  0
 22 44  1  0
 23 24  1  0
 23 45  1  0
 24 25  2  0
 24 46  1  0
M  END

