
     RDKit          3D

 52 54  0  0  0  0  0  0  0  0999 V2000
    1.0129   -1.9249   -2.8203 C   0  0  0  0  0  0  0  0  0  0  0  0
    2.3081   -2.4611   -3.3993 C   0  0  0  0  0  0  0  0  0  0  0  0
    2.4197   -3.8362   -3.0587 O   0  0  0  0  0  0  0  0  0  0  0  0
    3.5148   -4.5582   -3.4668 C   0  0  0  0  0  0  0  0  0  0  0  0
    4.5618   -4.0139   -4.1868 C   0  0  0  0  0  0  0  0  0  0  0  0
    5.6738   -4.8045   -4.5771 C   0  0  0  0  0  0  0  0  0  0  0  0
    5.7108   -6.1633   -4.2232 C   0  0  0  0  0  0  0  0  0  0  0  0
    4.6782   -6.7366   -3.5041 C   0  0  0  0  0  0  0  0  0  0  0  0
    3.5270   -5.9616   -3.0941 C   0  0  0  0  0  0  0  0  0  0  0  0
    2.4930   -6.5887   -2.3763 C   0  0  0  0  0  0  0  0  0  0  0  0
    2.5670   -7.8792   -2.0591 O   0  0  0  0  0  0  0  0  0  0  0  0
    1.3534   -6.0129   -1.9357 N   0  0  0  0  0  0  0  0  0  0  0  0
    0.3341   -6.7084   -1.1959 C   0  0  0  0  0  0  0  0  0  0  0  0
   -0.8806   -5.8114   -1.0397 C   0  0  0  0  0  0  0  0  0  0  0  0
   -0.9134   -4.6563   -1.3938 O   0  0  0  0  0  0  0  0  0  0  0  0
   -1.8808   -6.4712   -0.4593 O   0  0  0  0  0  0  0  0  0  0  0  0
   -3.1172   -5.7522   -0.1846 C   0  0  0  0  0  0  0  0  0  0  0  0
   -3.1047   -5.0651    1.1383 C   0  0  0  0  0  0  0  0  0  0  0  0
   -2.9467   -3.6786    1.4421 C   0  0  0  0  0  0  0  0  0  0  0  0
   -2.7724   -2.5348    0.4923 C   0  0  0  0  0  0  0  0  0  0  0  0
   -2.9935   -3.4718    2.7512 N   0  0  0  0  0  0  0  0  0  0  0  0
   -3.1706   -4.6848    3.3331 N   0  0  0  0  0  0  0  0  0  0  0  0
   -3.2862   -4.7637    4.7529 C   0  0  0  0  0  0  0  0  0  0  0  0
   -3.9970   -3.7571    5.4207 C   0  0  0  0  0  0  0  0  0  0  0  0
   -4.1086   -3.7983    6.8107 C   0  0  0  0  0  0  0  0  0  0  0  0
   -3.5216   -4.8394    7.5375 C   0  0  0  0  0  0  0  0  0  0  0  0
   -2.8073   -5.8347    6.8653 C   0  0  0  0  0  0  0  0  0  0  0  0
   -2.6772   -5.7978    5.4747 C   0  0  0  0  0  0  0  0  0  0  0  0
   -3.2506   -5.6620    2.3835 C   0  0  0  0  0  0  0  0  0  0  0  0
   -3.5793   -7.3181    2.7206 Cl  0  0  0  0  0  0  0  0  0  0  0  0
    0.8939   -0.8633   -3.0873 H   0  0  0  0  0  0  0  0  0  0  0  0
    1.0076   -2.0088   -1.7228 H   0  0  0  0  0  0  0  0  0  0  0  0
    0.1465   -2.4827   -3.2064 H   0  0  0  0  0  0  0  0  0  0  0  0
    3.1775   -1.9084   -2.9981 H   0  0  0  0  0  0  0  0  0  0  0  0
    2.3265   -2.3515   -4.4995 H   0  0  0  0  0  0  0  0  0  0  0  0
    4.5425   -2.9597   -4.4619 H   0  0  0  0  0  0  0  0  0  0  0  0
    6.4869   -4.3501   -5.1452 H   0  0  0  0  0  0  0  0  0  0  0  0
    6.5643   -6.7800   -4.5177 H   0  0  0  0  0  0  0  0  0  0  0  0
    4.7291   -7.7939   -3.2420 H   0  0  0  0  0  0  0  0  0  0  0  0
    1.2456   -5.0167   -2.1284 H   0  0  0  0  0  0  0  0  0  0  0  0
    0.6622   -7.0022   -0.1794 H   0  0  0  0  0  0  0  0  0  0  0  0
    0.0205   -7.6418   -1.6954 H   0  0  0  0  0  0  0  0  0  0  0  0
   -3.8822   -6.5393   -0.2131 H   0  0  0  0  0  0  0  0  0  0  0  0
   -3.2953   -5.0365   -0.9977 H   0  0  0  0  0  0  0  0  0  0  0  0
   -1.9707   -2.7405   -0.2317 H   0  0  0  0  0  0  0  0  0  0  0  0
   -2.5344   -1.6226    1.0563 H   0  0  0  0  0  0  0  0  0  0  0  0
   -3.6964   -2.3499   -0.0818 H   0  0  0  0  0  0  0  0  0  0  0  0
   -4.4425   -2.9496    4.8394 H   0  0  0  0  0  0  0  0  0  0  0  0
   -4.6628   -3.0118    7.3288 H   0  0  0  0  0  0  0  0  0  0  0  0
   -3.6153   -4.8710    8.6256 H   0  0  0  0  0  0  0  0  0  0  0  0
   -2.3323   -6.6433    7.4261 H   0  0  0  0  0  0  0  0  0  0  0  0
   -2.0980   -6.5630    4.9584 H   0  0  0  0  0  0  0  0  0  0  0  0
  1  2  1  0
  1 31  1  0
  1 32  1  0
  1 33  1  0
  2  3  1  0
  2 34  1  0
  2 35  1  0
  3  4  1  0
  4  5  2  0
  4  9  1  0
  5  6  1  0
  5 36  1  0
  6  7  2  0
  6 37  1  0
  7  8  1  0
  7 38  1  0
  8  9  2  0
  8 39  1  0
  9 10  1  0
 10 11  2  0
 10 12  1  0
 12 13  1  0
 12 40  1  0
 13 14  1  0
 13 41  1  0
 13 42  1  0
 14 15  2  0
 14 16  1  0
 16 17  1  0
 17 18  1  0
 17 43  1  0
 17 44  1  0
 18 19  1  0
 18 29  2  0
 19 20  1  0
 19 21  2  0
 20 45  1  0
 20 46  1  0
 20 47  1  0
 21 22  1  0
 22 23  1  0
 22 29  1  0
 23 24  2  0
 23 28  1  0
 24 25  1  0
 24 48  1  0
 25 26  2  0
 25 49  1  0
 26 27  1  0
 26 50  1  0
 27 28  2  0
 27 51  1  0
 28 52  1  0
 29 30  1  0
M  END

