
     RDKit          3D

 52 52  0  0  0  0  0  0  0  0999 V2000
    1.4308    1.7834    0.3034 C   0  0  0  0  0  0  0  0  0  0  0  0
    2.9038    1.3914    0.4163 C   0  0  0  0  0  0  0  0  0  0  0  0
    3.2079    0.5193    1.6344 C   0  0  0  0  0  0  0  0  0  0  0  0
    4.6111    0.1339    1.6718 N   0  0  0  0  0  0  0  0  0  0  0  0
    5.0377   -0.6370    2.8484 C   0  0  1  0  0  0  0  0  0  0  0  0
    4.4542   -2.0600    2.8046 C   0  0  0  0  0  0  0  0  0  0  0  0
    6.5589   -0.6601    2.8938 C   0  0  0  0  0  0  0  0  0  0  0  0
    7.2637   -1.0567    1.7465 C   0  0  0  0  0  0  0  0  0  0  0  0
    8.6503   -1.0724    1.7413 C   0  0  0  0  0  0  0  0  0  0  0  0
    9.2963   -1.4498    0.6195 F   0  0  0  0  0  0  0  0  0  0  0  0
    9.4123   -0.7028    2.8551 C   0  0  0  0  0  0  0  0  0  0  0  0
   10.9168   -0.7356    2.7982 C   0  0  0  0  0  0  0  0  0  0  0  0
    8.6992   -0.3125    3.9935 C   0  0  0  0  0  0  0  0  0  0  0  0
    7.2925   -0.2752    4.0407 C   0  0  0  0  0  0  0  0  0  0  0  0
    6.6050    0.1465    5.2262 N   0  0  0  0  0  0  0  0  0  0  0  0
    6.2267   -0.9456    6.1132 C   0  0  0  0  0  0  0  0  0  0  0  0
    7.1529    1.2905    5.9478 C   0  0  0  0  0  0  0  0  0  0  0  0
    7.2459    2.5929    5.1333 C   0  0  1  0  0  0  0  0  0  0  0  0
    5.8776    3.0136    4.5846 C   0  0  0  0  0  0  0  0  0  0  0  0
    7.9015    3.6873    5.9986 C   0  0  0  0  0  0  0  0  0  0  0  0
    8.2389    4.9852    5.2616 C   0  0  0  0  0  0  0  0  0  0  0  0
    1.2507    2.4167   -0.5795 H   0  0  0  0  0  0  0  0  0  0  0  0
    1.0927    2.3461    1.1898 H   0  0  0  0  0  0  0  0  0  0  0  0
    0.7844    0.8946    0.2108 H   0  0  0  0  0  0  0  0  0  0  0  0
    3.5255    2.3052    0.4636 H   0  0  0  0  0  0  0  0  0  0  0  0
    3.2287    0.8492   -0.4879 H   0  0  0  0  0  0  0  0  0  0  0  0
    2.5866   -0.3915    1.5816 H   0  0  0  0  0  0  0  0  0  0  0  0
    2.8855    1.0528    2.5597 H   0  0  0  0  0  0  0  0  0  0  0  0
    5.1904    0.9702    1.6025 H   0  0  0  0  0  0  0  0  0  0  0  0
    4.6946   -0.1582    3.7868 H   0  0  0  0  0  0  0  0  0  0  0  0
    4.7399   -2.5682    1.8703 H   0  0  0  0  0  0  0  0  0  0  0  0
    3.3549   -2.0455    2.8628 H   0  0  0  0  0  0  0  0  0  0  0  0
    4.8215   -2.6610    3.6503 H   0  0  0  0  0  0  0  0  0  0  0  0
    6.7241   -1.3279    0.8375 H   0  0  0  0  0  0  0  0  0  0  0  0
   11.2867   -1.7439    2.5499 H   0  0  0  0  0  0  0  0  0  0  0  0
   11.3568   -0.4357    3.7602 H   0  0  0  0  0  0  0  0  0  0  0  0
   11.3030   -0.0593    2.0176 H   0  0  0  0  0  0  0  0  0  0  0  0
    9.2663   -0.0227    4.8810 H   0  0  0  0  0  0  0  0  0  0  0  0
    5.7416   -1.7514    5.5449 H   0  0  0  0  0  0  0  0  0  0  0  0
    5.5102   -0.5853    6.8696 H   0  0  0  0  0  0  0  0  0  0  0  0
    7.0941   -1.3903    6.6498 H   0  0  0  0  0  0  0  0  0  0  0  0
    8.1490    1.0695    6.3943 H   0  0  0  0  0  0  0  0  0  0  0  0
    6.4831    1.4689    6.8077 H   0  0  0  0  0  0  0  0  0  0  0  0
    7.9167    2.4083    4.2744 H   0  0  0  0  0  0  0  0  0  0  0  0
    5.1717    3.2261    5.4065 H   0  0  0  0  0  0  0  0  0  0  0  0
    5.4375    2.2173    3.9677 H   0  0  0  0  0  0  0  0  0  0  0  0
    5.9502    3.9192    3.9630 H   0  0  0  0  0  0  0  0  0  0  0  0
    8.8293    3.2783    6.4371 H   0  0  0  0  0  0  0  0  0  0  0  0
    7.2395    3.9122    6.8560 H   0  0  0  0  0  0  0  0  0  0  0  0
    8.8944    4.7944    4.3950 H   0  0  0  0  0  0  0  0  0  0  0  0
    8.7643    5.6906    5.9250 H   0  0  0  0  0  0  0  0  0  0  0  0
    7.3386    5.4982    4.8888 H   0  0  0  0  0  0  0  0  0  0  0  0
  1  2  1  0
  1 22  1  0
  1 23  1  0
  1 24  1  0
  2  3  1  0
  2 25  1  0
  2 26  1  0
  3  4  1  0
  3 27  1  0
  3 28  1  0
  4  5  1  0
  4 29  1  0
  5  6  1  0
  5  7  1  0
  5 30  1  1
  6 31  1  0
  6 32  1  0
  6 33  1  0
  7  8  2  0
  7 14  1  0
  8  9  1  0
  8 34  1  0
  9 10  1  0
  9 11  2  0
 11 12  1  0
 11 13  1  0
 12 35  1  0
 12 36  1  0
 12 37  1  0
 13 14  2  0
 13 38  1  0
 14 15  1  0
 15 16  1  0
 15 17  1  0
 16 39  1  0
 16 40  1  0
 16 41  1  0
 17 18  1  0
 17 42  1  0
 17 43  1  0
 18 19  1  0
 18 20  1  0
 18 44  1  6
 19 45  1  0
 19 46  1  0
 19 47  1  0
 20 21  1  0
 20 48  1  0
 20 49  1  0
 21 50  1  0
 21 51  1  0
 21 52  1  0
M  END

