
     RDKit          3D

 48 49  0  0  0  0  0  0  0  0999 V2000
    1.4333   -0.2527   -0.0865 C   0  0  0  0  0  0  0  0  0  0  0  0
    2.7723   -0.1880    0.3580 O   0  0  0  0  0  0  0  0  0  0  0  0
    3.1951    0.9223    1.1943 C   0  0  1  0  0  0  0  0  0  0  0  0
    2.5726    0.6579    2.6000 C   0  0  1  0  0  0  0  0  0  0  0  0
    2.8150   -0.6848    2.9649 O   0  0  0  0  0  0  0  0  0  0  0  0
    3.0833    1.5667    3.7429 C   0  0  0  0  0  0  0  0  0  0  0  0
    2.3170    1.4336    5.0220 C   0  0  0  0  0  0  0  0  0  0  0  0
    1.3945    2.4516    5.4313 C   0  0  0  0  0  0  0  0  0  0  0  0
    0.6664    2.3342    6.6488 C   0  0  0  0  0  0  0  0  0  0  0  0
    0.8497    1.1866    7.4712 C   0  0  0  0  0  0  0  0  0  0  0  0
    1.7612    0.1498    7.0902 C   0  0  0  0  0  0  0  0  0  0  0  0
    1.9558   -1.0629    7.9370 C   0  0  0  0  0  0  0  0  0  0  0  0
    2.4886    0.2826    5.8610 C   0  0  0  0  0  0  0  0  0  0  0  0
    4.7285    0.8163    1.2070 C   0  0  0  0  0  0  0  0  0  0  0  0
    5.3449    1.0502   -0.1763 C   0  0  0  0  0  0  0  0  0  0  0  0
    4.9493    2.4043   -0.8158 C   0  0  2  0  0  0  0  0  0  0  0  0
    5.4328    2.4379   -2.2751 C   0  0  0  0  0  0  0  0  0  0  0  0
    5.5977    3.5818   -0.0607 C   0  0  0  0  0  0  0  0  0  0  0  0
    3.4045    2.5196   -0.7899 C   0  0  0  0  0  0  0  0  0  0  0  0
    2.7804    2.2748    0.5918 C   0  0  0  0  0  0  0  0  0  0  0  0
    1.3213   -1.2192   -0.6003 H   0  0  0  0  0  0  0  0  0  0  0  0
    1.1852    0.5467   -0.8070 H   0  0  0  0  0  0  0  0  0  0  0  0
    0.6996   -0.2155    0.7395 H   0  0  0  0  0  0  0  0  0  0  0  0
    1.4809    0.8396    2.5117 H   0  0  0  0  0  0  0  0  0  0  0  0
    2.7936   -1.1871    2.1340 H   0  0  0  0  0  0  0  0  0  0  0  0
    3.0503    2.6147    3.4061 H   0  0  0  0  0  0  0  0  0  0  0  0
    4.1414    1.3001    3.9194 H   0  0  0  0  0  0  0  0  0  0  0  0
    1.2590    3.3345    4.8016 H   0  0  0  0  0  0  0  0  0  0  0  0
   -0.0286    3.1197    6.9500 H   0  0  0  0  0  0  0  0  0  0  0  0
    0.2849    1.0866    8.4010 H   0  0  0  0  0  0  0  0  0  0  0  0
    1.3572   -1.0304    8.8591 H   0  0  0  0  0  0  0  0  0  0  0  0
    3.0201   -1.1902    8.2200 H   0  0  0  0  0  0  0  0  0  0  0  0
    1.6894   -1.9873    7.3853 H   0  0  0  0  0  0  0  0  0  0  0  0
    3.1571   -0.5145    5.5350 H   0  0  0  0  0  0  0  0  0  0  0  0
    5.0075   -0.1769    1.5901 H   0  0  0  0  0  0  0  0  0  0  0  0
    5.1231    1.5498    1.9270 H   0  0  0  0  0  0  0  0  0  0  0  0
    5.0174    0.2372   -0.8440 H   0  0  0  0  0  0  0  0  0  0  0  0
    6.4445    0.9808   -0.1080 H   0  0  0  0  0  0  0  0  0  0  0  0
    6.5303    2.3477   -2.3320 H   0  0  0  0  0  0  0  0  0  0  0  0
    5.1487    3.3824   -2.7685 H   0  0  0  0  0  0  0  0  0  0  0  0
    4.9984    1.6095   -2.8585 H   0  0  0  0  0  0  0  0  0  0  0  0
    6.6969    3.4996   -0.0811 H   0  0  0  0  0  0  0  0  0  0  0  0
    5.2936    3.6351    0.9959 H   0  0  0  0  0  0  0  0  0  0  0  0
    5.3273    4.5430   -0.5285 H   0  0  0  0  0  0  0  0  0  0  0  0
    2.9943    1.7850   -1.5030 H   0  0  0  0  0  0  0  0  0  0  0  0
    3.1005    3.5140   -1.1607 H   0  0  0  0  0  0  0  0  0  0  0  0
    1.6819    2.3497    0.5313 H   0  0  0  0  0  0  0  0  0  0  0  0
    3.0909    3.0694    1.2880 H   0  0  0  0  0  0  0  0  0  0  0  0
  1  2  1  0
  1 21  1  0
  1 22  1  0
  1 23  1  0
  3  2  1  6
  3  4  1  0
  3 14  1  0
  3 20  1  0
  4  5  1  0
  4  6  1  0
  4 24  1  6
  5 25  1  0
  6  7  1  0
  6 26  1  0
  6 27  1  0
  7  8  2  0
  7 13  1  0
  8  9  1  0
  8 28  1  0
  9 10  2  0
  9 29  1  0
 10 11  1  0
 10 30  1  0
 11 12  1  0
 11 13  2  0
 12 31  1  0
 12 32  1  0
 12 33  1  0
 13 34  1  0
 14 15  1  0
 14 35  1  0
 14 36  1  0
 15 16  1  0
 15 37  1  0
 15 38  1  0
 16 17  1  6
 16 18  1  0
 16 19  1  0
 17 39  1  0
 17 40  1  0
 17 41  1  0
 18 42  1  0
 18 43  1  0
 18 44  1  0
 19 20  1  0
 19 45  1  0
 19 46  1  0
 20 47  1  0
 20 48  1  0
M  END

