
     RDKit          3D

 40 41  0  0  0  0  0  0  0  0999 V2000
    5.3369    2.0076   -1.4145 C   0  0  0  0  0  0  0  0  0  0  0  0
    4.0414    2.1685   -0.6378 C   0  0  0  0  0  0  0  0  0  0  0  0
    4.2744    2.1985    0.7851 O   0  0  0  0  0  0  0  0  0  0  0  0
    4.3329    1.0197    1.4326 C   0  0  0  0  0  0  0  0  0  0  0  0
    4.2089   -0.0466    0.8790 O   0  0  0  0  0  0  0  0  0  0  0  0
    4.5497    1.2264    2.9061 C   0  0  0  0  0  0  0  0  0  0  0  0
    4.2532    2.4783    3.4574 C   0  0  0  0  0  0  0  0  0  0  0  0
    4.4974    2.7580    4.7985 C   0  0  0  0  0  0  0  0  0  0  0  0
    4.0919    4.3436    5.3905 Cl  0  0  0  0  0  0  0  0  0  0  0  0
    5.0747    1.7755    5.6159 C   0  0  0  0  0  0  0  0  0  0  0  0
    5.3595    0.4936    5.1010 C   0  0  0  0  0  0  0  0  0  0  0  0
    5.0902    0.2084    3.7310 C   0  0  0  0  0  0  0  0  0  0  0  0
    5.4878   -0.9666    3.2091 O   0  0  0  0  0  0  0  0  0  0  0  0
    4.5435   -2.0362    3.0645 C   0  0  0  0  0  0  0  0  0  0  0  0
    5.9677   -0.5911    5.9628 C   0  0  0  0  0  0  0  0  0  0  0  0
    5.6591   -1.7529    5.8189 O   0  0  0  0  0  0  0  0  0  0  0  0
    6.9669   -0.1674    7.0580 C   0  0  2  0  0  0  0  0  0  0  0  0
    8.1800    0.5570    6.4370 C   0  0  0  0  0  0  0  0  0  0  0  0
    7.4380   -1.4096    7.8286 C   0  0  0  0  0  0  0  0  0  0  0  0
    6.1727    0.7245    8.0327 C   0  0  0  0  0  0  0  0  0  0  0  0
    5.5040    2.2540    7.3273 S   0  0  2  0  0  0  0  0  0  0  0  0
    4.2758    2.5737    8.0593 O   0  0  0  0  0  0  0  0  0  0  0  0
    6.5968    3.2308    7.2276 O   0  0  0  0  0  0  0  0  0  0  0  0
    5.1324    2.0714   -2.4952 H   0  0  0  0  0  0  0  0  0  0  0  0
    5.7978    1.0298   -1.2114 H   0  0  0  0  0  0  0  0  0  0  0  0
    6.0543    2.8008   -1.1528 H   0  0  0  0  0  0  0  0  0  0  0  0
    3.3394    1.3529   -0.8649 H   0  0  0  0  0  0  0  0  0  0  0  0
    3.5596    3.1320   -0.8576 H   0  0  0  0  0  0  0  0  0  0  0  0
    3.8382    3.2578    2.8205 H   0  0  0  0  0  0  0  0  0  0  0  0
    4.2169   -2.3827    4.0545 H   0  0  0  0  0  0  0  0  0  0  0  0
    5.0841   -2.8432    2.5534 H   0  0  0  0  0  0  0  0  0  0  0  0
    3.6963   -1.7228    2.4401 H   0  0  0  0  0  0  0  0  0  0  0  0
    8.7053   -0.1190    5.7448 H   0  0  0  0  0  0  0  0  0  0  0  0
    8.8860    0.8472    7.2310 H   0  0  0  0  0  0  0  0  0  0  0  0
    7.9073    1.4718    5.8963 H   0  0  0  0  0  0  0  0  0  0  0  0
    7.9612   -2.1040    7.1557 H   0  0  0  0  0  0  0  0  0  0  0  0
    6.5927   -1.9562    8.2704 H   0  0  0  0  0  0  0  0  0  0  0  0
    8.1296   -1.1147    8.6328 H   0  0  0  0  0  0  0  0  0  0  0  0
    6.7995    1.0930    8.8601 H   0  0  0  0  0  0  0  0  0  0  0  0
    5.3060    0.1926    8.4510 H   0  0  0  0  0  0  0  0  0  0  0  0
  1  2  1  0
  1 24  1  0
  1 25  1  0
  1 26  1  0
  2  3  1  0
  2 27  1  0
  2 28  1  0
  3  4  1  0
  4  5  2  0
  4  6  1  0
  6  7  2  0
  6 12  1  0
  7  8  1  0
  7 29  1  0
  8  9  1  0
  8 10  2  0
 10 11  1  0
 10 21  1  0
 11 12  2  0
 11 15  1  0
 12 13  1  0
 13 14  1  0
 14 30  1  0
 14 31  1  0
 14 32  1  0
 15 16  2  0
 15 17  1  0
 17 18  1  6
 17 19  1  0
 17 20  1  0
 18 33  1  0
 18 34  1  0
 18 35  1  0
 19 36  1  0
 19 37  1  0
 19 38  1  0
 21 20  1  1
 20 39  1  0
 20 40  1  0
 21 22  2  0
 21 23  2  0
M  END

