
     RDKit          3D

 67 70  0  0  0  0  0  0  0  0999 V2000
    5.8962   -3.7459  -10.6039 C   0  0  0  0  0  0  0  0  0  0  0  0
    6.5381   -3.3603   -9.6531 C   0  0  0  0  0  0  0  0  0  0  0  0
    7.3242   -2.8752   -8.5190 C   0  0  0  0  0  0  0  0  0  0  0  0
    7.1886   -3.7428   -7.4142 O   0  0  0  0  0  0  0  0  0  0  0  0
    7.9527   -3.3582   -6.2870 C   0  0  0  0  0  0  0  0  0  0  0  0
    7.6798   -4.3923   -5.1991 C   0  0  1  0  0  0  0  0  0  0  0  0
    6.6056   -4.3248   -4.9394 H   0  0  0  0  0  0  0  0  0  0  0  0
    7.9796   -5.6865   -5.6858 O   0  0  0  0  0  0  0  0  0  0  0  0
    8.5192   -4.1286   -3.9461 C   0  0  0  0  0  0  0  0  0  0  0  0
    8.2797   -5.0714   -2.8578 N   0  0  0  0  0  0  0  0  0  0  0  0
    7.3825   -4.6131   -1.7998 C   0  0  0  0  0  0  0  0  0  0  0  0
    5.9512   -4.4066   -2.2169 C   0  0  0  0  0  0  0  0  0  0  0  0
    5.0411   -5.3121   -2.8528 C   0  0  0  0  0  0  0  0  0  0  0  0
    5.3096   -6.7359   -3.2843 C   0  0  1  0  0  0  0  0  0  0  0  0
    5.1470   -7.7007   -2.0934 C   0  0  0  0  0  0  0  0  0  0  0  0
    4.4285   -7.1587   -4.4657 C   0  0  0  0  0  0  0  0  0  0  0  0
    3.8446   -4.7601   -3.0060 N   0  0  0  0  0  0  0  0  0  0  0  0
    3.9176   -3.5146   -2.4792 N   0  0  0  0  0  0  0  0  0  0  0  0
    2.7749   -2.6688   -2.4976 C   0  0  0  0  0  0  0  0  0  0  0  0
    2.5743   -1.6953   -1.5076 C   0  0  0  0  0  0  0  0  0  0  0  0
    1.4373   -0.8848   -1.5587 C   0  0  0  0  0  0  0  0  0  0  0  0
    0.4923   -1.0457   -2.5751 C   0  0  0  0  0  0  0  0  0  0  0  0
    0.6908   -2.0308   -3.5484 C   0  0  0  0  0  0  0  0  0  0  0  0
    1.8265   -2.8398   -3.5178 C   0  0  0  0  0  0  0  0  0  0  0  0
    5.1857   -3.2744   -2.0067 C   0  0  0  0  0  0  0  0  0  0  0  0
    5.5351   -2.1012   -1.4136 O   0  0  0  0  0  0  0  0  0  0  0  0
    6.0024   -1.0484   -2.1709 C   0  0  0  0  0  0  0  0  0  0  0  0
    6.4639    0.0683   -1.4629 C   0  0  0  0  0  0  0  0  0  0  0  0
    6.9553    1.1676   -2.1672 C   0  0  0  0  0  0  0  0  0  0  0  0
    6.9994    1.1694   -3.5661 C   0  0  0  0  0  0  0  0  0  0  0  0
    6.5292    0.0432   -4.2335 C   0  0  0  0  0  0  0  0  0  0  0  0
    6.5729    0.0116   -5.5780 F   0  0  0  0  0  0  0  0  0  0  0  0
    6.0219   -1.0712   -3.5683 C   0  0  0  0  0  0  0  0  0  0  0  0
    9.4619   -5.7160   -2.3561 C   0  0  1  0  0  0  0  0  0  0  0  0
    9.3833   -7.1719   -1.9711 C   0  0  0  0  0  0  0  0  0  0  0  0
   10.1203   -6.7569   -3.2201 C   0  0  0  0  0  0  0  0  0  0  0  0
    5.3240   -4.0902  -11.4449 H   0  0  0  0  0  0  0  0  0  0  0  0
    6.9907   -1.8514   -8.2493 H   0  0  0  0  0  0  0  0  0  0  0  0
    8.3896   -2.7904   -8.8218 H   0  0  0  0  0  0  0  0  0  0  0  0
    7.6705   -2.3415   -5.9523 H   0  0  0  0  0  0  0  0  0  0  0  0
    9.0336   -3.3482   -6.5397 H   0  0  0  0  0  0  0  0  0  0  0  0
    7.5527   -5.7538   -6.5532 H   0  0  0  0  0  0  0  0  0  0  0  0
    8.3454   -3.0832   -3.6197 H   0  0  0  0  0  0  0  0  0  0  0  0
    9.5786   -4.1970   -4.2410 H   0  0  0  0  0  0  0  0  0  0  0  0
    7.7450   -3.6733   -1.3260 H   0  0  0  0  0  0  0  0  0  0  0  0
    7.4129   -5.3814   -1.0095 H   0  0  0  0  0  0  0  0  0  0  0  0
    6.3622   -6.7671   -3.6084 H   0  0  0  0  0  0  0  0  0  0  0  0
    4.1043   -7.7073   -1.7359 H   0  0  0  0  0  0  0  0  0  0  0  0
    5.7893   -7.4154   -1.2451 H   0  0  0  0  0  0  0  0  0  0  0  0
    5.4147   -8.7291   -2.3864 H   0  0  0  0  0  0  0  0  0  0  0  0
    3.3603   -7.1040   -4.2062 H   0  0  0  0  0  0  0  0  0  0  0  0
    4.6599   -8.1937   -4.7644 H   0  0  0  0  0  0  0  0  0  0  0  0
    4.5937   -6.5081   -5.3386 H   0  0  0  0  0  0  0  0  0  0  0  0
    3.2954   -1.5785   -0.6996 H   0  0  0  0  0  0  0  0  0  0  0  0
    1.2872   -0.1277   -0.7850 H   0  0  0  0  0  0  0  0  0  0  0  0
   -0.3966   -0.4111   -2.6064 H   0  0  0  0  0  0  0  0  0  0  0  0
   -0.0442   -2.1700   -4.3453 H   0  0  0  0  0  0  0  0  0  0  0  0
    1.9922   -3.6149   -4.2656 H   0  0  0  0  0  0  0  0  0  0  0  0
    6.4347    0.0524   -0.3724 H   0  0  0  0  0  0  0  0  0  0  0  0
    7.3177    2.0393   -1.6171 H   0  0  0  0  0  0  0  0  0  0  0  0
    7.3865    2.0156   -4.1352 H   0  0  0  0  0  0  0  0  0  0  0  0
    5.6497   -1.9224   -4.1374 H   0  0  0  0  0  0  0  0  0  0  0  0
   10.1362   -5.0908   -1.7418 H   0  0  0  0  0  0  0  0  0  0  0  0
    8.4174   -7.6678   -2.0973 H   0  0  0  0  0  0  0  0  0  0  0  0
    9.9627   -7.5096   -1.1069 H   0  0  0  0  0  0  0  0  0  0  0  0
    9.6391   -6.9488   -4.1824 H   0  0  0  0  0  0  0  0  0  0  0  0
   11.2129   -6.8086   -3.2228 H   0  0  0  0  0  0  0  0  0  0  0  0
  1  2  3  0
  1 37  1  0
  2  3  1  0
  3  4  1  0
  3 38  1  0
  3 39  1  0
  4  5  1  0
  5  6  1  0
  5 40  1  0
  5 41  1  0
  6  7  1  1
  6  8  1  0
  6  9  1  0
  8 42  1  0
  9 10  1  0
  9 43  1  0
  9 44  1  0
 10 11  1  0
 10 34  1  0
 11 12  1  0
 11 45  1  0
 11 46  1  0
 12 13  1  0
 12 25  2  0
 13 14  1  0
 13 17  2  0
 14 15  1  0
 14 16  1  0
 14 47  1  6
 15 48  1  0
 15 49  1  0
 15 50  1  0
 16 51  1  0
 16 52  1  0
 16 53  1  0
 17 18  1  0
 18 19  1  0
 18 25  1  0
 19 20  2  0
 19 24  1  0
 20 21  1  0
 20 54  1  0
 21 22  2  0
 21 55  1  0
 22 23  1  0
 22 56  1  0
 23 24  2  0
 23 57  1  0
 24 58  1  0
 25 26  1  0
 26 27  1  0
 27 28  2  0
 27 33  1  0
 28 29  1  0
 28 59  1  0
 29 30  2  0
 29 60  1  0
 30 31  1  0
 30 61  1  0
 31 32  1  0
 31 33  2  0
 33 62  1  0
 34 35  1  0
 34 36  1  0
 34 63  1  1
 35 36  1  0
 35 64  1  0
 35 65  1  0
 36 66  1  0
 36 67  1  0
M  END

