
     RDKit          3D

 39 41  0  0  0  0  0  0  0  0999 V2000
    1.0226    2.9296   -0.7429 C   0  0  0  0  0  0  0  0  0  0  0  0
    1.9955    1.8384   -1.1738 C   0  0  0  0  0  0  0  0  0  0  0  0
    3.3150    2.5741   -2.2229 S   0  0  0  0  0  0  0  0  0  0  0  0
    4.2590    1.1346   -2.5689 C   0  0  0  0  0  0  0  0  0  0  0  0
    3.9889   -0.0606   -2.1287 N   0  0  0  0  0  0  0  0  0  0  0  0
    4.8826   -0.9994   -2.5474 N   0  0  0  0  0  0  0  0  0  0  0  0
    5.8212   -0.5046   -3.3018 C   0  0  0  0  0  0  0  0  0  0  0  0
    6.8177   -1.3044   -3.8223 N   0  0  0  0  0  0  0  0  0  0  0  0
    7.8366   -0.8581   -4.6300 C   0  0  0  0  0  0  0  0  0  0  0  0
    7.9208    0.3226   -4.9397 O   0  0  0  0  0  0  0  0  0  0  0  0
    8.8350   -1.8715   -5.1196 C   0  0  0  0  0  0  0  0  0  0  0  0
    9.8217   -1.3709   -5.9879 C   0  0  0  0  0  0  0  0  0  0  0  0
   10.8110   -2.1883   -6.5262 C   0  0  0  0  0  0  0  0  0  0  0  0
   10.8260   -3.5475   -6.2004 C   0  0  0  0  0  0  0  0  0  0  0  0
    9.8635   -4.0782   -5.3415 C   0  0  0  0  0  0  0  0  0  0  0  0
    8.8742   -3.2494   -4.7969 C   0  0  0  0  0  0  0  0  0  0  0  0
    7.9009   -3.7505   -3.9638 O   0  0  0  0  0  0  0  0  0  0  0  0
    8.0137   -5.0040   -3.3746 C   0  0  0  0  0  0  0  0  0  0  0  0
    8.9325   -5.2162   -2.3429 C   0  0  0  0  0  0  0  0  0  0  0  0
    8.9757   -6.4656   -1.7192 C   0  0  0  0  0  0  0  0  0  0  0  0
    8.1046   -7.4854   -2.1180 C   0  0  0  0  0  0  0  0  0  0  0  0
    7.1854   -7.2545   -3.1456 C   0  0  0  0  0  0  0  0  0  0  0  0
    7.1368   -6.0103   -3.7820 C   0  0  0  0  0  0  0  0  0  0  0  0
    5.7003    1.2250   -3.5880 S   0  0  0  0  0  0  0  0  0  0  0  0
    0.2301    2.4918   -0.1154 H   0  0  0  0  0  0  0  0  0  0  0  0
    0.5396    3.4095   -1.6088 H   0  0  0  0  0  0  0  0  0  0  0  0
    1.5245    3.7132   -0.1534 H   0  0  0  0  0  0  0  0  0  0  0  0
    1.5016    1.0504   -1.7598 H   0  0  0  0  0  0  0  0  0  0  0  0
    2.4805    1.3524   -0.3155 H   0  0  0  0  0  0  0  0  0  0  0  0
    6.7730   -2.2927   -3.5788 H   0  0  0  0  0  0  0  0  0  0  0  0
    9.7766   -0.3059   -6.2211 H   0  0  0  0  0  0  0  0  0  0  0  0
   11.5641   -1.7704   -7.1975 H   0  0  0  0  0  0  0  0  0  0  0  0
   11.5903   -4.2076   -6.6186 H   0  0  0  0  0  0  0  0  0  0  0  0
    9.8727   -5.1394   -5.0919 H   0  0  0  0  0  0  0  0  0  0  0  0
    9.5979   -4.4069   -2.0352 H   0  0  0  0  0  0  0  0  0  0  0  0
    9.6889   -6.6390   -0.9096 H   0  0  0  0  0  0  0  0  0  0  0  0
    8.1390   -8.4586   -1.6227 H   0  0  0  0  0  0  0  0  0  0  0  0
    6.4983   -8.0456   -3.4557 H   0  0  0  0  0  0  0  0  0  0  0  0
    6.4238   -5.8060   -4.5830 H   0  0  0  0  0  0  0  0  0  0  0  0
  1  2  1  0
  1 25  1  0
  1 26  1  0
  1 27  1  0
  2  3  1  0
  2 28  1  0
  2 29  1  0
  3  4  1  0
  4  5  2  0
  4 24  1  0
  5  6  1  0
  6  7  2  0
  7  8  1  0
  7 24  1  0
  8  9  1  0
  8 30  1  0
  9 10  2  0
  9 11  1  0
 11 12  2  0
 11 16  1  0
 12 13  1  0
 12 31  1  0
 13 14  2  0
 13 32  1  0
 14 15  1  0
 14 33  1  0
 15 16  2  0
 15 34  1  0
 16 17  1  0
 17 18  1  0
 18 19  2  0
 18 23  1  0
 19 20  1  0
 19 35  1  0
 20 21  2  0
 20 36  1  0
 21 22  1  0
 21 37  1  0
 22 23  2  0
 22 38  1  0
 23 39  1  0
M  END

