
     RDKit          3D

 49 52  0  0  0  0  0  0  0  0999 V2000
    2.7409   -2.4159    2.7711 O   0  0  0  0  0  0  0  0  0  0  0  0
    2.3091   -1.4336    2.1978 C   0  0  0  0  0  0  0  0  0  0  0  0
    1.1899   -0.7155    2.5749 N   0  0  0  0  0  0  0  0  0  0  0  0
    0.3134   -0.9242    3.6280 C   0  0  0  0  0  0  0  0  0  0  0  0
    0.4511   -1.9937    4.5528 C   0  0  0  0  0  0  0  0  0  0  0  0
   -0.4655   -2.1432    5.5743 C   0  0  0  0  0  0  0  0  0  0  0  0
   -1.5645   -1.2413    5.7353 C   0  0  0  0  0  0  0  0  0  0  0  0
   -2.4907   -1.3855    6.7653 C   0  0  0  0  0  0  0  0  0  0  0  0
   -3.3571   -1.4327    7.6554 C   0  0  0  0  0  0  0  0  0  0  0  0
   -4.3088   -1.4891    8.6547 C   0  0  0  0  0  0  0  0  0  0  0  0
   -4.3609   -2.4461    9.7327 C   0  0  0  0  0  0  0  0  0  0  0  0
   -5.3441   -2.2065   10.5611 N   0  0  0  0  0  0  0  0  0  0  0  0
   -5.9681   -1.1012   10.0555 N   0  0  0  0  0  0  0  0  0  0  0  0
   -6.7676   -0.6946   10.5293 H   0  0  0  0  0  0  0  0  0  0  0  0
   -5.4307   -0.5949    8.9180 C   0  0  0  0  0  0  0  0  0  0  0  0
   -5.9281    0.5546    8.2149 C   0  0  0  0  0  0  0  0  0  0  0  0
   -5.3642    0.9412    6.9479 C   0  0  0  0  0  0  0  0  0  0  0  0
   -5.8083    2.0721    6.2874 C   0  0  0  0  0  0  0  0  0  0  0  0
   -5.0665    2.4997    4.7436 Cl  0  0  0  0  0  0  0  0  0  0  0  0
   -6.8281    2.8866    6.7972 C   0  0  0  0  0  0  0  0  0  0  0  0
   -7.4148    2.5083    8.0302 C   0  0  0  0  0  0  0  0  0  0  0  0
   -6.9852    1.3832    8.7177 C   0  0  0  0  0  0  0  0  0  0  0  0
   -7.5596    1.0257    9.9122 O   0  0  0  0  0  0  0  0  0  0  0  0
   -1.6876   -0.1661    4.7933 C   0  0  0  0  0  0  0  0  0  0  0  0
   -0.7708   -0.0203    3.7743 C   0  0  0  0  0  0  0  0  0  0  0  0
    3.0290   -0.8232    0.9905 C   0  0  2  0  0  0  0  0  0  0  0  0
    3.4608   -1.6733    0.4263 H   0  0  0  0  0  0  0  0  0  0  0  0
    4.2020    0.0406    1.5035 C   0  0  0  0  0  0  0  0  0  0  0  0
    4.8557    0.7058    0.4514 O   0  0  0  0  0  0  0  0  0  0  0  0
    3.9759    1.5641   -0.2480 C   0  0  0  0  0  0  0  0  0  0  0  0
    2.8327    0.7684   -0.8631 C   0  0  0  0  0  0  0  0  0  0  0  0
    2.1356    0.0106    0.1827 N   0  0  0  0  0  0  0  0  0  0  0  0
    1.0134    0.0790    1.9551 H   0  0  0  0  0  0  0  0  0  0  0  0
    1.2848   -2.6834    4.4395 H   0  0  0  0  0  0  0  0  0  0  0  0
   -0.3556   -2.9665    6.2827 H   0  0  0  0  0  0  0  0  0  0  0  0
   -3.6821   -3.2839    9.8918 H   0  0  0  0  0  0  0  0  0  0  0  0
   -4.5887    0.3297    6.4985 H   0  0  0  0  0  0  0  0  0  0  0  0
   -7.1613    3.7747    6.2617 H   0  0  0  0  0  0  0  0  0  0  0  0
   -8.2241    3.1128    8.4527 H   0  0  0  0  0  0  0  0  0  0  0  0
   -8.2385    1.6723   10.1463 H   0  0  0  0  0  0  0  0  0  0  0  0
   -2.5169    0.5382    4.8869 H   0  0  0  0  0  0  0  0  0  0  0  0
   -0.8792    0.8045    3.0644 H   0  0  0  0  0  0  0  0  0  0  0  0
    4.9367   -0.6037    2.0056 H   0  0  0  0  0  0  0  0  0  0  0  0
    3.8128    0.7728    2.2413 H   0  0  0  0  0  0  0  0  0  0  0  0
    4.5643    2.0653   -1.0307 H   0  0  0  0  0  0  0  0  0  0  0  0
    3.5702    2.3384    0.4351 H   0  0  0  0  0  0  0  0  0  0  0  0
    3.2526    0.1029   -1.6456 H   0  0  0  0  0  0  0  0  0  0  0  0
    2.1166    1.4504   -1.3497 H   0  0  0  0  0  0  0  0  0  0  0  0
    1.4209   -0.5756   -0.2491 H   0  0  0  0  0  0  0  0  0  0  0  0
  1  2  2  0
  2  3  1  0
  2 26  1  0
  3  4  1  0
  3 33  1  0
  4  5  2  0
  4 25  1  0
  5  6  1  0
  5 34  1  0
  6  7  2  0
  6 35  1  0
  7  8  1  0
  7 24  1  0
  8  9  3  0
  9 10  1  0
 10 11  1  0
 10 15  2  0
 11 12  2  0
 11 36  1  0
 12 13  1  0
 13 14  1  0
 13 15  1  0
 15 16  1  0
 16 17  2  0
 16 22  1  0
 17 18  1  0
 17 37  1  0
 18 19  1  0
 18 20  2  0
 20 21  1  0
 20 38  1  0
 21 22  2  0
 21 39  1  0
 22 23  1  0
 23 40  1  0
 24 25  2  0
 24 41  1  0
 25 42  1  0
 26 27  1  6
 26 28  1  0
 26 32  1  0
 28 29  1  0
 28 43  1  0
 28 44  1  0
 29 30  1  0
 30 31  1  0
 30 45  1  0
 30 46  1  0
 31 32  1  0
 31 47  1  0
 31 48  1  0
 32 49  1  0
M  END

