
     RDKit          3D

 56 60  0  0  0  0  0  0  0  0999 V2000
    2.0636   -0.3257   -1.0949 C   0  0  0  0  0  0  0  0  0  0  0  0
    3.1751    0.5777   -0.5742 C   0  0  0  0  0  0  0  0  0  0  0  0
    3.9101   -0.0231    0.4804 O   0  0  0  0  0  0  0  0  0  0  0  0
    3.3745    0.1001    1.7576 C   0  0  0  0  0  0  0  0  0  0  0  0
    2.3225    0.7128    1.9474 O   0  0  0  0  0  0  0  0  0  0  0  0
    4.1768   -0.5461    2.7634 C   0  0  0  0  0  0  0  0  0  0  0  0
    3.7485   -0.5011    4.1342 C   0  0  0  0  0  0  0  0  0  0  0  0
    4.4895   -1.0955    5.1329 C   0  0  0  0  0  0  0  0  0  0  0  0
    5.7095   -1.7800    4.8525 C   0  0  0  0  0  0  0  0  0  0  0  0
    6.4731   -2.4395    5.9519 C   0  0  1  0  0  0  0  0  0  0  0  0
    6.7306   -3.9616    5.8244 C   0  0  0  0  0  0  0  0  0  0  0  0
    8.2303   -4.0850    5.7275 C   0  0  0  0  0  0  0  0  0  0  0  0
    8.9450   -5.3221    5.4713 C   0  0  0  0  0  0  0  0  0  0  0  0
    8.1833   -6.5002    5.5345 C   0  0  0  0  0  0  0  0  0  0  0  0
    8.7510   -7.7736    5.3782 C   0  0  0  0  0  0  0  0  0  0  0  0
   10.1070   -7.8935    5.1456 C   0  0  0  0  0  0  0  0  0  0  0  0
   10.9341   -6.7435    5.0364 C   0  0  0  0  0  0  0  0  0  0  0  0
   12.3222   -6.8904    4.7622 C   0  0  0  0  0  0  0  0  0  0  0  0
   13.1371   -5.7887    4.6138 C   0  0  0  0  0  0  0  0  0  0  0  0
   12.5811   -4.4959    4.7271 C   0  0  0  0  0  0  0  0  0  0  0  0
   11.2362   -4.3191    5.0032 C   0  0  0  0  0  0  0  0  0  0  0  0
   10.3673   -5.4282    5.1827 C   0  0  0  0  0  0  0  0  0  0  0  0
    8.8304   -2.9261    5.9218 N   0  0  0  0  0  0  0  0  0  0  0  0
    7.9328   -1.9674    6.1194 N   0  0  0  0  0  0  0  0  0  0  0  0
    8.3497   -0.7047    6.4663 C   0  0  0  0  0  0  0  0  0  0  0  0
    9.7275   -0.4502    6.7215 C   0  0  0  0  0  0  0  0  0  0  0  0
   10.1445    0.8137    7.0995 C   0  0  0  0  0  0  0  0  0  0  0  0
    9.1959    1.8370    7.2261 C   0  0  0  0  0  0  0  0  0  0  0  0
    9.6001    3.0484    7.5906 F   0  0  0  0  0  0  0  0  0  0  0  0
    7.8362    1.6148    6.9789 C   0  0  0  0  0  0  0  0  0  0  0  0
    7.4087    0.3535    6.5994 C   0  0  0  0  0  0  0  0  0  0  0  0
    6.1301   -1.8424    3.4886 C   0  0  0  0  0  0  0  0  0  0  0  0
    5.3984   -1.2476    2.4826 C   0  0  0  0  0  0  0  0  0  0  0  0
    1.5668    0.1342   -1.9659 H   0  0  0  0  0  0  0  0  0  0  0  0
    1.3095   -0.4855   -0.3105 H   0  0  0  0  0  0  0  0  0  0  0  0
    2.4660   -1.3045   -1.4026 H   0  0  0  0  0  0  0  0  0  0  0  0
    2.7491    1.5342   -0.2317 H   0  0  0  0  0  0  0  0  0  0  0  0
    3.9116    0.7824   -1.3690 H   0  0  0  0  0  0  0  0  0  0  0  0
    2.8128    0.0139    4.3580 H   0  0  0  0  0  0  0  0  0  0  0  0
    4.1210   -1.0544    6.1653 H   0  0  0  0  0  0  0  0  0  0  0  0
    5.9932   -2.2144    6.9159 H   0  0  0  0  0  0  0  0  0  0  0  0
    6.2305   -4.3677    4.9344 H   0  0  0  0  0  0  0  0  0  0  0  0
    6.3474   -4.5089    6.7003 H   0  0  0  0  0  0  0  0  0  0  0  0
    7.1137   -6.4348    5.7329 H   0  0  0  0  0  0  0  0  0  0  0  0
    8.1183   -8.6605    5.4488 H   0  0  0  0  0  0  0  0  0  0  0  0
   10.5632   -8.8802    5.0312 H   0  0  0  0  0  0  0  0  0  0  0  0
   12.7293   -7.8997    4.6616 H   0  0  0  0  0  0  0  0  0  0  0  0
   14.2010   -5.9118    4.3986 H   0  0  0  0  0  0  0  0  0  0  0  0
   13.2188   -3.6194    4.5885 H   0  0  0  0  0  0  0  0  0  0  0  0
   10.8303   -3.3145    5.0761 H   0  0  0  0  0  0  0  0  0  0  0  0
   10.4430   -1.2648    6.6292 H   0  0  0  0  0  0  0  0  0  0  0  0
   11.1939    1.0295    7.3068 H   0  0  0  0  0  0  0  0  0  0  0  0
    7.1321    2.4425    7.0744 H   0  0  0  0  0  0  0  0  0  0  0  0
    6.3611    0.1874    6.3630 H   0  0  0  0  0  0  0  0  0  0  0  0
    7.0578   -2.3614    3.2231 H   0  0  0  0  0  0  0  0  0  0  0  0
    5.7418   -1.3026    1.4491 H   0  0  0  0  0  0  0  0  0  0  0  0
  1  2  1  0
  1 34  1  0
  1 35  1  0
  1 36  1  0
  2  3  1  0
  2 37  1  0
  2 38  1  0
  3  4  1  0
  4  5  2  0
  4  6  1  0
  6  7  2  0
  6 33  1  0
  7  8  1  0
  7 39  1  0
  8  9  2  0
  8 40  1  0
  9 10  1  0
  9 32  1  0
 10 11  1  0
 10 24  1  0
 10 41  1  1
 11 12  1  0
 11 42  1  0
 11 43  1  0
 12 13  1  0
 12 23  2  0
 13 14  2  0
 13 22  1  0
 14 15  1  0
 14 44  1  0
 15 16  2  0
 15 45  1  0
 16 17  1  0
 16 46  1  0
 17 18  1  0
 17 22  2  0
 18 19  2  0
 18 47  1  0
 19 20  1  0
 19 48  1  0
 20 21  2  0
 20 49  1  0
 21 22  1  0
 21 50  1  0
 23 24  1  0
 24 25  1  0
 25 26  2  0
 25 31  1  0
 26 27  1  0
 26 51  1  0
 27 28  2  0
 27 52  1  0
 28 29  1  0
 28 30  1  0
 30 31  2  0
 30 53  1  0
 31 54  1  0
 32 33  2  0
 32 55  1  0
 33 56  1  0
M  END

