
     RDKit          3D

 31 32  0  0  0  0  0  0  0  0999 V2000
    1.4277   -0.7416    1.1277 C   0  0  0  0  0  0  0  0  0  0  0  0
    2.2043   -0.1071   -0.0054 C   0  0  0  0  0  0  0  0  0  0  0  0
    2.3002    1.0996   -0.0944 O   0  0  0  0  0  0  0  0  0  0  0  0
    2.8761   -0.9800   -1.0465 C   0  0  0  0  0  0  0  0  0  0  0  0
    3.5784   -0.3111   -2.0657 C   0  0  0  0  0  0  0  0  0  0  0  0
    4.2348   -1.0176   -3.0795 C   0  0  0  0  0  0  0  0  0  0  0  0
    4.9549   -0.4028   -4.1263 N   0  0  0  0  0  0  0  0  0  0  0  0
    5.1303    0.9464   -4.3537 C   0  0  0  0  0  0  0  0  0  0  0  0
    4.6757    1.8359   -3.6640 O   0  0  0  0  0  0  0  0  0  0  0  0
    5.9044    1.2061   -5.4911 N   0  0  0  0  0  0  0  0  0  0  0  0
    6.2359    2.4629   -5.9533 C   0  0  0  0  0  0  0  0  0  0  0  0
    6.9795    2.7585   -7.0411 C   0  0  0  0  0  0  0  0  0  0  0  0
    7.0792    4.2242   -7.1576 C   0  0  0  0  0  0  0  0  0  0  0  0
    7.6425    4.8983   -7.9745 O   0  0  0  0  0  0  0  0  0  0  0  0
    6.3725    4.7708   -6.1084 O   0  0  0  0  0  0  0  0  0  0  0  0
    5.8072    3.7559   -5.2964 C   0  0  0  0  0  0  0  0  0  0  0  0
    4.1861   -2.4252   -3.0709 C   0  0  0  0  0  0  0  0  0  0  0  0
    3.4979   -3.1037   -2.0714 C   0  0  0  0  0  0  0  0  0  0  0  0
    2.8508   -2.3811   -1.0713 C   0  0  0  0  0  0  0  0  0  0  0  0
    2.1977   -3.0804   -0.1273 F   0  0  0  0  0  0  0  0  0  0  0  0
    1.0264    0.0586    1.7622 H   0  0  0  0  0  0  0  0  0  0  0  0
    2.0719   -1.4085    1.7212 H   0  0  0  0  0  0  0  0  0  0  0  0
    0.6073   -1.3659    0.7410 H   0  0  0  0  0  0  0  0  0  0  0  0
    3.5930    0.7761   -2.0397 H   0  0  0  0  0  0  0  0  0  0  0  0
    5.3821   -1.0493   -4.7783 H   0  0  0  0  0  0  0  0  0  0  0  0
    6.2645    0.4299   -6.0356 H   0  0  0  0  0  0  0  0  0  0  0  0
    7.4515    2.0797   -7.7490 H   0  0  0  0  0  0  0  0  0  0  0  0
    4.7115    3.8603   -5.2585 H   0  0  0  0  0  0  0  0  0  0  0  0
    6.1777    3.8406   -4.2627 H   0  0  0  0  0  0  0  0  0  0  0  0
    4.6918   -2.9977   -3.8542 H   0  0  0  0  0  0  0  0  0  0  0  0
    3.4520   -4.1940   -2.0522 H   0  0  0  0  0  0  0  0  0  0  0  0
  1  2  1  0
  1 21  1  0
  1 22  1  0
  1 23  1  0
  2  3  2  0
  2  4  1  0
  4  5  2  0
  4 19  1  0
  5  6  1  0
  5 24  1  0
  6  7  1  0
  6 17  2  0
  7  8  1  0
  7 25  1  0
  8  9  2  0
  8 10  1  0
 10 11  1  0
 10 26  1  0
 11 12  2  0
 11 16  1  0
 12 13  1  0
 12 27  1  0
 13 14  2  0
 13 15  1  0
 15 16  1  0
 16 28  1  0
 16 29  1  0
 17 18  1  0
 17 30  1  0
 18 19  2  0
 18 31  1  0
 19 20  1  0
M  END

