
     RDKit          3D

 50 53  0  0  0  0  0  0  0  0999 V2000
    1.2905   -0.4163   -0.2119 C   0  0  0  0  0  0  0  0  0  0  0  0
    2.6895   -0.2628   -0.3474 O   0  0  0  0  0  0  0  0  0  0  0  0
    3.2114    0.9757   -0.3476 C   0  0  0  0  0  0  0  0  0  0  0  0
    2.4808    2.1394   -0.2207 C   0  0  0  0  0  0  0  0  0  0  0  0
    3.1124    3.4161   -0.2309 C   0  0  0  0  0  0  0  0  0  0  0  0
    2.4004    4.6530   -0.1146 C   0  0  0  0  0  0  0  0  0  0  0  0
    0.9379    4.7714    0.0128 C   0  0  0  0  0  0  0  0  0  0  0  0
    0.0296    3.7504    0.0590 N   0  0  0  0  0  0  0  0  0  0  0  0
   -1.1497    4.2850    0.1724 N   0  0  0  0  0  0  0  0  0  0  0  0
   -0.9456    5.5895    0.1935 N   0  0  0  0  0  0  0  0  0  0  0  0
   -1.7087    6.2563    0.2746 H   0  0  0  0  0  0  0  0  0  0  0  0
    0.3157    5.9537    0.0992 N   0  0  0  0  0  0  0  0  0  0  0  0
    3.1363    5.8378   -0.1186 C   0  0  0  0  0  0  0  0  0  0  0  0
    4.4690    5.8937   -0.2142 N   0  0  0  0  0  0  0  0  0  0  0  0
    5.1646    4.7707   -0.3477 C   0  0  0  0  0  0  0  0  0  0  0  0
    6.6576    4.9531   -0.5398 C   0  0  0  0  0  0  0  0  0  0  0  0
    7.2814    4.1796   -1.2506 O   0  0  0  0  0  0  0  0  0  0  0  0
    7.3802    6.0960    0.1221 C   0  0  0  0  0  0  0  0  0  0  0  0
    8.6606    6.3998   -0.3669 C   0  0  0  0  0  0  0  0  0  0  0  0
    9.4153    7.4092    0.2331 C   0  0  0  0  0  0  0  0  0  0  0  0
    8.9148    8.1104    1.3285 C   0  0  0  0  0  0  0  0  0  0  0  0
    7.6397    7.8045    1.8321 C   0  0  0  0  0  0  0  0  0  0  0  0
    7.2288    8.5311    2.9084 O   0  0  0  0  0  0  0  0  0  0  0  0
    5.9412    8.3110    3.4678 C   0  0  0  0  0  0  0  0  0  0  0  0
    5.7728    9.3329    4.5787 C   0  0  0  0  0  0  0  0  0  0  0  0
    5.8332   10.6509    4.0941 O   0  0  0  0  0  0  0  0  0  0  0  0
    6.8711    6.8026    1.2280 C   0  0  0  0  0  0  0  0  0  0  0  0
    4.5438    3.4794   -0.3747 C   0  0  0  0  0  0  0  0  0  0  0  0
    5.2749    2.2620   -0.5148 C   0  0  0  0  0  0  0  0  0  0  0  0
    4.6438    1.0378   -0.5009 C   0  0  0  0  0  0  0  0  0  0  0  0
    5.2583   -0.1535   -0.6284 O   0  0  0  0  0  0  0  0  0  0  0  0
    6.6602   -0.1818   -0.8024 C   0  0  0  0  0  0  0  0  0  0  0  0
    1.0935   -1.4957   -0.2419 H   0  0  0  0  0  0  0  0  0  0  0  0
    0.7468    0.0776   -1.0359 H   0  0  0  0  0  0  0  0  0  0  0  0
    0.9274   -0.0054    0.7462 H   0  0  0  0  0  0  0  0  0  0  0  0
    1.4013    2.1021   -0.1119 H   0  0  0  0  0  0  0  0  0  0  0  0
    2.6134    6.7944   -0.0330 H   0  0  0  0  0  0  0  0  0  0  0  0
    9.0452    5.8306   -1.2138 H   0  0  0  0  0  0  0  0  0  0  0  0
   10.4083    7.6523   -0.1535 H   0  0  0  0  0  0  0  0  0  0  0  0
    9.4928    8.8992    1.8147 H   0  0  0  0  0  0  0  0  0  0  0  0
    5.8561    7.2812    3.8636 H   0  0  0  0  0  0  0  0  0  0  0  0
    5.1625    8.4569    2.6973 H   0  0  0  0  0  0  0  0  0  0  0  0
    6.5376    9.1408    5.3596 H   0  0  0  0  0  0  0  0  0  0  0  0
    4.7839    9.1938    5.0456 H   0  0  0  0  0  0  0  0  0  0  0  0
    6.6572   10.7209    3.5908 H   0  0  0  0  0  0  0  0  0  0  0  0
    5.8768    6.5714    1.5971 H   0  0  0  0  0  0  0  0  0  0  0  0
    6.3477    2.3238   -0.6640 H   0  0  0  0  0  0  0  0  0  0  0  0
    6.9401   -1.2395   -0.8935 H   0  0  0  0  0  0  0  0  0  0  0  0
    7.1863    0.2598    0.0624 H   0  0  0  0  0  0  0  0  0  0  0  0
    6.9672    0.3570   -1.7158 H   0  0  0  0  0  0  0  0  0  0  0  0
  1  2  1  0
  1 33  1  0
  1 34  1  0
  1 35  1  0
  2  3  1  0
  3  4  2  0
  3 30  1  0
  4  5  1  0
  4 36  1  0
  5  6  2  0
  5 28  1  0
  6  7  1  0
  6 13  1  0
  7  8  1  0
  7 12  2  0
  8  9  2  0
  9 10  1  0
 10 11  1  0
 10 12  1  0
 13 14  2  0
 13 37  1  0
 14 15  1  0
 15 16  1  0
 15 28  2  0
 16 17  2  0
 16 18  1  0
 18 19  2  0
 18 27  1  0
 19 20  1  0
 19 38  1  0
 20 21  2  0
 20 39  1  0
 21 22  1  0
 21 40  1  0
 22 23  1  0
 22 27  2  0
 23 24  1  0
 24 25  1  0
 24 41  1  0
 24 42  1  0
 25 26  1  0
 25 43  1  0
 25 44  1  0
 26 45  1  0
 27 46  1  0
 28 29  1  0
 29 30  2  0
 29 47  1  0
 30 31  1  0
 31 32  1  0
 32 48  1  0
 32 49  1  0
 32 50  1  0
M  END

