
     RDKit          3D

 32 33  0  0  0  0  0  0  0  0999 V2000
    1.0697    1.5108   -0.2781 C   0  0  0  0  0  0  0  0  0  0  0  0
    2.3982    2.0868    0.1746 C   0  0  0  0  0  0  0  0  0  0  0  0
    3.2882    1.0093    0.4200 O   0  0  0  0  0  0  0  0  0  0  0  0
    4.5821    1.2500    0.7692 C   0  0  0  0  0  0  0  0  0  0  0  0
    5.0694    2.5471    0.9965 C   0  0  0  0  0  0  0  0  0  0  0  0
    6.4098    2.7559    1.3306 C   0  0  0  0  0  0  0  0  0  0  0  0
    7.2799    1.6707    1.4341 C   0  0  0  0  0  0  0  0  0  0  0  0
    6.7955    0.3827    1.2074 C   0  0  0  0  0  0  0  0  0  0  0  0
    5.4508    0.1306    0.8828 C   0  0  0  0  0  0  0  0  0  0  0  0
    5.0358   -1.2802    0.6482 C   0  0  0  0  0  0  0  0  0  0  0  0
    3.7180   -1.7692    0.7819 C   0  0  0  0  0  0  0  0  0  0  0  0
    3.3984   -3.0444    0.5869 N   0  0  0  0  0  0  0  0  0  0  0  0
    4.3768   -3.8964    0.2450 C   0  0  0  0  0  0  0  0  0  0  0  0
    4.0182   -5.1946    0.0247 N   0  0  0  0  0  0  0  0  0  0  0  0
    4.9315   -6.2626   -0.2921 C   0  0  0  0  0  0  0  0  0  0  0  0
    5.7117   -3.4261    0.1345 C   0  0  0  0  0  0  0  0  0  0  0  0
    6.0107   -2.1548    0.3345 N   0  0  0  0  0  0  0  0  0  0  0  0
    0.3598    2.3236   -0.4969 H   0  0  0  0  0  0  0  0  0  0  0  0
    0.6314    0.8704    0.5027 H   0  0  0  0  0  0  0  0  0  0  0  0
    1.1982    0.9053   -1.1881 H   0  0  0  0  0  0  0  0  0  0  0  0
    2.2691    2.6900    1.0930 H   0  0  0  0  0  0  0  0  0  0  0  0
    2.8205    2.7529   -0.6009 H   0  0  0  0  0  0  0  0  0  0  0  0
    4.4038    3.4052    0.9105 H   0  0  0  0  0  0  0  0  0  0  0  0
    6.7663    3.7741    1.5071 H   0  0  0  0  0  0  0  0  0  0  0  0
    8.3308    1.8231    1.6911 H   0  0  0  0  0  0  0  0  0  0  0  0
    7.4616   -0.4786    1.2710 H   0  0  0  0  0  0  0  0  0  0  0  0
    2.9069   -1.0985    1.0657 H   0  0  0  0  0  0  0  0  0  0  0  0
    3.0389   -5.3960    0.1857 H   0  0  0  0  0  0  0  0  0  0  0  0
    5.4819   -6.0739   -1.2320 H   0  0  0  0  0  0  0  0  0  0  0  0
    4.3636   -7.1940   -0.4224 H   0  0  0  0  0  0  0  0  0  0  0  0
    5.6806   -6.4336    0.5044 H   0  0  0  0  0  0  0  0  0  0  0  0
    6.5354   -4.1023   -0.1174 H   0  0  0  0  0  0  0  0  0  0  0  0
  1  2  1  0
  1 18  1  0
  1 19  1  0
  1 20  1  0
  2  3  1  0
  2 21  1  0
  2 22  1  0
  3  4  1  0
  4  5  2  0
  4  9  1  0
  5  6  1  0
  5 23  1  0
  6  7  2  0
  6 24  1  0
  7  8  1  0
  7 25  1  0
  8  9  2  0
  8 26  1  0
  9 10  1  0
 10 11  2  0
 10 17  1  0
 11 12  1  0
 11 27  1  0
 12 13  2  0
 13 14  1  0
 13 16  1  0
 14 15  1  0
 14 28  1  0
 15 29  1  0
 15 30  1  0
 15 31  1  0
 16 17  2  0
 16 32  1  0
M  END

