
     RDKit          3D

 19 20  0  0  0  0  0  0  0  0999 V2000
    1.2652   -0.4900    0.6827 C   0  0  0  0  0  0  0  0  0  0  0  0
    2.2104   -0.0951   -0.2938 O   0  0  0  0  0  0  0  0  0  0  0  0
    2.8258   -1.0013   -1.0645 C   0  0  0  0  0  0  0  0  0  0  0  0
    2.5904   -2.3915   -0.9680 C   0  0  0  0  0  0  0  0  0  0  0  0
    3.2916   -3.2805   -1.8317 C   0  0  0  0  0  0  0  0  0  0  0  0
    4.2009   -2.7297   -2.7550 C   0  0  0  0  0  0  0  0  0  0  0  0
    5.0010   -3.3069   -3.6888 N   0  0  0  0  0  0  0  0  0  0  0  0
    5.0802   -4.2972   -3.8886 H   0  0  0  0  0  0  0  0  0  0  0  0
    5.7699   -2.4239   -4.4193 N   0  0  0  0  0  0  0  0  0  0  0  0
    5.4299   -1.2251   -3.9132 C   0  0  0  0  0  0  0  0  0  0  0  0
    4.4634   -1.3270   -2.8781 C   0  0  0  0  0  0  0  0  0  0  0  0
    3.7624   -0.4472   -2.0175 C   0  0  0  0  0  0  0  0  0  0  0  0
    4.0391    1.4098   -2.1135 Br  0  0  0  0  0  0  0  0  0  0  0  0
    0.9178    0.4323    1.1645 H   0  0  0  0  0  0  0  0  0  0  0  0
    1.7272   -1.1511    1.4347 H   0  0  0  0  0  0  0  0  0  0  0  0
    0.4118   -1.0110    0.2177 H   0  0  0  0  0  0  0  0  0  0  0  0
    1.8822   -2.7839   -0.2424 H   0  0  0  0  0  0  0  0  0  0  0  0
    3.1245   -4.3573   -1.7742 H   0  0  0  0  0  0  0  0  0  0  0  0
    5.8888   -0.3183   -4.3049 H   0  0  0  0  0  0  0  0  0  0  0  0
  1  2  1  0
  1 14  1  0
  1 15  1  0
  1 16  1  0
  2  3  1  0
  3  4  2  0
  3 12  1  0
  4  5  1  0
  4 17  1  0
  5  6  2  0
  5 18  1  0
  6  7  1  0
  6 11  1  0
  7  8  1  0
  7  9  1  0
  9 10  2  0
 10 11  1  0
 10 19  1  0
 11 12  2  0
 12 13  1  0
M  END

