
     RDKit          3D

 43 46  0  0  0  0  0  0  0  0999 V2000
    1.4729    0.9702   -0.2313 C   0  0  0  0  0  0  0  0  0  0  0  0
    2.7351    0.1907   -0.0971 C   0  0  0  0  0  0  0  0  0  0  0  0
    3.8792    0.8802   -0.2267 O   0  0  0  0  0  0  0  0  0  0  0  0
    4.9682    0.0496   -0.0345 N   0  0  0  0  0  0  0  0  0  0  0  0
    4.4745   -1.1358    0.2256 C   0  0  0  0  0  0  0  0  0  0  0  0
    5.3754   -2.2773    0.5079 C   0  0  0  0  0  0  0  0  0  0  0  0
    6.1563   -2.2876    1.6729 C   0  0  0  0  0  0  0  0  0  0  0  0
    6.0608   -1.2576    2.5175 F   0  0  0  0  0  0  0  0  0  0  0  0
    7.0164   -3.3345    1.9915 C   0  0  0  0  0  0  0  0  0  0  0  0
    7.1047   -4.4209    1.1207 C   0  0  0  0  0  0  0  0  0  0  0  0
    6.3430   -4.4573   -0.0491 C   0  0  0  0  0  0  0  0  0  0  0  0
    5.4895   -3.3922   -0.3414 C   0  0  0  0  0  0  0  0  0  0  0  0
    4.5545   -3.4522   -1.8201 Cl  0  0  0  0  0  0  0  0  0  0  0  0
    3.0354   -1.1210    0.1871 C   0  0  0  0  0  0  0  0  0  0  0  0
    2.1517   -2.2703    0.5127 C   0  0  0  0  0  0  0  0  0  0  0  0
    2.4390   -3.1074    1.3348 O   0  0  0  0  0  0  0  0  0  0  0  0
    0.9583   -2.2962   -0.2244 N   0  0  0  0  0  0  0  0  0  0  0  0
   -0.0632   -3.2155   -0.0049 C   0  0  0  0  0  0  0  0  0  0  0  0
   -0.6577   -3.3857    1.1367 N   0  0  0  0  0  0  0  0  0  0  0  0
   -1.6038   -4.3528    1.1060 N   0  0  0  0  0  0  0  0  0  0  0  0
   -1.7610   -4.9116   -0.0592 C   0  0  0  0  0  0  0  0  0  0  0  0
   -2.7642   -5.9943   -0.3361 C   0  0  0  0  0  0  0  0  0  0  0  0
   -2.1487   -7.3631   -0.5849 C   0  0  0  0  0  0  0  0  0  0  0  0
   -1.3145   -7.9494    0.3809 C   0  0  0  0  0  0  0  0  0  0  0  0
   -0.7561   -9.2106    0.1654 C   0  0  0  0  0  0  0  0  0  0  0  0
   -1.0223   -9.9053   -1.0200 C   0  0  0  0  0  0  0  0  0  0  0  0
   -1.8501   -9.3299   -1.9867 C   0  0  0  0  0  0  0  0  0  0  0  0
   -2.4083   -8.0654   -1.7694 C   0  0  0  0  0  0  0  0  0  0  0  0
   -0.6561   -4.2854   -1.2743 S   0  0  0  0  0  0  0  0  0  0  0  0
    1.5332    1.8882    0.3734 H   0  0  0  0  0  0  0  0  0  0  0  0
    0.6116    0.3800    0.1057 H   0  0  0  0  0  0  0  0  0  0  0  0
    1.3087    1.2788   -1.2775 H   0  0  0  0  0  0  0  0  0  0  0  0
    7.5943   -3.2815    2.9154 H   0  0  0  0  0  0  0  0  0  0  0  0
    7.7737   -5.2519    1.3555 H   0  0  0  0  0  0  0  0  0  0  0  0
    6.4043   -5.3010   -0.7371 H   0  0  0  0  0  0  0  0  0  0  0  0
    0.9417   -1.7769   -1.0950 H   0  0  0  0  0  0  0  0  0  0  0  0
   -3.3924   -5.7086   -1.1946 H   0  0  0  0  0  0  0  0  0  0  0  0
   -3.4161   -6.0239    0.5515 H   0  0  0  0  0  0  0  0  0  0  0  0
   -1.1017   -7.4089    1.3075 H   0  0  0  0  0  0  0  0  0  0  0  0
   -0.1097   -9.6544    0.9269 H   0  0  0  0  0  0  0  0  0  0  0  0
   -0.5848  -10.8926   -1.1885 H   0  0  0  0  0  0  0  0  0  0  0  0
   -2.0638   -9.8651   -2.9156 H   0  0  0  0  0  0  0  0  0  0  0  0
   -3.0572   -7.6217   -2.5302 H   0  0  0  0  0  0  0  0  0  0  0  0
  1  2  1  0
  1 30  1  0
  1 31  1  0
  1 32  1  0
  2  3  1  0
  2 14  2  0
  3  4  1  0
  4  5  2  0
  5  6  1  0
  5 14  1  0
  6  7  2  0
  6 12  1  0
  7  8  1  0
  7  9  1  0
  9 10  2  0
  9 33  1  0
 10 11  1  0
 10 34  1  0
 11 12  2  0
 11 35  1  0
 12 13  1  0
 14 15  1  0
 15 16  2  0
 15 17  1  0
 17 18  1  0
 17 36  1  0
 18 19  2  0
 18 29  1  0
 19 20  1  0
 20 21  2  0
 21 22  1  0
 21 29  1  0
 22 23  1  0
 22 37  1  0
 22 38  1  0
 23 24  2  0
 23 28  1  0
 24 25  1  0
 24 39  1  0
 25 26  2  0
 25 40  1  0
 26 27  1  0
 26 41  1  0
 27 28  2  0
 27 42  1  0
 28 43  1  0
M  END

