
     RDKit          3D

 54 56  0  0  0  0  0  0  0  0999 V2000
    1.8746   -0.7664    0.4598 C   0  0  0  0  0  0  0  0  0  0  0  0
    3.1460    0.0478    0.2915 C   0  0  0  0  0  0  0  0  0  0  0  0
    3.9241    0.1862    1.2170 O   0  0  0  0  0  0  0  0  0  0  0  0
    3.4216    0.6769   -1.0386 C   0  0  0  0  0  0  0  0  0  0  0  0
    2.5702    0.5676   -2.1510 C   0  0  0  0  0  0  0  0  0  0  0  0
    2.8842    1.1883   -3.3559 C   0  0  0  0  0  0  0  0  0  0  0  0
    4.0708    1.9387   -3.5296 C   0  0  0  0  0  0  0  0  0  0  0  0
    4.3559    2.5579   -4.7437 N   0  0  0  0  0  0  0  0  0  0  0  0
    4.1616    1.8580   -6.0117 C   0  0  0  0  0  0  0  0  0  0  0  0
    3.6308    2.8021   -7.0886 C   0  0  0  0  0  0  0  0  0  0  0  0
    4.4907    3.9752   -7.2009 N   0  0  0  0  0  0  0  0  0  0  0  0
    4.9178    4.3809   -8.4446 C   0  0  0  0  0  0  0  0  0  0  0  0
    4.6227    3.7670   -9.4586 O   0  0  0  0  0  0  0  0  0  0  0  0
    5.7815    5.6409   -8.5205 C   0  0  0  0  0  0  0  0  0  0  0  0
    6.2312    5.9165   -9.9528 C   0  0  0  0  0  0  0  0  0  0  0  0
    6.9364    7.1994  -10.0064 N   0  0  0  0  0  0  0  0  0  0  0  0
    7.4005    7.7941  -11.5208 S   0  0  1  0  0  0  0  0  0  0  0  0
    8.4658    8.7544  -11.2237 O   0  0  0  0  0  0  0  0  0  0  0  0
    7.6016    6.6935  -12.4686 O   0  0  0  0  0  0  0  0  0  0  0  0
    5.9428    8.6930  -12.0513 C   0  0  0  0  0  0  0  0  0  0  0  0
    5.6568    9.9316  -11.4650 C   0  0  0  0  0  0  0  0  0  0  0  0
    4.5369   10.6442  -11.8876 C   0  0  0  0  0  0  0  0  0  0  0  0
    3.7317   10.1029  -12.8929 C   0  0  0  0  0  0  0  0  0  0  0  0
    2.6578   10.7882  -13.2973 F   0  0  0  0  0  0  0  0  0  0  0  0
    4.0162    8.8763  -13.4900 C   0  0  0  0  0  0  0  0  0  0  0  0
    5.1401    8.1640  -13.0652 C   0  0  0  0  0  0  0  0  0  0  0  0
    4.7049    4.6699   -5.9401 C   0  0  0  0  0  0  0  0  0  0  0  0
    5.2343    3.7143   -4.8618 C   0  0  0  0  0  0  0  0  0  0  0  0
    4.9190    2.0102   -2.3961 C   0  0  0  0  0  0  0  0  0  0  0  0
    6.0978    2.6629   -2.4943 F   0  0  0  0  0  0  0  0  0  0  0  0
    4.6065    1.4164   -1.1877 C   0  0  0  0  0  0  0  0  0  0  0  0
    1.8373   -1.1515    1.4866 H   0  0  0  0  0  0  0  0  0  0  0  0
    1.8466   -1.6105   -0.2482 H   0  0  0  0  0  0  0  0  0  0  0  0
    0.9813   -0.1496    0.2691 H   0  0  0  0  0  0  0  0  0  0  0  0
    1.6357    0.0083   -2.0809 H   0  0  0  0  0  0  0  0  0  0  0  0
    2.1811    1.1193   -4.1876 H   0  0  0  0  0  0  0  0  0  0  0  0
    3.4661    1.0208   -5.8770 H   0  0  0  0  0  0  0  0  0  0  0  0
    5.1271    1.4304   -6.3542 H   0  0  0  0  0  0  0  0  0  0  0  0
    2.6032    3.1195   -6.8272 H   0  0  0  0  0  0  0  0  0  0  0  0
    3.6035    2.3104   -8.0688 H   0  0  0  0  0  0  0  0  0  0  0  0
    6.6608    5.5329   -7.8611 H   0  0  0  0  0  0  0  0  0  0  0  0
    5.2159    6.5085   -8.1398 H   0  0  0  0  0  0  0  0  0  0  0  0
    5.3465    5.9735  -10.6034 H   0  0  0  0  0  0  0  0  0  0  0  0
    6.8398    5.0806  -10.3355 H   0  0  0  0  0  0  0  0  0  0  0  0
    7.7606    7.2673   -9.4066 H   0  0  0  0  0  0  0  0  0  0  0  0
    6.3150   10.3330  -10.6924 H   0  0  0  0  0  0  0  0  0  0  0  0
    4.2787   11.6146  -11.4596 H   0  0  0  0  0  0  0  0  0  0  0  0
    3.3634    8.4985  -14.2791 H   0  0  0  0  0  0  0  0  0  0  0  0
    5.4067    7.2078  -13.5183 H   0  0  0  0  0  0  0  0  0  0  0  0
    3.7490    5.1063   -5.5907 H   0  0  0  0  0  0  0  0  0  0  0  0
    5.4173    5.4930   -6.0686 H   0  0  0  0  0  0  0  0  0  0  0  0
    5.2756    4.2485   -3.9060 H   0  0  0  0  0  0  0  0  0  0  0  0
    6.2693    3.4122   -5.1205 H   0  0  0  0  0  0  0  0  0  0  0  0
    5.2985    1.4987   -0.3477 H   0  0  0  0  0  0  0  0  0  0  0  0
  1  2  1  0
  1 32  1  0
  1 33  1  0
  1 34  1  0
  2  3  2  0
  2  4  1  0
  4  5  2  0
  4 31  1  0
  5  6  1  0
  5 35  1  0
  6  7  2  0
  6 36  1  0
  7  8  1  0
  7 29  1  0
  8  9  1  0
  8 28  1  0
  9 10  1  0
  9 37  1  0
  9 38  1  0
 10 11  1  0
 10 39  1  0
 10 40  1  0
 11 12  1  0
 11 27  1  0
 12 13  2  0
 12 14  1  0
 14 15  1  0
 14 41  1  0
 14 42  1  0
 15 16  1  0
 15 43  1  0
 15 44  1  0
 17 16  1  1
 16 45  1  0
 17 18  2  0
 17 19  2  0
 17 20  1  0
 20 21  2  0
 20 26  1  0
 21 22  1  0
 21 46  1  0
 22 23  2  0
 22 47  1  0
 23 24  1  0
 23 25  1  0
 25 26  2  0
 25 48  1  0
 26 49  1  0
 27 28  1  0
 27 50  1  0
 27 51  1  0
 28 52  1  0
 28 53  1  0
 29 30  1  0
 29 31  2  0
 31 54  1  0
M  END

