
     RDKit          3D

 37 38  0  0  0  0  0  0  0  0999 V2000
    4.9736    0.8029    1.1478 C   0  0  0  0  0  0  0  0  0  0  0  0
    3.8944    0.0366    0.6659 O   0  0  0  0  0  0  0  0  0  0  0  0
    4.0593   -0.7120   -0.4559 C   0  0  0  0  0  0  0  0  0  0  0  0
    2.9392   -1.4445   -0.8849 C   0  0  0  0  0  0  0  0  0  0  0  0
    3.0126   -2.2385   -2.0249 C   0  0  0  0  0  0  0  0  0  0  0  0
    4.2038   -2.3532   -2.7725 C   0  0  0  0  0  0  0  0  0  0  0  0
    4.3008   -3.1732   -4.0043 C   0  0  0  0  0  0  0  0  0  0  0  0
    4.6136   -2.6414   -5.2992 C   0  0  0  0  0  0  0  0  0  0  0  0
    4.9257   -1.3187   -5.5938 N   0  0  0  0  0  0  0  0  0  0  0  0
    4.6326   -3.5817   -6.2337 N   0  0  0  0  0  0  0  0  0  0  0  0
    4.3561   -4.7205   -5.5624 N   0  0  0  0  0  0  0  0  0  0  0  0
    4.3541   -5.5938   -6.0697 H   0  0  0  0  0  0  0  0  0  0  0  0
    4.1525   -4.5503   -4.2280 C   0  0  0  0  0  0  0  0  0  0  0  0
    3.8512   -5.7378   -3.3178 C   0  0  1  0  0  0  0  0  0  0  0  0
    4.3017   -7.0533   -3.9903 C   0  0  0  0  0  0  0  0  0  0  0  0
    4.6109   -5.5959   -1.9826 C   0  0  0  0  0  0  0  0  0  0  0  0
    2.3310   -5.8285   -3.0457 C   0  0  0  0  0  0  0  0  0  0  0  0
    5.3068   -1.6000   -2.3358 C   0  0  0  0  0  0  0  0  0  0  0  0
    5.2478   -0.7888   -1.1971 C   0  0  0  0  0  0  0  0  0  0  0  0
    4.6152    1.3175    2.0497 H   0  0  0  0  0  0  0  0  0  0  0  0
    5.3039    1.5599    0.4132 H   0  0  0  0  0  0  0  0  0  0  0  0
    5.8404    0.1723    1.4181 H   0  0  0  0  0  0  0  0  0  0  0  0
    2.0147   -1.3620   -0.3094 H   0  0  0  0  0  0  0  0  0  0  0  0
    2.1205   -2.7743   -2.3563 H   0  0  0  0  0  0  0  0  0  0  0  0
    4.4234   -0.6393   -5.0303 H   0  0  0  0  0  0  0  0  0  0  0  0
    4.8612   -1.1119   -6.5864 H   0  0  0  0  0  0  0  0  0  0  0  0
    5.3752   -7.0388   -4.2363 H   0  0  0  0  0  0  0  0  0  0  0  0
    3.7342   -7.2668   -4.9117 H   0  0  0  0  0  0  0  0  0  0  0  0
    4.1243   -7.8996   -3.3088 H   0  0  0  0  0  0  0  0  0  0  0  0
    5.6979   -5.5402   -2.1503 H   0  0  0  0  0  0  0  0  0  0  0  0
    4.4076   -6.4677   -1.3393 H   0  0  0  0  0  0  0  0  0  0  0  0
    4.3089   -4.6938   -1.4336 H   0  0  0  0  0  0  0  0  0  0  0  0
    1.7638   -5.9083   -3.9866 H   0  0  0  0  0  0  0  0  0  0  0  0
    1.9665   -4.9439   -2.5049 H   0  0  0  0  0  0  0  0  0  0  0  0
    2.1026   -6.7159   -2.4321 H   0  0  0  0  0  0  0  0  0  0  0  0
    6.2390   -1.6503   -2.9032 H   0  0  0  0  0  0  0  0  0  0  0  0
    6.1346   -0.2292   -0.8980 H   0  0  0  0  0  0  0  0  0  0  0  0
  1  2  1  0
  1 20  1  0
  1 21  1  0
  1 22  1  0
  2  3  1  0
  3  4  2  0
  3 19  1  0
  4  5  1  0
  4 23  1  0
  5  6  2  0
  5 24  1  0
  6  7  1  0
  6 18  1  0
  7  8  1  0
  7 13  2  0
  8  9  1  0
  8 10  2  0
  9 25  1  0
  9 26  1  0
 10 11  1  0
 11 12  1  0
 11 13  1  0
 13 14  1  0
 14 15  1  6
 14 16  1  0
 14 17  1  0
 15 27  1  0
 15 28  1  0
 15 29  1  0
 16 30  1  0
 16 31  1  0
 16 32  1  0
 17 33  1  0
 17 34  1  0
 17 35  1  0
 18 19  2  0
 18 36  1  0
 19 37  1  0
M  END

