
     RDKit          3D

 40 40  0  0  0  0  0  0  0  0999 V2000
    1.4943   -0.8712   -2.5773 C   0  0  0  0  0  0  0  0  0  0  0  0
    2.6081   -0.2824   -1.7236 C   0  0  1  0  0  0  0  0  0  0  0  0
    1.9458    0.2229   -0.0917 Cl  0  0  0  0  0  0  0  0  0  0  0  0
    3.8172   -1.2356   -1.6428 C   0  0  0  0  0  0  0  0  0  0  0  0
    4.3066   -1.6132   -2.6991 O   0  0  0  0  0  0  0  0  0  0  0  0
    4.2726   -1.5871   -0.4218 N   0  0  0  0  0  0  0  0  0  0  0  0
    5.4183   -2.4856   -0.2438 C   0  0  1  0  0  0  0  0  0  0  0  0
    6.1605   -2.1025    1.0468 C   0  0  0  0  0  0  0  0  0  0  0  0
    5.3644   -2.4493    2.3114 C   0  0  0  0  0  0  0  0  0  0  0  0
    4.9627   -3.9281    2.3221 C   0  0  0  0  0  0  0  0  0  0  0  0
    4.2253   -4.3323    1.0339 C   0  0  0  0  0  0  0  0  0  0  0  0
    4.9451   -3.9738   -0.2919 C   0  0  2  0  0  0  0  0  0  0  0  0
    5.9848   -5.0296   -0.8325 C   0  0  1  0  0  0  0  0  0  0  0  0
    5.1937   -6.2787   -1.2827 C   0  0  0  0  0  0  0  0  0  0  0  0
    6.7078   -4.4673   -2.0765 C   0  0  0  0  0  0  0  0  0  0  0  0
    7.0493   -5.4841    0.1864 C   0  0  0  0  0  0  0  0  0  0  0  0
    0.6893   -0.1386   -2.7298 H   0  0  0  0  0  0  0  0  0  0  0  0
    1.0699   -1.7678   -2.1002 H   0  0  0  0  0  0  0  0  0  0  0  0
    1.9176   -1.1570   -3.5511 H   0  0  0  0  0  0  0  0  0  0  0  0
    2.9811    0.6497   -2.1718 H   0  0  0  0  0  0  0  0  0  0  0  0
    3.7762   -1.2280    0.3862 H   0  0  0  0  0  0  0  0  0  0  0  0
    6.0658   -2.2929   -1.1069 H   0  0  0  0  0  0  0  0  0  0  0  0
    6.4026   -1.0270    1.0171 H   0  0  0  0  0  0  0  0  0  0  0  0
    7.1234   -2.6372    1.0677 H   0  0  0  0  0  0  0  0  0  0  0  0
    4.4566   -1.8194    2.3737 H   0  0  0  0  0  0  0  0  0  0  0  0
    5.9555   -2.2011    3.2085 H   0  0  0  0  0  0  0  0  0  0  0  0
    4.3171   -4.1382    3.1917 H   0  0  0  0  0  0  0  0  0  0  0  0
    5.8659   -4.5434    2.4590 H   0  0  0  0  0  0  0  0  0  0  0  0
    3.2497   -3.8137    1.0288 H   0  0  0  0  0  0  0  0  0  0  0  0
    3.9824   -5.4059    1.0619 H   0  0  0  0  0  0  0  0  0  0  0  0
    4.1707   -3.9750   -1.0754 H   0  0  0  0  0  0  0  0  0  0  0  0
    4.4807   -6.0294   -2.0852 H   0  0  0  0  0  0  0  0  0  0  0  0
    4.6256   -6.7335   -0.4562 H   0  0  0  0  0  0  0  0  0  0  0  0
    5.8776   -7.0503   -1.6718 H   0  0  0  0  0  0  0  0  0  0  0  0
    6.0015   -3.9980   -2.7794 H   0  0  0  0  0  0  0  0  0  0  0  0
    7.2357   -5.2764   -2.6071 H   0  0  0  0  0  0  0  0  0  0  0  0
    7.4648   -3.7124   -1.8111 H   0  0  0  0  0  0  0  0  0  0  0  0
    6.6053   -6.0068    1.0472 H   0  0  0  0  0  0  0  0  0  0  0  0
    7.6509   -4.6454    0.5684 H   0  0  0  0  0  0  0  0  0  0  0  0
    7.7474   -6.1890   -0.2948 H   0  0  0  0  0  0  0  0  0  0  0  0
  1  2  1  0
  1 17  1  0
  1 18  1  0
  1 19  1  0
  2  3  1  0
  2  4  1  0
  2 20  1  6
  4  5  2  0
  4  6  1  0
  6  7  1  0
  6 21  1  0
  7  8  1  0
  7 12  1  0
  7 22  1  6
  8  9  1  0
  8 23  1  0
  8 24  1  0
  9 10  1  0
  9 25  1  0
  9 26  1  0
 10 11  1  0
 10 27  1  0
 10 28  1  0
 11 12  1  0
 11 29  1  0
 11 30  1  0
 12 13  1  0
 12 31  1  6
 13 14  1  6
 13 15  1  0
 13 16  1  0
 14 32  1  0
 14 33  1  0
 14 34  1  0
 15 35  1  0
 15 36  1  0
 15 37  1  0
 16 38  1  0
 16 39  1  0
 16 40  1  0
M  END

