
     RDKit          3D

 78 86  0  0  0  0  0  0  0  0999 V2000
   -4.3055    0.4679   -0.1397 C   0  0  0  0  0  0  0  0  0  0  0  0
   -4.2595   -0.8954   -0.1143 C   0  0  0  0  0  0  0  0  0  0  0  0
   -2.8523   -1.2559   -0.0486 C   0  0  0  0  0  0  0  0  0  0  0  0
   -2.0646   -0.1366   -0.0281 N   0  0  0  0  0  0  0  0  0  0  0  0
   -2.9266    0.9252   -0.0695 C   0  0  0  0  0  0  0  0  0  0  0  0
   -2.5508    2.3001   -0.0493 C   0  0  0  0  0  0  0  0  0  0  0  0
   -3.6406    3.3230   -0.0359 C   0  0  0  0  0  0  0  0  0  0  0  0
   -4.5225    3.4224    1.0567 C   0  0  0  0  0  0  0  0  0  0  0  0
   -5.5354    4.3839    1.0735 C   0  0  0  0  0  0  0  0  0  0  0  0
   -5.6927    5.2607   -0.0049 C   0  0  0  0  0  0  0  0  0  0  0  0
   -4.8266    5.1708   -1.0986 C   0  0  0  0  0  0  0  0  0  0  0  0
   -3.8086    4.2134   -1.1126 C   0  0  0  0  0  0  0  0  0  0  0  0
   -1.2276    2.7890   -0.0248 C   0  0  0  0  0  0  0  0  0  0  0  0
   -0.8264    4.1627    0.1096 C   0  0  0  0  0  0  0  0  0  0  0  0
    0.5466    4.2074    0.1251 C   0  0  0  0  0  0  0  0  0  0  0  0
    1.0395    2.8628    0.0003 C   0  0  0  0  0  0  0  0  0  0  0  0
   -0.0679    2.0461   -0.0832 N   0  0  0  0  0  0  0  0  0  0  0  0
   -0.0366    1.0306   -0.1314 H   0  0  0  0  0  0  0  0  0  0  0  0
    2.3923    2.4612   -0.0040 C   0  0  0  0  0  0  0  0  0  0  0  0
    3.4145    3.5500    0.0011 C   0  0  0  0  0  0  0  0  0  0  0  0
    3.5028    4.4663   -1.0641 C   0  0  0  0  0  0  0  0  0  0  0  0
    4.4601    5.4841   -1.0571 C   0  0  0  0  0  0  0  0  0  0  0  0
    5.3446    5.6107    0.0181 C   0  0  0  0  0  0  0  0  0  0  0  0
    5.2674    4.7088    1.0845 C   0  0  0  0  0  0  0  0  0  0  0  0
    4.3157    3.6868    1.0744 C   0  0  0  0  0  0  0  0  0  0  0  0
    2.8562    1.1125   -0.0065 C   0  0  0  0  0  0  0  0  0  0  0  0
    2.0688   -0.0018    0.0942 N   0  0  0  0  0  0  0  0  0  0  0  0
    2.9268   -1.0674    0.0592 C   0  0  0  0  0  0  0  0  0  0  0  0
    2.5516   -2.4410    0.1256 C   0  0  0  0  0  0  0  0  0  0  0  0
    3.6476   -3.4574    0.1594 C   0  0  0  0  0  0  0  0  0  0  0  0
    3.8386   -4.3578   -0.9049 C   0  0  0  0  0  0  0  0  0  0  0  0
    4.8668   -5.3038   -0.8668 C   0  0  0  0  0  0  0  0  0  0  0  0
    5.7210   -5.3706    0.2378 C   0  0  0  0  0  0  0  0  0  0  0  0
    5.5428   -4.4813    1.3025 C   0  0  0  0  0  0  0  0  0  0  0  0
    4.5194   -3.5315    1.2618 C   0  0  0  0  0  0  0  0  0  0  0  0
    1.2291   -2.9301    0.1488 C   0  0  0  0  0  0  0  0  0  0  0  0
    0.8236   -4.3085    0.2062 C   0  0  0  0  0  0  0  0  0  0  0  0
   -0.5488   -4.3519    0.1676 C   0  0  0  0  0  0  0  0  0  0  0  0
   -1.0375   -3.0011    0.1105 C   0  0  0  0  0  0  0  0  0  0  0  0
    0.0716   -2.1828    0.1075 N   0  0  0  0  0  0  0  0  0  0  0  0
    0.0408   -1.1660    0.0921 H   0  0  0  0  0  0  0  0  0  0  0  0
   -2.3868   -2.6000    0.0292 C   0  0  0  0  0  0  0  0  0  0  0  0
   -3.4095   -3.6925    0.0217 C   0  0  0  0  0  0  0  0  0  0  0  0
   -3.6464   -4.4678    1.1712 C   0  0  0  0  0  0  0  0  0  0  0  0
   -4.6023   -5.4876    1.1622 C   0  0  0  0  0  0  0  0  0  0  0  0
   -5.3359   -5.7538    0.0024 C   0  0  0  0  0  0  0  0  0  0  0  0
   -5.1089   -4.9913   -1.1479 C   0  0  0  0  0  0  0  0  0  0  0  0
   -4.1569   -3.9688   -1.1376 C   0  0  0  0  0  0  0  0  0  0  0  0
    4.3015   -0.6186   -0.0917 C   0  0  0  0  0  0  0  0  0  0  0  0
    4.2573    0.7444   -0.1350 C   0  0  0  0  0  0  0  0  0  0  0  0
   -5.1871    1.0998   -0.2023 H   0  0  0  0  0  0  0  0  0  0  0  0
   -5.0969   -1.5874   -0.1333 H   0  0  0  0  0  0  0  0  0  0  0  0
   -4.4010    2.7430    1.9034 H   0  0  0  0  0  0  0  0  0  0  0  0
   -6.2037    4.4508    1.9360 H   0  0  0  0  0  0  0  0  0  0  0  0
   -6.4877    6.0107    0.0072 H   0  0  0  0  0  0  0  0  0  0  0  0
   -4.9456    5.8468   -1.9494 H   0  0  0  0  0  0  0  0  0  0  0  0
   -3.1394    4.1420   -1.9733 H   0  0  0  0  0  0  0  0  0  0  0  0
   -1.5105    5.0005    0.2073 H   0  0  0  0  0  0  0  0  0  0  0  0
    1.1724    5.0875    0.2389 H   0  0  0  0  0  0  0  0  0  0  0  0
    2.8203    4.3663   -1.9113 H   0  0  0  0  0  0  0  0  0  0  0  0
    4.5176    6.1787   -1.8992 H   0  0  0  0  0  0  0  0  0  0  0  0
    6.0920    6.4082    0.0250 H   0  0  0  0  0  0  0  0  0  0  0  0
    5.9505    4.8034    1.9327 H   0  0  0  0  0  0  0  0  0  0  0  0
    4.2566    2.9881    1.9121 H   0  0  0  0  0  0  0  0  0  0  0  0
    3.1805   -4.3031   -1.7753 H   0  0  0  0  0  0  0  0  0  0  0  0
    5.0034   -5.9886   -1.7079 H   0  0  0  0  0  0  0  0  0  0  0  0
    6.5239   -6.1116    0.2683 H   0  0  0  0  0  0  0  0  0  0  0  0
    6.2033   -4.5284    2.1723 H   0  0  0  0  0  0  0  0  0  0  0  0
    4.3827   -2.8403    2.0967 H   0  0  0  0  0  0  0  0  0  0  0  0
    1.5043   -5.1526    0.2635 H   0  0  0  0  0  0  0  0  0  0  0  0
   -1.1779   -5.2371    0.1729 H   0  0  0  0  0  0  0  0  0  0  0  0
   -3.0808   -4.2581    2.0823 H   0  0  0  0  0  0  0  0  0  0  0  0
   -4.7766   -6.0741    2.0681 H   0  0  0  0  0  0  0  0  0  0  0  0
   -6.0823   -6.5522   -0.0054 H   0  0  0  0  0  0  0  0  0  0  0  0
   -5.6740   -5.1954   -2.0612 H   0  0  0  0  0  0  0  0  0  0  0  0
   -3.9802   -3.3782   -2.0397 H   0  0  0  0  0  0  0  0  0  0  0  0
    5.1768   -1.2568   -0.1782 H   0  0  0  0  0  0  0  0  0  0  0  0
    5.0901    1.4300   -0.2651 H   0  0  0  0  0  0  0  0  0  0  0  0
  1  2  2  0
  1  5  1  0
  1 51  1  0
  2  3  1  0
  2 52  1  0
  3  4  2  0
  3 42  1  0
  4  5  1  0
  5  6  2  0
  6  7  1  0
  6 13  1  0
  7  8  2  0
  7 12  1  0
  8  9  1  0
  8 53  1  0
  9 10  2  0
  9 54  1  0
 10 11  1  0
 10 55  1  0
 11 12  2  0
 11 56  1  0
 12 57  1  0
 13 14  2  0
 13 17  1  0
 14 15  1  0
 14 58  1  0
 15 16  2  0
 15 59  1  0
 16 17  1  0
 16 19  1  0
 17 18  1  0
 19 20  1  0
 19 26  2  0
 20 21  2  0
 20 25  1  0
 21 22  1  0
 21 60  1  0
 22 23  2  0
 22 61  1  0
 23 24  1  0
 23 62  1  0
 24 25  2  0
 24 63  1  0
 25 64  1  0
 26 27  1  0
 26 50  1  0
 27 28  2  0
 28 29  1  0
 28 49  1  0
 29 30  1  0
 29 36  2  0
 30 31  2  0
 30 35  1  0
 31 32  1  0
 31 65  1  0
 32 33  2  0
 32 66  1  0
 33 34  1  0
 33 67  1  0
 34 35  2  0
 34 68  1  0
 35 69  1  0
 36 37  1  0
 36 40  1  0
 37 38  2  0
 37 70  1  0
 38 39  1  0
 38 71  1  0
 39 40  1  0
 39 42  2  0
 40 41  1  0
 42 43  1  0
 43 44  2  0
 43 48  1  0
 44 45  1  0
 44 72  1  0
 45 46  2  0
 45 73  1  0
 46 47  1  0
 46 74  1  0
 47 48  2  0
 47 75  1  0
 48 76  1  0
 49 50  2  0
 49 77  1  0
 50 78  1  0
M  END

