
     RDKit          3D

 29 29  0  0  0  0  0  0  0  0999 V2000
    1.0835    0.3783    0.1554 C   0  0  0  0  0  0  0  0  0  0  0  0
    2.5420   -0.1051    0.1164 C   0  0  1  0  0  0  0  0  0  0  0  0
    2.6992   -1.5485   -0.3846 C   0  0  0  0  0  0  0  0  0  0  0  0
    2.5052   -1.6438   -1.8960 C   0  0  0  0  0  0  0  0  0  0  0  0
    3.3446   -0.6713   -2.7259 C   0  0  2  0  0  0  0  0  0  0  0  0
    4.7761   -1.1408   -3.0575 C   0  0  0  0  0  0  0  0  0  0  0  0
    3.3747    0.6637   -2.1342 N   0  0  0  0  0  0  0  0  0  0  0  0
    3.4135    1.8292   -3.0018 C   0  0  0  0  0  0  0  0  0  0  0  0
    2.0184    2.4062   -3.3309 C   0  0  0  0  0  0  0  0  0  0  0  0
    2.2574    3.5105   -4.1268 F   0  0  0  0  0  0  0  0  0  0  0  0
    3.4422    0.8415   -0.6990 C   0  0  0  0  0  0  0  0  0  0  0  0
    0.5001   -0.2634    0.8401 H   0  0  0  0  0  0  0  0  0  0  0  0
    0.5949    0.3390   -0.8345 H   0  0  0  0  0  0  0  0  0  0  0  0
    1.0281    1.4235    0.5141 H   0  0  0  0  0  0  0  0  0  0  0  0
    2.9272   -0.0475    1.1512 H   0  0  0  0  0  0  0  0  0  0  0  0
    1.9472   -2.1898    0.1271 H   0  0  0  0  0  0  0  0  0  0  0  0
    3.6958   -1.9292   -0.1030 H   0  0  0  0  0  0  0  0  0  0  0  0
    1.4363   -1.4521   -2.1492 H   0  0  0  0  0  0  0  0  0  0  0  0
    2.7277   -2.6637   -2.2588 H   0  0  0  0  0  0  0  0  0  0  0  0
    2.8326   -0.5180   -3.7271 H   0  0  0  0  0  0  0  0  0  0  0  0
    5.3953   -1.2769   -2.1586 H   0  0  0  0  0  0  0  0  0  0  0  0
    5.2702   -0.4264   -3.7458 H   0  0  0  0  0  0  0  0  0  0  0  0
    4.6852   -2.1093   -3.5809 H   0  0  0  0  0  0  0  0  0  0  0  0
    3.8861    1.5301   -3.9539 H   0  0  0  0  0  0  0  0  0  0  0  0
    4.0033    2.6159   -2.5050 H   0  0  0  0  0  0  0  0  0  0  0  0
    1.4885    2.7153   -2.4132 H   0  0  0  0  0  0  0  0  0  0  0  0
    1.4221    1.6521   -3.8824 H   0  0  0  0  0  0  0  0  0  0  0  0
    3.2141    1.9109   -0.4810 H   0  0  0  0  0  0  0  0  0  0  0  0
    4.5071    0.6646   -0.4374 H   0  0  0  0  0  0  0  0  0  0  0  0
  1  2  1  0
  1 12  1  0
  1 13  1  0
  1 14  1  0
  2  3  1  0
  2 11  1  0
  2 15  1  1
  3  4  1  0
  3 16  1  0
  3 17  1  0
  4  5  1  0
  4 18  1  0
  4 19  1  0
  5  6  1  0
  5  7  1  0
  5 20  1  6
  6 21  1  0
  6 22  1  0
  6 23  1  0
  7  8  1  0
  7 11  1  0
  8  9  1  0
  8 24  1  0
  8 25  1  0
  9 10  1  0
  9 26  1  0
  9 27  1  0
 11 28  1  0
 11 29  1  0
M  END

