
     RDKit          3D

103108  0  0  0  0  0  0  0  0999 V2000
    0.7331    0.9289    0.9007 C   0  0  0  0  0  0  0  0  0  0  0  0
    2.2507    0.8058    0.6756 C   0  0  1  0  0  0  0  0  0  0  0  0
    3.0204    1.4102    1.8640 C   0  0  0  0  0  0  0  0  0  0  0  0
    2.7756   -0.9997    0.3077 Si  0  0  1  0  0  4  0  0  0  0  0  0
    2.4271   -1.9689    1.8460 C   0  0  0  0  0  0  0  0  0  0  0  0
    2.1326   -2.4712    2.9280 C   0  0  0  0  0  0  0  0  0  0  0  0
    1.7898   -3.0371    4.1762 C   0  0  0  0  0  0  0  0  0  0  0  0
    1.9819   -4.4390    4.4278 C   0  0  0  0  0  0  0  0  0  0  0  0
    2.5219   -5.2915    3.4540 C   0  0  0  0  0  0  0  0  0  0  0  0
    2.7217   -6.6758    3.6760 C   0  0  0  0  0  0  0  0  0  0  0  0
    3.2675   -7.5334    2.6897 C   0  0  0  0  0  0  0  0  0  0  0  0
    3.4486   -8.8890    2.9453 C   0  0  0  0  0  0  0  0  0  0  0  0
    3.0889   -9.4287    4.1967 C   0  0  0  0  0  0  0  0  0  0  0  0
    2.5509   -8.6104    5.1847 C   0  0  0  0  0  0  0  0  0  0  0  0
    2.3549   -7.2263    4.9535 C   0  0  0  0  0  0  0  0  0  0  0  0
    1.8114   -6.3618    5.9341 C   0  0  0  0  0  0  0  0  0  0  0  0
    1.6146   -4.9903    5.7113 C   0  0  0  0  0  0  0  0  0  0  0  0
    1.0621   -4.1338    6.7238 C   0  0  0  0  0  0  0  0  0  0  0  0
    0.6946   -4.6524    7.9840 C   0  0  0  0  0  0  0  0  0  0  0  0
    0.3811   -5.1107    9.0810 C   0  0  0  0  0  0  0  0  0  0  0  0
   -0.1056   -5.6031   10.7977 Si  0  0  1  0  0  4  0  0  0  0  0  0
    0.6695   -4.3020   11.9765 C   0  0  1  0  0  0  0  0  0  0  0  0
    2.2077   -4.3282   11.9486 C   0  0  0  0  0  0  0  0  0  0  0  0
    0.1430   -2.8844   11.6895 C   0  0  0  0  0  0  0  0  0  0  0  0
   -2.0221   -5.4890   10.8750 C   0  0  1  0  0  0  0  0  0  0  0  0
   -2.7515   -6.3466    9.8273 C   0  0  0  0  0  0  0  0  0  0  0  0
   -2.6034   -5.7114   12.2823 C   0  0  0  0  0  0  0  0  0  0  0  0
    0.6604   -7.3304   11.1395 C   0  0  1  0  0  0  0  0  0  0  0  0
    0.5006   -7.7980   12.5968 C   0  0  0  0  0  0  0  0  0  0  0  0
    0.2212   -8.4269   10.1545 C   0  0  0  0  0  0  0  0  0  0  0  0
    0.8741   -2.7275    6.4762 C   0  0  0  0  0  0  0  0  0  0  0  0
    0.3559   -1.9521    7.4540 N   0  0  0  0  0  0  0  0  0  0  0  0
    0.2074   -0.6604    7.1451 C   0  0  0  0  0  0  0  0  0  0  0  0
    0.5742   -0.1256    5.8830 C   0  0  0  0  0  0  0  0  0  0  0  0
    1.0860   -0.8593    4.9089 N   0  0  0  0  0  0  0  0  0  0  0  0
    1.2437   -2.1805    5.1883 C   0  0  0  0  0  0  0  0  0  0  0  0
    0.2963    1.3561    5.8423 C   0  0  0  0  0  0  0  0  0  0  0  0
   -0.2792    1.6199    7.2197 C   0  0  0  0  0  0  0  0  0  0  0  0
   -0.7315    2.8096    7.7806 C   0  0  0  0  0  0  0  0  0  0  0  0
   -1.2304    2.7977    9.0932 C   0  0  0  0  0  0  0  0  0  0  0  0
   -1.2751    1.6063    9.8325 C   0  0  0  0  0  0  0  0  0  0  0  0
   -0.8231    0.4054    9.2794 C   0  0  0  0  0  0  0  0  0  0  0  0
   -0.3232    0.4175    7.9701 C   0  0  0  0  0  0  0  0  0  0  0  0
    1.6785   -1.7539   -1.0780 C   0  0  1  0  0  0  0  0  0  0  0  0
    1.7330   -0.9727   -2.4022 C   0  0  0  0  0  0  0  0  0  0  0  0
    1.9487   -3.2507   -1.3030 C   0  0  0  0  0  0  0  0  0  0  0  0
    4.6436   -1.1675   -0.1289 C   0  0  1  0  0  0  0  0  0  0  0  0
    5.1401   -0.0305   -1.0417 C   0  0  0  0  0  0  0  0  0  0  0  0
    5.5685   -1.3396    1.0887 C   0  0  0  0  0  0  0  0  0  0  0  0
    0.4498    1.9807    1.0830 H   0  0  0  0  0  0  0  0  0  0  0  0
    0.4172    0.3456    1.7813 H   0  0  0  0  0  0  0  0  0  0  0  0
    0.1474    0.5791    0.0358 H   0  0  0  0  0  0  0  0  0  0  0  0
    2.5123    1.3821   -0.2327 H   0  0  0  0  0  0  0  0  0  0  0  0
    2.8048    0.8584    2.7936 H   0  0  0  0  0  0  0  0  0  0  0  0
    2.7247    2.4620    2.0257 H   0  0  0  0  0  0  0  0  0  0  0  0
    4.1109    1.3987    1.7098 H   0  0  0  0  0  0  0  0  0  0  0  0
    2.7993   -4.8674    2.4866 H   0  0  0  0  0  0  0  0  0  0  0  0
    3.5462   -7.1144    1.7193 H   0  0  0  0  0  0  0  0  0  0  0  0
    3.8707   -9.5375    2.1742 H   0  0  0  0  0  0  0  0  0  0  0  0
    3.2334  -10.4941    4.3909 H   0  0  0  0  0  0  0  0  0  0  0  0
    2.2725   -9.0297    6.1551 H   0  0  0  0  0  0  0  0  0  0  0  0
    1.5345   -6.7762    6.9056 H   0  0  0  0  0  0  0  0  0  0  0  0
    0.3456   -4.5895   12.9953 H   0  0  0  0  0  0  0  0  0  0  0  0
    2.5933   -4.0844   10.9446 H   0  0  0  0  0  0  0  0  0  0  0  0
    2.6188   -5.3096   12.2342 H   0  0  0  0  0  0  0  0  0  0  0  0
    2.6250   -3.5833   12.6486 H   0  0  0  0  0  0  0  0  0  0  0  0
    0.3705   -2.5769   10.6552 H   0  0  0  0  0  0  0  0  0  0  0  0
    0.6099   -2.1483   12.3673 H   0  0  0  0  0  0  0  0  0  0  0  0
   -0.9474   -2.8072   11.8270 H   0  0  0  0  0  0  0  0  0  0  0  0
   -2.2012   -4.4314   10.6042 H   0  0  0  0  0  0  0  0  0  0  0  0
   -2.6732   -7.4226   10.0528 H   0  0  0  0  0  0  0  0  0  0  0  0
   -2.3514   -6.1876    8.8137 H   0  0  0  0  0  0  0  0  0  0  0  0
   -3.8278   -6.1009    9.8025 H   0  0  0  0  0  0  0  0  0  0  0  0
   -2.4847   -6.7564   12.6133 H   0  0  0  0  0  0  0  0  0  0  0  0
   -3.6855   -5.4917   12.2973 H   0  0  0  0  0  0  0  0  0  0  0  0
   -2.1307   -5.0690   13.0428 H   0  0  0  0  0  0  0  0  0  0  0  0
    1.7388   -7.1527   10.9650 H   0  0  0  0  0  0  0  0  0  0  0  0
   -0.5536   -8.0045   12.8443 H   0  0  0  0  0  0  0  0  0  0  0  0
    0.8685   -7.0543   13.3217 H   0  0  0  0  0  0  0  0  0  0  0  0
    1.0616   -8.7325   12.7745 H   0  0  0  0  0  0  0  0  0  0  0  0
   -0.8335   -8.7100   10.3023 H   0  0  0  0  0  0  0  0  0  0  0  0
    0.8226   -9.3430   10.2926 H   0  0  0  0  0  0  0  0  0  0  0  0
    0.3320   -8.1107    9.1047 H   0  0  0  0  0  0  0  0  0  0  0  0
   -0.4072    1.6129    5.0303 H   0  0  0  0  0  0  0  0  0  0  0  0
    1.2182    1.9332    5.6485 H   0  0  0  0  0  0  0  0  0  0  0  0
   -0.7016    3.7431    7.2118 H   0  0  0  0  0  0  0  0  0  0  0  0
   -1.5881    3.7272    9.5436 H   0  0  0  0  0  0  0  0  0  0  0  0
   -1.6682    1.6200   10.8525 H   0  0  0  0  0  0  0  0  0  0  0  0
   -0.8526   -0.5278    9.8450 H   0  0  0  0  0  0  0  0  0  0  0  0
    0.6519   -1.6627   -0.6769 H   0  0  0  0  0  0  0  0  0  0  0  0
    2.7232   -1.0521   -2.8812 H   0  0  0  0  0  0  0  0  0  0  0  0
    1.5155    0.0993   -2.2688 H   0  0  0  0  0  0  0  0  0  0  0  0
    0.9967   -1.3688   -3.1237 H   0  0  0  0  0  0  0  0  0  0  0  0
    2.9616   -3.4275   -1.7039 H   0  0  0  0  0  0  0  0  0  0  0  0
    1.2365   -3.6763   -2.0317 H   0  0  0  0  0  0  0  0  0  0  0  0
    1.8542   -3.8287   -0.3701 H   0  0  0  0  0  0  0  0  0  0  0  0
    4.6964   -2.1065   -0.7123 H   0  0  0  0  0  0  0  0  0  0  0  0
    5.1306    0.9408   -0.5203 H   0  0  0  0  0  0  0  0  0  0  0  0
    4.5313    0.0807   -1.9526 H   0  0  0  0  0  0  0  0  0  0  0  0
    6.1804   -0.2131   -1.3637 H   0  0  0  0  0  0  0  0  0  0  0  0
    5.5758   -0.4426    1.7297 H   0  0  0  0  0  0  0  0  0  0  0  0
    6.6098   -1.5154    0.7651 H   0  0  0  0  0  0  0  0  0  0  0  0
    5.2652   -2.1873    1.7217 H   0  0  0  0  0  0  0  0  0  0  0  0
  1  2  1  0
  1 50  1  0
  1 51  1  0
  1 52  1  0
  2  3  1  0
  2  4  1  0
  2 53  1  6
  3 54  1  0
  3 55  1  0
  3 56  1  0
  4  5  1  1
  4 44  1  0
  4 47  1  0
  5  6  3  0
  6  7  1  0
  7  8  2  0
  7 36  1  0
  8  9  1  0
  8 17  1  0
  9 10  2  0
  9 57  1  0
 10 11  1  0
 10 15  1  0
 11 12  2  0
 11 58  1  0
 12 13  1  0
 12 59  1  0
 13 14  2  0
 13 60  1  0
 14 15  1  0
 14 61  1  0
 15 16  2  0
 16 17  1  0
 16 62  1  0
 17 18  2  0
 18 19  1  0
 18 31  1  0
 19 20  3  0
 21 20  1  6
 21 22  1  0
 21 25  1  0
 21 28  1  0
 22 23  1  0
 22 24  1  0
 22 63  1  1
 23 64  1  0
 23 65  1  0
 23 66  1  0
 24 67  1  0
 24 68  1  0
 24 69  1  0
 25 26  1  0
 25 27  1  0
 25 70  1  6
 26 71  1  0
 26 72  1  0
 26 73  1  0
 27 74  1  0
 27 75  1  0
 27 76  1  0
 28 29  1  0
 28 30  1  0
 28 77  1  6
 29 78  1  0
 29 79  1  0
 29 80  1  0
 30 81  1  0
 30 82  1  0
 30 83  1  0
 31 32  1  0
 31 36  2  0
 32 33  2  0
 33 34  1  0
 33 43  1  0
 34 35  2  0
 34 37  1  0
 35 36  1  0
 37 38  1  0
 37 84  1  0
 37 85  1  0
 38 39  1  0
 38 43  2  0
 39 40  2  0
 39 86  1  0
 40 41  1  0
 40 87  1  0
 41 42  2  0
 41 88  1  0
 42 43  1  0
 42 89  1  0
 44 45  1  0
 44 46  1  0
 44 90  1  1
 45 91  1  0
 45 92  1  0
 45 93  1  0
 46 94  1  0
 46 95  1  0
 46 96  1  0
 47 48  1  0
 47 49  1  0
 47 97  1  6
 48 98  1  0
 48 99  1  0
 48100  1  0
 49101  1  0
 49102  1  0
 49103  1  0
M  END

