
     RDKit          3D

 59 60  0  0  0  0  0  0  0  0999 V2000
    5.2965   -2.1584    1.0761 C   0  0  0  0  0  0  0  0  0  0  0  0
    5.9345   -0.8824    0.5236 C   0  0  1  0  0  0  0  0  0  0  0  0
    5.6188    0.3487    1.3778 C   0  0  0  0  0  0  0  0  0  0  0  0
    7.4445   -1.0558    0.3569 C   0  0  0  0  0  0  0  0  0  0  0  0
    5.4788   -0.6473   -0.8652 O   0  0  0  0  0  0  0  0  0  0  0  0
    4.1975   -0.4475   -1.1842 C   0  0  0  0  0  0  0  0  0  0  0  0
    3.2721   -0.4302   -0.4062 O   0  0  0  0  0  0  0  0  0  0  0  0
    4.0214   -0.1768   -2.6867 C   0  0  1  0  0  0  0  0  0  0  0  0
    5.0299   -0.8755   -3.6017 C   0  0  0  0  0  0  0  0  0  0  0  0
    4.8014   -2.3853   -3.6394 C   0  0  0  0  0  0  0  0  0  0  0  0
    3.4169   -2.7832   -3.8338 N   0  0  0  0  0  0  0  0  0  0  0  0
    3.1687   -4.0847   -4.4226 C   0  0  0  0  0  0  0  0  0  0  0  0
    3.1849   -5.2563   -3.5779 C   0  0  0  0  0  0  0  0  0  0  0  0
    3.3670   -5.1665   -2.1461 C   0  0  0  0  0  0  0  0  0  0  0  0
    3.5990   -4.0946   -1.5306 O   0  0  0  0  0  0  0  0  0  0  0  0
    3.2633   -6.3658   -1.4264 N   0  0  0  0  0  0  0  0  0  0  0  0
    3.4258   -6.5362   -0.0414 C   0  0  0  0  0  0  0  0  0  0  0  0
    3.7229   -5.6552    0.8295 N   0  0  0  0  0  0  0  0  0  0  0  0
    3.2613   -7.8849    0.3199 N   0  0  0  0  0  0  0  0  0  0  0  0
    3.0000   -6.5121   -4.2766 C   0  0  0  0  0  0  0  0  0  0  0  0
    2.7547   -6.5879   -5.6313 C   0  0  0  0  0  0  0  0  0  0  0  0
    2.6866   -5.4313   -6.4262 C   0  0  0  0  0  0  0  0  0  0  0  0
    2.9309   -4.1892   -5.7844 C   0  0  0  0  0  0  0  0  0  0  0  0
    2.8208   -2.7494   -6.8436 S   0  0  1  0  0  0  0  0  0  0  0  0
    4.2097   -2.9012   -7.9877 C   0  0  0  0  0  0  0  0  0  0  0  0
    1.5895   -2.8209   -7.6380 O   0  0  0  0  0  0  0  0  0  0  0  0
    3.0830   -1.5276   -6.0417 O   0  0  0  0  0  0  0  0  0  0  0  0
    2.3005   -2.0241   -3.1808 C   0  0  2  0  0  0  0  0  0  0  0  0
    1.0628   -2.3683   -3.7814 N   0  0  0  0  0  0  0  0  0  0  0  0
    2.6012   -0.5139   -3.1486 C   0  0  0  0  0  0  0  0  0  0  0  0
    5.7369   -2.3895    2.0582 H   0  0  0  0  0  0  0  0  0  0  0  0
    5.4851   -3.0118    0.4085 H   0  0  0  0  0  0  0  0  0  0  0  0
    4.2119   -2.0491    1.1972 H   0  0  0  0  0  0  0  0  0  0  0  0
    6.0608    0.2229    2.3784 H   0  0  0  0  0  0  0  0  0  0  0  0
    4.5363    0.4891    1.4903 H   0  0  0  0  0  0  0  0  0  0  0  0
    6.0525    1.2549    0.9261 H   0  0  0  0  0  0  0  0  0  0  0  0
    7.9151   -1.2284    1.3364 H   0  0  0  0  0  0  0  0  0  0  0  0
    7.8947   -0.1575   -0.0927 H   0  0  0  0  0  0  0  0  0  0  0  0
    7.6670   -1.9186   -0.2889 H   0  0  0  0  0  0  0  0  0  0  0  0
    4.1645    0.9148   -2.7848 H   0  0  0  0  0  0  0  0  0  0  0  0
    6.0594   -0.6961   -3.2649 H   0  0  0  0  0  0  0  0  0  0  0  0
    4.9196   -0.4744   -4.6194 H   0  0  0  0  0  0  0  0  0  0  0  0
    5.0863   -2.8430   -2.6750 H   0  0  0  0  0  0  0  0  0  0  0  0
    5.4016   -2.8720   -4.4195 H   0  0  0  0  0  0  0  0  0  0  0  0
    3.1691   -7.2223   -1.9535 H   0  0  0  0  0  0  0  0  0  0  0  0
    3.8569   -4.7576    0.3586 H   0  0  0  0  0  0  0  0  0  0  0  0
    2.4098   -8.3104   -0.0432 H   0  0  0  0  0  0  0  0  0  0  0  0
    3.2995   -7.9732    1.3322 H   0  0  0  0  0  0  0  0  0  0  0  0
    3.0710   -7.4496   -3.7240 H   0  0  0  0  0  0  0  0  0  0  0  0
    2.6054   -7.5671   -6.0941 H   0  0  0  0  0  0  0  0  0  0  0  0
    2.4107   -5.4688   -7.4783 H   0  0  0  0  0  0  0  0  0  0  0  0
    4.1113   -3.8318   -8.5595 H   0  0  0  0  0  0  0  0  0  0  0  0
    5.1497   -2.8768   -7.4220 H   0  0  0  0  0  0  0  0  0  0  0  0
    4.1262   -2.0269   -8.6483 H   0  0  0  0  0  0  0  0  0  0  0  0
    2.3371   -2.4151   -2.1496 H   0  0  0  0  0  0  0  0  0  0  0  0
    0.7734   -1.7632   -4.5442 H   0  0  0  0  0  0  0  0  0  0  0  0
    0.3128   -2.5698   -3.1328 H   0  0  0  0  0  0  0  0  0  0  0  0
    1.8644   -0.0668   -2.4682 H   0  0  0  0  0  0  0  0  0  0  0  0
    2.4426   -0.1116   -4.1593 H   0  0  0  0  0  0  0  0  0  0  0  0
  1  2  1  0
  1 31  1  0
  1 32  1  0
  1 33  1  0
  2  3  1  0
  2  4  1  0
  2  5  1  6
  3 34  1  0
  3 35  1  0
  3 36  1  0
  4 37  1  0
  4 38  1  0
  4 39  1  0
  5  6  1  0
  6  7  2  0
  6  8  1  0
  8  9  1  0
  8 30  1  0
  8 40  1  1
  9 10  1  0
  9 41  1  0
  9 42  1  0
 10 11  1  0
 10 43  1  0
 10 44  1  0
 11 12  1  0
 11 28  1  0
 12 13  2  0
 12 23  1  0
 13 14  1  0
 13 20  1  0
 14 15  2  0
 14 16  1  0
 16 17  1  0
 16 45  1  0
 17 18  2  0
 17 19  1  0
 18 46  1  0
 19 47  1  0
 19 48  1  0
 20 21  2  0
 20 49  1  0
 21 22  1  0
 21 50  1  0
 22 23  2  0
 22 51  1  0
 23 24  1  0
 24 25  1  6
 24 26  2  0
 24 27  2  0
 25 52  1  0
 25 53  1  0
 25 54  1  0
 28 29  1  0
 28 30  1  0
 28 55  1  1
 29 56  1  0
 29 57  1  0
 30 58  1  0
 30 59  1  0
M  END

