
     RDKit          3D

 49 52  0  0  0  0  0  0  0  0999 V2000
    1.5455   -1.6454   -1.1285 C   0  0  0  0  0  0  0  0  0  0  0  0
    2.0076   -0.6601   -0.0536 C   0  0  0  0  0  0  0  0  0  0  0  0
    3.3939   -0.9752    0.5406 C   0  0  2  0  0  0  0  0  0  0  0  0
    4.5214   -1.0108   -0.5001 C   0  0  0  0  0  0  0  0  0  0  0  0
    4.7177    0.2881   -1.2832 C   0  0  0  0  0  0  0  0  0  0  0  0
    3.3836   -2.2796    1.1504 O   0  0  0  0  0  0  0  0  0  0  0  0
    2.8426   -2.2122    2.4623 C   0  0  1  0  0  0  0  0  0  0  0  0
    1.7382   -2.2751    2.4632 H   0  0  0  0  0  0  0  0  0  0  0  0
    3.4023   -3.3607    3.2433 C   0  0  0  0  0  0  0  0  0  0  0  0
    4.5167   -4.1705    2.9967 C   0  0  0  0  0  0  0  0  0  0  0  0
    4.6271   -5.1210    4.0300 C   0  0  0  0  0  0  0  0  0  0  0  0
    3.5693   -4.8905    4.9152 C   0  0  0  0  0  0  0  0  0  0  0  0
    3.0799   -5.4442    6.1265 C   0  0  0  0  0  0  0  0  0  0  0  0
    3.7809   -6.6053    6.7705 C   0  0  0  0  0  0  0  0  0  0  0  0
    2.0003   -4.9467    6.7026 N   0  0  0  0  0  0  0  0  0  0  0  0
    1.3853   -3.8966    6.0922 C   0  0  0  0  0  0  0  0  0  0  0  0
    1.7328   -3.2934    4.9849 N   0  0  0  0  0  0  0  0  0  0  0  0
    2.8348   -3.8012    4.3997 N   0  0  0  0  0  0  0  0  0  0  0  0
    3.2098   -0.7992    2.9898 C   0  0  2  0  0  0  0  0  0  0  0  0
    3.9537   -0.8539    3.8026 H   0  0  0  0  0  0  0  0  0  0  0  0
    2.0789   -0.0474    3.3830 O   0  0  0  0  0  0  0  0  0  0  0  0
    2.2902    1.2958    2.9720 C   0  0  1  0  0  0  0  0  0  0  0  0
    0.9461    1.9360    2.6689 C   0  0  0  0  0  0  0  0  0  0  0  0
    3.0875    2.0753    4.0227 C   0  0  0  0  0  0  0  0  0  0  0  0
    3.0546    1.1964    1.7622 O   0  0  0  0  0  0  0  0  0  0  0  0
    3.7325   -0.0417    1.7468 C   0  0  2  0  0  0  0  0  0  0  0  0
    4.8229    0.1196    1.7926 H   0  0  0  0  0  0  0  0  0  0  0  0
    0.5023   -1.4420   -1.4179 H   0  0  0  0  0  0  0  0  0  0  0  0
    1.6002   -2.6813   -0.7600 H   0  0  0  0  0  0  0  0  0  0  0  0
    2.1556   -1.5832   -2.0437 H   0  0  0  0  0  0  0  0  0  0  0  0
    1.2777   -0.6526    0.7718 H   0  0  0  0  0  0  0  0  0  0  0  0
    2.0152    0.3699   -0.4408 H   0  0  0  0  0  0  0  0  0  0  0  0
    4.3336   -1.8489   -1.1898 H   0  0  0  0  0  0  0  0  0  0  0  0
    5.4484   -1.2705    0.0394 H   0  0  0  0  0  0  0  0  0  0  0  0
    3.8582    0.5110   -1.9347 H   0  0  0  0  0  0  0  0  0  0  0  0
    5.6081    0.2206   -1.9277 H   0  0  0  0  0  0  0  0  0  0  0  0
    4.8547    1.1535   -0.6145 H   0  0  0  0  0  0  0  0  0  0  0  0
    5.1593   -4.0661    2.1262 H   0  0  0  0  0  0  0  0  0  0  0  0
    5.3827   -5.8972    4.1288 H   0  0  0  0  0  0  0  0  0  0  0  0
    3.8037   -7.4736    6.0912 H   0  0  0  0  0  0  0  0  0  0  0  0
    3.2576   -6.8815    7.6945 H   0  0  0  0  0  0  0  0  0  0  0  0
    4.8276   -6.3504    7.0054 H   0  0  0  0  0  0  0  0  0  0  0  0
    0.4897   -3.4971    6.5789 H   0  0  0  0  0  0  0  0  0  0  0  0
    0.3366    1.9866    3.5829 H   0  0  0  0  0  0  0  0  0  0  0  0
    0.4092    1.3434    1.9160 H   0  0  0  0  0  0  0  0  0  0  0  0
    1.0923    2.9554    2.2836 H   0  0  0  0  0  0  0  0  0  0  0  0
    2.5258    2.1292    4.9673 H   0  0  0  0  0  0  0  0  0  0  0  0
    3.2867    3.0967    3.6662 H   0  0  0  0  0  0  0  0  0  0  0  0
    4.0547    1.5897    4.2223 H   0  0  0  0  0  0  0  0  0  0  0  0
  1  2  1  0
  1 28  1  0
  1 29  1  0
  1 30  1  0
  3  2  1  6
  2 31  1  0
  2 32  1  0
  3  4  1  0
  3  6  1  0
  3 26  1  0
  4  5  1  0
  4 33  1  0
  4 34  1  0
  5 35  1  0
  5 36  1  0
  5 37  1  0
  6  7  1  0
  7  8  1  6
  7  9  1  0
  7 19  1  0
  9 10  2  0
  9 18  1  0
 10 11  1  0
 10 38  1  0
 11 12  2  0
 11 39  1  0
 12 13  1  0
 12 18  1  0
 13 14  1  0
 13 15  2  0
 14 40  1  0
 14 41  1  0
 14 42  1  0
 15 16  1  0
 16 17  2  0
 16 43  1  0
 17 18  1  0
 19 20  1  1
 19 21  1  0
 19 26  1  0
 21 22  1  0
 22 23  1  6
 22 24  1  0
 22 25  1  0
 23 44  1  0
 23 45  1  0
 23 46  1  0
 24 47  1  0
 24 48  1  0
 24 49  1  0
 25 26  1  0
 26 27  1  1
M  END

