
     RDKit          3D

 51 53  0  0  0  0  0  0  0  0999 V2000
    1.6586    0.2743   -1.0457 C   0  0  0  0  0  0  0  0  0  0  0  0
    2.7674   -0.0192   -0.0880 C   0  0  0  0  0  0  0  0  0  0  0  0
    3.5606    0.8267    0.6472 C   0  0  0  0  0  0  0  0  0  0  0  0
    4.4763    0.0251    1.4069 C   0  0  0  0  0  0  0  0  0  0  0  0
    5.5084    0.5063    2.3268 C   0  0  0  0  0  0  0  0  0  0  0  0
    6.2898   -0.1713    2.9641 O   0  0  0  0  0  0  0  0  0  0  0  0
    5.5100    1.8682    2.4024 O   0  0  0  0  0  0  0  0  0  0  0  0
    6.4419    2.4687    3.2963 C   0  0  0  0  0  0  0  0  0  0  0  0
    7.8020    2.6308    2.6278 C   0  0  0  0  0  0  0  0  0  0  0  0
    8.6088    3.3781    3.5232 O   0  0  0  0  0  0  0  0  0  0  0  0
    9.8859    3.6752    3.1985 C   0  0  0  0  0  0  0  0  0  0  0  0
   10.5068    3.2915    1.9985 C   0  0  0  0  0  0  0  0  0  0  0  0
   11.8347    3.6563    1.7579 C   0  0  0  0  0  0  0  0  0  0  0  0
   12.5337    4.4001    2.7069 C   0  0  0  0  0  0  0  0  0  0  0  0
   14.2312    4.8586    2.3963 S   0  0  1  0  0  0  0  0  0  0  0  0
   14.1192    6.4964    1.9706 N   0  0  0  0  0  0  0  0  0  0  0  0
   14.9572    4.8464    3.6688 O   0  0  0  0  0  0  0  0  0  0  0  0
   14.6902    4.0955    1.2314 O   0  0  0  0  0  0  0  0  0  0  0  0
   11.9271    4.7750    3.9148 C   0  0  0  0  0  0  0  0  0  0  0  0
   10.6090    4.4162    4.1557 C   0  0  0  0  0  0  0  0  0  0  0  0
    4.2122   -1.3139    1.1113 C   0  0  0  0  0  0  0  0  0  0  0  0
    4.8488   -2.5686    1.6129 C   0  0  0  0  0  0  0  0  0  0  0  0
    3.1740   -1.3268    0.2039 N   0  0  0  0  0  0  0  0  0  0  0  0
    2.5939   -2.5060   -0.3605 C   0  0  0  0  0  0  0  0  0  0  0  0
    1.4916   -3.1128    0.2566 C   0  0  0  0  0  0  0  0  0  0  0  0
    0.9184   -4.2608   -0.2935 C   0  0  0  0  0  0  0  0  0  0  0  0
    1.4612   -4.7908   -1.4629 C   0  0  0  0  0  0  0  0  0  0  0  0
    0.9154   -5.8907   -1.9940 F   0  0  0  0  0  0  0  0  0  0  0  0
    2.5576   -4.2049   -2.0935 C   0  0  0  0  0  0  0  0  0  0  0  0
    3.1226   -3.0567   -1.5358 C   0  0  0  0  0  0  0  0  0  0  0  0
    1.5178    1.3614   -1.1214 H   0  0  0  0  0  0  0  0  0  0  0  0
    0.7000   -0.1686   -0.7260 H   0  0  0  0  0  0  0  0  0  0  0  0
    1.8676   -0.1107   -2.0584 H   0  0  0  0  0  0  0  0  0  0  0  0
    3.5059    1.9122    0.6528 H   0  0  0  0  0  0  0  0  0  0  0  0
    6.5444    1.8661    4.2101 H   0  0  0  0  0  0  0  0  0  0  0  0
    6.0324    3.4566    3.5505 H   0  0  0  0  0  0  0  0  0  0  0  0
    7.6865    3.1633    1.6660 H   0  0  0  0  0  0  0  0  0  0  0  0
    8.2463    1.6400    2.4328 H   0  0  0  0  0  0  0  0  0  0  0  0
    9.9719    2.7050    1.2519 H   0  0  0  0  0  0  0  0  0  0  0  0
   12.3359    3.3540    0.8368 H   0  0  0  0  0  0  0  0  0  0  0  0
   14.8725    7.0001    2.4409 H   0  0  0  0  0  0  0  0  0  0  0  0
   14.1772    6.6057    0.9577 H   0  0  0  0  0  0  0  0  0  0  0  0
   12.4964    5.3347    4.6591 H   0  0  0  0  0  0  0  0  0  0  0  0
   10.1074    4.6894    5.0859 H   0  0  0  0  0  0  0  0  0  0  0  0
    5.6417   -2.3100    2.3240 H   0  0  0  0  0  0  0  0  0  0  0  0
    5.2881   -3.1584    0.7907 H   0  0  0  0  0  0  0  0  0  0  0  0
    4.1164   -3.2204    2.1184 H   0  0  0  0  0  0  0  0  0  0  0  0
    1.0851   -2.6797    1.1729 H   0  0  0  0  0  0  0  0  0  0  0  0
    0.0600   -4.7505    0.1698 H   0  0  0  0  0  0  0  0  0  0  0  0
    2.9530   -4.6516   -3.0076 H   0  0  0  0  0  0  0  0  0  0  0  0
    3.9814   -2.5791   -2.0120 H   0  0  0  0  0  0  0  0  0  0  0  0
  1  2  1  0
  1 31  1  0
  1 32  1  0
  1 33  1  0
  2  3  2  0
  2 23  1  0
  3  4  1  0
  3 34  1  0
  4  5  1  0
  4 21  2  0
  5  6  2  0
  5  7  1  0
  7  8  1  0
  8  9  1  0
  8 35  1  0
  8 36  1  0
  9 10  1  0
  9 37  1  0
  9 38  1  0
 10 11  1  0
 11 12  2  0
 11 20  1  0
 12 13  1  0
 12 39  1  0
 13 14  2  0
 13 40  1  0
 14 15  1  0
 14 19  1  0
 15 16  1  6
 15 17  2  0
 15 18  2  0
 16 41  1  0
 16 42  1  0
 19 20  2  0
 19 43  1  0
 20 44  1  0
 21 22  1  0
 21 23  1  0
 22 45  1  0
 22 46  1  0
 22 47  1  0
 23 24  1  0
 24 25  2  0
 24 30  1  0
 25 26  1  0
 25 48  1  0
 26 27  2  0
 26 49  1  0
 27 28  1  0
 27 29  1  0
 29 30  2  0
 29 50  1  0
 30 51  1  0
M  END

