
     RDKit          3D

 46 47  0  0  0  0  0  0  0  0999 V2000
   -2.7853    3.4479    0.3827 C   0  0  0  0  0  0  0  0  0  0  0  0
   -1.3421    3.0630    0.7047 C   0  0  0  0  0  0  0  0  0  0  0  0
   -0.3797    4.1018    0.3307 N   0  0  0  0  0  0  0  0  0  0  0  0
   -0.2176    5.2185    1.2119 C   0  0  0  0  0  0  0  0  0  0  0  0
    0.9556    4.9080    2.2527 C   0  0  0  0  0  0  0  0  0  0  0  0
    2.1313    4.5522    1.5404 N   0  0  0  0  0  0  0  0  0  0  0  0
    3.1148    5.6066    1.2180 C   0  0  0  0  0  0  0  0  0  0  0  0
    4.0563    6.0095    2.3651 C   0  0  1  0  0  0  0  0  0  0  0  0
    4.7777    4.7905    2.9693 C   0  0  0  0  0  0  0  0  0  0  0  0
    4.9912    7.0547    1.7944 C   0  0  0  0  0  0  0  0  0  0  0  0
    5.7002    6.7593    0.6680 N   0  0  0  0  0  0  0  0  0  0  0  0
    6.8264    7.4605    0.5693 C   0  0  0  0  0  0  0  0  0  0  0  0
    7.6618    7.3786   -0.6834 C   0  0  0  0  0  0  0  0  0  0  0  0
    7.1864    8.2625    1.6816 C   0  0  0  0  0  0  0  0  0  0  0  0
    8.2593    9.3006    1.7831 C   0  0  0  0  0  0  0  0  0  0  0  0
    9.4699    8.9077    2.6537 C   0  0  0  0  0  0  0  0  0  0  0  0
   10.3204    9.6803    3.0186 O   0  0  0  0  0  0  0  0  0  0  0  0
    9.5146    7.5988    2.9381 O   0  0  0  0  0  0  0  0  0  0  0  0
    5.8949    8.1393    2.9186 S   0  0  0  0  0  0  0  0  0  0  0  0
    1.9762    3.4332    0.6851 C   0  0  0  0  0  0  0  0  0  0  0  0
    0.8103    3.7453   -0.3742 C   0  0  0  0  0  0  0  0  0  0  0  0
   -3.4615    2.6336    0.6814 H   0  0  0  0  0  0  0  0  0  0  0  0
   -2.9131    3.6285   -0.6949 H   0  0  0  0  0  0  0  0  0  0  0  0
   -3.0963    4.3553    0.9226 H   0  0  0  0  0  0  0  0  0  0  0  0
   -1.0707    2.1447    0.1644 H   0  0  0  0  0  0  0  0  0  0  0  0
   -1.2414    2.8396    1.7845 H   0  0  0  0  0  0  0  0  0  0  0  0
   -1.1447    5.4244    1.7618 H   0  0  0  0  0  0  0  0  0  0  0  0
    0.0726    6.1157    0.6467 H   0  0  0  0  0  0  0  0  0  0  0  0
    0.6117    4.0789    2.8936 H   0  0  0  0  0  0  0  0  0  0  0  0
    1.1235    5.7956    2.8721 H   0  0  0  0  0  0  0  0  0  0  0  0
    2.5691    6.4992    0.8670 H   0  0  0  0  0  0  0  0  0  0  0  0
    3.7350    5.2618    0.3800 H   0  0  0  0  0  0  0  0  0  0  0  0
    3.4529    6.4825    3.1635 H   0  0  0  0  0  0  0  0  0  0  0  0
    5.3892    4.2928    2.1986 H   0  0  0  0  0  0  0  0  0  0  0  0
    4.0939    4.0472    3.4156 H   0  0  0  0  0  0  0  0  0  0  0  0
    5.4649    5.1311    3.7575 H   0  0  0  0  0  0  0  0  0  0  0  0
    7.2754    6.5766   -1.3277 H   0  0  0  0  0  0  0  0  0  0  0  0
    8.7220    7.1688   -0.4613 H   0  0  0  0  0  0  0  0  0  0  0  0
    7.6365    8.3206   -1.2613 H   0  0  0  0  0  0  0  0  0  0  0  0
    7.9012   10.2741    2.1633 H   0  0  0  0  0  0  0  0  0  0  0  0
    8.6774    9.5138    0.7836 H   0  0  0  0  0  0  0  0  0  0  0  0
    8.6733    7.2376    2.5616 H   0  0  0  0  0  0  0  0  0  0  0  0
    1.6629    2.5384    1.2482 H   0  0  0  0  0  0  0  0  0  0  0  0
    2.9030    3.2182    0.1420 H   0  0  0  0  0  0  0  0  0  0  0  0
    0.6452    2.8641   -1.0071 H   0  0  0  0  0  0  0  0  0  0  0  0
    1.1550    4.5828   -0.9970 H   0  0  0  0  0  0  0  0  0  0  0  0
  1  2  1  0
  1 22  1  0
  1 23  1  0
  1 24  1  0
  2  3  1  0
  2 25  1  0
  2 26  1  0
  3  4  1  0
  3 21  1  0
  4  5  1  0
  4 27  1  0
  4 28  1  0
  5  6  1  0
  5 29  1  0
  5 30  1  0
  6  7  1  0
  6 20  1  0
  7  8  1  0
  7 31  1  0
  7 32  1  0
  8  9  1  0
  8 10  1  0
  8 33  1  1
  9 34  1  0
  9 35  1  0
  9 36  1  0
 10 11  2  0
 10 19  1  0
 11 12  1  0
 12 13  1  0
 12 14  2  0
 13 37  1  0
 13 38  1  0
 13 39  1  0
 14 15  1  0
 14 19  1  0
 15 16  1  0
 15 40  1  0
 15 41  1  0
 16 17  2  0
 16 18  1  0
 18 42  1  0
 20 21  1  0
 20 43  1  0
 20 44  1  0
 21 45  1  0
 21 46  1  0
M  END

