
     RDKit          3D

 73 78  0  0  0  0  0  0  0  0999 V2000
    1.3506   -0.3077    1.1143 C   0  0  0  0  0  0  0  0  0  0  0  0
    2.8151   -0.0597    0.8634 C   0  0  0  0  0  0  0  0  0  0  0  0
    3.3509    1.2226    0.7433 C   0  0  0  0  0  0  0  0  0  0  0  0
    4.7172    1.4828    0.5042 C   0  0  0  0  0  0  0  0  0  0  0  0
    5.5720    0.3622    0.3924 C   0  0  0  0  0  0  0  0  0  0  0  0
    5.0627   -0.9367    0.5158 C   0  0  0  0  0  0  0  0  0  0  0  0
    3.7032   -1.1505    0.7509 C   0  0  0  0  0  0  0  0  0  0  0  0
    3.1758   -2.3991    0.8817 O   0  0  0  0  0  0  0  0  0  0  0  0
    6.9271    0.4945    0.2724 O   0  0  0  0  0  0  0  0  0  0  0  0
    7.4758    1.0594   -0.9155 C   0  0  0  0  0  0  0  0  0  0  0  0
    6.5965    2.1482   -1.5291 C   0  0  0  0  0  0  0  0  0  0  0  0
    6.1822    3.2006   -0.5158 C   0  0  0  0  0  0  0  0  0  0  0  0
    6.8925    4.5075   -0.5713 C   0  0  0  0  0  0  0  0  0  0  0  0
    7.4742    5.0725    0.5806 C   0  0  0  0  0  0  0  0  0  0  0  0
    8.1782    6.2808    0.5474 C   0  0  0  0  0  0  0  0  0  0  0  0
    8.3048    6.9485   -0.6747 C   0  0  0  0  0  0  0  0  0  0  0  0
    7.7409    6.4003   -1.8450 C   0  0  0  0  0  0  0  0  0  0  0  0
    7.0485    5.1998   -1.7971 C   0  0  0  0  0  0  0  0  0  0  0  0
    8.0047    7.3631   -2.9859 C   0  0  0  0  0  0  0  0  0  0  0  0
    9.1235    8.2615   -2.4061 C   0  0  0  0  0  0  0  0  0  0  0  0
    8.9218    8.1643   -0.9554 N   0  0  0  0  0  0  0  0  0  0  0  0
    5.2321    2.8759    0.4117 C   0  0  0  0  0  0  0  0  0  0  0  0
    4.6283    3.8679    1.3505 C   0  0  0  0  0  0  0  0  0  0  0  0
    4.1076    5.0906    0.9006 C   0  0  0  0  0  0  0  0  0  0  0  0
    3.5237    6.0130    1.7747 C   0  0  0  0  0  0  0  0  0  0  0  0
    3.4524    5.7279    3.1470 C   0  0  0  0  0  0  0  0  0  0  0  0
    2.9223    6.5515    4.0890 O   0  0  0  0  0  0  0  0  0  0  0  0
    2.4353    7.8404    3.7315 C   0  0  1  0  0  0  0  0  0  0  0  0
    3.1877    8.3453    3.1023 H   0  0  0  0  0  0  0  0  0  0  0  0
    1.0371    7.7941    3.0554 C   0  0  0  0  0  0  0  0  0  0  0  0
    0.1398    8.6443    3.9672 C   0  0  0  0  0  0  0  0  0  0  0  0
    0.7647    8.5111    5.2760 N   0  0  0  0  0  0  0  0  0  0  0  0
    0.2605    9.3700    6.3297 C   0  0  0  0  0  0  0  0  0  0  0  0
   -1.1605    9.0128    6.7708 C   0  0  0  0  0  0  0  0  0  0  0  0
   -1.6536    9.8522    7.9340 C   0  0  0  0  0  0  0  0  0  0  0  0
   -1.7018   11.1925    7.5795 F   0  0  0  0  0  0  0  0  0  0  0  0
    2.1931    8.6316    5.0251 C   0  0  0  0  0  0  0  0  0  0  0  0
    3.9578    4.5013    3.6139 C   0  0  0  0  0  0  0  0  0  0  0  0
    4.5249    3.5906    2.7297 C   0  0  0  0  0  0  0  0  0  0  0  0
    0.7969    0.6391    1.1922 H   0  0  0  0  0  0  0  0  0  0  0  0
    1.1943   -0.8783    2.0450 H   0  0  0  0  0  0  0  0  0  0  0  0
    0.8997   -0.9070    0.3055 H   0  0  0  0  0  0  0  0  0  0  0  0
    2.6759    2.0761    0.8434 H   0  0  0  0  0  0  0  0  0  0  0  0
    5.7614   -1.7748    0.4419 H   0  0  0  0  0  0  0  0  0  0  0  0
    3.8803   -3.0551    0.8000 H   0  0  0  0  0  0  0  0  0  0  0  0
    7.6559    0.2575   -1.6599 H   0  0  0  0  0  0  0  0  0  0  0  0
    8.4527    1.4707   -0.6182 H   0  0  0  0  0  0  0  0  0  0  0  0
    5.7034    1.6741   -1.9706 H   0  0  0  0  0  0  0  0  0  0  0  0
    7.1631    2.5992   -2.3578 H   0  0  0  0  0  0  0  0  0  0  0  0
    7.3836    4.5400    1.5292 H   0  0  0  0  0  0  0  0  0  0  0  0
    8.6250    6.6836    1.4600 H   0  0  0  0  0  0  0  0  0  0  0  0
    6.6079    4.7916   -2.7116 H   0  0  0  0  0  0  0  0  0  0  0  0
    7.0997    7.9610   -3.1996 H   0  0  0  0  0  0  0  0  0  0  0  0
    8.3027    6.8752   -3.9262 H   0  0  0  0  0  0  0  0  0  0  0  0
    9.0580    9.3048   -2.7522 H   0  0  0  0  0  0  0  0  0  0  0  0
   10.1175    7.8685   -2.7033 H   0  0  0  0  0  0  0  0  0  0  0  0
    9.6805    8.4644   -0.3529 H   0  0  0  0  0  0  0  0  0  0  0  0
    4.1520    5.3288   -0.1640 H   0  0  0  0  0  0  0  0  0  0  0  0
    3.1211    6.9422    1.3713 H   0  0  0  0  0  0  0  0  0  0  0  0
    0.6953    6.7492    3.0448 H   0  0  0  0  0  0  0  0  0  0  0  0
    1.0448    8.1606    2.0185 H   0  0  0  0  0  0  0  0  0  0  0  0
   -0.9037    8.2938    3.9756 H   0  0  0  0  0  0  0  0  0  0  0  0
    0.1274    9.7070    3.6236 H   0  0  0  0  0  0  0  0  0  0  0  0
    0.2914   10.4455    6.0380 H   0  0  0  0  0  0  0  0  0  0  0  0
    0.9348    9.2656    7.1981 H   0  0  0  0  0  0  0  0  0  0  0  0
   -1.1918    7.9488    7.0625 H   0  0  0  0  0  0  0  0  0  0  0  0
   -1.8672    9.1343    5.9327 H   0  0  0  0  0  0  0  0  0  0  0  0
   -0.9833    9.7573    8.8082 H   0  0  0  0  0  0  0  0  0  0  0  0
   -2.6677    9.5423    8.2415 H   0  0  0  0  0  0  0  0  0  0  0  0
    2.7926    8.2269    5.8548 H   0  0  0  0  0  0  0  0  0  0  0  0
    2.4976    9.6933    4.8670 H   0  0  0  0  0  0  0  0  0  0  0  0
    3.8929    4.2884    4.6830 H   0  0  0  0  0  0  0  0  0  0  0  0
    4.9079    2.6418    3.1138 H   0  0  0  0  0  0  0  0  0  0  0  0
  1  2  1  0
  1 40  1  0
  1 41  1  0
  1 42  1  0
  2  3  2  0
  2  7  1  0
  3  4  1  0
  3 43  1  0
  4  5  2  0
  4 22  1  0
  5  6  1  0
  5  9  1  0
  6  7  2  0
  6 44  1  0
  7  8  1  0
  8 45  1  0
  9 10  1  0
 10 11  1  0
 10 46  1  0
 10 47  1  0
 11 12  1  0
 11 48  1  0
 11 49  1  0
 12 13  1  0
 12 22  2  0
 13 14  2  0
 13 18  1  0
 14 15  1  0
 14 50  1  0
 15 16  2  0
 15 51  1  0
 16 17  1  0
 16 21  1  0
 17 18  2  0
 17 19  1  0
 18 52  1  0
 19 20  1  0
 19 53  1  0
 19 54  1  0
 20 21  1  0
 20 55  1  0
 20 56  1  0
 21 57  1  0
 22 23  1  0
 23 24  2  0
 23 39  1  0
 24 25  1  0
 24 58  1  0
 25 26  2  0
 25 59  1  0
 26 27  1  0
 26 38  1  0
 27 28  1  0
 28 29  1  6
 28 30  1  0
 28 37  1  0
 30 31  1  0
 30 60  1  0
 30 61  1  0
 31 32  1  0
 31 62  1  0
 31 63  1  0
 32 33  1  0
 32 37  1  0
 33 34  1  0
 33 64  1  0
 33 65  1  0
 34 35  1  0
 34 66  1  0
 34 67  1  0
 35 36  1  0
 35 68  1  0
 35 69  1  0
 37 70  1  0
 37 71  1  0
 38 39  2  0
 38 72  1  0
 39 73  1  0
M  END

