
     RDKit          3D

 54 57  0  0  0  0  0  0  0  0999 V2000
    6.4193   -2.3983   -0.1239 C   0  0  0  0  0  0  0  0  0  0  0  0
    5.9716   -1.7080    1.0458 O   0  0  0  0  0  0  0  0  0  0  0  0
    5.5953   -0.4309    0.8775 C   0  0  0  0  0  0  0  0  0  0  0  0
    5.6280    0.1419   -0.1843 O   0  0  0  0  0  0  0  0  0  0  0  0
    5.0865    0.1682    2.1762 C   0  0  0  0  0  0  0  0  0  0  0  0
    5.4108    1.6713    2.2950 C   0  0  1  0  0  0  0  0  0  0  0  0
    5.0730    2.1305    1.3550 H   0  0  0  0  0  0  0  0  0  0  0  0
    4.6616    2.3855    3.4236 C   0  0  0  0  0  0  0  0  0  0  0  0
    3.8101    1.7310    4.3314 C   0  0  0  0  0  0  0  0  0  0  0  0
    3.1487    2.4383    5.3390 C   0  0  0  0  0  0  0  0  0  0  0  0
    3.3003    3.8244    5.4565 C   0  0  0  0  0  0  0  0  0  0  0  0
    2.5612    4.5200    6.5674 C   0  0  0  0  0  0  0  0  0  0  0  0
    2.0989    3.9363    7.5114 O   0  0  0  0  0  0  0  0  0  0  0  0
    2.4276    5.8609    6.4590 O   0  0  0  0  0  0  0  0  0  0  0  0
    4.1585    4.4846    4.5597 C   0  0  0  0  0  0  0  0  0  0  0  0
    4.8281    3.7762    3.5660 C   0  0  0  0  0  0  0  0  0  0  0  0
    6.9193    1.9083    2.3710 C   0  0  0  0  0  0  0  0  0  0  0  0
    7.6844    1.5009    3.4795 C   0  0  0  0  0  0  0  0  0  0  0  0
    7.1244    0.9615    4.5889 O   0  0  0  0  0  0  0  0  0  0  0  0
    9.0908    1.6217    3.4827 C   0  0  0  0  0  0  0  0  0  0  0  0
    9.7433    2.1641    2.3926 C   0  0  0  0  0  0  0  0  0  0  0  0
    9.0185    2.6193    1.2743 C   0  0  0  0  0  0  0  0  0  0  0  0
    9.7183    3.2133    0.1130 C   0  0  0  0  0  0  0  0  0  0  0  0
   10.9339    3.3676    0.1019 O   0  0  0  0  0  0  0  0  0  0  0  0
    8.8291    3.5909   -1.0134 C   0  0  0  0  0  0  0  0  0  0  0  0
    9.3720    4.1043   -2.2940 C   0  0  0  0  0  0  0  0  0  0  0  0
   10.4972    4.9495   -2.3319 C   0  0  0  0  0  0  0  0  0  0  0  0
   10.9748    5.4571   -3.5397 C   0  0  0  0  0  0  0  0  0  0  0  0
   10.3461    5.1292   -4.7491 C   0  0  0  0  0  0  0  0  0  0  0  0
   10.7734    5.5951   -5.9504 O   0  0  0  0  0  0  0  0  0  0  0  0
    9.2342    4.2751   -4.7323 C   0  0  0  0  0  0  0  0  0  0  0  0
    8.7656    3.7707   -3.5223 C   0  0  0  0  0  0  0  0  0  0  0  0
    7.4867    3.4501   -0.8460 C   0  0  0  0  0  0  0  0  0  0  0  0
    6.8798    2.9446    0.2461 O   0  0  0  0  0  0  0  0  0  0  0  0
    7.6210    2.4879    1.2921 C   0  0  0  0  0  0  0  0  0  0  0  0
    6.6681   -3.4163    0.1994 H   0  0  0  0  0  0  0  0  0  0  0  0
    7.3055   -1.9052   -0.5505 H   0  0  0  0  0  0  0  0  0  0  0  0
    5.6296   -2.4211   -0.8900 H   0  0  0  0  0  0  0  0  0  0  0  0
    5.4823   -0.4160    3.0185 H   0  0  0  0  0  0  0  0  0  0  0  0
    3.9922    0.0235    2.1651 H   0  0  0  0  0  0  0  0  0  0  0  0
    3.6482    0.6539    4.2624 H   0  0  0  0  0  0  0  0  0  0  0  0
    2.4995    1.9246    6.0506 H   0  0  0  0  0  0  0  0  0  0  0  0
    2.7276    6.1670    5.5921 H   0  0  0  0  0  0  0  0  0  0  0  0
    4.3409    5.5603    4.6444 H   0  0  0  0  0  0  0  0  0  0  0  0
    5.4997    4.3062    2.8866 H   0  0  0  0  0  0  0  0  0  0  0  0
    6.1860    1.1958    4.6492 H   0  0  0  0  0  0  0  0  0  0  0  0
    9.6306    1.2814    4.3681 H   0  0  0  0  0  0  0  0  0  0  0  0
   10.8295    2.2708    2.3670 H   0  0  0  0  0  0  0  0  0  0  0  0
   11.0080    5.2030   -1.4043 H   0  0  0  0  0  0  0  0  0  0  0  0
   11.8499    6.1153   -3.5438 H   0  0  0  0  0  0  0  0  0  0  0  0
   11.5521    6.1523   -5.8204 H   0  0  0  0  0  0  0  0  0  0  0  0
    8.7627    4.0047   -5.6792 H   0  0  0  0  0  0  0  0  0  0  0  0
    7.9200    3.0782   -3.5366 H   0  0  0  0  0  0  0  0  0  0  0  0
    6.7502    3.7488   -1.5931 H   0  0  0  0  0  0  0  0  0  0  0  0
  1  2  1  0
  1 36  1  0
  1 37  1  0
  1 38  1  0
  2  3  1  0
  3  4  2  0
  3  5  1  0
  5  6  1  0
  5 39  1  0
  5 40  1  0
  6  7  1  6
  6  8  1  0
  6 17  1  0
  8  9  2  0
  8 16  1  0
  9 10  1  0
  9 41  1  0
 10 11  2  0
 10 42  1  0
 11 12  1  0
 11 15  1  0
 12 13  2  0
 12 14  1  0
 14 43  1  0
 15 16  2  0
 15 44  1  0
 16 45  1  0
 17 18  2  0
 17 35  1  0
 18 19  1  0
 18 20  1  0
 19 46  1  0
 20 21  2  0
 20 47  1  0
 21 22  1  0
 21 48  1  0
 22 23  1  0
 22 35  2  0
 23 24  2  0
 23 25  1  0
 25 26  1  0
 25 33  2  0
 26 27  2  0
 26 32  1  0
 27 28  1  0
 27 49  1  0
 28 29  2  0
 28 50  1  0
 29 30  1  0
 29 31  1  0
 30 51  1  0
 31 32  2  0
 31 52  1  0
 32 53  1  0
 33 34  1  0
 33 54  1  0
 34 35  1  0
M  END

