
     RDKit          3D

 59 62  0  0  0  0  0  0  0  0999 V2000
    1.1226    0.4254   -0.3058 O   0  0  0  0  0  0  0  0  0  0  0  0
    2.3302    0.5690   -0.3588 C   0  0  0  0  0  0  0  0  0  0  0  0
    3.1193   -0.0460   -1.5443 C   0  0  0  0  0  0  0  0  0  0  0  0
    2.3061   -0.9623   -2.3142 N   0  0  0  0  0  0  0  0  0  0  0  0
    1.2667   -0.4150   -3.1373 C   0  0  0  0  0  0  0  0  0  0  0  0
    1.8630   -0.0771   -4.5848 C   0  0  0  0  0  0  0  0  0  0  0  0
    2.4976   -1.2255   -5.1288 N   0  0  0  0  0  0  0  0  0  0  0  0
    1.8439   -2.0484   -6.1293 C   0  0  0  0  0  0  0  0  0  0  0  0
    2.3523   -2.0704   -7.4382 C   0  0  0  0  0  0  0  0  0  0  0  0
    1.9202   -3.0014   -8.3662 C   0  0  0  0  0  0  0  0  0  0  0  0
    0.9624   -4.0237   -7.9688 C   0  0  0  0  0  0  0  0  0  0  0  0
    0.4754   -3.9805   -6.6693 C   0  0  0  0  0  0  0  0  0  0  0  0
   -0.7380   -5.1838   -6.1843 Cl  0  0  0  0  0  0  0  0  0  0  0  0
    0.8578   -3.0481   -5.7068 C   0  0  0  0  0  0  0  0  0  0  0  0
    3.5366   -1.7562   -4.3144 C   0  0  0  0  0  0  0  0  0  0  0  0
    2.9340   -2.1206   -2.8769 C   0  0  0  0  0  0  0  0  0  0  0  0
    3.0381    1.2702    0.5937 N   0  0  0  0  0  0  0  0  0  0  0  0
    2.2368    1.7810    1.7310 C   0  0  1  0  0  0  0  0  0  0  0  0
    2.8632    1.7314    3.1404 C   0  0  0  0  0  0  0  0  0  0  0  0
    1.9243    2.6504    3.9341 C   0  0  0  0  0  0  0  0  0  0  0  0
    1.6946    3.8424    2.9852 C   0  0  0  0  0  0  0  0  0  0  0  0
    1.6871    3.2315    1.5617 C   0  0  0  0  0  0  0  0  0  0  0  0
    4.4763    1.5056    0.4791 C   0  0  1  0  0  0  0  0  0  0  0  0
    4.9221    2.9855    0.6581 C   0  0  0  0  0  0  0  0  0  0  0  0
    6.4447    2.9690    0.7329 C   0  0  0  0  0  0  0  0  0  0  0  0
    6.7930    1.6170    1.9135 S   0  0  2  0  0  0  0  0  0  0  0  0
    6.5033    2.1310    3.2615 O   0  0  0  0  0  0  0  0  0  0  0  0
    8.0599    0.9505    1.6062 O   0  0  0  0  0  0  0  0  0  0  0  0
    5.3568    0.5938    1.3816 C   0  0  0  0  0  0  0  0  0  0  0  0
    3.9949   -0.5962   -1.1740 H   0  0  0  0  0  0  0  0  0  0  0  0
    3.5029    0.7799   -2.1803 H   0  0  0  0  0  0  0  0  0  0  0  0
    0.8487    0.4896   -2.6826 H   0  0  0  0  0  0  0  0  0  0  0  0
    0.4638   -1.1493   -3.2711 H   0  0  0  0  0  0  0  0  0  0  0  0
    2.5838    0.7504   -4.4370 H   0  0  0  0  0  0  0  0  0  0  0  0
    1.0501    0.2525   -5.2407 H   0  0  0  0  0  0  0  0  0  0  0  0
    3.1027   -1.3259   -7.7276 H   0  0  0  0  0  0  0  0  0  0  0  0
    2.2676   -2.9491   -9.3996 H   0  0  0  0  0  0  0  0  0  0  0  0
    0.6664   -4.8233   -8.6461 H   0  0  0  0  0  0  0  0  0  0  0  0
    0.3117   -2.9903   -4.7667 H   0  0  0  0  0  0  0  0  0  0  0  0
    4.3411   -1.0166   -4.1410 H   0  0  0  0  0  0  0  0  0  0  0  0
    3.9529   -2.6605   -4.7709 H   0  0  0  0  0  0  0  0  0  0  0  0
    3.7376   -2.4896   -2.2245 H   0  0  0  0  0  0  0  0  0  0  0  0
    2.1961   -2.9170   -3.0352 H   0  0  0  0  0  0  0  0  0  0  0  0
    1.3652    1.1163    1.7522 H   0  0  0  0  0  0  0  0  0  0  0  0
    3.8858    2.1354    3.1790 H   0  0  0  0  0  0  0  0  0  0  0  0
    2.9016    0.7061    3.5419 H   0  0  0  0  0  0  0  0  0  0  0  0
    2.3412    2.9455    4.9085 H   0  0  0  0  0  0  0  0  0  0  0  0
    0.9706    2.1306    4.1302 H   0  0  0  0  0  0  0  0  0  0  0  0
    2.5272    4.5584    3.0888 H   0  0  0  0  0  0  0  0  0  0  0  0
    0.7725    4.3967    3.2153 H   0  0  0  0  0  0  0  0  0  0  0  0
    2.2973    3.8187    0.8606 H   0  0  0  0  0  0  0  0  0  0  0  0
    0.6757    3.1918    1.1307 H   0  0  0  0  0  0  0  0  0  0  0  0
    4.7585    1.2683   -0.5526 H   0  0  0  0  0  0  0  0  0  0  0  0
    4.5198    3.4212    1.5812 H   0  0  0  0  0  0  0  0  0  0  0  0
    4.5601    3.5949   -0.1835 H   0  0  0  0  0  0  0  0  0  0  0  0
    6.8984    3.8816    1.1417 H   0  0  0  0  0  0  0  0  0  0  0  0
    6.9302    2.6996   -0.2174 H   0  0  0  0  0  0  0  0  0  0  0  0
    4.8576    0.2665    2.2995 H   0  0  0  0  0  0  0  0  0  0  0  0
    5.7636   -0.2766    0.8502 H   0  0  0  0  0  0  0  0  0  0  0  0
  1  2  2  0
  2  3  1  0
  2 17  1  0
  3  4  1  0
  3 30  1  0
  3 31  1  0
  4  5  1  0
  4 16  1  0
  5  6  1  0
  5 32  1  0
  5 33  1  0
  6  7  1  0
  6 34  1  0
  6 35  1  0
  7  8  1  0
  7 15  1  0
  8  9  2  0
  8 14  1  0
  9 10  1  0
  9 36  1  0
 10 11  2  0
 10 37  1  0
 11 12  1  0
 11 38  1  0
 12 13  1  0
 12 14  2  0
 14 39  1  0
 15 16  1  0
 15 40  1  0
 15 41  1  0
 16 42  1  0
 16 43  1  0
 17 18  1  0
 17 23  1  0
 18 19  1  0
 18 22  1  0
 18 44  1  1
 19 20  1  0
 19 45  1  0
 19 46  1  0
 20 21  1  0
 20 47  1  0
 20 48  1  0
 21 22  1  0
 21 49  1  0
 21 50  1  0
 22 51  1  0
 22 52  1  0
 23 24  1  0
 23 29  1  0
 23 53  1  6
 24 25  1  0
 24 54  1  0
 24 55  1  0
 26 25  1  6
 25 56  1  0
 25 57  1  0
 26 27  2  0
 26 28  2  0
 26 29  1  0
 29 58  1  0
 29 59  1  0
M  END

