
     RDKit          3D

 53 55  0  0  0  0  0  0  0  0999 V2000
    0.8361    0.3606    0.4398 C   0  0  0  0  0  0  0  0  0  0  0  0
    2.3641    0.3813    0.2698 C   0  0  1  0  0  0  0  0  0  0  0  0
    3.0913    0.7919    1.5648 C   0  0  0  0  0  0  0  0  0  0  0  0
    2.9552   -0.8679   -0.3485 C   0  0  0  0  0  0  0  0  0  0  0  0
    3.9510   -0.9474   -1.3343 C   0  0  0  0  0  0  0  0  0  0  0  0
    4.6785    0.1956   -1.9307 C   0  0  0  0  0  0  0  0  0  0  0  0
    4.7326    1.2994   -1.4041 O   0  0  0  0  0  0  0  0  0  0  0  0
    5.2941   -0.0958   -3.1364 N   0  0  0  0  0  0  0  0  0  0  0  0
    6.0977    0.7253   -3.9415 C   0  0  0  0  0  0  0  0  0  0  0  0
    6.4245    2.0574   -3.6196 C   0  0  0  0  0  0  0  0  0  0  0  0
    7.2159    2.8076   -4.4929 C   0  0  0  0  0  0  0  0  0  0  0  0
    7.7031    2.2691   -5.6860 C   0  0  0  0  0  0  0  0  0  0  0  0
    7.3857    0.9401   -5.9853 C   0  0  0  0  0  0  0  0  0  0  0  0
    8.0292    0.1811   -7.4887 S   0  0  1  0  0  0  0  0  0  0  0  0
    7.2075   -1.0002   -7.7616 O   0  0  0  0  0  0  0  0  0  0  0  0
    8.2117    1.2478   -8.4725 O   0  0  0  0  0  0  0  0  0  0  0  0
    9.5704   -0.3916   -7.1192 N   0  0  0  0  0  0  0  0  0  0  0  0
   10.6467    0.5813   -7.0009 C   0  0  0  0  0  0  0  0  0  0  0  0
    9.6678   -1.5798   -6.2846 C   0  0  0  0  0  0  0  0  0  0  0  0
    6.5900    0.1712   -5.1378 C   0  0  0  0  0  0  0  0  0  0  0  0
    4.0968   -2.3377   -1.5945 C   0  0  0  0  0  0  0  0  0  0  0  0
    3.2855   -3.0621   -0.8494 N   0  0  0  0  0  0  0  0  0  0  0  0
    2.5992   -2.1669   -0.0936 N   0  0  0  0  0  0  0  0  0  0  0  0
    1.6366   -2.6968    0.8246 C   0  0  0  0  0  0  0  0  0  0  0  0
    0.4934   -3.3301    0.3231 C   0  0  0  0  0  0  0  0  0  0  0  0
   -0.4393   -3.8854    1.1986 C   0  0  0  0  0  0  0  0  0  0  0  0
   -0.2096   -3.8017    2.5717 C   0  0  0  0  0  0  0  0  0  0  0  0
   -1.1044   -4.3291    3.4149 F   0  0  0  0  0  0  0  0  0  0  0  0
    0.9316   -3.1910    3.0878 C   0  0  0  0  0  0  0  0  0  0  0  0
    1.8644   -2.6453    2.2036 C   0  0  0  0  0  0  0  0  0  0  0  0
    0.4848    1.3770    0.6774 H   0  0  0  0  0  0  0  0  0  0  0  0
    0.5061   -0.2993    1.2549 H   0  0  0  0  0  0  0  0  0  0  0  0
    0.3289    0.0399   -0.4837 H   0  0  0  0  0  0  0  0  0  0  0  0
    2.6045    1.1670   -0.4602 H   0  0  0  0  0  0  0  0  0  0  0  0
    2.9259    0.0712    2.3808 H   0  0  0  0  0  0  0  0  0  0  0  0
    2.7203    1.7715    1.9068 H   0  0  0  0  0  0  0  0  0  0  0  0
    4.1720    0.8853    1.3860 H   0  0  0  0  0  0  0  0  0  0  0  0
    5.1010   -1.0117   -3.5232 H   0  0  0  0  0  0  0  0  0  0  0  0
    6.0399    2.4880   -2.6984 H   0  0  0  0  0  0  0  0  0  0  0  0
    7.4458    3.8450   -4.2368 H   0  0  0  0  0  0  0  0  0  0  0  0
    8.2909    2.8662   -6.3841 H   0  0  0  0  0  0  0  0  0  0  0  0
   10.5105    1.3697   -7.7513 H   0  0  0  0  0  0  0  0  0  0  0  0
   11.6027    0.0735   -7.2060 H   0  0  0  0  0  0  0  0  0  0  0  0
   10.7075    1.0389   -5.9930 H   0  0  0  0  0  0  0  0  0  0  0  0
    8.8633   -2.2778   -6.5466 H   0  0  0  0  0  0  0  0  0  0  0  0
    9.6204   -1.3522   -5.2005 H   0  0  0  0  0  0  0  0  0  0  0  0
   10.6305   -2.0752   -6.4887 H   0  0  0  0  0  0  0  0  0  0  0  0
    6.3346   -0.8497   -5.4310 H   0  0  0  0  0  0  0  0  0  0  0  0
    4.7844   -2.8415   -2.2759 H   0  0  0  0  0  0  0  0  0  0  0  0
    0.3432   -3.3872   -0.7561 H   0  0  0  0  0  0  0  0  0  0  0  0
   -1.3404   -4.3820    0.8345 H   0  0  0  0  0  0  0  0  0  0  0  0
    1.0841   -3.1628    4.1682 H   0  0  0  0  0  0  0  0  0  0  0  0
    2.7788   -2.1891    2.5848 H   0  0  0  0  0  0  0  0  0  0  0  0
  1  2  1  0
  1 31  1  0
  1 32  1  0
  1 33  1  0
  2  3  1  0
  2  4  1  0
  2 34  1  6
  3 35  1  0
  3 36  1  0
  3 37  1  0
  4  5  2  0
  4 23  1  0
  5  6  1  0
  5 21  1  0
  6  7  2  0
  6  8  1  0
  8  9  1  0
  8 38  1  0
  9 10  2  0
  9 20  1  0
 10 11  1  0
 10 39  1  0
 11 12  2  0
 11 40  1  0
 12 13  1  0
 12 41  1  0
 13 14  1  0
 13 20  2  0
 14 15  2  0
 14 16  2  0
 14 17  1  1
 17 18  1  0
 17 19  1  0
 18 42  1  0
 18 43  1  0
 18 44  1  0
 19 45  1  0
 19 46  1  0
 19 47  1  0
 20 48  1  0
 21 22  2  0
 21 49  1  0
 22 23  1  0
 23 24  1  0
 24 25  2  0
 24 30  1  0
 25 26  1  0
 25 50  1  0
 26 27  2  0
 26 51  1  0
 27 28  1  0
 27 29  1  0
 29 30  2  0
 29 52  1  0
 30 53  1  0
M  END

