
     RDKit          3D

 56 58  0  0  0  0  0  0  0  0999 V2000
   -1.1089   -0.1856    1.8750 C   0  0  0  0  0  0  0  0  0  0  0  0
    0.3891   -0.1906    1.5606 C   0  0  0  0  0  0  0  0  0  0  0  0
    1.2103   -1.2218    2.3630 C   0  0  1  0  0  0  0  0  0  0  0  0
    0.8567   -2.6892    2.0248 C   0  0  0  0  0  0  0  0  0  0  0  0
    1.3770   -3.1358    0.6501 C   0  0  0  0  0  0  0  0  0  0  0  0
    2.8877   -2.8975    0.5171 C   0  0  0  0  0  0  0  0  0  0  0  0
    3.2538   -1.4410    0.8277 C   0  0  0  0  0  0  0  0  0  0  0  0
    2.7335   -0.9811    2.2064 C   0  0  2  0  0  0  0  0  0  0  0  0
    3.4522   -1.6127    3.3132 N   0  0  0  0  0  0  0  0  0  0  0  0
    4.6690   -1.1132    3.7323 C   0  0  0  0  0  0  0  0  0  0  0  0
    5.1508   -0.0976    3.2444 O   0  0  0  0  0  0  0  0  0  0  0  0
    5.3170   -1.8260    4.7352 N   0  0  0  0  0  0  0  0  0  0  0  0
    4.6818   -2.7728    5.6463 C   0  0  0  0  0  0  0  0  0  0  0  0
    5.6058   -3.9612    5.9295 C   0  0  0  0  0  0  0  0  0  0  0  0
    6.9798   -3.5106    6.4752 C   0  0  2  0  0  0  0  0  0  0  0  0
    6.9102   -3.0504    7.9175 C   0  0  0  0  0  0  0  0  0  0  0  0
    6.2486   -3.6883    9.0032 C   0  0  0  0  0  0  0  0  0  0  0  0
    6.4422   -3.0514   10.1548 N   0  0  0  0  0  0  0  0  0  0  0  0
    7.2228   -2.0072    9.8512 N   0  0  0  0  0  0  0  0  0  0  0  0
    7.5826   -1.0472   10.8852 C   0  0  0  0  0  0  0  0  0  0  0  0
    6.4112   -0.1664   11.3128 C   0  0  0  0  0  0  0  0  0  0  0  0
    7.5257   -1.9611    8.5238 C   0  0  0  0  0  0  0  0  0  0  0  0
    7.5665   -2.4570    5.5131 C   0  0  0  0  0  0  0  0  0  0  0  0
    6.5953   -1.3093    5.2160 C   0  0  0  0  0  0  0  0  0  0  0  0
   -1.6231    0.6216    1.3292 H   0  0  0  0  0  0  0  0  0  0  0  0
   -1.2915   -0.0269    2.9512 H   0  0  0  0  0  0  0  0  0  0  0  0
   -1.5996   -1.1308    1.5924 H   0  0  0  0  0  0  0  0  0  0  0  0
    0.8000    0.8110    1.7762 H   0  0  0  0  0  0  0  0  0  0  0  0
    0.5315   -0.3418    0.4771 H   0  0  0  0  0  0  0  0  0  0  0  0
    0.9770   -1.0533    3.4294 H   0  0  0  0  0  0  0  0  0  0  0  0
   -0.2323   -2.8437    2.0928 H   0  0  0  0  0  0  0  0  0  0  0  0
    1.2880   -3.3518    2.7991 H   0  0  0  0  0  0  0  0  0  0  0  0
    0.8496   -2.5807   -0.1462 H   0  0  0  0  0  0  0  0  0  0  0  0
    1.1380   -4.2004    0.4871 H   0  0  0  0  0  0  0  0  0  0  0  0
    3.2344   -3.1702   -0.4937 H   0  0  0  0  0  0  0  0  0  0  0  0
    3.4256   -3.5701    1.2112 H   0  0  0  0  0  0  0  0  0  0  0  0
    2.8248   -0.7836    0.0512 H   0  0  0  0  0  0  0  0  0  0  0  0
    4.3432   -1.2842    0.7970 H   0  0  0  0  0  0  0  0  0  0  0  0
    2.9416    0.0934    2.3058 H   0  0  0  0  0  0  0  0  0  0  0  0
    3.2356   -2.5799    3.5109 H   0  0  0  0  0  0  0  0  0  0  0  0
    3.7297   -3.1311    5.2351 H   0  0  0  0  0  0  0  0  0  0  0  0
    4.4322   -2.2651    6.6000 H   0  0  0  0  0  0  0  0  0  0  0  0
    5.7628   -4.5177    4.9897 H   0  0  0  0  0  0  0  0  0  0  0  0
    5.1127   -4.6510    6.6327 H   0  0  0  0  0  0  0  0  0  0  0  0
    7.6458   -4.3923    6.4486 H   0  0  0  0  0  0  0  0  0  0  0  0
    5.6473   -4.5979    8.9884 H   0  0  0  0  0  0  0  0  0  0  0  0
    8.4115   -0.4395   10.4911 H   0  0  0  0  0  0  0  0  0  0  0  0
    7.9694   -1.6168   11.7447 H   0  0  0  0  0  0  0  0  0  0  0  0
    6.0383    0.4356   10.4693 H   0  0  0  0  0  0  0  0  0  0  0  0
    6.7226    0.5197   12.1162 H   0  0  0  0  0  0  0  0  0  0  0  0
    5.5846   -0.7887   11.6861 H   0  0  0  0  0  0  0  0  0  0  0  0
    8.1528   -1.1698    8.1191 H   0  0  0  0  0  0  0  0  0  0  0  0
    7.8148   -2.9555    4.5609 H   0  0  0  0  0  0  0  0  0  0  0  0
    8.5117   -2.0504    5.9085 H   0  0  0  0  0  0  0  0  0  0  0  0
    6.9933   -0.6390    4.4451 H   0  0  0  0  0  0  0  0  0  0  0  0
    6.4343   -0.6969    6.1250 H   0  0  0  0  0  0  0  0  0  0  0  0
  1  2  1  0
  1 25  1  0
  1 26  1  0
  1 27  1  0
  2  3  1  0
  2 28  1  0
  2 29  1  0
  3  4  1  0
  3  8  1  0
  3 30  1  1
  4  5  1  0
  4 31  1  0
  4 32  1  0
  5  6  1  0
  5 33  1  0
  5 34  1  0
  6  7  1  0
  6 35  1  0
  6 36  1  0
  7  8  1  0
  7 37  1  0
  7 38  1  0
  8  9  1  0
  8 39  1  6
  9 10  1  0
  9 40  1  0
 10 11  2  0
 10 12  1  0
 12 13  1  0
 12 24  1  0
 13 14  1  0
 13 41  1  0
 13 42  1  0
 14 15  1  0
 14 43  1  0
 14 44  1  0
 15 16  1  0
 15 23  1  0
 15 45  1  1
 16 17  1  0
 16 22  2  0
 17 18  2  0
 17 46  1  0
 18 19  1  0
 19 20  1  0
 19 22  1  0
 20 21  1  0
 20 47  1  0
 20 48  1  0
 21 49  1  0
 21 50  1  0
 21 51  1  0
 22 52  1  0
 23 24  1  0
 23 53  1  0
 23 54  1  0
 24 55  1  0
 24 56  1  0
M  END

