
     RDKit          3D

 40 42  0  0  0  0  0  0  0  0999 V2000
    6.4792   -2.9588   -0.8902 C   0  0  0  0  0  0  0  0  0  0  0  0
    6.1896   -2.0427    0.2821 C   0  0  0  0  0  0  0  0  0  0  0  0
    6.5848   -0.7200   -0.0914 O   0  0  0  0  0  0  0  0  0  0  0  0
    6.4172    0.2734    0.8016 C   0  0  0  0  0  0  0  0  0  0  0  0
    6.8192    1.5670    0.4020 C   0  0  0  0  0  0  0  0  0  0  0  0
    6.6601    2.6189    1.2964 C   0  0  0  0  0  0  0  0  0  0  0  0
    7.0630    4.0358    0.9286 C   0  0  0  0  0  0  0  0  0  0  0  0
    5.9372    4.9490    0.8055 N   0  0  0  0  0  0  0  0  0  0  0  0
    5.5790    5.7996    1.8229 C   0  0  0  0  0  0  0  0  0  0  0  0
    6.2130    5.8180    2.8834 O   0  0  0  0  0  0  0  0  0  0  0  0
    4.4516    6.7297    1.5846 C   0  0  0  0  0  0  0  0  0  0  0  0
    4.4494    7.8110    2.5204 C   0  0  0  0  0  0  0  0  0  0  0  0
    3.6072    8.7635    2.3249 N   0  0  0  0  0  0  0  0  0  0  0  0
    2.6842    8.9472    1.3892 C   0  0  0  0  0  0  0  0  0  0  0  0
    2.5515    7.8789    0.4370 C   0  0  0  0  0  0  0  0  0  0  0  0
    1.5734    7.9388   -0.5805 C   0  0  0  0  0  0  0  0  0  0  0  0
    1.3836    6.8629   -1.4476 C   0  0  0  0  0  0  0  0  0  0  0  0
    2.1513    5.7069   -1.2912 C   0  0  0  0  0  0  0  0  0  0  0  0
    3.1376    5.6333   -0.2990 C   0  0  0  0  0  0  0  0  0  0  0  0
    3.4124    6.7183    0.5662 C   0  0  0  0  0  0  0  0  0  0  0  0
    6.1055    2.3386    2.5635 C   0  0  0  0  0  0  0  0  0  0  0  0
    5.7449    1.0281    2.8493 C   0  0  0  0  0  0  0  0  0  0  0  0
    5.8940    0.0081    1.9889 N   0  0  0  0  0  0  0  0  0  0  0  0
    6.1881   -3.9917   -0.6436 H   0  0  0  0  0  0  0  0  0  0  0  0
    7.5517   -2.9515   -1.1400 H   0  0  0  0  0  0  0  0  0  0  0  0
    5.9174   -2.6446   -1.7837 H   0  0  0  0  0  0  0  0  0  0  0  0
    6.7399   -2.3490    1.1876 H   0  0  0  0  0  0  0  0  0  0  0  0
    5.1197   -2.0451    0.5501 H   0  0  0  0  0  0  0  0  0  0  0  0
    7.2455    1.7084   -0.5936 H   0  0  0  0  0  0  0  0  0  0  0  0
    7.6185    4.0291   -0.0220 H   0  0  0  0  0  0  0  0  0  0  0  0
    7.7221    4.4421    1.7098 H   0  0  0  0  0  0  0  0  0  0  0  0
    5.4932    5.0494   -0.0971 H   0  0  0  0  0  0  0  0  0  0  0  0
    5.1735    7.8121    3.3442 H   0  0  0  0  0  0  0  0  0  0  0  0
    2.0579    9.8381    1.4027 H   0  0  0  0  0  0  0  0  0  0  0  0
    0.9535    8.8343   -0.6664 H   0  0  0  0  0  0  0  0  0  0  0  0
    0.6212    6.9208   -2.2280 H   0  0  0  0  0  0  0  0  0  0  0  0
    1.9804    4.8428   -1.9377 H   0  0  0  0  0  0  0  0  0  0  0  0
    3.6691    4.6917   -0.1681 H   0  0  0  0  0  0  0  0  0  0  0  0
    5.9735    3.1358    3.2977 H   0  0  0  0  0  0  0  0  0  0  0  0
    5.3148    0.7746    3.8253 H   0  0  0  0  0  0  0  0  0  0  0  0
  1  2  1  0
  1 24  1  0
  1 25  1  0
  1 26  1  0
  2  3  1  0
  2 27  1  0
  2 28  1  0
  3  4  1  0
  4  5  2  0
  4 23  1  0
  5  6  1  0
  5 29  1  0
  6  7  1  0
  6 21  2  0
  7  8  1  0
  7 30  1  0
  7 31  1  0
  8  9  1  0
  8 32  1  0
  9 10  2  0
  9 11  1  0
 11 12  2  0
 11 20  1  0
 12 13  1  0
 12 33  1  0
 13 14  2  0
 14 15  1  0
 14 34  1  0
 15 16  1  0
 15 20  2  0
 16 17  2  0
 16 35  1  0
 17 18  1  0
 17 36  1  0
 18 19  2  0
 18 37  1  0
 19 20  1  0
 19 38  1  0
 21 22  1  0
 21 39  1  0
 22 23  2  0
 22 40  1  0
M  END

