
     RDKit          3D

 44 46  0  0  0  0  0  0  0  0999 V2000
    4.9741   -1.1239   -0.2623 C   0  0  0  0  0  0  0  0  0  0  0  0
    3.9358   -0.4435    0.5144 N   0  0  0  0  0  0  0  0  0  0  0  0
    4.0252    0.7805    1.0778 C   0  0  0  0  0  0  0  0  0  0  0  0
    2.8289    1.0562    1.8025 C   0  0  0  0  0  0  0  0  0  0  0  0
    2.0129   -0.0498    1.6652 C   0  0  0  0  0  0  0  0  0  0  0  0
    2.6995   -0.9756    0.8269 C   0  0  0  0  0  0  0  0  0  0  0  0
    2.3685   -2.3994    0.4972 C   0  0  0  0  0  0  0  0  0  0  0  0
    3.1045   -3.1456    1.1577 O   0  0  0  0  0  0  0  0  0  0  0  0
    1.4031   -2.7059   -0.3339 N   0  0  0  0  0  0  0  0  0  0  0  0
    0.8043   -4.0084   -0.7247 C   0  0  0  0  0  0  0  0  0  0  0  0
   -0.3355   -3.2240   -1.4273 C   0  0  2  0  0  0  0  0  0  0  0  0
   -0.5707   -3.5731   -2.8206 N   0  0  0  0  0  0  0  0  0  0  0  0
   -0.8886   -5.0350   -3.1104 C   0  0  0  0  0  0  0  0  0  0  0  0
   -1.8289   -5.7424   -2.1850 C   0  0  0  0  0  0  0  0  0  0  0  0
   -3.0979   -6.1308   -2.5899 C   0  0  0  0  0  0  0  0  0  0  0  0
   -3.9340   -6.8787   -1.7403 C   0  0  0  0  0  0  0  0  0  0  0  0
   -3.3841   -7.2072   -0.4446 C   0  0  0  0  0  0  0  0  0  0  0  0
   -2.1185   -6.7655   -0.1198 C   0  0  0  0  0  0  0  0  0  0  0  0
   -1.2969   -6.0362   -0.9202 N   0  0  0  0  0  0  0  0  0  0  0  0
   -1.4591   -2.4461   -3.7134 S   0  0  1  0  0  0  0  0  0  0  0  0
   -0.5205   -2.3759   -5.2515 C   0  0  0  0  0  0  0  0  0  0  0  0
   -2.7994   -2.9037   -4.0732 O   0  0  0  0  0  0  0  0  0  0  0  0
   -1.2917   -1.1446   -3.0375 O   0  0  0  0  0  0  0  0  0  0  0  0
    0.4582   -1.9161   -1.1571 C   0  0  0  0  0  0  0  0  0  0  0  0
    5.8443   -0.4622   -0.3426 H   0  0  0  0  0  0  0  0  0  0  0  0
    4.5982   -1.3546   -1.2678 H   0  0  0  0  0  0  0  0  0  0  0  0
    5.2491   -2.0563    0.2460 H   0  0  0  0  0  0  0  0  0  0  0  0
    4.9064    1.4035    0.9404 H   0  0  0  0  0  0  0  0  0  0  0  0
    2.6228    1.9759    2.3434 H   0  0  0  0  0  0  0  0  0  0  0  0
    1.0225   -0.2081    2.0818 H   0  0  0  0  0  0  0  0  0  0  0  0
    0.4861   -4.6504    0.1006 H   0  0  0  0  0  0  0  0  0  0  0  0
    1.4643   -4.5704   -1.3975 H   0  0  0  0  0  0  0  0  0  0  0  0
   -1.2484   -3.2792   -0.8166 H   0  0  0  0  0  0  0  0  0  0  0  0
    0.0954   -5.5363   -3.1040 H   0  0  0  0  0  0  0  0  0  0  0  0
   -1.2638   -5.0619   -4.1420 H   0  0  0  0  0  0  0  0  0  0  0  0
   -3.4449   -5.8446   -3.5880 H   0  0  0  0  0  0  0  0  0  0  0  0
   -4.9331   -7.1890   -2.0432 H   0  0  0  0  0  0  0  0  0  0  0  0
   -3.9540   -7.7958    0.2786 H   0  0  0  0  0  0  0  0  0  0  0  0
   -1.7110   -7.0157    0.8705 H   0  0  0  0  0  0  0  0  0  0  0  0
   -0.5087   -3.3714   -5.7134 H   0  0  0  0  0  0  0  0  0  0  0  0
    0.4973   -2.0276   -5.0396 H   0  0  0  0  0  0  0  0  0  0  0  0
   -1.0556   -1.6669   -5.8978 H   0  0  0  0  0  0  0  0  0  0  0  0
   -0.0793   -1.1248   -0.6186 H   0  0  0  0  0  0  0  0  0  0  0  0
    0.9410   -1.4927   -2.0460 H   0  0  0  0  0  0  0  0  0  0  0  0
  1  2  1  0
  1 25  1  0
  1 26  1  0
  1 27  1  0
  2  3  1  0
  2  6  1  0
  3  4  2  0
  3 28  1  0
  4  5  1  0
  4 29  1  0
  5  6  2  0
  5 30  1  0
  6  7  1  0
  7  8  2  0
  7  9  1  0
  9 10  1  0
  9 24  1  0
 10 11  1  0
 10 31  1  0
 10 32  1  0
 11 12  1  0
 11 24  1  0
 11 33  1  1
 12 13  1  0
 20 12  1  1
 13 14  1  0
 13 34  1  0
 13 35  1  0
 14 15  2  0
 14 19  1  0
 15 16  1  0
 15 36  1  0
 16 17  2  0
 16 37  1  0
 17 18  1  0
 17 38  1  0
 18 19  2  0
 18 39  1  0
 20 21  1  0
 20 22  2  0
 20 23  2  0
 21 40  1  0
 21 41  1  0
 21 42  1  0
 24 43  1  0
 24 44  1  0
M  END

