
     RDKit          3D

 37 38  0  0  0  0  0  0  0  0999 V2000
    1.6538    0.9148   -0.9880 C   0  0  0  0  0  0  0  0  0  0  0  0
    3.1305    0.6148   -0.7601 C   0  0  0  0  0  0  0  0  0  0  0  0
    3.4053   -0.8132   -0.8784 N   0  0  0  0  0  0  0  0  0  0  0  0
    4.7987   -1.2025   -0.6451 C   0  0  1  0  0  0  0  0  0  0  0  0
    5.1041   -1.3035    0.8394 C   0  0  0  0  0  0  0  0  0  0  0  0
    6.4295   -1.2423    1.3855 C   0  0  0  0  0  0  0  0  0  0  0  0
    6.4549   -1.3858    2.7484 C   0  0  0  0  0  0  0  0  0  0  0  0
    4.8623   -1.5912    3.3941 S   0  0  0  0  0  0  0  0  0  0  0  0
    4.1564   -1.4897    1.8178 C   0  0  0  0  0  0  0  0  0  0  0  0
    5.0833   -2.5037   -1.3964 C   0  0  0  0  0  0  0  0  0  0  0  0
    4.8874   -3.7442   -0.8132 C   0  0  0  0  0  0  0  0  0  0  0  0
    5.1109   -4.9042   -1.5791 C   0  0  0  0  0  0  0  0  0  0  0  0
    4.9143   -6.2829   -1.0091 C   0  0  0  0  0  0  0  0  0  0  0  0
    5.5104   -4.8275   -2.8498 N   0  0  0  0  0  0  0  0  0  0  0  0
    5.6983   -3.6463   -3.4193 N   0  0  0  0  0  0  0  0  0  0  0  0
    5.4987   -2.5074   -2.7560 C   0  0  0  0  0  0  0  0  0  0  0  0
    5.7535   -1.2260   -3.5291 C   0  0  0  0  0  0  0  0  0  0  0  0
    6.0946   -1.4214   -5.0046 C   0  0  0  0  0  0  0  0  0  0  0  0
    1.4508    1.9914   -0.8781 H   0  0  0  0  0  0  0  0  0  0  0  0
    1.0262    0.3659   -0.2689 H   0  0  0  0  0  0  0  0  0  0  0  0
    1.3375    0.6205   -2.0035 H   0  0  0  0  0  0  0  0  0  0  0  0
    3.4219    0.9349    0.2542 H   0  0  0  0  0  0  0  0  0  0  0  0
    3.7487    1.2211   -1.4606 H   0  0  0  0  0  0  0  0  0  0  0  0
    3.0886   -1.1604   -1.7818 H   0  0  0  0  0  0  0  0  0  0  0  0
    5.4919   -0.4382   -1.0540 H   0  0  0  0  0  0  0  0  0  0  0  0
    7.3276   -1.0977    0.7815 H   0  0  0  0  0  0  0  0  0  0  0  0
    7.3199   -1.3760    3.4104 H   0  0  0  0  0  0  0  0  0  0  0  0
    3.0801   -1.5634    1.6743 H   0  0  0  0  0  0  0  0  0  0  0  0
    4.5710   -3.8216    0.2295 H   0  0  0  0  0  0  0  0  0  0  0  0
    5.5634   -6.4484   -0.1334 H   0  0  0  0  0  0  0  0  0  0  0  0
    5.1533   -7.0309   -1.7764 H   0  0  0  0  0  0  0  0  0  0  0  0
    3.8736   -6.4324   -0.6770 H   0  0  0  0  0  0  0  0  0  0  0  0
    6.5708   -0.6735   -3.0297 H   0  0  0  0  0  0  0  0  0  0  0  0
    4.8690   -0.5714   -3.4317 H   0  0  0  0  0  0  0  0  0  0  0  0
    7.0001   -2.0322   -5.1260 H   0  0  0  0  0  0  0  0  0  0  0  0
    6.2589   -0.4457   -5.4885 H   0  0  0  0  0  0  0  0  0  0  0  0
    5.2862   -1.9448   -5.5357 H   0  0  0  0  0  0  0  0  0  0  0  0
  1  2  1  0
  1 19  1  0
  1 20  1  0
  1 21  1  0
  2  3  1  0
  2 22  1  0
  2 23  1  0
  3  4  1  0
  3 24  1  0
  4  5  1  0
  4 10  1  0
  4 25  1  6
  5  6  1  0
  5  9  2  0
  6  7  2  0
  6 26  1  0
  7  8  1  0
  7 27  1  0
  8  9  1  0
  9 28  1  0
 10 11  2  0
 10 16  1  0
 11 12  1  0
 11 29  1  0
 12 13  1  0
 12 14  2  0
 13 30  1  0
 13 31  1  0
 13 32  1  0
 14 15  1  0
 15 16  2  0
 16 17  1  0
 17 18  1  0
 17 33  1  0
 17 34  1  0
 18 35  1  0
 18 36  1  0
 18 37  1  0
M  END

