
     RDKit          3D

 47 48  0  0  0  0  0  0  0  0999 V2000
    3.7975   -0.2934   -0.8888 C   0  0  0  0  0  0  0  0  0  0  0  0
    2.9767   -0.0044    0.3723 C   0  0  1  0  0  0  0  0  0  0  0  0
    3.4580   -0.9281    1.4618 N   0  0  0  0  0  0  0  0  0  0  0  0
    2.6817   -0.8680    2.6929 C   0  0  0  0  0  0  0  0  0  0  0  0
    2.5041   -2.3274    3.2330 C   0  0  1  0  0  0  0  0  0  0  0  0
    1.1920   -2.5062    3.9940 C   0  0  0  0  0  0  0  0  0  0  0  0
    2.5587   -3.1856    2.1427 O   0  0  0  0  0  0  0  0  0  0  0  0
    3.7594   -2.6145    4.1870 C   0  0  0  0  0  0  0  0  0  0  0  0
    3.8333   -3.9823    4.6315 N   0  0  0  0  0  0  0  0  0  0  0  0
    4.2986   -4.9737    3.6959 C   0  0  0  0  0  0  0  0  0  0  0  0
    3.2630   -4.4054    5.8882 C   0  0  0  0  0  0  0  0  0  0  0  0
    2.9827    1.4511    0.7985 C   0  0  0  0  0  0  0  0  0  0  0  0
    4.2006    2.0035    1.2868 C   0  0  0  0  0  0  0  0  0  0  0  0
    4.2627    3.3123    1.7485 C   0  0  0  0  0  0  0  0  0  0  0  0
    3.1099    4.1147    1.7369 C   0  0  0  0  0  0  0  0  0  0  0  0
    1.8691    3.6238    1.2358 C   0  0  0  0  0  0  0  0  0  0  0  0
    0.7000    4.4269    1.2122 C   0  0  0  0  0  0  0  0  0  0  0  0
   -0.5227    3.9460    0.7041 C   0  0  0  0  0  0  0  0  0  0  0  0
   -0.5932    2.6524    0.2002 C   0  0  0  0  0  0  0  0  0  0  0  0
    0.5462    1.8207    0.2045 C   0  0  0  0  0  0  0  0  0  0  0  0
    1.7984    2.2574    0.7316 C   0  0  0  0  0  0  0  0  0  0  0  0
    3.7547   -1.3574   -1.1784 H   0  0  0  0  0  0  0  0  0  0  0  0
    4.8547   -0.0116   -0.7495 H   0  0  0  0  0  0  0  0  0  0  0  0
    3.4108    0.3122   -1.7212 H   0  0  0  0  0  0  0  0  0  0  0  0
    1.9444   -0.3266    0.1762 H   0  0  0  0  0  0  0  0  0  0  0  0
    4.4304   -0.6830    1.6497 H   0  0  0  0  0  0  0  0  0  0  0  0
    1.6821   -0.4770    2.4629 H   0  0  0  0  0  0  0  0  0  0  0  0
    3.1027   -0.1961    3.4582 H   0  0  0  0  0  0  0  0  0  0  0  0
    0.3606   -2.2723    3.3162 H   0  0  0  0  0  0  0  0  0  0  0  0
    1.1294   -1.8289    4.8602 H   0  0  0  0  0  0  0  0  0  0  0  0
    1.0472   -3.5425    4.3360 H   0  0  0  0  0  0  0  0  0  0  0  0
    3.0142   -2.5827    1.4603 H   0  0  0  0  0  0  0  0  0  0  0  0
    3.7155   -1.9553    5.0613 H   0  0  0  0  0  0  0  0  0  0  0  0
    4.6628   -2.3998    3.6056 H   0  0  0  0  0  0  0  0  0  0  0  0
    3.6867   -4.8479    2.7798 H   0  0  0  0  0  0  0  0  0  0  0  0
    4.2090   -5.9823    4.1137 H   0  0  0  0  0  0  0  0  0  0  0  0
    5.3435   -4.7643    3.4224 H   0  0  0  0  0  0  0  0  0  0  0  0
    2.8537   -3.5507    6.4349 H   0  0  0  0  0  0  0  0  0  0  0  0
    4.0466   -4.8898    6.4936 H   0  0  0  0  0  0  0  0  0  0  0  0
    2.4710   -5.1491    5.7089 H   0  0  0  0  0  0  0  0  0  0  0  0
    5.1160    1.3997    1.2844 H   0  0  0  0  0  0  0  0  0  0  0  0
    5.2097    3.7218    2.1129 H   0  0  0  0  0  0  0  0  0  0  0  0
    3.1524    5.1449    2.1010 H   0  0  0  0  0  0  0  0  0  0  0  0
    0.7682    5.4483    1.5980 H   0  0  0  0  0  0  0  0  0  0  0  0
   -1.4049    4.5925    0.6988 H   0  0  0  0  0  0  0  0  0  0  0  0
   -1.5318    2.2726   -0.2148 H   0  0  0  0  0  0  0  0  0  0  0  0
    0.4539    0.8254   -0.2347 H   0  0  0  0  0  0  0  0  0  0  0  0
  1  2  1  0
  1 22  1  0
  1 23  1  0
  1 24  1  0
  2  3  1  0
  2 12  1  0
  2 25  1  6
  3  4  1  0
  3 26  1  0
  4  5  1  0
  4 27  1  0
  4 28  1  0
  5  6  1  0
  5  7  1  6
  5  8  1  0
  6 29  1  0
  6 30  1  0
  6 31  1  0
  7 32  1  0
  8  9  1  0
  8 33  1  0
  8 34  1  0
  9 10  1  0
  9 11  1  0
 10 35  1  0
 10 36  1  0
 10 37  1  0
 11 38  1  0
 11 39  1  0
 11 40  1  0
 12 13  2  0
 12 21  1  0
 13 14  1  0
 13 41  1  0
 14 15  2  0
 14 42  1  0
 15 16  1  0
 15 43  1  0
 16 17  1  0
 16 21  2  0
 17 18  2  0
 17 44  1  0
 18 19  1  0
 18 45  1  0
 19 20  2  0
 19 46  1  0
 20 21  1  0
 20 47  1  0
M  END

