
     RDKit          3D

 35 37  0  0  0  0  0  0  0  0999 V2000
    0.6274    0.1149    0.4391 O   0  0  0  0  0  0  0  0  0  0  0  0
    1.0849   -0.8184   -0.1743 C   0  0  0  0  0  0  0  0  0  0  0  0
    1.8681   -1.9528    0.5296 C   0  0  0  0  0  0  0  0  0  0  0  0
    1.3585   -2.3203    1.8815 C   0  0  0  0  0  0  0  0  0  0  0  0
    0.9894   -3.6445    2.2629 C   0  0  0  0  0  0  0  0  0  0  0  0
    0.5880   -3.6623    3.5408 N   0  0  0  0  0  0  0  0  0  0  0  0
    0.2625   -4.4845    4.0388 H   0  0  0  0  0  0  0  0  0  0  0  0
    0.6646   -2.3689    4.0742 C   0  0  0  0  0  0  0  0  0  0  0  0
    0.3539   -1.9099    5.3379 C   0  0  0  0  0  0  0  0  0  0  0  0
    0.5321   -0.5233    5.5796 C   0  0  0  0  0  0  0  0  0  0  0  0
    0.9967    0.3408    4.5849 C   0  0  0  0  0  0  0  0  0  0  0  0
    1.3083   -0.1354    3.3056 C   0  0  0  0  0  0  0  0  0  0  0  0
    1.1455   -1.5163    3.0386 C   0  0  0  0  0  0  0  0  0  0  0  0
    1.0669   -1.0439   -1.4643 O   0  0  0  0  0  0  0  0  0  0  0  0
    0.4800   -0.0897   -2.3762 C   0  0  0  0  0  0  0  0  0  0  0  0
    1.3191    0.9004   -2.8976 C   0  0  0  0  0  0  0  0  0  0  0  0
    0.7381    1.7405   -3.8970 C   0  0  0  0  0  0  0  0  0  0  0  0
   -0.5700    1.5880   -4.2958 C   0  0  0  0  0  0  0  0  0  0  0  0
   -1.4351    0.5922   -3.7194 C   0  0  0  0  0  0  0  0  0  0  0  0
   -2.8066    0.5080   -4.1503 C   0  0  0  0  0  0  0  0  0  0  0  0
   -3.3170    1.1294   -5.0779 O   0  0  0  0  0  0  0  0  0  0  0  0
   -3.6221   -0.3711   -3.4280 O   0  0  0  0  0  0  0  0  0  0  0  0
   -0.8309   -0.2903   -2.7426 C   0  0  0  0  0  0  0  0  0  0  0  0
    2.9047   -1.5840    0.6264 H   0  0  0  0  0  0  0  0  0  0  0  0
    1.9079   -2.8318   -0.1254 H   0  0  0  0  0  0  0  0  0  0  0  0
    1.0019   -4.5452    1.6526 H   0  0  0  0  0  0  0  0  0  0  0  0
   -0.0161   -2.5702    6.1239 H   0  0  0  0  0  0  0  0  0  0  0  0
    0.2928   -0.1292    6.5688 H   0  0  0  0  0  0  0  0  0  0  0  0
    1.1096    1.4030    4.8039 H   0  0  0  0  0  0  0  0  0  0  0  0
    1.6340    0.5328    2.5112 H   0  0  0  0  0  0  0  0  0  0  0  0
    2.3552    0.9984   -2.5799 H   0  0  0  0  0  0  0  0  0  0  0  0
    1.3556    2.5170   -4.3575 H   0  0  0  0  0  0  0  0  0  0  0  0
   -1.0023    2.2287   -5.0663 H   0  0  0  0  0  0  0  0  0  0  0  0
   -3.1846   -0.5452   -2.5857 H   0  0  0  0  0  0  0  0  0  0  0  0
   -1.3658   -1.1535   -2.3429 H   0  0  0  0  0  0  0  0  0  0  0  0
  1  2  2  0
  2  3  1  0
  2 14  1  0
  3  4  1  0
  3 24  1  0
  3 25  1  0
  4  5  2  0
  4 13  1  0
  5  6  1  0
  5 26  1  0
  6  7  1  0
  6  8  1  0
  8  9  1  0
  8 13  2  0
  9 10  2  0
  9 27  1  0
 10 11  1  0
 10 28  1  0
 11 12  2  0
 11 29  1  0
 12 13  1  0
 12 30  1  0
 14 15  1  0
 15 16  2  0
 15 23  1  0
 16 17  1  0
 16 31  1  0
 17 18  2  0
 17 32  1  0
 18 19  1  0
 18 33  1  0
 19 20  1  0
 19 23  2  0
 20 21  2  0
 20 22  1  0
 22 34  1  0
 23 35  1  0
M  END

