
     RDKit          3D

 58 61  0  0  0  0  0  0  0  0999 V2000
    9.2070  -12.3752    4.1567 C   0  0  0  0  0  0  0  0  0  0  0  0
    8.1779  -11.4207    3.5501 C   0  0  0  0  0  0  0  0  0  0  0  0
    8.8056  -10.2013    2.8671 C   0  0  0  0  0  0  0  0  0  0  0  0
    7.7740   -9.2454    2.2616 C   0  0  0  0  0  0  0  0  0  0  0  0
    8.4127   -8.0459    1.5805 C   0  0  0  0  0  0  0  0  0  0  0  0
    7.3741   -7.2185    1.0666 O   0  0  0  0  0  0  0  0  0  0  0  0
    7.6714   -6.0750    0.4095 C   0  0  0  0  0  0  0  0  0  0  0  0
    8.9843   -5.6376    0.1845 C   0  0  0  0  0  0  0  0  0  0  0  0
    9.1919   -4.4372   -0.4988 C   0  0  0  0  0  0  0  0  0  0  0  0
   10.8301   -3.8970   -0.7789 Cl  0  0  0  0  0  0  0  0  0  0  0  0
    8.1311   -3.6655   -0.9634 C   0  0  0  0  0  0  0  0  0  0  0  0
    6.8289   -4.1190   -0.7231 C   0  0  0  0  0  0  0  0  0  0  0  0
    5.5161   -3.1498   -1.3503 Cl  0  0  0  0  0  0  0  0  0  0  0  0
    6.5628   -5.3142   -0.0403 C   0  0  0  0  0  0  0  0  0  0  0  0
    5.1694   -5.7853    0.2309 C   0  0  0  0  0  0  0  0  0  0  0  0
    4.4222   -5.0421    1.0513 N   0  0  0  0  0  0  0  0  0  0  0  0
    3.1567   -5.4302    1.2875 C   0  0  0  0  0  0  0  0  0  0  0  0
    2.4283   -4.6665    2.1447 N   0  0  0  0  0  0  0  0  0  0  0  0
    2.5475   -6.5136    0.7604 N   0  0  0  0  0  0  0  0  0  0  0  0
    3.3134   -7.2349   -0.0410 C   0  0  0  0  0  0  0  0  0  0  0  0
    4.6425   -6.9422   -0.3556 C   0  0  0  0  0  0  0  0  0  0  0  0
    5.2092   -7.9668   -1.2949 C   0  0  0  0  0  0  0  0  0  0  0  0
    4.0690   -8.8758   -1.4869 N   0  0  0  0  0  0  0  0  0  0  0  0
    4.2582  -10.0496   -2.1811 C   0  0  0  0  0  0  0  0  0  0  0  0
    5.3482  -10.3461   -2.6538 O   0  0  0  0  0  0  0  0  0  0  0  0
    3.1425  -10.8587   -2.2931 N   0  0  0  0  0  0  0  0  0  0  0  0
    3.1647  -12.0978   -3.0231 C   0  0  1  0  0  0  0  0  0  0  0  0
    2.5485  -13.3710   -2.3850 C   0  0  0  0  0  0  0  0  0  0  0  0
    2.0441  -13.7741   -3.7951 C   0  0  0  0  0  0  0  0  0  0  0  0
    2.2222  -12.2999   -4.2418 C   0  0  0  0  0  0  0  0  0  0  0  0
    2.8695   -8.4872   -0.7545 C   0  0  0  0  0  0  0  0  0  0  0  0
    8.7218  -13.2377    4.6405 H   0  0  0  0  0  0  0  0  0  0  0  0
    9.8233  -11.8695    4.9191 H   0  0  0  0  0  0  0  0  0  0  0  0
    9.8923  -12.7683    3.3871 H   0  0  0  0  0  0  0  0  0  0  0  0
    7.4828  -11.0762    4.3371 H   0  0  0  0  0  0  0  0  0  0  0  0
    7.5554  -11.9643    2.8168 H   0  0  0  0  0  0  0  0  0  0  0  0
    9.4989  -10.5457    2.0772 H   0  0  0  0  0  0  0  0  0  0  0  0
    9.4302   -9.6568    3.5999 H   0  0  0  0  0  0  0  0  0  0  0  0
    7.0874   -8.8799    3.0443 H   0  0  0  0  0  0  0  0  0  0  0  0
    7.1513   -9.7798    1.5239 H   0  0  0  0  0  0  0  0  0  0  0  0
    9.0756   -8.3715    0.7573 H   0  0  0  0  0  0  0  0  0  0  0  0
    9.0267   -7.4700    2.2979 H   0  0  0  0  0  0  0  0  0  0  0  0
    9.8429   -6.2083    0.5304 H   0  0  0  0  0  0  0  0  0  0  0  0
    8.3028   -2.7367   -1.5049 H   0  0  0  0  0  0  0  0  0  0  0  0
    2.8170   -3.7910    2.4654 H   0  0  0  0  0  0  0  0  0  0  0  0
    1.4453   -4.8658    2.2630 H   0  0  0  0  0  0  0  0  0  0  0  0
    6.0743   -8.5050   -0.8730 H   0  0  0  0  0  0  0  0  0  0  0  0
    5.5446   -7.5366   -2.2561 H   0  0  0  0  0  0  0  0  0  0  0  0
    2.2443  -10.5197   -1.9731 H   0  0  0  0  0  0  0  0  0  0  0  0
    4.2123  -12.2642   -3.3089 H   0  0  0  0  0  0  0  0  0  0  0  0
    1.7107  -13.1125   -1.7155 H   0  0  0  0  0  0  0  0  0  0  0  0
    3.2249  -14.0549   -1.8488 H   0  0  0  0  0  0  0  0  0  0  0  0
    1.0366  -14.2095   -3.8689 H   0  0  0  0  0  0  0  0  0  0  0  0
    2.7515  -14.4453   -4.3065 H   0  0  0  0  0  0  0  0  0  0  0  0
    1.2883  -11.7258   -4.1189 H   0  0  0  0  0  0  0  0  0  0  0  0
    2.6293  -12.0951   -5.2441 H   0  0  0  0  0  0  0  0  0  0  0  0
    2.5423   -9.2583   -0.0298 H   0  0  0  0  0  0  0  0  0  0  0  0
    2.0052   -8.2705   -1.4145 H   0  0  0  0  0  0  0  0  0  0  0  0
  1  2  1  0
  1 32  1  0
  1 33  1  0
  1 34  1  0
  2  3  1  0
  2 35  1  0
  2 36  1  0
  3  4  1  0
  3 37  1  0
  3 38  1  0
  4  5  1  0
  4 39  1  0
  4 40  1  0
  5  6  1  0
  5 41  1  0
  5 42  1  0
  6  7  1  0
  7  8  2  0
  7 14  1  0
  8  9  1  0
  8 43  1  0
  9 10  1  0
  9 11  2  0
 11 12  1  0
 11 44  1  0
 12 13  1  0
 12 14  2  0
 14 15  1  0
 15 16  2  0
 15 21  1  0
 16 17  1  0
 17 18  1  0
 17 19  2  0
 18 45  1  0
 18 46  1  0
 19 20  1  0
 20 21  2  0
 20 31  1  0
 21 22  1  0
 22 23  1  0
 22 47  1  0
 22 48  1  0
 23 24  1  0
 23 31  1  0
 24 25  2  0
 24 26  1  0
 26 27  1  0
 26 49  1  0
 27 28  1  0
 27 30  1  0
 27 50  1  6
 28 29  1  0
 28 51  1  0
 28 52  1  0
 29 30  1  0
 29 53  1  0
 29 54  1  0
 30 55  1  0
 30 56  1  0
 31 57  1  0
 31 58  1  0
M  END

