
     RDKit          3D

 49 49  0  0  0  0  0  0  0  0999 V2000
    4.4745   -2.4037    4.2919 C   0  0  0  0  0  0  0  0  0  0  0  0
    4.6283   -1.6811    2.9920 C   0  0  0  0  0  0  0  0  0  0  0  0
    4.9889   -0.3060    2.9360 C   0  0  0  0  0  0  0  0  0  0  0  0
    5.1516    0.3967    1.7233 C   0  0  0  0  0  0  0  0  0  0  0  0
    4.9379   -0.2754    0.4698 C   0  0  0  0  0  0  0  0  0  0  0  0
    5.0029    0.4752   -0.8386 C   0  0  1  0  0  0  0  0  0  0  0  0
    3.8443    1.4932   -0.9636 C   0  0  0  0  0  0  0  0  0  0  0  0
    6.3615    1.1785   -1.0437 C   0  0  0  0  0  0  0  0  0  0  0  0
    4.5686   -1.6586    0.5376 C   0  0  0  0  0  0  0  0  0  0  0  0
    4.3835   -2.2646   -0.6631 O   0  0  0  0  0  0  0  0  0  0  0  0
    4.0479   -3.6450   -0.7661 C   0  0  1  0  0  0  0  0  0  0  0  0
    3.4138   -3.8722   -2.1331 C   0  0  0  0  0  0  0  0  0  0  0  0
    5.2807   -4.5547   -0.5658 C   0  0  0  0  0  0  0  0  0  0  0  0
    5.1128   -5.7310   -0.2765 O   0  0  0  0  0  0  0  0  0  0  0  0
    6.4893   -3.9764   -0.7912 N   0  0  0  0  0  0  0  0  0  0  0  0
    7.7442   -4.6772   -0.5684 C   0  0  0  0  0  0  0  0  0  0  0  0
    8.3678   -5.3111   -1.8479 C   0  0  1  0  0  0  0  0  0  0  0  0
    8.7697   -4.2144   -2.8438 C   0  0  0  0  0  0  0  0  0  0  0  0
    9.6039   -6.1145   -1.4175 C   0  0  0  0  0  0  0  0  0  0  0  0
    7.4456   -6.2235   -2.5295 N   0  0  0  0  0  0  0  0  0  0  0  0
    4.4094   -2.3756    1.7627 C   0  0  0  0  0  0  0  0  0  0  0  0
    4.6835   -1.7526    5.1536 H   0  0  0  0  0  0  0  0  0  0  0  0
    5.1519   -3.2791    4.3543 H   0  0  0  0  0  0  0  0  0  0  0  0
    3.4507   -2.8116    4.4131 H   0  0  0  0  0  0  0  0  0  0  0  0
    5.1424    0.2258    3.8799 H   0  0  0  0  0  0  0  0  0  0  0  0
    5.4286    1.4505    1.7398 H   0  0  0  0  0  0  0  0  0  0  0  0
    4.8815   -0.2543   -1.6527 H   0  0  0  0  0  0  0  0  0  0  0  0
    3.8912    2.2489   -0.1629 H   0  0  0  0  0  0  0  0  0  0  0  0
    2.8673    0.9906   -0.8929 H   0  0  0  0  0  0  0  0  0  0  0  0
    3.8908    2.0204   -1.9313 H   0  0  0  0  0  0  0  0  0  0  0  0
    6.5434    1.9480   -0.2764 H   0  0  0  0  0  0  0  0  0  0  0  0
    6.3938    1.6767   -2.0268 H   0  0  0  0  0  0  0  0  0  0  0  0
    7.1945    0.4592   -0.9974 H   0  0  0  0  0  0  0  0  0  0  0  0
    3.3320   -3.9136    0.0246 H   0  0  0  0  0  0  0  0  0  0  0  0
    4.1067   -3.5844   -2.9387 H   0  0  0  0  0  0  0  0  0  0  0  0
    2.4921   -3.2796   -2.2316 H   0  0  0  0  0  0  0  0  0  0  0  0
    3.1668   -4.9379   -2.2411 H   0  0  0  0  0  0  0  0  0  0  0  0
    6.5026   -2.9792   -0.9733 H   0  0  0  0  0  0  0  0  0  0  0  0
    7.5438   -5.4787    0.1590 H   0  0  0  0  0  0  0  0  0  0  0  0
    8.4568   -3.9745   -0.1058 H   0  0  0  0  0  0  0  0  0  0  0  0
    9.5178   -3.5312   -2.4110 H   0  0  0  0  0  0  0  0  0  0  0  0
    7.8948   -3.6136   -3.1445 H   0  0  0  0  0  0  0  0  0  0  0  0
    9.1920   -4.6663   -3.7537 H   0  0  0  0  0  0  0  0  0  0  0  0
   10.3418   -5.4794   -0.9013 H   0  0  0  0  0  0  0  0  0  0  0  0
   10.0830   -6.5676   -2.2978 H   0  0  0  0  0  0  0  0  0  0  0  0
    9.3216   -6.9298   -0.7306 H   0  0  0  0  0  0  0  0  0  0  0  0
    6.6470   -5.7037   -2.8950 H   0  0  0  0  0  0  0  0  0  0  0  0
    7.0502   -6.8877   -1.8617 H   0  0  0  0  0  0  0  0  0  0  0  0
    4.2072   -3.4444    1.7740 H   0  0  0  0  0  0  0  0  0  0  0  0
  1  2  1  0
  1 22  1  0
  1 23  1  0
  1 24  1  0
  2  3  2  0
  2 21  1  0
  3  4  1  0
  3 25  1  0
  4  5  2  0
  4 26  1  0
  5  6  1  0
  5  9  1  0
  6  7  1  0
  6  8  1  0
  6 27  1  6
  7 28  1  0
  7 29  1  0
  7 30  1  0
  8 31  1  0
  8 32  1  0
  8 33  1  0
  9 10  1  0
  9 21  2  0
 10 11  1  0
 11 12  1  0
 11 13  1  0
 11 34  1  1
 12 35  1  0
 12 36  1  0
 12 37  1  0
 13 14  2  0
 13 15  1  0
 15 16  1  0
 15 38  1  0
 16 17  1  0
 16 39  1  0
 16 40  1  0
 17 18  1  0
 17 19  1  0
 17 20  1  6
 18 41  1  0
 18 42  1  0
 18 43  1  0
 19 44  1  0
 19 45  1  0
 19 46  1  0
 20 47  1  0
 20 48  1  0
 21 49  1  0
M  END

