
     RDKit          3D

 32 34  0  0  0  0  0  0  0  0999 V2000
    2.0690   -0.2138   -2.2755 C   0  0  0  0  0  0  0  0  0  0  0  0
    3.2466   -0.3426   -1.3610 C   0  0  0  0  0  0  0  0  0  0  0  0
    4.1597    0.6215   -1.2786 N   0  0  0  0  0  0  0  0  0  0  0  0
    5.0563    0.2227   -0.3549 N   0  0  0  0  0  0  0  0  0  0  0  0
    6.2209    1.0382   -0.0796 C   0  0  0  0  0  0  0  0  0  0  0  0
    4.7238   -0.9948    0.1485 C   0  0  0  0  0  0  0  0  0  0  0  0
    5.6640   -1.7946    1.3565 Cl  0  0  0  0  0  0  0  0  0  0  0  0
    3.5534   -1.4147   -0.4699 C   0  0  0  0  0  0  0  0  0  0  0  0
    2.8246   -2.7056   -0.2486 C   0  0  0  0  0  0  0  0  0  0  0  0
    1.5202   -2.5449    0.4000 N   0  0  0  0  0  0  0  0  0  0  0  0
    1.3614   -1.9556    1.6279 C   0  0  0  0  0  0  0  0  0  0  0  0
    0.0234   -2.1645    1.9945 C   0  0  0  0  0  0  0  0  0  0  0  0
   -0.6376   -2.8520    1.0538 N   0  0  0  0  0  0  0  0  0  0  0  0
    0.2642   -3.0935    0.0566 C   0  0  0  0  0  0  0  0  0  0  0  0
   -0.1001   -3.7793   -1.1214 C   0  0  0  0  0  0  0  0  0  0  0  0
   -1.4115   -4.3335   -1.3210 C   0  0  0  0  0  0  0  0  0  0  0  0
   -1.5716   -4.9079   -2.5750 C   0  0  0  0  0  0  0  0  0  0  0  0
   -0.4245   -4.8183   -3.3834 C   0  0  0  0  0  0  0  0  0  0  0  0
    0.9005   -4.0005   -2.5952 S   0  0  0  0  0  0  0  0  0  0  0  0
    2.2596    0.5730   -3.0187 H   0  0  0  0  0  0  0  0  0  0  0  0
    1.1575    0.0583   -1.7167 H   0  0  0  0  0  0  0  0  0  0  0  0
    1.8527   -1.1605   -2.7962 H   0  0  0  0  0  0  0  0  0  0  0  0
    5.9070    2.0877   -0.0017 H   0  0  0  0  0  0  0  0  0  0  0  0
    6.9633    0.9472   -0.8888 H   0  0  0  0  0  0  0  0  0  0  0  0
    6.6760    0.7163    0.8652 H   0  0  0  0  0  0  0  0  0  0  0  0
    3.4501   -3.3701    0.3746 H   0  0  0  0  0  0  0  0  0  0  0  0
    2.6665   -3.2346   -1.1978 H   0  0  0  0  0  0  0  0  0  0  0  0
    2.1854   -1.4610    2.1369 H   0  0  0  0  0  0  0  0  0  0  0  0
   -0.4573   -1.8327    2.9163 H   0  0  0  0  0  0  0  0  0  0  0  0
   -2.1603   -4.2793   -0.5319 H   0  0  0  0  0  0  0  0  0  0  0  0
   -2.4910   -5.3844   -2.9191 H   0  0  0  0  0  0  0  0  0  0  0  0
   -0.2966   -5.1774   -4.4040 H   0  0  0  0  0  0  0  0  0  0  0  0
  1  2  1  0
  1 20  1  0
  1 21  1  0
  1 22  1  0
  2  3  2  0
  2  8  1  0
  3  4  1  0
  4  5  1  0
  4  6  1  0
  5 23  1  0
  5 24  1  0
  5 25  1  0
  6  7  1  0
  6  8  2  0
  8  9  1  0
  9 10  1  0
  9 26  1  0
  9 27  1  0
 10 11  1  0
 10 14  1  0
 11 12  2  0
 11 28  1  0
 12 13  1  0
 12 29  1  0
 13 14  2  0
 14 15  1  0
 15 16  2  0
 15 19  1  0
 16 17  1  0
 16 30  1  0
 17 18  2  0
 17 31  1  0
 18 19  1  0
 18 32  1  0
M  END

