
     RDKit          3D

 81 84  0  0  0  0  0  0  0  0999 V2000
    2.8369   -1.0783    5.7040 C   0  0  0  0  0  0  0  0  0  0  0  0
    3.4684   -0.8132    4.3368 C   0  0  0  0  0  0  0  0  0  0  0  0
    2.4418   -0.4787    3.2505 C   0  0  0  0  0  0  0  0  0  0  0  0
    3.0580   -0.2422    1.8631 C   0  0  1  0  0  0  0  0  0  0  0  0
    3.9079    0.4465    1.9736 H   0  0  0  0  0  0  0  0  0  0  0  0
    3.6524   -1.4848    1.3507 N   0  0  0  0  0  0  0  0  0  0  0  0
    4.8536   -1.4797    0.6906 C   0  0  0  0  0  0  0  0  0  0  0  0
    5.5722   -0.5161    0.5372 O   0  0  0  0  0  0  0  0  0  0  0  0
    5.2053   -2.7655    0.2070 N   0  0  0  0  0  0  0  0  0  0  0  0
    6.1895   -3.2136   -0.6887 C   0  0  0  0  0  0  0  0  0  0  0  0
    6.9910   -2.6419   -1.3697 O   0  0  0  0  0  0  0  0  0  0  0  0
    5.8248   -4.6934   -0.4183 C   0  0  2  0  0  0  0  0  0  0  0  0
    6.9656   -5.5169    0.2058 C   0  0  0  0  0  0  0  0  0  0  0  0
    7.7385   -4.8508    1.3480 C   0  0  0  0  0  0  0  0  0  0  0  0
    5.1735   -5.3890   -1.6279 C   0  0  0  0  0  0  0  0  0  0  0  0
    6.1075   -5.6032   -2.8232 C   0  0  0  0  0  0  0  0  0  0  0  0
    4.7854   -4.0987    0.6067 C   0  0  2  0  0  0  0  0  0  0  0  0
    5.0003   -4.3287    1.6613 H   0  0  0  0  0  0  0  0  0  0  0  0
    3.4088   -4.3226    0.3477 O   0  0  0  0  0  0  0  0  0  0  0  0
    2.7093   -5.2094    1.1404 C   0  0  0  0  0  0  0  0  0  0  0  0
    2.6805   -5.1010    2.5392 C   0  0  0  0  0  0  0  0  0  0  0  0
    1.9137   -5.9939    3.2887 C   0  0  0  0  0  0  0  0  0  0  0  0
    1.1501   -6.9945    2.6635 C   0  0  0  0  0  0  0  0  0  0  0  0
    0.3072   -7.9448    3.4937 C   0  0  0  0  0  0  0  0  0  0  0  0
   -0.8845   -7.3352    4.0749 N   0  0  0  0  0  0  0  0  0  0  0  0
   -0.8947   -6.8141    5.3343 C   0  0  0  0  0  0  0  0  0  0  0  0
    0.0809   -6.8388    6.0702 O   0  0  0  0  0  0  0  0  0  0  0  0
   -2.2294   -6.2168    5.7908 C   0  0  0  0  0  0  0  0  0  0  0  0
   -2.9244   -7.0679    6.8364 C   0  0  0  0  0  0  0  0  0  0  0  0
   -2.2788   -7.4408    8.0249 C   0  0  0  0  0  0  0  0  0  0  0  0
   -2.9722   -8.2191    8.9548 C   0  0  0  0  0  0  0  0  0  0  0  0
   -4.2313   -8.6356    8.7864 N   0  0  0  0  0  0  0  0  0  0  0  0
   -4.8450   -8.2811    7.6566 C   0  0  0  0  0  0  0  0  0  0  0  0
   -4.2418   -7.5081    6.6585 C   0  0  0  0  0  0  0  0  0  0  0  0
    1.1788   -7.0771    1.2649 C   0  0  0  0  0  0  0  0  0  0  0  0
    1.9540   -6.1983    0.5037 C   0  0  0  0  0  0  0  0  0  0  0  0
    2.1063    0.3722    0.8363 C   0  0  0  0  0  0  0  0  0  0  0  0
    2.6368    1.1289   -0.2207 C   0  0  0  0  0  0  0  0  0  0  0  0
    1.8054    1.6782   -1.1989 C   0  0  0  0  0  0  0  0  0  0  0  0
    0.4150    1.4933   -1.1617 C   0  0  0  0  0  0  0  0  0  0  0  0
   -0.4889    2.0820   -2.2177 C   0  0  0  0  0  0  0  0  0  0  0  0
   -0.1121    0.7357   -0.1043 C   0  0  0  0  0  0  0  0  0  0  0  0
    0.7159    0.1852    0.8769 C   0  0  0  0  0  0  0  0  0  0  0  0
    3.6008   -1.3110    6.4628 H   0  0  0  0  0  0  0  0  0  0  0  0
    2.1366   -1.9300    5.6663 H   0  0  0  0  0  0  0  0  0  0  0  0
    2.2695   -0.2029    6.0621 H   0  0  0  0  0  0  0  0  0  0  0  0
    4.0577   -1.6915    4.0213 H   0  0  0  0  0  0  0  0  0  0  0  0
    4.1918    0.0178    4.4167 H   0  0  0  0  0  0  0  0  0  0  0  0
    1.8830    0.4276    3.5392 H   0  0  0  0  0  0  0  0  0  0  0  0
    1.6942   -1.2914    3.1928 H   0  0  0  0  0  0  0  0  0  0  0  0
    3.0178   -2.2485    1.1291 H   0  0  0  0  0  0  0  0  0  0  0  0
    7.6774   -5.7623   -0.5980 H   0  0  0  0  0  0  0  0  0  0  0  0
    6.5437   -6.4807    0.5445 H   0  0  0  0  0  0  0  0  0  0  0  0
    8.2063   -3.9080    1.0235 H   0  0  0  0  0  0  0  0  0  0  0  0
    8.5441   -5.5139    1.6998 H   0  0  0  0  0  0  0  0  0  0  0  0
    7.1036   -4.6298    2.2213 H   0  0  0  0  0  0  0  0  0  0  0  0
    4.3072   -4.7891   -1.9474 H   0  0  0  0  0  0  0  0  0  0  0  0
    4.7634   -6.3574   -1.2889 H   0  0  0  0  0  0  0  0  0  0  0  0
    6.5729   -4.6574   -3.1396 H   0  0  0  0  0  0  0  0  0  0  0  0
    5.5436   -6.0087   -3.6781 H   0  0  0  0  0  0  0  0  0  0  0  0
    6.9164   -6.3162   -2.6002 H   0  0  0  0  0  0  0  0  0  0  0  0
    3.2475   -4.3156    3.0434 H   0  0  0  0  0  0  0  0  0  0  0  0
    1.8945   -5.9132    4.3785 H   0  0  0  0  0  0  0  0  0  0  0  0
    0.8975   -8.3303    4.3372 H   0  0  0  0  0  0  0  0  0  0  0  0
   -0.0069   -8.8033    2.8798 H   0  0  0  0  0  0  0  0  0  0  0  0
   -1.6958   -7.2042    3.4834 H   0  0  0  0  0  0  0  0  0  0  0  0
   -2.9053   -6.0436    4.9398 H   0  0  0  0  0  0  0  0  0  0  0  0
   -1.9857   -5.2331    6.2246 H   0  0  0  0  0  0  0  0  0  0  0  0
   -1.2459   -7.1380    8.2063 H   0  0  0  0  0  0  0  0  0  0  0  0
   -2.4794   -8.5199    9.8871 H   0  0  0  0  0  0  0  0  0  0  0  0
   -5.8778   -8.6279    7.5286 H   0  0  0  0  0  0  0  0  0  0  0  0
   -4.8022   -7.2508    5.7552 H   0  0  0  0  0  0  0  0  0  0  0  0
    0.5946   -7.8491    0.7550 H   0  0  0  0  0  0  0  0  0  0  0  0
    1.9809   -6.2648   -0.5854 H   0  0  0  0  0  0  0  0  0  0  0  0
    3.7181    1.2793   -0.2774 H   0  0  0  0  0  0  0  0  0  0  0  0
    2.2477    2.2667   -2.0080 H   0  0  0  0  0  0  0  0  0  0  0  0
    0.0736    2.7009   -2.9322 H   0  0  0  0  0  0  0  0  0  0  0  0
   -1.2739    2.7135   -1.7693 H   0  0  0  0  0  0  0  0  0  0  0  0
   -1.0025    1.2918   -2.7916 H   0  0  0  0  0  0  0  0  0  0  0  0
   -1.1931    0.5760   -0.0433 H   0  0  0  0  0  0  0  0  0  0  0  0
    0.2603   -0.3918    1.6850 H   0  0  0  0  0  0  0  0  0  0  0  0
  1  2  1  0
  1 44  1  0
  1 45  1  0
  1 46  1  0
  2  3  1  0
  2 47  1  0
  2 48  1  0
  3  4  1  0
  3 49  1  0
  3 50  1  0
  4  5  1  1
  4  6  1  0
  4 37  1  0
  6  7  1  0
  6 51  1  0
  7  8  2  0
  7  9  1  0
  9 10  1  0
  9 17  1  0
 10 11  2  0
 10 12  1  0
 12 13  1  1
 12 15  1  0
 12 17  1  0
 13 14  1  0
 13 52  1  0
 13 53  1  0
 14 54  1  0
 14 55  1  0
 14 56  1  0
 15 16  1  0
 15 57  1  0
 15 58  1  0
 16 59  1  0
 16 60  1  0
 16 61  1  0
 17 18  1  1
 17 19  1  0
 19 20  1  0
 20 21  2  0
 20 36  1  0
 21 22  1  0
 21 62  1  0
 22 23  2  0
 22 63  1  0
 23 24  1  0
 23 35  1  0
 24 25  1  0
 24 64  1  0
 24 65  1  0
 25 26  1  0
 25 66  1  0
 26 27  2  0
 26 28  1  0
 28 29  1  0
 28 67  1  0
 28 68  1  0
 29 30  2  0
 29 34  1  0
 30 31  1  0
 30 69  1  0
 31 32  2  0
 31 70  1  0
 32 33  1  0
 33 34  2  0
 33 71  1  0
 34 72  1  0
 35 36  2  0
 35 73  1  0
 36 74  1  0
 37 38  2  0
 37 43  1  0
 38 39  1  0
 38 75  1  0
 39 40  2  0
 39 76  1  0
 40 41  1  0
 40 42  1  0
 41 77  1  0
 41 78  1  0
 41 79  1  0
 42 43  2  0
 42 80  1  0
 43 81  1  0
M  END

