
     RDKit          3D

 32 33  0  0  0  0  0  0  0  0999 V2000
    2.4251    1.6587    0.9299 N   0  0  0  0  0  0  0  0  0  0  0  0
    3.0454    0.7699    0.5051 C   0  0  0  0  0  0  0  0  0  0  0  0
    3.8292   -0.2568   -0.1035 C   0  0  0  0  0  0  0  0  0  0  0  0
    4.0800   -1.4812    0.4346 C   0  0  0  0  0  0  0  0  0  0  0  0
    3.6687   -2.1075    1.6848 C   0  0  0  0  0  0  0  0  0  0  0  0
    4.1577   -3.4080    1.9325 C   0  0  0  0  0  0  0  0  0  0  0  0
    3.8080   -4.0847    3.1014 C   0  0  0  0  0  0  0  0  0  0  0  0
    2.9725   -3.4829    4.0394 C   0  0  0  0  0  0  0  0  0  0  0  0
    2.4782   -2.1881    3.8044 C   0  0  0  0  0  0  0  0  0  0  0  0
    1.6372   -1.6915    4.7586 O   0  0  0  0  0  0  0  0  0  0  0  0
    1.2975   -0.3514    4.8019 C   0  0  0  0  0  0  0  0  0  0  0  0
   -0.0423   -0.0034    4.6149 C   0  0  0  0  0  0  0  0  0  0  0  0
   -0.4253    1.3358    4.7306 C   0  0  0  0  0  0  0  0  0  0  0  0
    0.5243    2.3186    5.0240 C   0  0  0  0  0  0  0  0  0  0  0  0
    1.8629    1.9579    5.2099 C   0  0  0  0  0  0  0  0  0  0  0  0
    2.2559    0.6216    5.1057 C   0  0  0  0  0  0  0  0  0  0  0  0
    2.8182   -1.5010    2.6372 C   0  0  0  0  0  0  0  0  0  0  0  0
    4.4449    0.0346   -1.4651 C   0  0  0  0  0  0  0  0  0  0  0  0
    4.1701    1.2618   -1.9803 N   0  0  0  0  0  0  0  0  0  0  0  0
    5.1343   -0.7906   -2.0377 O   0  0  0  0  0  0  0  0  0  0  0  0
    4.7155   -2.0948   -0.2135 H   0  0  0  0  0  0  0  0  0  0  0  0
    4.8137   -3.8816    1.1990 H   0  0  0  0  0  0  0  0  0  0  0  0
    4.1908   -5.0913    3.2857 H   0  0  0  0  0  0  0  0  0  0  0  0
    2.6835   -3.9915    4.9611 H   0  0  0  0  0  0  0  0  0  0  0  0
   -0.7666   -0.7878    4.3870 H   0  0  0  0  0  0  0  0  0  0  0  0
   -1.4728    1.6115    4.5856 H   0  0  0  0  0  0  0  0  0  0  0  0
    0.2226    3.3653    5.1068 H   0  0  0  0  0  0  0  0  0  0  0  0
    2.6089    2.7216    5.4430 H   0  0  0  0  0  0  0  0  0  0  0  0
    3.2963    0.3277    5.2604 H   0  0  0  0  0  0  0  0  0  0  0  0
    2.4169   -0.5030    2.4704 H   0  0  0  0  0  0  0  0  0  0  0  0
    3.5937    1.9411   -1.4998 H   0  0  0  0  0  0  0  0  0  0  0  0
    4.5605    1.4933   -2.8852 H   0  0  0  0  0  0  0  0  0  0  0  0
  1  2  3  0
  2  3  1  0
  3  4  2  0
  3 18  1  0
  4  5  1  0
  4 21  1  0
  5  6  2  0
  5 17  1  0
  6  7  1  0
  6 22  1  0
  7  8  2  0
  7 23  1  0
  8  9  1  0
  8 24  1  0
  9 10  1  0
  9 17  2  0
 10 11  1  0
 11 12  2  0
 11 16  1  0
 12 13  1  0
 12 25  1  0
 13 14  2  0
 13 26  1  0
 14 15  1  0
 14 27  1  0
 15 16  2  0
 15 28  1  0
 16 29  1  0
 17 30  1  0
 18 19  1  0
 18 20  2  0
 19 31  1  0
 19 32  1  0
M  END

