
     RDKit          3D

 57 59  0  0  0  0  0  0  0  0999 V2000
    6.1066   -4.7461    0.4549 C   0  0  0  0  0  0  0  0  0  0  0  0
    5.5486   -3.3284    0.6908 C   0  0  1  0  0  0  0  0  0  0  0  0
    4.0513   -3.3358    0.3223 C   0  0  0  0  0  0  0  0  0  0  0  0
    5.7208   -2.9888    2.1923 C   0  0  0  0  0  0  0  0  0  0  0  0
    5.5204   -1.5287    2.6186 C   0  0  0  0  0  0  0  0  0  0  0  0
    6.6133   -0.5787    2.0948 C   0  0  0  0  0  0  0  0  0  0  0  0
    6.4287   -0.0120    0.7526 N   0  0  0  0  0  0  0  0  0  0  0  0
    5.7987    1.2981    0.7582 C   0  0  0  0  0  0  0  0  0  0  0  0
    6.7406    2.4534    1.1273 C   0  0  0  0  0  0  0  0  0  0  0  0
    6.3082    3.5277    1.5245 O   0  0  0  0  0  0  0  0  0  0  0  0
    8.0523    2.1852    0.9138 N   0  0  0  0  0  0  0  0  0  0  0  0
    9.1144    3.1455    1.1796 C   0  0  0  0  0  0  0  0  0  0  0  0
    9.5552    3.1910    2.6328 C   0  0  0  0  0  0  0  0  0  0  0  0
   10.7281    2.5610    3.0682 C   0  0  0  0  0  0  0  0  0  0  0  0
   11.0981    2.6022    4.4181 C   0  0  0  0  0  0  0  0  0  0  0  0
   10.2936    3.2619    5.3460 C   0  0  0  0  0  0  0  0  0  0  0  0
    9.1061    3.8851    4.9305 C   0  0  0  0  0  0  0  0  0  0  0  0
    8.2714    4.5758    5.9812 C   0  0  0  0  0  0  0  0  0  0  0  0
    8.7229    4.8531    7.0813 O   0  0  0  0  0  0  0  0  0  0  0  0
    6.9775    4.8617    5.6262 N   0  0  0  0  0  0  0  0  0  0  0  0
    6.0641    5.4635    6.5511 C   0  0  1  0  0  0  0  0  0  0  0  0
    6.0743    6.9582    6.7360 C   0  0  0  0  0  0  0  0  0  0  0  0
    4.9426    6.2955    5.9911 C   0  0  0  0  0  0  0  0  0  0  0  0
    8.7577    3.8600    3.5743 C   0  0  0  0  0  0  0  0  0  0  0  0
    5.8840   -0.8921   -0.2878 C   0  0  0  0  0  0  0  0  0  0  0  0
    6.3378   -2.3553   -0.2296 C   0  0  0  0  0  0  0  0  0  0  0  0
    5.6185   -5.4799    1.1169 H   0  0  0  0  0  0  0  0  0  0  0  0
    7.1907   -4.7871    0.6515 H   0  0  0  0  0  0  0  0  0  0  0  0
    5.9415   -5.0726   -0.5851 H   0  0  0  0  0  0  0  0  0  0  0  0
    3.5265   -4.1336    0.8724 H   0  0  0  0  0  0  0  0  0  0  0  0
    3.9063   -3.5230   -0.7547 H   0  0  0  0  0  0  0  0  0  0  0  0
    3.5461   -2.3887    0.5656 H   0  0  0  0  0  0  0  0  0  0  0  0
    6.7395   -3.2863    2.5026 H   0  0  0  0  0  0  0  0  0  0  0  0
    5.0344   -3.6337    2.7686 H   0  0  0  0  0  0  0  0  0  0  0  0
    5.5466   -1.4963    3.7211 H   0  0  0  0  0  0  0  0  0  0  0  0
    4.5206   -1.1546    2.3369 H   0  0  0  0  0  0  0  0  0  0  0  0
    7.5793   -1.1144    2.1383 H   0  0  0  0  0  0  0  0  0  0  0  0
    6.7231    0.2714    2.7849 H   0  0  0  0  0  0  0  0  0  0  0  0
    4.9179    1.3788    1.4269 H   0  0  0  0  0  0  0  0  0  0  0  0
    5.4293    1.5261   -0.2560 H   0  0  0  0  0  0  0  0  0  0  0  0
    8.2594    1.2234    0.6536 H   0  0  0  0  0  0  0  0  0  0  0  0
    8.7430    4.1370    0.8784 H   0  0  0  0  0  0  0  0  0  0  0  0
    9.9683    2.8959    0.5318 H   0  0  0  0  0  0  0  0  0  0  0  0
   11.3653    2.0415    2.3458 H   0  0  0  0  0  0  0  0  0  0  0  0
   12.0218    2.1167    4.7439 H   0  0  0  0  0  0  0  0  0  0  0  0
   10.5618    3.3141    6.4029 H   0  0  0  0  0  0  0  0  0  0  0  0
    6.5928    4.4335    4.7916 H   0  0  0  0  0  0  0  0  0  0  0  0
    5.8560    4.8651    7.4469 H   0  0  0  0  0  0  0  0  0  0  0  0
    6.8055    7.5236    6.1529 H   0  0  0  0  0  0  0  0  0  0  0  0
    5.8907    7.3467    7.7412 H   0  0  0  0  0  0  0  0  0  0  0  0
    4.9052    6.4246    4.9050 H   0  0  0  0  0  0  0  0  0  0  0  0
    3.9622    6.2229    6.4695 H   0  0  0  0  0  0  0  0  0  0  0  0
    7.8588    4.3610    3.2103 H   0  0  0  0  0  0  0  0  0  0  0  0
    6.1971   -0.4730   -1.2600 H   0  0  0  0  0  0  0  0  0  0  0  0
    4.7748   -0.8620   -0.2983 H   0  0  0  0  0  0  0  0  0  0  0  0
    7.4125   -2.3945    0.0210 H   0  0  0  0  0  0  0  0  0  0  0  0
    6.2620   -2.7529   -1.2560 H   0  0  0  0  0  0  0  0  0  0  0  0
  2  1  1  1
  1 27  1  0
  1 28  1  0
  1 29  1  0
  2  3  1  0
  2  4  1  0
  2 26  1  0
  3 30  1  0
  3 31  1  0
  3 32  1  0
  4  5  1  0
  4 33  1  0
  4 34  1  0
  5  6  1  0
  5 35  1  0
  5 36  1  0
  6  7  1  0
  6 37  1  0
  6 38  1  0
  7  8  1  0
  7 25  1  0
  8  9  1  0
  8 39  1  0
  8 40  1  0
  9 10  2  0
  9 11  1  0
 11 12  1  0
 11 41  1  0
 12 13  1  0
 12 42  1  0
 12 43  1  0
 13 14  2  0
 13 24  1  0
 14 15  1  0
 14 44  1  0
 15 16  2  0
 15 45  1  0
 16 17  1  0
 16 46  1  0
 17 18  1  0
 17 24  2  0
 18 19  2  0
 18 20  1  0
 20 21  1  0
 20 47  1  0
 21 22  1  0
 21 23  1  0
 21 48  1  1
 22 23  1  0
 22 49  1  0
 22 50  1  0
 23 51  1  0
 23 52  1  0
 24 53  1  0
 25 26  1  0
 25 54  1  0
 25 55  1  0
 26 56  1  0
 26 57  1  0
M  END

