
     RDKit          3D

 41 42  0  0  0  0  0  0  0  0999 V2000
    1.7735    0.0656    1.1197 C   0  0  0  0  0  0  0  0  0  0  0  0
    2.5293    0.3091   -0.0465 O   0  0  0  0  0  0  0  0  0  0  0  0
    2.9497   -0.7356   -0.7921 C   0  0  0  0  0  0  0  0  0  0  0  0
    2.6961   -2.0840   -0.5050 C   0  0  0  0  0  0  0  0  0  0  0  0
    3.1656   -3.1142   -1.3254 C   0  0  0  0  0  0  0  0  0  0  0  0
    3.9123   -2.8092   -2.4710 C   0  0  0  0  0  0  0  0  0  0  0  0
    4.4269   -3.7862   -3.3539 N   0  0  0  0  0  0  0  0  0  0  0  0
    4.3075   -5.1452   -3.2911 C   0  0  0  0  0  0  0  0  0  0  0  0
    3.7327   -5.7579   -2.4080 O   0  0  0  0  0  0  0  0  0  0  0  0
    4.9608   -5.8814   -4.4708 C   0  0  0  0  0  0  0  0  0  0  0  0
    5.0226   -7.2941   -4.1575 N   0  0  0  0  0  0  0  0  0  0  0  0
    4.7035   -8.4208   -5.3733 S   0  0  1  0  0  0  0  0  0  0  0  0
    4.1884   -9.5913   -4.6627 O   0  0  0  0  0  0  0  0  0  0  0  0
    3.9282   -7.7831   -6.4499 O   0  0  0  0  0  0  0  0  0  0  0  0
    6.2893   -8.7876   -6.0285 C   0  0  0  0  0  0  0  0  0  0  0  0
    7.3702   -9.4264   -5.3422 C   0  0  0  0  0  0  0  0  0  0  0  0
    7.4227   -9.8647   -3.9152 C   0  0  0  0  0  0  0  0  0  0  0  0
    8.3869   -9.6054   -6.1731 N   0  0  0  0  0  0  0  0  0  0  0  0
    7.9730   -9.1074   -7.3564 N   0  0  0  0  0  0  0  0  0  0  0  0
    8.5950   -9.1520   -8.1555 H   0  0  0  0  0  0  0  0  0  0  0  0
    6.7165   -8.6032   -7.3449 C   0  0  0  0  0  0  0  0  0  0  0  0
    6.0747   -8.0053   -8.5541 C   0  0  0  0  0  0  0  0  0  0  0  0
    4.1745   -1.4613   -2.7723 C   0  0  0  0  0  0  0  0  0  0  0  0
    3.7034   -0.4437   -1.9503 C   0  0  0  0  0  0  0  0  0  0  0  0
    4.0471    1.2169   -2.3540 Cl  0  0  0  0  0  0  0  0  0  0  0  0
    1.5486    1.0487    1.5539 H   0  0  0  0  0  0  0  0  0  0  0  0
    2.3386   -0.5317    1.8576 H   0  0  0  0  0  0  0  0  0  0  0  0
    0.8241   -0.4520    0.8932 H   0  0  0  0  0  0  0  0  0  0  0  0
    2.1179   -2.3522    0.3794 H   0  0  0  0  0  0  0  0  0  0  0  0
    2.9557   -4.1523   -1.0801 H   0  0  0  0  0  0  0  0  0  0  0  0
    4.9448   -3.4187   -4.1443 H   0  0  0  0  0  0  0  0  0  0  0  0
    5.9672   -5.4643   -4.6581 H   0  0  0  0  0  0  0  0  0  0  0  0
    4.3490   -5.6971   -5.3740 H   0  0  0  0  0  0  0  0  0  0  0  0
    4.4444   -7.5180   -3.3391 H   0  0  0  0  0  0  0  0  0  0  0  0
    7.2822   -9.0068   -3.2383 H   0  0  0  0  0  0  0  0  0  0  0  0
    8.3920  -10.3365   -3.7057 H   0  0  0  0  0  0  0  0  0  0  0  0
    6.6118  -10.5776   -3.7006 H   0  0  0  0  0  0  0  0  0  0  0  0
    6.6155   -8.2967   -9.4674 H   0  0  0  0  0  0  0  0  0  0  0  0
    6.0647   -6.9048   -8.4967 H   0  0  0  0  0  0  0  0  0  0  0  0
    5.0280   -8.3255   -8.6315 H   0  0  0  0  0  0  0  0  0  0  0  0
    4.7531   -1.1877   -3.6577 H   0  0  0  0  0  0  0  0  0  0  0  0
  1  2  1  0
  1 26  1  0
  1 27  1  0
  1 28  1  0
  2  3  1  0
  3  4  2  0
  3 24  1  0
  4  5  1  0
  4 29  1  0
  5  6  2  0
  5 30  1  0
  6  7  1  0
  6 23  1  0
  7  8  1  0
  7 31  1  0
  8  9  2  0
  8 10  1  0
 10 11  1  0
 10 32  1  0
 10 33  1  0
 12 11  1  1
 11 34  1  0
 12 13  2  0
 12 14  2  0
 12 15  1  0
 15 16  1  0
 15 21  2  0
 16 17  1  0
 16 18  2  0
 17 35  1  0
 17 36  1  0
 17 37  1  0
 18 19  1  0
 19 20  1  0
 19 21  1  0
 21 22  1  0
 22 38  1  0
 22 39  1  0
 22 40  1  0
 23 24  2  0
 23 41  1  0
 24 25  1  0
M  END

