
     RDKit          3D

 46 49  0  0  0  0  0  0  0  0999 V2000
    2.0547    1.3590   -4.3037 C   0  0  0  0  0  0  0  0  0  0  0  0
    3.0475    0.8444   -3.3973 O   0  0  0  0  0  0  0  0  0  0  0  0
    3.4886    1.5887   -2.4075 C   0  0  0  0  0  0  0  0  0  0  0  0
    3.1881    2.9531   -2.2260 C   0  0  0  0  0  0  0  0  0  0  0  0
    3.5127    3.6104   -1.0505 C   0  0  0  0  0  0  0  0  0  0  0  0
    2.9996    4.9842   -0.8002 C   0  0  0  0  0  0  0  0  0  0  0  0
    1.5743    5.1299   -0.6388 C   0  0  0  0  0  0  0  0  0  0  0  0
    0.6594    4.1838   -1.1128 C   0  0  0  0  0  0  0  0  0  0  0  0
   -0.0388    3.3445   -1.5551 N   0  0  0  0  0  0  0  0  0  0  0  0
    1.0856    6.4027    0.0044 C   0  0  1  0  0  0  0  0  0  0  0  0
    0.0389    6.6092   -0.2515 H   0  0  0  0  0  0  0  0  0  0  0  0
    1.2506    6.4095    1.4171 N   0  0  0  0  0  0  0  0  0  0  0  0
    1.7843    7.5926   -0.6264 O   0  0  0  0  0  0  0  0  0  0  0  0
    3.1068    7.4171   -0.7248 C   0  0  0  0  0  0  0  0  0  0  0  0
    3.7727    6.1873   -0.7977 C   0  0  0  0  0  0  0  0  0  0  0  0
    5.1578    6.5715   -0.8506 C   0  0  0  0  0  0  0  0  0  0  0  0
    6.3677    5.6956   -0.9618 C   0  0  0  0  0  0  0  0  0  0  0  0
    5.3026    7.8875   -0.8121 N   0  0  0  0  0  0  0  0  0  0  0  0
    4.0500    8.4225   -0.7221 N   0  0  0  0  0  0  0  0  0  0  0  0
    3.8896    9.8205   -0.6622 C   0  0  0  0  0  0  0  0  0  0  0  0
    5.0240   10.6346   -0.4856 C   0  0  0  0  0  0  0  0  0  0  0  0
    4.8955   12.0199   -0.4227 C   0  0  0  0  0  0  0  0  0  0  0  0
    3.6310   12.6075   -0.5326 C   0  0  0  0  0  0  0  0  0  0  0  0
    3.4558   14.5080   -0.4393 Br  0  0  0  0  0  0  0  0  0  0  0  0
    2.4986   11.8116   -0.7114 C   0  0  0  0  0  0  0  0  0  0  0  0
    2.6235   10.4224   -0.7801 C   0  0  0  0  0  0  0  0  0  0  0  0
    4.2504    2.8781   -0.0520 C   0  0  0  0  0  0  0  0  0  0  0  0
    4.6793    1.5788   -0.2544 C   0  0  0  0  0  0  0  0  0  0  0  0
    4.3044    0.8991   -1.4241 C   0  0  0  0  0  0  0  0  0  0  0  0
    4.6112   -0.3643   -1.6883 O   0  0  0  0  0  0  0  0  0  0  0  0
    1.7452    0.5039   -4.9142 H   0  0  0  0  0  0  0  0  0  0  0  0
    2.4961    2.1364   -4.9449 H   0  0  0  0  0  0  0  0  0  0  0  0
    1.2032    1.7644   -3.7367 H   0  0  0  0  0  0  0  0  0  0  0  0
    2.6121    3.4828   -2.9800 H   0  0  0  0  0  0  0  0  0  0  0  0
    2.1887    6.1154    1.6834 H   0  0  0  0  0  0  0  0  0  0  0  0
    1.0589    7.3263    1.8212 H   0  0  0  0  0  0  0  0  0  0  0  0
    6.4678    5.0181   -0.0958 H   0  0  0  0  0  0  0  0  0  0  0  0
    7.2698    6.3216   -1.0088 H   0  0  0  0  0  0  0  0  0  0  0  0
    6.3383    5.0668   -1.8678 H   0  0  0  0  0  0  0  0  0  0  0  0
    6.0001   10.1587   -0.4044 H   0  0  0  0  0  0  0  0  0  0  0  0
    5.7804   12.6436   -0.2849 H   0  0  0  0  0  0  0  0  0  0  0  0
    1.5131   12.2714   -0.8044 H   0  0  0  0  0  0  0  0  0  0  0  0
    1.7399    9.8046   -0.9276 H   0  0  0  0  0  0  0  0  0  0  0  0
    4.4826    3.3815    0.8869 H   0  0  0  0  0  0  0  0  0  0  0  0
    5.2715    1.0567    0.5020 H   0  0  0  0  0  0  0  0  0  0  0  0
    5.1276   -0.7511   -0.9642 H   0  0  0  0  0  0  0  0  0  0  0  0
  1  2  1  0
  1 31  1  0
  1 32  1  0
  1 33  1  0
  2  3  1  0
  3  4  2  0
  3 29  1  0
  4  5  1  0
  4 34  1  0
  5  6  1  0
  5 27  2  0
  6  7  2  0
  6 15  1  0
  7  8  1  0
  7 10  1  0
  8  9  3  0
 10 11  1  1
 10 12  1  0
 10 13  1  0
 12 35  1  0
 12 36  1  0
 13 14  1  0
 14 15  2  0
 14 19  1  0
 15 16  1  0
 16 17  1  0
 16 18  2  0
 17 37  1  0
 17 38  1  0
 17 39  1  0
 18 19  1  0
 19 20  1  0
 20 21  2  0
 20 26  1  0
 21 22  1  0
 21 40  1  0
 22 23  2  0
 22 41  1  0
 23 24  1  0
 23 25  1  0
 25 26  2  0
 25 42  1  0
 26 43  1  0
 27 28  1  0
 27 44  1  0
 28 29  2  0
 28 45  1  0
 29 30  1  0
 30 46  1  0
M  END

