
     RDKit          3D

 23 24  0  0  0  0  0  0  0  0999 V2000
    0.8776    0.0172    0.0530 C   0  0  0  0  0  0  0  0  0  0  0  0
    2.3415    0.0218    0.0381 N   0  0  0  0  0  0  0  0  0  0  0  0
    3.0299    1.2253    0.0777 C   0  0  0  0  0  0  0  0  0  0  0  0
    4.4359    1.2104    0.0439 C   0  0  0  0  0  0  0  0  0  0  0  0
    5.1530    0.0152    0.0009 C   0  0  0  0  0  0  0  0  0  0  0  0
    4.4327   -1.2378    0.0248 C   0  0  0  0  0  0  0  0  0  0  0  0
    5.0900   -2.4898    0.0215 C   0  0  0  0  0  0  0  0  0  0  0  0
    5.6812   -3.4971    0.0226 N   0  0  0  0  0  0  0  0  0  0  0  0
    3.0030   -1.1972    0.0277 C   0  0  0  0  0  0  0  0  0  0  0  0
    2.2816   -2.2311    0.0158 O   0  0  0  0  0  0  0  0  0  0  0  0
    6.6324    0.2567    0.0170 C   0  0  0  0  0  0  0  0  0  0  0  0
    6.7435    1.7698   -0.2997 C   0  0  0  0  0  0  0  0  0  0  0  0
    5.3770    2.3840    0.0995 C   0  0  0  0  0  0  0  0  0  0  0  0
    0.5265    1.0534   -0.0168 H   0  0  0  0  0  0  0  0  0  0  0  0
    0.4900   -0.4373    0.9753 H   0  0  0  0  0  0  0  0  0  0  0  0
    0.4936   -0.5639   -0.7975 H   0  0  0  0  0  0  0  0  0  0  0  0
    2.4283    2.1313    0.1256 H   0  0  0  0  0  0  0  0  0  0  0  0
    7.1788   -0.3771   -0.7026 H   0  0  0  0  0  0  0  0  0  0  0  0
    7.0585    0.0105    1.0117 H   0  0  0  0  0  0  0  0  0  0  0  0
    6.9042    1.9082   -1.3808 H   0  0  0  0  0  0  0  0  0  0  0  0
    7.5875    2.2516    0.2162 H   0  0  0  0  0  0  0  0  0  0  0  0
    5.0643    3.2124   -0.5590 H   0  0  0  0  0  0  0  0  0  0  0  0
    5.3953    2.7969    1.1267 H   0  0  0  0  0  0  0  0  0  0  0  0
  1  2  1  0
  1 14  1  0
  1 15  1  0
  1 16  1  0
  2  3  1  0
  2  9  1  0
  3  4  2  0
  3 17  1  0
  4  5  1  0
  4 13  1  0
  5  6  2  0
  5 11  1  0
  6  7  1  0
  6  9  1  0
  7  8  3  0
  9 10  2  0
 11 12  1  0
 11 18  1  0
 11 19  1  0
 12 13  1  0
 12 20  1  0
 12 21  1  0
 13 22  1  0
 13 23  1  0
M  END

