
     RDKit          3D

 59 61  0  0  0  0  0  0  0  0999 V2000
    1.5204    1.7463   -5.5488 C   0  0  0  0  0  0  0  0  0  0  0  0
    2.9803    2.1370   -5.6616 C   0  0  0  0  0  0  0  0  0  0  0  0
    3.7017    1.4590   -4.6359 O   0  0  0  0  0  0  0  0  0  0  0  0
    5.0325    1.6149   -4.4842 C   0  0  0  0  0  0  0  0  0  0  0  0
    5.5950    0.8792   -3.4050 C   0  0  0  0  0  0  0  0  0  0  0  0
    6.9989    0.9889   -3.1543 C   0  0  0  0  0  0  0  0  0  0  0  0
    7.7871    1.8454   -3.9739 C   0  0  0  0  0  0  0  0  0  0  0  0
    9.2418    2.0356   -3.6671 C   0  0  0  0  0  0  0  0  0  0  0  0
    9.9495    0.7713   -3.4589 N   0  0  0  0  0  0  0  0  0  0  0  0
    9.9045   -0.2305   -4.5189 C   0  0  0  0  0  0  0  0  0  0  0  0
   10.6699    0.6111   -2.3033 C   0  0  0  0  0  0  0  0  0  0  0  0
   10.7348    1.4820   -1.4447 O   0  0  0  0  0  0  0  0  0  0  0  0
   11.4211   -0.7133   -2.1089 C   0  0  0  0  0  0  0  0  0  0  0  0
   12.6294   -0.7870   -2.9098 N   0  0  0  0  0  0  0  0  0  0  0  0
   13.6636    0.1938   -2.5943 C   0  0  0  0  0  0  0  0  0  0  0  0
   14.8603   -0.2724   -3.4307 C   0  0  1  0  0  0  0  0  0  0  0  0
   14.7123    0.0881   -4.4629 H   0  0  0  0  0  0  0  0  0  0  0  0
   16.2172    0.2528   -2.9371 C   0  0  0  0  0  0  0  0  0  0  0  0
   17.3791   -0.0655   -3.7554 N   0  0  0  0  0  0  0  0  0  0  0  0
   14.7253   -1.8334   -3.4331 C   0  0  2  0  0  0  0  0  0  0  0  0
   15.4542   -2.2473   -2.7178 H   0  0  0  0  0  0  0  0  0  0  0  0
   14.9836   -2.4916   -4.7762 C   0  0  0  0  0  0  0  0  0  0  0  0
   16.0040   -3.4436   -4.9266 C   0  0  0  0  0  0  0  0  0  0  0  0
   16.2433   -4.0610   -6.1593 C   0  0  0  0  0  0  0  0  0  0  0  0
   15.4581   -3.7388   -7.2684 C   0  0  0  0  0  0  0  0  0  0  0  0
   14.4323   -2.7967   -7.1331 C   0  0  0  0  0  0  0  0  0  0  0  0
   14.1993   -2.1806   -5.9018 C   0  0  0  0  0  0  0  0  0  0  0  0
   13.2982   -2.0854   -2.8644 C   0  0  0  0  0  0  0  0  0  0  0  0
    7.2123    2.5470   -5.0685 C   0  0  0  0  0  0  0  0  0  0  0  0
    5.8110    2.4556   -5.3290 C   0  0  0  0  0  0  0  0  0  0  0  0
    0.9338    2.2540   -6.3299 H   0  0  0  0  0  0  0  0  0  0  0  0
    1.1136    2.0326   -4.5670 H   0  0  0  0  0  0  0  0  0  0  0  0
    1.3954    0.6596   -5.6709 H   0  0  0  0  0  0  0  0  0  0  0  0
    3.1152    3.2263   -5.5409 H   0  0  0  0  0  0  0  0  0  0  0  0
    3.3967    1.8554   -6.6449 H   0  0  0  0  0  0  0  0  0  0  0  0
    4.9323    0.2828   -2.7786 H   0  0  0  0  0  0  0  0  0  0  0  0
    7.4536    0.4743   -2.3072 H   0  0  0  0  0  0  0  0  0  0  0  0
    9.3858    2.6110   -2.7344 H   0  0  0  0  0  0  0  0  0  0  0  0
    9.7312    2.6039   -4.4796 H   0  0  0  0  0  0  0  0  0  0  0  0
    9.5957    0.2624   -5.4519 H   0  0  0  0  0  0  0  0  0  0  0  0
    9.1706   -1.0261   -4.3095 H   0  0  0  0  0  0  0  0  0  0  0  0
   10.9010   -0.6704   -4.6607 H   0  0  0  0  0  0  0  0  0  0  0  0
   10.7708   -1.5628   -2.3735 H   0  0  0  0  0  0  0  0  0  0  0  0
   11.6329   -0.7771   -1.0210 H   0  0  0  0  0  0  0  0  0  0  0  0
   13.9175    0.1848   -1.5082 H   0  0  0  0  0  0  0  0  0  0  0  0
   13.3374    1.2163   -2.8387 H   0  0  0  0  0  0  0  0  0  0  0  0
   16.1558    1.3518   -2.8406 H   0  0  0  0  0  0  0  0  0  0  0  0
   16.3980   -0.1260   -1.9143 H   0  0  0  0  0  0  0  0  0  0  0  0
   17.2543    0.2914   -4.7036 H   0  0  0  0  0  0  0  0  0  0  0  0
   17.4886   -1.0750   -3.8519 H   0  0  0  0  0  0  0  0  0  0  0  0
   16.6195   -3.7116   -4.0622 H   0  0  0  0  0  0  0  0  0  0  0  0
   17.0455   -4.7981   -6.2499 H   0  0  0  0  0  0  0  0  0  0  0  0
   15.6419   -4.2191   -8.2328 H   0  0  0  0  0  0  0  0  0  0  0  0
   13.8093   -2.5398   -7.9941 H   0  0  0  0  0  0  0  0  0  0  0  0
   13.3932   -1.4477   -5.8087 H   0  0  0  0  0  0  0  0  0  0  0  0
   13.3759   -2.4584   -1.8187 H   0  0  0  0  0  0  0  0  0  0  0  0
   12.7347   -2.8387   -3.4381 H   0  0  0  0  0  0  0  0  0  0  0  0
    7.8452    3.1742   -5.6993 H   0  0  0  0  0  0  0  0  0  0  0  0
    5.3631    3.0207   -6.1437 H   0  0  0  0  0  0  0  0  0  0  0  0
  1  2  1  0
  1 31  1  0
  1 32  1  0
  1 33  1  0
  2  3  1  0
  2 34  1  0
  2 35  1  0
  3  4  1  0
  4  5  2  0
  4 30  1  0
  5  6  1  0
  5 36  1  0
  6  7  2  0
  6 37  1  0
  7  8  1  0
  7 29  1  0
  8  9  1  0
  8 38  1  0
  8 39  1  0
  9 10  1  0
  9 11  1  0
 10 40  1  0
 10 41  1  0
 10 42  1  0
 11 12  2  0
 11 13  1  0
 13 14  1  0
 13 43  1  0
 13 44  1  0
 14 15  1  0
 14 28  1  0
 15 16  1  0
 15 45  1  0
 15 46  1  0
 16 17  1  6
 16 18  1  0
 16 20  1  0
 18 19  1  0
 18 47  1  0
 18 48  1  0
 19 49  1  0
 19 50  1  0
 20 21  1  1
 20 22  1  0
 20 28  1  0
 22 23  2  0
 22 27  1  0
 23 24  1  0
 23 51  1  0
 24 25  2  0
 24 52  1  0
 25 26  1  0
 25 53  1  0
 26 27  2  0
 26 54  1  0
 27 55  1  0
 28 56  1  0
 28 57  1  0
 29 30  2  0
 29 58  1  0
 30 59  1  0
M  END

