
     RDKit          3D

 53 55  0  0  0  0  0  0  0  0999 V2000
    1.5203    0.8825    0.3614 C   0  0  0  0  0  0  0  0  0  0  0  0
    2.7409    0.2366    0.1198 O   0  0  0  0  0  0  0  0  0  0  0  0
    2.6574   -0.8166   -0.8037 C   0  0  0  0  0  0  0  0  0  0  0  0
    4.0556   -1.4155   -0.9446 C   0  0  0  0  0  0  0  0  0  0  0  0
    4.1016   -2.5201   -1.8819 N   0  0  0  0  0  0  0  0  0  0  0  0
    3.9020   -3.8750   -1.5308 C   0  0  0  0  0  0  0  0  0  0  0  0
    3.6675   -4.2373   -0.3987 O   0  0  0  0  0  0  0  0  0  0  0  0
    4.0556   -4.6857   -2.7674 C   0  0  0  0  0  0  0  0  0  0  0  0
    4.0593   -6.1565   -2.7099 C   0  0  0  0  0  0  0  0  0  0  0  0
    5.0141   -6.9215   -3.4168 C   0  0  0  0  0  0  0  0  0  0  0  0
    5.0420   -8.3077   -3.3324 C   0  0  0  0  0  0  0  0  0  0  0  0
    4.1176   -8.9946   -2.5236 C   0  0  0  0  0  0  0  0  0  0  0  0
    4.2421  -10.3441   -2.4997 O   0  0  0  0  0  0  0  0  0  0  0  0
    3.3592  -11.1716   -1.7309 C   0  0  1  0  0  0  0  0  0  0  0  0
    2.0454  -11.3973   -2.4776 C   0  0  0  0  0  0  0  0  0  0  0  0
    4.1174  -12.4664   -1.4690 C   0  0  0  0  0  0  0  0  0  0  0  0
    3.1697   -8.2508   -1.8015 C   0  0  0  0  0  0  0  0  0  0  0  0
    3.1522   -6.8571   -1.8944 C   0  0  0  0  0  0  0  0  0  0  0  0
    4.3067   -3.8129   -3.8051 C   0  0  0  0  0  0  0  0  0  0  0  0
    4.3827   -4.0167   -5.1508 N   0  0  0  0  0  0  0  0  0  0  0  0
    3.7892   -5.1765   -5.8096 C   0  0  0  0  0  0  0  0  0  0  0  0
    2.9924   -4.7144   -7.0336 C   0  0  0  0  0  0  0  0  0  0  0  0
    3.7800   -3.9434   -7.9125 O   0  0  0  0  0  0  0  0  0  0  0  0
    4.2965   -2.7910   -7.2751 C   0  0  0  0  0  0  0  0  0  0  0  0
    5.1480   -3.1609   -6.0637 C   0  0  0  0  0  0  0  0  0  0  0  0
    4.3393   -2.3968   -3.2333 C   0  0  0  0  0  0  0  0  0  0  0  0
    4.5082   -1.3490   -3.8243 O   0  0  0  0  0  0  0  0  0  0  0  0
    1.7018    1.6829    1.0938 H   0  0  0  0  0  0  0  0  0  0  0  0
    0.7588    0.1909    0.7768 H   0  0  0  0  0  0  0  0  0  0  0  0
    1.1004    1.3363   -0.5597 H   0  0  0  0  0  0  0  0  0  0  0  0
    2.3010   -0.4555   -1.7912 H   0  0  0  0  0  0  0  0  0  0  0  0
    1.9491   -1.5979   -0.4571 H   0  0  0  0  0  0  0  0  0  0  0  0
    4.3910   -1.7845    0.0350 H   0  0  0  0  0  0  0  0  0  0  0  0
    4.7502   -0.6367   -1.2905 H   0  0  0  0  0  0  0  0  0  0  0  0
    5.7658   -6.4131   -4.0246 H   0  0  0  0  0  0  0  0  0  0  0  0
    5.7889   -8.8927   -3.8731 H   0  0  0  0  0  0  0  0  0  0  0  0
    3.1578  -10.6780   -0.7630 H   0  0  0  0  0  0  0  0  0  0  0  0
    2.2379  -11.8989   -3.4392 H   0  0  0  0  0  0  0  0  0  0  0  0
    1.5277  -10.4489   -2.6844 H   0  0  0  0  0  0  0  0  0  0  0  0
    1.3691  -12.0325   -1.8839 H   0  0  0  0  0  0  0  0  0  0  0  0
    4.3673  -12.9629   -2.4200 H   0  0  0  0  0  0  0  0  0  0  0  0
    3.5071  -13.1558   -0.8655 H   0  0  0  0  0  0  0  0  0  0  0  0
    5.0547  -12.2639   -0.9299 H   0  0  0  0  0  0  0  0  0  0  0  0
    2.4384   -8.7429   -1.1601 H   0  0  0  0  0  0  0  0  0  0  0  0
    2.4169   -6.3000   -1.3128 H   0  0  0  0  0  0  0  0  0  0  0  0
    3.1287   -5.7036   -5.1108 H   0  0  0  0  0  0  0  0  0  0  0  0
    4.5750   -5.8853   -6.1320 H   0  0  0  0  0  0  0  0  0  0  0  0
    2.1089   -4.1340   -6.6953 H   0  0  0  0  0  0  0  0  0  0  0  0
    2.6349   -5.5890   -7.5987 H   0  0  0  0  0  0  0  0  0  0  0  0
    3.4728   -2.1237   -6.9501 H   0  0  0  0  0  0  0  0  0  0  0  0
    4.9047   -2.2553   -8.0196 H   0  0  0  0  0  0  0  0  0  0  0  0
    5.4744   -2.2571   -5.5404 H   0  0  0  0  0  0  0  0  0  0  0  0
    6.0383   -3.7227   -6.4085 H   0  0  0  0  0  0  0  0  0  0  0  0
  1  2  1  0
  1 28  1  0
  1 29  1  0
  1 30  1  0
  2  3  1  0
  3  4  1  0
  3 31  1  0
  3 32  1  0
  4  5  1  0
  4 33  1  0
  4 34  1  0
  5  6  1  0
  5 26  1  0
  6  7  2  0
  6  8  1  0
  8  9  1  0
  8 19  2  0
  9 10  2  0
  9 18  1  0
 10 11  1  0
 10 35  1  0
 11 12  2  0
 11 36  1  0
 12 13  1  0
 12 17  1  0
 13 14  1  0
 14 15  1  0
 14 16  1  0
 14 37  1  1
 15 38  1  0
 15 39  1  0
 15 40  1  0
 16 41  1  0
 16 42  1  0
 16 43  1  0
 17 18  2  0
 17 44  1  0
 18 45  1  0
 19 20  1  0
 19 26  1  0
 20 21  1  0
 20 25  1  0
 21 22  1  0
 21 46  1  0
 21 47  1  0
 22 23  1  0
 22 48  1  0
 22 49  1  0
 23 24  1  0
 24 25  1  0
 24 50  1  0
 24 51  1  0
 25 52  1  0
 25 53  1  0
 26 27  2  0
M  END

