
     RDKit          3D

 43 44  0  0  0  0  0  0  0  0999 V2000
    0.5814    1.5615    1.5153 C   0  0  0  0  0  0  0  0  0  0  0  0
    2.0717    1.8060    1.3737 C   0  0  0  0  0  0  0  0  0  0  0  0
    2.7510    0.6228    1.7610 O   0  0  0  0  0  0  0  0  0  0  0  0
    4.1073    0.5828    1.7314 C   0  0  0  0  0  0  0  0  0  0  0  0
    4.9285    1.6481    1.3316 C   0  0  0  0  0  0  0  0  0  0  0  0
    6.3205    1.4945    1.3450 C   0  0  0  0  0  0  0  0  0  0  0  0
    6.9285    0.3006    1.7467 C   0  0  0  0  0  0  0  0  0  0  0  0
    8.4455    0.1608    1.8354 C   0  0  1  0  0  0  0  0  0  0  0  0
    8.9449    0.4148    3.2892 C   0  0  1  0  0  0  0  0  0  0  0  0
    8.6108    1.8156    3.8049 C   0  0  0  0  0  0  0  0  0  0  0  0
    8.5082   -0.5821    4.1949 O   0  0  0  0  0  0  0  0  0  0  0  0
    8.8590   -1.1411    1.3002 N   0  0  0  0  0  0  0  0  0  0  0  0
   10.1442   -1.6797    1.7348 C   0  0  0  0  0  0  0  0  0  0  0  0
   10.3380   -3.0953    1.1922 C   0  0  0  0  0  0  0  0  0  0  0  0
   10.2284   -3.0957   -0.2583 N   0  0  0  0  0  0  0  0  0  0  0  0
    8.9261   -2.6075   -0.6831 C   0  0  0  0  0  0  0  0  0  0  0  0
    8.7197   -1.1916   -0.1527 C   0  0  0  0  0  0  0  0  0  0  0  0
    6.0888   -0.7646    2.1272 C   0  0  0  0  0  0  0  0  0  0  0  0
    4.7038   -0.6287    2.1247 C   0  0  0  0  0  0  0  0  0  0  0  0
    0.0178    2.4609    1.2226 H   0  0  0  0  0  0  0  0  0  0  0  0
    0.3259    1.3131    2.5568 H   0  0  0  0  0  0  0  0  0  0  0  0
    0.2621    0.7254    0.8745 H   0  0  0  0  0  0  0  0  0  0  0  0
    2.3918    2.6523    2.0111 H   0  0  0  0  0  0  0  0  0  0  0  0
    2.3284    2.0659    0.3289 H   0  0  0  0  0  0  0  0  0  0  0  0
    4.5009    2.5961    1.0049 H   0  0  0  0  0  0  0  0  0  0  0  0
    6.9445    2.3349    1.0267 H   0  0  0  0  0  0  0  0  0  0  0  0
    8.8945    0.9853    1.2341 H   0  0  0  0  0  0  0  0  0  0  0  0
   10.0422    0.3263    3.2771 H   0  0  0  0  0  0  0  0  0  0  0  0
    7.5232    1.9751    3.8711 H   0  0  0  0  0  0  0  0  0  0  0  0
    9.0297    2.6001    3.1540 H   0  0  0  0  0  0  0  0  0  0  0  0
    9.0368    1.9381    4.8120 H   0  0  0  0  0  0  0  0  0  0  0  0
    7.5400   -0.5847    4.1903 H   0  0  0  0  0  0  0  0  0  0  0  0
   10.1625   -1.7291    2.8309 H   0  0  0  0  0  0  0  0  0  0  0  0
   10.9991   -1.0508    1.3931 H   0  0  0  0  0  0  0  0  0  0  0  0
    9.5871   -3.7561    1.6823 H   0  0  0  0  0  0  0  0  0  0  0  0
   11.3381   -3.4563    1.4834 H   0  0  0  0  0  0  0  0  0  0  0  0
   10.4100   -4.0236   -0.6355 H   0  0  0  0  0  0  0  0  0  0  0  0
    8.0852   -3.2423   -0.3214 H   0  0  0  0  0  0  0  0  0  0  0  0
    8.8805   -2.5919   -1.7846 H   0  0  0  0  0  0  0  0  0  0  0  0
    7.7135   -0.8404   -0.4280 H   0  0  0  0  0  0  0  0  0  0  0  0
    9.4544   -0.5150   -0.6483 H   0  0  0  0  0  0  0  0  0  0  0  0
    6.5476   -1.7194    2.3945 H   0  0  0  0  0  0  0  0  0  0  0  0
    4.0514   -1.4549    2.4161 H   0  0  0  0  0  0  0  0  0  0  0  0
  1  2  1  0
  1 20  1  0
  1 21  1  0
  1 22  1  0
  2  3  1  0
  2 23  1  0
  2 24  1  0
  3  4  1  0
  4  5  2  0
  4 19  1  0
  5  6  1  0
  5 25  1  0
  6  7  2  0
  6 26  1  0
  7  8  1  0
  7 18  1  0
  8  9  1  0
  8 12  1  0
  8 27  1  6
  9 10  1  0
  9 11  1  0
  9 28  1  6
 10 29  1  0
 10 30  1  0
 10 31  1  0
 11 32  1  0
 12 13  1  0
 12 17  1  0
 13 14  1  0
 13 33  1  0
 13 34  1  0
 14 15  1  0
 14 35  1  0
 14 36  1  0
 15 16  1  0
 15 37  1  0
 16 17  1  0
 16 38  1  0
 16 39  1  0
 17 40  1  0
 17 41  1  0
 18 19  2  0
 18 42  1  0
 19 43  1  0
M  END

