
     RDKit          3D

 36 37  0  0  0  0  0  0  0  0999 V2000
    0.5996   -0.7891   -0.0900 C   0  0  0  0  0  0  0  0  0  0  0  0
    2.0981   -0.4964   -0.0043 C   0  0  0  0  0  0  0  0  0  0  0  0
    2.9669   -1.5479   -0.7015 C   0  0  0  0  0  0  0  0  0  0  0  0
    4.4694   -1.2589   -0.6197 C   0  0  0  0  0  0  0  0  0  0  0  0
    5.3236   -2.3250   -1.3122 C   0  0  0  0  0  0  0  0  0  0  0  0
    6.8324   -2.0216   -1.3441 C   0  0  1  0  0  0  0  0  0  0  0  0
    7.4805   -1.9737    0.0482 C   0  0  0  0  0  0  0  0  0  0  0  0
    7.4691   -3.0478   -2.1714 N   0  0  0  0  0  0  0  0  0  0  0  0
    8.5388   -3.0556   -2.9844 C   0  0  0  0  0  0  0  0  0  0  0  0
    9.4552   -2.0020   -3.3052 C   0  0  0  0  0  0  0  0  0  0  0  0
    9.3405   -0.4169   -2.5894 Cl  0  0  0  0  0  0  0  0  0  0  0  0
   10.5108   -2.2071   -4.2092 C   0  0  0  0  0  0  0  0  0  0  0  0
   10.7010   -3.4497   -4.8115 C   0  0  0  0  0  0  0  0  0  0  0  0
   11.9996   -3.6681   -5.9086 Cl  0  0  0  0  0  0  0  0  0  0  0  0
    9.8191   -4.5621   -4.5239 C   0  0  0  0  0  0  0  0  0  0  0  0
    9.8977   -5.8018   -5.0390 N   0  0  0  0  0  0  0  0  0  0  0  0
    8.6041   -6.6396   -4.3290 S   0  0  0  0  0  0  0  0  0  0  0  0
    7.9575   -5.3916   -3.3701 N   0  0  0  0  0  0  0  0  0  0  0  0
    8.7716   -4.3360   -3.6205 C   0  0  0  0  0  0  0  0  0  0  0  0
    0.0067   -0.0144    0.4215 H   0  0  0  0  0  0  0  0  0  0  0  0
    0.3529   -1.7581    0.3754 H   0  0  0  0  0  0  0  0  0  0  0  0
    0.2584   -0.8313   -1.1379 H   0  0  0  0  0  0  0  0  0  0  0  0
    2.3999   -0.4220    1.0565 H   0  0  0  0  0  0  0  0  0  0  0  0
    2.3063    0.4958   -0.4448 H   0  0  0  0  0  0  0  0  0  0  0  0
    2.6663   -1.6249   -1.7629 H   0  0  0  0  0  0  0  0  0  0  0  0
    2.7625   -2.5412   -0.2603 H   0  0  0  0  0  0  0  0  0  0  0  0
    4.7596   -1.1709    0.4416 H   0  0  0  0  0  0  0  0  0  0  0  0
    4.6763   -0.2724   -1.0746 H   0  0  0  0  0  0  0  0  0  0  0  0
    4.9792   -2.4428   -2.3540 H   0  0  0  0  0  0  0  0  0  0  0  0
    5.1641   -3.3037   -0.8217 H   0  0  0  0  0  0  0  0  0  0  0  0
    6.9820   -1.0508   -1.8363 H   0  0  0  0  0  0  0  0  0  0  0  0
    7.3426   -2.9309    0.5763 H   0  0  0  0  0  0  0  0  0  0  0  0
    7.0321   -1.1738    0.6561 H   0  0  0  0  0  0  0  0  0  0  0  0
    8.5581   -1.7714   -0.0318 H   0  0  0  0  0  0  0  0  0  0  0  0
    7.0463   -3.9846   -2.1505 H   0  0  0  0  0  0  0  0  0  0  0  0
   11.1887   -1.3848   -4.4325 H   0  0  0  0  0  0  0  0  0  0  0  0
  1  2  1  0
  1 20  1  0
  1 21  1  0
  1 22  1  0
  2  3  1  0
  2 23  1  0
  2 24  1  0
  3  4  1  0
  3 25  1  0
  3 26  1  0
  4  5  1  0
  4 27  1  0
  4 28  1  0
  5  6  1  0
  5 29  1  0
  5 30  1  0
  6  7  1  0
  6  8  1  0
  6 31  1  6
  7 32  1  0
  7 33  1  0
  7 34  1  0
  8  9  1  0
  8 35  1  0
  9 10  2  0
  9 19  1  0
 10 11  1  0
 10 12  1  0
 12 13  2  0
 12 36  1  0
 13 14  1  0
 13 15  1  0
 15 16  2  0
 15 19  1  0
 16 17  1  0
 17 18  1  0
 18 19  2  0
M  END

