
     RDKit          3D

 57 60  0  0  0  0  0  0  0  0999 V2000
    5.3524    1.4914    3.7250 C   0  0  0  0  0  0  0  0  0  0  0  0
    5.4657    0.1175    3.4136 O   0  0  0  0  0  0  0  0  0  0  0  0
    4.3449   -0.6314    3.2657 C   0  0  0  0  0  0  0  0  0  0  0  0
    3.0454   -0.1409    3.4446 C   0  0  0  0  0  0  0  0  0  0  0  0
    1.9389   -0.9892    3.3355 C   0  0  0  0  0  0  0  0  0  0  0  0
    2.1226   -2.3374    3.0471 C   0  0  0  0  0  0  0  0  0  0  0  0
    3.4138   -2.8438    2.8315 C   0  0  0  0  0  0  0  0  0  0  0  0
    3.6127   -4.3152    2.5432 C   0  0  0  0  0  0  0  0  0  0  0  0
    3.4171   -4.7279    1.1573 N   0  0  0  0  0  0  0  0  0  0  0  0
    3.8021   -3.7985    0.0674 C   0  0  0  0  0  0  0  0  0  0  0  0
    3.8410   -4.3543   -1.3274 C   0  0  0  0  0  0  0  0  0  0  0  0
    2.8538   -4.0088   -2.2553 C   0  0  0  0  0  0  0  0  0  0  0  0
    2.8729   -4.5399   -3.5521 C   0  0  0  0  0  0  0  0  0  0  0  0
    3.8945   -5.4392   -3.9771 C   0  0  0  0  0  0  0  0  0  0  0  0
    3.8614   -5.9282   -5.2391 N   0  0  0  0  0  0  0  0  0  0  0  0
    4.8524   -6.7609   -5.6204 C   0  0  0  0  0  0  0  0  0  0  0  0
    5.9066   -7.1473   -4.7997 C   0  0  0  0  0  0  0  0  0  0  0  0
    5.9632   -6.6574   -3.4808 C   0  0  0  0  0  0  0  0  0  0  0  0
    4.9404   -5.7817   -3.0283 C   0  0  0  0  0  0  0  0  0  0  0  0
    4.8874   -5.2267   -1.7227 C   0  0  0  0  0  0  0  0  0  0  0  0
    2.9828   -6.0751    0.9300 C   0  0  0  0  0  0  0  0  0  0  0  0
    1.4415   -6.2877    1.1569 C   0  0  1  0  0  0  0  0  0  0  0  0
    0.5223   -5.6481    0.0975 C   0  0  0  0  0  0  0  0  0  0  0  0
   -0.5255   -6.7458   -0.1422 C   0  0  0  0  0  0  0  0  0  0  0  0
    0.3098   -8.0074    0.0577 C   0  0  0  0  0  0  0  0  0  0  0  0
    1.2199   -7.6777    1.1146 O   0  0  0  0  0  0  0  0  0  0  0  0
    4.5342   -1.9981    2.9269 C   0  0  0  0  0  0  0  0  0  0  0  0
    5.7505   -2.5748    2.7425 O   0  0  0  0  0  0  0  0  0  0  0  0
    6.8233   -1.9024    2.0808 C   0  0  0  0  0  0  0  0  0  0  0  0
    6.3770    1.8816    3.7803 H   0  0  0  0  0  0  0  0  0  0  0  0
    4.8556    1.6488    4.6984 H   0  0  0  0  0  0  0  0  0  0  0  0
    4.7992    2.0431    2.9448 H   0  0  0  0  0  0  0  0  0  0  0  0
    2.8909    0.9090    3.6924 H   0  0  0  0  0  0  0  0  0  0  0  0
    0.9352   -0.5893    3.4924 H   0  0  0  0  0  0  0  0  0  0  0  0
    1.2618   -3.0083    2.9875 H   0  0  0  0  0  0  0  0  0  0  0  0
    2.9421   -4.9230    3.1687 H   0  0  0  0  0  0  0  0  0  0  0  0
    4.6464   -4.6061    2.8077 H   0  0  0  0  0  0  0  0  0  0  0  0
    4.7794   -3.4043    0.3954 H   0  0  0  0  0  0  0  0  0  0  0  0
    3.1026   -2.9506    0.1534 H   0  0  0  0  0  0  0  0  0  0  0  0
    2.0589   -3.3100   -1.9740 H   0  0  0  0  0  0  0  0  0  0  0  0
    2.1123   -4.2701   -4.2868 H   0  0  0  0  0  0  0  0  0  0  0  0
    4.7953   -7.1374   -6.6499 H   0  0  0  0  0  0  0  0  0  0  0  0
    6.6784   -7.8219   -5.1802 H   0  0  0  0  0  0  0  0  0  0  0  0
    6.7774   -6.9373   -2.8073 H   0  0  0  0  0  0  0  0  0  0  0  0
    5.6922   -5.4770   -1.0228 H   0  0  0  0  0  0  0  0  0  0  0  0
    3.4841   -6.7334    1.6571 H   0  0  0  0  0  0  0  0  0  0  0  0
    3.2499   -6.3724   -0.0882 H   0  0  0  0  0  0  0  0  0  0  0  0
    1.2008   -5.9296    2.1764 H   0  0  0  0  0  0  0  0  0  0  0  0
    1.0822   -5.4455   -0.8264 H   0  0  0  0  0  0  0  0  0  0  0  0
    0.0872   -4.6975    0.4408 H   0  0  0  0  0  0  0  0  0  0  0  0
   -0.9837   -6.6857   -1.1396 H   0  0  0  0  0  0  0  0  0  0  0  0
   -1.3299   -6.6979    0.6101 H   0  0  0  0  0  0  0  0  0  0  0  0
    0.8697   -8.2734   -0.8576 H   0  0  0  0  0  0  0  0  0  0  0  0
   -0.2682   -8.8865    0.3786 H   0  0  0  0  0  0  0  0  0  0  0  0
    7.5032   -2.6926    1.7341 H   0  0  0  0  0  0  0  0  0  0  0  0
    7.3551   -1.2255    2.7617 H   0  0  0  0  0  0  0  0  0  0  0  0
    6.4612   -1.3310    1.2110 H   0  0  0  0  0  0  0  0  0  0  0  0
  1  2  1  0
  1 30  1  0
  1 31  1  0
  1 32  1  0
  2  3  1  0
  3  4  2  0
  3 27  1  0
  4  5  1  0
  4 33  1  0
  5  6  2  0
  5 34  1  0
  6  7  1  0
  6 35  1  0
  7  8  1  0
  7 27  2  0
  8  9  1  0
  8 36  1  0
  8 37  1  0
  9 10  1  0
  9 21  1  0
 10 11  1  0
 10 38  1  0
 10 39  1  0
 11 12  2  0
 11 20  1  0
 12 13  1  0
 12 40  1  0
 13 14  2  0
 13 41  1  0
 14 15  1  0
 14 19  1  0
 15 16  2  0
 16 17  1  0
 16 42  1  0
 17 18  2  0
 17 43  1  0
 18 19  1  0
 18 44  1  0
 19 20  2  0
 20 45  1  0
 21 22  1  0
 21 46  1  0
 21 47  1  0
 22 23  1  0
 22 26  1  0
 22 48  1  1
 23 24  1  0
 23 49  1  0
 23 50  1  0
 24 25  1  0
 24 51  1  0
 24 52  1  0
 25 26  1  0
 25 53  1  0
 25 54  1  0
 27 28  1  0
 28 29  1  0
 29 55  1  0
 29 56  1  0
 29 57  1  0
M  END

