
     RDKit          3D

 40 40  0  0  0  0  0  0  0  0999 V2000
    3.1786    4.0433    0.0848 C   0  0  0  0  0  0  0  0  0  0  0  0
    3.3090    2.9335   -0.9614 C   0  0  0  0  0  0  0  0  0  0  0  0
    4.5051    2.0149   -0.7015 C   0  0  0  0  0  0  0  0  0  0  0  0
    4.6843    0.6227   -1.8826 S   0  0  0  0  0  0  0  0  0  0  0  0
    5.4371    1.4611   -3.3309 C   0  0  0  0  0  0  0  0  0  0  0  0
    6.9630    1.7196   -3.2547 C   0  0  1  0  0  0  0  0  0  0  0  0
    7.7305    0.3920   -3.3018 C   0  0  0  0  0  0  0  0  0  0  0  0
    9.1903    0.3988   -2.8938 C   0  0  0  0  0  0  0  0  0  0  0  0
    9.9656    1.5565   -2.7773 C   0  0  0  0  0  0  0  0  0  0  0  0
   11.3057    1.5068   -2.3706 C   0  0  0  0  0  0  0  0  0  0  0  0
   11.8930    0.2779   -2.0808 C   0  0  0  0  0  0  0  0  0  0  0  0
   11.1487   -0.9023   -2.1991 C   0  0  0  0  0  0  0  0  0  0  0  0
    9.8094   -0.8436   -2.6057 C   0  0  0  0  0  0  0  0  0  0  0  0
    9.0169   -1.9433   -2.7531 O   0  0  0  0  0  0  0  0  0  0  0  0
    9.5348   -3.2188   -2.4604 C   0  0  0  0  0  0  0  0  0  0  0  0
    7.4305    2.6259   -4.3006 N   0  0  0  0  0  0  0  0  0  0  0  0
    6.9844    4.0037   -4.2530 C   0  0  0  0  0  0  0  0  0  0  0  0
    2.3095    4.6878   -0.1226 H   0  0  0  0  0  0  0  0  0  0  0  0
    4.0735    4.6879    0.1046 H   0  0  0  0  0  0  0  0  0  0  0  0
    3.0497    3.6273    1.0981 H   0  0  0  0  0  0  0  0  0  0  0  0
    3.3998    3.3822   -1.9660 H   0  0  0  0  0  0  0  0  0  0  0  0
    2.3914    2.3219   -0.9850 H   0  0  0  0  0  0  0  0  0  0  0  0
    4.4068    1.5279    0.2828 H   0  0  0  0  0  0  0  0  0  0  0  0
    5.4471    2.5877   -0.6705 H   0  0  0  0  0  0  0  0  0  0  0  0
    4.8930    2.4005   -3.5073 H   0  0  0  0  0  0  0  0  0  0  0  0
    5.2157    0.8019   -4.1873 H   0  0  0  0  0  0  0  0  0  0  0  0
    7.1765    2.2130   -2.2886 H   0  0  0  0  0  0  0  0  0  0  0  0
    7.6390   -0.0289   -4.3231 H   0  0  0  0  0  0  0  0  0  0  0  0
    7.2038   -0.3275   -2.6567 H   0  0  0  0  0  0  0  0  0  0  0  0
    9.5101    2.5114   -3.0406 H   0  0  0  0  0  0  0  0  0  0  0  0
   11.8850    2.4298   -2.2886 H   0  0  0  0  0  0  0  0  0  0  0  0
   12.9378    0.2232   -1.7636 H   0  0  0  0  0  0  0  0  0  0  0  0
   11.6201   -1.8589   -1.9734 H   0  0  0  0  0  0  0  0  0  0  0  0
    9.8595   -3.3014   -1.4071 H   0  0  0  0  0  0  0  0  0  0  0  0
   10.3883   -3.4780   -3.1133 H   0  0  0  0  0  0  0  0  0  0  0  0
    8.7219   -3.9363   -2.6381 H   0  0  0  0  0  0  0  0  0  0  0  0
    7.2929    2.2155   -5.2230 H   0  0  0  0  0  0  0  0  0  0  0  0
    7.3171    4.4700   -3.3096 H   0  0  0  0  0  0  0  0  0  0  0  0
    5.8862    4.1627   -4.3249 H   0  0  0  0  0  0  0  0  0  0  0  0
    7.4507    4.5699   -5.0749 H   0  0  0  0  0  0  0  0  0  0  0  0
  1  2  1  0
  1 18  1  0
  1 19  1  0
  1 20  1  0
  2  3  1  0
  2 21  1  0
  2 22  1  0
  3  4  1  0
  3 23  1  0
  3 24  1  0
  4  5  1  0
  5  6  1  0
  5 25  1  0
  5 26  1  0
  6  7  1  0
  6 16  1  0
  6 27  1  1
  7  8  1  0
  7 28  1  0
  7 29  1  0
  8  9  2  0
  8 13  1  0
  9 10  1  0
  9 30  1  0
 10 11  2  0
 10 31  1  0
 11 12  1  0
 11 32  1  0
 12 13  2  0
 12 33  1  0
 13 14  1  0
 14 15  1  0
 15 34  1  0
 15 35  1  0
 15 36  1  0
 16 17  1  0
 16 37  1  0
 17 38  1  0
 17 39  1  0
 17 40  1  0
M  END

