
     RDKit          3D

 39 42  0  0  0  0  0  0  0  0999 V2000
    1.5921    0.2942    0.1492 C   0  0  0  0  0  0  0  0  0  0  0  0
    2.9898   -0.0742    0.0197 N   0  0  0  0  0  0  0  0  0  0  0  0
    3.8986    0.9050   -0.0885 N   0  0  0  0  0  0  0  0  0  0  0  0
    5.0900    0.3128   -0.1904 C   0  0  0  0  0  0  0  0  0  0  0  0
    6.3215    1.1136   -0.3378 C   0  0  0  0  0  0  0  0  0  0  0  0
    6.3516    2.4400    0.1324 C   0  0  0  0  0  0  0  0  0  0  0  0
    7.5004    3.2183   -0.0095 C   0  0  0  0  0  0  0  0  0  0  0  0
    8.6404    2.6871   -0.6229 C   0  0  0  0  0  0  0  0  0  0  0  0
    8.6175    1.3740   -1.1009 C   0  0  0  0  0  0  0  0  0  0  0  0
    7.4685    0.5910   -0.9631 C   0  0  0  0  0  0  0  0  0  0  0  0
    4.9230   -1.0997   -0.1214 C   0  0  0  0  0  0  0  0  0  0  0  0
    5.9235   -2.0974   -0.1675 N   0  0  0  0  0  0  0  0  0  0  0  0
    6.7920   -2.4335    0.8332 C   0  0  0  0  0  0  0  0  0  0  0  0
    7.6052   -3.4348    0.3374 C   0  0  0  0  0  0  0  0  0  0  0  0
    7.1429   -3.6343   -0.9876 C   0  0  0  0  0  0  0  0  0  0  0  0
    6.1333   -2.8248   -1.2873 N   0  0  0  0  0  0  0  0  0  0  0  0
    3.5498   -1.3215    0.0031 C   0  0  0  0  0  0  0  0  0  0  0  0
    2.7960   -2.5869    0.0853 C   0  0  0  0  0  0  0  0  0  0  0  0
    3.1987   -3.5920    0.9840 C   0  0  0  0  0  0  0  0  0  0  0  0
    2.5048   -4.8010    1.0560 C   0  0  0  0  0  0  0  0  0  0  0  0
    1.3965   -5.0278    0.2345 C   0  0  0  0  0  0  0  0  0  0  0  0
    0.9901   -4.0395   -0.6666 C   0  0  0  0  0  0  0  0  0  0  0  0
    1.6853   -2.8311   -0.7443 C   0  0  0  0  0  0  0  0  0  0  0  0
    1.5427    1.2330    0.7155 H   0  0  0  0  0  0  0  0  0  0  0  0
    1.0447   -0.4920    0.6839 H   0  0  0  0  0  0  0  0  0  0  0  0
    1.1264    0.4519   -0.8370 H   0  0  0  0  0  0  0  0  0  0  0  0
    5.4587    2.8485    0.6089 H   0  0  0  0  0  0  0  0  0  0  0  0
    7.5079    4.2461    0.3632 H   0  0  0  0  0  0  0  0  0  0  0  0
    9.5413    3.2966   -0.7317 H   0  0  0  0  0  0  0  0  0  0  0  0
    9.4986    0.9546   -1.5934 H   0  0  0  0  0  0  0  0  0  0  0  0
    7.4543   -0.4220   -1.3678 H   0  0  0  0  0  0  0  0  0  0  0  0
    6.7613   -1.9301    1.7970 H   0  0  0  0  0  0  0  0  0  0  0  0
    8.4135   -3.9467    0.8543 H   0  0  0  0  0  0  0  0  0  0  0  0
    7.5104   -4.3389   -1.7342 H   0  0  0  0  0  0  0  0  0  0  0  0
    4.0595   -3.4203    1.6328 H   0  0  0  0  0  0  0  0  0  0  0  0
    2.8311   -5.5698    1.7608 H   0  0  0  0  0  0  0  0  0  0  0  0
    0.8536   -5.9746    0.2929 H   0  0  0  0  0  0  0  0  0  0  0  0
    0.1332   -4.2138   -1.3223 H   0  0  0  0  0  0  0  0  0  0  0  0
    1.3795   -2.0799   -1.4755 H   0  0  0  0  0  0  0  0  0  0  0  0
  1  2  1  0
  1 24  1  0
  1 25  1  0
  1 26  1  0
  2  3  1  0
  2 17  1  0
  3  4  2  0
  4  5  1  0
  4 11  1  0
  5  6  2  0
  5 10  1  0
  6  7  1  0
  6 27  1  0
  7  8  2  0
  7 28  1  0
  8  9  1  0
  8 29  1  0
  9 10  2  0
  9 30  1  0
 10 31  1  0
 11 12  1  0
 11 17  2  0
 12 13  1  0
 12 16  1  0
 13 14  2  0
 13 32  1  0
 14 15  1  0
 14 33  1  0
 15 16  2  0
 15 34  1  0
 17 18  1  0
 18 19  2  0
 18 23  1  0
 19 20  1  0
 19 35  1  0
 20 21  2  0
 20 36  1  0
 21 22  1  0
 21 37  1  0
 22 23  2  0
 22 38  1  0
 23 39  1  0
M  END

