
     RDKit          3D

221240  0  0  0  0  0  0  0  0999 V2000
    1.1044    1.8218    0.7607 C   0  0  0  0  0  0  0  0  0  0  0  0
    0.2193    1.3442   -0.1522 C   0  0  0  0  0  0  0  0  0  0  0  0
   -1.2297    1.4250   -0.1204 C   0  0  0  0  0  0  0  0  0  0  0  0
   -1.9760    0.8730   -1.1617 C   0  0  0  0  0  0  0  0  0  0  0  0
   -3.3883    0.8891   -1.2280 C   0  0  0  0  0  0  0  0  0  0  0  0
   -4.1896    1.4655   -0.2483 C   0  0  0  0  0  0  0  0  0  0  0  0
   -5.6439    1.5087   -0.2539 C   0  0  0  0  0  0  0  0  0  0  0  0
   -6.4588    1.0039   -1.2137 C   0  0  0  0  0  0  0  0  0  0  0  0
   -7.9176    1.0225   -1.2350 C   0  0  0  0  0  0  0  0  0  0  0  0
   -8.5991    0.4528   -2.3319 C   0  0  0  0  0  0  0  0  0  0  0  0
   -9.9876    0.4374   -2.4099 C   0  0  0  0  0  0  0  0  0  0  0  0
  -10.7682    0.9864   -1.3752 C   0  0  0  0  0  0  0  0  0  0  0  0
  -12.1802    0.9602   -1.4383 N   0  0  0  0  0  0  0  0  0  0  0  0
  -12.8472   -0.1721   -1.9783 C   0  0  0  0  0  0  0  0  0  0  0  0
  -12.4487   -1.4762   -1.6342 C   0  0  0  0  0  0  0  0  0  0  0  0
  -13.1058   -2.5827   -2.1666 C   0  0  0  0  0  0  0  0  0  0  0  0
  -14.1903   -2.4387   -3.0530 C   0  0  0  0  0  0  0  0  0  0  0  0
  -14.8828   -3.6212   -3.6467 C   0  0  0  0  0  0  0  0  0  0  0  0
  -15.3036   -4.6866   -2.8949 C   0  0  0  0  0  0  0  0  0  0  0  0
  -15.7606   -5.9743   -3.5035 C   0  0  0  0  0  0  0  0  0  0  0  0
  -14.9970   -6.6331   -4.4856 C   0  0  0  0  0  0  0  0  0  0  0  0
  -15.4178   -7.8498   -5.0262 C   0  0  0  0  0  0  0  0  0  0  0  0
  -16.6138   -8.4353   -4.5997 C   0  0  0  0  0  0  0  0  0  0  0  0
  -17.3788   -7.7988   -3.6170 C   0  0  0  0  0  0  0  0  0  0  0  0
  -16.9510   -6.5885   -3.0677 C   0  0  0  0  0  0  0  0  0  0  0  0
  -15.3444   -4.6499   -1.3998 C   0  0  0  0  0  0  0  0  0  0  0  0
  -15.9704   -3.5933   -0.7120 C   0  0  0  0  0  0  0  0  0  0  0  0
  -16.0340   -3.5818    0.6829 C   0  0  0  0  0  0  0  0  0  0  0  0
  -15.4691   -4.6251    1.4230 C   0  0  0  0  0  0  0  0  0  0  0  0
  -14.8524   -5.6873    0.7543 C   0  0  0  0  0  0  0  0  0  0  0  0
  -14.8011   -5.7048   -0.6411 C   0  0  0  0  0  0  0  0  0  0  0  0
  -15.0835   -3.5536   -5.1282 C   0  0  0  0  0  0  0  0  0  0  0  0
  -16.3446   -3.7889   -5.7070 C   0  0  0  0  0  0  0  0  0  0  0  0
  -16.5296   -3.6962   -7.0880 C   0  0  0  0  0  0  0  0  0  0  0  0
  -15.4566   -3.3691   -7.9227 C   0  0  0  0  0  0  0  0  0  0  0  0
  -14.1995   -3.1217   -7.3621 C   0  0  0  0  0  0  0  0  0  0  0  0
  -14.0184   -3.2024   -5.9800 C   0  0  0  0  0  0  0  0  0  0  0  0
  -14.5700   -1.1280   -3.4026 C   0  0  0  0  0  0  0  0  0  0  0  0
  -13.9195   -0.0151   -2.8750 C   0  0  0  0  0  0  0  0  0  0  0  0
  -12.9426    2.0662   -0.9797 C   0  0  0  0  0  0  0  0  0  0  0  0
  -12.5457    3.3863   -1.2594 C   0  0  0  0  0  0  0  0  0  0  0  0
  -13.3048    4.4654   -0.8132 C   0  0  0  0  0  0  0  0  0  0  0  0
  -14.4918    4.2782   -0.0794 C   0  0  0  0  0  0  0  0  0  0  0  0
  -15.2981    5.4306    0.4226 C   0  0  0  0  0  0  0  0  0  0  0  0
  -15.6418    6.4950   -0.3689 C   0  0  0  0  0  0  0  0  0  0  0  0
  -16.2211    7.7583    0.1836 C   0  0  0  0  0  0  0  0  0  0  0  0
  -15.6246    8.4237    1.2713 C   0  0  0  0  0  0  0  0  0  0  0  0
  -16.1560    9.6178    1.7624 C   0  0  0  0  0  0  0  0  0  0  0  0
  -17.2987   10.1738    1.1790 C   0  0  0  0  0  0  0  0  0  0  0  0
  -17.8971    9.5309    0.0906 C   0  0  0  0  0  0  0  0  0  0  0  0
  -17.3578    8.3435   -0.4080 C   0  0  0  0  0  0  0  0  0  0  0  0
  -15.4671    6.4829   -1.8546 C   0  0  0  0  0  0  0  0  0  0  0  0
  -15.9540    5.4206   -2.6395 C   0  0  0  0  0  0  0  0  0  0  0  0
  -15.8148    5.4316   -4.0288 C   0  0  0  0  0  0  0  0  0  0  0  0
  -15.1813    6.5034   -4.6656 C   0  0  0  0  0  0  0  0  0  0  0  0
  -14.7012    7.5713   -3.9009 C   0  0  0  0  0  0  0  0  0  0  0  0
  -14.8533    7.5661   -2.5128 C   0  0  0  0  0  0  0  0  0  0  0  0
  -15.7059    5.3328    1.8593 C   0  0  0  0  0  0  0  0  0  0  0  0
  -17.0433    5.5214    2.2548 C   0  0  0  0  0  0  0  0  0  0  0  0
  -17.4210    5.3944    3.5932 C   0  0  0  0  0  0  0  0  0  0  0  0
  -16.4692    5.0793    4.5678 C   0  0  0  0  0  0  0  0  0  0  0  0
  -15.1375    4.8803    4.1900 C   0  0  0  0  0  0  0  0  0  0  0  0
  -14.7632    4.9950    2.8497 C   0  0  0  0  0  0  0  0  0  0  0  0
  -14.8694    2.9520    0.2097 C   0  0  0  0  0  0  0  0  0  0  0  0
  -14.1178    1.8662   -0.2323 C   0  0  0  0  0  0  0  0  0  0  0  0
  -10.1005    1.5567   -0.2700 C   0  0  0  0  0  0  0  0  0  0  0  0
   -8.7136    1.5775   -0.2071 C   0  0  0  0  0  0  0  0  0  0  0  0
   -3.4713    2.0574    0.8560 C   0  0  0  0  0  0  0  0  0  0  0  0
   -4.0415    2.6630    1.8989 N   0  0  0  0  0  0  0  0  0  0  0  0
   -2.8357    3.1701    2.8866 S   0  0  0  0  0  0  0  0  0  0  0  0
   -1.5436    2.6387    2.0251 N   0  0  0  0  0  0  0  0  0  0  0  0
   -2.0128    2.0417    0.9268 C   0  0  0  0  0  0  0  0  0  0  0  0
    2.5592    1.7103    0.6957 C   0  0  0  0  0  0  0  0  0  0  0  0
    3.2556    1.0316   -0.3298 C   0  0  0  0  0  0  0  0  0  0  0  0
    4.6414    0.9501   -0.3397 C   0  0  0  0  0  0  0  0  0  0  0  0
    5.4107    1.5568    0.6760 C   0  0  0  0  0  0  0  0  0  0  0  0
    6.8225    1.4760    0.6569 N   0  0  0  0  0  0  0  0  0  0  0  0
    7.5197    1.5525   -0.5792 C   0  0  0  0  0  0  0  0  0  0  0  0
    7.1797    2.5213   -1.5398 C   0  0  0  0  0  0  0  0  0  0  0  0
    7.8658    2.5911   -2.7501 C   0  0  0  0  0  0  0  0  0  0  0  0
    8.9198    1.7075   -3.0500 C   0  0  0  0  0  0  0  0  0  0  0  0
    9.6429    1.7621   -4.3561 C   0  0  0  0  0  0  0  0  0  0  0  0
   10.1362    2.9285   -4.8784 C   0  0  0  0  0  0  0  0  0  0  0  0
   10.6276    3.0397   -6.2865 C   0  0  0  0  0  0  0  0  0  0  0  0
    9.8585    2.5750   -7.3700 C   0  0  0  0  0  0  0  0  0  0  0  0
   10.3123    2.7098   -8.6836 C   0  0  0  0  0  0  0  0  0  0  0  0
   11.5477    3.3101   -8.9449 C   0  0  0  0  0  0  0  0  0  0  0  0
   12.3195    3.7865   -7.8803 C   0  0  0  0  0  0  0  0  0  0  0  0
   11.8594    3.6627   -6.5679 C   0  0  0  0  0  0  0  0  0  0  0  0
   10.2259    4.1910   -4.0807 C   0  0  0  0  0  0  0  0  0  0  0  0
   10.8295    4.2098   -2.8092 C   0  0  0  0  0  0  0  0  0  0  0  0
   10.9400    5.3979   -2.0839 C   0  0  0  0  0  0  0  0  0  0  0  0
   10.4451    6.5946   -2.6113 C   0  0  0  0  0  0  0  0  0  0  0  0
    9.8515    6.5946   -3.8776 C   0  0  0  0  0  0  0  0  0  0  0  0
    9.7539    5.4085   -4.6082 C   0  0  0  0  0  0  0  0  0  0  0  0
    9.7872    0.4436   -5.0490 C   0  0  0  0  0  0  0  0  0  0  0  0
   11.0340    0.0006   -5.5290 C   0  0  0  0  0  0  0  0  0  0  0  0
   11.1647   -1.2458   -6.1450 C   0  0  0  0  0  0  0  0  0  0  0  0
   10.0509   -2.0770   -6.2984 C   0  0  0  0  0  0  0  0  0  0  0  0
    8.8067   -1.6553   -5.8188 C   0  0  0  0  0  0  0  0  0  0  0  0
    8.6795   -0.4144   -5.1914 C   0  0  0  0  0  0  0  0  0  0  0  0
    9.2397    0.7301   -2.0873 C   0  0  0  0  0  0  0  0  0  0  0  0
    8.5613    0.6542   -0.8733 C   0  0  0  0  0  0  0  0  0  0  0  0
    7.5556    1.3108    1.8603 C   0  0  0  0  0  0  0  0  0  0  0  0
    7.1052    0.4440    2.8730 C   0  0  0  0  0  0  0  0  0  0  0  0
    7.8401    0.2788    4.0443 C   0  0  0  0  0  0  0  0  0  0  0  0
    9.0559    0.9571    4.2545 C   0  0  0  0  0  0  0  0  0  0  0  0
    9.8419    0.7943    5.5135 C   0  0  0  0  0  0  0  0  0  0  0  0
   10.1234   -0.4316    6.0572 C   0  0  0  0  0  0  0  0  0  0  0  0
   10.6849   -0.5957    7.4337 C   0  0  0  0  0  0  0  0  0  0  0  0
   10.1148    0.0589    8.5419 C   0  0  0  0  0  0  0  0  0  0  0  0
   10.6297   -0.1234    9.8269 C   0  0  0  0  0  0  0  0  0  0  0  0
   11.7291   -0.9622   10.0340 C   0  0  0  0  0  0  0  0  0  0  0  0
   12.3010   -1.6276    8.9449 C   0  0  0  0  0  0  0  0  0  0  0  0
   11.7775   -1.4551    7.6621 C   0  0  0  0  0  0  0  0  0  0  0  0
    9.8967   -1.7117    5.3164 C   0  0  0  0  0  0  0  0  0  0  0  0
   10.3931   -1.8991    4.0126 C   0  0  0  0  0  0  0  0  0  0  0  0
   10.2069   -3.1087    3.3403 C   0  0  0  0  0  0  0  0  0  0  0  0
    9.5164   -4.1582    3.9548 C   0  0  0  0  0  0  0  0  0  0  0  0
    9.0251   -3.9910    5.2533 C   0  0  0  0  0  0  0  0  0  0  0  0
    9.2234   -2.7857    5.9301 C   0  0  0  0  0  0  0  0  0  0  0  0
   10.3069    2.0741    6.1347 C   0  0  0  0  0  0  0  0  0  0  0  0
   11.6527    2.2621    6.5010 C   0  0  0  0  0  0  0  0  0  0  0  0
   12.0859    3.4710    7.0495 C   0  0  0  0  0  0  0  0  0  0  0  0
   11.1821    4.5191    7.2481 C   0  0  0  0  0  0  0  0  0  0  0  0
    9.8429    4.3514    6.8812 C   0  0  0  0  0  0  0  0  0  0  0  0
    9.4135    3.1468    6.3206 C   0  0  0  0  0  0  0  0  0  0  0  0
    9.4860    1.8380    3.2429 C   0  0  0  0  0  0  0  0  0  0  0  0
    8.7582    2.0114    2.0684 C   0  0  0  0  0  0  0  0  0  0  0  0
    4.7315    2.2397    1.7026 C   0  0  0  0  0  0  0  0  0  0  0  0
    3.3416    2.3041    1.7097 C   0  0  0  0  0  0  0  0  0  0  0  0
    0.7077    2.3427    1.6347 H   0  0  0  0  0  0  0  0  0  0  0  0
    0.6053    0.8276   -1.0373 H   0  0  0  0  0  0  0  0  0  0  0  0
   -1.4335    0.3936   -1.9814 H   0  0  0  0  0  0  0  0  0  0  0  0
   -3.8580    0.4202   -2.0954 H   0  0  0  0  0  0  0  0  0  0  0  0
   -6.0795    2.0019    0.6186 H   0  0  0  0  0  0  0  0  0  0  0  0
   -6.0042    0.5175   -2.0837 H   0  0  0  0  0  0  0  0  0  0  0  0
   -8.0175    0.0214   -3.1516 H   0  0  0  0  0  0  0  0  0  0  0  0
  -10.4787   -0.0013   -3.2800 H   0  0  0  0  0  0  0  0  0  0  0  0
  -11.6149   -1.6197   -0.9444 H   0  0  0  0  0  0  0  0  0  0  0  0
  -12.7751   -3.5835   -1.8829 H   0  0  0  0  0  0  0  0  0  0  0  0
  -14.0601   -6.1857   -4.8228 H   0  0  0  0  0  0  0  0  0  0  0  0
  -14.8049   -8.3452   -5.7838 H   0  0  0  0  0  0  0  0  0  0  0  0
  -16.9441   -9.3864   -5.0251 H   0  0  0  0  0  0  0  0  0  0  0  0
  -18.3132   -8.2498   -3.2724 H   0  0  0  0  0  0  0  0  0  0  0  0
  -17.5498   -6.1043   -2.2926 H   0  0  0  0  0  0  0  0  0  0  0  0
  -16.4176   -2.7767   -1.2823 H   0  0  0  0  0  0  0  0  0  0  0  0
  -16.5320   -2.7541    1.1950 H   0  0  0  0  0  0  0  0  0  0  0  0
  -15.5162   -4.6146    2.5150 H   0  0  0  0  0  0  0  0  0  0  0  0
  -14.4120   -6.5107    1.3227 H   0  0  0  0  0  0  0  0  0  0  0  0
  -14.3273   -6.5447   -1.1549 H   0  0  0  0  0  0  0  0  0  0  0  0
  -17.1885   -4.0428   -5.0625 H   0  0  0  0  0  0  0  0  0  0  0  0
  -17.5196   -3.8786   -7.5142 H   0  0  0  0  0  0  0  0  0  0  0  0
  -15.6009   -3.3001   -9.0040 H   0  0  0  0  0  0  0  0  0  0  0  0
  -13.3546   -2.8611   -8.0051 H   0  0  0  0  0  0  0  0  0  0  0  0
  -13.0347   -2.9991   -5.5498 H   0  0  0  0  0  0  0  0  0  0  0  0
  -15.3916   -0.9787   -4.1072 H   0  0  0  0  0  0  0  0  0  0  0  0
  -14.2369    0.9892   -3.1621 H   0  0  0  0  0  0  0  0  0  0  0  0
  -11.6345    3.5648   -1.8334 H   0  0  0  0  0  0  0  0  0  0  0  0
  -12.9727    5.4787   -1.0459 H   0  0  0  0  0  0  0  0  0  0  0  0
  -14.7302    7.9996    1.7316 H   0  0  0  0  0  0  0  0  0  0  0  0
  -15.6718   10.1186    2.6050 H   0  0  0  0  0  0  0  0  0  0  0  0
  -17.7163   11.1071    1.5653 H   0  0  0  0  0  0  0  0  0  0  0  0
  -18.7880    9.9591   -0.3766 H   0  0  0  0  0  0  0  0  0  0  0  0
  -17.8269    7.8541   -1.2649 H   0  0  0  0  0  0  0  0  0  0  0  0
  -16.4524    4.5811   -2.1506 H   0  0  0  0  0  0  0  0  0  0  0  0
  -16.2079    4.5992   -4.6186 H   0  0  0  0  0  0  0  0  0  0  0  0
  -15.0697    6.5103   -5.7529 H   0  0  0  0  0  0  0  0  0  0  0  0
  -14.2088    8.4168   -4.3886 H   0  0  0  0  0  0  0  0  0  0  0  0
  -14.4851    8.4101   -1.9244 H   0  0  0  0  0  0  0  0  0  0  0  0
  -17.7939    5.7655    1.5005 H   0  0  0  0  0  0  0  0  0  0  0  0
  -18.4670    5.5400    3.8759 H   0  0  0  0  0  0  0  0  0  0  0  0
  -16.7650    4.9828    5.6157 H   0  0  0  0  0  0  0  0  0  0  0  0
  -14.3856    4.6302    4.9432 H   0  0  0  0  0  0  0  0  0  0  0  0
  -13.7223    4.8281    2.5619 H   0  0  0  0  0  0  0  0  0  0  0  0
  -15.7713    2.7683    0.7984 H   0  0  0  0  0  0  0  0  0  0  0  0
  -14.4372    0.8497    0.0047 H   0  0  0  0  0  0  0  0  0  0  0  0
  -10.6855    1.9791    0.5489 H   0  0  0  0  0  0  0  0  0  0  0  0
   -8.2373    2.0196    0.6706 H   0  0  0  0  0  0  0  0  0  0  0  0
    2.7012    0.5382   -1.1309 H   0  0  0  0  0  0  0  0  0  0  0  0
    5.1457    0.4044   -1.1390 H   0  0  0  0  0  0  0  0  0  0  0  0
    6.3694    3.2227   -1.3321 H   0  0  0  0  0  0  0  0  0  0  0  0
    7.5834    3.3536   -3.4782 H   0  0  0  0  0  0  0  0  0  0  0  0
    8.8905    2.1087   -7.1770 H   0  0  0  0  0  0  0  0  0  0  0  0
    9.6944    2.3457   -9.5087 H   0  0  0  0  0  0  0  0  0  0  0  0
   11.9038    3.4132   -9.9732 H   0  0  0  0  0  0  0  0  0  0  0  0
   13.2850    4.2618   -8.0731 H   0  0  0  0  0  0  0  0  0  0  0  0
   12.4653    4.0470   -5.7439 H   0  0  0  0  0  0  0  0  0  0  0  0
   11.2218    3.2805   -2.3913 H   0  0  0  0  0  0  0  0  0  0  0  0
   11.4197    5.3895   -1.1014 H   0  0  0  0  0  0  0  0  0  0  0  0
   10.5287    7.5239   -2.0420 H   0  0  0  0  0  0  0  0  0  0  0  0
    9.4656    7.5253   -4.3019 H   0  0  0  0  0  0  0  0  0  0  0  0
    9.2989    5.4202   -5.6016 H   0  0  0  0  0  0  0  0  0  0  0  0
   11.9098    0.6418   -5.4117 H   0  0  0  0  0  0  0  0  0  0  0  0
   12.1445   -1.5706   -6.5050 H   0  0  0  0  0  0  0  0  0  0  0  0
   10.1531   -3.0514   -6.7829 H   0  0  0  0  0  0  0  0  0  0  0  0
    7.9298   -2.2987   -5.9301 H   0  0  0  0  0  0  0  0  0  0  0  0
    7.7057   -0.0972   -4.8106 H   0  0  0  0  0  0  0  0  0  0  0  0
   10.0360    0.0120   -2.2976 H   0  0  0  0  0  0  0  0  0  0  0  0
    8.8316   -0.1112   -0.1433 H   0  0  0  0  0  0  0  0  0  0  0  0
    6.1716   -0.1050    2.7378 H   0  0  0  0  0  0  0  0  0  0  0  0
    7.4661   -0.4003    4.8126 H   0  0  0  0  0  0  0  0  0  0  0  0
    9.2542    0.7133    8.3911 H   0  0  0  0  0  0  0  0  0  0  0  0
   10.1663    0.3914   10.6728 H   0  0  0  0  0  0  0  0  0  0  0  0
   12.1336   -1.1025   11.0397 H   0  0  0  0  0  0  0  0  0  0  0  0
   13.1581   -2.2893    9.0955 H   0  0  0  0  0  0  0  0  0  0  0  0
   12.2241   -1.9873    6.8189 H   0  0  0  0  0  0  0  0  0  0  0  0
   10.9362   -1.0860    3.5267 H   0  0  0  0  0  0  0  0  0  0  0  0
   10.6076   -3.2340    2.3308 H   0  0  0  0  0  0  0  0  0  0  0  0
    9.3684   -5.1039    3.4271 H   0  0  0  0  0  0  0  0  0  0  0  0
    8.4876   -4.8062    5.7450 H   0  0  0  0  0  0  0  0  0  0  0  0
    8.8461   -2.6682    6.9488 H   0  0  0  0  0  0  0  0  0  0  0  0
   12.3659    1.4496    6.3484 H   0  0  0  0  0  0  0  0  0  0  0  0
   13.1375    3.5952    7.3215 H   0  0  0  0  0  0  0  0  0  0  0  0
   11.5206    5.4644    7.6802 H   0  0  0  0  0  0  0  0  0  0  0  0
    9.1284    5.1656    7.0286 H   0  0  0  0  0  0  0  0  0  0  0  0
    8.3675    3.0284    6.0274 H   0  0  0  0  0  0  0  0  0  0  0  0
   10.4109    2.4028    3.3818 H   0  0  0  0  0  0  0  0  0  0  0  0
    9.1185    2.6988    1.3008 H   0  0  0  0  0  0  0  0  0  0  0  0
    5.3023    2.7241    2.4966 H   0  0  0  0  0  0  0  0  0  0  0  0
    2.8385    2.8437    2.5169 H   0  0  0  0  0  0  0  0  0  0  0  0
  1  2  2  0
  1 73  1  0
  1132  1  0
  2  3  1  0
  2133  1  0
  3  4  2  0
  3 72  1  0
  4  5  1  0
  4134  1  0
  5  6  2  0
  5135  1  0
  6  7  1  0
  6 68  1  0
  7  8  2  0
  7136  1  0
  8  9  1  0
  8137  1  0
  9 10  2  0
  9 67  1  0
 10 11  1  0
 10138  1  0
 11 12  2  0
 11139  1  0
 12 13  1  0
 12 66  1  0
 13 14  1  0
 13 40  1  0
 14 15  2  0
 14 39  1  0
 15 16  1  0
 15140  1  0
 16 17  2  0
 16141  1  0
 17 18  1  0
 17 38  1  0
 18 19  2  0
 18 32  1  0
 19 20  1  0
 19 26  1  0
 20 21  2  0
 20 25  1  0
 21 22  1  0
 21142  1  0
 22 23  2  0
 22143  1  0
 23 24  1  0
 23144  1  0
 24 25  2  0
 24145  1  0
 25146  1  0
 26 27  2  0
 26 31  1  0
 27 28  1  0
 27147  1  0
 28 29  2  0
 28148  1  0
 29 30  1  0
 29149  1  0
 30 31  2  0
 30150  1  0
 31151  1  0
 32 33  2  0
 32 37  1  0
 33 34  1  0
 33152  1  0
 34 35  2  0
 34153  1  0
 35 36  1  0
 35154  1  0
 36 37  2  0
 36155  1  0
 37156  1  0
 38 39  2  0
 38157  1  0
 39158  1  0
 40 41  2  0
 40 65  1  0
 41 42  1  0
 41159  1  0
 42 43  2  0
 42160  1  0
 43 44  1  0
 43 64  1  0
 44 45  2  0
 44 58  1  0
 45 46  1  0
 45 52  1  0
 46 47  2  0
 46 51  1  0
 47 48  1  0
 47161  1  0
 48 49  2  0
 48162  1  0
 49 50  1  0
 49163  1  0
 50 51  2  0
 50164  1  0
 51165  1  0
 52 53  2  0
 52 57  1  0
 53 54  1  0
 53166  1  0
 54 55  2  0
 54167  1  0
 55 56  1  0
 55168  1  0
 56 57  2  0
 56169  1  0
 57170  1  0
 58 59  2  0
 58 63  1  0
 59 60  1  0
 59171  1  0
 60 61  2  0
 60172  1  0
 61 62  1  0
 61173  1  0
 62 63  2  0
 62174  1  0
 63175  1  0
 64 65  2  0
 64176  1  0
 65177  1  0
 66 67  2  0
 66178  1  0
 67179  1  0
 68 69  2  0
 68 72  1  0
 69 70  1  0
 70 71  1  0
 71 72  2  0
 73 74  2  0
 73131  1  0
 74 75  1  0
 74180  1  0
 75 76  2  0
 75181  1  0
 76 77  1  0
 76130  1  0
 77 78  1  0
 77104  1  0
 78 79  2  0
 78103  1  0
 79 80  1  0
 79182  1  0
 80 81  2  0
 80183  1  0
 81 82  1  0
 81102  1  0
 82 83  2  0
 82 96  1  0
 83 84  1  0
 83 90  1  0
 84 85  2  0
 84 89  1  0
 85 86  1  0
 85184  1  0
 86 87  2  0
 86185  1  0
 87 88  1  0
 87186  1  0
 88 89  2  0
 88187  1  0
 89188  1  0
 90 91  2  0
 90 95  1  0
 91 92  1  0
 91189  1  0
 92 93  2  0
 92190  1  0
 93 94  1  0
 93191  1  0
 94 95  2  0
 94192  1  0
 95193  1  0
 96 97  2  0
 96101  1  0
 97 98  1  0
 97194  1  0
 98 99  2  0
 98195  1  0
 99100  1  0
 99196  1  0
100101  2  0
100197  1  0
101198  1  0
102103  2  0
102199  1  0
103200  1  0
104105  2  0
104129  1  0
105106  1  0
105201  1  0
106107  2  0
106202  1  0
107108  1  0
107128  1  0
108109  2  0
108122  1  0
109110  1  0
109116  1  0
110111  2  0
110115  1  0
111112  1  0
111203  1  0
112113  2  0
112204  1  0
113114  1  0
113205  1  0
114115  2  0
114206  1  0
115207  1  0
116117  2  0
116121  1  0
117118  1  0
117208  1  0
118119  2  0
118209  1  0
119120  1  0
119210  1  0
120121  2  0
120211  1  0
121212  1  0
122123  2  0
122127  1  0
123124  1  0
123213  1  0
124125  2  0
124214  1  0
125126  1  0
125215  1  0
126127  2  0
126216  1  0
127217  1  0
128129  2  0
128218  1  0
129219  1  0
130131  2  0
130220  1  0
131221  1  0
M  END

