
     RDKit          3D

 60 64  0  0  0  0  0  0  0  0999 V2000
    4.0357   -1.9936    4.0917 C   0  0  0  0  0  0  0  0  0  0  0  0
    3.2971   -1.0551    3.2605 N   0  0  0  0  0  0  0  0  0  0  0  0
    1.9969   -1.5744    2.8695 C   0  0  0  0  0  0  0  0  0  0  0  0
    3.2448    0.2777    3.8419 C   0  0  0  0  0  0  0  0  0  0  0  0
    4.5240    1.1068    3.6461 C   0  0  0  0  0  0  0  0  0  0  0  0
    4.7716    2.0632    4.3617 O   0  0  0  0  0  0  0  0  0  0  0  0
    5.2862    0.7053    2.5921 N   0  0  0  0  0  0  0  0  0  0  0  0
    6.4988    1.3975    2.1754 C   0  0  1  0  0  0  0  0  0  0  0  0
    7.7417    0.4941    2.2699 C   0  0  0  0  0  0  0  0  0  0  0  0
    7.7504   -0.5897    1.1887 C   0  0  0  0  0  0  0  0  0  0  0  0
    7.6046   -0.0066   -0.1391 N   0  0  0  0  0  0  0  0  0  0  0  0
    8.2383   -0.5558   -1.2390 C   0  0  0  0  0  0  0  0  0  0  0  0
    9.3133   -1.3629   -0.9817 N   0  0  0  0  0  0  0  0  0  0  0  0
    9.9679   -1.8701   -2.0068 C   0  0  0  0  0  0  0  0  0  0  0  0
   11.0440   -2.6868   -1.8273 N   0  0  0  0  0  0  0  0  0  0  0  0
   11.6712   -3.0963   -0.6517 C   0  0  0  0  0  0  0  0  0  0  0  0
   11.4311   -2.7465    0.7023 C   0  0  0  0  0  0  0  0  0  0  0  0
   12.3900   -3.4606    1.4155 C   0  0  0  0  0  0  0  0  0  0  0  0
   12.6960   -3.5507    2.8593 C   0  0  1  0  0  0  0  0  0  0  0  0
   12.5384   -2.3425    3.7623 C   0  0  0  0  0  0  0  0  0  0  0  0
   11.5873   -3.4946    3.8925 C   0  0  0  0  0  0  0  0  0  0  0  0
   13.1011   -4.1531    0.4867 N   0  0  0  0  0  0  0  0  0  0  0  0
   13.8785   -4.7789    0.6565 H   0  0  0  0  0  0  0  0  0  0  0  0
   12.6855   -3.9506   -0.7767 N   0  0  0  0  0  0  0  0  0  0  0  0
    9.5745   -1.5757   -3.3538 C   0  0  0  0  0  0  0  0  0  0  0  0
   10.0037   -1.8951   -4.6492 C   0  0  0  0  0  0  0  0  0  0  0  0
    9.1278   -1.2419   -5.5382 C   0  0  0  0  0  0  0  0  0  0  0  0
    8.1856   -0.5387   -4.7828 C   0  0  0  0  0  0  0  0  0  0  0  0
    8.4652   -0.7462   -3.4699 N   0  0  0  0  0  0  0  0  0  0  0  0
    7.7596   -0.2396   -2.4282 N   0  0  0  0  0  0  0  0  0  0  0  0
    6.4279    0.8367   -0.3172 C   0  0  0  0  0  0  0  0  0  0  0  0
    6.3830    1.9435    0.7409 C   0  0  0  0  0  0  0  0  0  0  0  0
    4.1592   -2.9522    3.5633 H   0  0  0  0  0  0  0  0  0  0  0  0
    3.5300   -2.1995    5.0615 H   0  0  0  0  0  0  0  0  0  0  0  0
    5.0386   -1.5980    4.3129 H   0  0  0  0  0  0  0  0  0  0  0  0
    2.1194   -2.5388    2.3514 H   0  0  0  0  0  0  0  0  0  0  0  0
    1.5024   -0.8788    2.1738 H   0  0  0  0  0  0  0  0  0  0  0  0
    1.3127   -1.7404    3.7316 H   0  0  0  0  0  0  0  0  0  0  0  0
    3.0212    0.2832    4.9286 H   0  0  0  0  0  0  0  0  0  0  0  0
    2.4367    0.8506    3.3569 H   0  0  0  0  0  0  0  0  0  0  0  0
    4.9353   -0.1100    2.0946 H   0  0  0  0  0  0  0  0  0  0  0  0
    6.5991    2.2347    2.8809 H   0  0  0  0  0  0  0  0  0  0  0  0
    7.7916    0.0285    3.2674 H   0  0  0  0  0  0  0  0  0  0  0  0
    8.6417    1.1208    2.1506 H   0  0  0  0  0  0  0  0  0  0  0  0
    6.9272   -1.3139    1.3768 H   0  0  0  0  0  0  0  0  0  0  0  0
    8.6820   -1.1633    1.2138 H   0  0  0  0  0  0  0  0  0  0  0  0
   11.4764   -3.0651   -2.6622 H   0  0  0  0  0  0  0  0  0  0  0  0
   10.6748   -2.0694    1.0771 H   0  0  0  0  0  0  0  0  0  0  0  0
   13.5341   -4.2170    3.0898 H   0  0  0  0  0  0  0  0  0  0  0  0
   12.1786   -1.4204    3.2976 H   0  0  0  0  0  0  0  0  0  0  0  0
   13.2881   -2.1910    4.5441 H   0  0  0  0  0  0  0  0  0  0  0  0
   10.5672   -3.3721    3.5180 H   0  0  0  0  0  0  0  0  0  0  0  0
   11.6725   -4.1484    4.7651 H   0  0  0  0  0  0  0  0  0  0  0  0
   10.8525   -2.5220   -4.9171 H   0  0  0  0  0  0  0  0  0  0  0  0
    9.1681   -1.2694   -6.6254 H   0  0  0  0  0  0  0  0  0  0  0  0
    7.3455    0.0876   -5.0705 H   0  0  0  0  0  0  0  0  0  0  0  0
    5.5046    0.2194   -0.2692 H   0  0  0  0  0  0  0  0  0  0  0  0
    6.4574    1.2626   -1.3261 H   0  0  0  0  0  0  0  0  0  0  0  0
    5.4512    2.5213    0.6338 H   0  0  0  0  0  0  0  0  0  0  0  0
    7.2224    2.6366    0.5625 H   0  0  0  0  0  0  0  0  0  0  0  0
  1  2  1  0
  1 33  1  0
  1 34  1  0
  1 35  1  0
  2  3  1  0
  2  4  1  0
  3 36  1  0
  3 37  1  0
  3 38  1  0
  4  5  1  0
  4 39  1  0
  4 40  1  0
  5  6  2  0
  5  7  1  0
  7  8  1  0
  7 41  1  0
  8  9  1  0
  8 32  1  0
  8 42  1  1
  9 10  1  0
  9 43  1  0
  9 44  1  0
 10 11  1  0
 10 45  1  0
 10 46  1  0
 11 12  1  0
 11 31  1  0
 12 13  1  0
 12 30  2  0
 13 14  2  0
 14 15  1  0
 14 25  1  0
 15 16  1  0
 15 47  1  0
 16 17  1  0
 16 24  2  0
 17 18  2  0
 17 48  1  0
 18 19  1  0
 18 22  1  0
 19 20  1  0
 19 21  1  0
 19 49  1  1
 20 21  1  0
 20 50  1  0
 20 51  1  0
 21 52  1  0
 21 53  1  0
 22 23  1  0
 22 24  1  0
 25 26  2  0
 25 29  1  0
 26 27  1  0
 26 54  1  0
 27 28  2  0
 27 55  1  0
 28 29  1  0
 28 56  1  0
 29 30  1  0
 31 32  1  0
 31 57  1  0
 31 58  1  0
 32 59  1  0
 32 60  1  0
M  END

