
     RDKit          3D

 58 60  0  0  0  0  0  0  0  0999 V2000
    0.9380   -0.7398    1.4301 C   0  0  0  0  0  0  0  0  0  0  0  0
    2.4389   -0.9389    1.5198 C   0  0  0  0  0  0  0  0  0  0  0  0
    2.9413   -1.1259    0.2062 O   0  0  0  0  0  0  0  0  0  0  0  0
    4.2660   -1.3678    0.0219 C   0  0  0  0  0  0  0  0  0  0  0  0
    5.2214   -1.4002    1.0447 C   0  0  0  0  0  0  0  0  0  0  0  0
    6.5634   -1.6823    0.7572 C   0  0  0  0  0  0  0  0  0  0  0  0
    6.9899   -1.9357   -0.5498 C   0  0  0  0  0  0  0  0  0  0  0  0
    8.4279   -2.2833   -0.8631 C   0  0  0  0  0  0  0  0  0  0  0  0
    8.6713   -3.7934   -0.9928 C   0  0  0  0  0  0  0  0  0  0  0  0
   10.0543   -4.0752   -1.3451 N   0  0  0  0  0  0  0  0  0  0  0  0
   10.3629   -5.4785   -1.5117 C   0  0  0  0  0  0  0  0  0  0  0  0
   11.7473   -5.7340   -2.0651 C   0  0  0  0  0  0  0  0  0  0  0  0
   12.5240   -4.7193   -2.5279 C   0  0  0  0  0  0  0  0  0  0  0  0
   13.8669   -4.9228   -3.0603 C   0  0  0  0  0  0  0  0  0  0  0  0
   14.6062   -4.0700   -3.4753 O   0  0  0  0  0  0  0  0  0  0  0  0
   14.3154   -6.2405   -3.0754 O   0  0  0  0  0  0  0  0  0  0  0  0
   13.5637   -7.2835   -2.6419 C   0  0  0  0  0  0  0  0  0  0  0  0
   14.1341   -8.5578   -2.7378 C   0  0  0  0  0  0  0  0  0  0  0  0
   13.4254   -9.6878   -2.3233 C   0  0  0  0  0  0  0  0  0  0  0  0
   14.0555  -11.0617   -2.3849 C   0  0  0  0  0  0  0  0  0  0  0  0
   14.7743  -11.4545   -1.0841 C   0  0  0  0  0  0  0  0  0  0  0  0
   12.1243   -9.5117   -1.8082 C   0  0  0  0  0  0  0  0  0  0  0  0
   11.5590   -8.2465   -1.7093 C   0  0  0  0  0  0  0  0  0  0  0  0
   12.2645   -7.0959   -2.1213 C   0  0  0  0  0  0  0  0  0  0  0  0
    6.0255   -1.8887   -1.5717 C   0  0  0  0  0  0  0  0  0  0  0  0
    4.6845   -1.6109   -1.3116 C   0  0  0  0  0  0  0  0  0  0  0  0
    3.7913   -1.6398   -2.3435 O   0  0  0  0  0  0  0  0  0  0  0  0
    3.1814   -0.4056   -2.7284 C   0  0  0  0  0  0  0  0  0  0  0  0
    2.2513   -0.6860   -3.8918 C   0  0  0  0  0  0  0  0  0  0  0  0
    0.5119   -0.6084    2.4369 H   0  0  0  0  0  0  0  0  0  0  0  0
    0.4585   -1.6113    0.9591 H   0  0  0  0  0  0  0  0  0  0  0  0
    0.6952    0.1523    0.8325 H   0  0  0  0  0  0  0  0  0  0  0  0
    2.6796   -1.8213    2.1423 H   0  0  0  0  0  0  0  0  0  0  0  0
    2.9229   -0.0618    1.9905 H   0  0  0  0  0  0  0  0  0  0  0  0
    4.9290   -1.2107    2.0776 H   0  0  0  0  0  0  0  0  0  0  0  0
    7.2867   -1.7003    1.5774 H   0  0  0  0  0  0  0  0  0  0  0  0
    9.0837   -1.8819   -0.0704 H   0  0  0  0  0  0  0  0  0  0  0  0
    8.7456   -1.8060   -1.8046 H   0  0  0  0  0  0  0  0  0  0  0  0
    8.0223   -4.1976   -1.7896 H   0  0  0  0  0  0  0  0  0  0  0  0
    8.3486   -4.2973   -0.0536 H   0  0  0  0  0  0  0  0  0  0  0  0
   10.6813   -3.6613   -0.6548 H   0  0  0  0  0  0  0  0  0  0  0  0
    9.6289   -5.9154   -2.2152 H   0  0  0  0  0  0  0  0  0  0  0  0
   10.2453   -6.0676   -0.5738 H   0  0  0  0  0  0  0  0  0  0  0  0
   12.1617   -3.6920   -2.5295 H   0  0  0  0  0  0  0  0  0  0  0  0
   15.1420   -8.6384   -3.1511 H   0  0  0  0  0  0  0  0  0  0  0  0
   14.7720  -11.0968   -3.2220 H   0  0  0  0  0  0  0  0  0  0  0  0
   13.2757  -11.8087   -2.6093 H   0  0  0  0  0  0  0  0  0  0  0  0
   15.5834  -10.7452   -0.8480 H   0  0  0  0  0  0  0  0  0  0  0  0
   15.2170  -12.4600   -1.1677 H   0  0  0  0  0  0  0  0  0  0  0  0
   14.0783  -11.4603   -0.2300 H   0  0  0  0  0  0  0  0  0  0  0  0
   11.5503  -10.3848   -1.4864 H   0  0  0  0  0  0  0  0  0  0  0  0
   10.5483   -8.1458   -1.3101 H   0  0  0  0  0  0  0  0  0  0  0  0
    6.3023   -2.0744   -2.6129 H   0  0  0  0  0  0  0  0  0  0  0  0
    3.9695    0.3153   -3.0194 H   0  0  0  0  0  0  0  0  0  0  0  0
    2.6272    0.0243   -1.8779 H   0  0  0  0  0  0  0  0  0  0  0  0
    2.8049   -1.1166   -4.7406 H   0  0  0  0  0  0  0  0  0  0  0  0
    1.7657    0.2441   -4.2268 H   0  0  0  0  0  0  0  0  0  0  0  0
    1.4683   -1.4010   -3.5951 H   0  0  0  0  0  0  0  0  0  0  0  0
  1  2  1  0
  1 30  1  0
  1 31  1  0
  1 32  1  0
  2  3  1  0
  2 33  1  0
  2 34  1  0
  3  4  1  0
  4  5  2  0
  4 26  1  0
  5  6  1  0
  5 35  1  0
  6  7  2  0
  6 36  1  0
  7  8  1  0
  7 25  1  0
  8  9  1  0
  8 37  1  0
  8 38  1  0
  9 10  1  0
  9 39  1  0
  9 40  1  0
 10 11  1  0
 10 41  1  0
 11 12  1  0
 11 42  1  0
 11 43  1  0
 12 13  2  0
 12 24  1  0
 13 14  1  0
 13 44  1  0
 14 15  2  0
 14 16  1  0
 16 17  1  0
 17 18  1  0
 17 24  2  0
 18 19  2  0
 18 45  1  0
 19 20  1  0
 19 22  1  0
 20 21  1  0
 20 46  1  0
 20 47  1  0
 21 48  1  0
 21 49  1  0
 21 50  1  0
 22 23  2  0
 22 51  1  0
 23 24  1  0
 23 52  1  0
 25 26  2  0
 25 53  1  0
 26 27  1  0
 27 28  1  0
 28 29  1  0
 28 54  1  0
 28 55  1  0
 29 56  1  0
 29 57  1  0
 29 58  1  0
M  END

