
     RDKit          3D

 74 73  0  0  0  0  0  0  0  0999 V2000
   10.1219   -5.6987    4.5524 C   0  0  0  0  0  0  0  0  0  0  0  0
    9.7183   -4.5164    3.6704 C   0  0  0  0  0  0  0  0  0  0  0  0
   10.2812   -3.1737    4.1473 C   0  0  0  0  0  0  0  0  0  0  0  0
    9.8826   -1.9856    3.2673 C   0  0  0  0  0  0  0  0  0  0  0  0
   10.4497   -0.6430    3.7384 C   0  0  0  0  0  0  0  0  0  0  0  0
   10.0509    0.5411    2.8528 C   0  0  0  0  0  0  0  0  0  0  0  0
   10.6265    1.8846    3.3109 C   0  0  0  0  0  0  0  0  0  0  0  0
   10.2257    3.0617    2.4173 C   0  0  0  0  0  0  0  0  0  0  0  0
   10.8157    4.4077    2.8568 C   0  0  0  0  0  0  0  0  0  0  0  0
   10.3523    5.5621    1.9554 C   0  0  0  0  0  0  0  0  0  0  0  0
   10.9636    6.9912    2.1524 C   0  0  1  0  0  0  0  0  0  0  0  0
   10.4121    7.9402    1.0466 C   0  0  0  0  0  0  0  0  0  0  0  0
    8.9227    7.8568    0.6930 C   0  0  0  0  0  0  0  0  0  0  0  0
   10.4510    7.4935    3.5265 C   0  0  0  0  0  0  0  0  0  0  0  0
    9.5526    8.2804    3.6691 O   0  0  0  0  0  0  0  0  0  0  0  0
   11.0264    6.9547    4.6303 O   0  0  0  0  0  0  0  0  0  0  0  0
   12.5471    6.9787    2.1046 C   0  0  1  0  0  0  0  0  0  0  0  0
   13.0991    6.1842    0.8937 C   0  0  0  0  0  0  0  0  0  0  0  0
   14.6224    5.9619    0.8457 C   0  0  0  0  0  0  0  0  0  0  0  0
   15.2097    5.2155    2.0461 C   0  0  0  0  0  0  0  0  0  0  0  0
   13.2064    8.3788    2.1527 C   0  0  0  0  0  0  0  0  0  0  0  0
   12.9207    9.2953    3.3499 C   0  0  0  0  0  0  0  0  0  0  0  0
   13.7900   10.5580    3.3319 C   0  0  0  0  0  0  0  0  0  0  0  0
   13.5356   11.5052    4.5081 C   0  0  0  0  0  0  0  0  0  0  0  0
   14.4077   12.7643    4.4869 C   0  0  0  0  0  0  0  0  0  0  0  0
   14.1537   13.7058    5.6652 C   0  0  0  0  0  0  0  0  0  0  0  0
    9.6989   -6.6456    4.1803 H   0  0  0  0  0  0  0  0  0  0  0  0
    9.7718   -5.5633    5.5897 H   0  0  0  0  0  0  0  0  0  0  0  0
   11.2181   -5.8162    4.5891 H   0  0  0  0  0  0  0  0  0  0  0  0
    8.6158   -4.4508    3.6232 H   0  0  0  0  0  0  0  0  0  0  0  0
   10.0507   -4.7001    2.6323 H   0  0  0  0  0  0  0  0  0  0  0  0
   11.3846   -3.2384    4.1956 H   0  0  0  0  0  0  0  0  0  0  0  0
    9.9482   -2.9876    5.1857 H   0  0  0  0  0  0  0  0  0  0  0  0
    8.7795   -1.9194    3.2221 H   0  0  0  0  0  0  0  0  0  0  0  0
   10.2122   -2.1750    2.2286 H   0  0  0  0  0  0  0  0  0  0  0  0
   11.5529   -0.7091    3.7838 H   0  0  0  0  0  0  0  0  0  0  0  0
   10.1195   -0.4506    4.7762 H   0  0  0  0  0  0  0  0  0  0  0  0
    8.9480    0.6120    2.8135 H   0  0  0  0  0  0  0  0  0  0  0  0
   10.3736    0.3433    1.8135 H   0  0  0  0  0  0  0  0  0  0  0  0
   11.7298    1.8139    3.3497 H   0  0  0  0  0  0  0  0  0  0  0  0
   10.3033    2.0871    4.3488 H   0  0  0  0  0  0  0  0  0  0  0  0
    9.1233    3.1408    2.3899 H   0  0  0  0  0  0  0  0  0  0  0  0
   10.5353    2.8519    1.3766 H   0  0  0  0  0  0  0  0  0  0  0  0
   11.9172    4.3231    2.8569 H   0  0  0  0  0  0  0  0  0  0  0  0
   10.5171    4.5969    3.9017 H   0  0  0  0  0  0  0  0  0  0  0  0
    9.2604    5.6526    2.0652 H   0  0  0  0  0  0  0  0  0  0  0  0
   10.5145    5.2755    0.9034 H   0  0  0  0  0  0  0  0  0  0  0  0
   10.9932    7.7564    0.1283 H   0  0  0  0  0  0  0  0  0  0  0  0
   10.6324    8.9751    1.3464 H   0  0  0  0  0  0  0  0  0  0  0  0
    8.6498    6.8952    0.2313 H   0  0  0  0  0  0  0  0  0  0  0  0
    8.6769    8.6431   -0.0390 H   0  0  0  0  0  0  0  0  0  0  0  0
    8.2908    8.0150    1.5772 H   0  0  0  0  0  0  0  0  0  0  0  0
   11.7527    6.3666    4.3815 H   0  0  0  0  0  0  0  0  0  0  0  0
   12.8996    6.4343    3.0018 H   0  0  0  0  0  0  0  0  0  0  0  0
   12.7980    6.6920   -0.0382 H   0  0  0  0  0  0  0  0  0  0  0  0
   12.6256    5.1913    0.8594 H   0  0  0  0  0  0  0  0  0  0  0  0
   15.1498    6.9217    0.7155 H   0  0  0  0  0  0  0  0  0  0  0  0
   14.8391    5.3869   -0.0713 H   0  0  0  0  0  0  0  0  0  0  0  0
   15.1258    5.7948    2.9802 H   0  0  0  0  0  0  0  0  0  0  0  0
   16.2800    5.0029    1.8947 H   0  0  0  0  0  0  0  0  0  0  0  0
   14.7016    4.2494    2.2082 H   0  0  0  0  0  0  0  0  0  0  0  0
   12.9669    8.9193    1.2204 H   0  0  0  0  0  0  0  0  0  0  0  0
   14.2970    8.2237    2.1194 H   0  0  0  0  0  0  0  0  0  0  0  0
   13.0951    8.7485    4.2931 H   0  0  0  0  0  0  0  0  0  0  0  0
   11.8617    9.5984    3.3717 H   0  0  0  0  0  0  0  0  0  0  0  0
   13.6219   11.1016    2.3833 H   0  0  0  0  0  0  0  0  0  0  0  0
   14.8576   10.2676    3.3226 H   0  0  0  0  0  0  0  0  0  0  0  0
   13.7023   10.9618    5.4569 H   0  0  0  0  0  0  0  0  0  0  0  0
   12.4696   11.7990    4.5174 H   0  0  0  0  0  0  0  0  0  0  0  0
   14.2383   13.3066    3.5386 H   0  0  0  0  0  0  0  0  0  0  0  0
   15.4727   12.4678    4.4746 H   0  0  0  0  0  0  0  0  0  0  0  0
   13.1058   14.0495    5.6849 H   0  0  0  0  0  0  0  0  0  0  0  0
   14.7959   14.5998    5.6162 H   0  0  0  0  0  0  0  0  0  0  0  0
   14.3525   13.2058    6.6281 H   0  0  0  0  0  0  0  0  0  0  0  0
  1  2  1  0
  1 27  1  0
  1 28  1  0
  1 29  1  0
  2  3  1  0
  2 30  1  0
  2 31  1  0
  3  4  1  0
  3 32  1  0
  3 33  1  0
  4  5  1  0
  4 34  1  0
  4 35  1  0
  5  6  1  0
  5 36  1  0
  5 37  1  0
  6  7  1  0
  6 38  1  0
  6 39  1  0
  7  8  1  0
  7 40  1  0
  7 41  1  0
  8  9  1  0
  8 42  1  0
  8 43  1  0
  9 10  1  0
  9 44  1  0
  9 45  1  0
 10 11  1  0
 10 46  1  0
 10 47  1  0
 11 12  1  0
 11 14  1  1
 11 17  1  0
 12 13  1  0
 12 48  1  0
 12 49  1  0
 13 50  1  0
 13 51  1  0
 13 52  1  0
 14 15  2  0
 14 16  1  0
 16 53  1  0
 17 18  1  0
 17 21  1  0
 17 54  1  1
 18 19  1  0
 18 55  1  0
 18 56  1  0
 19 20  1  0
 19 57  1  0
 19 58  1  0
 20 59  1  0
 20 60  1  0
 20 61  1  0
 21 22  1  0
 21 62  1  0
 21 63  1  0
 22 23  1  0
 22 64  1  0
 22 65  1  0
 23 24  1  0
 23 66  1  0
 23 67  1  0
 24 25  1  0
 24 68  1  0
 24 69  1  0
 25 26  1  0
 25 70  1  0
 25 71  1  0
 26 72  1  0
 26 73  1  0
 26 74  1  0
M  END

