
     RDKit          3D

 86 95  0  0  0  0  0  0  0  0999 V2000
    4.8679    1.2151    5.2418 C   0  0  0  0  0  0  0  0  0  0  0  0
    4.0303    0.6990    4.0513 C   0  0  2  0  0  0  0  0  0  0  0  0
    2.5418    0.6057    4.4502 C   0  0  0  0  0  0  0  0  0  0  0  0
    4.5580   -0.6437    3.5413 C   0  0  0  0  0  0  0  0  0  0  0  0
    4.6414   -1.8610    4.2129 C   0  0  0  0  0  0  0  0  0  0  0  0
    5.1681   -2.9769    3.5463 C   0  0  0  0  0  0  0  0  0  0  0  0
    5.6049   -2.8714    2.2194 C   0  0  0  0  0  0  0  0  0  0  0  0
    5.5224   -1.6525    1.5380 C   0  0  0  0  0  0  0  0  0  0  0  0
    4.9976   -0.5386    2.2031 C   0  0  0  0  0  0  0  0  0  0  0  0
    4.7881    0.8431    1.7535 C   0  0  0  0  0  0  0  0  0  0  0  0
    5.0444    1.4695    0.5288 C   0  0  0  0  0  0  0  0  0  0  0  0
    4.7442    2.8235    0.3737 C   0  0  0  0  0  0  0  0  0  0  0  0
    4.1702    3.5630    1.4272 C   0  0  0  0  0  0  0  0  0  0  0  0
    3.8600    4.9398    1.2544 N   0  0  0  0  0  0  0  0  0  0  0  0
    4.1824    5.8641    2.2815 C   0  0  0  0  0  0  0  0  0  0  0  0
    5.4151    5.7908    2.9551 C   0  0  0  0  0  0  0  0  0  0  0  0
    5.7238    6.6909    3.9724 C   0  0  0  0  0  0  0  0  0  0  0  0
    4.8296    7.7092    4.3550 C   0  0  0  0  0  0  0  0  0  0  0  0
    5.1673    8.6710    5.4367 C   0  0  0  0  0  0  0  0  0  0  0  0
    6.4868    9.1308    5.6154 C   0  0  0  0  0  0  0  0  0  0  0  0
    6.8049   10.0327    6.6327 C   0  0  0  0  0  0  0  0  0  0  0  0
    5.8111   10.5001    7.4978 C   0  0  0  0  0  0  0  0  0  0  0  0
    4.4959   10.0550    7.3342 C   0  0  0  0  0  0  0  0  0  0  0  0
    4.1789    9.1520    6.3175 C   0  0  0  0  0  0  0  0  0  0  0  0
    3.6016    7.7762    3.6693 C   0  0  0  0  0  0  0  0  0  0  0  0
    3.2775    6.8724    2.6598 C   0  0  0  0  0  0  0  0  0  0  0  0
    3.2239    5.3829    0.0692 C   0  0  0  0  0  0  0  0  0  0  0  0
    2.2222    4.6101   -0.5471 C   0  0  0  0  0  0  0  0  0  0  0  0
    1.6096    5.0465   -1.7189 C   0  0  0  0  0  0  0  0  0  0  0  0
    1.9523    6.2727   -2.3208 C   0  0  0  0  0  0  0  0  0  0  0  0
    1.2574    6.7339   -3.5477 C   0  0  0  0  0  0  0  0  0  0  0  0
   -0.0926    6.4945   -3.7664 C   0  0  0  0  0  0  0  0  0  0  0  0
   -0.7859    6.9114   -4.9414 C   0  0  0  0  0  0  0  0  0  0  0  0
   -2.1735    6.6436   -5.1043 C   0  0  0  0  0  0  0  0  0  0  0  0
   -2.8501    7.0459   -6.2380 C   0  0  0  0  0  0  0  0  0  0  0  0
   -2.1626    7.7388   -7.2618 C   0  0  0  0  0  0  0  0  0  0  0  0
   -0.8145    8.0184   -7.1356 C   0  0  0  0  0  0  0  0  0  0  0  0
   -0.0911    7.6184   -5.9824 C   0  0  0  0  0  0  0  0  0  0  0  0
    1.3009    7.8707   -5.7729 C   0  0  0  0  0  0  0  0  0  0  0  0
    1.9146    7.4373   -4.5940 C   0  0  0  0  0  0  0  0  0  0  0  0
    3.2469    7.7494   -4.5762 O   0  0  0  0  0  0  0  0  0  0  0  0
    3.5167    8.3941   -5.7493 C   0  0  0  0  0  0  0  0  0  0  0  0
    4.7648    8.8796   -6.1260 C   0  0  0  0  0  0  0  0  0  0  0  0
    4.8459    9.5110   -7.3691 C   0  0  0  0  0  0  0  0  0  0  0  0
    3.7107    9.6426   -8.1902 C   0  0  0  0  0  0  0  0  0  0  0  0
    2.4675    9.1486   -7.7935 C   0  0  0  0  0  0  0  0  0  0  0  0
    2.3558    8.5079   -6.5463 C   0  0  0  0  0  0  0  0  0  0  0  0
    2.9566    7.0386   -1.6970 C   0  0  0  0  0  0  0  0  0  0  0  0
    3.5814    6.6050   -0.5308 C   0  0  0  0  0  0  0  0  0  0  0  0
    3.9087    2.9256    2.6576 C   0  0  0  0  0  0  0  0  0  0  0  0
    4.2242    1.5815    2.8160 C   0  0  0  0  0  0  0  0  0  0  0  0
    4.7760    0.5380    6.1062 H   0  0  0  0  0  0  0  0  0  0  0  0
    4.5253    2.2136    5.5580 H   0  0  0  0  0  0  0  0  0  0  0  0
    5.9333    1.2869    4.9754 H   0  0  0  0  0  0  0  0  0  0  0  0
    2.4080   -0.0820    5.3008 H   0  0  0  0  0  0  0  0  0  0  0  0
    1.9286    0.2384    3.6134 H   0  0  0  0  0  0  0  0  0  0  0  0
    2.1553    1.5925    4.7521 H   0  0  0  0  0  0  0  0  0  0  0  0
    4.3025   -1.9544    5.2487 H   0  0  0  0  0  0  0  0  0  0  0  0
    5.2381   -3.9361    4.0657 H   0  0  0  0  0  0  0  0  0  0  0  0
    6.0129   -3.7496    1.7121 H   0  0  0  0  0  0  0  0  0  0  0  0
    5.8632   -1.5762    0.5021 H   0  0  0  0  0  0  0  0  0  0  0  0
    5.4886    0.9156   -0.3023 H   0  0  0  0  0  0  0  0  0  0  0  0
    4.9541    3.3235   -0.5736 H   0  0  0  0  0  0  0  0  0  0  0  0
    6.1313    5.0141    2.6810 H   0  0  0  0  0  0  0  0  0  0  0  0
    6.6806    6.5915    4.4903 H   0  0  0  0  0  0  0  0  0  0  0  0
    7.2706    8.7961    4.9319 H   0  0  0  0  0  0  0  0  0  0  0  0
    7.8357   10.3796    6.7443 H   0  0  0  0  0  0  0  0  0  0  0  0
    6.0598   11.2065    8.2938 H   0  0  0  0  0  0  0  0  0  0  0  0
    3.7108   10.4061    8.0092 H   0  0  0  0  0  0  0  0  0  0  0  0
    3.1512    8.7943    6.2203 H   0  0  0  0  0  0  0  0  0  0  0  0
    2.8849    8.5609    3.9221 H   0  0  0  0  0  0  0  0  0  0  0  0
    2.3153    6.9501    2.1503 H   0  0  0  0  0  0  0  0  0  0  0  0
    1.9301    3.6556   -0.1061 H   0  0  0  0  0  0  0  0  0  0  0  0
    0.8518    4.4118   -2.1838 H   0  0  0  0  0  0  0  0  0  0  0  0
   -0.6687    5.9802   -2.9938 H   0  0  0  0  0  0  0  0  0  0  0  0
   -2.7000    6.1081   -4.3094 H   0  0  0  0  0  0  0  0  0  0  0  0
   -3.9159    6.8309   -6.3472 H   0  0  0  0  0  0  0  0  0  0  0  0
   -2.7014    8.0562   -8.1582 H   0  0  0  0  0  0  0  0  0  0  0  0
   -0.3004    8.5550   -7.9330 H   0  0  0  0  0  0  0  0  0  0  0  0
    5.6318    8.7646   -5.4733 H   0  0  0  0  0  0  0  0  0  0  0  0
    5.8059    9.9079   -7.7083 H   0  0  0  0  0  0  0  0  0  0  0  0
    3.8052   10.1416   -9.1576 H   0  0  0  0  0  0  0  0  0  0  0  0
    1.6049    9.2648   -8.4505 H   0  0  0  0  0  0  0  0  0  0  0  0
    3.2597    7.9901   -2.1345 H   0  0  0  0  0  0  0  0  0  0  0  0
    4.3597    7.2197   -0.0753 H   0  0  0  0  0  0  0  0  0  0  0  0
    3.4592    3.4990    3.4714 H   0  0  0  0  0  0  0  0  0  0  0  0
  2  1  1  1
  1 52  1  0
  1 53  1  0
  1 54  1  0
  2  3  1  0
  2  4  1  0
  2 51  1  0
  3 55  1  0
  3 56  1  0
  3 57  1  0
  4  5  2  0
  4  9  1  0
  5  6  1  0
  5 58  1  0
  6  7  2  0
  6 59  1  0
  7  8  1  0
  7 60  1  0
  8  9  2  0
  8 61  1  0
  9 10  1  0
 10 11  2  0
 10 51  1  0
 11 12  1  0
 11 62  1  0
 12 13  2  0
 12 63  1  0
 13 14  1  0
 13 50  1  0
 14 15  1  0
 14 27  1  0
 15 16  2  0
 15 26  1  0
 16 17  1  0
 16 64  1  0
 17 18  2  0
 17 65  1  0
 18 19  1  0
 18 25  1  0
 19 20  2  0
 19 24  1  0
 20 21  1  0
 20 66  1  0
 21 22  2  0
 21 67  1  0
 22 23  1  0
 22 68  1  0
 23 24  2  0
 23 69  1  0
 24 70  1  0
 25 26  2  0
 25 71  1  0
 26 72  1  0
 27 28  2  0
 27 49  1  0
 28 29  1  0
 28 73  1  0
 29 30  2  0
 29 74  1  0
 30 31  1  0
 30 48  1  0
 31 32  2  0
 31 40  1  0
 32 33  1  0
 32 75  1  0
 33 34  2  0
 33 38  1  0
 34 35  1  0
 34 76  1  0
 35 36  2  0
 35 77  1  0
 36 37  1  0
 36 78  1  0
 37 38  2  0
 37 79  1  0
 38 39  1  0
 39 40  2  0
 39 47  1  0
 40 41  1  0
 41 42  1  0
 42 43  1  0
 42 47  2  0
 43 44  2  0
 43 80  1  0
 44 45  1  0
 44 81  1  0
 45 46  2  0
 45 82  1  0
 46 47  1  0
 46 83  1  0
 48 49  2  0
 48 84  1  0
 49 85  1  0
 50 51  2  0
 50 86  1  0
M  END

