
     RDKit          3D

 27 26  0  0  0  0  0  0  0  0999 V2000
    2.7131    1.8163    2.4465 C   0  0  0  0  0  0  0  0  0  0  0  0
    3.1426    0.8534    1.3387 C   0  0  0  0  0  0  0  0  0  0  0  0
    3.8874    1.5468    0.1931 C   0  0  0  0  0  0  0  0  0  0  0  0
    4.3048    0.5721   -0.9013 C   0  0  0  0  0  0  0  0  0  0  0  0
    4.9286    1.2445   -2.0109 O   0  0  0  0  0  0  0  0  0  0  0  0
    6.2510    1.4749   -1.9361 C   0  0  0  0  0  0  0  0  0  0  0  0
    6.9376    1.1477   -0.9958 O   0  0  0  0  0  0  0  0  0  0  0  0
    6.7553    2.1761   -3.1738 C   0  0  0  0  0  0  0  0  0  0  0  0
    5.7652    2.5133   -4.2506 C   0  0  0  0  0  0  0  0  0  0  0  0
    8.0784    2.4255   -3.1709 C   0  0  0  0  0  0  0  0  0  0  0  0
    8.8946    3.0998   -4.2413 C   0  0  1  0  0  0  0  0  0  0  0  0
   10.6165    3.1661   -3.7229 Cl  0  0  0  0  0  0  0  0  0  0  0  0
    8.8135    2.1906   -5.8046 Cl  0  0  0  0  0  0  0  0  0  0  0  0
    8.3288    4.7955   -4.5300 Cl  0  0  0  0  0  0  0  0  0  0  0  0
    2.1827    1.2887    3.2548 H   0  0  0  0  0  0  0  0  0  0  0  0
    2.0382    2.5976    2.0588 H   0  0  0  0  0  0  0  0  0  0  0  0
    3.5832    2.3242    2.8941 H   0  0  0  0  0  0  0  0  0  0  0  0
    2.2536    0.3334    0.9370 H   0  0  0  0  0  0  0  0  0  0  0  0
    3.7865    0.0639    1.7663 H   0  0  0  0  0  0  0  0  0  0  0  0
    4.7881    2.0482    0.5850 H   0  0  0  0  0  0  0  0  0  0  0  0
    3.2495    2.3309   -0.2515 H   0  0  0  0  0  0  0  0  0  0  0  0
    3.4294    0.0670   -1.3359 H   0  0  0  0  0  0  0  0  0  0  0  0
    4.9991   -0.1850   -0.5070 H   0  0  0  0  0  0  0  0  0  0  0  0
    4.9641    3.1488   -3.8410 H   0  0  0  0  0  0  0  0  0  0  0  0
    5.2743    1.5959   -4.6127 H   0  0  0  0  0  0  0  0  0  0  0  0
    6.2272    3.0272   -5.0995 H   0  0  0  0  0  0  0  0  0  0  0  0
    8.6461    2.1067   -2.2937 H   0  0  0  0  0  0  0  0  0  0  0  0
  1  2  1  0
  1 15  1  0
  1 16  1  0
  1 17  1  0
  2  3  1  0
  2 18  1  0
  2 19  1  0
  3  4  1  0
  3 20  1  0
  3 21  1  0
  4  5  1  0
  4 22  1  0
  4 23  1  0
  5  6  1  0
  6  7  2  0
  6  8  1  0
  8  9  1  0
  8 10  2  0
  9 24  1  0
  9 25  1  0
  9 26  1  0
 10 11  1  0
 10 27  1  0
 11 12  1  1
 11 13  1  0
 11 14  1  0
M  END

