
     RDKit          3D

 39 41  0  0  0  0  0  0  0  0999 V2000
    1.0647   -0.5255    0.6667 C   0  0  0  0  0  0  0  0  0  0  0  0
    2.3895   -0.3030    0.2476 O   0  0  0  0  0  0  0  0  0  0  0  0
    2.9087   -1.2606   -0.6554 C   0  0  1  0  0  0  0  0  0  0  0  0
    2.2893   -1.0774   -2.0208 C   0  0  0  0  0  0  0  0  0  0  0  0
    1.4680   -1.9580   -2.5350 N   0  0  0  0  0  0  0  0  0  0  0  0
    1.1218   -1.3990   -3.7648 O   0  0  0  0  0  0  0  0  0  0  0  0
    1.7695   -0.2281   -3.8569 C   0  0  0  0  0  0  0  0  0  0  0  0
    1.5184    0.6063   -5.0932 C   0  0  2  0  0  0  0  0  0  0  0  0
    2.7399    1.2773   -5.5271 N   0  0  0  0  0  0  0  0  0  0  0  0
    2.9958    2.5559   -4.8672 C   0  0  0  0  0  0  0  0  0  0  0  0
    1.8700    3.5906   -5.0676 C   0  0  0  0  0  0  0  0  0  0  0  0
    0.5452    2.9189   -4.8433 C   0  0  0  0  0  0  0  0  0  0  0  0
   -0.9507    3.7585   -4.5555 S   0  0  0  0  0  0  0  0  0  0  0  0
   -1.8294    2.2683   -4.4322 C   0  0  0  0  0  0  0  0  0  0  0  0
   -1.0121    1.1831   -4.6051 C   0  0  0  0  0  0  0  0  0  0  0  0
    0.3498    1.5571   -4.8501 C   0  0  0  0  0  0  0  0  0  0  0  0
    2.4990    0.0270   -2.8148 N   0  0  0  0  0  0  0  0  0  0  0  0
    4.4417   -1.1128   -0.6820 C   0  0  1  0  0  0  0  0  0  0  0  0
    5.0230   -1.2797    0.7261 C   0  0  0  0  0  0  0  0  0  0  0  0
    5.0837   -2.0901   -1.6736 C   0  0  0  0  0  0  0  0  0  0  0  0
    0.8062    0.2791    1.3702 H   0  0  0  0  0  0  0  0  0  0  0  0
    0.9561   -1.4995    1.1840 H   0  0  0  0  0  0  0  0  0  0  0  0
    0.3442   -0.5046   -0.1726 H   0  0  0  0  0  0  0  0  0  0  0  0
    2.6453   -2.2843   -0.3198 H   0  0  0  0  0  0  0  0  0  0  0  0
    1.2303   -0.1125   -5.8772 H   0  0  0  0  0  0  0  0  0  0  0  0
    2.7083    1.3994   -6.5375 H   0  0  0  0  0  0  0  0  0  0  0  0
    3.9508    2.9550   -5.2435 H   0  0  0  0  0  0  0  0  0  0  0  0
    3.1289    2.3564   -3.7931 H   0  0  0  0  0  0  0  0  0  0  0  0
    1.9163    4.0110   -6.0904 H   0  0  0  0  0  0  0  0  0  0  0  0
    2.0078    4.4409   -4.3785 H   0  0  0  0  0  0  0  0  0  0  0  0
   -2.9009    2.2805   -4.2380 H   0  0  0  0  0  0  0  0  0  0  0  0
   -1.3620    0.1499   -4.5606 H   0  0  0  0  0  0  0  0  0  0  0  0
    4.6400   -0.0824   -1.0250 H   0  0  0  0  0  0  0  0  0  0  0  0
    4.8546   -2.3032    1.1043 H   0  0  0  0  0  0  0  0  0  0  0  0
    4.5596   -0.5757    1.4304 H   0  0  0  0  0  0  0  0  0  0  0  0
    6.1103   -1.1021    0.7200 H   0  0  0  0  0  0  0  0  0  0  0  0
    4.8554   -3.1369   -1.4090 H   0  0  0  0  0  0  0  0  0  0  0  0
    6.1793   -1.9784   -1.6655 H   0  0  0  0  0  0  0  0  0  0  0  0
    4.7436   -1.9206   -2.7065 H   0  0  0  0  0  0  0  0  0  0  0  0
  1  2  1  0
  1 21  1  0
  1 22  1  0
  1 23  1  0
  2  3  1  0
  3  4  1  0
  3 18  1  0
  3 24  1  1
  4  5  2  0
  4 17  1  0
  5  6  1  0
  6  7  1  0
  7  8  1  0
  7 17  2  0
  8  9  1  0
  8 16  1  0
  8 25  1  6
  9 10  1  0
  9 26  1  0
 10 11  1  0
 10 27  1  0
 10 28  1  0
 11 12  1  0
 11 29  1  0
 11 30  1  0
 12 13  1  0
 12 16  2  0
 13 14  1  0
 14 15  2  0
 14 31  1  0
 15 16  1  0
 15 32  1  0
 18 19  1  0
 18 20  1  0
 18 33  1  6
 19 34  1  0
 19 35  1  0
 19 36  1  0
 20 37  1  0
 20 38  1  0
 20 39  1  0
M  END

