
     RDKit          3D

 40 42  0  0  0  0  0  0  0  0999 V2000
    0.7888    1.0272    0.2815 C   0  0  0  0  0  0  0  0  0  0  0  0
    2.1736    0.8507   -0.3120 C   0  0  0  0  0  0  0  0  0  0  0  0
    2.9261    2.0183   -0.0280 O   0  0  0  0  0  0  0  0  0  0  0  0
    4.2130    2.1101   -0.4481 C   0  0  0  0  0  0  0  0  0  0  0  0
    4.8938    3.2976   -0.1240 C   0  0  0  0  0  0  0  0  0  0  0  0
    6.2127    3.4874   -0.5080 C   0  0  0  0  0  0  0  0  0  0  0  0
    6.9241    2.4947   -1.2304 C   0  0  0  0  0  0  0  0  0  0  0  0
    8.3158    2.7012   -1.6343 C   0  0  0  0  0  0  0  0  0  0  0  0
    9.3104    1.7420   -1.9856 C   0  0  0  0  0  0  0  0  0  0  0  0
    9.2127    0.0199   -1.9004 Cl  0  0  0  0  0  0  0  0  0  0  0  0
   10.5416    2.3220   -2.3658 C   0  0  0  0  0  0  0  0  0  0  0  0
   11.6073    1.8290   -2.7050 O   0  0  0  0  0  0  0  0  0  0  0  0
   10.2977    3.7929   -2.2518 N   0  0  0  0  0  0  0  0  0  0  0  0
   11.1934    4.7644   -2.5429 C   0  0  0  0  0  0  0  0  0  0  0  0
   12.5082    4.4386   -3.0533 C   0  0  0  0  0  0  0  0  0  0  0  0
   13.4106    5.4342   -3.3512 C   0  0  0  0  0  0  0  0  0  0  0  0
   13.1016    6.8057   -3.1746 C   0  0  0  0  0  0  0  0  0  0  0  0
   14.0838    7.8841   -3.5007 C   0  0  0  0  0  0  0  0  0  0  0  0
   11.8115    7.1305   -2.6718 C   0  0  0  0  0  0  0  0  0  0  0  0
   10.8830    6.1664   -2.3626 C   0  0  0  0  0  0  0  0  0  0  0  0
    8.8983    4.0016   -1.7688 C   0  0  0  0  0  0  0  0  0  0  0  0
    8.4361    5.1159   -1.5667 O   0  0  0  0  0  0  0  0  0  0  0  0
    6.2202    1.3150   -1.5520 C   0  0  0  0  0  0  0  0  0  0  0  0
    4.8910    1.1184   -1.1727 C   0  0  0  0  0  0  0  0  0  0  0  0
    0.1715    0.1377    0.0812 H   0  0  0  0  0  0  0  0  0  0  0  0
    0.2882    1.9051   -0.1549 H   0  0  0  0  0  0  0  0  0  0  0  0
    0.8488    1.1726    1.3709 H   0  0  0  0  0  0  0  0  0  0  0  0
    2.1134    0.6947   -1.4060 H   0  0  0  0  0  0  0  0  0  0  0  0
    2.6742   -0.0372    0.1191 H   0  0  0  0  0  0  0  0  0  0  0  0
    4.3564    4.0644    0.4381 H   0  0  0  0  0  0  0  0  0  0  0  0
    6.7131    4.4205   -0.2549 H   0  0  0  0  0  0  0  0  0  0  0  0
   12.7544    3.3892   -3.1876 H   0  0  0  0  0  0  0  0  0  0  0  0
   14.3951    5.1574   -3.7358 H   0  0  0  0  0  0  0  0  0  0  0  0
   15.0387    7.4809   -3.8638 H   0  0  0  0  0  0  0  0  0  0  0  0
   14.2824    8.5119   -2.6144 H   0  0  0  0  0  0  0  0  0  0  0  0
   13.6755    8.5623   -4.2708 H   0  0  0  0  0  0  0  0  0  0  0  0
   11.5498    8.1817   -2.5253 H   0  0  0  0  0  0  0  0  0  0  0  0
    9.9012    6.4264   -1.9799 H   0  0  0  0  0  0  0  0  0  0  0  0
    6.7146    0.5306   -2.1226 H   0  0  0  0  0  0  0  0  0  0  0  0
    4.3960    0.1889   -1.4545 H   0  0  0  0  0  0  0  0  0  0  0  0
  1  2  1  0
  1 25  1  0
  1 26  1  0
  1 27  1  0
  2  3  1  0
  2 28  1  0
  2 29  1  0
  3  4  1  0
  4  5  2  0
  4 24  1  0
  5  6  1  0
  5 30  1  0
  6  7  2  0
  6 31  1  0
  7  8  1  0
  7 23  1  0
  8  9  2  0
  8 21  1  0
  9 10  1  0
  9 11  1  0
 11 12  2  0
 11 13  1  0
 13 14  1  0
 13 21  1  0
 14 15  2  0
 14 20  1  0
 15 16  1  0
 15 32  1  0
 16 17  2  0
 16 33  1  0
 17 18  1  0
 17 19  1  0
 18 34  1  0
 18 35  1  0
 18 36  1  0
 19 20  2  0
 19 37  1  0
 20 38  1  0
 21 22  2  0
 23 24  2  0
 23 39  1  0
 24 40  1  0
M  END

