
     RDKit          3D

 49 49  0  0  0  0  0  0  0  0999 V2000
    0.8283    1.2539    0.8019 C   0  0  0  0  0  0  0  0  0  0  0  0
    2.3559    1.1582    0.8101 C   0  0  0  0  0  0  0  0  0  0  0  0
    2.9034    0.5451    2.1054 C   0  0  0  0  0  0  0  0  0  0  0  0
    4.4398    0.3819    2.2271 C   0  0  1  0  0  0  0  0  0  0  0  0
    4.9806   -0.5660    1.1445 C   0  0  0  0  0  0  0  0  0  0  0  0
    5.1742    1.7364    2.0907 C   0  0  0  0  0  0  0  0  0  0  0  0
    4.7418    2.7280    3.0743 N   0  0  0  0  0  0  0  0  0  0  0  0
    4.7199   -0.2171    3.6345 C   0  0  0  0  0  0  0  0  0  0  0  0
    6.1289   -0.4106    3.9490 N   0  0  0  0  0  0  0  0  0  0  0  0
    6.6487    0.3091    5.1034 C   0  0  0  0  0  0  0  0  0  0  0  0
    8.0936   -0.1933    5.2097 C   0  0  0  0  0  0  0  0  0  0  0  0
    8.0769   -1.6387    4.5976 C   0  0  2  0  0  0  0  0  0  0  0  0
    8.4148   -2.6912    5.6784 C   0  0  0  0  0  0  0  0  0  0  0  0
    8.3477   -4.1552    5.2354 C   0  0  0  0  0  0  0  0  0  0  0  0
    9.0228   -1.7267    3.3731 C   0  0  0  0  0  0  0  0  0  0  0  0
   10.5159   -1.5398    3.6529 C   0  0  0  0  0  0  0  0  0  0  0  0
    6.6030   -1.7759    4.1138 C   0  0  0  0  0  0  0  0  0  0  0  0
    0.4544    1.7005   -0.1335 H   0  0  0  0  0  0  0  0  0  0  0  0
    0.4590    1.8725    1.6373 H   0  0  0  0  0  0  0  0  0  0  0  0
    0.3645    0.2583    0.9037 H   0  0  0  0  0  0  0  0  0  0  0  0
    2.7813    2.1663    0.6580 H   0  0  0  0  0  0  0  0  0  0  0  0
    2.6846    0.5624   -0.0584 H   0  0  0  0  0  0  0  0  0  0  0  0
    2.4414   -0.4501    2.2441 H   0  0  0  0  0  0  0  0  0  0  0  0
    2.5476    1.1494    2.9600 H   0  0  0  0  0  0  0  0  0  0  0  0
    4.8538   -0.1515    0.1319 H   0  0  0  0  0  0  0  0  0  0  0  0
    4.4642   -1.5401    1.1750 H   0  0  0  0  0  0  0  0  0  0  0  0
    6.0559   -0.7458    1.2962 H   0  0  0  0  0  0  0  0  0  0  0  0
    5.0863    2.0837    1.0394 H   0  0  0  0  0  0  0  0  0  0  0  0
    6.2440    1.5371    2.2622 H   0  0  0  0  0  0  0  0  0  0  0  0
    3.8228    3.1027    2.8381 H   0  0  0  0  0  0  0  0  0  0  0  0
    5.3779    3.5246    3.0748 H   0  0  0  0  0  0  0  0  0  0  0  0
    4.1753   -1.1778    3.7165 H   0  0  0  0  0  0  0  0  0  0  0  0
    4.2729    0.4627    4.3782 H   0  0  0  0  0  0  0  0  0  0  0  0
    6.0806    0.0585    6.0310 H   0  0  0  0  0  0  0  0  0  0  0  0
    6.5623    1.3971    4.9602 H   0  0  0  0  0  0  0  0  0  0  0  0
    8.4575   -0.1849    6.2486 H   0  0  0  0  0  0  0  0  0  0  0  0
    8.7611    0.4614    4.6290 H   0  0  0  0  0  0  0  0  0  0  0  0
    7.7214   -2.5404    6.5249 H   0  0  0  0  0  0  0  0  0  0  0  0
    9.4206   -2.4803    6.0815 H   0  0  0  0  0  0  0  0  0  0  0  0
    7.3558   -4.4169    4.8316 H   0  0  0  0  0  0  0  0  0  0  0  0
    8.5422   -4.8295    6.0851 H   0  0  0  0  0  0  0  0  0  0  0  0
    9.0928   -4.3879    4.4582 H   0  0  0  0  0  0  0  0  0  0  0  0
    8.6876   -0.9641    2.6493 H   0  0  0  0  0  0  0  0  0  0  0  0
    8.8730   -2.6988    2.8721 H   0  0  0  0  0  0  0  0  0  0  0  0
   10.7259   -0.5841    4.1607 H   0  0  0  0  0  0  0  0  0  0  0  0
   11.0906   -1.5422    2.7127 H   0  0  0  0  0  0  0  0  0  0  0  0
   10.9240   -2.3448    4.2850 H   0  0  0  0  0  0  0  0  0  0  0  0
    6.0008   -2.3214    4.8790 H   0  0  0  0  0  0  0  0  0  0  0  0
    6.5152   -2.3435    3.1738 H   0  0  0  0  0  0  0  0  0  0  0  0
  1  2  1  0
  1 18  1  0
  1 19  1  0
  1 20  1  0
  2  3  1  0
  2 21  1  0
  2 22  1  0
  4  3  1  6
  3 23  1  0
  3 24  1  0
  4  5  1  0
  4  6  1  0
  4  8  1  0
  5 25  1  0
  5 26  1  0
  5 27  1  0
  6  7  1  0
  6 28  1  0
  6 29  1  0
  7 30  1  0
  7 31  1  0
  8  9  1  0
  8 32  1  0
  8 33  1  0
  9 10  1  0
  9 17  1  0
 10 11  1  0
 10 34  1  0
 10 35  1  0
 11 12  1  0
 11 36  1  0
 11 37  1  0
 12 13  1  1
 12 15  1  0
 12 17  1  0
 13 14  1  0
 13 38  1  0
 13 39  1  0
 14 40  1  0
 14 41  1  0
 14 42  1  0
 15 16  1  0
 15 43  1  0
 15 44  1  0
 16 45  1  0
 16 46  1  0
 16 47  1  0
 17 48  1  0
 17 49  1  0
M  END

