
     RDKit          3D

 58 63  0  0  0  0  0  0  0  0999 V2000
    3.5918    0.1162   -0.4574 C   0  0  0  0  0  0  0  0  0  0  0  0
    3.7899   -1.3512   -0.0443 C   0  0  0  0  0  0  0  0  0  0  0  0
    3.0523   -1.7214    1.2281 C   0  0  0  0  0  0  0  0  0  0  0  0
    3.6421   -1.4315    2.4707 C   0  0  0  0  0  0  0  0  0  0  0  0
    2.9947   -1.7071    3.6755 C   0  0  0  0  0  0  0  0  0  0  0  0
    1.7241   -2.2886    3.6585 C   0  0  0  0  0  0  0  0  0  0  0  0
    1.1216   -2.5868    2.4357 C   0  0  0  0  0  0  0  0  0  0  0  0
    1.7661   -2.3135    1.2144 C   0  0  0  0  0  0  0  0  0  0  0  0
    1.0670   -2.6723   -0.0600 C   0  0  0  0  0  0  0  0  0  0  0  0
    0.0639   -1.7964   -0.5875 C   0  0  0  0  0  0  0  0  0  0  0  0
   -0.2732   -0.5737    0.0505 C   0  0  0  0  0  0  0  0  0  0  0  0
   -1.2508    0.2774   -0.4653 C   0  0  0  0  0  0  0  0  0  0  0  0
   -1.9245   -0.0664   -1.6442 C   0  0  0  0  0  0  0  0  0  0  0  0
   -1.6122   -1.2605   -2.2997 C   0  0  0  0  0  0  0  0  0  0  0  0
   -0.6303   -2.1425   -1.8036 C   0  0  0  0  0  0  0  0  0  0  0  0
   -0.3019   -3.3776   -2.4831 C   0  0  0  0  0  0  0  0  0  0  0  0
   -0.9698   -3.7140   -3.6732 C   0  0  0  0  0  0  0  0  0  0  0  0
   -1.5549   -4.0056   -4.7134 C   0  0  0  0  0  0  0  0  0  0  0  0
   -2.2304   -4.3424   -5.9146 C   0  0  0  0  0  0  0  0  0  0  0  0
   -1.9297   -5.5430   -6.6048 C   0  0  0  0  0  0  0  0  0  0  0  0
   -2.5960   -5.8680   -7.7835 C   0  0  0  0  0  0  0  0  0  0  0  0
   -3.5742   -5.0117   -8.3045 C   0  0  0  0  0  0  0  0  0  0  0  0
   -3.8822   -3.8215   -7.6334 C   0  0  0  0  0  0  0  0  0  0  0  0
   -3.2225   -3.4860   -6.4540 C   0  0  0  0  0  0  0  0  0  0  0  0
    0.6980   -4.2604   -1.9448 C   0  0  0  0  0  0  0  0  0  0  0  0
    1.0344   -5.4675   -2.5704 C   0  0  0  0  0  0  0  0  0  0  0  0
    2.0079   -6.3622   -2.0543 C   0  0  0  0  0  0  0  0  0  0  0  0
    2.3417   -7.5790   -2.6931 C   0  0  0  0  0  0  0  0  0  0  0  0
    3.3011   -8.4342   -2.1516 C   0  0  0  0  0  0  0  0  0  0  0  0
    3.9542   -8.0952   -0.9520 C   0  0  0  0  0  0  0  0  0  0  0  0
    3.6462   -6.9034   -0.2997 C   0  0  0  0  0  0  0  0  0  0  0  0
    2.6770   -6.0133   -0.8266 C   0  0  0  0  0  0  0  0  0  0  0  0
    2.3378   -4.7937   -0.1947 C   0  0  0  0  0  0  0  0  0  0  0  0
    1.3779   -3.8982   -0.7130 C   0  0  0  0  0  0  0  0  0  0  0  0
    4.1549    0.3435   -1.3770 H   0  0  0  0  0  0  0  0  0  0  0  0
    3.9400    0.8034    0.3308 H   0  0  0  0  0  0  0  0  0  0  0  0
    2.5303    0.3373   -0.6480 H   0  0  0  0  0  0  0  0  0  0  0  0
    4.8668   -1.5399    0.1041 H   0  0  0  0  0  0  0  0  0  0  0  0
    3.4713   -2.0056   -0.8690 H   0  0  0  0  0  0  0  0  0  0  0  0
    4.6386   -0.9792    2.4870 H   0  0  0  0  0  0  0  0  0  0  0  0
    3.4824   -1.4720    4.6251 H   0  0  0  0  0  0  0  0  0  0  0  0
    1.2049   -2.5149    4.5934 H   0  0  0  0  0  0  0  0  0  0  0  0
    0.1304   -3.0471    2.4157 H   0  0  0  0  0  0  0  0  0  0  0  0
    0.2474   -0.2982    0.9683 H   0  0  0  0  0  0  0  0  0  0  0  0
   -1.4860    1.2100    0.0534 H   0  0  0  0  0  0  0  0  0  0  0  0
   -2.6916    0.5940   -2.0557 H   0  0  0  0  0  0  0  0  0  0  0  0
   -2.1355   -1.5263   -3.2194 H   0  0  0  0  0  0  0  0  0  0  0  0
   -1.1674   -6.2117   -6.1997 H   0  0  0  0  0  0  0  0  0  0  0  0
   -2.3517   -6.7983   -8.3028 H   0  0  0  0  0  0  0  0  0  0  0  0
   -4.0946   -5.2709   -9.2298 H   0  0  0  0  0  0  0  0  0  0  0  0
   -4.6447   -3.1493   -8.0353 H   0  0  0  0  0  0  0  0  0  0  0  0
   -3.4636   -2.5576   -5.9321 H   0  0  0  0  0  0  0  0  0  0  0  0
    0.5232   -5.7359   -3.4969 H   0  0  0  0  0  0  0  0  0  0  0  0
    1.8337   -7.8444   -3.6243 H   0  0  0  0  0  0  0  0  0  0  0  0
    3.5452   -9.3702   -2.6600 H   0  0  0  0  0  0  0  0  0  0  0  0
    4.7045   -8.7686   -0.5305 H   0  0  0  0  0  0  0  0  0  0  0  0
    4.1535   -6.6402    0.6325 H   0  0  0  0  0  0  0  0  0  0  0  0
    2.8424   -4.5397    0.7390 H   0  0  0  0  0  0  0  0  0  0  0  0
  1  2  1  0
  1 35  1  0
  1 36  1  0
  1 37  1  0
  2  3  1  0
  2 38  1  0
  2 39  1  0
  3  4  2  0
  3  8  1  0
  4  5  1  0
  4 40  1  0
  5  6  2  0
  5 41  1  0
  6  7  1  0
  6 42  1  0
  7  8  2  0
  7 43  1  0
  8  9  1  0
  9 10  1  0
  9 34  2  0
 10 11  2  0
 10 15  1  0
 11 12  1  0
 11 44  1  0
 12 13  2  0
 12 45  1  0
 13 14  1  0
 13 46  1  0
 14 15  2  0
 14 47  1  0
 15 16  1  0
 16 17  1  0
 16 25  2  0
 17 18  3  0
 18 19  1  0
 19 20  2  0
 19 24  1  0
 20 21  1  0
 20 48  1  0
 21 22  2  0
 21 49  1  0
 22 23  1  0
 22 50  1  0
 23 24  2  0
 23 51  1  0
 24 52  1  0
 25 26  1  0
 25 34  1  0
 26 27  2  0
 26 53  1  0
 27 28  1  0
 27 32  1  0
 28 29  2  0
 28 54  1  0
 29 30  1  0
 29 55  1  0
 30 31  2  0
 30 56  1  0
 31 32  1  0
 31 57  1  0
 32 33  2  0
 33 34  1  0
 33 58  1  0
M  END

