
     RDKit          3D

 44 46  0  0  0  0  0  0  0  0999 V2000
    2.0392    2.0045    2.6950 O   0  0  0  0  0  0  0  0  0  0  0  0
    3.0368    1.6386    2.1307 C   0  0  0  0  0  0  0  0  0  0  0  0
    4.0140    1.0029    2.8161 O   0  0  0  0  0  0  0  0  0  0  0  0
    3.2709    1.8379    0.6575 C   0  0  0  0  0  0  0  0  0  0  0  0
    2.1635    2.1552   -0.1428 C   0  0  0  0  0  0  0  0  0  0  0  0
    2.3323    2.3462   -1.5137 C   0  0  0  0  0  0  0  0  0  0  0  0
    3.6025    2.2398   -2.0888 C   0  0  0  0  0  0  0  0  0  0  0  0
    4.7264    1.9518   -1.3010 C   0  0  0  0  0  0  0  0  0  0  0  0
    6.1117    1.9032   -1.9171 C   0  0  0  0  0  0  0  0  0  0  0  0
    7.0245    1.0543   -1.1733 N   0  0  0  0  0  0  0  0  0  0  0  0
    8.3884    1.0376   -1.6470 C   0  0  1  0  0  0  0  0  0  0  0  0
    9.3104    2.1554   -1.1379 C   0  0  0  0  0  0  0  0  0  0  0  0
   10.7072    1.5077   -1.1474 C   0  0  0  0  0  0  0  0  0  0  0  0
   10.4139    0.0806   -0.9549 N   0  0  0  0  0  0  0  0  0  0  0  0
   11.3932   -0.8841   -0.5805 C   0  0  0  0  0  0  0  0  0  0  0  0
   11.6065   -1.1471    0.7769 C   0  0  0  0  0  0  0  0  0  0  0  0
   12.5528   -2.0908    1.1820 C   0  0  0  0  0  0  0  0  0  0  0  0
   13.2954   -2.7842    0.2253 C   0  0  0  0  0  0  0  0  0  0  0  0
   13.0879   -2.5335   -1.1329 C   0  0  0  0  0  0  0  0  0  0  0  0
   12.1414   -1.5895   -1.5458 C   0  0  0  0  0  0  0  0  0  0  0  0
   11.9457   -1.3326   -3.0250 C   0  0  1  0  0  0  0  0  0  0  0  0
   12.2964   -0.0697   -3.3609 F   0  0  0  0  0  0  0  0  0  0  0  0
   12.6956   -2.1532   -3.7767 F   0  0  0  0  0  0  0  0  0  0  0  0
   10.6698   -1.4958   -3.4120 F   0  0  0  0  0  0  0  0  0  0  0  0
    9.0897   -0.2348   -1.1544 C   0  0  0  0  0  0  0  0  0  0  0  0
    8.5609   -1.3115   -0.9829 O   0  0  0  0  0  0  0  0  0  0  0  0
    4.5436    1.7502    0.0733 C   0  0  0  0  0  0  0  0  0  0  0  0
    4.6888    0.6678    2.2089 H   0  0  0  0  0  0  0  0  0  0  0  0
    1.1835    2.2386    0.3303 H   0  0  0  0  0  0  0  0  0  0  0  0
    1.4688    2.5758   -2.1430 H   0  0  0  0  0  0  0  0  0  0  0  0
    3.7232    2.3845   -3.1666 H   0  0  0  0  0  0  0  0  0  0  0  0
    6.5263    2.9288   -1.9259 H   0  0  0  0  0  0  0  0  0  0  0  0
    6.0201    1.6129   -2.9876 H   0  0  0  0  0  0  0  0  0  0  0  0
    6.6910    0.0876   -1.1528 H   0  0  0  0  0  0  0  0  0  0  0  0
    8.4504    0.9934   -2.7608 H   0  0  0  0  0  0  0  0  0  0  0  0
    9.0072    2.4031   -0.1084 H   0  0  0  0  0  0  0  0  0  0  0  0
    9.2788    3.0745   -1.7403 H   0  0  0  0  0  0  0  0  0  0  0  0
   11.3535    1.8798   -0.3368 H   0  0  0  0  0  0  0  0  0  0  0  0
   11.2371    1.6710   -2.1003 H   0  0  0  0  0  0  0  0  0  0  0  0
   11.0101   -0.6043    1.5130 H   0  0  0  0  0  0  0  0  0  0  0  0
   12.7040   -2.2868    2.2462 H   0  0  0  0  0  0  0  0  0  0  0  0
   14.0359   -3.5262    0.5323 H   0  0  0  0  0  0  0  0  0  0  0  0
   13.6612   -3.0773   -1.8842 H   0  0  0  0  0  0  0  0  0  0  0  0
    5.4377    1.5408    0.6666 H   0  0  0  0  0  0  0  0  0  0  0  0
  1  2  2  0
  2  3  1  0
  2  4  1  0
  3 28  1  0
  4  5  2  0
  4 27  1  0
  5  6  1  0
  5 29  1  0
  6  7  2  0
  6 30  1  0
  7  8  1  0
  7 31  1  0
  8  9  1  0
  8 27  2  0
  9 10  1  0
  9 32  1  0
  9 33  1  0
 10 11  1  0
 10 34  1  0
 11 12  1  0
 11 25  1  0
 11 35  1  6
 12 13  1  0
 12 36  1  0
 12 37  1  0
 13 14  1  0
 13 38  1  0
 13 39  1  0
 14 15  1  0
 14 25  1  0
 15 16  2  0
 15 20  1  0
 16 17  1  0
 16 40  1  0
 17 18  2  0
 17 41  1  0
 18 19  1  0
 18 42  1  0
 19 20  2  0
 19 43  1  0
 20 21  1  0
 21 22  1  1
 21 23  1  0
 21 24  1  0
 25 26  2  0
 27 44  1  0
M  END

