
     RDKit          3D

 45 48  0  0  0  0  0  0  0  0999 V2000
   11.1244   -4.4159   11.1292 F   0  0  0  0  0  0  0  0  0  0  0  0
    9.8561   -4.1367   10.8145 C   0  0  1  0  0  0  0  0  0  0  0  0
    9.0675   -4.9339   11.5412 F   0  0  0  0  0  0  0  0  0  0  0  0
    9.6018   -2.8797   11.1265 F   0  0  0  0  0  0  0  0  0  0  0  0
    9.6230   -4.2750    9.4762 O   0  0  0  0  0  0  0  0  0  0  0  0
    9.7889   -5.4577    8.8051 C   0  0  0  0  0  0  0  0  0  0  0  0
   10.2073   -6.6685    9.3997 C   0  0  0  0  0  0  0  0  0  0  0  0
   10.3370   -7.7939    8.6041 C   0  0  0  0  0  0  0  0  0  0  0  0
   10.0655   -7.7786    7.2006 C   0  0  0  0  0  0  0  0  0  0  0  0
   10.2022   -8.9620    6.3753 C   0  0  0  0  0  0  0  0  0  0  0  0
   10.3501  -10.2459    6.9703 C   0  0  0  0  0  0  0  0  0  0  0  0
   10.4778  -11.4232    6.1934 C   0  0  0  0  0  0  0  0  0  0  0  0
   10.4713  -11.2502    4.8027 C   0  0  0  0  0  0  0  0  0  0  0  0
   10.5936  -12.2042    3.8822 O   0  0  0  0  0  0  0  0  0  0  0  0
   10.5447  -11.6293    2.5656 N   0  0  0  0  0  0  0  0  0  0  0  0
   10.3936  -10.3278    2.7850 C   0  0  0  0  0  0  0  0  0  0  0  0
   10.3052   -9.4418    1.7836 O   0  0  0  0  0  0  0  0  0  0  0  0
   10.3762   -9.9573    0.4485 C   0  0  0  0  0  0  0  0  0  0  0  0
   10.2779   -8.7791   -0.5020 C   0  0  2  0  0  0  0  0  0  0  0  0
    9.3105   -8.2610   -0.3075 H   0  0  0  0  0  0  0  0  0  0  0  0
   10.2566   -9.2404   -1.9640 C   0  0  0  0  0  0  0  0  0  0  0  0
   10.2288   -8.1393   -2.8477 O   0  0  0  0  0  0  0  0  0  0  0  0
   11.3350   -7.2755   -2.6630 C   0  0  0  0  0  0  0  0  0  0  0  0
   11.3837   -6.7520   -1.2308 C   0  0  0  0  0  0  0  0  0  0  0  0
   11.4190   -7.8891   -0.3222 N   0  0  0  0  0  0  0  0  0  0  0  0
   10.3332   -9.9862    4.1656 C   0  0  0  0  0  0  0  0  0  0  0  0
   10.1807   -8.8166    4.9408 C   0  0  0  0  0  0  0  0  0  0  0  0
    9.6509   -6.5246    6.6416 C   0  0  0  0  0  0  0  0  0  0  0  0
    9.5109   -5.3948    7.4279 C   0  0  0  0  0  0  0  0  0  0  0  0
   10.4332   -6.7292   10.4627 H   0  0  0  0  0  0  0  0  0  0  0  0
   10.6852   -8.7143    9.0694 H   0  0  0  0  0  0  0  0  0  0  0  0
   10.3066  -10.3503    8.0531 H   0  0  0  0  0  0  0  0  0  0  0  0
   10.5722  -12.4111    6.6422 H   0  0  0  0  0  0  0  0  0  0  0  0
    9.5537  -10.6750    0.2888 H   0  0  0  0  0  0  0  0  0  0  0  0
   11.3298  -10.4941    0.3150 H   0  0  0  0  0  0  0  0  0  0  0  0
    9.3555   -9.8383   -2.1708 H   0  0  0  0  0  0  0  0  0  0  0  0
   11.1500   -9.8699   -2.1577 H   0  0  0  0  0  0  0  0  0  0  0  0
   11.2192   -6.4507   -3.3828 H   0  0  0  0  0  0  0  0  0  0  0  0
   12.2808   -7.8102   -2.8869 H   0  0  0  0  0  0  0  0  0  0  0  0
   10.5010   -6.0924   -1.0689 H   0  0  0  0  0  0  0  0  0  0  0  0
   12.2895   -6.1389   -1.0899 H   0  0  0  0  0  0  0  0  0  0  0  0
   11.4780   -7.5940    0.6504 H   0  0  0  0  0  0  0  0  0  0  0  0
   10.1405   -7.8426    4.4600 H   0  0  0  0  0  0  0  0  0  0  0  0
    9.4021   -6.4629    5.5845 H   0  0  0  0  0  0  0  0  0  0  0  0
    9.1858   -4.4429    7.0050 H   0  0  0  0  0  0  0  0  0  0  0  0
  2  1  1  6
  2  3  1  0
  2  4  1  0
  2  5  1  0
  5  6  1  0
  6  7  2  0
  6 29  1  0
  7  8  1  0
  7 30  1  0
  8  9  2  0
  8 31  1  0
  9 10  1  0
  9 28  1  0
 10 11  2  0
 10 27  1  0
 11 12  1  0
 11 32  1  0
 12 13  2  0
 12 33  1  0
 13 14  1  0
 13 26  1  0
 14 15  1  0
 15 16  2  0
 16 17  1  0
 16 26  1  0
 17 18  1  0
 18 19  1  0
 18 34  1  0
 18 35  1  0
 19 20  1  6
 19 21  1  0
 19 25  1  0
 21 22  1  0
 21 36  1  0
 21 37  1  0
 22 23  1  0
 23 24  1  0
 23 38  1  0
 23 39  1  0
 24 25  1  0
 24 40  1  0
 24 41  1  0
 25 42  1  0
 26 27  2  0
 27 43  1  0
 28 29  2  0
 28 44  1  0
 29 45  1  0
M  END

