
     RDKit          3D

 47 48  0  0  0  0  0  0  0  0999 V2000
    3.6870    0.3231   -1.3572 N   0  0  0  0  0  0  0  0  0  0  0  0
    4.1907   -0.3982   -0.5974 C   0  0  0  0  0  0  0  0  0  0  0  0
    4.8057   -1.2948    0.3317 C   0  0  0  0  0  0  0  0  0  0  0  0
    4.6546   -2.6522    0.3265 C   0  0  0  0  0  0  0  0  0  0  0  0
    3.9002   -3.5498   -0.5287 C   0  0  0  0  0  0  0  0  0  0  0  0
    3.9875   -4.9294   -0.2375 C   0  0  0  0  0  0  0  0  0  0  0  0
    3.2996   -5.8696   -1.0025 C   0  0  0  0  0  0  0  0  0  0  0  0
    2.5104   -5.4483   -2.0725 C   0  0  0  0  0  0  0  0  0  0  0  0
    1.7975   -6.2765   -2.8829 O   0  0  0  0  0  0  0  0  0  0  0  0
    2.4059   -4.0710   -2.3838 C   0  0  0  0  0  0  0  0  0  0  0  0
    1.6384   -3.6712   -3.4213 O   0  0  0  0  0  0  0  0  0  0  0  0
    3.0948   -3.1384   -1.6185 C   0  0  0  0  0  0  0  0  0  0  0  0
    5.6861   -0.7125    1.3971 C   0  0  0  0  0  0  0  0  0  0  0  0
    6.2579   -1.3680    2.2387 O   0  0  0  0  0  0  0  0  0  0  0  0
    5.7542    0.6227    1.3027 O   0  0  0  0  0  0  0  0  0  0  0  0
    6.5657    1.3236    2.2611 C   0  0  0  0  0  0  0  0  0  0  0  0
    8.0210    1.4075    1.8163 C   0  0  0  0  0  0  0  0  0  0  0  0
    8.8796    2.2269    2.7846 C   0  0  0  0  0  0  0  0  0  0  0  0
   10.3460    2.3301    2.3553 C   0  0  0  0  0  0  0  0  0  0  0  0
   11.2144    3.1396    3.3352 C   0  0  0  0  0  0  0  0  0  0  0  0
   12.6633    3.2425    2.9110 C   0  0  0  0  0  0  0  0  0  0  0  0
   13.1045    4.2989    2.0976 C   0  0  0  0  0  0  0  0  0  0  0  0
   14.4338    4.3746    1.6723 C   0  0  0  0  0  0  0  0  0  0  0  0
   15.3503    3.3906    2.0546 C   0  0  0  0  0  0  0  0  0  0  0  0
   14.9266    2.3336    2.8658 C   0  0  0  0  0  0  0  0  0  0  0  0
   13.5963    2.2629    3.2883 C   0  0  0  0  0  0  0  0  0  0  0  0
    5.2180   -3.1407    1.1282 H   0  0  0  0  0  0  0  0  0  0  0  0
    4.6037   -5.2636    0.5998 H   0  0  0  0  0  0  0  0  0  0  0  0
    3.3736   -6.9361   -0.7699 H   0  0  0  0  0  0  0  0  0  0  0  0
    1.9108   -7.1988   -2.6182 H   0  0  0  0  0  0  0  0  0  0  0  0
    1.2401   -4.4567   -3.8265 H   0  0  0  0  0  0  0  0  0  0  0  0
    2.9900   -2.0888   -1.8894 H   0  0  0  0  0  0  0  0  0  0  0  0
    6.4821    0.8211    3.2366 H   0  0  0  0  0  0  0  0  0  0  0  0
    6.1146    2.3243    2.3308 H   0  0  0  0  0  0  0  0  0  0  0  0
    8.0587    1.8520    0.8067 H   0  0  0  0  0  0  0  0  0  0  0  0
    8.4262    0.3852    1.7336 H   0  0  0  0  0  0  0  0  0  0  0  0
    8.8263    1.7778    3.7936 H   0  0  0  0  0  0  0  0  0  0  0  0
    8.4570    3.2441    2.8848 H   0  0  0  0  0  0  0  0  0  0  0  0
   10.4071    2.7897    1.3528 H   0  0  0  0  0  0  0  0  0  0  0  0
   10.7713    1.3165    2.2471 H   0  0  0  0  0  0  0  0  0  0  0  0
   11.1557    2.6739    4.3342 H   0  0  0  0  0  0  0  0  0  0  0  0
   10.7886    4.1525    3.4396 H   0  0  0  0  0  0  0  0  0  0  0  0
   12.3959    5.0771    1.7978 H   0  0  0  0  0  0  0  0  0  0  0  0
   14.7561    5.2082    1.0426 H   0  0  0  0  0  0  0  0  0  0  0  0
   16.3910    3.4494    1.7254 H   0  0  0  0  0  0  0  0  0  0  0  0
   15.6367    1.5618    3.1750 H   0  0  0  0  0  0  0  0  0  0  0  0
   13.2756    1.4348    3.9278 H   0  0  0  0  0  0  0  0  0  0  0  0
  1  2  3  0
  2  3  1  0
  3  4  2  0
  3 13  1  0
  4  5  1  0
  4 27  1  0
  5  6  2  0
  5 12  1  0
  6  7  1  0
  6 28  1  0
  7  8  2  0
  7 29  1  0
  8  9  1  0
  8 10  1  0
  9 30  1  0
 10 11  1  0
 10 12  2  0
 11 31  1  0
 12 32  1  0
 13 14  2  0
 13 15  1  0
 15 16  1  0
 16 17  1  0
 16 33  1  0
 16 34  1  0
 17 18  1  0
 17 35  1  0
 17 36  1  0
 18 19  1  0
 18 37  1  0
 18 38  1  0
 19 20  1  0
 19 39  1  0
 19 40  1  0
 20 21  1  0
 20 41  1  0
 20 42  1  0
 21 22  2  0
 21 26  1  0
 22 23  1  0
 22 43  1  0
 23 24  2  0
 23 44  1  0
 24 25  1  0
 24 45  1  0
 25 26  2  0
 25 46  1  0
 26 47  1  0
M  END

