
     RDKit          3D

 41 43  0  0  0  0  0  0  0  0999 V2000
    7.3823    1.4295   -8.3954 F   0  0  0  0  0  0  0  0  0  0  0  0
    7.3379    0.7691   -7.2308 C   0  0  0  0  0  0  0  0  0  0  0  0
    8.5209    0.5372   -6.5330 C   0  0  0  0  0  0  0  0  0  0  0  0
    8.4669   -0.1526   -5.3195 C   0  0  0  0  0  0  0  0  0  0  0  0
    7.2450   -0.6063   -4.7978 C   0  0  0  0  0  0  0  0  0  0  0  0
    7.1800   -1.3948   -3.5056 C   0  0  0  0  0  0  0  0  0  0  0  0
    8.2088   -0.9980   -2.5493 N   0  0  0  0  0  0  0  0  0  0  0  0
    8.1762   -1.7043   -1.2889 C   0  0  0  0  0  0  0  0  0  0  0  0
    8.8180   -3.0681   -1.3205 C   0  0  0  0  0  0  0  0  0  0  0  0
    9.8084   -3.3914   -2.2861 C   0  0  0  0  0  0  0  0  0  0  0  0
   10.4156   -4.6236   -2.2760 C   0  0  0  0  0  0  0  0  0  0  0  0
   10.0551   -5.6067   -1.2831 C   0  0  0  0  0  0  0  0  0  0  0  0
   10.6523   -6.7417   -1.3577 O   0  0  0  0  0  0  0  0  0  0  0  0
   10.4087   -7.8270   -0.3952 C   0  0  0  0  0  0  0  0  0  0  0  0
    9.6804   -8.8887   -0.8541 C   0  0  0  0  0  0  0  0  0  0  0  0
    9.4046   -9.9670    0.0586 C   0  0  0  0  0  0  0  0  0  0  0  0
    9.9206   -9.8538    1.3844 C   0  0  0  0  0  0  0  0  0  0  0  0
   10.6509   -8.7619    1.8044 C   0  0  0  0  0  0  0  0  0  0  0  0
   10.9237   -7.6447    0.9146 C   0  0  0  0  0  0  0  0  0  0  0  0
    9.0546   -5.2780   -0.2974 C   0  0  0  0  0  0  0  0  0  0  0  0
    8.4632   -4.0400   -0.3385 C   0  0  0  0  0  0  0  0  0  0  0  0
    6.0712   -0.3462   -5.5225 C   0  0  0  0  0  0  0  0  0  0  0  0
    6.1081    0.3353   -6.7404 C   0  0  0  0  0  0  0  0  0  0  0  0
    9.4656    0.8966   -6.9459 H   0  0  0  0  0  0  0  0  0  0  0  0
    9.3878   -0.3368   -4.7628 H   0  0  0  0  0  0  0  0  0  0  0  0
    7.3207   -2.4700   -3.7265 H   0  0  0  0  0  0  0  0  0  0  0  0
    6.1561   -1.3110   -3.0817 H   0  0  0  0  0  0  0  0  0  0  0  0
    8.1785    0.0078   -2.3973 H   0  0  0  0  0  0  0  0  0  0  0  0
    7.1522   -1.8129   -0.8652 H   0  0  0  0  0  0  0  0  0  0  0  0
    8.7347   -1.1103   -0.5388 H   0  0  0  0  0  0  0  0  0  0  0  0
   10.0700   -2.6370   -3.0287 H   0  0  0  0  0  0  0  0  0  0  0  0
   11.1815   -4.9037   -3.0003 H   0  0  0  0  0  0  0  0  0  0  0  0
    9.2953   -8.8942   -1.8760 H   0  0  0  0  0  0  0  0  0  0  0  0
    8.8543  -10.8471   -0.2705 H   0  0  0  0  0  0  0  0  0  0  0  0
    9.7263  -10.6632    2.0962 H   0  0  0  0  0  0  0  0  0  0  0  0
   11.0280   -8.7219    2.8302 H   0  0  0  0  0  0  0  0  0  0  0  0
   11.7259   -6.9320    1.1156 H   0  0  0  0  0  0  0  0  0  0  0  0
    8.8059   -6.0220    0.4551 H   0  0  0  0  0  0  0  0  0  0  0  0
    7.6954   -3.7883    0.3974 H   0  0  0  0  0  0  0  0  0  0  0  0
    5.1070   -0.6818   -5.1301 H   0  0  0  0  0  0  0  0  0  0  0  0
    5.2000    0.5412   -7.3102 H   0  0  0  0  0  0  0  0  0  0  0  0
  1  2  1  0
  2  3  2  0
  2 23  1  0
  3  4  1  0
  3 24  1  0
  4  5  2  0
  4 25  1  0
  5  6  1  0
  5 22  1  0
  6  7  1  0
  6 26  1  0
  6 27  1  0
  7  8  1  0
  7 28  1  0
  8  9  1  0
  8 29  1  0
  8 30  1  0
  9 10  2  0
  9 21  1  0
 10 11  1  0
 10 31  1  0
 11 12  2  0
 11 32  1  0
 12 13  1  0
 12 20  1  0
 13 14  1  0
 14 15  2  0
 14 19  1  0
 15 16  1  0
 15 33  1  0
 16 17  2  0
 16 34  1  0
 17 18  1  0
 17 35  1  0
 18 19  2  0
 18 36  1  0
 19 37  1  0
 20 21  2  0
 20 38  1  0
 21 39  1  0
 22 23  2  0
 22 40  1  0
 23 41  1  0
M  END

