
     RDKit          3D

 32 34  0  0  0  0  0  0  0  0999 V2000
    1.1367   -0.7458    0.1269 N   0  0  0  0  0  0  0  0  0  0  0  0
    2.1887   -0.0435   -0.3526 C   0  0  0  0  0  0  0  0  0  0  0  0
    2.4816    1.5564    0.0290 S   0  0  0  0  0  0  0  0  0  0  0  0
    3.0175   -0.7612   -1.1869 N   0  0  0  0  0  0  0  0  0  0  0  0
    2.8154   -2.0932   -1.4105 N   0  0  0  0  0  0  0  0  0  0  0  0
    3.8362   -2.5969   -2.0279 C   0  0  0  0  0  0  0  0  0  0  0  0
    3.8046   -4.0068   -2.4602 C   0  0  0  0  0  0  0  0  0  0  0  0
    2.5432   -4.6384   -2.5705 C   0  0  0  0  0  0  0  0  0  0  0  0
    2.4091   -5.9636   -2.9670 C   0  0  0  0  0  0  0  0  0  0  0  0
    3.5473   -6.7146   -3.2806 C   0  0  0  0  0  0  0  0  0  0  0  0
    4.8063   -6.1260   -3.1852 C   0  0  0  0  0  0  0  0  0  0  0  0
    4.9345   -4.7926   -2.7791 C   0  0  0  0  0  0  0  0  0  0  0  0
    6.5745   -4.1768   -2.6589 Cl  0  0  0  0  0  0  0  0  0  0  0  0
    4.9384   -1.5671   -2.2220 C   0  0  0  0  0  0  0  0  0  0  0  0
    4.2001   -0.2415   -1.8978 C   0  0  1  0  0  0  0  0  0  0  0  0
    3.8080    0.5476   -3.1266 C   0  0  0  0  0  0  0  0  0  0  0  0
    2.6646    0.4563   -3.8824 C   0  0  0  0  0  0  0  0  0  0  0  0
    2.6767    1.3171   -5.0229 C   0  0  0  0  0  0  0  0  0  0  0  0
    3.8333    2.0461   -5.1233 C   0  0  0  0  0  0  0  0  0  0  0  0
    4.9156    1.7003   -3.8173 S   0  0  0  0  0  0  0  0  0  0  0  0
    0.5329   -0.2844    0.7927 H   0  0  0  0  0  0  0  0  0  0  0  0
    1.0476   -1.7353   -0.0738 H   0  0  0  0  0  0  0  0  0  0  0  0
    1.6597   -4.0416   -2.3416 H   0  0  0  0  0  0  0  0  0  0  0  0
    1.4149   -6.4099   -3.0423 H   0  0  0  0  0  0  0  0  0  0  0  0
    3.4582   -7.7551   -3.6016 H   0  0  0  0  0  0  0  0  0  0  0  0
    5.7088   -6.6929   -3.4182 H   0  0  0  0  0  0  0  0  0  0  0  0
    5.3684   -1.5735   -3.2315 H   0  0  0  0  0  0  0  0  0  0  0  0
    5.7596   -1.7603   -1.5146 H   0  0  0  0  0  0  0  0  0  0  0  0
    4.7724    0.4005   -1.2146 H   0  0  0  0  0  0  0  0  0  0  0  0
    1.8317   -0.1973   -3.6195 H   0  0  0  0  0  0  0  0  0  0  0  0
    1.8552    1.3933   -5.7370 H   0  0  0  0  0  0  0  0  0  0  0  0
    4.1090    2.7777   -5.8814 H   0  0  0  0  0  0  0  0  0  0  0  0
  1  2  1  0
  1 21  1  0
  1 22  1  0
  2  3  2  0
  2  4  1  0
  4  5  1  0
  4 15  1  0
  5  6  2  0
  6  7  1  0
  6 14  1  0
  7  8  2  0
  7 12  1  0
  8  9  1  0
  8 23  1  0
  9 10  2  0
  9 24  1  0
 10 11  1  0
 10 25  1  0
 11 12  2  0
 11 26  1  0
 12 13  1  0
 14 15  1  0
 14 27  1  0
 14 28  1  0
 15 16  1  0
 15 29  1  1
 16 17  2  0
 16 20  1  0
 17 18  1  0
 17 30  1  0
 18 19  2  0
 18 31  1  0
 19 20  1  0
 19 32  1  0
M  END

