
     RDKit          3D

 71 77  0  0  0  0  0  0  0  0999 V2000
    0.8338   -1.3423    2.2499 C   0  0  0  0  0  0  0  0  0  0  0  0
    2.0090   -0.8889    1.4482 C   0  0  0  0  0  0  0  0  0  0  0  0
    2.2740    0.3598    0.9225 C   0  0  0  0  0  0  0  0  0  0  0  0
    1.5033    1.6094    1.1453 C   0  0  0  0  0  0  0  0  0  0  0  0
    0.4864    1.6505    1.8302 O   0  0  0  0  0  0  0  0  0  0  0  0
    2.0558    2.6933    0.5049 N   0  0  0  0  0  0  0  0  0  0  0  0
    1.6080    4.0182    0.4865 C   0  0  0  0  0  0  0  0  0  0  0  0
    0.4569    4.4688    1.1633 C   0  0  0  0  0  0  0  0  0  0  0  0
    0.0868    5.8115    1.0821 C   0  0  0  0  0  0  0  0  0  0  0  0
    0.8344    6.7284    0.3425 C   0  0  0  0  0  0  0  0  0  0  0  0
    0.4969    8.0643    0.3585 O   0  0  0  0  0  0  0  0  0  0  0  0
    0.2428    8.7637   -0.7844 C   0  0  0  0  0  0  0  0  0  0  0  0
    0.4308   10.1464   -0.7352 C   0  0  0  0  0  0  0  0  0  0  0  0
    0.1350   10.9272   -1.8624 C   0  0  0  0  0  0  0  0  0  0  0  0
   -0.3253   10.4408   -3.0099 N   0  0  0  0  0  0  0  0  0  0  0  0
   -0.5166    9.1135   -3.0672 C   0  0  0  0  0  0  0  0  0  0  0  0
   -1.0339    8.4121   -4.2165 C   0  0  0  0  0  0  0  0  0  0  0  0
   -1.1657    7.0695   -4.0273 C   0  0  0  0  0  0  0  0  0  0  0  0
   -1.6818    6.0403   -4.9922 C   0  0  0  0  0  0  0  0  0  0  0  0
   -3.0036    5.3772   -4.5757 C   0  0  2  0  0  0  0  0  0  0  0  0
   -3.5048    4.3161   -5.5700 C   0  0  0  0  0  0  0  0  0  0  0  0
   -4.9107    4.2270   -5.3954 O   0  0  0  0  0  0  0  0  0  0  0  0
   -5.3698    5.3151   -4.6116 C   0  0  2  0  0  0  0  0  0  0  0  0
   -6.3091    4.9945   -3.4800 C   0  0  0  0  0  0  0  0  0  0  0  0
   -6.8116    5.6836   -4.7399 C   0  0  0  0  0  0  0  0  0  0  0  0
   -4.2258    6.3052   -4.4943 C   0  0  0  0  0  0  0  0  0  0  0  0
   -0.6519    6.5727   -2.4117 S   0  0  0  0  0  0  0  0  0  0  0  0
   -0.2492    8.2242   -1.9850 C   0  0  0  0  0  0  0  0  0  0  0  0
    1.9862    6.2731   -0.3132 C   0  0  0  0  0  0  0  0  0  0  0  0
    2.7229    7.1459   -1.0118 F   0  0  0  0  0  0  0  0  0  0  0  0
    2.3700    4.9422   -0.2566 C   0  0  0  0  0  0  0  0  0  0  0  0
    3.4943    0.2535    0.1319 C   0  0  0  0  0  0  0  0  0  0  0  0
    4.1233    1.1114   -0.4826 O   0  0  0  0  0  0  0  0  0  0  0  0
    3.8852   -1.0942    0.2371 N   0  0  0  0  0  0  0  0  0  0  0  0
    5.2166   -1.5568    0.0542 C   0  0  0  0  0  0  0  0  0  0  0  0
    5.8729   -1.2732   -1.1523 C   0  0  0  0  0  0  0  0  0  0  0  0
    7.1912   -1.6950   -1.3337 C   0  0  0  0  0  0  0  0  0  0  0  0
    7.8545   -2.4112   -0.3324 C   0  0  0  0  0  0  0  0  0  0  0  0
    7.1956   -2.6911    0.8682 C   0  0  0  0  0  0  0  0  0  0  0  0
    5.8842   -2.2559    1.0720 C   0  0  0  0  0  0  0  0  0  0  0  0
    3.0049   -1.7661    1.0918 N   0  0  0  0  0  0  0  0  0  0  0  0
    2.7422   -3.1729    0.8052 C   0  0  0  0  0  0  0  0  0  0  0  0
    0.2746   -0.4591    2.5793 H   0  0  0  0  0  0  0  0  0  0  0  0
    1.1517   -1.9342    3.1224 H   0  0  0  0  0  0  0  0  0  0  0  0
    0.1599   -1.9702    1.6419 H   0  0  0  0  0  0  0  0  0  0  0  0
    2.9151    2.4859   -0.0179 H   0  0  0  0  0  0  0  0  0  0  0  0
   -0.1308    3.7605    1.7408 H   0  0  0  0  0  0  0  0  0  0  0  0
   -0.8014    6.1741    1.6036 H   0  0  0  0  0  0  0  0  0  0  0  0
    0.8115   10.5949    0.1837 H   0  0  0  0  0  0  0  0  0  0  0  0
    0.2902   12.0117   -1.8146 H   0  0  0  0  0  0  0  0  0  0  0  0
   -1.2898    8.9294   -5.1417 H   0  0  0  0  0  0  0  0  0  0  0  0
   -0.9187    5.2535   -5.1344 H   0  0  0  0  0  0  0  0  0  0  0  0
   -1.8121    6.5296   -5.9721 H   0  0  0  0  0  0  0  0  0  0  0  0
   -2.8686    4.8956   -3.5916 H   0  0  0  0  0  0  0  0  0  0  0  0
   -3.0514    3.3244   -5.4013 H   0  0  0  0  0  0  0  0  0  0  0  0
   -3.2718    4.6192   -6.6114 H   0  0  0  0  0  0  0  0  0  0  0  0
   -6.2425    5.5749   -2.5543 H   0  0  0  0  0  0  0  0  0  0  0  0
   -6.5706    3.9408   -3.3503 H   0  0  0  0  0  0  0  0  0  0  0  0
   -7.0901    6.7408   -4.6870 H   0  0  0  0  0  0  0  0  0  0  0  0
   -7.4060    5.0852   -5.4358 H   0  0  0  0  0  0  0  0  0  0  0  0
   -4.2632    6.9018   -3.5723 H   0  0  0  0  0  0  0  0  0  0  0  0
   -4.2283    7.0031   -5.3512 H   0  0  0  0  0  0  0  0  0  0  0  0
    3.2718    4.6358   -0.7911 H   0  0  0  0  0  0  0  0  0  0  0  0
    5.3521   -0.7130   -1.9281 H   0  0  0  0  0  0  0  0  0  0  0  0
    7.7014   -1.4661   -2.2725 H   0  0  0  0  0  0  0  0  0  0  0  0
    8.8831   -2.7460   -0.4852 H   0  0  0  0  0  0  0  0  0  0  0  0
    7.7093   -3.2388    1.6623 H   0  0  0  0  0  0  0  0  0  0  0  0
    5.3811   -2.4409    2.0230 H   0  0  0  0  0  0  0  0  0  0  0  0
    2.1964   -3.2965   -0.1471 H   0  0  0  0  0  0  0  0  0  0  0  0
    2.1468   -3.5931    1.6247 H   0  0  0  0  0  0  0  0  0  0  0  0
    3.6889   -3.7242    0.7493 H   0  0  0  0  0  0  0  0  0  0  0  0
  1  2  1  0
  1 43  1  0
  1 44  1  0
  1 45  1  0
  2  3  2  0
  2 41  1  0
  3  4  1  0
  3 32  1  0
  4  5  2  0
  4  6  1  0
  6  7  1  0
  6 46  1  0
  7  8  2  0
  7 31  1  0
  8  9  1  0
  8 47  1  0
  9 10  2  0
  9 48  1  0
 10 11  1  0
 10 29  1  0
 11 12  1  0
 12 13  2  0
 12 28  1  0
 13 14  1  0
 13 49  1  0
 14 15  2  0
 14 50  1  0
 15 16  1  0
 16 17  1  0
 16 28  2  0
 17 18  2  0
 17 51  1  0
 18 19  1  0
 18 27  1  0
 19 20  1  0
 19 52  1  0
 19 53  1  0
 20 21  1  0
 20 26  1  0
 20 54  1  1
 21 22  1  0
 21 55  1  0
 21 56  1  0
 23 22  1  6
 23 24  1  0
 23 25  1  0
 23 26  1  0
 24 25  1  0
 24 57  1  0
 24 58  1  0
 25 59  1  0
 25 60  1  0
 26 61  1  0
 26 62  1  0
 27 28  1  0
 29 30  1  0
 29 31  2  0
 31 63  1  0
 32 33  2  0
 32 34  1  0
 34 35  1  0
 34 41  1  0
 35 36  2  0
 35 40  1  0
 36 37  1  0
 36 64  1  0
 37 38  2  0
 37 65  1  0
 38 39  1  0
 38 66  1  0
 39 40  2  0
 39 67  1  0
 40 68  1  0
 41 42  1  0
 42 69  1  0
 42 70  1  0
 42 71  1  0
M  END

