
     RDKit          3D

 71 75  0  0  0  0  0  0  0  0999 V2000
   10.5553    5.5803   -1.2456 C   0  0  0  0  0  0  0  0  0  0  0  0
    9.7307    4.3347   -1.0268 C   0  0  0  0  0  0  0  0  0  0  0  0
    9.9442    3.1847   -1.8079 C   0  0  0  0  0  0  0  0  0  0  0  0
    9.1937    2.0266   -1.6121 C   0  0  0  0  0  0  0  0  0  0  0  0
    8.1968    1.9701   -0.6236 C   0  0  0  0  0  0  0  0  0  0  0  0
    7.3369    0.7324   -0.4451 C   0  0  0  0  0  0  0  0  0  0  0  0
    8.0883   -0.5178   -0.4881 N   0  0  0  0  0  0  0  0  0  0  0  0
    9.1100   -0.7334    0.5282 C   0  0  0  0  0  0  0  0  0  0  0  0
    8.6188   -1.1569    1.9466 C   0  0  2  0  0  0  0  0  0  0  0  0
    8.3464    0.0704    2.8482 C   0  0  0  0  0  0  0  0  0  0  0  0
    9.7202   -2.0072    2.6145 C   0  0  0  0  0  0  0  0  0  0  0  0
    7.3232   -1.9889    1.8639 C   0  0  0  0  0  0  0  0  0  0  0  0
    6.8865   -2.4616    2.9687 O   0  0  0  0  0  0  0  0  0  0  0  0
    6.6067   -2.1556    0.6335 C   0  0  0  0  0  0  0  0  0  0  0  0
    5.3509   -2.7520    0.5935 C   0  0  0  0  0  0  0  0  0  0  0  0
    4.6293   -3.1781    1.7982 C   0  0  0  0  0  0  0  0  0  0  0  0
    4.6306   -2.3414    2.9743 C   0  0  0  0  0  0  0  0  0  0  0  0
    4.0650   -2.8489    4.1500 C   0  0  0  0  0  0  0  0  0  0  0  0
    3.4908   -4.1117    4.1592 C   0  0  0  0  0  0  0  0  0  0  0  0
    3.4493   -4.8298    2.9333 C   0  0  0  0  0  0  0  0  0  0  0  0
    2.8308   -6.0519    2.8125 N   0  0  0  0  0  0  0  0  0  0  0  0
    2.7538   -6.7566    1.5334 C   0  0  0  0  0  0  0  0  0  0  0  0
    3.2652   -8.1890    1.6952 C   0  0  0  0  0  0  0  0  0  0  0  0
    2.5802   -8.8662    2.7303 O   0  0  0  0  0  0  0  0  0  0  0  0
    2.7224   -8.2093    3.9659 C   0  0  0  0  0  0  0  0  0  0  0  0
    2.1876   -6.7713    3.9025 C   0  0  0  0  0  0  0  0  0  0  0  0
    4.0233   -4.3534    1.8028 N   0  0  0  0  0  0  0  0  0  0  0  0
    7.2636   -1.7161   -0.6702 C   0  0  2  0  0  0  0  0  0  0  0  0
    8.0676   -2.8252   -1.3712 C   0  0  0  0  0  0  0  0  0  0  0  0
    8.1043   -4.1480   -0.9095 C   0  0  0  0  0  0  0  0  0  0  0  0
    8.8270   -5.1332   -1.5925 C   0  0  0  0  0  0  0  0  0  0  0  0
    9.5149   -4.7855   -2.7498 C   0  0  0  0  0  0  0  0  0  0  0  0
   10.2113   -5.7258   -3.4116 F   0  0  0  0  0  0  0  0  0  0  0  0
    9.4977   -3.4805   -3.2397 C   0  0  0  0  0  0  0  0  0  0  0  0
    8.7737   -2.5111   -2.5448 C   0  0  0  0  0  0  0  0  0  0  0  0
    7.9868    3.1108    0.1598 C   0  0  0  0  0  0  0  0  0  0  0  0
    8.7375    4.2747   -0.0409 C   0  0  0  0  0  0  0  0  0  0  0  0
   10.4899    5.9277   -2.2903 H   0  0  0  0  0  0  0  0  0  0  0  0
   11.6230    5.3971   -1.0360 H   0  0  0  0  0  0  0  0  0  0  0  0
   10.2244    6.4043   -0.5960 H   0  0  0  0  0  0  0  0  0  0  0  0
   10.7143    3.2001   -2.5856 H   0  0  0  0  0  0  0  0  0  0  0  0
    9.3810    1.1416   -2.2246 H   0  0  0  0  0  0  0  0  0  0  0  0
    6.6136    0.6907   -1.2800 H   0  0  0  0  0  0  0  0  0  0  0  0
    6.7206    0.8543    0.4692 H   0  0  0  0  0  0  0  0  0  0  0  0
    9.7260    0.1754    0.6147 H   0  0  0  0  0  0  0  0  0  0  0  0
    9.7749   -1.5250    0.1457 H   0  0  0  0  0  0  0  0  0  0  0  0
    9.2669    0.6614    2.9858 H   0  0  0  0  0  0  0  0  0  0  0  0
    7.9931   -0.2617    3.8355 H   0  0  0  0  0  0  0  0  0  0  0  0
    7.5821    0.7369    2.4227 H   0  0  0  0  0  0  0  0  0  0  0  0
   10.6568   -1.4307    2.7007 H   0  0  0  0  0  0  0  0  0  0  0  0
    9.9319   -2.9154    2.0277 H   0  0  0  0  0  0  0  0  0  0  0  0
    9.4071   -2.3195    3.6211 H   0  0  0  0  0  0  0  0  0  0  0  0
    4.9022   -3.0127   -0.3681 H   0  0  0  0  0  0  0  0  0  0  0  0
    4.8859   -1.2886    2.8910 H   0  0  0  0  0  0  0  0  0  0  0  0
    4.0532   -2.2399    5.0569 H   0  0  0  0  0  0  0  0  0  0  0  0
    3.0468   -4.4989    5.0743 H   0  0  0  0  0  0  0  0  0  0  0  0
    3.3395   -6.1948    0.7978 H   0  0  0  0  0  0  0  0  0  0  0  0
    1.6968   -6.7836    1.2092 H   0  0  0  0  0  0  0  0  0  0  0  0
    4.3549   -8.1717    1.8984 H   0  0  0  0  0  0  0  0  0  0  0  0
    3.0946   -8.7556    0.7681 H   0  0  0  0  0  0  0  0  0  0  0  0
    3.7867   -8.1857    4.2787 H   0  0  0  0  0  0  0  0  0  0  0  0
    2.1546   -8.7849    4.7123 H   0  0  0  0  0  0  0  0  0  0  0  0
    2.3599   -6.2711    4.8610 H   0  0  0  0  0  0  0  0  0  0  0  0
    1.0969   -6.8001    3.7214 H   0  0  0  0  0  0  0  0  0  0  0  0
    6.4558   -1.4368   -1.3690 H   0  0  0  0  0  0  0  0  0  0  0  0
    7.5584   -4.4173   -0.0039 H   0  0  0  0  0  0  0  0  0  0  0  0
    8.8640   -6.1647   -1.2360 H   0  0  0  0  0  0  0  0  0  0  0  0
   10.0489   -3.2426   -4.1519 H   0  0  0  0  0  0  0  0  0  0  0  0
    8.7615   -1.4816   -2.9092 H   0  0  0  0  0  0  0  0  0  0  0  0
    7.2224    3.0929    0.9425 H   0  0  0  0  0  0  0  0  0  0  0  0
    8.5494    5.1502    0.5877 H   0  0  0  0  0  0  0  0  0  0  0  0
  1  2  1  0
  1 38  1  0
  1 39  1  0
  1 40  1  0
  2  3  2  0
  2 37  1  0
  3  4  1  0
  3 41  1  0
  4  5  2  0
  4 42  1  0
  5  6  1  0
  5 36  1  0
  6  7  1  0
  6 43  1  0
  6 44  1  0
  7  8  1  0
  7 28  1  0
  8  9  1  0
  8 45  1  0
  8 46  1  0
  9 10  1  1
  9 11  1  0
  9 12  1  0
 10 47  1  0
 10 48  1  0
 10 49  1  0
 11 50  1  0
 11 51  1  0
 11 52  1  0
 12 13  2  0
 12 14  1  0
 14 15  2  0
 14 28  1  0
 15 16  1  0
 15 53  1  0
 16 17  2  0
 16 27  1  0
 17 18  1  0
 17 54  1  0
 18 19  2  0
 18 55  1  0
 19 20  1  0
 19 56  1  0
 20 21  1  0
 20 27  2  0
 21 22  1  0
 21 26  1  0
 22 23  1  0
 22 57  1  0
 22 58  1  0
 23 24  1  0
 23 59  1  0
 23 60  1  0
 24 25  1  0
 25 26  1  0
 25 61  1  0
 25 62  1  0
 26 63  1  0
 26 64  1  0
 28 29  1  0
 28 65  1  6
 29 30  2  0
 29 35  1  0
 30 31  1  0
 30 66  1  0
 31 32  2  0
 31 67  1  0
 32 33  1  0
 32 34  1  0
 34 35  2  0
 34 68  1  0
 35 69  1  0
 36 37  2  0
 36 70  1  0
 37 71  1  0
M  END

