
     RDKit          3D

 56 57  0  0  0  0  0  0  0  0999 V2000
    5.6258    1.5073   -6.1157 C   0  0  0  0  0  0  0  0  0  0  0  0
    6.6630    1.2194   -5.0435 C   0  0  0  0  0  0  0  0  0  0  0  0
    6.4812    2.0477   -3.8832 O   0  0  0  0  0  0  0  0  0  0  0  0
    7.0424    3.2810   -3.9215 C   0  0  0  0  0  0  0  0  0  0  0  0
    7.6979    3.6934   -4.8570 O   0  0  0  0  0  0  0  0  0  0  0  0
    6.7748    3.9980   -2.7827 N   0  0  0  0  0  0  0  0  0  0  0  0
    7.3693    5.3219   -2.6205 C   0  0  0  0  0  0  0  0  0  0  0  0
    6.3198    6.3433   -2.1781 C   0  0  0  0  0  0  0  0  0  0  0  0
    5.5548    5.8791   -0.9210 C   0  0  2  0  0  0  0  0  0  0  0  0
    6.3802    5.9181    0.2857 N   0  0  0  0  0  0  0  0  0  0  0  0
    6.4831    7.0694    1.0343 C   0  0  0  0  0  0  0  0  0  0  0  0
    5.8838    8.0938    0.7737 O   0  0  0  0  0  0  0  0  0  0  0  0
    7.3414    6.9155    2.1375 N   0  0  0  0  0  0  0  0  0  0  0  0
    7.7308    7.8314    3.1046 C   0  0  0  0  0  0  0  0  0  0  0  0
    7.3037    9.1855    3.1029 C   0  0  0  0  0  0  0  0  0  0  0  0
    7.7682   10.0382    4.1536 C   0  0  0  0  0  0  0  0  0  0  0  0
    8.6320    9.5267    5.1486 C   0  0  0  0  0  0  0  0  0  0  0  0
    9.0647    8.1750    5.1545 C   0  0  0  0  0  0  0  0  0  0  0  0
    9.9879    7.6325    6.1969 C   0  0  0  0  0  0  0  0  0  0  0  0
   10.2598    8.5838    7.1944 O   0  0  0  0  0  0  0  0  0  0  0  0
   11.1336    8.1368    8.1976 C   0  0  0  0  0  0  0  0  0  0  0  0
   11.3245    9.2641    9.1978 C   0  0  0  0  0  0  0  0  0  0  0  0
   12.1901    8.8105   10.2063 O   0  0  0  0  0  0  0  0  0  0  0  0
   12.4563    9.7638   11.1980 C   0  0  0  0  0  0  0  0  0  0  0  0
    8.6093    7.3054    4.1114 C   0  0  0  0  0  0  0  0  0  0  0  0
    4.9922    4.4664   -1.1450 C   0  0  0  0  0  0  0  0  0  0  0  0
    6.0583    3.4736   -1.6274 C   0  0  0  0  0  0  0  0  0  0  0  0
    5.7490    0.8042   -6.9552 H   0  0  0  0  0  0  0  0  0  0  0  0
    5.7455    2.5289   -6.5056 H   0  0  0  0  0  0  0  0  0  0  0  0
    4.6044    1.3933   -5.7195 H   0  0  0  0  0  0  0  0  0  0  0  0
    7.6804    1.3699   -5.4332 H   0  0  0  0  0  0  0  0  0  0  0  0
    6.5717    0.1900   -4.6662 H   0  0  0  0  0  0  0  0  0  0  0  0
    7.8274    5.6026   -3.5763 H   0  0  0  0  0  0  0  0  0  0  0  0
    8.1850    5.2701   -1.8707 H   0  0  0  0  0  0  0  0  0  0  0  0
    5.5917    6.4904   -2.9936 H   0  0  0  0  0  0  0  0  0  0  0  0
    6.7908    7.3190   -1.9830 H   0  0  0  0  0  0  0  0  0  0  0  0
    4.7323    6.5837   -0.7340 H   0  0  0  0  0  0  0  0  0  0  0  0
    6.9969    5.1369    0.4728 H   0  0  0  0  0  0  0  0  0  0  0  0
    7.7358    5.9892    2.2732 H   0  0  0  0  0  0  0  0  0  0  0  0
    6.6441    9.5427    2.3180 H   0  0  0  0  0  0  0  0  0  0  0  0
    7.4543   11.0820    4.1851 H   0  0  0  0  0  0  0  0  0  0  0  0
    8.9869   10.1766    5.9500 H   0  0  0  0  0  0  0  0  0  0  0  0
   10.9431    7.2878    5.7253 H   0  0  0  0  0  0  0  0  0  0  0  0
    9.5463    6.7102    6.6506 H   0  0  0  0  0  0  0  0  0  0  0  0
   12.1184    7.8451    7.7778 H   0  0  0  0  0  0  0  0  0  0  0  0
   10.7277    7.2465    8.7209 H   0  0  0  0  0  0  0  0  0  0  0  0
   10.3379    9.5600    9.6118 H   0  0  0  0  0  0  0  0  0  0  0  0
   11.7378   10.1535    8.6778 H   0  0  0  0  0  0  0  0  0  0  0  0
   13.1364    9.3070   11.9323 H   0  0  0  0  0  0  0  0  0  0  0  0
   11.5344   10.0859   11.7246 H   0  0  0  0  0  0  0  0  0  0  0  0
   12.9429   10.6709   10.7842 H   0  0  0  0  0  0  0  0  0  0  0  0
    8.8948    6.2501    4.0937 H   0  0  0  0  0  0  0  0  0  0  0  0
    4.2029    4.5309   -1.9113 H   0  0  0  0  0  0  0  0  0  0  0  0
    4.5224    4.0934   -0.2204 H   0  0  0  0  0  0  0  0  0  0  0  0
    5.5991    2.5168   -1.8961 H   0  0  0  0  0  0  0  0  0  0  0  0
    6.7811    3.2557   -0.8111 H   0  0  0  0  0  0  0  0  0  0  0  0
  1  2  1  0
  1 28  1  0
  1 29  1  0
  1 30  1  0
  2  3  1  0
  2 31  1  0
  2 32  1  0
  3  4  1  0
  4  5  2  0
  4  6  1  0
  6  7  1  0
  6 27  1  0
  7  8  1  0
  7 33  1  0
  7 34  1  0
  8  9  1  0
  8 35  1  0
  8 36  1  0
  9 10  1  0
  9 26  1  0
  9 37  1  1
 10 11  1  0
 10 38  1  0
 11 12  2  0
 11 13  1  0
 13 14  1  0
 13 39  1  0
 14 15  2  0
 14 25  1  0
 15 16  1  0
 15 40  1  0
 16 17  2  0
 16 41  1  0
 17 18  1  0
 17 42  1  0
 18 19  1  0
 18 25  2  0
 19 20  1  0
 19 43  1  0
 19 44  1  0
 20 21  1  0
 21 22  1  0
 21 45  1  0
 21 46  1  0
 22 23  1  0
 22 47  1  0
 22 48  1  0
 23 24  1  0
 24 49  1  0
 24 50  1  0
 24 51  1  0
 25 52  1  0
 26 27  1  0
 26 53  1  0
 26 54  1  0
 27 55  1  0
 27 56  1  0
M  END

