
     RDKit          3D

 38 39  0  0  0  0  0  0  0  0999 V2000
    4.3395    2.5937   -0.6726 C   0  0  0  0  0  0  0  0  0  0  0  0
    4.2256    1.2501   -0.0171 C   0  0  0  0  0  0  0  0  0  0  0  0
    3.1772    0.9865    0.9460 C   0  0  0  0  0  0  0  0  0  0  0  0
    2.8903   -0.2917    1.3706 C   0  0  0  0  0  0  0  0  0  0  0  0
    3.6124   -1.4328    0.8980 C   0  0  0  0  0  0  0  0  0  0  0  0
    4.6386   -1.1851   -0.1045 C   0  0  0  0  0  0  0  0  0  0  0  0
    5.5708   -2.2993   -0.5426 C   0  0  1  0  0  0  0  0  0  0  0  0
    6.6679   -2.7339    0.4715 C   0  0  1  0  0  0  0  0  0  0  0  0
    7.6722   -1.5892    0.6671 C   0  0  0  0  0  0  0  0  0  0  0  0
    6.0727   -3.2239    1.7163 N   0  0  0  0  0  0  0  0  0  0  0  0
    4.7810   -3.4827   -1.0688 N   0  0  0  0  0  0  0  0  0  0  0  0
    3.8720   -3.2153   -2.1598 C   0  0  0  0  0  0  0  0  0  0  0  0
    4.8332   -4.7280   -0.4763 C   0  0  1  0  0  0  0  0  0  0  0  0
    3.8382   -5.8288   -0.7881 C   0  0  0  0  0  0  0  0  0  0  0  0
    5.1886   -6.0054   -1.3640 C   0  0  0  0  0  0  0  0  0  0  0  0
    4.9072    0.1131   -0.5246 C   0  0  0  0  0  0  0  0  0  0  0  0
    5.0103    3.2728   -0.1104 H   0  0  0  0  0  0  0  0  0  0  0  0
    3.3803    3.1648   -0.7831 H   0  0  0  0  0  0  0  0  0  0  0  0
    4.7465    2.4727   -1.6832 H   0  0  0  0  0  0  0  0  0  0  0  0
    2.6167    1.8279    1.3685 H   0  0  0  0  0  0  0  0  0  0  0  0
    2.0987   -0.4375    2.1147 H   0  0  0  0  0  0  0  0  0  0  0  0
    3.2135   -2.4351    1.0777 H   0  0  0  0  0  0  0  0  0  0  0  0
    6.1120   -1.9621   -1.4400 H   0  0  0  0  0  0  0  0  0  0  0  0
    7.2260   -3.5774    0.0153 H   0  0  0  0  0  0  0  0  0  0  0  0
    7.1755   -0.7020    1.0850 H   0  0  0  0  0  0  0  0  0  0  0  0
    8.1509   -1.2957   -0.2822 H   0  0  0  0  0  0  0  0  0  0  0  0
    8.4712   -1.9104    1.3559 H   0  0  0  0  0  0  0  0  0  0  0  0
    5.4086   -2.5149    2.0573 H   0  0  0  0  0  0  0  0  0  0  0  0
    6.7936   -3.3421    2.4283 H   0  0  0  0  0  0  0  0  0  0  0  0
    4.1477   -2.2713   -2.6372 H   0  0  0  0  0  0  0  0  0  0  0  0
    2.8516   -3.0984   -1.7597 H   0  0  0  0  0  0  0  0  0  0  0  0
    3.8833   -4.0363   -2.8927 H   0  0  0  0  0  0  0  0  0  0  0  0
    5.2844   -4.6957    0.5222 H   0  0  0  0  0  0  0  0  0  0  0  0
    3.0103   -5.5946   -1.4598 H   0  0  0  0  0  0  0  0  0  0  0  0
    3.5598   -6.4285    0.0824 H   0  0  0  0  0  0  0  0  0  0  0  0
    5.3470   -5.8080   -2.4264 H   0  0  0  0  0  0  0  0  0  0  0  0
    5.9122   -6.6727   -0.8923 H   0  0  0  0  0  0  0  0  0  0  0  0
    5.6804    0.2710   -1.2937 H   0  0  0  0  0  0  0  0  0  0  0  0
  1  2  1  0
  1 17  1  0
  1 18  1  0
  1 19  1  0
  2  3  2  0
  2 16  1  0
  3  4  1  0
  3 20  1  0
  4  5  2  0
  4 21  1  0
  5  6  1  0
  5 22  1  0
  6  7  1  0
  6 16  2  0
  7  8  1  0
  7 11  1  0
  7 23  1  6
  8  9  1  0
  8 10  1  0
  8 24  1  6
  9 25  1  0
  9 26  1  0
  9 27  1  0
 10 28  1  0
 10 29  1  0
 11 12  1  0
 11 13  1  0
 12 30  1  0
 12 31  1  0
 12 32  1  0
 13 14  1  0
 13 15  1  0
 13 33  1  1
 14 15  1  0
 14 34  1  0
 14 35  1  0
 15 36  1  0
 15 37  1  0
 16 38  1  0
M  END

