
     RDKit          3D

 71 74  0  0  0  0  0  0  0  0999 V2000
    0.7881    0.0135   -2.1084 C   0  0  0  0  0  0  0  0  0  0  0  0
    2.1008    0.0965   -1.4115 C   0  0  0  0  0  0  0  0  0  0  0  0
    2.9242    1.1003   -1.5187 N   0  0  0  0  0  0  0  0  0  0  0  0
    3.9873    0.8048   -0.6977 C   0  0  0  0  0  0  0  0  0  0  0  0
    5.0977    1.6258   -0.4682 C   0  0  0  0  0  0  0  0  0  0  0  0
    6.0302    1.1223    0.4496 C   0  0  0  0  0  0  0  0  0  0  0  0
    7.1869    1.7834    0.8237 N   0  0  0  0  0  0  0  0  0  0  0  0
    7.6782    3.0266    0.4147 C   0  0  0  0  0  0  0  0  0  0  0  0
    7.0933    3.7219   -0.3885 O   0  0  0  0  0  0  0  0  0  0  0  0
    9.0039    3.4740    1.0509 C   0  0  1  0  0  0  0  0  0  0  0  0
    9.6787    2.4724    1.9953 C   0  0  0  0  0  0  0  0  0  0  0  0
    9.9546    3.9499   -0.0598 C   0  0  0  0  0  0  0  0  0  0  0  0
    5.8460   -0.1614    1.0871 C   0  0  0  0  0  0  0  0  0  0  0  0
    4.7559   -1.0073    0.8874 C   0  0  0  0  0  0  0  0  0  0  0  0
    4.6911   -2.3108    1.5619 C   0  0  0  0  0  0  0  0  0  0  0  0
    4.0212   -3.2760    1.0965 O   0  0  0  0  0  0  0  0  0  0  0  0
    5.5795   -2.5049    2.6771 N   0  0  0  0  0  0  0  0  0  0  0  0
    6.1008   -3.8710    2.7378 C   0  0  0  0  0  0  0  0  0  0  0  0
    7.0055   -4.2291    1.5558 C   0  0  1  0  0  0  0  0  0  0  0  0
    6.4157   -4.1215    0.6278 H   0  0  0  0  0  0  0  0  0  0  0  0
    8.3178   -3.4151    1.4603 C   0  0  0  0  0  0  0  0  0  0  0  0
    9.3421   -4.4015    0.8815 C   0  0  0  0  0  0  0  0  0  0  0  0
    8.8027   -5.7839    1.2663 C   0  0  0  0  0  0  0  0  0  0  0  0
    9.3866   -6.8458    1.2003 O   0  0  0  0  0  0  0  0  0  0  0  0
    7.5099   -5.5934    1.6761 N   0  0  0  0  0  0  0  0  0  0  0  0
    5.1505   -2.0320    4.0268 C   0  0  1  0  0  0  0  0  0  0  0  0
    6.3516   -1.5109    4.8261 C   0  0  0  0  0  0  0  0  0  0  0  0
    4.0319   -0.9884    3.9963 C   0  0  0  0  0  0  0  0  0  0  0  0
    3.7876   -0.4762   -0.0582 C   0  0  0  0  0  0  0  0  0  0  0  0
    2.5731   -0.9064   -0.5335 N   0  0  0  0  0  0  0  0  0  0  0  0
    1.7953   -2.1197   -0.2325 C   0  0  0  0  0  0  0  0  0  0  0  0
    1.7138   -3.0981   -1.3904 C   0  0  0  0  0  0  0  0  0  0  0  0
    2.8823   -3.6788   -1.9102 C   0  0  0  0  0  0  0  0  0  0  0  0
    2.8080   -4.6038   -2.9534 C   0  0  0  0  0  0  0  0  0  0  0  0
    1.5669   -4.9744   -3.4835 C   0  0  0  0  0  0  0  0  0  0  0  0
    0.3982   -4.4160   -2.9603 C   0  0  0  0  0  0  0  0  0  0  0  0
    0.4740   -3.4812   -1.9223 C   0  0  0  0  0  0  0  0  0  0  0  0
    0.6355    0.9538   -2.6523 H   0  0  0  0  0  0  0  0  0  0  0  0
   -0.0441   -0.1276   -1.3986 H   0  0  0  0  0  0  0  0  0  0  0  0
    0.7539   -0.8268   -2.8194 H   0  0  0  0  0  0  0  0  0  0  0  0
    5.2072    2.5895   -0.9533 H   0  0  0  0  0  0  0  0  0  0  0  0
    7.7596    1.2812    1.4941 H   0  0  0  0  0  0  0  0  0  0  0  0
    8.7158    4.3631    1.6418 H   0  0  0  0  0  0  0  0  0  0  0  0
    9.9847    1.5522    1.4686 H   0  0  0  0  0  0  0  0  0  0  0  0
    9.0390    2.1961    2.8502 H   0  0  0  0  0  0  0  0  0  0  0  0
   10.5926    2.9145    2.4193 H   0  0  0  0  0  0  0  0  0  0  0  0
   10.3007    3.1020   -0.6739 H   0  0  0  0  0  0  0  0  0  0  0  0
   10.8398    4.4380    0.3753 H   0  0  0  0  0  0  0  0  0  0  0  0
    9.4465    4.6661   -0.7195 H   0  0  0  0  0  0  0  0  0  0  0  0
    6.6201   -0.5213    1.7681 H   0  0  0  0  0  0  0  0  0  0  0  0
    5.2689   -4.6019    2.7811 H   0  0  0  0  0  0  0  0  0  0  0  0
    6.6911   -3.9865    3.6599 H   0  0  0  0  0  0  0  0  0  0  0  0
    8.6221   -3.1036    2.4735 H   0  0  0  0  0  0  0  0  0  0  0  0
    8.1917   -2.5049    0.8579 H   0  0  0  0  0  0  0  0  0  0  0  0
   10.3705   -4.2734    1.2484 H   0  0  0  0  0  0  0  0  0  0  0  0
    9.3833   -4.3621   -0.2210 H   0  0  0  0  0  0  0  0  0  0  0  0
    6.9038   -6.3921    1.8310 H   0  0  0  0  0  0  0  0  0  0  0  0
    4.7401   -2.9089    4.5715 H   0  0  0  0  0  0  0  0  0  0  0  0
    6.7419   -0.5811    4.3796 H   0  0  0  0  0  0  0  0  0  0  0  0
    7.1740   -2.2415    4.8551 H   0  0  0  0  0  0  0  0  0  0  0  0
    6.0648   -1.2922    5.8676 H   0  0  0  0  0  0  0  0  0  0  0  0
    4.3509   -0.0518    3.5154 H   0  0  0  0  0  0  0  0  0  0  0  0
    3.7346   -0.7507    5.0299 H   0  0  0  0  0  0  0  0  0  0  0  0
    3.1422   -1.3596    3.4670 H   0  0  0  0  0  0  0  0  0  0  0  0
    0.7844   -1.8007    0.0638 H   0  0  0  0  0  0  0  0  0  0  0  0
    2.2959   -2.6208    0.6074 H   0  0  0  0  0  0  0  0  0  0  0  0
    3.8444   -3.4242   -1.4625 H   0  0  0  0  0  0  0  0  0  0  0  0
    3.7250   -5.0497   -3.3474 H   0  0  0  0  0  0  0  0  0  0  0  0
    1.5117   -5.7019   -4.2975 H   0  0  0  0  0  0  0  0  0  0  0  0
   -0.5769   -4.7057   -3.3608 H   0  0  0  0  0  0  0  0  0  0  0  0
   -0.4459   -3.0489   -1.5171 H   0  0  0  0  0  0  0  0  0  0  0  0
  1  2  1  0
  1 38  1  0
  1 39  1  0
  1 40  1  0
  2  3  2  0
  2 30  1  0
  3  4  1  0
  4  5  2  0
  4 29  1  0
  5  6  1  0
  5 41  1  0
  6  7  1  0
  6 13  2  0
  7  8  1  0
  7 42  1  0
  8  9  2  0
  8 10  1  0
 10 11  1  0
 10 12  1  0
 10 43  1  1
 11 44  1  0
 11 45  1  0
 11 46  1  0
 12 47  1  0
 12 48  1  0
 12 49  1  0
 13 14  1  0
 13 50  1  0
 14 15  1  0
 14 29  2  0
 15 16  2  0
 15 17  1  0
 17 18  1  0
 17 26  1  0
 18 19  1  0
 18 51  1  0
 18 52  1  0
 19 20  1  6
 19 21  1  0
 19 25  1  0
 21 22  1  0
 21 53  1  0
 21 54  1  0
 22 23  1  0
 22 55  1  0
 22 56  1  0
 23 24  2  0
 23 25  1  0
 25 57  1  0
 26 27  1  0
 26 28  1  0
 26 58  1  1
 27 59  1  0
 27 60  1  0
 27 61  1  0
 28 62  1  0
 28 63  1  0
 28 64  1  0
 29 30  1  0
 30 31  1  0
 31 32  1  0
 31 65  1  0
 31 66  1  0
 32 33  2  0
 32 37  1  0
 33 34  1  0
 33 67  1  0
 34 35  2  0
 34 68  1  0
 35 36  1  0
 35 69  1  0
 36 37  2  0
 36 70  1  0
 37 71  1  0
M  END

