
     RDKit          3D

 57 61  0  0  0  0  0  0  0  0999 V2000
    5.1256   -9.2407   -3.6294 C   0  0  0  0  0  0  0  0  0  0  0  0
    5.9805   -8.2303   -2.9266 C   0  0  0  0  0  0  0  0  0  0  0  0
    6.7853   -7.2050   -3.4902 C   0  0  0  0  0  0  0  0  0  0  0  0
    7.3753   -6.5619   -2.4121 C   0  0  0  0  0  0  0  0  0  0  0  0
    8.3226   -5.4062   -2.3589 C   0  0  0  0  0  0  0  0  0  0  0  0
    6.9212   -7.2112   -1.2977 N   0  0  0  0  0  0  0  0  0  0  0  0
    7.1796   -6.8901    0.0948 C   0  0  0  0  0  0  0  0  0  0  0  0
    6.2343   -5.8568    0.6876 C   0  0  0  0  0  0  0  0  0  0  0  0
    6.7209   -4.8166    1.4904 C   0  0  0  0  0  0  0  0  0  0  0  0
    5.8304   -3.8997    2.0561 C   0  0  0  0  0  0  0  0  0  0  0  0
    4.4558   -3.9899    1.8327 C   0  0  0  0  0  0  0  0  0  0  0  0
    3.9633   -5.0289    1.0217 C   0  0  0  0  0  0  0  0  0  0  0  0
    2.5942   -5.2023    0.7276 N   0  0  0  0  0  0  0  0  0  0  0  0
    1.5129   -4.4520    1.1218 C   0  0  0  0  0  0  0  0  0  0  0  0
    1.5918   -3.4867    1.8675 O   0  0  0  0  0  0  0  0  0  0  0  0
    0.1858   -4.9027    0.4975 C   0  0  1  0  0  0  0  0  0  0  0  0
   -1.0022   -4.7153    1.4650 C   0  0  0  0  0  0  0  0  0  0  0  0
   -1.4570   -3.2507    1.5933 C   0  0  0  0  0  0  0  0  0  0  0  0
   -1.7076   -2.6617    0.2773 N   0  0  0  0  0  0  0  0  0  0  0  0
   -2.9549   -2.5500   -0.2847 C   0  0  0  0  0  0  0  0  0  0  0  0
   -4.1486   -2.4683    0.5440 C   0  0  0  0  0  0  0  0  0  0  0  0
   -5.3741   -2.2973   -0.0311 C   0  0  0  0  0  0  0  0  0  0  0  0
   -5.4268   -2.2012   -1.4466 C   0  0  0  0  0  0  0  0  0  0  0  0
   -6.3885   -2.0326   -2.3505 N   0  0  0  0  0  0  0  0  0  0  0  0
   -5.7710   -2.0187   -3.5365 N   0  0  0  0  0  0  0  0  0  0  0  0
   -4.4794   -2.1679   -3.4298 N   0  0  0  0  0  0  0  0  0  0  0  0
   -4.2352   -2.2844   -2.1187 N   0  0  0  0  0  0  0  0  0  0  0  0
   -3.0176   -2.4742   -1.6087 N   0  0  0  0  0  0  0  0  0  0  0  0
   -0.5199   -2.6953   -0.5802 C   0  0  0  0  0  0  0  0  0  0  0  0
   -0.0708   -4.1401   -0.8300 C   0  0  0  0  0  0  0  0  0  0  0  0
    4.8577   -5.9553    0.4614 C   0  0  0  0  0  0  0  0  0  0  0  0
    6.0700   -8.2167   -1.5980 N   0  0  0  0  0  0  0  0  0  0  0  0
    4.3593   -8.7569   -4.2576 H   0  0  0  0  0  0  0  0  0  0  0  0
    4.6190   -9.8793   -2.8921 H   0  0  0  0  0  0  0  0  0  0  0  0
    5.7256   -9.8877   -4.2908 H   0  0  0  0  0  0  0  0  0  0  0  0
    6.9277   -6.9688   -4.5429 H   0  0  0  0  0  0  0  0  0  0  0  0
    8.5244   -5.0409   -3.3750 H   0  0  0  0  0  0  0  0  0  0  0  0
    9.2900   -5.6858   -1.9073 H   0  0  0  0  0  0  0  0  0  0  0  0
    7.9155   -4.5664   -1.7717 H   0  0  0  0  0  0  0  0  0  0  0  0
    8.2190   -6.5446    0.1936 H   0  0  0  0  0  0  0  0  0  0  0  0
    7.0956   -7.8402    0.6446 H   0  0  0  0  0  0  0  0  0  0  0  0
    7.7947   -4.7232    1.6747 H   0  0  0  0  0  0  0  0  0  0  0  0
    6.2127   -3.0894    2.6823 H   0  0  0  0  0  0  0  0  0  0  0  0
    3.7629   -3.2756    2.2700 H   0  0  0  0  0  0  0  0  0  0  0  0
    2.3920   -5.9902    0.1231 H   0  0  0  0  0  0  0  0  0  0  0  0
    0.2681   -5.9775    0.2624 H   0  0  0  0  0  0  0  0  0  0  0  0
   -0.7461   -5.1041    2.4637 H   0  0  0  0  0  0  0  0  0  0  0  0
   -1.8470   -5.3183    1.0899 H   0  0  0  0  0  0  0  0  0  0  0  0
   -0.6668   -2.6679    2.0871 H   0  0  0  0  0  0  0  0  0  0  0  0
   -2.3523   -3.1938    2.2231 H   0  0  0  0  0  0  0  0  0  0  0  0
   -4.0632   -2.5156    1.6276 H   0  0  0  0  0  0  0  0  0  0  0  0
   -6.2918   -2.2204    0.5532 H   0  0  0  0  0  0  0  0  0  0  0  0
    0.2762   -2.1331   -0.0659 H   0  0  0  0  0  0  0  0  0  0  0  0
   -0.7485   -2.1945   -1.5269 H   0  0  0  0  0  0  0  0  0  0  0  0
    0.8345   -4.1473   -1.4593 H   0  0  0  0  0  0  0  0  0  0  0  0
   -0.8585   -4.6629   -1.3971 H   0  0  0  0  0  0  0  0  0  0  0  0
    4.4850   -6.7711   -0.1654 H   0  0  0  0  0  0  0  0  0  0  0  0
  1  2  1  0
  1 33  1  0
  1 34  1  0
  1 35  1  0
  2  3  1  0
  2 32  2  0
  3  4  2  0
  3 36  1  0
  4  5  1  0
  4  6  1  0
  5 37  1  0
  5 38  1  0
  5 39  1  0
  6  7  1  0
  6 32  1  0
  7  8  1  0
  7 40  1  0
  7 41  1  0
  8  9  2  0
  8 31  1  0
  9 10  1  0
  9 42  1  0
 10 11  2  0
 10 43  1  0
 11 12  1  0
 11 44  1  0
 12 13  1  0
 12 31  2  0
 13 14  1  0
 13 45  1  0
 14 15  2  0
 14 16  1  0
 16 17  1  0
 16 30  1  0
 16 46  1  6
 17 18  1  0
 17 47  1  0
 17 48  1  0
 18 19  1  0
 18 49  1  0
 18 50  1  0
 19 20  1  0
 19 29  1  0
 20 21  1  0
 20 28  2  0
 21 22  2  0
 21 51  1  0
 22 23  1  0
 22 52  1  0
 23 24  2  0
 23 27  1  0
 24 25  1  0
 25 26  2  0
 26 27  1  0
 27 28  1  0
 29 30  1  0
 29 53  1  0
 29 54  1  0
 30 55  1  0
 30 56  1  0
 31 57  1  0
M  END

