
     RDKit          3D

 32 32  0  0  0  0  0  0  0  0999 V2000
    1.3430    0.4966   -0.0545 C   0  0  0  0  0  0  0  0  0  0  0  0
    2.7048    0.1670    0.0233 O   0  0  0  0  0  0  0  0  0  0  0  0
    3.0167   -0.7845    1.0017 C   0  0  0  0  0  0  0  0  0  0  0  0
    4.5378   -0.9652    1.0365 C   0  0  1  0  0  0  0  0  0  0  0  0
    5.1991    0.2799    1.4244 N   0  0  0  0  0  0  0  0  0  0  0  0
    5.7453    1.1574    0.5363 C   0  0  0  0  0  0  0  0  0  0  0  0
    6.0447    0.6475   -0.6565 O   0  0  0  0  0  0  0  0  0  0  0  0
    6.0216    2.4754    0.8780 C   0  0  0  0  0  0  0  0  0  0  0  0
    6.6388    3.5633    0.2127 C   0  0  0  0  0  0  0  0  0  0  0  0
    6.6086    4.6385    1.1287 C   0  0  0  0  0  0  0  0  0  0  0  0
    6.0016    4.1934    2.2802 C   0  0  0  0  0  0  0  0  0  0  0  0
    5.6342    2.8759    2.1545 O   0  0  0  0  0  0  0  0  0  0  0  0
    4.9970   -2.1573    1.9119 C   0  0  1  0  0  0  0  0  0  0  0  0
    6.4828   -2.4589    1.6833 C   0  0  0  0  0  0  0  0  0  0  0  0
    4.6967   -1.9660    3.4063 C   0  0  0  0  0  0  0  0  0  0  0  0
    1.2262    1.2485   -0.8478 H   0  0  0  0  0  0  0  0  0  0  0  0
    0.9652    0.9244    0.8964 H   0  0  0  0  0  0  0  0  0  0  0  0
    0.7163   -0.3833   -0.3053 H   0  0  0  0  0  0  0  0  0  0  0  0
    2.5325   -1.7602    0.7826 H   0  0  0  0  0  0  0  0  0  0  0  0
    2.6457   -0.4586    1.9976 H   0  0  0  0  0  0  0  0  0  0  0  0
    4.8448   -1.1721   -0.0005 H   0  0  0  0  0  0  0  0  0  0  0  0
    4.9099    0.7226    2.2910 H   0  0  0  0  0  0  0  0  0  0  0  0
    7.0450    3.5591   -0.7947 H   0  0  0  0  0  0  0  0  0  0  0  0
    6.9932    5.6439    0.9648 H   0  0  0  0  0  0  0  0  0  0  0  0
    5.7681    4.6638    3.2306 H   0  0  0  0  0  0  0  0  0  0  0  0
    4.4159   -3.0291    1.5600 H   0  0  0  0  0  0  0  0  0  0  0  0
    7.1080   -1.6063    1.9925 H   0  0  0  0  0  0  0  0  0  0  0  0
    6.6949   -2.6591    0.6210 H   0  0  0  0  0  0  0  0  0  0  0  0
    6.7992   -3.3401    2.2634 H   0  0  0  0  0  0  0  0  0  0  0  0
    5.2502   -1.1060    3.8194 H   0  0  0  0  0  0  0  0  0  0  0  0
    5.0111   -2.8535    3.9774 H   0  0  0  0  0  0  0  0  0  0  0  0
    3.6248   -1.8114    3.6066 H   0  0  0  0  0  0  0  0  0  0  0  0
  1  2  1  0
  1 16  1  0
  1 17  1  0
  1 18  1  0
  2  3  1  0
  3  4  1  0
  3 19  1  0
  3 20  1  0
  4  5  1  0
  4 13  1  0
  4 21  1  6
  5  6  1  0
  5 22  1  0
  6  7  2  0
  6  8  1  0
  8  9  2  0
  8 12  1  0
  9 10  1  0
  9 23  1  0
 10 11  2  0
 10 24  1  0
 11 12  1  0
 11 25  1  0
 13 14  1  0
 13 15  1  0
 13 26  1  6
 14 27  1  0
 14 28  1  0
 14 29  1  0
 15 30  1  0
 15 31  1  0
 15 32  1  0
M  END

