
     RDKit          3D

 40 40  0  0  0  0  0  0  0  0999 V2000
    1.6473   -0.6736   -2.9100 C   0  0  0  0  0  0  0  0  0  0  0  0
    2.4336   -0.5521   -1.6161 C   0  0  1  0  0  0  0  0  0  0  0  0
    1.3521   -0.8833   -0.1765 Cl  0  0  0  0  0  0  0  0  0  0  0  0
    3.6249   -1.4880   -1.5494 C   0  0  0  0  0  0  0  0  0  0  0  0
    4.3560   -1.4761   -2.6769 O   0  0  0  0  0  0  0  0  0  0  0  0
    4.3597   -1.4982   -0.3705 N   0  0  0  0  0  0  0  0  0  0  0  0
    5.4697   -2.4585   -0.2158 C   0  0  1  0  0  0  0  0  0  0  0  0
    6.2555   -2.0830    1.0506 C   0  0  0  0  0  0  0  0  0  0  0  0
    5.4905   -2.4020    2.3408 C   0  0  0  0  0  0  0  0  0  0  0  0
    5.0631   -3.8727    2.3772 C   0  0  0  0  0  0  0  0  0  0  0  0
    4.2740   -4.2692    1.1181 C   0  0  0  0  0  0  0  0  0  0  0  0
    4.9513   -3.9341   -0.2366 C   0  0  2  0  0  0  0  0  0  0  0  0
    5.9316   -5.0232   -0.8178 C   0  0  1  0  0  0  0  0  0  0  0  0
    5.0958   -6.2735   -1.1749 C   0  0  0  0  0  0  0  0  0  0  0  0
    6.5688   -4.5083   -2.1275 C   0  0  0  0  0  0  0  0  0  0  0  0
    7.0603   -5.4627    0.1363 C   0  0  0  0  0  0  0  0  0  0  0  0
    0.7978    0.0235   -2.9136 H   0  0  0  0  0  0  0  0  0  0  0  0
    1.2733   -1.6991   -3.0432 H   0  0  0  0  0  0  0  0  0  0  0  0
    2.3092   -0.4288   -3.7571 H   0  0  0  0  0  0  0  0  0  0  0  0
    2.7643    0.4937   -1.4602 H   0  0  0  0  0  0  0  0  0  0  0  0
    3.7330   -1.4436    0.4304 H   0  0  0  0  0  0  0  0  0  0  0  0
    6.1185   -2.2903   -1.0846 H   0  0  0  0  0  0  0  0  0  0  0  0
    6.5098   -1.0119    1.0005 H   0  0  0  0  0  0  0  0  0  0  0  0
    7.2079   -2.6367    1.0498 H   0  0  0  0  0  0  0  0  0  0  0  0
    4.5981   -1.7531    2.4229 H   0  0  0  0  0  0  0  0  0  0  0  0
    6.1135   -2.1563    3.2168 H   0  0  0  0  0  0  0  0  0  0  0  0
    4.4448   -4.0666    3.2702 H   0  0  0  0  0  0  0  0  0  0  0  0
    5.9596   -4.5041    2.4852 H   0  0  0  0  0  0  0  0  0  0  0  0
    3.3058   -3.7371    1.1441 H   0  0  0  0  0  0  0  0  0  0  0  0
    4.0126   -5.3377    1.1604 H   0  0  0  0  0  0  0  0  0  0  0  0
    4.1374   -3.9108   -0.9822 H   0  0  0  0  0  0  0  0  0  0  0  0
    4.3132   -6.0326   -1.9126 H   0  0  0  0  0  0  0  0  0  0  0  0
    4.6037   -6.7125   -0.2934 H   0  0  0  0  0  0  0  0  0  0  0  0
    5.7379   -7.0550   -1.6124 H   0  0  0  0  0  0  0  0  0  0  0  0
    5.8146   -4.0646   -2.7976 H   0  0  0  0  0  0  0  0  0  0  0  0
    7.0549   -5.3375   -2.6664 H   0  0  0  0  0  0  0  0  0  0  0  0
    7.3444   -3.7480   -1.9451 H   0  0  0  0  0  0  0  0  0  0  0  0
    6.6698   -5.9447    1.0452 H   0  0  0  0  0  0  0  0  0  0  0  0
    7.7023   -4.6235    0.4446 H   0  0  0  0  0  0  0  0  0  0  0  0
    7.7093   -6.1987   -0.3666 H   0  0  0  0  0  0  0  0  0  0  0  0
  1  2  1  0
  1 17  1  0
  1 18  1  0
  1 19  1  0
  2  3  1  0
  2  4  1  0
  2 20  1  6
  4  5  2  0
  4  6  1  0
  6  7  1  0
  6 21  1  0
  7  8  1  0
  7 12  1  0
  7 22  1  6
  8  9  1  0
  8 23  1  0
  8 24  1  0
  9 10  1  0
  9 25  1  0
  9 26  1  0
 10 11  1  0
 10 27  1  0
 10 28  1  0
 11 12  1  0
 11 29  1  0
 11 30  1  0
 12 13  1  0
 12 31  1  6
 13 14  1  6
 13 15  1  0
 13 16  1  0
 14 32  1  0
 14 33  1  0
 14 34  1  0
 15 35  1  0
 15 36  1  0
 15 37  1  0
 16 38  1  0
 16 39  1  0
 16 40  1  0
M  END

