
     RDKit          3D

 51 54  0  0  0  0  0  0  0  0999 V2000
    0.7337   -0.2065    0.2414 C   0  0  0  0  0  0  0  0  0  0  0  0
    2.2596   -0.1032    0.1263 C   0  0  0  0  0  0  0  0  0  0  0  0
    2.7789   -0.5694   -1.2176 C   0  0  0  0  0  0  0  0  0  0  0  0
    3.4769    0.3367   -2.0587 C   0  0  0  0  0  0  0  0  0  0  0  0
    3.9395   -0.0987   -3.3015 C   0  0  0  0  0  0  0  0  0  0  0  0
    4.6015    0.5986   -4.2465 N   0  0  0  0  0  0  0  0  0  0  0  0
    5.0256    1.9783   -4.0976 C   0  0  0  0  0  0  0  0  0  0  0  0
    5.5442    2.5148   -5.4280 C   0  0  0  0  0  0  0  0  0  0  0  0
    5.9603    3.9827   -5.3023 C   0  0  0  0  0  0  0  0  0  0  0  0
    5.8538    4.5622   -4.2312 O   0  0  0  0  0  0  0  0  0  0  0  0
    6.4477    4.6027   -6.4253 N   0  0  0  0  0  0  0  0  0  0  0  0
    6.8125    6.0177   -6.3642 C   0  0  0  0  0  0  0  0  0  0  0  0
    8.2110    6.2454   -6.9396 C   0  0  0  0  0  0  0  0  0  0  0  0
    8.3166    5.6536   -8.2665 N   0  0  0  0  0  0  0  0  0  0  0  0
    8.8330    6.3338   -9.3412 C   0  0  0  0  0  0  0  0  0  0  0  0
    9.1896    7.6201   -9.1521 N   0  0  0  0  0  0  0  0  0  0  0  0
    9.6753    8.2706  -10.2035 C   0  0  0  0  0  0  0  0  0  0  0  0
    9.8251    7.6780  -11.4604 C   0  0  0  0  0  0  0  0  0  0  0  0
    9.4280    6.3410  -11.5441 C   0  0  0  0  0  0  0  0  0  0  0  0
    8.9392    5.6670  -10.5087 N   0  0  0  0  0  0  0  0  0  0  0  0
    7.9630    4.2465   -8.3345 C   0  0  0  0  0  0  0  0  0  0  0  0
    6.5618    4.0165   -7.7558 C   0  0  0  0  0  0  0  0  0  0  0  0
    3.6720   -1.4089   -3.5906 N   0  0  0  0  0  0  0  0  0  0  0  0
    4.0263   -2.0616   -4.7216 N   0  0  0  0  0  0  0  0  0  0  0  0
    3.5316   -3.2775   -4.4852 C   0  0  0  0  0  0  0  0  0  0  0  0
    2.8967   -3.4561   -3.3107 N   0  0  0  0  0  0  0  0  0  0  0  0
    2.9804   -2.2595   -2.7243 C   0  0  0  0  0  0  0  0  0  0  0  0
    2.5324   -1.8360   -1.5382 N   0  0  0  0  0  0  0  0  0  0  0  0
    0.3963    0.0772    1.2507 H   0  0  0  0  0  0  0  0  0  0  0  0
    0.4081   -1.2379    0.0410 H   0  0  0  0  0  0  0  0  0  0  0  0
    0.2324    0.4554   -0.4833 H   0  0  0  0  0  0  0  0  0  0  0  0
    2.7225   -0.7400    0.8998 H   0  0  0  0  0  0  0  0  0  0  0  0
    2.5926    0.9292    0.3171 H   0  0  0  0  0  0  0  0  0  0  0  0
    3.6548    1.3619   -1.7394 H   0  0  0  0  0  0  0  0  0  0  0  0
    4.8951    0.0485   -5.0498 H   0  0  0  0  0  0  0  0  0  0  0  0
    5.8073    2.0794   -3.3245 H   0  0  0  0  0  0  0  0  0  0  0  0
    4.1805    2.5985   -3.7591 H   0  0  0  0  0  0  0  0  0  0  0  0
    4.7635    2.4094   -6.2011 H   0  0  0  0  0  0  0  0  0  0  0  0
    6.4032    1.9095   -5.7676 H   0  0  0  0  0  0  0  0  0  0  0  0
    6.7598    6.3320   -5.3149 H   0  0  0  0  0  0  0  0  0  0  0  0
    6.0778    6.6088   -6.9428 H   0  0  0  0  0  0  0  0  0  0  0  0
    8.9623    5.7862   -6.2676 H   0  0  0  0  0  0  0  0  0  0  0  0
    8.4306    7.3161   -7.0176 H   0  0  0  0  0  0  0  0  0  0  0  0
    9.9616    9.3170  -10.0388 H   0  0  0  0  0  0  0  0  0  0  0  0
   10.2270    8.2210  -12.3162 H   0  0  0  0  0  0  0  0  0  0  0  0
    9.5094    5.7895  -12.4892 H   0  0  0  0  0  0  0  0  0  0  0  0
    8.6941    3.6487   -7.7542 H   0  0  0  0  0  0  0  0  0  0  0  0
    8.0088    3.9244   -9.3811 H   0  0  0  0  0  0  0  0  0  0  0  0
    6.3572    2.9402   -7.7231 H   0  0  0  0  0  0  0  0  0  0  0  0
    5.8138    4.4787   -8.4285 H   0  0  0  0  0  0  0  0  0  0  0  0
    3.6478   -4.0734   -5.2222 H   0  0  0  0  0  0  0  0  0  0  0  0
  1  2  1  0
  1 29  1  0
  1 30  1  0
  1 31  1  0
  2  3  1  0
  2 32  1  0
  2 33  1  0
  3  4  1  0
  3 28  2  0
  4  5  2  0
  4 34  1  0
  5  6  1  0
  5 23  1  0
  6  7  1  0
  6 35  1  0
  7  8  1  0
  7 36  1  0
  7 37  1  0
  8  9  1  0
  8 38  1  0
  8 39  1  0
  9 10  2  0
  9 11  1  0
 11 12  1  0
 11 22  1  0
 12 13  1  0
 12 40  1  0
 12 41  1  0
 13 14  1  0
 13 42  1  0
 13 43  1  0
 14 15  1  0
 14 21  1  0
 15 16  2  0
 15 20  1  0
 16 17  1  0
 17 18  2  0
 17 44  1  0
 18 19  1  0
 18 45  1  0
 19 20  2  0
 19 46  1  0
 21 22  1  0
 21 47  1  0
 21 48  1  0
 22 49  1  0
 22 50  1  0
 23 24  1  0
 23 27  1  0
 24 25  2  0
 25 26  1  0
 25 51  1  0
 26 27  2  0
 27 28  1  0
M  END

