
     RDKit          3D

 47 50  0  0  0  0  0  0  0  0999 V2000
    1.0306   -0.3097   -0.1129 O   0  0  0  0  0  0  0  0  0  0  0  0
    2.1296    0.1605    0.1423 C   0  0  0  0  0  0  0  0  0  0  0  0
    2.6279    1.4217   -0.5639 C   0  0  0  0  0  0  0  0  0  0  0  0
    1.5603    1.9726   -1.5309 C   0  0  0  0  0  0  0  0  0  0  0  0
    2.0058    3.2181   -2.2006 C   0  0  0  0  0  0  0  0  0  0  0  0
    2.3040    3.3500   -3.5997 C   0  0  0  0  0  0  0  0  0  0  0  0
    2.7417    4.6007   -3.7945 N   0  0  0  0  0  0  0  0  0  0  0  0
    3.0138    4.9823   -4.6945 H   0  0  0  0  0  0  0  0  0  0  0  0
    2.7598    5.3453   -2.5843 C   0  0  0  0  0  0  0  0  0  0  0  0
    3.1851    6.6819   -2.3795 C   0  0  0  0  0  0  0  0  0  0  0  0
    3.0865    7.1247   -1.0131 C   0  0  0  0  0  0  0  0  0  0  0  0
    2.6146    6.3126    0.0059 C   0  0  0  0  0  0  0  0  0  0  0  0
    2.1929    4.9590   -0.2274 C   0  0  0  0  0  0  0  0  0  0  0  0
    2.2894    4.5029   -1.5776 C   0  0  0  0  0  0  0  0  0  0  0  0
    2.9691   -0.4222    1.0621 N   0  0  0  0  0  0  0  0  0  0  0  0
    2.5301   -1.6107    1.7854 C   0  0  0  0  0  0  0  0  0  0  0  0
    3.6203   -2.6700    1.7123 C   0  0  0  0  0  0  0  0  0  0  0  0
    4.8686   -2.1700    2.1767 O   0  0  0  0  0  0  0  0  0  0  0  0
    5.3358   -1.0106    1.5007 C   0  0  1  0  0  0  0  0  0  0  0  0
    6.1670   -0.6459    2.1297 H   0  0  0  0  0  0  0  0  0  0  0  0
    5.9225   -1.3302    0.1213 C   0  0  0  0  0  0  0  0  0  0  0  0
    6.1894   -0.3252   -0.8226 C   0  0  0  0  0  0  0  0  0  0  0  0
    6.8011   -0.6279   -2.0432 C   0  0  0  0  0  0  0  0  0  0  0  0
    7.1595   -1.9444   -2.3437 C   0  0  0  0  0  0  0  0  0  0  0  0
    6.9137   -2.9510   -1.4060 C   0  0  0  0  0  0  0  0  0  0  0  0
    6.3079   -2.6448   -0.1845 C   0  0  0  0  0  0  0  0  0  0  0  0
    4.2506    0.0880    1.5250 C   0  0  0  0  0  0  0  0  0  0  0  0
    3.5522    1.1884   -1.1179 H   0  0  0  0  0  0  0  0  0  0  0  0
    2.8951    2.2005    0.1701 H   0  0  0  0  0  0  0  0  0  0  0  0
    0.6469    2.1745   -0.9438 H   0  0  0  0  0  0  0  0  0  0  0  0
    1.2942    1.1976   -2.2640 H   0  0  0  0  0  0  0  0  0  0  0  0
    2.1987    2.6251   -4.4036 H   0  0  0  0  0  0  0  0  0  0  0  0
    3.5561    7.3212   -3.1793 H   0  0  0  0  0  0  0  0  0  0  0  0
    3.3955    8.1468   -0.7749 H   0  0  0  0  0  0  0  0  0  0  0  0
    2.5568    6.7174    1.0200 H   0  0  0  0  0  0  0  0  0  0  0  0
    1.7469    4.3527    0.5606 H   0  0  0  0  0  0  0  0  0  0  0  0
    1.5946   -1.9632    1.3332 H   0  0  0  0  0  0  0  0  0  0  0  0
    2.3322   -1.3478    2.8421 H   0  0  0  0  0  0  0  0  0  0  0  0
    3.7069   -3.0354    0.6720 H   0  0  0  0  0  0  0  0  0  0  0  0
    3.3751   -3.5255    2.3598 H   0  0  0  0  0  0  0  0  0  0  0  0
    5.9416    0.7171   -0.6085 H   0  0  0  0  0  0  0  0  0  0  0  0
    7.0009    0.1730   -2.7600 H   0  0  0  0  0  0  0  0  0  0  0  0
    7.6348   -2.1825   -3.2986 H   0  0  0  0  0  0  0  0  0  0  0  0
    7.2012   -3.9833   -1.6225 H   0  0  0  0  0  0  0  0  0  0  0  0
    6.1389   -3.4295    0.5545 H   0  0  0  0  0  0  0  0  0  0  0  0
    4.5628    0.9562    0.9372 H   0  0  0  0  0  0  0  0  0  0  0  0
    4.1481    0.4259    2.5735 H   0  0  0  0  0  0  0  0  0  0  0  0
  1  2  2  0
  2  3  1  0
  2 15  1  0
  3  4  1  0
  3 28  1  0
  3 29  1  0
  4  5  1  0
  4 30  1  0
  4 31  1  0
  5  6  2  0
  5 14  1  0
  6  7  1  0
  6 32  1  0
  7  8  1  0
  7  9  1  0
  9 10  1  0
  9 14  2  0
 10 11  2  0
 10 33  1  0
 11 12  1  0
 11 34  1  0
 12 13  2  0
 12 35  1  0
 13 14  1  0
 13 36  1  0
 15 16  1  0
 15 27  1  0
 16 17  1  0
 16 37  1  0
 16 38  1  0
 17 18  1  0
 17 39  1  0
 17 40  1  0
 18 19  1  0
 19 20  1  1
 19 21  1  0
 19 27  1  0
 21 22  2  0
 21 26  1  0
 22 23  1  0
 22 41  1  0
 23 24  2  0
 23 42  1  0
 24 25  1  0
 24 43  1  0
 25 26  2  0
 25 44  1  0
 26 45  1  0
 27 46  1  0
 27 47  1  0
M  END

