
     RDKit          3D

 43 44  0  0  0  0  0  0  0  0999 V2000
    1.1604   -0.0992   -0.0428 C   0  0  0  0  0  0  0  0  0  0  0  0
    2.6428    0.2594    0.1445 C   0  0  1  0  0  0  0  0  0  0  0  0
    2.8122    1.2204    1.3318 C   0  0  0  0  0  0  0  0  0  0  0  0
    3.4810   -1.0309    0.3739 C   0  0  0  0  0  0  0  0  0  0  0  0
    3.1388   -1.7671    1.5913 C   0  0  0  0  0  0  0  0  0  0  0  0
    2.8578   -2.3422    2.5580 N   0  0  0  0  0  0  0  0  0  0  0  0
    3.1669    0.9254   -1.1521 C   0  0  0  0  0  0  0  0  0  0  0  0
    4.5709    1.2425   -1.0863 N   0  0  0  0  0  0  0  0  0  0  0  0
    5.1039    1.9591   -2.0097 C   0  0  0  0  0  0  0  0  0  0  0  0
    4.4639    2.4152   -3.1564 N   0  0  0  0  0  0  0  0  0  0  0  0
    6.4379    2.3320   -1.9457 N   0  0  0  0  0  0  0  0  0  0  0  0
    7.3236    1.7918   -0.9061 C   0  0  2  0  0  0  0  0  0  0  0  0
    7.2247    2.6069    0.3924 C   0  0  0  0  0  0  0  0  0  0  0  0
    7.9461    3.9317    0.2211 C   0  0  0  0  0  0  0  0  0  0  0  0
    9.3321    3.7480   -0.0656 O   0  0  0  0  0  0  0  0  0  0  0  0
    9.6663    2.7777   -0.9533 C   0  0  0  0  0  0  0  0  0  0  0  0
   10.9987    2.7638   -1.4015 C   0  0  0  0  0  0  0  0  0  0  0  0
   11.4241    1.7942   -2.3045 C   0  0  0  0  0  0  0  0  0  0  0  0
   10.5304    0.8208   -2.7723 C   0  0  0  0  0  0  0  0  0  0  0  0
    9.2132    0.8317   -2.3161 C   0  0  0  0  0  0  0  0  0  0  0  0
    8.7569    1.7989   -1.4054 C   0  0  0  0  0  0  0  0  0  0  0  0
    0.7550   -0.5963    0.8522 H   0  0  0  0  0  0  0  0  0  0  0  0
    1.0145   -0.7776   -0.9001 H   0  0  0  0  0  0  0  0  0  0  0  0
    0.5583    0.8061   -0.2242 H   0  0  0  0  0  0  0  0  0  0  0  0
    2.4798    0.7568    2.2736 H   0  0  0  0  0  0  0  0  0  0  0  0
    2.2145    2.1335    1.1758 H   0  0  0  0  0  0  0  0  0  0  0  0
    3.8650    1.5193    1.4416 H   0  0  0  0  0  0  0  0  0  0  0  0
    4.5470   -0.7563    0.4062 H   0  0  0  0  0  0  0  0  0  0  0  0
    3.3561   -1.7146   -0.4837 H   0  0  0  0  0  0  0  0  0  0  0  0
    2.5385    1.8284   -1.3267 H   0  0  0  0  0  0  0  0  0  0  0  0
    2.9505    0.2387   -1.9992 H   0  0  0  0  0  0  0  0  0  0  0  0
    3.4531    2.3524   -3.1567 H   0  0  0  0  0  0  0  0  0  0  0  0
    4.8100    3.2827   -3.5530 H   0  0  0  0  0  0  0  0  0  0  0  0
    6.8840    2.4807   -2.8443 H   0  0  0  0  0  0  0  0  0  0  0  0
    7.0136    0.7545   -0.6964 H   0  0  0  0  0  0  0  0  0  0  0  0
    7.6839    2.0378    1.2183 H   0  0  0  0  0  0  0  0  0  0  0  0
    6.1686    2.7717    0.6481 H   0  0  0  0  0  0  0  0  0  0  0  0
    7.9107    4.5455    1.1322 H   0  0  0  0  0  0  0  0  0  0  0  0
    7.4802    4.5057   -0.6022 H   0  0  0  0  0  0  0  0  0  0  0  0
   11.6767    3.5317   -1.0234 H   0  0  0  0  0  0  0  0  0  0  0  0
   12.4622    1.7957   -2.6470 H   0  0  0  0  0  0  0  0  0  0  0  0
   10.8635    0.0557   -3.4772 H   0  0  0  0  0  0  0  0  0  0  0  0
    8.5116    0.0646   -2.6590 H   0  0  0  0  0  0  0  0  0  0  0  0
  2  1  1  6
  1 22  1  0
  1 23  1  0
  1 24  1  0
  2  3  1  0
  2  4  1  0
  2  7  1  0
  3 25  1  0
  3 26  1  0
  3 27  1  0
  4  5  1  0
  4 28  1  0
  4 29  1  0
  5  6  3  0
  7  8  1  0
  7 30  1  0
  7 31  1  0
  8  9  2  0
  9 10  1  0
  9 11  1  0
 10 32  1  0
 10 33  1  0
 11 12  1  0
 11 34  1  0
 12 13  1  0
 12 21  1  0
 12 35  1  1
 13 14  1  0
 13 36  1  0
 13 37  1  0
 14 15  1  0
 14 38  1  0
 14 39  1  0
 15 16  1  0
 16 17  1  0
 16 21  2  0
 17 18  2  0
 17 40  1  0
 18 19  1  0
 18 41  1  0
 19 20  2  0
 19 42  1  0
 20 21  1  0
 20 43  1  0
M  END

