
     RDKit          3D

 46 48  0  0  0  0  0  0  0  0999 V2000
    3.9537    0.9289    1.9001 C   0  0  0  0  0  0  0  0  0  0  0  0
    4.6379    1.5499    0.9377 C   0  0  0  0  0  0  0  0  0  0  0  0
    5.3525    0.8783   -0.1977 C   0  0  0  0  0  0  0  0  0  0  0  0
    5.0813   -0.5060   -0.1960 O   0  0  0  0  0  0  0  0  0  0  0  0
    5.7030   -1.3162   -1.0913 C   0  0  0  0  0  0  0  0  0  0  0  0
    6.6230   -0.8877   -2.0553 C   0  0  0  0  0  0  0  0  0  0  0  0
    7.2316   -1.8089   -2.9165 C   0  0  0  0  0  0  0  0  0  0  0  0
    6.9354   -3.1705   -2.8391 C   0  0  0  0  0  0  0  0  0  0  0  0
    7.6280   -4.1775   -3.7652 C   0  0  2  0  0  0  0  0  0  0  0  0
    6.6514   -5.1601   -4.4019 C   0  0  0  0  0  0  0  0  0  0  0  0
    5.6861   -4.6964   -5.3368 C   0  0  0  0  0  0  0  0  0  0  0  0
    4.8817   -4.3570   -6.1078 N   0  0  0  0  0  0  0  0  0  0  0  0
    6.6221   -6.4868   -4.0779 C   0  0  0  0  0  0  0  0  0  0  0  0
    5.7894   -7.4383   -4.5765 N   0  0  0  0  0  0  0  0  0  0  0  0
    7.5123   -7.0438   -3.1938 O   0  0  0  0  0  0  0  0  0  0  0  0
    8.5603   -6.2867   -2.7827 C   0  0  0  0  0  0  0  0  0  0  0  0
    9.4803   -7.0219   -2.0803 N   0  0  0  0  0  0  0  0  0  0  0  0
    9.3277   -8.0128   -1.9236 H   0  0  0  0  0  0  0  0  0  0  0  0
   10.6655   -6.4816   -1.5773 C   0  0  0  0  0  0  0  0  0  0  0  0
   11.4696   -7.1390   -0.9573 O   0  0  0  0  0  0  0  0  0  0  0  0
   10.8090   -5.1398   -1.8775 N   0  0  0  0  0  0  0  0  0  0  0  0
   11.6683   -4.7045   -1.5513 H   0  0  0  0  0  0  0  0  0  0  0  0
    9.9334   -4.3080   -2.6063 C   0  0  0  0  0  0  0  0  0  0  0  0
   10.2290   -3.1506   -2.8300 O   0  0  0  0  0  0  0  0  0  0  0  0
    8.7010   -4.9647   -3.0450 C   0  0  0  0  0  0  0  0  0  0  0  0
    6.0016   -3.5931   -1.8795 C   0  0  0  0  0  0  0  0  0  0  0  0
    5.3816   -2.6952   -1.0143 C   0  0  0  0  0  0  0  0  0  0  0  0
    4.5092   -3.1653   -0.0737 O   0  0  0  0  0  0  0  0  0  0  0  0
    3.1250   -2.8600   -0.2676 C   0  0  0  0  0  0  0  0  0  0  0  0
    2.3397   -3.4904    0.8651 C   0  0  0  0  0  0  0  0  0  0  0  0
    3.4674    1.4938    2.6995 H   0  0  0  0  0  0  0  0  0  0  0  0
    3.8670   -0.1600    1.9166 H   0  0  0  0  0  0  0  0  0  0  0  0
    4.7265    2.6431    0.9389 H   0  0  0  0  0  0  0  0  0  0  0  0
    6.4427    1.0593   -0.1036 H   0  0  0  0  0  0  0  0  0  0  0  0
    5.0426    1.3329   -1.1607 H   0  0  0  0  0  0  0  0  0  0  0  0
    6.8841    0.1671   -2.1408 H   0  0  0  0  0  0  0  0  0  0  0  0
    7.9648   -1.4552   -3.6442 H   0  0  0  0  0  0  0  0  0  0  0  0
    8.1198   -3.5922   -4.5591 H   0  0  0  0  0  0  0  0  0  0  0  0
    4.9802   -7.1341   -5.1049 H   0  0  0  0  0  0  0  0  0  0  0  0
    5.7241   -8.3198   -4.0837 H   0  0  0  0  0  0  0  0  0  0  0  0
    5.7264   -4.6460   -1.7814 H   0  0  0  0  0  0  0  0  0  0  0  0
    2.7967   -3.2617   -1.2454 H   0  0  0  0  0  0  0  0  0  0  0  0
    2.9781   -1.7670   -0.2863 H   0  0  0  0  0  0  0  0  0  0  0  0
    2.4897   -4.5812    0.8855 H   0  0  0  0  0  0  0  0  0  0  0  0
    1.2640   -3.2876    0.7437 H   0  0  0  0  0  0  0  0  0  0  0  0
    2.6630   -3.0835    1.8359 H   0  0  0  0  0  0  0  0  0  0  0  0
  1  2  2  0
  1 31  1  0
  1 32  1  0
  2  3  1  0
  2 33  1  0
  3  4  1  0
  3 34  1  0
  3 35  1  0
  4  5  1  0
  5  6  2  0
  5 27  1  0
  6  7  1  0
  6 36  1  0
  7  8  2  0
  7 37  1  0
  8  9  1  0
  8 26  1  0
  9 10  1  0
  9 25  1  0
  9 38  1  6
 10 11  1  0
 10 13  2  0
 11 12  3  0
 13 14  1  0
 13 15  1  0
 14 39  1  0
 14 40  1  0
 15 16  1  0
 16 17  1  0
 16 25  2  0
 17 18  1  0
 17 19  1  0
 19 20  2  0
 19 21  1  0
 21 22  1  0
 21 23  1  0
 23 24  2  0
 23 25  1  0
 26 27  2  0
 26 41  1  0
 27 28  1  0
 28 29  1  0
 29 30  1  0
 29 42  1  0
 29 43  1  0
 30 44  1  0
 30 45  1  0
 30 46  1  0
M  END

