
     RDKit          3D

 31 32  0  0  0  0  0  0  0  0999 V2000
    1.5655   -0.4784    0.5824 C   0  0  0  0  0  0  0  0  0  0  0  0
    2.7149   -0.7056   -0.2242 N   0  0  0  0  0  0  0  0  0  0  0  0
    3.0510    0.0732   -1.4338 C   0  0  1  0  0  0  0  0  0  0  0  0
    2.2676    1.3269   -1.6019 C   0  0  0  0  0  0  0  0  0  0  0  0
    2.4915    2.5894   -1.0097 C   0  0  0  0  0  0  0  0  0  0  0  0
    1.3903    3.3793   -1.2833 C   0  0  0  0  0  0  0  0  0  0  0  0
    0.4748    2.6854   -2.0539 O   0  0  0  0  0  0  0  0  0  0  0  0
    0.9257    1.3432   -2.1592 C   0  0  0  0  0  0  0  0  0  0  0  0
    4.5980    0.1980   -1.5058 C   0  0  1  0  0  0  0  0  0  0  0  0
    5.1191   -1.0075   -0.9330 O   0  0  0  0  0  0  0  0  0  0  0  0
    6.5133   -1.0578   -0.7190 C   0  0  0  0  0  0  0  0  0  0  0  0
    5.0800    0.4003   -2.9254 C   0  0  1  0  0  0  0  0  0  0  0  0
    4.9955    1.7416   -3.6057 C   0  0  0  0  0  0  0  0  0  0  0  0
    6.3379    1.1926   -3.2200 C   0  0  0  0  0  0  0  0  0  0  0  0
    1.3256   -1.3687    1.1778 H   0  0  0  0  0  0  0  0  0  0  0  0
    0.7450   -0.1300   -0.0643 H   0  0  0  0  0  0  0  0  0  0  0  0
    1.7893    0.3680    1.2605 H   0  0  0  0  0  0  0  0  0  0  0  0
    3.4005   -1.4276    0.0151 H   0  0  0  0  0  0  0  0  0  0  0  0
    2.7746   -0.6531   -2.2280 H   0  0  0  0  0  0  0  0  0  0  0  0
    3.3497    2.9127   -0.4182 H   0  0  0  0  0  0  0  0  0  0  0  0
    1.1958    4.4376   -1.1293 H   0  0  0  0  0  0  0  0  0  0  0  0
    0.6838    0.9093   -3.1468 H   0  0  0  0  0  0  0  0  0  0  0  0
    4.9078    1.0572   -0.8796 H   0  0  0  0  0  0  0  0  0  0  0  0
    6.7249   -1.9840   -0.1650 H   0  0  0  0  0  0  0  0  0  0  0  0
    6.8645   -0.1967   -0.1181 H   0  0  0  0  0  0  0  0  0  0  0  0
    7.0792   -1.0742   -1.6653 H   0  0  0  0  0  0  0  0  0  0  0  0
    4.9009   -0.4802   -3.5542 H   0  0  0  0  0  0  0  0  0  0  0  0
    4.5787    2.5707   -3.0307 H   0  0  0  0  0  0  0  0  0  0  0  0
    4.7145    1.7479   -4.6617 H   0  0  0  0  0  0  0  0  0  0  0  0
    6.8574    1.6603   -2.3774 H   0  0  0  0  0  0  0  0  0  0  0  0
    7.0057    0.8195   -4.0019 H   0  0  0  0  0  0  0  0  0  0  0  0
  1  2  1  0
  1 15  1  0
  1 16  1  0
  1 17  1  0
  2  3  1  0
  2 18  1  0
  3  4  1  0
  3  9  1  0
  3 19  1  6
  4  5  1  0
  4  8  2  0
  5  6  2  0
  5 20  1  0
  6  7  1  0
  6 21  1  0
  7  8  1  0
  8 22  1  0
  9 10  1  0
  9 12  1  0
  9 23  1  1
 10 11  1  0
 11 24  1  0
 11 25  1  0
 11 26  1  0
 12 13  1  0
 12 14  1  0
 12 27  1  6
 13 14  1  0
 13 28  1  0
 13 29  1  0
 14 30  1  0
 14 31  1  0
M  END

