
     RDKit          3D

 36 38  0  0  0  0  0  0  0  0999 V2000
    0.7211    0.6216    0.3609 C   0  0  0  0  0  0  0  0  0  0  0  0
    2.2163    0.4779    0.1755 C   0  0  0  0  0  0  0  0  0  0  0  0
    3.0242    1.6263    0.1327 C   0  0  0  0  0  0  0  0  0  0  0  0
    4.4326    1.5791   -0.0380 C   0  0  0  0  0  0  0  0  0  0  0  0
    5.0076    0.3125   -0.1559 C   0  0  0  0  0  0  0  0  0  0  0  0
    4.2155   -0.8593   -0.1421 C   0  0  0  0  0  0  0  0  0  0  0  0
    5.0236   -1.9436   -0.2338 N   0  0  0  0  0  0  0  0  0  0  0  0
    6.3085   -1.5648   -0.2984 N   0  0  0  0  0  0  0  0  0  0  0  0
    6.2877   -0.1755   -0.2739 N   0  0  0  0  0  0  0  0  0  0  0  0
    7.5020    0.6234   -0.1950 C   0  0  1  0  0  0  0  0  0  0  0  0
    8.7751   -0.2300   -0.2404 C   0  0  0  0  0  0  0  0  0  0  0  0
    9.0763   -0.7480   -1.6530 C   0  0  0  0  0  0  0  0  0  0  0  0
    9.0003    0.3959   -2.6719 C   0  0  0  0  0  0  0  0  0  0  0  0
    7.6792    1.1467   -2.5200 C   0  0  0  0  0  0  0  0  0  0  0  0
    7.5055    1.6294   -1.1912 O   0  0  0  0  0  0  0  0  0  0  0  0
    2.8098   -0.8013    0.0361 C   0  0  0  0  0  0  0  0  0  0  0  0
    2.0295   -2.1067    0.0145 C   0  0  0  0  0  0  0  0  0  0  0  0
    2.8702   -3.1521    0.5678 N   0  0  0  0  0  0  0  0  0  0  0  0
    0.4334    1.6807    0.4269 H   0  0  0  0  0  0  0  0  0  0  0  0
    0.3673    0.1363    1.2889 H   0  0  0  0  0  0  0  0  0  0  0  0
    0.1456    0.1798   -0.4720 H   0  0  0  0  0  0  0  0  0  0  0  0
    2.5413    2.6028    0.2202 H   0  0  0  0  0  0  0  0  0  0  0  0
    5.0313    2.4881   -0.0913 H   0  0  0  0  0  0  0  0  0  0  0  0
    7.4627    1.1935    0.7504 H   0  0  0  0  0  0  0  0  0  0  0  0
    8.6850   -1.0605    0.4734 H   0  0  0  0  0  0  0  0  0  0  0  0
    9.5956    0.4247    0.0985 H   0  0  0  0  0  0  0  0  0  0  0  0
    8.3395   -1.5270   -1.9067 H   0  0  0  0  0  0  0  0  0  0  0  0
   10.0714   -1.2227   -1.6736 H   0  0  0  0  0  0  0  0  0  0  0  0
    9.0945    0.0153   -3.7034 H   0  0  0  0  0  0  0  0  0  0  0  0
    9.8322    1.1048   -2.5102 H   0  0  0  0  0  0  0  0  0  0  0  0
    6.8328    0.4892   -2.7971 H   0  0  0  0  0  0  0  0  0  0  0  0
    7.6392    2.0364   -3.1665 H   0  0  0  0  0  0  0  0  0  0  0  0
    1.7395   -2.4609   -1.0005 H   0  0  0  0  0  0  0  0  0  0  0  0
    1.0924   -2.0782    0.5922 H   0  0  0  0  0  0  0  0  0  0  0  0
    3.9344   -2.9997    0.3915 H   0  0  0  0  0  0  0  0  0  0  0  0
    2.4692   -4.0533    0.8223 H   0  0  0  0  0  0  0  0  0  0  0  0
  1  2  1  0
  1 19  1  0
  1 20  1  0
  1 21  1  0
  2  3  2  0
  2 16  1  0
  3  4  1  0
  3 22  1  0
  4  5  2  0
  4 23  1  0
  5  6  1  0
  5  9  1  0
  6  7  1  0
  6 16  2  0
  7  8  2  0
  8  9  1  0
  9 10  1  0
 10 11  1  0
 10 15  1  0
 10 24  1  1
 11 12  1  0
 11 25  1  0
 11 26  1  0
 12 13  1  0
 12 27  1  0
 12 28  1  0
 13 14  1  0
 13 29  1  0
 13 30  1  0
 14 15  1  0
 14 31  1  0
 14 32  1  0
 16 17  1  0
 17 18  1  0
 17 33  1  0
 17 34  1  0
 18 35  1  0
 18 36  1  0
M  END

