
     RDKit          3D

 44 45  0  0  0  0  0  0  0  0999 V2000
    2.7047    3.0518    2.0839 C   0  0  0  0  0  0  0  0  0  0  0  0
    2.7765    1.9746    0.9996 C   0  0  0  0  0  0  0  0  0  0  0  0
    4.1333    1.5595    0.6346 N   0  0  0  0  0  0  0  0  0  0  0  0
    4.7978    2.1400   -0.5246 C   0  0  0  0  0  0  0  0  0  0  0  0
    5.6511    3.3799   -0.2365 C   0  0  0  0  0  0  0  0  0  0  0  0
    4.7649    0.6565    1.4373 C   0  0  0  0  0  0  0  0  0  0  0  0
    4.2322    0.1285    2.5110 N   0  0  0  0  0  0  0  0  0  0  0  0
    5.0855   -0.7653    3.0970 C   0  0  0  0  0  0  0  0  0  0  0  0
    6.3059   -0.9571    2.5086 C   0  0  0  0  0  0  0  0  0  0  0  0
    7.4161   -1.8726    2.9091 C   0  0  0  0  0  0  0  0  0  0  0  0
    8.6403   -1.1549    3.2110 N   0  0  0  0  0  0  0  0  0  0  0  0
    9.8927   -1.7132    3.3224 C   0  0  0  0  0  0  0  0  0  0  0  0
   10.9956   -0.8606    3.5976 C   0  0  0  0  0  0  0  0  0  0  0  0
   12.2836   -1.4779    3.6852 C   0  0  0  0  0  0  0  0  0  0  0  0
   12.3701   -2.8708    3.4931 C   0  0  0  0  0  0  0  0  0  0  0  0
   13.6149   -3.5218    3.5475 N   0  0  0  0  0  0  0  0  0  0  0  0
   13.7451   -4.8933    3.1107 C   0  0  0  0  0  0  0  0  0  0  0  0
   14.8250   -2.8089    3.8791 C   0  0  0  0  0  0  0  0  0  0  0  0
   11.3292   -3.6829    3.2495 N   0  0  0  0  0  0  0  0  0  0  0  0
   10.0960   -3.1042    3.1725 C   0  0  0  0  0  0  0  0  0  0  0  0
    6.4106    0.0785    1.0834 S   0  0  0  0  0  0  0  0  0  0  0  0
    1.6521    3.2917    2.3063 H   0  0  0  0  0  0  0  0  0  0  0  0
    3.2057    3.9824    1.7742 H   0  0  0  0  0  0  0  0  0  0  0  0
    3.1734    2.6908    3.0110 H   0  0  0  0  0  0  0  0  0  0  0  0
    2.2873    2.3244    0.0761 H   0  0  0  0  0  0  0  0  0  0  0  0
    2.2363    1.0801    1.3451 H   0  0  0  0  0  0  0  0  0  0  0  0
    4.0174    2.3859   -1.2630 H   0  0  0  0  0  0  0  0  0  0  0  0
    5.4228    1.3596   -0.9938 H   0  0  0  0  0  0  0  0  0  0  0  0
    5.0402    4.2072    0.1560 H   0  0  0  0  0  0  0  0  0  0  0  0
    6.1399    3.7274   -1.1611 H   0  0  0  0  0  0  0  0  0  0  0  0
    6.4387    3.1556    0.4993 H   0  0  0  0  0  0  0  0  0  0  0  0
    4.7691   -1.2886    4.0033 H   0  0  0  0  0  0  0  0  0  0  0  0
    7.6436   -2.5989    2.1085 H   0  0  0  0  0  0  0  0  0  0  0  0
    7.0683   -2.4672    3.7784 H   0  0  0  0  0  0  0  0  0  0  0  0
    8.5316   -0.2035    3.5473 H   0  0  0  0  0  0  0  0  0  0  0  0
   10.8805    0.2245    3.5981 H   0  0  0  0  0  0  0  0  0  0  0  0
   13.1695   -0.8603    3.8209 H   0  0  0  0  0  0  0  0  0  0  0  0
   12.7369   -5.3097    3.0050 H   0  0  0  0  0  0  0  0  0  0  0  0
   14.3395   -5.4703    3.8398 H   0  0  0  0  0  0  0  0  0  0  0  0
   14.2647   -4.9482    2.1330 H   0  0  0  0  0  0  0  0  0  0  0  0
   14.6644   -2.1570    4.7502 H   0  0  0  0  0  0  0  0  0  0  0  0
   15.1721   -2.1761    3.0394 H   0  0  0  0  0  0  0  0  0  0  0  0
   15.6198   -3.5294    4.1162 H   0  0  0  0  0  0  0  0  0  0  0  0
    9.2508   -3.7876    3.0633 H   0  0  0  0  0  0  0  0  0  0  0  0
  1  2  1  0
  1 22  1  0
  1 23  1  0
  1 24  1  0
  2  3  1  0
  2 25  1  0
  2 26  1  0
  3  4  1  0
  3  6  1  0
  4  5  1  0
  4 27  1  0
  4 28  1  0
  5 29  1  0
  5 30  1  0
  5 31  1  0
  6  7  2  0
  6 21  1  0
  7  8  1  0
  8  9  2  0
  8 32  1  0
  9 10  1  0
  9 21  1  0
 10 11  1  0
 10 33  1  0
 10 34  1  0
 11 12  1  0
 11 35  1  0
 12 13  2  0
 12 20  1  0
 13 14  1  0
 13 36  1  0
 14 15  2  0
 14 37  1  0
 15 16  1  0
 15 19  1  0
 16 17  1  0
 16 18  1  0
 17 38  1  0
 17 39  1  0
 17 40  1  0
 18 41  1  0
 18 42  1  0
 18 43  1  0
 19 20  2  0
 20 44  1  0
M  END

