
     RDKit          3D

 31 31  0  0  0  0  0  0  0  0999 V2000
    0.9542    0.4420   -0.4174 C   0  0  0  0  0  0  0  0  0  0  0  0
    2.4019   -0.0411   -0.3299 C   0  0  0  0  0  0  0  0  0  0  0  0
    2.8836   -0.2360    1.1067 C   0  0  0  0  0  0  0  0  0  0  0  0
    4.2681   -0.6946    1.1508 N   0  0  0  0  0  0  0  0  0  0  0  0
    4.8037   -0.8857    2.4954 C   0  0  1  0  0  0  0  0  0  0  0  0
    4.3988   -2.2461    3.1224 C   0  0  0  0  0  0  0  0  0  0  0  0
    4.9873   -3.4966    2.5436 C   0  0  0  0  0  0  0  0  0  0  0  0
    5.6376   -4.4859    3.2862 C   0  0  0  0  0  0  0  0  0  0  0  0
    6.1217   -5.6795    2.7562 C   0  0  0  0  0  0  0  0  0  0  0  0
    5.9535   -5.8987    1.3151 C   0  0  0  0  0  0  0  0  0  0  0  0
    5.3370   -4.9170    0.7125 N   0  0  0  0  0  0  0  0  0  0  0  0
    4.8292   -3.7851    1.0966 C   0  0  0  0  0  0  0  0  0  0  0  0
    6.3154   -0.6718    2.4796 C   0  0  1  0  0  0  0  0  0  0  0  0
    6.6015    0.5994    2.1060 F   0  0  0  0  0  0  0  0  0  0  0  0
    6.8390   -0.8523    3.7020 F   0  0  0  0  0  0  0  0  0  0  0  0
    6.9655   -1.4742    1.6281 F   0  0  0  0  0  0  0  0  0  0  0  0
    0.6388    0.5710   -1.4645 H   0  0  0  0  0  0  0  0  0  0  0  0
    0.8189    1.4108    0.0917 H   0  0  0  0  0  0  0  0  0  0  0  0
    0.2620   -0.2773    0.0512 H   0  0  0  0  0  0  0  0  0  0  0  0
    3.0656    0.6844   -0.8363 H   0  0  0  0  0  0  0  0  0  0  0  0
    2.5199   -0.9932   -0.8747 H   0  0  0  0  0  0  0  0  0  0  0  0
    2.2454   -0.9870    1.6032 H   0  0  0  0  0  0  0  0  0  0  0  0
    2.7401    0.7101    1.6782 H   0  0  0  0  0  0  0  0  0  0  0  0
    4.8487   -0.0299    0.6403 H   0  0  0  0  0  0  0  0  0  0  0  0
    4.4376   -0.0933    3.1855 H   0  0  0  0  0  0  0  0  0  0  0  0
    3.2897   -2.2702    3.0766 H   0  0  0  0  0  0  0  0  0  0  0  0
    4.6512   -2.2100    4.1935 H   0  0  0  0  0  0  0  0  0  0  0  0
    5.7728   -4.3104    4.3597 H   0  0  0  0  0  0  0  0  0  0  0  0
    6.6238   -6.4414    3.3501 H   0  0  0  0  0  0  0  0  0  0  0  0
    6.3062   -6.7627    0.7536 H   0  0  0  0  0  0  0  0  0  0  0  0
    4.4211   -3.0633    0.3878 H   0  0  0  0  0  0  0  0  0  0  0  0
  1  2  1  0
  1 17  1  0
  1 18  1  0
  1 19  1  0
  2  3  1  0
  2 20  1  0
  2 21  1  0
  3  4  1  0
  3 22  1  0
  3 23  1  0
  4  5  1  0
  4 24  1  0
  5  6  1  0
  5 13  1  0
  5 25  1  1
  6  7  1  0
  6 26  1  0
  6 27  1  0
  7  8  2  0
  7 12  1  0
  8  9  1  0
  8 28  1  0
  9 10  2  0
  9 29  1  0
 10 11  1  0
 10 30  1  0
 11 12  2  0
 12 31  1  0
 13 14  1  6
 13 15  1  0
 13 16  1  0
M  END

