
     RDKit          3D

 51 53  0  0  0  0  0  0  0  0999 V2000
    3.2684    0.9718   -0.9249 C   0  0  0  0  0  0  0  0  0  0  0  0
    3.9519    0.2995    0.2694 C   0  0  1  0  0  0  0  0  0  0  0  0
    3.5224   -1.0954    0.3776 N   0  0  0  0  0  0  0  0  0  0  0  0
    3.4178   -1.7166    1.6075 C   0  0  0  0  0  0  0  0  0  0  0  0
    3.5413   -1.1125    2.6701 O   0  0  0  0  0  0  0  0  0  0  0  0
    3.1502   -3.0627    1.5494 N   0  0  0  0  0  0  0  0  0  0  0  0
    2.9113   -3.8431    2.7637 C   0  0  1  0  0  0  0  0  0  0  0  0
    1.4616   -3.7128    3.2807 C   0  0  0  0  0  0  0  0  0  0  0  0
    0.4683   -4.4628    2.3785 C   0  0  0  0  0  0  0  0  0  0  0  0
    0.8132   -5.8715    2.1723 N   0  0  0  0  0  0  0  0  0  0  0  0
    0.4533   -6.7630    3.2672 C   0  0  0  0  0  0  0  0  0  0  0  0
   -1.0467   -6.9628    3.4116 C   0  0  0  0  0  0  0  0  0  0  0  0
   -1.8574   -7.1319    2.2779 C   0  0  0  0  0  0  0  0  0  0  0  0
   -3.2274   -7.3678    2.4104 C   0  0  0  0  0  0  0  0  0  0  0  0
   -3.8110   -7.4385    3.6806 C   0  0  0  0  0  0  0  0  0  0  0  0
   -3.0143   -7.2666    4.8153 C   0  0  0  0  0  0  0  0  0  0  0  0
   -1.6427   -7.0271    4.6787 C   0  0  0  0  0  0  0  0  0  0  0  0
    2.1709   -6.0195    1.6608 C   0  0  0  0  0  0  0  0  0  0  0  0
    3.2467   -5.3250    2.5188 C   0  0  0  0  0  0  0  0  0  0  0  0
    5.4562    0.4035    0.1607 C   0  0  0  0  0  0  0  0  0  0  0  0
    6.1309    0.1807   -0.9463 N   0  0  0  0  0  0  0  0  0  0  0  0
    7.4638    0.2950   -0.6615 N   0  0  0  0  0  0  0  0  0  0  0  0
    7.5598    0.5855    0.6116 C   0  0  0  0  0  0  0  0  0  0  0  0
    6.3230    0.6631    1.1939 N   0  0  0  0  0  0  0  0  0  0  0  0
    6.0199    0.9840    2.5821 C   0  0  0  0  0  0  0  0  0  0  0  0
    2.1769    0.8588   -0.8486 H   0  0  0  0  0  0  0  0  0  0  0  0
    3.6176    0.5255   -1.8681 H   0  0  0  0  0  0  0  0  0  0  0  0
    3.5157    2.0433   -0.9591 H   0  0  0  0  0  0  0  0  0  0  0  0
    3.6260    0.7786    1.2021 H   0  0  0  0  0  0  0  0  0  0  0  0
    3.7359   -1.6731   -0.4300 H   0  0  0  0  0  0  0  0  0  0  0  0
    2.8540   -3.4529    0.6628 H   0  0  0  0  0  0  0  0  0  0  0  0
    3.5906   -3.4240    3.5195 H   0  0  0  0  0  0  0  0  0  0  0  0
    1.1964   -2.6465    3.3566 H   0  0  0  0  0  0  0  0  0  0  0  0
    1.4178   -4.1193    4.3060 H   0  0  0  0  0  0  0  0  0  0  0  0
    0.4329   -3.9713    1.3882 H   0  0  0  0  0  0  0  0  0  0  0  0
   -0.5520   -4.4019    2.7865 H   0  0  0  0  0  0  0  0  0  0  0  0
    0.8624   -6.4546    4.2543 H   0  0  0  0  0  0  0  0  0  0  0  0
    0.9141   -7.7434    3.0499 H   0  0  0  0  0  0  0  0  0  0  0  0
   -1.3964   -7.0635    1.2897 H   0  0  0  0  0  0  0  0  0  0  0  0
   -3.8452   -7.4977    1.5176 H   0  0  0  0  0  0  0  0  0  0  0  0
   -4.8836   -7.6221    3.7840 H   0  0  0  0  0  0  0  0  0  0  0  0
   -3.4617   -7.3125    5.8118 H   0  0  0  0  0  0  0  0  0  0  0  0
   -1.0254   -6.8871    5.5715 H   0  0  0  0  0  0  0  0  0  0  0  0
    2.1938   -5.6071    0.6326 H   0  0  0  0  0  0  0  0  0  0  0  0
    2.4007   -7.0920    1.5562 H   0  0  0  0  0  0  0  0  0  0  0  0
    4.2377   -5.4142    2.0433 H   0  0  0  0  0  0  0  0  0  0  0  0
    3.3135   -5.8305    3.4966 H   0  0  0  0  0  0  0  0  0  0  0  0
    8.4863    0.7481    1.1617 H   0  0  0  0  0  0  0  0  0  0  0  0
    6.9165    0.8037    3.1908 H   0  0  0  0  0  0  0  0  0  0  0  0
    5.2035    0.3405    2.9400 H   0  0  0  0  0  0  0  0  0  0  0  0
    5.7316    2.0423    2.6888 H   0  0  0  0  0  0  0  0  0  0  0  0
  1  2  1  0
  1 26  1  0
  1 27  1  0
  1 28  1  0
  2  3  1  0
  2 20  1  0
  2 29  1  1
  3  4  1  0
  3 30  1  0
  4  5  2  0
  4  6  1  0
  6  7  1  0
  6 31  1  0
  7  8  1  0
  7 19  1  0
  7 32  1  1
  8  9  1  0
  8 33  1  0
  8 34  1  0
  9 10  1  0
  9 35  1  0
  9 36  1  0
 10 11  1  0
 10 18  1  0
 11 12  1  0
 11 37  1  0
 11 38  1  0
 12 13  2  0
 12 17  1  0
 13 14  1  0
 13 39  1  0
 14 15  2  0
 14 40  1  0
 15 16  1  0
 15 41  1  0
 16 17  2  0
 16 42  1  0
 17 43  1  0
 18 19  1  0
 18 44  1  0
 18 45  1  0
 19 46  1  0
 19 47  1  0
 20 21  2  0
 20 24  1  0
 21 22  1  0
 22 23  2  0
 23 24  1  0
 23 48  1  0
 24 25  1  0
 25 49  1  0
 25 50  1  0
 25 51  1  0
M  END

