
     RDKit          3D

 46 49  0  0  0  0  0  0  0  0999 V2000
   -0.5226    0.9555    0.5783 C   0  0  0  0  0  0  0  0  0  0  0  0
    0.8649    0.9221    0.5032 C   0  0  0  0  0  0  0  0  0  0  0  0
    1.4928   -0.1027   -0.2317 C   0  0  0  0  0  0  0  0  0  0  0  0
    2.8492   -0.0690   -0.2633 O   0  0  0  0  0  0  0  0  0  0  0  0
    3.5636   -1.0764   -0.9620 C   0  0  0  0  0  0  0  0  0  0  0  0
    5.0368   -0.8134   -0.8088 C   0  0  1  0  0  0  0  0  0  0  0  0
    5.9931   -1.2754   -1.8804 C   0  0  0  0  0  0  0  0  0  0  0  0
    5.7215    0.1954   -1.6934 C   0  0  0  0  0  0  0  0  0  0  0  0
    0.7187   -1.0739   -0.8764 C   0  0  0  0  0  0  0  0  0  0  0  0
   -0.6827   -1.0196   -0.7854 C   0  0  0  0  0  0  0  0  0  0  0  0
   -1.3480   -2.0148   -1.4516 O   0  0  0  0  0  0  0  0  0  0  0  0
   -2.7313   -2.0724   -1.4329 C   0  0  0  0  0  0  0  0  0  0  0  0
   -3.4720   -1.4726   -2.4536 C   0  0  0  0  0  0  0  0  0  0  0  0
   -4.8612   -1.5869   -2.4815 C   0  0  0  0  0  0  0  0  0  0  0  0
   -5.5555   -2.3073   -1.4779 C   0  0  0  0  0  0  0  0  0  0  0  0
   -6.9289   -2.4209   -1.4997 N   0  0  0  0  0  0  0  0  0  0  0  0
   -7.7819   -1.7247   -2.4549 C   0  0  0  0  0  0  0  0  0  0  0  0
   -9.1963   -1.9243   -1.8935 C   0  0  0  0  0  0  0  0  0  0  0  0
   -9.0970   -3.2718   -1.1663 C   0  0  0  0  0  0  0  0  0  0  0  0
   -7.6873   -3.2383   -0.5615 C   0  0  0  0  0  0  0  0  0  0  0  0
   -4.7835   -2.9093   -0.4531 C   0  0  0  0  0  0  0  0  0  0  0  0
   -3.3943   -2.7930   -0.4369 C   0  0  0  0  0  0  0  0  0  0  0  0
   -1.3173   -0.0075   -0.0597 C   0  0  0  0  0  0  0  0  0  0  0  0
   -1.0089    1.7518    1.1485 H   0  0  0  0  0  0  0  0  0  0  0  0
    1.4885    1.6687    0.9975 H   0  0  0  0  0  0  0  0  0  0  0  0
    3.2835   -1.0709   -2.0332 H   0  0  0  0  0  0  0  0  0  0  0  0
    3.3030   -2.0732   -0.5576 H   0  0  0  0  0  0  0  0  0  0  0  0
    5.3899   -0.8755    0.2263 H   0  0  0  0  0  0  0  0  0  0  0  0
    5.5777   -1.7674   -2.7657 H   0  0  0  0  0  0  0  0  0  0  0  0
    6.9617   -1.6742   -1.5667 H   0  0  0  0  0  0  0  0  0  0  0  0
    5.1130    0.7065   -2.4457 H   0  0  0  0  0  0  0  0  0  0  0  0
    6.5037    0.8195   -1.2528 H   0  0  0  0  0  0  0  0  0  0  0  0
    1.1561   -1.8847   -1.4569 H   0  0  0  0  0  0  0  0  0  0  0  0
   -2.9480   -0.9210   -3.2374 H   0  0  0  0  0  0  0  0  0  0  0  0
   -5.4098   -1.1209   -3.3003 H   0  0  0  0  0  0  0  0  0  0  0  0
   -7.6867   -2.1525   -3.4742 H   0  0  0  0  0  0  0  0  0  0  0  0
   -7.5130   -0.6563   -2.5305 H   0  0  0  0  0  0  0  0  0  0  0  0
   -9.9692   -1.9046   -2.6761 H   0  0  0  0  0  0  0  0  0  0  0  0
   -9.4304   -1.1221   -1.1738 H   0  0  0  0  0  0  0  0  0  0  0  0
   -9.1740   -4.0998   -1.8906 H   0  0  0  0  0  0  0  0  0  0  0  0
   -9.8800   -3.4195   -0.4077 H   0  0  0  0  0  0  0  0  0  0  0  0
   -7.2527   -4.2487   -0.4657 H   0  0  0  0  0  0  0  0  0  0  0  0
   -7.6936   -2.7934    0.4551 H   0  0  0  0  0  0  0  0  0  0  0  0
   -5.2725   -3.4712    0.3430 H   0  0  0  0  0  0  0  0  0  0  0  0
   -2.8108   -3.2662    0.3561 H   0  0  0  0  0  0  0  0  0  0  0  0
   -2.4042    0.0306    0.0071 H   0  0  0  0  0  0  0  0  0  0  0  0
  1  2  2  0
  1 23  1  0
  1 24  1  0
  2  3  1  0
  2 25  1  0
  3  4  1  0
  3  9  2  0
  4  5  1  0
  5  6  1  0
  5 26  1  0
  5 27  1  0
  6  7  1  0
  6  8  1  0
  6 28  1  1
  7  8  1  0
  7 29  1  0
  7 30  1  0
  8 31  1  0
  8 32  1  0
  9 10  1  0
  9 33  1  0
 10 11  1  0
 10 23  2  0
 11 12  1  0
 12 13  2  0
 12 22  1  0
 13 14  1  0
 13 34  1  0
 14 15  2  0
 14 35  1  0
 15 16  1  0
 15 21  1  0
 16 17  1  0
 16 20  1  0
 17 18  1  0
 17 36  1  0
 17 37  1  0
 18 19  1  0
 18 38  1  0
 18 39  1  0
 19 20  1  0
 19 40  1  0
 19 41  1  0
 20 42  1  0
 20 43  1  0
 21 22  2  0
 21 44  1  0
 22 45  1  0
 23 46  1  0
M  END

