
     RDKit          3D

 34 36  0  0  0  0  0  0  0  0999 V2000
    6.3546   -0.0579    3.7372 N   0  0  0  0  0  0  0  0  0  0  0  0
    7.2435   -1.1818    3.4015 C   0  0  0  0  0  0  0  0  0  0  0  0
    6.5386   -2.2240    2.6102 C   0  0  0  0  0  0  0  0  0  0  0  0
    6.6798   -2.7294    1.3393 C   0  0  0  0  0  0  0  0  0  0  0  0
    5.6892   -3.7248    1.1589 C   0  0  0  0  0  0  0  0  0  0  0  0
    4.9489   -3.7828    2.3720 C   0  0  0  0  0  0  0  0  0  0  0  0
    3.8498   -4.5293    2.8261 C   0  0  0  0  0  0  0  0  0  0  0  0
    3.2801   -4.4498    3.9521 O   0  0  0  0  0  0  0  0  0  0  0  0
    3.2279   -5.5191    1.7778 C   0  0  0  0  0  0  0  0  0  0  0  0
    2.7551   -6.7669    2.4472 C   0  0  0  0  0  0  0  0  0  0  0  0
    1.8212   -6.7344    3.4767 C   0  0  0  0  0  0  0  0  0  0  0  0
    1.4476   -7.9150    4.1675 C   0  0  0  0  0  0  0  0  0  0  0  0
    0.2020   -7.7864    5.5543 Br  0  0  0  0  0  0  0  0  0  0  0  0
    1.9816   -9.1943    3.8583 C   0  0  0  0  0  0  0  0  0  0  0  0
    2.9072   -9.2514    2.8462 C   0  0  0  0  0  0  0  0  0  0  0  0
    3.2868   -8.0528    2.1631 C   0  0  0  0  0  0  0  0  0  0  0  0
    4.1915   -8.2766    1.2280 O   0  0  0  0  0  0  0  0  0  0  0  0
    4.5838   -9.6764    1.2176 C   0  0  0  0  0  0  0  0  0  0  0  0
    3.6727  -10.3949    2.2358 C   0  0  0  0  0  0  0  0  0  0  0  0
    5.4937   -2.8506    3.2470 O   0  0  0  0  0  0  0  0  0  0  0  0
    6.7685    0.4896    4.4938 H   0  0  0  0  0  0  0  0  0  0  0  0
    5.4913   -0.4471    4.1208 H   0  0  0  0  0  0  0  0  0  0  0  0
    7.6877   -1.6597    4.3053 H   0  0  0  0  0  0  0  0  0  0  0  0
    8.0897   -0.8114    2.7981 H   0  0  0  0  0  0  0  0  0  0  0  0
    7.4232   -2.4060    0.6120 H   0  0  0  0  0  0  0  0  0  0  0  0
    5.5159   -4.3105    0.2610 H   0  0  0  0  0  0  0  0  0  0  0  0
    3.9232   -5.7589    0.9649 H   0  0  0  0  0  0  0  0  0  0  0  0
    2.3542   -5.0168    1.3252 H   0  0  0  0  0  0  0  0  0  0  0  0
    1.4113   -5.7703    3.7694 H   0  0  0  0  0  0  0  0  0  0  0  0
    1.6636  -10.0777    4.4126 H   0  0  0  0  0  0  0  0  0  0  0  0
    5.6495   -9.7048    1.4864 H   0  0  0  0  0  0  0  0  0  0  0  0
    4.4712  -10.0302    0.1839 H   0  0  0  0  0  0  0  0  0  0  0  0
    4.2517  -10.9547    2.9864 H   0  0  0  0  0  0  0  0  0  0  0  0
    2.9966  -11.1135    1.7441 H   0  0  0  0  0  0  0  0  0  0  0  0
  1  2  1  0
  1 21  1  0
  1 22  1  0
  2  3  1  0
  2 23  1  0
  2 24  1  0
  3  4  2  0
  3 20  1  0
  4  5  1  0
  4 25  1  0
  5  6  2  0
  5 26  1  0
  6  7  1  0
  6 20  1  0
  7  8  2  0
  7  9  1  0
  9 10  1  0
  9 27  1  0
  9 28  1  0
 10 11  2  0
 10 16  1  0
 11 12  1  0
 11 29  1  0
 12 13  1  0
 12 14  2  0
 14 15  1  0
 14 30  1  0
 15 16  2  0
 15 19  1  0
 16 17  1  0
 17 18  1  0
 18 19  1  0
 18 31  1  0
 18 32  1  0
 19 33  1  0
 19 34  1  0
M  END

