
     RDKit          3D

 61 63  0  0  0  0  0  0  0  0999 V2000
    3.2733  -10.6849   -0.9776 C   0  0  0  0  0  0  0  0  0  0  0  0
    4.2950   -9.7753   -0.2766 C   0  0  0  0  0  0  0  0  0  0  0  0
    4.3446   -8.3667   -0.8266 C   0  0  0  0  0  0  0  0  0  0  0  0
    3.2604   -7.4641   -0.5545 C   0  0  0  0  0  0  0  0  0  0  0  0
    3.2430   -6.1928   -1.2166 C   0  0  0  0  0  0  0  0  0  0  0  0
    4.2997   -5.7603   -1.9849 C   0  0  0  0  0  0  0  0  0  0  0  0
    4.2983   -4.4394   -2.7516 C   0  0  0  0  0  0  0  0  0  0  0  0
    3.4486   -3.2753   -2.2903 C   0  0  0  0  0  0  0  0  0  0  0  0
    2.2638   -3.0303   -3.0481 C   0  0  0  0  0  0  0  0  0  0  0  0
    1.4608   -1.9312   -2.8615 C   0  0  0  0  0  0  0  0  0  0  0  0
    1.8277   -0.9885   -1.8594 C   0  0  0  0  0  0  0  0  0  0  0  0
    1.0913    0.1206   -1.6533 N   0  0  0  0  0  0  0  0  0  0  0  0
    2.9769   -1.2357   -1.0554 C   0  0  0  0  0  0  0  0  0  0  0  0
    3.7706   -2.3490   -1.2330 C   0  0  0  0  0  0  0  0  0  0  0  0
    4.9001   -2.5591   -0.1867 C   0  0  1  0  0  0  0  0  0  0  0  0
    4.6798   -1.6299    0.8485 O   0  0  0  0  0  0  0  0  0  0  0  0
    4.6822   -3.8627    0.2540 O   0  0  0  0  0  0  0  0  0  0  0  0
    5.6478   -4.6609    0.9541 C   0  0  2  0  0  0  0  0  0  0  0  0
    5.3717   -5.6821    0.6611 H   0  0  0  0  0  0  0  0  0  0  0  0
    5.3844   -4.5774    2.4630 C   0  0  2  0  0  0  0  0  0  0  0  0
    6.1487   -5.2025    2.9588 H   0  0  0  0  0  0  0  0  0  0  0  0
    3.9947   -5.0849    2.8300 C   0  0  0  0  0  0  0  0  0  0  0  0
    5.5490   -3.2103    2.8888 O   0  0  0  0  0  0  0  0  0  0  0  0
    7.1295   -4.4785    0.4565 C   0  0  1  0  0  0  0  0  0  0  0  0
    8.0996   -3.8845    1.4797 C   0  0  0  0  0  0  0  0  0  0  0  0
    7.6636   -5.7500    0.1118 O   0  0  0  0  0  0  0  0  0  0  0  0
    7.0934   -3.6589   -0.8494 C   0  0  2  0  0  0  0  0  0  0  0  0
    6.5793   -4.3108   -1.5676 H   0  0  0  0  0  0  0  0  0  0  0  0
    8.3892   -3.3558   -1.3409 O   0  0  0  0  0  0  0  0  0  0  0  0
    6.3364   -2.3469   -0.7709 C   0  0  1  0  0  0  0  0  0  0  0  0
    6.8554   -1.6674   -0.0716 H   0  0  0  0  0  0  0  0  0  0  0  0
    6.2604   -1.7494   -2.0539 O   0  0  0  0  0  0  0  0  0  0  0  0
    5.4821   -6.5943   -2.1308 C   0  0  0  0  0  0  0  0  0  0  0  0
    5.3993   -7.9410   -1.6121 C   0  0  0  0  0  0  0  0  0  0  0  0
    3.2450  -11.6905   -0.5234 H   0  0  0  0  0  0  0  0  0  0  0  0
    3.5215  -10.7991   -2.0456 H   0  0  0  0  0  0  0  0  0  0  0  0
    2.2590  -10.2583   -0.9215 H   0  0  0  0  0  0  0  0  0  0  0  0
    5.2960  -10.2352   -0.3451 H   0  0  0  0  0  0  0  0  0  0  0  0
    4.0460   -9.7359    0.8022 H   0  0  0  0  0  0  0  0  0  0  0  0
    2.4022   -7.7880    0.0373 H   0  0  0  0  0  0  0  0  0  0  0  0
    2.3706   -5.5497   -1.0678 H   0  0  0  0  0  0  0  0  0  0  0  0
    4.0135   -4.6353   -3.8015 H   0  0  0  0  0  0  0  0  0  0  0  0
    5.3216   -4.0460   -2.8165 H   0  0  0  0  0  0  0  0  0  0  0  0
    2.0038   -3.7537   -3.8210 H   0  0  0  0  0  0  0  0  0  0  0  0
    0.5659   -1.7725   -3.4670 H   0  0  0  0  0  0  0  0  0  0  0  0
    0.2628    0.3131   -2.2040 H   0  0  0  0  0  0  0  0  0  0  0  0
    1.3510    0.7883   -0.9359 H   0  0  0  0  0  0  0  0  0  0  0  0
    3.2361   -0.5439   -0.2545 H   0  0  0  0  0  0  0  0  0  0  0  0
    4.9790   -2.0620    1.6800 H   0  0  0  0  0  0  0  0  0  0  0  0
    3.8417   -5.0527    3.9227 H   0  0  0  0  0  0  0  0  0  0  0  0
    3.8548   -6.1224    2.4908 H   0  0  0  0  0  0  0  0  0  0  0  0
    3.2275   -4.4673    2.3414 H   0  0  0  0  0  0  0  0  0  0  0  0
    5.2843   -3.1396    3.8156 H   0  0  0  0  0  0  0  0  0  0  0  0
    7.7442   -2.9301    1.8866 H   0  0  0  0  0  0  0  0  0  0  0  0
    9.0751   -3.7293    1.0008 H   0  0  0  0  0  0  0  0  0  0  0  0
    8.2375   -4.5881    2.3127 H   0  0  0  0  0  0  0  0  0  0  0  0
    7.0525   -6.1519   -0.5539 H   0  0  0  0  0  0  0  0  0  0  0  0
    8.8515   -4.2047   -1.4164 H   0  0  0  0  0  0  0  0  0  0  0  0
    7.1454   -1.8557   -2.4373 H   0  0  0  0  0  0  0  0  0  0  0  0
    6.1817   -6.3875   -2.9490 H   0  0  0  0  0  0  0  0  0  0  0  0
    6.2152   -8.6403   -1.8281 H   0  0  0  0  0  0  0  0  0  0  0  0
  1  2  1  0
  1 35  1  0
  1 36  1  0
  1 37  1  0
  2  3  1  0
  2 38  1  0
  2 39  1  0
  3  4  2  0
  3 34  1  0
  4  5  1  0
  4 40  1  0
  5  6  2  0
  5 41  1  0
  6  7  1  0
  6 33  1  0
  7  8  1  0
  7 42  1  0
  7 43  1  0
  8  9  2  0
  8 14  1  0
  9 10  1  0
  9 44  1  0
 10 11  2  0
 10 45  1  0
 11 12  1  0
 11 13  1  0
 12 46  1  0
 12 47  1  0
 13 14  2  0
 13 48  1  0
 14 15  1  0
 15 16  1  1
 15 17  1  0
 15 30  1  0
 16 49  1  0
 17 18  1  0
 18 19  1  6
 18 20  1  0
 18 24  1  0
 20 21  1  1
 20 22  1  0
 20 23  1  0
 22 50  1  0
 22 51  1  0
 22 52  1  0
 23 53  1  0
 24 25  1  0
 24 26  1  6
 24 27  1  0
 25 54  1  0
 25 55  1  0
 25 56  1  0
 26 57  1  0
 27 28  1  6
 27 29  1  0
 27 30  1  0
 29 58  1  0
 30 31  1  1
 30 32  1  0
 32 59  1  0
 33 34  2  0
 33 60  1  0
 34 61  1  0
M  END

