
     RDKit          3D

 70 77  0  0  0  0  0  0  0  0999 V2000
   10.5613    0.7607    5.9258 C   0  0  0  0  0  0  0  0  0  0  0  0
   11.6393    0.3795    6.7364 C   0  0  0  0  0  0  0  0  0  0  0  0
   11.9357   -0.9648    6.9276 C   0  0  0  0  0  0  0  0  0  0  0  0
   11.1438   -1.9618    6.3035 C   0  0  0  0  0  0  0  0  0  0  0  0
   11.4365   -3.3201    6.4672 N   0  0  0  0  0  0  0  0  0  0  0  0
   11.9751   -3.8320    7.6522 C   0  0  0  0  0  0  0  0  0  0  0  0
   11.6384   -3.2691    8.9094 C   0  0  0  0  0  0  0  0  0  0  0  0
   12.1720   -3.8035   10.0761 C   0  0  0  0  0  0  0  0  0  0  0  0
   13.0419   -4.9012   10.0214 C   0  0  0  0  0  0  0  0  0  0  0  0
   13.3662   -5.4722    8.7820 C   0  0  0  0  0  0  0  0  0  0  0  0
   12.8365   -4.9563    7.6063 C   0  0  0  0  0  0  0  0  0  0  0  0
   11.1761   -4.2245    5.3731 C   0  0  0  0  0  0  0  0  0  0  0  0
   11.8053   -4.0322    4.1332 C   0  0  0  0  0  0  0  0  0  0  0  0
   11.5513   -4.9062    3.0835 C   0  0  0  0  0  0  0  0  0  0  0  0
   10.6639   -6.0080    3.2176 C   0  0  0  0  0  0  0  0  0  0  0  0
   10.4011   -6.9294    2.1061 C   0  0  0  0  0  0  0  0  0  0  0  0
   11.3186   -7.0885    1.0351 C   0  0  0  0  0  0  0  0  0  0  0  0
   11.0774   -7.9625   -0.0116 C   0  0  0  0  0  0  0  0  0  0  0  0
    9.8883   -8.7409   -0.0793 C   0  0  0  0  0  0  0  0  0  0  0  0
    9.5868   -9.6678   -1.1621 C   0  0  0  0  0  0  0  0  0  0  0  0
   10.4700   -9.8926   -2.2522 C   0  0  0  0  0  0  0  0  0  0  0  0
   10.2183  -10.7231   -3.2386 N   0  0  0  0  0  0  0  0  0  0  0  0
    9.0290  -11.4033   -3.1994 C   0  0  0  0  0  0  0  0  0  0  0  0
    8.7106  -12.3229   -4.2657 C   0  0  0  0  0  0  0  0  0  0  0  0
    9.6208  -12.5171   -5.3378 C   0  0  0  0  0  0  0  0  0  0  0  0
    9.3332  -13.3924   -6.3694 C   0  0  0  0  0  0  0  0  0  0  0  0
    8.1192  -14.1083   -6.3662 C   0  0  0  0  0  0  0  0  0  0  0  0
    7.2165  -13.9320   -5.3257 C   0  0  0  0  0  0  0  0  0  0  0  0
    7.4776  -13.0468   -4.2556 C   0  0  0  0  0  0  0  0  0  0  0  0
    6.5403  -12.8458   -3.1474 C   0  0  0  0  0  0  0  0  0  0  0  0
    5.3014  -13.5283   -3.0692 C   0  0  0  0  0  0  0  0  0  0  0  0
    4.4232  -13.3285   -2.0146 C   0  0  0  0  0  0  0  0  0  0  0  0
    4.7512  -12.4290   -0.9845 C   0  0  0  0  0  0  0  0  0  0  0  0
    5.9567  -11.7468   -1.0338 C   0  0  0  0  0  0  0  0  0  0  0  0
    6.8630  -11.9373   -2.0990 C   0  0  0  0  0  0  0  0  0  0  0  0
    8.1309  -11.1963   -2.1183 C   0  0  0  0  0  0  0  0  0  0  0  0
    8.4054  -10.3487   -1.1228 N   0  0  0  0  0  0  0  0  0  0  0  0
    8.9659   -8.5734    0.9923 C   0  0  0  0  0  0  0  0  0  0  0  0
    9.2181   -7.7085    2.0427 C   0  0  0  0  0  0  0  0  0  0  0  0
   10.0454   -6.1698    4.4867 C   0  0  0  0  0  0  0  0  0  0  0  0
   10.2918   -5.3017    5.5429 C   0  0  0  0  0  0  0  0  0  0  0  0
   10.0699   -1.5687    5.4669 C   0  0  0  0  0  0  0  0  0  0  0  0
    9.7838   -0.2207    5.2934 C   0  0  0  0  0  0  0  0  0  0  0  0
   10.3346    1.8184    5.7777 H   0  0  0  0  0  0  0  0  0  0  0  0
   12.2663    1.1401    7.2065 H   0  0  0  0  0  0  0  0  0  0  0  0
   12.8015   -1.2561    7.5230 H   0  0  0  0  0  0  0  0  0  0  0  0
   10.9284   -2.4430    8.9593 H   0  0  0  0  0  0  0  0  0  0  0  0
   11.8923   -3.3743   11.0406 H   0  0  0  0  0  0  0  0  0  0  0  0
   13.4564   -5.3179   10.9416 H   0  0  0  0  0  0  0  0  0  0  0  0
   14.0440   -6.3270    8.7348 H   0  0  0  0  0  0  0  0  0  0  0  0
   13.0938   -5.3937    6.6420 H   0  0  0  0  0  0  0  0  0  0  0  0
   12.4932   -3.1945    3.9953 H   0  0  0  0  0  0  0  0  0  0  0  0
   12.0338   -4.7223    2.1231 H   0  0  0  0  0  0  0  0  0  0  0  0
   12.2645   -6.5412    1.0411 H   0  0  0  0  0  0  0  0  0  0  0  0
   11.8337   -8.0487   -0.7933 H   0  0  0  0  0  0  0  0  0  0  0  0
   11.4272   -9.3608   -2.3052 H   0  0  0  0  0  0  0  0  0  0  0  0
   10.5517  -11.9496   -5.3137 H   0  0  0  0  0  0  0  0  0  0  0  0
   10.0468  -13.5290   -7.1869 H   0  0  0  0  0  0  0  0  0  0  0  0
    7.8852  -14.8013   -7.1785 H   0  0  0  0  0  0  0  0  0  0  0  0
    6.2838  -14.4975   -5.3458 H   0  0  0  0  0  0  0  0  0  0  0  0
    5.0218  -14.2317   -3.8542 H   0  0  0  0  0  0  0  0  0  0  0  0
    3.4755  -13.8735   -1.9881 H   0  0  0  0  0  0  0  0  0  0  0  0
    4.0607  -12.2693   -0.1519 H   0  0  0  0  0  0  0  0  0  0  0  0
    6.2431  -11.0417   -0.2531 H   0  0  0  0  0  0  0  0  0  0  0  0
    8.0405   -9.1477    0.9572 H   0  0  0  0  0  0  0  0  0  0  0  0
    8.4569   -7.6056    2.8205 H   0  0  0  0  0  0  0  0  0  0  0  0
    9.3729   -7.0126    4.6498 H   0  0  0  0  0  0  0  0  0  0  0  0
    9.7993   -5.4563    6.5061 H   0  0  0  0  0  0  0  0  0  0  0  0
    9.4619   -2.3326    4.9826 H   0  0  0  0  0  0  0  0  0  0  0  0
    8.9424    0.0718    4.6619 H   0  0  0  0  0  0  0  0  0  0  0  0
  1  2  2  0
  1 43  1  0
  1 44  1  0
  2  3  1  0
  2 45  1  0
  3  4  2  0
  3 46  1  0
  4  5  1  0
  4 42  1  0
  5  6  1  0
  5 12  1  0
  6  7  2  0
  6 11  1  0
  7  8  1  0
  7 47  1  0
  8  9  2  0
  8 48  1  0
  9 10  1  0
  9 49  1  0
 10 11  2  0
 10 50  1  0
 11 51  1  0
 12 13  2  0
 12 41  1  0
 13 14  1  0
 13 52  1  0
 14 15  2  0
 14 53  1  0
 15 16  1  0
 15 40  1  0
 16 17  2  0
 16 39  1  0
 17 18  1  0
 17 54  1  0
 18 19  2  0
 18 55  1  0
 19 20  1  0
 19 38  1  0
 20 21  2  0
 20 37  1  0
 21 22  1  0
 21 56  1  0
 22 23  2  0
 23 24  1  0
 23 36  1  0
 24 25  2  0
 24 29  1  0
 25 26  1  0
 25 57  1  0
 26 27  2  0
 26 58  1  0
 27 28  1  0
 27 59  1  0
 28 29  2  0
 28 60  1  0
 29 30  1  0
 30 31  1  0
 30 35  2  0
 31 32  2  0
 31 61  1  0
 32 33  1  0
 32 62  1  0
 33 34  2  0
 33 63  1  0
 34 35  1  0
 34 64  1  0
 35 36  1  0
 36 37  2  0
 38 39  2  0
 38 65  1  0
 39 66  1  0
 40 41  2  0
 40 67  1  0
 41 68  1  0
 42 43  2  0
 42 69  1  0
 43 70  1  0
M  END

