
     RDKit          3D

 34 33  0  0  0  0  0  0  0  0999 V2000
    0.9695   -0.1887    0.2065 C   0  0  0  0  0  0  0  0  0  0  0  0
    2.4061   -0.0381    0.2009 C   0  0  0  0  0  0  0  0  0  0  0  0
    3.0641    0.0069   -1.1640 C   0  0  0  0  0  0  0  0  0  0  0  0
    4.5801   -0.2246   -1.0913 C   0  0  0  0  0  0  0  0  0  0  0  0
    5.2797   -0.1630   -2.4427 C   0  0  0  0  0  0  0  0  0  0  0  0
    6.6967   -0.4788   -2.3801 N   0  0  0  0  0  0  0  0  0  0  0  0
    7.5915   -0.5035   -3.4999 C   0  0  0  0  0  0  0  0  0  0  0  0
    8.9886    0.0524   -3.1809 C   0  0  0  0  0  0  0  0  0  0  0  0
    9.8403   -0.1349   -4.3328 N   0  0  0  0  0  0  0  0  0  0  0  0
   11.2884    0.0124   -4.1008 C   0  0  1  0  0  0  0  0  0  0  0  0
   11.8530   -1.2143   -3.3789 C   0  0  0  0  0  0  0  0  0  0  0  0
   11.9760    0.2239   -5.4494 C   0  0  0  0  0  0  0  0  0  0  0  0
    0.4538   -0.1102    1.1731 H   0  0  0  0  0  0  0  0  0  0  0  0
    0.5312   -0.9596   -0.4482 H   0  0  0  0  0  0  0  0  0  0  0  0
    2.7808    0.7704    0.8563 H   0  0  0  0  0  0  0  0  0  0  0  0
    2.8849    0.9495   -1.7442 H   0  0  0  0  0  0  0  0  0  0  0  0
    2.6265   -0.7906   -1.7987 H   0  0  0  0  0  0  0  0  0  0  0  0
    4.7605   -1.2070   -0.6217 H   0  0  0  0  0  0  0  0  0  0  0  0
    5.0317    0.5293   -0.4214 H   0  0  0  0  0  0  0  0  0  0  0  0
    5.2138    0.8244   -2.9317 H   0  0  0  0  0  0  0  0  0  0  0  0
    4.8524   -0.8727   -3.1766 H   0  0  0  0  0  0  0  0  0  0  0  0
    7.0669   -0.7767   -1.4760 H   0  0  0  0  0  0  0  0  0  0  0  0
    7.1132    0.0203   -4.3392 H   0  0  0  0  0  0  0  0  0  0  0  0
    7.7103   -1.5625   -3.8042 H   0  0  0  0  0  0  0  0  0  0  0  0
    9.4037   -0.5139   -2.3313 H   0  0  0  0  0  0  0  0  0  0  0  0
    8.8968    1.1066   -2.8403 H   0  0  0  0  0  0  0  0  0  0  0  0
    9.5559    0.5006   -5.0774 H   0  0  0  0  0  0  0  0  0  0  0  0
   11.4904    0.9068   -3.4710 H   0  0  0  0  0  0  0  0  0  0  0  0
   11.6963   -2.1209   -3.9847 H   0  0  0  0  0  0  0  0  0  0  0  0
   11.3856   -1.3768   -2.3945 H   0  0  0  0  0  0  0  0  0  0  0  0
   12.9328   -1.0928   -3.2031 H   0  0  0  0  0  0  0  0  0  0  0  0
   11.7936   -0.6353   -6.1148 H   0  0  0  0  0  0  0  0  0  0  0  0
   13.0624    0.3362   -5.3201 H   0  0  0  0  0  0  0  0  0  0  0  0
   11.6050    1.1333   -5.9511 H   0  0  0  0  0  0  0  0  0  0  0  0
  1  2  2  0
  1 13  1  0
  1 14  1  0
  2  3  1  0
  2 15  1  0
  3  4  1  0
  3 16  1  0
  3 17  1  0
  4  5  1  0
  4 18  1  0
  4 19  1  0
  5  6  1  0
  5 20  1  0
  5 21  1  0
  6  7  1  0
  6 22  1  0
  7  8  1  0
  7 23  1  0
  7 24  1  0
  8  9  1  0
  8 25  1  0
  8 26  1  0
  9 10  1  0
  9 27  1  0
 10 11  1  0
 10 12  1  0
 10 28  1  1
 11 29  1  0
 11 30  1  0
 11 31  1  0
 12 32  1  0
 12 33  1  0
 12 34  1  0
M  END

