
     RDKit          3D

 64 71  0  0  0  0  0  0  0  0999 V2000
    2.2503    0.2420    3.3424 C   0  0  0  0  0  0  0  0  0  0  0  0
    3.3079    0.0993    2.2757 C   0  0  0  0  0  0  0  0  0  0  0  0
    3.3443    0.9562    1.1628 C   0  0  0  0  0  0  0  0  0  0  0  0
    4.3175    0.8123    0.1748 C   0  0  0  0  0  0  0  0  0  0  0  0
    5.2895   -0.1950    0.2717 C   0  0  0  0  0  0  0  0  0  0  0  0
    6.3256   -0.2984   -0.8100 C   0  0  0  0  0  0  0  0  0  0  0  0
    6.2797    0.4118   -1.8054 O   0  0  0  0  0  0  0  0  0  0  0  0
    7.2573   -1.3064   -0.6133 N   0  0  0  0  0  0  0  0  0  0  0  0
    8.4899   -1.2671   -1.0115 C   0  0  0  0  0  0  0  0  0  0  0  0
    9.0100   -0.0451   -1.3548 O   0  0  0  0  0  0  0  0  0  0  0  0
   10.3259    0.1754   -1.5876 C   0  0  0  0  0  0  0  0  0  0  0  0
   10.7102    1.4999   -1.7726 C   0  0  0  0  0  0  0  0  0  0  0  0
   12.0435    1.7870   -2.0925 C   0  0  0  0  0  0  0  0  0  0  0  0
   12.9801    0.7659   -2.2154 C   0  0  0  0  0  0  0  0  0  0  0  0
   12.6176   -0.5820   -2.0156 C   0  0  0  0  0  0  0  0  0  0  0  0
   13.5056   -1.7115   -2.1792 C   0  0  0  0  0  0  0  0  0  0  0  0
   14.8774   -1.9449   -2.4566 C   0  0  0  0  0  0  0  0  0  0  0  0
   16.0848   -1.1462   -2.4636 C   0  0  0  0  0  0  0  0  0  0  0  0
   16.2153    0.0164   -1.6660 C   0  0  0  0  0  0  0  0  0  0  0  0
   17.3991    0.7506   -1.6683 C   0  0  0  0  0  0  0  0  0  0  0  0
   18.4840    0.3466   -2.4558 C   0  0  0  0  0  0  0  0  0  0  0  0
   18.3773   -0.8148   -3.2328 C   0  0  0  0  0  0  0  0  0  0  0  0
   17.2003   -1.5567   -3.2361 C   0  0  0  0  0  0  0  0  0  0  0  0
   15.0571   -3.2780   -2.7438 O   0  0  0  0  0  0  0  0  0  0  0  0
   13.8624   -3.9225   -2.6187 C   0  0  0  0  0  0  0  0  0  0  0  0
   13.5566   -5.2640   -2.8283 C   0  0  0  0  0  0  0  0  0  0  0  0
   12.2012   -5.6135   -2.6424 C   0  0  0  0  0  0  0  0  0  0  0  0
   11.2176   -4.7012   -2.2451 C   0  0  0  0  0  0  0  0  0  0  0  0
   11.5487   -3.3313   -1.9944 C   0  0  0  0  0  0  0  0  0  0  0  0
   10.7124   -2.2424   -1.5535 C   0  0  0  0  0  0  0  0  0  0  0  0
    9.3744   -2.4064   -1.0328 C   0  0  0  0  0  0  0  0  0  0  0  0
    8.9446   -3.6586   -0.4079 C   0  0  0  0  0  0  0  0  0  0  0  0
    9.8562   -4.3898    0.4085 C   0  0  0  0  0  0  0  0  0  0  0  0
    9.4689   -5.5598    1.0573 C   0  0  0  0  0  0  0  0  0  0  0  0
    8.1712   -6.0551    0.8986 C   0  0  0  0  0  0  0  0  0  0  0  0
    7.2588   -5.3562    0.0904 C   0  0  0  0  0  0  0  0  0  0  0  0
    7.6288   -4.1742   -0.5419 C   0  0  0  0  0  0  0  0  0  0  0  0
   11.2372   -0.9026   -1.7040 C   0  0  0  0  0  0  0  0  0  0  0  0
   12.8954   -2.9955   -2.2387 C   0  0  0  0  0  0  0  0  0  0  0  0
    5.2608   -1.0568    1.3812 C   0  0  0  0  0  0  0  0  0  0  0  0
    4.2845   -0.9084    2.3653 C   0  0  0  0  0  0  0  0  0  0  0  0
    1.6308    1.1368    3.1823 H   0  0  0  0  0  0  0  0  0  0  0  0
    2.6996    0.3148    4.3468 H   0  0  0  0  0  0  0  0  0  0  0  0
    1.5773   -0.6327    3.3565 H   0  0  0  0  0  0  0  0  0  0  0  0
    2.5955    1.7487    1.0722 H   0  0  0  0  0  0  0  0  0  0  0  0
    4.3468    1.4754   -0.6922 H   0  0  0  0  0  0  0  0  0  0  0  0
    9.9503    2.2785   -1.6919 H   0  0  0  0  0  0  0  0  0  0  0  0
   12.3454    2.8231   -2.2623 H   0  0  0  0  0  0  0  0  0  0  0  0
   14.0020    1.0091   -2.5010 H   0  0  0  0  0  0  0  0  0  0  0  0
   15.3975    0.3170   -1.0103 H   0  0  0  0  0  0  0  0  0  0  0  0
   17.4821    1.6393   -1.0374 H   0  0  0  0  0  0  0  0  0  0  0  0
   19.4099    0.9267   -2.4568 H   0  0  0  0  0  0  0  0  0  0  0  0
   19.2218   -1.1418   -3.8448 H   0  0  0  0  0  0  0  0  0  0  0  0
   17.1218   -2.4590   -3.8442 H   0  0  0  0  0  0  0  0  0  0  0  0
   14.3045   -5.9939   -3.1403 H   0  0  0  0  0  0  0  0  0  0  0  0
   11.9023   -6.6480   -2.8296 H   0  0  0  0  0  0  0  0  0  0  0  0
   10.1865   -5.0405   -2.1710 H   0  0  0  0  0  0  0  0  0  0  0  0
   10.8617   -3.9969    0.5653 H   0  0  0  0  0  0  0  0  0  0  0  0
   10.1846   -6.0858    1.6942 H   0  0  0  0  0  0  0  0  0  0  0  0
    7.8677   -6.9783    1.3988 H   0  0  0  0  0  0  0  0  0  0  0  0
    6.2467   -5.7451   -0.0487 H   0  0  0  0  0  0  0  0  0  0  0  0
    6.9130   -3.6420   -1.1647 H   0  0  0  0  0  0  0  0  0  0  0  0
    6.0117   -1.8450    1.4576 H   0  0  0  0  0  0  0  0  0  0  0  0
    4.2766   -1.5889    3.2224 H   0  0  0  0  0  0  0  0  0  0  0  0
  1  2  1  0
  1 42  1  0
  1 43  1  0
  1 44  1  0
  2  3  2  0
  2 41  1  0
  3  4  1  0
  3 45  1  0
  4  5  2  0
  4 46  1  0
  5  6  1  0
  5 40  1  0
  6  7  2  0
  6  8  1  0
  8  9  2  0
  9 10  1  0
  9 31  1  0
 10 11  1  0
 11 12  2  0
 11 38  1  0
 12 13  1  0
 12 47  1  0
 13 14  2  0
 13 48  1  0
 14 15  1  0
 14 49  1  0
 15 16  1  0
 15 38  2  0
 16 17  2  0
 16 39  1  0
 17 18  1  0
 17 24  1  0
 18 19  2  0
 18 23  1  0
 19 20  1  0
 19 50  1  0
 20 21  2  0
 20 51  1  0
 21 22  1  0
 21 52  1  0
 22 23  2  0
 22 53  1  0
 23 54  1  0
 24 25  1  0
 25 26  1  0
 25 39  2  0
 26 27  2  0
 26 55  1  0
 27 28  1  0
 27 56  1  0
 28 29  2  0
 28 57  1  0
 29 30  1  0
 29 39  1  0
 30 31  2  0
 30 38  1  0
 31 32  1  0
 32 33  2  0
 32 37  1  0
 33 34  1  0
 33 58  1  0
 34 35  2  0
 34 59  1  0
 35 36  1  0
 35 60  1  0
 36 37  2  0
 36 61  1  0
 37 62  1  0
 40 41  2  0
 40 63  1  0
 41 64  1  0
M  END

