
     RDKit          3D

100107  0  0  0  0  0  0  0  0999 V2000
    5.1387   -2.5152   -4.1363 N   0  0  0  0  0  0  0  0  0  0  0  0
    5.2367   -2.0018   -3.0975 C   0  0  0  0  0  0  0  0  0  0  0  0
    5.3870   -1.3247   -1.8404 C   0  0  0  0  0  0  0  0  0  0  0  0
    6.0848   -0.1183   -1.8773 C   0  0  0  0  0  0  0  0  0  0  0  0
    6.3172    0.6673   -0.7172 C   0  0  0  0  0  0  0  0  0  0  0  0
    7.0257    1.9146   -0.7288 C   0  0  0  0  0  0  0  0  0  0  0  0
    7.5967    2.5404   -1.8178 C   0  0  0  0  0  0  0  0  0  0  0  0
    8.2947    3.7931   -1.8275 C   0  0  0  0  0  0  0  0  0  0  0  0
    8.8391    4.2994   -3.0474 C   0  0  0  0  0  0  0  0  0  0  0  0
    9.5143    5.4991   -3.1104 C   0  0  0  0  0  0  0  0  0  0  0  0
    9.7155    6.3177   -1.9637 C   0  0  0  0  0  0  0  0  0  0  0  0
   10.4124    7.5765   -1.9977 C   0  0  0  0  0  0  0  0  0  0  0  0
   10.9984    8.1714   -3.0842 C   0  0  0  0  0  0  0  0  0  0  0  0
   11.6873    9.4463   -3.0947 C   0  0  0  0  0  0  0  0  0  0  0  0
   12.2800    9.9109   -4.2966 C   0  0  0  0  0  0  0  0  0  0  0  0
   12.9557   11.1207   -4.3665 C   0  0  0  0  0  0  0  0  0  0  0  0
   13.0677   11.9442   -3.2266 C   0  0  0  0  0  0  0  0  0  0  0  0
   13.7513   13.1813   -3.2887 N   0  0  0  0  0  0  0  0  0  0  0  0
   13.6074   14.0148   -4.4262 C   0  0  0  0  0  0  0  0  0  0  0  0
   12.3476   14.1816   -5.0343 C   0  0  0  0  0  0  0  0  0  0  0  0
   12.2128   14.9949   -6.1590 C   0  0  0  0  0  0  0  0  0  0  0  0
   13.3215   15.6622   -6.6919 C   0  0  0  0  0  0  0  0  0  0  0  0
   14.5735   15.5035   -6.0873 C   0  0  0  0  0  0  0  0  0  0  0  0
   14.7219   14.6847   -4.9683 C   0  0  0  0  0  0  0  0  0  0  0  0
   14.5819   13.5879   -2.2140 C   0  0  0  0  0  0  0  0  0  0  0  0
   15.4164   12.6571   -1.5647 C   0  0  0  0  0  0  0  0  0  0  0  0
   16.2237   13.0599   -0.5014 C   0  0  0  0  0  0  0  0  0  0  0  0
   16.2235   14.3919   -0.0726 C   0  0  0  0  0  0  0  0  0  0  0  0
   15.3999   15.3207   -0.7186 C   0  0  0  0  0  0  0  0  0  0  0  0
   14.5809   14.9270   -1.7762 C   0  0  0  0  0  0  0  0  0  0  0  0
   12.4790   11.5018   -2.0211 C   0  0  0  0  0  0  0  0  0  0  0  0
   11.8127   10.2881   -1.9576 C   0  0  0  0  0  0  0  0  0  0  0  0
    9.1692    5.8128   -0.7335 C   0  0  0  0  0  0  0  0  0  0  0  0
    9.3181    6.5668    0.4808 C   0  0  0  0  0  0  0  0  0  0  0  0
    9.4394    7.1787    1.4616 N   0  0  0  0  0  0  0  0  0  0  0  0
    8.4887    4.5995   -0.6735 C   0  0  0  0  0  0  0  0  0  0  0  0
    5.7951    0.1455    0.5041 C   0  0  0  0  0  0  0  0  0  0  0  0
    5.1059   -1.0478    0.5463 C   0  0  0  0  0  0  0  0  0  0  0  0
    4.8576   -1.8458   -0.6060 C   0  0  0  0  0  0  0  0  0  0  0  0
    4.1128   -3.0673   -0.4241 C   0  0  0  0  0  0  0  0  0  0  0  0
    3.7019   -4.0049   -1.3347 C   0  0  0  0  0  0  0  0  0  0  0  0
    2.9445   -5.2051   -1.0322 C   0  0  0  0  0  0  0  0  0  0  0  0
    2.5560   -5.6005    0.2749 C   0  0  0  0  0  0  0  0  0  0  0  0
    1.8297   -6.7594    0.4999 C   0  0  0  0  0  0  0  0  0  0  0  0
    1.4440   -7.5914   -0.5743 C   0  0  0  0  0  0  0  0  0  0  0  0
    0.6989   -8.7723   -0.3439 N   0  0  0  0  0  0  0  0  0  0  0  0
   -0.3524   -8.7718    0.6063 C   0  0  0  0  0  0  0  0  0  0  0  0
   -1.2228   -7.6683    0.7065 C   0  0  0  0  0  0  0  0  0  0  0  0
   -2.2502   -7.6680    1.6491 C   0  0  0  0  0  0  0  0  0  0  0  0
   -2.4364   -8.7639    2.4992 C   0  0  0  0  0  0  0  0  0  0  0  0
   -1.5767   -9.8638    2.3998 C   0  0  0  0  0  0  0  0  0  0  0  0
   -0.5397   -9.8712    1.4677 C   0  0  0  0  0  0  0  0  0  0  0  0
    1.0038   -9.9542   -1.0642 C   0  0  0  0  0  0  0  0  0  0  0  0
    2.3438  -10.3146   -1.3089 C   0  0  0  0  0  0  0  0  0  0  0  0
    2.6391  -11.4740   -2.0248 C   0  0  0  0  0  0  0  0  0  0  0  0
    1.6124  -12.2975   -2.5004 C   0  0  0  0  0  0  0  0  0  0  0  0
    0.2803  -11.9450   -2.2558 C   0  0  0  0  0  0  0  0  0  0  0  0
   -0.0273  -10.7827   -1.5498 C   0  0  0  0  0  0  0  0  0  0  0  0
    1.8218   -7.2167   -1.8808 C   0  0  0  0  0  0  0  0  0  0  0  0
    2.5538   -6.0582   -2.0964 C   0  0  0  0  0  0  0  0  0  0  0  0
    6.4586    0.2215   -2.8441 H   0  0  0  0  0  0  0  0  0  0  0  0
    7.1063    2.4002    0.2489 H   0  0  0  0  0  0  0  0  0  0  0  0
    7.5251    2.0514   -2.7946 H   0  0  0  0  0  0  0  0  0  0  0  0
    8.7107    3.7095   -3.9594 H   0  0  0  0  0  0  0  0  0  0  0  0
    9.9042    5.8312   -4.0743 H   0  0  0  0  0  0  0  0  0  0  0  0
   10.4704    8.0966   -1.0374 H   0  0  0  0  0  0  0  0  0  0  0  0
   10.9639    7.6606   -4.0511 H   0  0  0  0  0  0  0  0  0  0  0  0
   12.2144    9.2867   -5.1920 H   0  0  0  0  0  0  0  0  0  0  0  0
   13.4137   11.4353   -5.3060 H   0  0  0  0  0  0  0  0  0  0  0  0
   11.4773   13.6753   -4.6134 H   0  0  0  0  0  0  0  0  0  0  0  0
   11.2276   15.1180   -6.6160 H   0  0  0  0  0  0  0  0  0  0  0  0
   13.2106   16.3007   -7.5713 H   0  0  0  0  0  0  0  0  0  0  0  0
   15.4489   16.0121   -6.4990 H   0  0  0  0  0  0  0  0  0  0  0  0
   15.7040   14.5514   -4.5113 H   0  0  0  0  0  0  0  0  0  0  0  0
   15.4307   11.6200   -1.9041 H   0  0  0  0  0  0  0  0  0  0  0  0
   16.8682   12.3264   -0.0103 H   0  0  0  0  0  0  0  0  0  0  0  0
   16.8593   14.7034    0.7593 H   0  0  0  0  0  0  0  0  0  0  0  0
   15.3834   16.3620   -0.3867 H   0  0  0  0  0  0  0  0  0  0  0  0
   13.9278   15.6521   -2.2648 H   0  0  0  0  0  0  0  0  0  0  0  0
   12.5412   12.1312   -1.1314 H   0  0  0  0  0  0  0  0  0  0  0  0
   11.3619    9.9921   -1.0086 H   0  0  0  0  0  0  0  0  0  0  0  0
    8.0979    4.2752    0.2916 H   0  0  0  0  0  0  0  0  0  0  0  0
    5.9489    0.7116    1.4268 H   0  0  0  0  0  0  0  0  0  0  0  0
    4.7244   -1.4060    1.5065 H   0  0  0  0  0  0  0  0  0  0  0  0
    3.8407   -3.2381    0.6231 H   0  0  0  0  0  0  0  0  0  0  0  0
    3.9400   -3.8708   -2.3901 H   0  0  0  0  0  0  0  0  0  0  0  0
    2.8452   -4.9943    1.1354 H   0  0  0  0  0  0  0  0  0  0  0  0
    1.5616   -7.0418    1.5197 H   0  0  0  0  0  0  0  0  0  0  0  0
   -1.0919   -6.8183    0.0349 H   0  0  0  0  0  0  0  0  0  0  0  0
   -2.9205   -6.8069    1.7105 H   0  0  0  0  0  0  0  0  0  0  0  0
   -3.2448   -8.7608    3.2339 H   0  0  0  0  0  0  0  0  0  0  0  0
   -1.7056  -10.7215    3.0648 H   0  0  0  0  0  0  0  0  0  0  0  0
    0.1384  -10.7240    1.4067 H   0  0  0  0  0  0  0  0  0  0  0  0
    3.1481   -9.6840   -0.9266 H   0  0  0  0  0  0  0  0  0  0  0  0
    3.6835  -11.7427   -2.2020 H   0  0  0  0  0  0  0  0  0  0  0  0
    1.8485  -13.2064   -3.0584 H   0  0  0  0  0  0  0  0  0  0  0  0
   -0.5305  -12.5743   -2.6315 H   0  0  0  0  0  0  0  0  0  0  0  0
   -1.0682  -10.5033   -1.3780 H   0  0  0  0  0  0  0  0  0  0  0  0
    1.5248   -7.8385   -2.7273 H   0  0  0  0  0  0  0  0  0  0  0  0
    2.8270   -5.7820   -3.1181 H   0  0  0  0  0  0  0  0  0  0  0  0
  1  2  3  0
  2  3  1  0
  3  4  2  0
  3 39  1  0
  4  5  1  0
  4 61  1  0
  5  6  1  0
  5 37  2  0
  6  7  2  0
  6 62  1  0
  7  8  1  0
  7 63  1  0
  8  9  2  0
  8 36  1  0
  9 10  1  0
  9 64  1  0
 10 11  2  0
 10 65  1  0
 11 12  1  0
 11 33  1  0
 12 13  2  0
 12 66  1  0
 13 14  1  0
 13 67  1  0
 14 15  2  0
 14 32  1  0
 15 16  1  0
 15 68  1  0
 16 17  2  0
 16 69  1  0
 17 18  1  0
 17 31  1  0
 18 19  1  0
 18 25  1  0
 19 20  2  0
 19 24  1  0
 20 21  1  0
 20 70  1  0
 21 22  2  0
 21 71  1  0
 22 23  1  0
 22 72  1  0
 23 24  2  0
 23 73  1  0
 24 74  1  0
 25 26  2  0
 25 30  1  0
 26 27  1  0
 26 75  1  0
 27 28  2  0
 27 76  1  0
 28 29  1  0
 28 77  1  0
 29 30  2  0
 29 78  1  0
 30 79  1  0
 31 32  2  0
 31 80  1  0
 32 81  1  0
 33 34  1  0
 33 36  2  0
 34 35  3  0
 36 82  1  0
 37 38  1  0
 37 83  1  0
 38 39  2  0
 38 84  1  0
 39 40  1  0
 40 41  2  0
 40 85  1  0
 41 42  1  0
 41 86  1  0
 42 43  2  0
 42 60  1  0
 43 44  1  0
 43 87  1  0
 44 45  2  0
 44 88  1  0
 45 46  1  0
 45 59  1  0
 46 47  1  0
 46 53  1  0
 47 48  2  0
 47 52  1  0
 48 49  1  0
 48 89  1  0
 49 50  2  0
 49 90  1  0
 50 51  1  0
 50 91  1  0
 51 52  2  0
 51 92  1  0
 52 93  1  0
 53 54  2  0
 53 58  1  0
 54 55  1  0
 54 94  1  0
 55 56  2  0
 55 95  1  0
 56 57  1  0
 56 96  1  0
 57 58  2  0
 57 97  1  0
 58 98  1  0
 59 60  2  0
 59 99  1  0
 60100  1  0
M  END

