
     RDKit          3D

 43 46  0  0  0  0  0  0  0  0999 V2000
    3.1293    2.0426   -1.0469 C   0  0  0  0  0  0  0  0  0  0  0  0
    3.1906    0.6047   -0.5291 C   0  0  1  0  0  0  0  0  0  0  0  0
    3.0721   -0.4033   -1.6272 C   0  0  0  0  0  0  0  0  0  0  0  0
    2.6980   -0.2248   -2.8471 N   0  0  0  0  0  0  0  0  0  0  0  0
    2.6294   -1.4488   -3.4467 N   0  0  0  0  0  0  0  0  0  0  0  0
    2.9872   -2.3609   -2.5258 C   0  0  0  0  0  0  0  0  0  0  0  0
    3.1238   -3.7598   -2.6257 C   0  0  0  0  0  0  0  0  0  0  0  0
    2.8877   -4.4305   -3.8743 C   0  0  0  0  0  0  0  0  0  0  0  0
    3.0345   -5.7966   -3.9815 C   0  0  0  0  0  0  0  0  0  0  0  0
    3.4190   -6.5893   -2.8715 C   0  0  0  0  0  0  0  0  0  0  0  0
    3.5964   -8.3184   -3.0617 Cl  0  0  0  0  0  0  0  0  0  0  0  0
    3.6448   -5.9432   -1.6370 C   0  0  0  0  0  0  0  0  0  0  0  0
    4.1140   -6.8763   -0.2220 Cl  0  0  0  0  0  0  0  0  0  0  0  0
    3.5030   -4.5729   -1.5038 C   0  0  0  0  0  0  0  0  0  0  0  0
    3.2726   -1.7186   -1.3032 O   0  0  0  0  0  0  0  0  0  0  0  0
    4.4396    0.3188    0.2263 N   0  0  0  0  0  0  0  0  0  0  0  0
    5.7526    0.4663   -0.3122 C   0  0  2  0  0  0  0  0  0  0  0  0
    6.4524   -0.8451    0.0957 C   0  0  0  0  0  0  0  0  0  0  0  0
    5.7415   -1.2852    1.4003 C   0  0  0  0  0  0  0  0  0  0  0  0
    4.4577   -0.4203    1.4944 C   0  0  1  0  0  0  0  0  0  0  0  0
    4.4122    0.5909    2.7081 C   0  0  0  0  0  0  0  0  0  0  0  0
    5.0573    1.8853    2.2398 C   0  0  0  0  0  0  0  0  0  0  0  0
    4.4317    2.8928    2.0253 O   0  0  0  0  0  0  0  0  0  0  0  0
    6.3857    1.7366    1.7706 N   0  0  0  0  0  0  0  0  0  0  0  0
    6.4767    1.7604    0.3376 C   0  0  0  0  0  0  0  0  0  0  0  0
    2.1806    2.1603   -1.5850 H   0  0  0  0  0  0  0  0  0  0  0  0
    3.9273    2.2455   -1.7752 H   0  0  0  0  0  0  0  0  0  0  0  0
    3.1776    2.7631   -0.2192 H   0  0  0  0  0  0  0  0  0  0  0  0
    2.3856    0.4589    0.2133 H   0  0  0  0  0  0  0  0  0  0  0  0
    2.5899   -3.8366   -4.7394 H   0  0  0  0  0  0  0  0  0  0  0  0
    2.8545   -6.2967   -4.9354 H   0  0  0  0  0  0  0  0  0  0  0  0
    3.6718   -4.1212   -0.5279 H   0  0  0  0  0  0  0  0  0  0  0  0
    5.7026    0.6378   -1.3956 H   0  0  0  0  0  0  0  0  0  0  0  0
    7.5385   -0.7191    0.2095 H   0  0  0  0  0  0  0  0  0  0  0  0
    6.2817   -1.5850   -0.6964 H   0  0  0  0  0  0  0  0  0  0  0  0
    6.3745   -1.1480    2.2894 H   0  0  0  0  0  0  0  0  0  0  0  0
    5.4786   -2.3495    1.3627 H   0  0  0  0  0  0  0  0  0  0  0  0
    3.5519   -1.0384    1.5287 H   0  0  0  0  0  0  0  0  0  0  0  0
    4.9290    0.1338    3.5651 H   0  0  0  0  0  0  0  0  0  0  0  0
    3.3758    0.8100    2.9914 H   0  0  0  0  0  0  0  0  0  0  0  0
    6.9054    0.9777    2.2042 H   0  0  0  0  0  0  0  0  0  0  0  0
    7.5209    1.7318   -0.0011 H   0  0  0  0  0  0  0  0  0  0  0  0
    5.9879    2.6636   -0.0457 H   0  0  0  0  0  0  0  0  0  0  0  0
  1  2  1  0
  1 26  1  0
  1 27  1  0
  1 28  1  0
  2  3  1  0
  2 16  1  0
  2 29  1  1
  3  4  2  0
  3 15  1  0
  4  5  1  0
  5  6  2  0
  6  7  1  0
  6 15  1  0
  7  8  2  0
  7 14  1  0
  8  9  1  0
  8 30  1  0
  9 10  2  0
  9 31  1  0
 10 11  1  0
 10 12  1  0
 12 13  1  0
 12 14  2  0
 14 32  1  0
 16 17  1  0
 16 20  1  0
 17 18  1  0
 17 25  1  0
 17 33  1  6
 18 19  1  0
 18 34  1  0
 18 35  1  0
 19 20  1  0
 19 36  1  0
 19 37  1  0
 20 21  1  0
 20 38  1  1
 21 22  1  0
 21 39  1  0
 21 40  1  0
 22 23  2  0
 22 24  1  0
 24 25  1  0
 24 41  1  0
 25 42  1  0
 25 43  1  0
M  END

