
     RDKit          3D

 64 64  0  0  0  0  0  0  0  0999 V2000
    6.0640    9.1990    5.2365 C   0  0  0  0  0  0  0  0  0  0  0  0
    5.8139    8.6090    3.8478 C   0  0  0  0  0  0  0  0  0  0  0  0
    6.0763    7.1021    3.7639 C   0  0  0  0  0  0  0  0  0  0  0  0
    5.8316    6.5107    2.3721 C   0  0  0  0  0  0  0  0  0  0  0  0
    6.0972    5.0028    2.2963 C   0  0  0  0  0  0  0  0  0  0  0  0
    5.7692    4.3542    0.9448 C   0  0  0  0  0  0  0  0  0  0  0  0
    6.6254    4.8036   -0.2499 C   0  0  0  0  0  0  0  0  0  0  0  0
    8.0620    4.5179   -0.1516 N   0  0  0  0  0  0  0  0  0  0  0  0
    8.5108    3.1505   -0.4127 C   0  0  0  0  0  0  0  0  0  0  0  0
    8.7223    2.2645    0.8244 C   0  0  0  0  0  0  0  0  0  0  0  0
    9.1882    0.8524    0.4578 C   0  0  0  0  0  0  0  0  0  0  0  0
    9.4085   -0.0601    1.6680 C   0  0  0  0  0  0  0  0  0  0  0  0
    9.8667   -1.4741    1.2997 C   0  0  0  0  0  0  0  0  0  0  0  0
   10.0890   -2.3898    2.5074 C   0  0  0  0  0  0  0  0  0  0  0  0
   10.5429   -3.8006    2.1304 C   0  0  0  0  0  0  0  0  0  0  0  0
    8.9231    5.5680    0.0671 C   0  0  0  0  0  0  0  0  0  0  0  0
    8.5233    6.7102    0.2605 O   0  0  0  0  0  0  0  0  0  0  0  0
   10.4262    5.2715    0.0357 C   0  0  0  0  0  0  0  0  0  0  0  0
   11.2628    6.4968    0.4598 C   0  0  0  0  0  0  0  0  0  0  0  0
   12.7308    6.2310    0.3767 C   0  0  0  0  0  0  0  0  0  0  0  0
   13.4240    6.3843   -0.8708 C   0  0  0  0  0  0  0  0  0  0  0  0
   14.8047    6.0321   -0.9777 C   0  0  0  0  0  0  0  0  0  0  0  0
   15.4990    5.5421    0.1656 C   0  0  0  0  0  0  0  0  0  0  0  0
   14.8303    5.3962    1.4144 C   0  0  0  0  0  0  0  0  0  0  0  0
   13.4496    5.7476    1.5208 C   0  0  0  0  0  0  0  0  0  0  0  0
    5.8652   10.2827    5.2594 H   0  0  0  0  0  0  0  0  0  0  0  0
    7.1093    9.0467    5.5541 H   0  0  0  0  0  0  0  0  0  0  0  0
    5.4184    8.7266    5.9963 H   0  0  0  0  0  0  0  0  0  0  0  0
    6.4483    9.1268    3.1061 H   0  0  0  0  0  0  0  0  0  0  0  0
    4.7708    8.8121    3.5430 H   0  0  0  0  0  0  0  0  0  0  0  0
    5.4434    6.5798    4.5067 H   0  0  0  0  0  0  0  0  0  0  0  0
    7.1211    6.8995    4.0654 H   0  0  0  0  0  0  0  0  0  0  0  0
    6.4757    7.0323    1.6452 H   0  0  0  0  0  0  0  0  0  0  0  0
    4.7853    6.7100    2.0716 H   0  0  0  0  0  0  0  0  0  0  0  0
    5.5025    4.4913    3.0749 H   0  0  0  0  0  0  0  0  0  0  0  0
    7.1540    4.8049    2.5523 H   0  0  0  0  0  0  0  0  0  0  0  0
    4.7173    4.5704    0.6826 H   0  0  0  0  0  0  0  0  0  0  0  0
    5.8278    3.2562    1.0430 H   0  0  0  0  0  0  0  0  0  0  0  0
    6.5289    5.8865   -0.3987 H   0  0  0  0  0  0  0  0  0  0  0  0
    6.2473    4.3092   -1.1620 H   0  0  0  0  0  0  0  0  0  0  0  0
    9.4388    3.1724   -1.0051 H   0  0  0  0  0  0  0  0  0  0  0  0
    7.7556    2.6802   -1.0646 H   0  0  0  0  0  0  0  0  0  0  0  0
    7.7850    2.2081    1.4020 H   0  0  0  0  0  0  0  0  0  0  0  0
    9.4623    2.7368    1.4936 H   0  0  0  0  0  0  0  0  0  0  0  0
   10.1256    0.9153   -0.1260 H   0  0  0  0  0  0  0  0  0  0  0  0
    8.4468    0.3868   -0.2184 H   0  0  0  0  0  0  0  0  0  0  0  0
    8.4728   -0.1205    2.2543 H   0  0  0  0  0  0  0  0  0  0  0  0
   10.1536    0.4022    2.3417 H   0  0  0  0  0  0  0  0  0  0  0  0
   10.8017   -1.4131    0.7117 H   0  0  0  0  0  0  0  0  0  0  0  0
    9.1204   -1.9355    0.6258 H   0  0  0  0  0  0  0  0  0  0  0  0
    9.1546   -2.4477    3.0953 H   0  0  0  0  0  0  0  0  0  0  0  0
   10.8359   -1.9287    3.1792 H   0  0  0  0  0  0  0  0  0  0  0  0
    9.7996   -4.3031    1.4886 H   0  0  0  0  0  0  0  0  0  0  0  0
   10.6910   -4.4304    3.0222 H   0  0  0  0  0  0  0  0  0  0  0  0
   11.4959   -3.7810    1.5755 H   0  0  0  0  0  0  0  0  0  0  0  0
   10.7108    4.9668   -0.9874 H   0  0  0  0  0  0  0  0  0  0  0  0
   10.6686    4.4129    0.6814 H   0  0  0  0  0  0  0  0  0  0  0  0
   10.9757    6.7792    1.4857 H   0  0  0  0  0  0  0  0  0  0  0  0
   10.9799    7.3416   -0.1898 H   0  0  0  0  0  0  0  0  0  0  0  0
   12.8899    6.7851   -1.7350 H   0  0  0  0  0  0  0  0  0  0  0  0
   15.3270    6.1393   -1.9299 H   0  0  0  0  0  0  0  0  0  0  0  0
   16.5562    5.2793    0.0842 H   0  0  0  0  0  0  0  0  0  0  0  0
   15.3701    5.0184    2.2843 H   0  0  0  0  0  0  0  0  0  0  0  0
   12.9311    5.6556    2.4777 H   0  0  0  0  0  0  0  0  0  0  0  0
  1  2  1  0
  1 26  1  0
  1 27  1  0
  1 28  1  0
  2  3  1  0
  2 29  1  0
  2 30  1  0
  3  4  1  0
  3 31  1  0
  3 32  1  0
  4  5  1  0
  4 33  1  0
  4 34  1  0
  5  6  1  0
  5 35  1  0
  5 36  1  0
  6  7  1  0
  6 37  1  0
  6 38  1  0
  7  8  1  0
  7 39  1  0
  7 40  1  0
  8  9  1  0
  8 16  1  0
  9 10  1  0
  9 41  1  0
  9 42  1  0
 10 11  1  0
 10 43  1  0
 10 44  1  0
 11 12  1  0
 11 45  1  0
 11 46  1  0
 12 13  1  0
 12 47  1  0
 12 48  1  0
 13 14  1  0
 13 49  1  0
 13 50  1  0
 14 15  1  0
 14 51  1  0
 14 52  1  0
 15 53  1  0
 15 54  1  0
 15 55  1  0
 16 17  2  0
 16 18  1  0
 18 19  1  0
 18 56  1  0
 18 57  1  0
 19 20  1  0
 19 58  1  0
 19 59  1  0
 20 21  2  0
 20 25  1  0
 21 22  1  0
 21 60  1  0
 22 23  2  0
 22 61  1  0
 23 24  1  0
 23 62  1  0
 24 25  2  0
 24 63  1  0
 25 64  1  0
M  END

