
     RDKit          3D

 38 39  0  0  0  0  0  0  0  0999 V2000
    0.6540   -0.2385   -0.0099 C   0  0  0  0  0  0  0  0  0  0  0  0
    2.0927   -0.0677    0.1458 N   0  0  0  0  0  0  0  0  0  0  0  0
    2.3837    0.8571    1.2392 C   0  0  0  0  0  0  0  0  0  0  0  0
    2.0228    2.2996    0.9356 C   0  0  0  0  0  0  0  0  0  0  0  0
    1.4451    3.1177    1.9179 C   0  0  0  0  0  0  0  0  0  0  0  0
    1.1729    4.4646    1.6553 C   0  0  0  0  0  0  0  0  0  0  0  0
    1.4642    5.0175    0.4065 C   0  0  0  0  0  0  0  0  0  0  0  0
    2.0312    4.1916   -0.5630 C   0  0  0  0  0  0  0  0  0  0  0  0
    2.3144    4.7065   -1.7707 F   0  0  0  0  0  0  0  0  0  0  0  0
    2.3137    2.8512   -0.3211 C   0  0  0  0  0  0  0  0  0  0  0  0
    2.8274   -1.3406    0.2492 C   0  0  1  0  0  0  0  0  0  0  0  0
    2.4906   -2.2867   -0.9285 C   0  0  0  0  0  0  0  0  0  0  0  0
    2.7453   -1.6725   -2.2207 N   0  0  0  0  0  0  0  0  0  0  0  0
    4.3332   -1.1360    0.3653 C   0  0  0  0  0  0  0  0  0  0  0  0
    5.0581   -0.3966   -0.5842 C   0  0  0  0  0  0  0  0  0  0  0  0
    6.4445   -0.2630   -0.4782 C   0  0  0  0  0  0  0  0  0  0  0  0
    7.1239   -0.8698    0.5741 C   0  0  0  0  0  0  0  0  0  0  0  0
    8.4506   -0.7515    0.6902 F   0  0  0  0  0  0  0  0  0  0  0  0
    6.4147   -1.6094    1.5230 C   0  0  0  0  0  0  0  0  0  0  0  0
    7.0750   -2.1853    2.5345 F   0  0  0  0  0  0  0  0  0  0  0  0
    5.0331   -1.7399    1.4212 C   0  0  0  0  0  0  0  0  0  0  0  0
    0.1695    0.7481   -0.0222 H   0  0  0  0  0  0  0  0  0  0  0  0
    0.1975   -0.8286    0.8169 H   0  0  0  0  0  0  0  0  0  0  0  0
    0.4032   -0.7353   -0.9581 H   0  0  0  0  0  0  0  0  0  0  0  0
    3.4643    0.8143    1.4445 H   0  0  0  0  0  0  0  0  0  0  0  0
    1.8801    0.5484    2.1829 H   0  0  0  0  0  0  0  0  0  0  0  0
    1.2063    2.6968    2.8982 H   0  0  0  0  0  0  0  0  0  0  0  0
    0.7230    5.0904    2.4301 H   0  0  0  0  0  0  0  0  0  0  0  0
    1.2587    6.0635    0.1715 H   0  0  0  0  0  0  0  0  0  0  0  0
    2.7528    2.2387   -1.1096 H   0  0  0  0  0  0  0  0  0  0  0  0
    2.5053   -1.8871    1.1663 H   0  0  0  0  0  0  0  0  0  0  0  0
    1.4522   -2.6560   -0.7916 H   0  0  0  0  0  0  0  0  0  0  0  0
    3.1385   -3.1721   -0.8237 H   0  0  0  0  0  0  0  0  0  0  0  0
    2.1569   -0.8508   -2.3524 H   0  0  0  0  0  0  0  0  0  0  0  0
    2.5445   -2.3207   -2.9803 H   0  0  0  0  0  0  0  0  0  0  0  0
    4.5310    0.0566   -1.4218 H   0  0  0  0  0  0  0  0  0  0  0  0
    7.0205    0.3073   -1.2101 H   0  0  0  0  0  0  0  0  0  0  0  0
    4.5153   -2.3212    2.1882 H   0  0  0  0  0  0  0  0  0  0  0  0
  1  2  1  0
  1 22  1  0
  1 23  1  0
  1 24  1  0
  2  3  1  0
  2 11  1  0
  3  4  1  0
  3 25  1  0
  3 26  1  0
  4  5  2  0
  4 10  1  0
  5  6  1  0
  5 27  1  0
  6  7  2  0
  6 28  1  0
  7  8  1  0
  7 29  1  0
  8  9  1  0
  8 10  2  0
 10 30  1  0
 11 12  1  0
 11 14  1  0
 11 31  1  1
 12 13  1  0
 12 32  1  0
 12 33  1  0
 13 34  1  0
 13 35  1  0
 14 15  2  0
 14 21  1  0
 15 16  1  0
 15 36  1  0
 16 17  2  0
 16 37  1  0
 17 18  1  0
 17 19  1  0
 19 20  1  0
 19 21  2  0
 21 38  1  0
M  END

