
     RDKit          3D

 65 67  0  0  0  0  0  0  0  0999 V2000
    5.5121   -1.0964   -2.0816 C   0  0  0  0  0  0  0  0  0  0  0  0
    5.1973   -1.1998   -0.5879 C   0  0  0  0  0  0  0  0  0  0  0  0
    3.6912   -1.2080   -0.2464 C   0  0  1  0  0  0  0  0  0  0  0  0
    3.0697   -2.3940   -0.8038 N   0  0  0  0  0  0  0  0  0  0  0  0
    1.7253   -2.5114   -1.1187 C   0  0  0  0  0  0  0  0  0  0  0  0
    1.2805   -3.6056   -1.8934 C   0  0  0  0  0  0  0  0  0  0  0  0
   -0.0673   -3.7514   -2.2042 C   0  0  0  0  0  0  0  0  0  0  0  0
   -0.9919   -2.8139   -1.7523 C   0  0  0  0  0  0  0  0  0  0  0  0
   -2.2881   -2.9822   -2.0924 F   0  0  0  0  0  0  0  0  0  0  0  0
   -0.6032   -1.7091   -0.9816 C   0  0  0  0  0  0  0  0  0  0  0  0
   -1.5788   -0.6916   -0.5062 C   0  0  0  0  0  0  0  0  0  0  0  0
   -1.2422    0.6730   -0.5034 C   0  0  0  0  0  0  0  0  0  0  0  0
   -2.1424    1.6254   -0.0303 C   0  0  0  0  0  0  0  0  0  0  0  0
   -3.4098    1.2490    0.4314 C   0  0  0  0  0  0  0  0  0  0  0  0
   -4.3069    2.3192    1.0066 C   0  0  0  0  0  0  0  0  0  0  0  0
   -4.0432    2.8356    2.0793 O   0  0  0  0  0  0  0  0  0  0  0  0
   -5.4463    2.6622    0.2861 N   0  0  0  0  0  0  0  0  0  0  0  0
   -5.6299    2.3154   -1.1208 C   0  0  0  0  0  0  0  0  0  0  0  0
   -6.2983    3.7292    0.8302 C   0  0  1  0  0  0  0  0  0  0  0  0
   -6.2081    5.0618    0.0877 C   0  0  0  0  0  0  0  0  0  0  0  0
   -7.7564    3.2519    0.9700 C   0  0  0  0  0  0  0  0  0  0  0  0
   -8.7021    3.9897    0.9253 O   0  0  0  0  0  0  0  0  0  0  0  0
   -7.8998    1.9324    1.1994 O   0  0  0  0  0  0  0  0  0  0  0  0
   -3.7688   -0.1162    0.4551 C   0  0  0  0  0  0  0  0  0  0  0  0
   -5.1058   -0.5726    0.9936 C   0  0  0  0  0  0  0  0  0  0  0  0
   -2.8464   -1.0575   -0.0180 C   0  0  0  0  0  0  0  0  0  0  0  0
    0.7658   -1.5809   -0.6753 C   0  0  0  0  0  0  0  0  0  0  0  0
    3.4808   -1.0625    1.2627 C   0  0  0  0  0  0  0  0  0  0  0  0
    3.4393    0.2099    1.8478 C   0  0  0  0  0  0  0  0  0  0  0  0
    3.3050    0.3523    3.2291 C   0  0  0  0  0  0  0  0  0  0  0  0
    3.2102   -0.7851    4.0337 C   0  0  0  0  0  0  0  0  0  0  0  0
    3.0382   -0.5747    5.7668 Cl  0  0  0  0  0  0  0  0  0  0  0  0
    3.2411   -2.0811    3.4873 C   0  0  0  0  0  0  0  0  0  0  0  0
    3.1271   -3.3080    4.3528 C   0  0  0  0  0  0  0  0  0  0  0  0
    3.3773   -2.1833    2.0943 C   0  0  0  0  0  0  0  0  0  0  0  0
    6.5999   -1.0775   -2.2517 H   0  0  0  0  0  0  0  0  0  0  0  0
    5.0897   -0.1747   -2.5144 H   0  0  0  0  0  0  0  0  0  0  0  0
    5.1046   -1.9428   -2.6570 H   0  0  0  0  0  0  0  0  0  0  0  0
    5.6548   -0.3522   -0.0543 H   0  0  0  0  0  0  0  0  0  0  0  0
    5.6570   -2.1070   -0.1549 H   0  0  0  0  0  0  0  0  0  0  0  0
    3.2468   -0.3121   -0.7249 H   0  0  0  0  0  0  0  0  0  0  0  0
    3.6847   -3.0624   -1.2481 H   0  0  0  0  0  0  0  0  0  0  0  0
    2.0013   -4.3465   -2.2505 H   0  0  0  0  0  0  0  0  0  0  0  0
   -0.4207   -4.5886   -2.8096 H   0  0  0  0  0  0  0  0  0  0  0  0
   -0.2708    0.9934   -0.8855 H   0  0  0  0  0  0  0  0  0  0  0  0
   -1.8606    2.6812   -0.0210 H   0  0  0  0  0  0  0  0  0  0  0  0
   -5.0606    1.4126   -1.3688 H   0  0  0  0  0  0  0  0  0  0  0  0
   -5.2940    3.1242   -1.7916 H   0  0  0  0  0  0  0  0  0  0  0  0
   -6.6945    2.1205   -1.3250 H   0  0  0  0  0  0  0  0  0  0  0  0
   -5.9320    3.8789    1.8594 H   0  0  0  0  0  0  0  0  0  0  0  0
   -6.5743    4.9875   -0.9473 H   0  0  0  0  0  0  0  0  0  0  0  0
   -5.1690    5.4230    0.0764 H   0  0  0  0  0  0  0  0  0  0  0  0
   -6.8353    5.8031    0.6005 H   0  0  0  0  0  0  0  0  0  0  0  0
   -7.0185    1.5219    1.1756 H   0  0  0  0  0  0  0  0  0  0  0  0
   -5.3364   -0.0940    1.9595 H   0  0  0  0  0  0  0  0  0  0  0  0
   -5.1163   -1.6600    1.1540 H   0  0  0  0  0  0  0  0  0  0  0  0
   -5.9318   -0.3463    0.2964 H   0  0  0  0  0  0  0  0  0  0  0  0
   -3.1195   -2.1133    0.0087 H   0  0  0  0  0  0  0  0  0  0  0  0
    1.0723   -0.7558   -0.0339 H   0  0  0  0  0  0  0  0  0  0  0  0
    3.5073    1.1048    1.2215 H   0  0  0  0  0  0  0  0  0  0  0  0
    3.2664    1.3407    3.6900 H   0  0  0  0  0  0  0  0  0  0  0  0
    3.9320   -3.3419    5.1050 H   0  0  0  0  0  0  0  0  0  0  0  0
    3.1771   -4.2239    3.7471 H   0  0  0  0  0  0  0  0  0  0  0  0
    2.1778   -3.3129    4.9130 H   0  0  0  0  0  0  0  0  0  0  0  0
    3.3873   -3.1763    1.6380 H   0  0  0  0  0  0  0  0  0  0  0  0
  1  2  1  0
  1 36  1  0
  1 37  1  0
  1 38  1  0
  2  3  1  0
  2 39  1  0
  2 40  1  0
  3  4  1  0
  3 28  1  0
  3 41  1  6
  4  5  1  0
  4 42  1  0
  5  6  2  0
  5 27  1  0
  6  7  1  0
  6 43  1  0
  7  8  2  0
  7 44  1  0
  8  9  1  0
  8 10  1  0
 10 11  1  0
 10 27  2  0
 11 12  2  0
 11 26  1  0
 12 13  1  0
 12 45  1  0
 13 14  2  0
 13 46  1  0
 14 15  1  0
 14 24  1  0
 15 16  2  0
 15 17  1  0
 17 18  1  0
 17 19  1  0
 18 47  1  0
 18 48  1  0
 18 49  1  0
 19 20  1  0
 19 21  1  0
 19 50  1  1
 20 51  1  0
 20 52  1  0
 20 53  1  0
 21 22  2  0
 21 23  1  0
 23 54  1  0
 24 25  1  0
 24 26  2  0
 25 55  1  0
 25 56  1  0
 25 57  1  0
 26 58  1  0
 27 59  1  0
 28 29  2  0
 28 35  1  0
 29 30  1  0
 29 60  1  0
 30 31  2  0
 30 61  1  0
 31 32  1  0
 31 33  1  0
 33 34  1  0
 33 35  2  0
 34 62  1  0
 34 63  1  0
 34 64  1  0
 35 65  1  0
M  END

