
     RDKit          3D

 39 39  0  0  0  0  0  0  0  0999 V2000
    1.9565    0.9135    0.6088 C   0  0  0  0  0  0  0  0  0  0  0  0
    2.5400   -0.1422   -0.1181 O   0  0  0  0  0  0  0  0  0  0  0  0
    3.1574    0.1164   -1.3067 C   0  0  0  0  0  0  0  0  0  0  0  0
    3.2696    1.4000   -1.8490 C   0  0  0  0  0  0  0  0  0  0  0  0
    3.9171    1.6117   -3.0737 C   0  0  0  0  0  0  0  0  0  0  0  0
    4.0259    3.0006   -3.6486 C   0  0  0  0  0  0  0  0  0  0  0  0
    4.4504    0.4925   -3.7293 C   0  0  0  0  0  0  0  0  0  0  0  0
    5.2571    0.7674   -5.2772 Cl  0  0  0  0  0  0  0  0  0  0  0  0
    4.3599   -0.8145   -3.2051 C   0  0  0  0  0  0  0  0  0  0  0  0
    4.9487   -1.9981   -3.9380 C   0  0  0  0  0  0  0  0  0  0  0  0
    3.6883   -1.0057   -1.9797 C   0  0  0  0  0  0  0  0  0  0  0  0
    3.5303   -2.3728   -1.3485 C   0  0  0  0  0  0  0  0  0  0  0  0
    4.5958   -2.6947   -0.2827 C   0  0  0  0  0  0  0  0  0  0  0  0
    4.4090   -4.0812    0.3383 C   0  0  0  0  0  0  0  0  0  0  0  0
    5.4726   -4.4992    1.3655 C   0  0  1  0  0  0  0  0  0  0  0  0
    5.4833   -3.6024    2.6135 C   0  0  0  0  0  0  0  0  0  0  0  0
    5.2874   -5.9220    1.6687 N   0  0  0  0  0  0  0  0  0  0  0  0
    1.5136    0.4665    1.5093 H   0  0  0  0  0  0  0  0  0  0  0  0
    1.1609    1.4206    0.0336 H   0  0  0  0  0  0  0  0  0  0  0  0
    2.7048    1.6664    0.9163 H   0  0  0  0  0  0  0  0  0  0  0  0
    2.8543    2.2623   -1.3278 H   0  0  0  0  0  0  0  0  0  0  0  0
    3.5552    3.7399   -2.9847 H   0  0  0  0  0  0  0  0  0  0  0  0
    3.5415    3.0630   -4.6367 H   0  0  0  0  0  0  0  0  0  0  0  0
    5.0784    3.2898   -3.8005 H   0  0  0  0  0  0  0  0  0  0  0  0
    5.6306   -1.6777   -4.7336 H   0  0  0  0  0  0  0  0  0  0  0  0
    4.1574   -2.6085   -4.4066 H   0  0  0  0  0  0  0  0  0  0  0  0
    5.5050   -2.6583   -3.2567 H   0  0  0  0  0  0  0  0  0  0  0  0
    3.5451   -3.1536   -2.1233 H   0  0  0  0  0  0  0  0  0  0  0  0
    2.5390   -2.4259   -0.8718 H   0  0  0  0  0  0  0  0  0  0  0  0
    4.5532   -1.9142    0.4937 H   0  0  0  0  0  0  0  0  0  0  0  0
    5.6017   -2.6258   -0.7353 H   0  0  0  0  0  0  0  0  0  0  0  0
    4.4048   -4.8475   -0.4553 H   0  0  0  0  0  0  0  0  0  0  0  0
    3.4119   -4.1352    0.8179 H   0  0  0  0  0  0  0  0  0  0  0  0
    6.4604   -4.4099    0.8746 H   0  0  0  0  0  0  0  0  0  0  0  0
    4.5052   -3.6379    3.1253 H   0  0  0  0  0  0  0  0  0  0  0  0
    5.6998   -2.5487    2.3742 H   0  0  0  0  0  0  0  0  0  0  0  0
    6.2496   -3.9420    3.3303 H   0  0  0  0  0  0  0  0  0  0  0  0
    4.3901   -6.0573    2.1404 H   0  0  0  0  0  0  0  0  0  0  0  0
    5.9975   -6.2360    2.3318 H   0  0  0  0  0  0  0  0  0  0  0  0
  1  2  1  0
  1 18  1  0
  1 19  1  0
  1 20  1  0
  2  3  1  0
  3  4  2  0
  3 11  1  0
  4  5  1  0
  4 21  1  0
  5  6  1  0
  5  7  2  0
  6 22  1  0
  6 23  1  0
  6 24  1  0
  7  8  1  0
  7  9  1  0
  9 10  1  0
  9 11  2  0
 10 25  1  0
 10 26  1  0
 10 27  1  0
 11 12  1  0
 12 13  1  0
 12 28  1  0
 12 29  1  0
 13 14  1  0
 13 30  1  0
 13 31  1  0
 14 15  1  0
 14 32  1  0
 14 33  1  0
 15 16  1  0
 15 17  1  0
 15 34  1  6
 16 35  1  0
 16 36  1  0
 16 37  1  0
 17 38  1  0
 17 39  1  0
M  END

