
     RDKit          3D

 66 68  0  0  0  0  0  0  0  0999 V2000
    3.8288    8.1419    1.8606 C   0  0  0  0  0  0  0  0  0  0  0  0
    2.5771    7.2796    1.6974 C   0  0  0  0  0  0  0  0  0  0  0  0
    2.6921    6.2121    0.6024 C   0  0  0  0  0  0  0  0  0  0  0  0
    3.7987    5.2786    0.7949 N   0  0  0  0  0  0  0  0  0  0  0  0
    3.7618    4.4610    2.0031 C   0  0  0  0  0  0  0  0  0  0  0  0
    2.5768    3.4888    2.1496 C   0  0  0  0  0  0  0  0  0  0  0  0
    2.6829    2.6300    3.4105 C   0  0  0  0  0  0  0  0  0  0  0  0
    4.2497    4.5789   -0.3967 C   0  0  0  0  0  0  0  0  0  0  0  0
    5.7798    4.6501   -0.5306 C   0  0  0  0  0  0  0  0  0  0  0  0
    6.3508    3.7522   -1.9953 S   0  0  1  0  0  0  0  0  0  0  0  0
    6.1928    2.3146   -1.7273 O   0  0  0  0  0  0  0  0  0  0  0  0
    5.7070    4.3735   -3.1559 O   0  0  0  0  0  0  0  0  0  0  0  0
    8.0101    4.0486   -2.0771 N   0  0  0  0  0  0  0  0  0  0  0  0
    8.9649    3.0134   -1.6419 C   0  0  0  0  0  0  0  0  0  0  0  0
    9.6250    2.2675   -2.7864 C   0  0  0  0  0  0  0  0  0  0  0  0
   10.9930    2.4109   -3.0507 C   0  0  0  0  0  0  0  0  0  0  0  0
   11.5983    1.7188   -4.1017 C   0  0  0  0  0  0  0  0  0  0  0  0
   10.8249    0.8827   -4.9055 C   0  0  0  0  0  0  0  0  0  0  0  0
   11.5023    0.2701   -5.9595 O   0  0  0  0  0  0  0  0  0  0  0  0
   11.1623   -0.9556   -6.4072 C   0  0  1  0  0  0  0  0  0  0  0  0
   11.0458   -1.8490   -5.4165 F   0  0  0  0  0  0  0  0  0  0  0  0
    9.9967   -0.9567   -7.0808 F   0  0  0  0  0  0  0  0  0  0  0  0
   12.1134   -1.3603   -7.2395 F   0  0  0  0  0  0  0  0  0  0  0  0
    9.4542    0.7291   -4.6725 C   0  0  0  0  0  0  0  0  0  0  0  0
    8.8684    1.4187   -3.6100 C   0  0  0  0  0  0  0  0  0  0  0  0
    8.4861    5.2651   -2.6661 C   0  0  0  0  0  0  0  0  0  0  0  0
    8.3346    5.5002   -4.0620 C   0  0  0  0  0  0  0  0  0  0  0  0
    8.8282    6.6547   -4.6267 C   0  0  0  0  0  0  0  0  0  0  0  0
    9.5094    7.6290   -3.8441 C   0  0  0  0  0  0  0  0  0  0  0  0
   10.0368    8.8264   -4.4030 C   0  0  0  0  0  0  0  0  0  0  0  0
   10.6902    9.7480   -3.6117 C   0  0  0  0  0  0  0  0  0  0  0  0
   10.8468    9.5147   -2.2212 C   0  0  0  0  0  0  0  0  0  0  0  0
   10.3482    8.3637   -1.6482 C   0  0  0  0  0  0  0  0  0  0  0  0
    9.6694    7.3923   -2.4374 C   0  0  0  0  0  0  0  0  0  0  0  0
    9.1349    6.2001   -1.8779 C   0  0  0  0  0  0  0  0  0  0  0  0
    3.6977    8.8945    2.6544 H   0  0  0  0  0  0  0  0  0  0  0  0
    4.0644    8.6797    0.9265 H   0  0  0  0  0  0  0  0  0  0  0  0
    4.7059    7.5265    2.1126 H   0  0  0  0  0  0  0  0  0  0  0  0
    1.7117    7.9160    1.4430 H   0  0  0  0  0  0  0  0  0  0  0  0
    2.3173    6.8078    2.6614 H   0  0  0  0  0  0  0  0  0  0  0  0
    2.8637    6.7242   -0.3589 H   0  0  0  0  0  0  0  0  0  0  0  0
    1.7111    5.6963    0.5021 H   0  0  0  0  0  0  0  0  0  0  0  0
    3.7903    5.1233    2.8861 H   0  0  0  0  0  0  0  0  0  0  0  0
    4.7014    3.8824    2.0483 H   0  0  0  0  0  0  0  0  0  0  0  0
    2.5210    2.8368    1.2602 H   0  0  0  0  0  0  0  0  0  0  0  0
    1.6311    4.0572    2.1712 H   0  0  0  0  0  0  0  0  0  0  0  0
    3.5963    2.0115    3.4006 H   0  0  0  0  0  0  0  0  0  0  0  0
    1.8233    1.9488    3.5098 H   0  0  0  0  0  0  0  0  0  0  0  0
    2.7182    3.2533    4.3201 H   0  0  0  0  0  0  0  0  0  0  0  0
    3.8109    5.0437   -1.2911 H   0  0  0  0  0  0  0  0  0  0  0  0
    3.9404    3.5161   -0.4170 H   0  0  0  0  0  0  0  0  0  0  0  0
    6.2934    4.1899    0.3261 H   0  0  0  0  0  0  0  0  0  0  0  0
    6.1174    5.6906   -0.6422 H   0  0  0  0  0  0  0  0  0  0  0  0
    8.4097    2.3061   -1.0113 H   0  0  0  0  0  0  0  0  0  0  0  0
    9.7348    3.4888   -1.0136 H   0  0  0  0  0  0  0  0  0  0  0  0
   11.6015    3.0698   -2.4251 H   0  0  0  0  0  0  0  0  0  0  0  0
   12.6642    1.8201   -4.3130 H   0  0  0  0  0  0  0  0  0  0  0  0
    8.8469    0.0870   -5.3094 H   0  0  0  0  0  0  0  0  0  0  0  0
    7.7989    1.3039   -3.4163 H   0  0  0  0  0  0  0  0  0  0  0  0
    7.8105    4.7590   -4.6643 H   0  0  0  0  0  0  0  0  0  0  0  0
    8.7055    6.8317   -5.6985 H   0  0  0  0  0  0  0  0  0  0  0  0
    9.9149    9.0049   -5.4749 H   0  0  0  0  0  0  0  0  0  0  0  0
   11.0904   10.6638   -4.0540 H   0  0  0  0  0  0  0  0  0  0  0  0
   11.3660   10.2528   -1.6046 H   0  0  0  0  0  0  0  0  0  0  0  0
   10.4681    8.1830   -0.5763 H   0  0  0  0  0  0  0  0  0  0  0  0
    9.2457    6.0208   -0.8050 H   0  0  0  0  0  0  0  0  0  0  0  0
  1  2  1  0
  1 36  1  0
  1 37  1  0
  1 38  1  0
  2  3  1  0
  2 39  1  0
  2 40  1  0
  3  4  1  0
  3 41  1  0
  3 42  1  0
  4  5  1  0
  4  8  1  0
  5  6  1  0
  5 43  1  0
  5 44  1  0
  6  7  1  0
  6 45  1  0
  6 46  1  0
  7 47  1  0
  7 48  1  0
  7 49  1  0
  8  9  1  0
  8 50  1  0
  8 51  1  0
  9 10  1  0
  9 52  1  0
  9 53  1  0
 10 11  2  0
 10 12  2  0
 10 13  1  6
 13 14  1  0
 13 26  1  0
 14 15  1  0
 14 54  1  0
 14 55  1  0
 15 16  2  0
 15 25  1  0
 16 17  1  0
 16 56  1  0
 17 18  2  0
 17 57  1  0
 18 19  1  0
 18 24  1  0
 19 20  1  0
 20 21  1  1
 20 22  1  0
 20 23  1  0
 24 25  2  0
 24 58  1  0
 25 59  1  0
 26 27  2  0
 26 35  1  0
 27 28  1  0
 27 60  1  0
 28 29  2  0
 28 61  1  0
 29 30  1  0
 29 34  1  0
 30 31  2  0
 30 62  1  0
 31 32  1  0
 31 63  1  0
 32 33  2  0
 32 64  1  0
 33 34  1  0
 33 65  1  0
 34 35  2  0
 35 66  1  0
M  END

