
     RDKit          3D

 73 77  0  0  0  0  0  0  0  0999 V2000
    2.4608   -1.7742   -0.3337 C   0  0  0  0  0  0  0  0  0  0  0  0
    2.0648   -0.5403   -0.9801 N   0  0  0  0  0  0  0  0  0  0  0  0
    2.8288    0.5830   -0.9928 C   0  0  0  0  0  0  0  0  0  0  0  0
    2.3572    1.7835   -1.5653 C   0  0  0  0  0  0  0  0  0  0  0  0
    3.2266    2.8712   -1.5329 C   0  0  0  0  0  0  0  0  0  0  0  0
    2.8443    4.1000   -2.0773 N   0  0  0  0  0  0  0  0  0  0  0  0
    1.6321    4.1871   -2.7118 N   0  0  0  0  0  0  0  0  0  0  0  0
    1.5426    5.4323   -3.1347 C   0  0  0  0  0  0  0  0  0  0  0  0
    0.3369    5.9033   -3.8860 C   0  0  0  0  0  0  0  0  0  0  0  0
    2.6930    6.1997   -2.7888 C   0  0  0  0  0  0  0  0  0  0  0  0
    3.5243    5.3236   -2.1042 C   0  0  0  0  0  0  0  0  0  0  0  0
    4.7667    5.4344   -1.5346 N   0  0  0  0  0  0  0  0  0  0  0  0
    5.5450    6.5731   -1.3319 C   0  0  0  0  0  0  0  0  0  0  0  0
    5.0146    7.8689   -1.4433 C   0  0  0  0  0  0  0  0  0  0  0  0
    5.8314    8.9908   -1.2502 C   0  0  0  0  0  0  0  0  0  0  0  0
    5.3411   10.3092   -1.3614 N   0  0  0  0  0  0  0  0  0  0  0  0
    4.1272   10.7394   -1.8364 C   0  0  0  0  0  0  0  0  0  0  0  0
    3.2534   10.0063   -2.2752 O   0  0  0  0  0  0  0  0  0  0  0  0
    3.9322   12.2372   -1.8019 C   0  0  0  0  0  0  0  0  0  0  0  0
    4.6135   13.0634   -0.9029 C   0  0  0  0  0  0  0  0  0  0  0  0
    4.4212   14.4569   -0.9143 C   0  0  0  0  0  0  0  0  0  0  0  0
    5.1150   15.3080   -0.0063 N   0  0  0  0  0  0  0  0  0  0  0  0
    4.4572   16.5754    0.3658 C   0  0  0  0  0  0  0  0  0  0  0  0
    5.0805   17.2042    1.6127 C   0  0  0  0  0  0  0  0  0  0  0  0
    6.5241   17.3135    1.5211 N   0  0  0  0  0  0  0  0  0  0  0  0
    7.0099   18.2851    0.5555 C   0  0  0  0  0  0  0  0  0  0  0  0
    7.0882   15.9882    1.3767 C   0  0  0  0  0  0  0  0  0  0  0  0
    6.4254   15.0303    0.3740 C   0  0  0  0  0  0  0  0  0  0  0  0
    7.0330   14.0384    0.0111 O   0  0  0  0  0  0  0  0  0  0  0  0
    3.5005   14.9982   -1.8240 C   0  0  0  0  0  0  0  0  0  0  0  0
    2.7921   14.1632   -2.6962 C   0  0  0  0  0  0  0  0  0  0  0  0
    1.7534   14.7651   -3.6125 C   0  0  1  0  0  0  0  0  0  0  0  0
    2.0419   16.0438   -3.9243 F   0  0  0  0  0  0  0  0  0  0  0  0
    1.6425   14.0832   -4.7626 F   0  0  0  0  0  0  0  0  0  0  0  0
    0.5354   14.7713   -3.0374 F   0  0  0  0  0  0  0  0  0  0  0  0
    3.0012   12.7859   -2.6940 C   0  0  0  0  0  0  0  0  0  0  0  0
    7.1839    8.8203   -0.9189 C   0  0  0  0  0  0  0  0  0  0  0  0
    7.6944    7.5290   -0.7861 C   0  0  0  0  0  0  0  0  0  0  0  0
    6.9118    6.3887   -0.9873 C   0  0  0  0  0  0  0  0  0  0  0  0
    7.4985    5.0070   -0.8497 C   0  0  0  0  0  0  0  0  0  0  0  0
    4.4580    2.7866   -0.9876 N   0  0  0  0  0  0  0  0  0  0  0  0
    4.7955    1.6029   -0.4774 C   0  0  0  0  0  0  0  0  0  0  0  0
    4.0608    0.5027   -0.4427 N   0  0  0  0  0  0  0  0  0  0  0  0
    1.8042   -2.5853   -0.6797 H   0  0  0  0  0  0  0  0  0  0  0  0
    2.3971   -1.7149    0.7682 H   0  0  0  0  0  0  0  0  0  0  0  0
    3.5003   -2.0221   -0.5895 H   0  0  0  0  0  0  0  0  0  0  0  0
    1.1154   -0.4548   -1.3172 H   0  0  0  0  0  0  0  0  0  0  0  0
    1.3729    1.8850   -2.0181 H   0  0  0  0  0  0  0  0  0  0  0  0
   -0.3859    5.0825   -3.9911 H   0  0  0  0  0  0  0  0  0  0  0  0
    0.6109    6.2629   -4.8915 H   0  0  0  0  0  0  0  0  0  0  0  0
   -0.1525    6.7421   -3.3644 H   0  0  0  0  0  0  0  0  0  0  0  0
    2.8702    7.2417   -3.0302 H   0  0  0  0  0  0  0  0  0  0  0  0
    5.1159    4.5314   -1.1948 H   0  0  0  0  0  0  0  0  0  0  0  0
    3.9658    8.0246   -1.6558 H   0  0  0  0  0  0  0  0  0  0  0  0
    6.0215   11.0321   -1.1559 H   0  0  0  0  0  0  0  0  0  0  0  0
    5.2980   12.6391   -0.1748 H   0  0  0  0  0  0  0  0  0  0  0  0
    3.3897   16.3701    0.5420 H   0  0  0  0  0  0  0  0  0  0  0  0
    4.5108   17.2889   -0.4757 H   0  0  0  0  0  0  0  0  0  0  0  0
    4.8325   16.5928    2.4983 H   0  0  0  0  0  0  0  0  0  0  0  0
    4.6324   18.1984    1.7710 H   0  0  0  0  0  0  0  0  0  0  0  0
    6.5625   19.2695    0.7655 H   0  0  0  0  0  0  0  0  0  0  0  0
    6.7980   18.0366   -0.5083 H   0  0  0  0  0  0  0  0  0  0  0  0
    8.1017   18.3886    0.6546 H   0  0  0  0  0  0  0  0  0  0  0  0
    7.0479   15.4569    2.3473 H   0  0  0  0  0  0  0  0  0  0  0  0
    8.1506   16.0371    1.0995 H   0  0  0  0  0  0  0  0  0  0  0  0
    3.3316   16.0720   -1.8787 H   0  0  0  0  0  0  0  0  0  0  0  0
    2.4594   12.1223   -3.3684 H   0  0  0  0  0  0  0  0  0  0  0  0
    7.8315    9.6880   -0.7674 H   0  0  0  0  0  0  0  0  0  0  0  0
    8.7487    7.4014   -0.5248 H   0  0  0  0  0  0  0  0  0  0  0  0
    8.5762    5.0567   -0.6387 H   0  0  0  0  0  0  0  0  0  0  0  0
    7.3596    4.4089   -1.7668 H   0  0  0  0  0  0  0  0  0  0  0  0
    7.0273    4.4371   -0.0288 H   0  0  0  0  0  0  0  0  0  0  0  0
    5.7978    1.5380   -0.0349 H   0  0  0  0  0  0  0  0  0  0  0  0
  1  2  1  0
  1 44  1  0
  1 45  1  0
  1 46  1  0
  2  3  1  0
  2 47  1  0
  3  4  2  0
  3 43  1  0
  4  5  1  0
  4 48  1  0
  5  6  1  0
  5 41  2  0
  6  7  1  0
  6 11  1  0
  7  8  2  0
  8  9  1  0
  8 10  1  0
  9 49  1  0
  9 50  1  0
  9 51  1  0
 10 11  2  0
 10 52  1  0
 11 12  1  0
 12 13  1  0
 12 53  1  0
 13 14  2  0
 13 39  1  0
 14 15  1  0
 14 54  1  0
 15 16  1  0
 15 37  2  0
 16 17  1  0
 16 55  1  0
 17 18  2  0
 17 19  1  0
 19 20  2  0
 19 36  1  0
 20 21  1  0
 20 56  1  0
 21 22  1  0
 21 30  2  0
 22 23  1  0
 22 28  1  0
 23 24  1  0
 23 57  1  0
 23 58  1  0
 24 25  1  0
 24 59  1  0
 24 60  1  0
 25 26  1  0
 25 27  1  0
 26 61  1  0
 26 62  1  0
 26 63  1  0
 27 28  1  0
 27 64  1  0
 27 65  1  0
 28 29  2  0
 30 31  1  0
 30 66  1  0
 31 32  1  0
 31 36  2  0
 32 33  1  6
 32 34  1  0
 32 35  1  0
 36 67  1  0
 37 38  1  0
 37 68  1  0
 38 39  2  0
 38 69  1  0
 39 40  1  0
 40 70  1  0
 40 71  1  0
 40 72  1  0
 41 42  1  0
 42 43  2  0
 42 73  1  0
M  END

