
     RDKit          3D

 28 29  0  0  0  0  0  0  0  0999 V2000
    0.9557   -0.6856    0.1184 C   0  0  0  0  0  0  0  0  0  0  0  0
    2.3792   -0.2260   -0.1855 C   0  0  0  0  0  0  0  0  0  0  0  0
    3.4785   -1.3402   -0.1280 C   0  0  2  0  0  0  0  0  0  0  0  0
    3.2663   -2.2456   -1.2545 N   0  0  0  0  0  0  0  0  0  0  0  0
    2.7863   -3.6048   -1.1662 C   0  0  0  0  0  0  0  0  0  0  0  0
    3.2988   -4.3329    0.0685 C   0  0  0  0  0  0  0  0  0  0  0  0
    3.1088   -3.4782    1.2975 C   0  0  0  0  0  0  0  0  0  0  0  0
    3.1698   -4.0457    2.6043 C   0  0  0  0  0  0  0  0  0  0  0  0
    2.7744   -5.3557    2.7885 O   0  0  0  0  0  0  0  0  0  0  0  0
    3.6192   -3.3445    3.7083 C   0  0  0  0  0  0  0  0  0  0  0  0
    4.1290   -2.0072    3.5668 C   0  0  0  0  0  0  0  0  0  0  0  0
    4.0816   -1.4462    2.2954 C   0  0  0  0  0  0  0  0  0  0  0  0
    4.5147   -0.1565    2.1264 F   0  0  0  0  0  0  0  0  0  0  0  0
    3.5988   -2.1025    1.1724 C   0  0  0  0  0  0  0  0  0  0  0  0
    0.2885    0.1853    0.2163 H   0  0  0  0  0  0  0  0  0  0  0  0
    0.9208   -1.2534    1.0590 H   0  0  0  0  0  0  0  0  0  0  0  0
    0.5344   -1.3220   -0.6787 H   0  0  0  0  0  0  0  0  0  0  0  0
    2.7142    0.4989    0.5697 H   0  0  0  0  0  0  0  0  0  0  0  0
    2.4284    0.2969   -1.1613 H   0  0  0  0  0  0  0  0  0  0  0  0
    4.4202   -0.8132   -0.3738 H   0  0  0  0  0  0  0  0  0  0  0  0
    3.1906   -1.7965   -2.1672 H   0  0  0  0  0  0  0  0  0  0  0  0
    3.0220   -4.1061   -2.1191 H   0  0  0  0  0  0  0  0  0  0  0  0
    1.6777   -3.5025   -1.1183 H   0  0  0  0  0  0  0  0  0  0  0  0
    4.3723   -4.5893   -0.1125 H   0  0  0  0  0  0  0  0  0  0  0  0
    2.7676   -5.2961    0.1159 H   0  0  0  0  0  0  0  0  0  0  0  0
    2.0648   -5.5335    2.1546 H   0  0  0  0  0  0  0  0  0  0  0  0
    3.5582   -3.8201    4.6889 H   0  0  0  0  0  0  0  0  0  0  0  0
    4.5347   -1.4420    4.4044 H   0  0  0  0  0  0  0  0  0  0  0  0
  1  2  1  0
  1 15  1  0
  1 16  1  0
  1 17  1  0
  2  3  1  0
  2 18  1  0
  2 19  1  0
  3  4  1  0
  3 14  1  0
  3 20  1  6
  4  5  1  0
  4 21  1  0
  5  6  1  0
  5 22  1  0
  5 23  1  0
  6  7  1  0
  6 24  1  0
  6 25  1  0
  7  8  1  0
  7 14  2  0
  8  9  1  0
  8 10  2  0
  9 26  1  0
 10 11  1  0
 10 27  1  0
 11 12  2  0
 11 28  1  0
 12 13  1  0
 12 14  1  0
M  END

