
     RDKit          3D

 71 75  0  0  0  0  0  0  0  0999 V2000
   16.1494   -0.5904   -6.3883 C   0  0  0  0  0  0  0  0  0  0  0  0
   15.2747    0.2886   -5.5275 C   0  0  0  0  0  0  0  0  0  0  0  0
   15.8294    1.3023   -4.7252 C   0  0  0  0  0  0  0  0  0  0  0  0
   15.0356    2.1280   -3.9360 C   0  0  0  0  0  0  0  0  0  0  0  0
   13.6311    1.9745   -3.8952 C   0  0  0  0  0  0  0  0  0  0  0  0
   12.8463    2.8397   -3.1044 N   0  0  0  0  0  0  0  0  0  0  0  0
   13.2168    3.0017   -1.6981 C   0  0  0  0  0  0  0  0  0  0  0  0
   12.6651    4.3061   -1.1247 C   0  0  0  0  0  0  0  0  0  0  0  0
   11.1516    4.4005   -1.3294 C   0  0  0  0  0  0  0  0  0  0  0  0
   10.7949    4.1799   -2.8145 C   0  0  2  0  0  0  0  0  0  0  0  0
    9.2767    4.1461   -2.9956 C   0  0  0  0  0  0  0  0  0  0  0  0
    8.6657    3.0902   -2.8854 O   0  0  0  0  0  0  0  0  0  0  0  0
    8.5857    5.3147   -3.2541 N   0  0  0  0  0  0  0  0  0  0  0  0
    7.1507    5.1230   -3.3892 C   0  0  0  0  0  0  0  0  0  0  0  0
    6.4566    4.8599   -2.0815 C   0  0  0  0  0  0  0  0  0  0  0  0
    6.7647    5.2588   -0.8865 N   0  0  0  0  0  0  0  0  0  0  0  0
    5.7370    4.7458   -0.1198 C   0  0  0  0  0  0  0  0  0  0  0  0
    5.6396    4.9272    1.3376 C   0  0  0  0  0  0  0  0  0  0  0  0
    4.5423    4.4112    2.0508 C   0  0  0  0  0  0  0  0  0  0  0  0
    4.4712    4.5976    3.4287 C   0  0  0  0  0  0  0  0  0  0  0  0
    5.4828    5.2921    4.1033 C   0  0  0  0  0  0  0  0  0  0  0  0
    6.5856    5.8118    3.4109 C   0  0  0  0  0  0  0  0  0  0  0  0
    7.6898    6.5507    4.1287 C   0  0  0  0  0  0  0  0  0  0  0  0
    6.6475    5.6202    2.0221 C   0  0  0  0  0  0  0  0  0  0  0  0
    4.8448    4.0794   -0.8172 N   0  0  0  0  0  0  0  0  0  0  0  0
    5.3215    4.1545   -2.1190 O   0  0  0  0  0  0  0  0  0  0  0  0
    9.2163    6.6484   -3.3641 C   0  0  1  0  0  0  0  0  0  0  0  0
    9.5534    7.0523   -4.8194 C   0  0  0  0  0  0  0  0  0  0  0  0
    8.3879    7.6865   -5.5893 C   0  0  0  0  0  0  0  0  0  0  0  0
    7.8228    8.8961   -4.8332 C   0  0  0  0  0  0  0  0  0  0  0  0
    7.3672    8.5154   -3.4185 C   0  0  0  0  0  0  0  0  0  0  0  0
    8.4653    7.7848   -2.6241 C   0  0  0  0  0  0  0  0  0  0  0  0
   11.4064    2.8586   -3.3196 C   0  0  0  0  0  0  0  0  0  0  0  0
   13.0741    0.9551   -4.6903 C   0  0  0  0  0  0  0  0  0  0  0  0
   13.8841    0.1422   -5.4912 C   0  0  0  0  0  0  0  0  0  0  0  0
   16.6846   -0.0039   -7.1551 H   0  0  0  0  0  0  0  0  0  0  0  0
   15.5586   -1.3580   -6.9104 H   0  0  0  0  0  0  0  0  0  0  0  0
   16.9172   -1.1092   -5.7897 H   0  0  0  0  0  0  0  0  0  0  0  0
   16.9126    1.4600   -4.7309 H   0  0  0  0  0  0  0  0  0  0  0  0
   15.5073    2.9255   -3.3579 H   0  0  0  0  0  0  0  0  0  0  0  0
   14.3097    2.9808   -1.6026 H   0  0  0  0  0  0  0  0  0  0  0  0
   12.8287    2.1468   -1.0994 H   0  0  0  0  0  0  0  0  0  0  0  0
   13.1633    5.1560   -1.6231 H   0  0  0  0  0  0  0  0  0  0  0  0
   12.9111    4.3677   -0.0515 H   0  0  0  0  0  0  0  0  0  0  0  0
   10.7678    5.3705   -0.9724 H   0  0  0  0  0  0  0  0  0  0  0  0
   10.6404    3.6251   -0.7327 H   0  0  0  0  0  0  0  0  0  0  0  0
   11.2488    4.9879   -3.4077 H   0  0  0  0  0  0  0  0  0  0  0  0
    6.9407    4.2648   -4.0435 H   0  0  0  0  0  0  0  0  0  0  0  0
    6.7022    6.0096   -3.8513 H   0  0  0  0  0  0  0  0  0  0  0  0
    3.7590    3.8720    1.5153 H   0  0  0  0  0  0  0  0  0  0  0  0
    3.6201    4.2004    3.9875 H   0  0  0  0  0  0  0  0  0  0  0  0
    5.4131    5.4319    5.1859 H   0  0  0  0  0  0  0  0  0  0  0  0
    7.4442    6.7166    5.1880 H   0  0  0  0  0  0  0  0  0  0  0  0
    7.8817    7.5331    3.6670 H   0  0  0  0  0  0  0  0  0  0  0  0
    8.6374    5.9870    4.0895 H   0  0  0  0  0  0  0  0  0  0  0  0
    7.4923    6.0116    1.4512 H   0  0  0  0  0  0  0  0  0  0  0  0
   10.1688    6.5458   -2.8344 H   0  0  0  0  0  0  0  0  0  0  0  0
    9.9515    6.1767   -5.3571 H   0  0  0  0  0  0  0  0  0  0  0  0
   10.3756    7.7896   -4.7734 H   0  0  0  0  0  0  0  0  0  0  0  0
    7.5893    6.9421   -5.7615 H   0  0  0  0  0  0  0  0  0  0  0  0
    8.7327    7.9900   -6.5917 H   0  0  0  0  0  0  0  0  0  0  0  0
    6.9876    9.3478   -5.3936 H   0  0  0  0  0  0  0  0  0  0  0  0
    8.6070    9.6733   -4.7678 H   0  0  0  0  0  0  0  0  0  0  0  0
    6.4509    7.9043   -3.4833 H   0  0  0  0  0  0  0  0  0  0  0  0
    7.0695    9.4182   -2.8596 H   0  0  0  0  0  0  0  0  0  0  0  0
    8.0716    7.3985   -1.6717 H   0  0  0  0  0  0  0  0  0  0  0  0
    9.2352    8.5328   -2.3654 H   0  0  0  0  0  0  0  0  0  0  0  0
   11.2079    2.7657   -4.3966 H   0  0  0  0  0  0  0  0  0  0  0  0
   10.8875    2.0148   -2.8228 H   0  0  0  0  0  0  0  0  0  0  0  0
   11.9993    0.7730   -4.6810 H   0  0  0  0  0  0  0  0  0  0  0  0
   13.4107   -0.6389   -6.0939 H   0  0  0  0  0  0  0  0  0  0  0  0
  1  2  1  0
  1 36  1  0
  1 37  1  0
  1 38  1  0
  2  3  2  0
  2 35  1  0
  3  4  1  0
  3 39  1  0
  4  5  2  0
  4 40  1  0
  5  6  1  0
  5 34  1  0
  6  7  1  0
  6 33  1  0
  7  8  1  0
  7 41  1  0
  7 42  1  0
  8  9  1  0
  8 43  1  0
  8 44  1  0
  9 10  1  0
  9 45  1  0
  9 46  1  0
 10 11  1  0
 10 33  1  0
 10 47  1  6
 11 12  2  0
 11 13  1  0
 13 14  1  0
 13 27  1  0
 14 15  1  0
 14 48  1  0
 14 49  1  0
 15 16  2  0
 15 26  1  0
 16 17  1  0
 17 18  1  0
 17 25  2  0
 18 19  2  0
 18 24  1  0
 19 20  1  0
 19 50  1  0
 20 21  2  0
 20 51  1  0
 21 22  1  0
 21 52  1  0
 22 23  1  0
 22 24  2  0
 23 53  1  0
 23 54  1  0
 23 55  1  0
 24 56  1  0
 25 26  1  0
 27 28  1  0
 27 32  1  0
 27 57  1  1
 28 29  1  0
 28 58  1  0
 28 59  1  0
 29 30  1  0
 29 60  1  0
 29 61  1  0
 30 31  1  0
 30 62  1  0
 30 63  1  0
 31 32  1  0
 31 64  1  0
 31 65  1  0
 32 66  1  0
 32 67  1  0
 33 68  1  0
 33 69  1  0
 34 35  2  0
 34 70  1  0
 35 71  1  0
M  END

