
     RDKit          3D

 42 42  0  0  0  0  0  0  0  0999 V2000
    1.2591    0.5523    0.9589 C   0  0  0  0  0  0  0  0  0  0  0  0
    2.6623   -0.0485    1.0806 C   0  0  0  0  0  0  0  0  0  0  0  0
    2.8783   -0.7849    2.3151 N   0  0  0  0  0  0  0  0  0  0  0  0
    2.0756   -1.9744    2.5069 C   0  0  0  0  0  0  0  0  0  0  0  0
    2.1101   -3.0423    1.4109 C   0  0  0  0  0  0  0  0  0  0  0  0
    0.9189   -3.5136    0.8356 C   0  0  0  0  0  0  0  0  0  0  0  0
    0.9755   -4.5114   -0.1391 C   0  0  0  0  0  0  0  0  0  0  0  0
    2.2236   -5.0065   -0.5188 C   0  0  0  0  0  0  0  0  0  0  0  0
    3.3568   -4.4719    0.1029 C   0  0  0  0  0  0  0  0  0  0  0  0
    3.3050   -3.5232    1.0386 N   0  0  0  0  0  0  0  0  0  0  0  0
    4.2038   -0.7071    2.9481 C   0  0  1  0  0  0  0  0  0  0  0  0
    5.3797   -1.0341    2.0119 C   0  0  0  0  0  0  0  0  0  0  0  0
    4.3689    0.6501    3.6680 C   0  0  0  0  0  0  0  0  0  0  0  0
    5.6012    0.7653    4.5706 C   0  0  0  0  0  0  0  0  0  0  0  0
    5.6423    2.0674    5.3698 C   0  0  0  0  0  0  0  0  0  0  0  0
    6.7975    2.1229    6.2488 N   0  0  0  0  0  0  0  0  0  0  0  0
    6.8926    3.3344    7.0380 C   0  0  0  0  0  0  0  0  0  0  0  0
    1.1775    1.1529    0.0384 H   0  0  0  0  0  0  0  0  0  0  0  0
    1.0360    1.2013    1.8208 H   0  0  0  0  0  0  0  0  0  0  0  0
    0.4776   -0.2227    0.9091 H   0  0  0  0  0  0  0  0  0  0  0  0
    3.3919    0.7748    1.0461 H   0  0  0  0  0  0  0  0  0  0  0  0
    2.8685   -0.6678    0.1801 H   0  0  0  0  0  0  0  0  0  0  0  0
    1.0152   -1.7000    2.6611 H   0  0  0  0  0  0  0  0  0  0  0  0
    2.4009   -2.4524    3.4455 H   0  0  0  0  0  0  0  0  0  0  0  0
   -0.0413   -3.0996    1.1537 H   0  0  0  0  0  0  0  0  0  0  0  0
    0.0592   -4.8925   -0.5982 H   0  0  0  0  0  0  0  0  0  0  0  0
    2.3230   -5.7850   -1.2785 H   0  0  0  0  0  0  0  0  0  0  0  0
    4.3559   -4.8331   -0.1702 H   0  0  0  0  0  0  0  0  0  0  0  0
    4.1956   -1.4797    3.7357 H   0  0  0  0  0  0  0  0  0  0  0  0
    5.5123   -0.2582    1.2390 H   0  0  0  0  0  0  0  0  0  0  0  0
    5.1976   -1.9966    1.5146 H   0  0  0  0  0  0  0  0  0  0  0  0
    6.3253   -1.1031    2.5725 H   0  0  0  0  0  0  0  0  0  0  0  0
    3.4585    0.8115    4.2701 H   0  0  0  0  0  0  0  0  0  0  0  0
    4.3888    1.4641    2.9200 H   0  0  0  0  0  0  0  0  0  0  0  0
    6.5233    0.6926    3.9658 H   0  0  0  0  0  0  0  0  0  0  0  0
    5.6347   -0.0785    5.2823 H   0  0  0  0  0  0  0  0  0  0  0  0
    4.7332    2.1410    5.9954 H   0  0  0  0  0  0  0  0  0  0  0  0
    5.5906    2.9337    4.6665 H   0  0  0  0  0  0  0  0  0  0  0  0
    7.6494    1.9950    5.7033 H   0  0  0  0  0  0  0  0  0  0  0  0
    6.0446    3.3924    7.7422 H   0  0  0  0  0  0  0  0  0  0  0  0
    6.8846    4.2780    6.4448 H   0  0  0  0  0  0  0  0  0  0  0  0
    7.8155    3.3229    7.6396 H   0  0  0  0  0  0  0  0  0  0  0  0
  1  2  1  0
  1 18  1  0
  1 19  1  0
  1 20  1  0
  2  3  1  0
  2 21  1  0
  2 22  1  0
  3  4  1  0
  3 11  1  0
  4  5  1  0
  4 23  1  0
  4 24  1  0
  5  6  2  0
  5 10  1  0
  6  7  1  0
  6 25  1  0
  7  8  2  0
  7 26  1  0
  8  9  1  0
  8 27  1  0
  9 10  2  0
  9 28  1  0
 11 12  1  0
 11 13  1  0
 11 29  1  1
 12 30  1  0
 12 31  1  0
 12 32  1  0
 13 14  1  0
 13 33  1  0
 13 34  1  0
 14 15  1  0
 14 35  1  0
 14 36  1  0
 15 16  1  0
 15 37  1  0
 15 38  1  0
 16 17  1  0
 16 39  1  0
 17 40  1  0
 17 41  1  0
 17 42  1  0
M  END

