
     RDKit          3D

 37 37  0  0  0  0  0  0  0  0999 V2000
    2.0280    1.2583   -0.2300 C   0  0  0  0  0  0  0  0  0  0  0  0
    3.5329    0.9912   -0.2662 C   0  0  0  0  0  0  0  0  0  0  0  0
    4.0338    0.4373   -1.6149 C   0  0  1  0  0  0  0  0  0  0  0  0
    3.8841    1.4225   -2.7925 C   0  0  0  0  0  0  0  0  0  0  0  0
    5.5103    0.0562   -1.5243 C   0  0  0  0  0  0  0  0  0  0  0  0
    6.3151    0.7901   -0.9917 O   0  0  0  0  0  0  0  0  0  0  0  0
    5.9597   -1.2517   -2.1647 C   0  0  1  0  0  0  0  0  0  0  0  0
    5.3987   -1.2794   -3.4566 F   0  0  0  0  0  0  0  0  0  0  0  0
    7.4685   -1.3281   -2.1462 C   0  0  0  0  0  0  0  0  0  0  0  0
    8.1084   -0.3571   -1.5873 O   0  0  0  0  0  0  0  0  0  0  0  0
    8.1305   -2.4953   -2.6550 C   0  0  0  0  0  0  0  0  0  0  0  0
    9.5472   -2.6020   -2.5283 C   0  0  0  0  0  0  0  0  0  0  0  0
   10.2294   -3.7270   -2.9737 C   0  0  0  0  0  0  0  0  0  0  0  0
   11.7298   -3.8347   -2.8365 C   0  0  0  0  0  0  0  0  0  0  0  0
    9.4990   -4.7834   -3.5601 C   0  0  0  0  0  0  0  0  0  0  0  0
    8.1051   -4.7121   -3.7090 C   0  0  0  0  0  0  0  0  0  0  0  0
    7.3352   -5.8464   -4.3470 C   0  0  0  0  0  0  0  0  0  0  0  0
    7.4304   -3.5713   -3.2670 C   0  0  0  0  0  0  0  0  0  0  0  0
    1.7206    1.5926    0.7728 H   0  0  0  0  0  0  0  0  0  0  0  0
    1.4501    0.3496   -0.4679 H   0  0  0  0  0  0  0  0  0  0  0  0
    1.7278    2.0422   -0.9423 H   0  0  0  0  0  0  0  0  0  0  0  0
    3.7911    0.2707    0.5288 H   0  0  0  0  0  0  0  0  0  0  0  0
    4.0925    1.9122   -0.0327 H   0  0  0  0  0  0  0  0  0  0  0  0
    3.4827   -0.4835   -1.8656 H   0  0  0  0  0  0  0  0  0  0  0  0
    4.4091    2.3662   -2.5783 H   0  0  0  0  0  0  0  0  0  0  0  0
    2.8209    1.6437   -2.9650 H   0  0  0  0  0  0  0  0  0  0  0  0
    4.2946    0.9933   -3.7171 H   0  0  0  0  0  0  0  0  0  0  0  0
    5.4847   -2.1055   -1.6392 H   0  0  0  0  0  0  0  0  0  0  0  0
   10.0909   -1.7778   -2.0630 H   0  0  0  0  0  0  0  0  0  0  0  0
   12.1586   -2.9408   -2.3603 H   0  0  0  0  0  0  0  0  0  0  0  0
   12.2127   -3.9586   -3.8206 H   0  0  0  0  0  0  0  0  0  0  0  0
   12.0137   -4.7110   -2.2294 H   0  0  0  0  0  0  0  0  0  0  0  0
   10.0308   -5.6724   -3.9123 H   0  0  0  0  0  0  0  0  0  0  0  0
    8.0068   -6.6426   -4.7008 H   0  0  0  0  0  0  0  0  0  0  0  0
    6.7448   -5.4959   -5.2100 H   0  0  0  0  0  0  0  0  0  0  0  0
    6.6248   -6.3006   -3.6354 H   0  0  0  0  0  0  0  0  0  0  0  0
    6.3528   -3.5046   -3.4282 H   0  0  0  0  0  0  0  0  0  0  0  0
  1  2  1  0
  1 19  1  0
  1 20  1  0
  1 21  1  0
  2  3  1  0
  2 22  1  0
  2 23  1  0
  3  4  1  0
  3  5  1  0
  3 24  1  6
  4 25  1  0
  4 26  1  0
  4 27  1  0
  5  6  2  0
  5  7  1  0
  7  8  1  0
  7  9  1  0
  7 28  1  1
  9 10  2  0
  9 11  1  0
 11 12  2  0
 11 18  1  0
 12 13  1  0
 12 29  1  0
 13 14  1  0
 13 15  2  0
 14 30  1  0
 14 31  1  0
 14 32  1  0
 15 16  1  0
 15 33  1  0
 16 17  1  0
 16 18  2  0
 17 34  1  0
 17 35  1  0
 17 36  1  0
 18 37  1  0
M  END

