
     RDKit          3D

 67 70  0  0  0  0  0  0  0  0999 V2000
    4.9627   -4.9353    3.3688 C   0  0  0  0  0  0  0  0  0  0  0  0
    5.9492   -4.2689    2.4299 C   0  0  0  0  0  0  0  0  0  0  0  0
    6.3804   -3.0434    3.0081 O   0  0  0  0  0  0  0  0  0  0  0  0
    7.3434   -2.3012    2.2773 C   0  0  1  0  0  0  0  0  0  0  0  0
    6.7323   -1.3698    1.2105 C   0  0  0  0  0  0  0  0  0  0  0  0
    5.7452   -0.3599    1.7524 C   0  0  0  0  0  0  0  0  0  0  0  0
    6.1711    0.8892    2.2230 C   0  0  0  0  0  0  0  0  0  0  0  0
    5.2683    1.8235    2.7443 C   0  0  0  0  0  0  0  0  0  0  0  0
    3.9052    1.5104    2.8010 C   0  0  0  0  0  0  0  0  0  0  0  0
    2.9393    2.3531    3.2810 O   0  0  0  0  0  0  0  0  0  0  0  0
    3.3037    3.6184    3.7644 C   0  0  0  0  0  0  0  0  0  0  0  0
    1.9889    4.2818    4.2116 C   0  0  0  0  0  0  0  0  0  0  0  0
    2.1823    5.6229    4.7078 N   0  0  0  0  0  0  0  0  0  0  0  0
    2.6297    6.6512    3.8145 C   0  0  0  0  0  0  0  0  0  0  0  0
    2.0867    5.9054    6.1869 C   0  0  1  0  0  0  0  0  0  0  0  0
    2.4168    7.3310    6.5434 C   0  0  0  0  0  0  0  0  0  0  0  0
    3.7595    7.5999    6.9188 C   0  0  0  0  0  0  0  0  0  0  0  0
    4.2140    8.9246    7.1338 C   0  0  0  0  0  0  0  0  0  0  0  0
    3.3448    9.9852    7.0786 C   0  0  0  0  0  0  0  0  0  0  0  0
    1.8653    9.7698    6.9260 C   0  0  0  0  0  0  0  0  0  0  0  0
    1.4514    8.3868    6.4016 C   0  0  0  0  0  0  0  0  0  0  0  0
    0.1727    8.2970    5.8863 C   0  0  0  0  0  0  0  0  0  0  0  0
   -0.5484    7.0441    5.4217 C   0  0  0  0  0  0  0  0  0  0  0  0
   -0.4583    5.9082    6.4189 C   0  0  0  0  0  0  0  0  0  0  0  0
   -1.6042    5.4199    7.0656 C   0  0  0  0  0  0  0  0  0  0  0  0
   -1.5310    4.4121    8.0294 C   0  0  0  0  0  0  0  0  0  0  0  0
   -0.2901    3.8718    8.3771 C   0  0  0  0  0  0  0  0  0  0  0  0
    0.8615    4.3461    7.7473 C   0  0  0  0  0  0  0  0  0  0  0  0
    0.7941    5.3533    6.7716 C   0  0  0  0  0  0  0  0  0  0  0  0
    3.4590    0.2641    2.3367 C   0  0  0  0  0  0  0  0  0  0  0  0
    4.3714   -0.6522    1.8225 C   0  0  0  0  0  0  0  0  0  0  0  0
    8.1916   -1.5054    3.2889 C   0  0  0  0  0  0  0  0  0  0  0  0
    9.0313   -0.7165    2.9417 O   0  0  0  0  0  0  0  0  0  0  0  0
    7.9194   -1.7768    4.5645 O   0  0  0  0  0  0  0  0  0  0  0  0
    4.6091   -5.8849    2.9383 H   0  0  0  0  0  0  0  0  0  0  0  0
    4.0910   -4.2862    3.5427 H   0  0  0  0  0  0  0  0  0  0  0  0
    5.4315   -5.1518    4.3415 H   0  0  0  0  0  0  0  0  0  0  0  0
    5.4774   -4.0770    1.4478 H   0  0  0  0  0  0  0  0  0  0  0  0
    6.8258   -4.9219    2.2487 H   0  0  0  0  0  0  0  0  0  0  0  0
    8.0464   -2.9933    1.7724 H   0  0  0  0  0  0  0  0  0  0  0  0
    6.2501   -1.9928    0.4402 H   0  0  0  0  0  0  0  0  0  0  0  0
    7.5779   -0.8590    0.7263 H   0  0  0  0  0  0  0  0  0  0  0  0
    7.2336    1.1409    2.1907 H   0  0  0  0  0  0  0  0  0  0  0  0
    5.6474    2.7829    3.0974 H   0  0  0  0  0  0  0  0  0  0  0  0
    3.8000    4.2198    2.9805 H   0  0  0  0  0  0  0  0  0  0  0  0
    3.9983    3.5413    4.6216 H   0  0  0  0  0  0  0  0  0  0  0  0
    1.5168    3.6760    4.9940 H   0  0  0  0  0  0  0  0  0  0  0  0
    1.3075    4.3162    3.3447 H   0  0  0  0  0  0  0  0  0  0  0  0
    3.6757    6.9099    4.0621 H   0  0  0  0  0  0  0  0  0  0  0  0
    2.0573    7.5690    4.0153 H   0  0  0  0  0  0  0  0  0  0  0  0
    2.5424    6.3271    2.7701 H   0  0  0  0  0  0  0  0  0  0  0  0
    2.8980    5.2635    6.5770 H   0  0  0  0  0  0  0  0  0  0  0  0
    4.4650    6.7701    7.0256 H   0  0  0  0  0  0  0  0  0  0  0  0
    5.2756    9.0960    7.3381 H   0  0  0  0  0  0  0  0  0  0  0  0
    3.7009   11.0075    7.2343 H   0  0  0  0  0  0  0  0  0  0  0  0
    1.4197   10.5472    6.2766 H   0  0  0  0  0  0  0  0  0  0  0  0
    1.3561    9.9182    7.9078 H   0  0  0  0  0  0  0  0  0  0  0  0
   -0.4328    9.2075    5.8906 H   0  0  0  0  0  0  0  0  0  0  0  0
   -0.2135    6.6936    4.4215 H   0  0  0  0  0  0  0  0  0  0  0  0
   -1.6118    7.2842    5.2702 H   0  0  0  0  0  0  0  0  0  0  0  0
   -2.5761    5.8488    6.8058 H   0  0  0  0  0  0  0  0  0  0  0  0
   -2.4433    4.0519    8.5122 H   0  0  0  0  0  0  0  0  0  0  0  0
   -0.2169    3.0885    9.1353 H   0  0  0  0  0  0  0  0  0  0  0  0
    1.8360    3.9348    8.0275 H   0  0  0  0  0  0  0  0  0  0  0  0
    2.3917    0.0391    2.3848 H   0  0  0  0  0  0  0  0  0  0  0  0
    4.0046   -1.6151    1.4569 H   0  0  0  0  0  0  0  0  0  0  0  0
    7.1840   -2.4238    4.5544 H   0  0  0  0  0  0  0  0  0  0  0  0
  1  2  1  0
  1 35  1  0
  1 36  1  0
  1 37  1  0
  2  3  1  0
  2 38  1  0
  2 39  1  0
  3  4  1  0
  4  5  1  0
  4 32  1  0
  4 40  1  6
  5  6  1  0
  5 41  1  0
  5 42  1  0
  6  7  2  0
  6 31  1  0
  7  8  1  0
  7 43  1  0
  8  9  2  0
  8 44  1  0
  9 10  1  0
  9 30  1  0
 10 11  1  0
 11 12  1  0
 11 45  1  0
 11 46  1  0
 12 13  1  0
 12 47  1  0
 12 48  1  0
 13 14  1  0
 13 15  1  0
 14 49  1  0
 14 50  1  0
 14 51  1  0
 15 16  1  0
 15 29  1  0
 15 52  1  1
 16 17  2  0
 16 21  1  0
 17 18  1  0
 17 53  1  0
 18 19  2  0
 18 54  1  0
 19 20  1  0
 19 55  1  0
 20 21  1  0
 20 56  1  0
 20 57  1  0
 21 22  2  0
 22 23  1  0
 22 58  1  0
 23 24  1  0
 23 59  1  0
 23 60  1  0
 24 25  1  0
 24 29  2  0
 25 26  2  0
 25 61  1  0
 26 27  1  0
 26 62  1  0
 27 28  2  0
 27 63  1  0
 28 29  1  0
 28 64  1  0
 30 31  2  0
 30 65  1  0
 31 66  1  0
 32 33  2  0
 32 34  1  0
 34 67  1  0
M  END

