
     RDKit          3D

 52 54  0  0  0  0  0  0  0  0999 V2000
    1.6620    0.0866    1.0989 C   0  0  0  0  0  0  0  0  0  0  0  0
    2.6131   -0.3710    0.1128 N   0  0  0  0  0  0  0  0  0  0  0  0
    3.1057   -1.7148    0.1344 C   0  0  0  0  0  0  0  0  0  0  0  0
    2.3867   -2.5420   -1.0066 C   0  0  0  0  0  0  0  0  0  0  0  0
    2.5304   -1.8808   -2.2646 N   0  0  0  0  0  0  0  0  0  0  0  0
    3.7506   -2.2045   -3.0104 C   0  0  0  0  0  0  0  0  0  0  0  0
    4.6896   -2.6971   -2.4035 O   0  0  0  0  0  0  0  0  0  0  0  0
    3.6962   -1.8840   -4.2996 N   0  0  0  0  0  0  0  0  0  0  0  0
    4.8199   -2.0247   -5.2787 C   0  0  0  0  0  0  0  0  0  0  0  0
    4.4885   -1.3602   -6.5763 C   0  0  0  0  0  0  0  0  0  0  0  0
    4.6932    0.0453   -6.7638 C   0  0  0  0  0  0  0  0  0  0  0  0
    4.2775    0.6903   -7.9046 C   0  0  0  0  0  0  0  0  0  0  0  0
    3.5980   -0.0064   -8.9654 C   0  0  0  0  0  0  0  0  0  0  0  0
    3.1406    0.7536  -10.1057 C   0  0  0  0  0  0  0  0  0  0  0  0
    3.3280    1.9534  -10.2871 O   0  0  0  0  0  0  0  0  0  0  0  0
    2.4207    0.0605  -11.0723 O   0  0  0  0  0  0  0  0  0  0  0  0
    3.4513   -1.4334   -8.7946 C   0  0  0  0  0  0  0  0  0  0  0  0
    3.8701   -2.0682   -7.6396 C   0  0  0  0  0  0  0  0  0  0  0  0
    2.0333   -0.5341   -2.2637 C   0  0  0  0  0  0  0  0  0  0  0  0
    2.7268    0.3538   -1.1412 C   0  0  2  0  0  0  0  0  0  0  0  0
    4.1809    0.7401   -1.4918 C   0  0  0  0  0  0  0  0  0  0  0  0
    4.8192    1.6439   -0.4558 C   0  0  0  0  0  0  0  0  0  0  0  0
    5.8298    1.1648    0.3912 C   0  0  0  0  0  0  0  0  0  0  0  0
    6.4024    1.9926    1.3623 C   0  0  0  0  0  0  0  0  0  0  0  0
    5.9705    3.3140    1.5003 C   0  0  0  0  0  0  0  0  0  0  0  0
    4.9699    3.8067    0.6563 C   0  0  0  0  0  0  0  0  0  0  0  0
    4.4016    2.9783   -0.3146 C   0  0  0  0  0  0  0  0  0  0  0  0
    1.7626   -0.4948    2.0230 H   0  0  0  0  0  0  0  0  0  0  0  0
    0.6278   -0.0192    0.7193 H   0  0  0  0  0  0  0  0  0  0  0  0
    1.8382    1.1503    1.3124 H   0  0  0  0  0  0  0  0  0  0  0  0
    2.9335   -2.1677    1.1184 H   0  0  0  0  0  0  0  0  0  0  0  0
    4.1749   -1.7448   -0.1172 H   0  0  0  0  0  0  0  0  0  0  0  0
    1.3200   -2.6378   -0.7456 H   0  0  0  0  0  0  0  0  0  0  0  0
    2.8554   -3.5313   -1.0380 H   0  0  0  0  0  0  0  0  0  0  0  0
    2.8047   -1.6426   -4.7194 H   0  0  0  0  0  0  0  0  0  0  0  0
    5.0129   -3.1030   -5.4051 H   0  0  0  0  0  0  0  0  0  0  0  0
    5.7118   -1.5929   -4.7969 H   0  0  0  0  0  0  0  0  0  0  0  0
    5.2152    0.6159   -5.9870 H   0  0  0  0  0  0  0  0  0  0  0  0
    4.4525    1.7580   -8.0480 H   0  0  0  0  0  0  0  0  0  0  0  0
    2.2409   -0.8276  -10.7409 H   0  0  0  0  0  0  0  0  0  0  0  0
    3.0397   -2.0533   -9.5981 H   0  0  0  0  0  0  0  0  0  0  0  0
    3.7426   -3.1538   -7.5557 H   0  0  0  0  0  0  0  0  0  0  0  0
    0.9492   -0.5305   -2.0604 H   0  0  0  0  0  0  0  0  0  0  0  0
    2.2061   -0.0465   -3.2284 H   0  0  0  0  0  0  0  0  0  0  0  0
    2.1319    1.2726   -1.0410 H   0  0  0  0  0  0  0  0  0  0  0  0
    4.1408    1.2478   -2.4670 H   0  0  0  0  0  0  0  0  0  0  0  0
    4.7918   -0.1623   -1.6355 H   0  0  0  0  0  0  0  0  0  0  0  0
    6.1885    0.1374    0.2794 H   0  0  0  0  0  0  0  0  0  0  0  0
    7.1956    1.6045    2.0058 H   0  0  0  0  0  0  0  0  0  0  0  0
    6.4210    3.9634    2.2547 H   0  0  0  0  0  0  0  0  0  0  0  0
    4.6403    4.8448    0.7448 H   0  0  0  0  0  0  0  0  0  0  0  0
    3.6373    3.3846   -0.9847 H   0  0  0  0  0  0  0  0  0  0  0  0
  1  2  1  0
  1 28  1  0
  1 29  1  0
  1 30  1  0
  2  3  1  0
  2 20  1  0
  3  4  1  0
  3 31  1  0
  3 32  1  0
  4  5  1  0
  4 33  1  0
  4 34  1  0
  5  6  1  0
  5 19  1  0
  6  7  2  0
  6  8  1  0
  8  9  1  0
  8 35  1  0
  9 10  1  0
  9 36  1  0
  9 37  1  0
 10 11  2  0
 10 18  1  0
 11 12  1  0
 11 38  1  0
 12 13  2  0
 12 39  1  0
 13 14  1  0
 13 17  1  0
 14 15  2  0
 14 16  1  0
 16 40  1  0
 17 18  2  0
 17 41  1  0
 18 42  1  0
 19 20  1  0
 19 43  1  0
 19 44  1  0
 20 21  1  0
 20 45  1  1
 21 22  1  0
 21 46  1  0
 21 47  1  0
 22 23  2  0
 22 27  1  0
 23 24  1  0
 23 48  1  0
 24 25  2  0
 24 49  1  0
 25 26  1  0
 25 50  1  0
 26 27  2  0
 26 51  1  0
 27 52  1  0
M  END

