
     RDKit          3D

 44 47  0  0  0  0  0  0  0  0999 V2000
    0.9967    0.5939   -0.7343 O   0  0  0  0  0  0  0  0  0  0  0  0
    2.0382    0.3351   -0.1601 C   0  0  0  0  0  0  0  0  0  0  0  0
    2.4265   -1.0988    0.1723 C   0  0  0  0  0  0  0  0  0  0  0  0
    3.3096   -1.2071    1.4177 C   0  0  0  0  0  0  0  0  0  0  0  0
    4.5565   -0.3305    1.2707 C   0  0  0  0  0  0  0  0  0  0  0  0
    4.2084    1.0983    0.9143 C   0  0  0  0  0  0  0  0  0  0  0  0
    5.0578    2.1655    1.2384 C   0  0  0  0  0  0  0  0  0  0  0  0
    4.7582    3.4861    0.9067 C   0  0  0  0  0  0  0  0  0  0  0  0
    3.5610    3.7842    0.2215 C   0  0  0  0  0  0  0  0  0  0  0  0
    3.1728    5.0816   -0.1492 N   0  0  0  0  0  0  0  0  0  0  0  0
    3.8624    6.2743    0.0436 C   0  0  0  0  0  0  0  0  0  0  0  0
    4.9534    6.3491    0.5915 O   0  0  0  0  0  0  0  0  0  0  0  0
    3.2095    7.3854   -0.4357 N   0  0  0  0  0  0  0  0  0  0  0  0
    1.8968    7.4331   -1.0817 C   0  0  0  0  0  0  0  0  0  0  0  0
    1.7404    8.9163   -1.4520 C   0  0  0  0  0  0  0  0  0  0  0  0
    2.5697    9.6455   -0.3883 C   0  0  1  0  0  0  0  0  0  0  0  0
    2.8882   11.1558   -0.5388 C   0  0  0  0  0  0  0  0  0  0  0  0
    2.5647   11.3571    0.9648 C   0  0  0  0  0  0  0  0  0  0  0  0
    1.8817    9.9654    0.9766 C   0  0  0  0  0  0  0  0  0  0  0  0
    3.7854    8.7173   -0.2550 C   0  0  0  0  0  0  0  0  0  0  0  0
    2.7025    2.7282   -0.1054 C   0  0  0  0  0  0  0  0  0  0  0  0
    3.0126    1.4035    0.2290 C   0  0  0  0  0  0  0  0  0  0  0  0
    2.9748   -1.4892   -0.7073 H   0  0  0  0  0  0  0  0  0  0  0  0
    1.5003   -1.6878    0.2494 H   0  0  0  0  0  0  0  0  0  0  0  0
    3.5960   -2.2568    1.5920 H   0  0  0  0  0  0  0  0  0  0  0  0
    2.7361   -0.8842    2.3046 H   0  0  0  0  0  0  0  0  0  0  0  0
    5.2036   -0.7560    0.4785 H   0  0  0  0  0  0  0  0  0  0  0  0
    5.1597   -0.3487    2.1929 H   0  0  0  0  0  0  0  0  0  0  0  0
    5.9886    1.9615    1.7761 H   0  0  0  0  0  0  0  0  0  0  0  0
    5.4309    4.2991    1.1703 H   0  0  0  0  0  0  0  0  0  0  0  0
    2.2750    5.1308   -0.6128 H   0  0  0  0  0  0  0  0  0  0  0  0
    1.0972    7.1101   -0.3867 H   0  0  0  0  0  0  0  0  0  0  0  0
    1.8501    6.7803   -1.9722 H   0  0  0  0  0  0  0  0  0  0  0  0
    0.6883    9.2380   -1.4779 H   0  0  0  0  0  0  0  0  0  0  0  0
    2.1730    9.1047   -2.4496 H   0  0  0  0  0  0  0  0  0  0  0  0
    2.1625   11.6619   -1.1951 H   0  0  0  0  0  0  0  0  0  0  0  0
    3.9031   11.4150   -0.8814 H   0  0  0  0  0  0  0  0  0  0  0  0
    1.9387   12.2221    1.2300 H   0  0  0  0  0  0  0  0  0  0  0  0
    3.4718   11.3852    1.5876 H   0  0  0  0  0  0  0  0  0  0  0  0
    0.7866   10.0383    0.8767 H   0  0  0  0  0  0  0  0  0  0  0  0
    2.1098    9.2928    1.8183 H   0  0  0  0  0  0  0  0  0  0  0  0
    4.2992    8.7847    0.7145 H   0  0  0  0  0  0  0  0  0  0  0  0
    4.5353    8.9387   -1.0394 H   0  0  0  0  0  0  0  0  0  0  0  0
    1.7609    2.9039   -0.6334 H   0  0  0  0  0  0  0  0  0  0  0  0
  1  2  2  0
  2  3  1  0
  2 22  1  0
  3  4  1  0
  3 23  1  0
  3 24  1  0
  4  5  1  0
  4 25  1  0
  4 26  1  0
  5  6  1  0
  5 27  1  0
  5 28  1  0
  6  7  1  0
  6 22  2  0
  7  8  2  0
  7 29  1  0
  8  9  1  0
  8 30  1  0
  9 10  1  0
  9 21  2  0
 10 11  1  0
 10 31  1  0
 11 12  2  0
 11 13  1  0
 13 14  1  0
 13 20  1  0
 14 15  1  0
 14 32  1  0
 14 33  1  0
 16 15  1  6
 15 34  1  0
 15 35  1  0
 16 17  1  0
 16 19  1  0
 16 20  1  0
 17 18  1  0
 17 36  1  0
 17 37  1  0
 18 19  1  0
 18 38  1  0
 18 39  1  0
 19 40  1  0
 19 41  1  0
 20 42  1  0
 20 43  1  0
 21 22  1  0
 21 44  1  0
M  END

