
     RDKit          3D

 37 39  0  0  0  0  0  0  0  0999 V2000
    1.3294    0.0166    1.1277 C   0  0  0  0  0  0  0  0  0  0  0  0
    2.6229    0.0291    0.3446 C   0  0  0  0  0  0  0  0  0  0  0  0
    3.3640    1.2196    0.2745 C   0  0  0  0  0  0  0  0  0  0  0  0
    4.5813    1.2951   -0.4046 C   0  0  0  0  0  0  0  0  0  0  0  0
    5.0904    0.1560   -1.0311 C   0  0  0  0  0  0  0  0  0  0  0  0
    4.3686   -1.0362   -0.9764 C   0  0  0  0  0  0  0  0  0  0  0  0
    3.1340   -1.1253   -0.3036 C   0  0  0  0  0  0  0  0  0  0  0  0
    2.4334   -2.4357   -0.2838 C   0  0  0  0  0  0  0  0  0  0  0  0
    3.0912   -3.6300    0.0638 C   0  0  0  0  0  0  0  0  0  0  0  0
    2.5123   -4.8219    0.0580 N   0  0  0  0  0  0  0  0  0  0  0  0
    1.2151   -4.8753   -0.3114 C   0  0  0  0  0  0  0  0  0  0  0  0
    0.6049   -6.0994   -0.3308 N   0  0  0  0  0  0  0  0  0  0  0  0
   -0.8079   -6.2645   -0.6527 C   0  0  0  0  0  0  0  0  0  0  0  0
   -0.9895   -7.3934   -1.6682 C   0  0  0  0  0  0  0  0  0  0  0  0
   -0.3626   -8.6084   -1.1655 N   0  0  0  0  0  0  0  0  0  0  0  0
    1.0652   -8.4271   -0.9391 C   0  0  0  0  0  0  0  0  0  0  0  0
    1.2848   -7.3185    0.0910 C   0  0  0  0  0  0  0  0  0  0  0  0
    0.4837   -3.7989   -0.6702 N   0  0  0  0  0  0  0  0  0  0  0  0
    1.0893   -2.6201   -0.6547 C   0  0  0  0  0  0  0  0  0  0  0  0
    1.3096    0.8407    1.8564 H   0  0  0  0  0  0  0  0  0  0  0  0
    1.1886   -0.9276    1.6751 H   0  0  0  0  0  0  0  0  0  0  0  0
    0.4487    0.1436    0.4754 H   0  0  0  0  0  0  0  0  0  0  0  0
    2.9771    2.1090    0.7807 H   0  0  0  0  0  0  0  0  0  0  0  0
    5.1315    2.2390   -0.4374 H   0  0  0  0  0  0  0  0  0  0  0  0
    6.0427    0.1949   -1.5661 H   0  0  0  0  0  0  0  0  0  0  0  0
    4.7563   -1.9236   -1.4833 H   0  0  0  0  0  0  0  0  0  0  0  0
    4.1436   -3.6011    0.3746 H   0  0  0  0  0  0  0  0  0  0  0  0
   -1.1901   -5.3132   -1.0390 H   0  0  0  0  0  0  0  0  0  0  0  0
   -1.3664   -6.5204    0.2686 H   0  0  0  0  0  0  0  0  0  0  0  0
   -0.5669   -7.0587   -2.6435 H   0  0  0  0  0  0  0  0  0  0  0  0
   -2.0665   -7.5738   -1.8181 H   0  0  0  0  0  0  0  0  0  0  0  0
   -0.5329   -9.3904   -1.7943 H   0  0  0  0  0  0  0  0  0  0  0  0
    1.6205   -8.1574   -1.8667 H   0  0  0  0  0  0  0  0  0  0  0  0
    1.4958   -9.3665   -0.5557 H   0  0  0  0  0  0  0  0  0  0  0  0
    2.3498   -7.0962    0.2189 H   0  0  0  0  0  0  0  0  0  0  0  0
    0.8746   -7.6495    1.0649 H   0  0  0  0  0  0  0  0  0  0  0  0
    0.4844   -1.7636   -0.9752 H   0  0  0  0  0  0  0  0  0  0  0  0
  1  2  1  0
  1 20  1  0
  1 21  1  0
  1 22  1  0
  2  3  2  0
  2  7  1  0
  3  4  1  0
  3 23  1  0
  4  5  2  0
  4 24  1  0
  5  6  1  0
  5 25  1  0
  6  7  2  0
  6 26  1  0
  7  8  1  0
  8  9  2  0
  8 19  1  0
  9 10  1  0
  9 27  1  0
 10 11  2  0
 11 12  1  0
 11 18  1  0
 12 13  1  0
 12 17  1  0
 13 14  1  0
 13 28  1  0
 13 29  1  0
 14 15  1  0
 14 30  1  0
 14 31  1  0
 15 16  1  0
 15 32  1  0
 16 17  1  0
 16 33  1  0
 16 34  1  0
 17 35  1  0
 17 36  1  0
 18 19  2  0
 19 37  1  0
M  END

