
     RDKit          3D

 42 43  0  0  0  0  0  0  0  0999 V2000
    0.6721    0.2917    0.2376 C   0  0  0  0  0  0  0  0  0  0  0  0
    2.2007    0.1747    0.1710 C   0  0  1  0  0  0  0  0  0  0  0  0
    2.6051   -1.2948   -0.0428 C   0  0  0  0  0  0  0  0  0  0  0  0
    4.1013   -1.5994   -0.2159 C   0  0  0  0  0  0  0  0  0  0  0  0
    4.6979   -1.0865   -1.5367 C   0  0  0  0  0  0  0  0  0  0  0  0
    5.2024    0.3791   -1.5462 C   0  0  2  0  0  0  0  0  0  0  0  0
    6.5694    0.5545   -1.0473 N   0  0  0  0  0  0  0  0  0  0  0  0
    7.6645    0.0646   -1.8700 C   0  0  0  0  0  0  0  0  0  0  0  0
    8.0812    1.0745   -2.9587 C   0  0  0  0  0  0  0  0  0  0  0  0
    9.2289    0.6003   -3.8037 C   0  0  0  0  0  0  0  0  0  0  0  0
    9.2087   -0.3071   -4.8965 C   0  0  0  0  0  0  0  0  0  0  0  0
   10.4242   -0.5241   -5.3925 N   0  0  0  0  0  0  0  0  0  0  0  0
   11.2451    0.2252   -4.6451 N   0  0  0  0  0  0  0  0  0  0  0  0
   12.6686    0.2091   -4.9045 C   0  0  0  0  0  0  0  0  0  0  0  0
   10.5761    0.9141   -3.6779 C   0  0  0  0  0  0  0  0  0  0  0  0
    4.3021    1.3673   -0.7785 C   0  0  0  0  0  0  0  0  0  0  0  0
    2.7819    1.1582   -0.8660 C   0  0  0  0  0  0  0  0  0  0  0  0
    0.2484   -0.3833    0.9990 H   0  0  0  0  0  0  0  0  0  0  0  0
    0.2138    0.0267   -0.7309 H   0  0  0  0  0  0  0  0  0  0  0  0
    0.3555    1.3180    0.4850 H   0  0  0  0  0  0  0  0  0  0  0  0
    2.6012    0.4864    1.1556 H   0  0  0  0  0  0  0  0  0  0  0  0
    2.0727   -1.6811   -0.9332 H   0  0  0  0  0  0  0  0  0  0  0  0
    2.2184   -1.8799    0.8103 H   0  0  0  0  0  0  0  0  0  0  0  0
    4.2251   -2.6948   -0.1755 H   0  0  0  0  0  0  0  0  0  0  0  0
    4.6745   -1.2100    0.6464 H   0  0  0  0  0  0  0  0  0  0  0  0
    3.9410   -1.2162   -2.3302 H   0  0  0  0  0  0  0  0  0  0  0  0
    5.5416   -1.7292   -1.8392 H   0  0  0  0  0  0  0  0  0  0  0  0
    5.2167    0.6954   -2.6040 H   0  0  0  0  0  0  0  0  0  0  0  0
    6.6422    0.1985   -0.0963 H   0  0  0  0  0  0  0  0  0  0  0  0
    7.4520   -0.9128   -2.3556 H   0  0  0  0  0  0  0  0  0  0  0  0
    8.5334   -0.1128   -1.2151 H   0  0  0  0  0  0  0  0  0  0  0  0
    8.3334    2.0249   -2.4619 H   0  0  0  0  0  0  0  0  0  0  0  0
    7.2127    1.2871   -3.6053 H   0  0  0  0  0  0  0  0  0  0  0  0
    8.3444   -0.8010   -5.3431 H   0  0  0  0  0  0  0  0  0  0  0  0
   12.8577    0.4197   -5.9674 H   0  0  0  0  0  0  0  0  0  0  0  0
   13.1004   -0.7745   -4.6599 H   0  0  0  0  0  0  0  0  0  0  0  0
   13.1577    0.9782   -4.2916 H   0  0  0  0  0  0  0  0  0  0  0  0
   11.0938    1.5772   -2.9865 H   0  0  0  0  0  0  0  0  0  0  0  0
    4.5676    2.3787   -1.1245 H   0  0  0  0  0  0  0  0  0  0  0  0
    4.5959    1.3452    0.2868 H   0  0  0  0  0  0  0  0  0  0  0  0
    2.4872    0.8489   -1.8863 H   0  0  0  0  0  0  0  0  0  0  0  0
    2.2935    2.1341   -0.7040 H   0  0  0  0  0  0  0  0  0  0  0  0
  1  2  1  0
  1 18  1  0
  1 19  1  0
  1 20  1  0
  2  3  1  0
  2 17  1  0
  2 21  1  1
  3  4  1  0
  3 22  1  0
  3 23  1  0
  4  5  1  0
  4 24  1  0
  4 25  1  0
  5  6  1  0
  5 26  1  0
  5 27  1  0
  6  7  1  0
  6 16  1  0
  6 28  1  6
  7  8  1  0
  7 29  1  0
  8  9  1  0
  8 30  1  0
  8 31  1  0
  9 10  1  0
  9 32  1  0
  9 33  1  0
 10 11  1  0
 10 15  2  0
 11 12  2  0
 11 34  1  0
 12 13  1  0
 13 14  1  0
 13 15  1  0
 14 35  1  0
 14 36  1  0
 14 37  1  0
 15 38  1  0
 16 17  1  0
 16 39  1  0
 16 40  1  0
 17 41  1  0
 17 42  1  0
M  END

