
     RDKit          3D

 61 61  0  0  0  0  0  0  0  0999 V2000
    3.3696    0.6199    2.3332 C   0  0  0  0  0  0  0  0  0  0  0  0
    3.6184    0.1859    0.9114 C   0  0  0  0  0  0  0  0  0  0  0  0
    3.2932    0.9056   -0.1981 C   0  0  0  0  0  0  0  0  0  0  0  0
    2.5507    2.2234   -0.1371 C   0  0  0  0  0  0  0  0  0  0  0  0
    1.0175    2.0554   -0.1329 C   0  0  0  0  0  0  0  0  0  0  0  0
    0.2604    3.3865   -0.1175 C   0  0  0  0  0  0  0  0  0  0  0  0
   -1.2625    3.2269   -0.0909 C   0  0  0  0  0  0  0  0  0  0  0  0
   -2.0265    4.5543   -0.0726 C   0  0  0  0  0  0  0  0  0  0  0  0
   -3.5487    4.3909   -0.0359 C   0  0  0  0  0  0  0  0  0  0  0  0
   -4.3176    5.7154   -0.0172 C   0  0  0  0  0  0  0  0  0  0  0  0
   -5.8390    5.5467    0.0263 C   0  0  0  0  0  0  0  0  0  0  0  0
   -6.6131    6.8682    0.0441 C   0  0  0  0  0  0  0  0  0  0  0  0
   -8.1337    6.6934    0.0913 C   0  0  0  0  0  0  0  0  0  0  0  0
   -8.9124    8.0121    0.1075 C   0  0  0  0  0  0  0  0  0  0  0  0
  -10.4324    7.8308    0.1564 C   0  0  0  0  0  0  0  0  0  0  0  0
  -11.2142    9.1466    0.1649 C   0  0  0  0  0  0  0  0  0  0  0  0
  -12.7296    8.9611    0.2253 C   0  0  0  0  0  0  0  0  0  0  0  0
  -13.4424   10.1789    0.1597 O   0  0  0  0  0  0  0  0  0  0  0  0
    3.5917    0.3967   -1.5945 C   0  0  0  0  0  0  0  0  0  0  0  0
    4.6771   -0.6778   -1.6419 C   0  0  0  0  0  0  0  0  0  0  0  0
    4.4007   -1.7579   -0.6011 C   0  0  0  0  0  0  0  0  0  0  0  0
    4.2281   -1.1737    0.7927 C   0  0  0  0  0  0  0  0  0  0  0  0
    4.5323   -1.8124    1.7853 O   0  0  0  0  0  0  0  0  0  0  0  0
    3.0465    1.6651    2.4153 H   0  0  0  0  0  0  0  0  0  0  0  0
    4.2798    0.4781    2.9356 H   0  0  0  0  0  0  0  0  0  0  0  0
    2.6005   -0.0159    2.8034 H   0  0  0  0  0  0  0  0  0  0  0  0
    2.8360    2.8412   -1.0059 H   0  0  0  0  0  0  0  0  0  0  0  0
    2.8456    2.7950    0.7567 H   0  0  0  0  0  0  0  0  0  0  0  0
    0.7264    1.4532    0.7456 H   0  0  0  0  0  0  0  0  0  0  0  0
    0.7090    1.4683   -1.0164 H   0  0  0  0  0  0  0  0  0  0  0  0
    0.5512    3.9834   -1.0020 H   0  0  0  0  0  0  0  0  0  0  0  0
    0.5811    3.9778    0.7603 H   0  0  0  0  0  0  0  0  0  0  0  0
   -1.5498    2.6288    0.7938 H   0  0  0  0  0  0  0  0  0  0  0  0
   -1.5825    2.6339   -0.9680 H   0  0  0  0  0  0  0  0  0  0  0  0
   -1.7443    5.1506   -0.9604 H   0  0  0  0  0  0  0  0  0  0  0  0
   -1.7025    5.1496    0.8015 H   0  0  0  0  0  0  0  0  0  0  0  0
   -3.8290    3.7945    0.8524 H   0  0  0  0  0  0  0  0  0  0  0  0
   -3.8723    3.7939   -0.9090 H   0  0  0  0  0  0  0  0  0  0  0  0
   -4.0415    6.3106   -0.9076 H   0  0  0  0  0  0  0  0  0  0  0  0
   -3.9920    6.3141    0.8540 H   0  0  0  0  0  0  0  0  0  0  0  0
   -6.1138    4.9517    0.9173 H   0  0  0  0  0  0  0  0  0  0  0  0
   -6.1638    4.9461   -0.8439 H   0  0  0  0  0  0  0  0  0  0  0  0
   -6.3415    7.4626   -0.8482 H   0  0  0  0  0  0  0  0  0  0  0  0
   -6.2879    7.4701    0.9133 H   0  0  0  0  0  0  0  0  0  0  0  0
   -8.4044    6.0994    0.9842 H   0  0  0  0  0  0  0  0  0  0  0  0
   -8.4579    6.0898   -0.7770 H   0  0  0  0  0  0  0  0  0  0  0  0
   -8.6452    8.6059   -0.7863 H   0  0  0  0  0  0  0  0  0  0  0  0
   -8.5891    8.6169    0.9752 H   0  0  0  0  0  0  0  0  0  0  0  0
  -10.6984    7.2386    1.0521 H   0  0  0  0  0  0  0  0  0  0  0  0
  -10.7532    7.2225   -0.7097 H   0  0  0  0  0  0  0  0  0  0  0  0
  -10.9746    9.7405   -0.7348 H   0  0  0  0  0  0  0  0  0  0  0  0
  -10.8945    9.7587    1.0309 H   0  0  0  0  0  0  0  0  0  0  0  0
  -12.9990    8.3780    1.1317 H   0  0  0  0  0  0  0  0  0  0  0  0
  -13.0663    8.3645   -0.6394 H   0  0  0  0  0  0  0  0  0  0  0  0
  -13.1859   10.7162    0.9207 H   0  0  0  0  0  0  0  0  0  0  0  0
    3.8707    1.2517   -2.2338 H   0  0  0  0  0  0  0  0  0  0  0  0
    2.6529    0.0031   -2.0342 H   0  0  0  0  0  0  0  0  0  0  0  0
    5.6561   -0.2117   -1.4324 H   0  0  0  0  0  0  0  0  0  0  0  0
    4.7443   -1.1128   -2.6522 H   0  0  0  0  0  0  0  0  0  0  0  0
    5.1904   -2.5221   -0.5513 H   0  0  0  0  0  0  0  0  0  0  0  0
    3.4603   -2.2883   -0.8468 H   0  0  0  0  0  0  0  0  0  0  0  0
  1  2  1  0
  1 24  1  0
  1 25  1  0
  1 26  1  0
  2  3  2  0
  2 22  1  0
  3  4  1  0
  3 19  1  0
  4  5  1  0
  4 27  1  0
  4 28  1  0
  5  6  1  0
  5 29  1  0
  5 30  1  0
  6  7  1  0
  6 31  1  0
  6 32  1  0
  7  8  1  0
  7 33  1  0
  7 34  1  0
  8  9  1  0
  8 35  1  0
  8 36  1  0
  9 10  1  0
  9 37  1  0
  9 38  1  0
 10 11  1  0
 10 39  1  0
 10 40  1  0
 11 12  1  0
 11 41  1  0
 11 42  1  0
 12 13  1  0
 12 43  1  0
 12 44  1  0
 13 14  1  0
 13 45  1  0
 13 46  1  0
 14 15  1  0
 14 47  1  0
 14 48  1  0
 15 16  1  0
 15 49  1  0
 15 50  1  0
 16 17  1  0
 16 51  1  0
 16 52  1  0
 17 18  1  0
 17 53  1  0
 17 54  1  0
 18 55  1  0
 19 20  1  0
 19 56  1  0
 19 57  1  0
 20 21  1  0
 20 58  1  0
 20 59  1  0
 21 22  1  0
 21 60  1  0
 21 61  1  0
 22 23  2  0
M  END

