
     RDKit          3D

 32 33  0  0  0  0  0  0  0  0999 V2000
    1.9192    0.6946    0.9561 C   0  0  0  0  0  0  0  0  0  0  0  0
    2.1917    0.1193   -0.3371 N   0  0  0  0  0  0  0  0  0  0  0  0
    2.4368   -1.3181   -0.4227 C   0  0  0  0  0  0  0  0  0  0  0  0
    2.2685   -1.9161   -1.8243 C   0  0  0  0  0  0  0  0  0  0  0  0
    2.8501   -1.0192   -2.9314 C   0  0  2  0  0  0  0  0  0  0  0  0
    4.4163   -0.9558   -2.8827 C   0  0  1  0  0  0  0  0  0  0  0  0
    4.9340   -2.2913   -3.2162 C   0  0  0  0  0  0  0  0  0  0  0  0
    5.2696   -3.3811   -3.4264 N   0  0  0  0  0  0  0  0  0  0  0  0
    5.0732    0.1869   -3.6547 C   0  0  0  0  0  0  0  0  0  0  0  0
    5.7514    0.0137   -4.8391 C   0  0  0  0  0  0  0  0  0  0  0  0
    6.3859    1.0179   -5.5110 N   0  0  0  0  0  0  0  0  0  0  0  0
    6.2964    2.2195   -4.8580 C   0  0  0  0  0  0  0  0  0  0  0  0
    5.6141    2.4125   -3.6777 C   0  0  0  0  0  0  0  0  0  0  0  0
    4.9511    1.4087   -3.0125 N   0  0  0  0  0  0  0  0  0  0  0  0
    2.1451    0.3409   -2.8273 C   0  0  0  0  0  0  0  0  0  0  0  0
    2.3858    1.0025   -1.4759 C   0  0  0  0  0  0  0  0  0  0  0  0
    2.3251    0.0607    1.7550 H   0  0  0  0  0  0  0  0  0  0  0  0
    0.8241    0.7662    1.0900 H   0  0  0  0  0  0  0  0  0  0  0  0
    2.3412    1.7056    1.0166 H   0  0  0  0  0  0  0  0  0  0  0  0
    1.7792   -1.8072    0.3133 H   0  0  0  0  0  0  0  0  0  0  0  0
    3.4659   -1.4566   -0.0458 H   0  0  0  0  0  0  0  0  0  0  0  0
    1.1954   -2.0802   -2.0147 H   0  0  0  0  0  0  0  0  0  0  0  0
    2.7399   -2.9100   -1.8190 H   0  0  0  0  0  0  0  0  0  0  0  0
    2.5733   -1.4568   -3.9022 H   0  0  0  0  0  0  0  0  0  0  0  0
    4.7337   -0.7863   -1.8375 H   0  0  0  0  0  0  0  0  0  0  0  0
    5.8071   -0.9842   -5.2909 H   0  0  0  0  0  0  0  0  0  0  0  0
    6.8027    3.0716   -5.3277 H   0  0  0  0  0  0  0  0  0  0  0  0
    5.5799    3.4105   -3.2260 H   0  0  0  0  0  0  0  0  0  0  0  0
    1.0642    0.1945   -2.9959 H   0  0  0  0  0  0  0  0  0  0  0  0
    2.5125    1.0379   -3.5859 H   0  0  0  0  0  0  0  0  0  0  0  0
    1.7649    1.8964   -1.3120 H   0  0  0  0  0  0  0  0  0  0  0  0
    3.4528    1.3292   -1.4790 H   0  0  0  0  0  0  0  0  0  0  0  0
  1  2  1  0
  1 17  1  0
  1 18  1  0
  1 19  1  0
  2  3  1  0
  2 16  1  0
  3  4  1  0
  3 20  1  0
  3 21  1  0
  4  5  1  0
  4 22  1  0
  4 23  1  0
  5  6  1  0
  5 15  1  0
  5 24  1  6
  6  7  1  0
  6  9  1  0
  6 25  1  1
  7  8  3  0
  9 10  2  0
  9 14  1  0
 10 11  1  0
 10 26  1  0
 11 12  2  0
 12 13  1  0
 12 27  1  0
 13 14  2  0
 13 28  1  0
 15 16  1  0
 15 29  1  0
 15 30  1  0
 16 31  1  0
 16 32  1  0
M  END

