
     RDKit          3D

 73 76  0  0  0  0  0  0  0  0999 V2000
    8.3041    0.5881   -0.7875 C   0  0  0  0  0  0  0  0  0  0  0  0
    7.7192   -0.4264    0.1743 C   0  0  0  0  0  0  0  0  0  0  0  0
    8.4181   -1.0351    0.9783 O   0  0  0  0  0  0  0  0  0  0  0  0
    6.3720   -0.6287    0.0986 N   0  0  0  0  0  0  0  0  0  0  0  0
    5.6422   -1.4210    1.0887 C   0  0  1  0  0  0  0  0  0  0  0  0
    6.1888   -1.3023    2.0398 H   0  0  0  0  0  0  0  0  0  0  0  0
    4.1978   -0.9224    1.2453 C   0  0  0  0  0  0  0  0  0  0  0  0
    4.0931    0.5320    1.6383 C   0  0  0  0  0  0  0  0  0  0  0  0
    3.7091    1.5271    0.7286 C   0  0  0  0  0  0  0  0  0  0  0  0
    3.6528    2.8620    1.1318 C   0  0  0  0  0  0  0  0  0  0  0  0
    3.9937    3.1597    2.4565 C   0  0  0  0  0  0  0  0  0  0  0  0
    3.9751    4.6131    2.9367 C   0  0  0  0  0  0  0  0  0  0  0  0
    2.6820    4.9727    3.4920 N   0  0  0  0  0  0  0  0  0  0  0  0
    2.3768    4.4838    4.8180 C   0  0  0  0  0  0  0  0  0  0  0  0
    2.8001    5.4799    5.9053 C   0  0  0  0  0  0  0  0  0  0  0  0
    3.7764    5.1300    6.8481 C   0  0  0  0  0  0  0  0  0  0  0  0
    4.0987    6.0554    7.8444 C   0  0  0  0  0  0  0  0  0  0  0  0
    3.4486    7.2898    7.8545 C   0  0  0  0  0  0  0  0  0  0  0  0
    2.4966    7.5458    6.8620 C   0  0  0  0  0  0  0  0  0  0  0  0
    2.1826    6.6598    5.9163 N   0  0  0  0  0  0  0  0  0  0  0  0
    1.6934    5.8345    2.8078 C   0  0  1  0  0  0  0  0  0  0  0  0
    2.2144    6.6812    1.6675 C   0  0  0  0  0  0  0  0  0  0  0  0
    2.0043    8.0508    1.6979 C   0  0  0  0  0  0  0  0  0  0  0  0
    2.3873    8.8663    0.6140 C   0  0  0  0  0  0  0  0  0  0  0  0
    2.9877    8.1891   -0.5031 C   0  0  0  0  0  0  0  0  0  0  0  0
    3.1614    6.8237   -0.4543 C   0  0  0  0  0  0  0  0  0  0  0  0
    2.8043    6.0160    0.5898 N   0  0  0  0  0  0  0  0  0  0  0  0
    0.4282    4.9940    2.4547 C   0  0  0  0  0  0  0  0  0  0  0  0
    0.0311    4.8108    1.1211 C   0  0  0  0  0  0  0  0  0  0  0  0
   -1.1702    4.1467    0.8722 C   0  0  0  0  0  0  0  0  0  0  0  0
   -1.9370    3.6866    1.9493 C   0  0  0  0  0  0  0  0  0  0  0  0
   -1.4545    3.9077    3.2375 C   0  0  0  0  0  0  0  0  0  0  0  0
   -0.3002    4.5410    3.4786 N   0  0  0  0  0  0  0  0  0  0  0  0
    4.3312    2.2242    3.3468 N   0  0  0  0  0  0  0  0  0  0  0  0
    4.3810    0.9525    2.9478 C   0  0  0  0  0  0  0  0  0  0  0  0
    5.6552   -2.9353    0.7477 C   0  0  0  0  0  0  0  0  0  0  0  0
    4.6312   -3.5516    0.5063 O   0  0  0  0  0  0  0  0  0  0  0  0
    6.9015   -3.4881    0.7563 N   0  0  0  0  0  0  0  0  0  0  0  0
    7.1293   -4.8991    0.5265 C   0  0  0  0  0  0  0  0  0  0  0  0
    7.8412   -5.2747   -0.7818 C   0  0  0  0  0  0  0  0  0  0  0  0
    7.8607   -4.3103   -1.7416 N   0  0  0  0  0  0  0  0  0  0  0  0
    8.3262   -6.3802   -0.9243 O   0  0  0  0  0  0  0  0  0  0  0  0
    8.7336    1.4146   -0.2004 H   0  0  0  0  0  0  0  0  0  0  0  0
    7.5752    0.9993   -1.5004 H   0  0  0  0  0  0  0  0  0  0  0  0
    9.1335    0.1195   -1.3374 H   0  0  0  0  0  0  0  0  0  0  0  0
    5.8332   -0.0991   -0.5766 H   0  0  0  0  0  0  0  0  0  0  0  0
    3.7123   -1.5624    1.9967 H   0  0  0  0  0  0  0  0  0  0  0  0
    3.6528   -1.1115    0.3072 H   0  0  0  0  0  0  0  0  0  0  0  0
    3.4356    1.2562   -0.2962 H   0  0  0  0  0  0  0  0  0  0  0  0
    3.3419    3.6826    0.4779 H   0  0  0  0  0  0  0  0  0  0  0  0
    4.1852    5.2830    2.1010 H   0  0  0  0  0  0  0  0  0  0  0  0
    4.7210    4.7128    3.7397 H   0  0  0  0  0  0  0  0  0  0  0  0
    2.9038    3.5314    4.9663 H   0  0  0  0  0  0  0  0  0  0  0  0
    1.2832    4.3484    4.8738 H   0  0  0  0  0  0  0  0  0  0  0  0
    4.2671    4.1553    6.8032 H   0  0  0  0  0  0  0  0  0  0  0  0
    4.8512    5.8136    8.5991 H   0  0  0  0  0  0  0  0  0  0  0  0
    3.6724    8.0441    8.6116 H   0  0  0  0  0  0  0  0  0  0  0  0
    1.9666    8.5038    6.8313 H   0  0  0  0  0  0  0  0  0  0  0  0
    1.3556    6.5007    3.6203 H   0  0  0  0  0  0  0  0  0  0  0  0
    1.5319    8.4998    2.5775 H   0  0  0  0  0  0  0  0  0  0  0  0
    2.2372    9.9449    0.6266 H   0  0  0  0  0  0  0  0  0  0  0  0
    3.3119    8.7417   -1.3886 H   0  0  0  0  0  0  0  0  0  0  0  0
    3.6234    6.3100   -1.3076 H   0  0  0  0  0  0  0  0  0  0  0  0
    0.6696    5.1822    0.3210 H   0  0  0  0  0  0  0  0  0  0  0  0
   -1.5062    3.9927   -0.1565 H   0  0  0  0  0  0  0  0  0  0  0  0
   -2.8850    3.1664    1.7952 H   0  0  0  0  0  0  0  0  0  0  0  0
   -2.0158    3.5633    4.1134 H   0  0  0  0  0  0  0  0  0  0  0  0
    4.6581    0.2143    3.7108 H   0  0  0  0  0  0  0  0  0  0  0  0
    7.6822   -2.8768    1.0095 H   0  0  0  0  0  0  0  0  0  0  0  0
    6.1485   -5.3992    0.5177 H   0  0  0  0  0  0  0  0  0  0  0  0
    7.7217   -5.3444    1.3408 H   0  0  0  0  0  0  0  0  0  0  0  0
    7.4202   -3.4125   -1.5965 H   0  0  0  0  0  0  0  0  0  0  0  0
    8.2745   -4.5314   -2.6391 H   0  0  0  0  0  0  0  0  0  0  0  0
  1  2  1  0
  1 43  1  0
  1 44  1  0
  1 45  1  0
  2  3  2  0
  2  4  1  0
  4  5  1  0
  4 46  1  0
  5  6  1  1
  5  7  1  0
  5 36  1  0
  7  8  1  0
  7 47  1  0
  7 48  1  0
  8  9  2  0
  8 35  1  0
  9 10  1  0
  9 49  1  0
 10 11  2  0
 10 50  1  0
 11 12  1  0
 11 34  1  0
 12 13  1  0
 12 51  1  0
 12 52  1  0
 13 14  1  0
 13 21  1  0
 14 15  1  0
 14 53  1  0
 14 54  1  0
 15 16  2  0
 15 20  1  0
 16 17  1  0
 16 55  1  0
 17 18  2  0
 17 56  1  0
 18 19  1  0
 18 57  1  0
 19 20  2  0
 19 58  1  0
 21 22  1  0
 21 28  1  0
 21 59  1  1
 22 23  2  0
 22 27  1  0
 23 24  1  0
 23 60  1  0
 24 25  2  0
 24 61  1  0
 25 26  1  0
 25 62  1  0
 26 27  2  0
 26 63  1  0
 28 29  2  0
 28 33  1  0
 29 30  1  0
 29 64  1  0
 30 31  2  0
 30 65  1  0
 31 32  1  0
 31 66  1  0
 32 33  2  0
 32 67  1  0
 34 35  2  0
 35 68  1  0
 36 37  2  0
 36 38  1  0
 38 39  1  0
 38 69  1  0
 39 40  1  0
 39 70  1  0
 39 71  1  0
 40 41  1  0
 40 42  2  0
 41 72  1  0
 41 73  1  0
M  END

