
     RDKit          3D

 73 76  0  0  0  0  0  0  0  0999 V2000
    3.5441   -2.7251    0.4370 C   0  0  0  0  0  0  0  0  0  0  0  0
    3.5067   -1.2795    0.4603 N   0  0  0  0  0  0  0  0  0  0  0  0
    3.9018   -0.5153   -0.5827 C   0  0  0  0  0  0  0  0  0  0  0  0
    4.4709   -0.9684   -1.6578 N   0  0  0  0  0  0  0  0  0  0  0  0
    4.9259   -0.2616   -2.7437 C   0  0  0  0  0  0  0  0  0  0  0  0
    4.6753    1.1677   -2.7181 C   0  0  0  0  0  0  0  0  0  0  0  0
    4.9266    2.1837   -3.7777 C   0  0  0  0  0  0  0  0  0  0  0  0
    4.1553    3.1585   -3.8610 O   0  0  0  0  0  0  0  0  0  0  0  0
    5.9885    2.0856   -4.6324 N   0  0  0  0  0  0  0  0  0  0  0  0
    6.9134    0.9706   -4.8109 C   0  0  0  0  0  0  0  0  0  0  0  0
    6.6712    0.3221   -6.1814 C   0  0  0  0  0  0  0  0  0  0  0  0
    6.7161    1.3613   -7.3160 C   0  0  0  0  0  0  0  0  0  0  0  0
    5.8793    2.6391   -7.0723 C   0  0  1  0  0  0  0  0  0  0  0  0
    6.3109    3.4159   -7.7227 H   0  0  0  0  0  0  0  0  0  0  0  0
    4.3256    2.6386   -7.4674 C   0  0  1  0  0  0  0  0  0  0  0  0
    3.6158    3.5338   -6.6231 O   0  0  0  0  0  0  0  0  0  0  0  0
    4.2019    3.3079   -8.8557 C   0  0  0  0  0  0  0  0  0  0  0  0
    2.7633    3.6150   -9.3034 C   0  0  0  0  0  0  0  0  0  0  0  0
    2.3265    5.0559   -9.0135 C   0  0  0  0  0  0  0  0  0  0  0  0
    0.9396    5.3306   -9.3797 N   0  0  0  0  0  0  0  0  0  0  0  0
    0.5583    5.3866  -10.6971 C   0  0  0  0  0  0  0  0  0  0  0  0
    1.3152    5.3114  -11.6353 O   0  0  0  0  0  0  0  0  0  0  0  0
   -0.7781    5.5611  -10.8985 O   0  0  0  0  0  0  0  0  0  0  0  0
    3.6678    1.2100   -7.3978 C   0  0  0  0  0  0  0  0  0  0  0  0
    3.0324    0.9061   -6.1789 C   0  0  0  0  0  0  0  0  0  0  0  0
    2.4870   -0.3441   -5.8967 C   0  0  0  0  0  0  0  0  0  0  0  0
    2.5462   -1.3549   -6.8491 C   0  0  0  0  0  0  0  0  0  0  0  0
    3.1184   -1.0628   -8.0866 C   0  0  0  0  0  0  0  0  0  0  0  0
    3.1056   -2.3596   -9.2747 Cl  0  0  0  0  0  0  0  0  0  0  0  0
    3.6670    0.2018   -8.4147 C   0  0  0  0  0  0  0  0  0  0  0  0
    4.0839    0.3743   -9.8542 C   0  0  0  0  0  0  0  0  0  0  0  0
    5.3466   -0.0080  -10.3368 C   0  0  0  0  0  0  0  0  0  0  0  0
    5.6546    0.1317  -11.6912 C   0  0  0  0  0  0  0  0  0  0  0  0
    4.7067    0.6362  -12.5855 C   0  0  0  0  0  0  0  0  0  0  0  0
    3.4206    0.9777  -12.1433 C   0  0  0  0  0  0  0  0  0  0  0  0
    2.3731    1.5170  -13.0875 C   0  0  0  0  0  0  0  0  0  0  0  0
    3.1281    0.8196  -10.7794 C   0  0  0  0  0  0  0  0  0  0  0  0
    6.1832    3.1266   -5.6429 C   0  0  0  0  0  0  0  0  0  0  0  0
    4.0459    1.6254   -1.5637 C   0  0  0  0  0  0  0  0  0  0  0  0
    3.7452    0.8462   -0.5200 N   0  0  0  0  0  0  0  0  0  0  0  0
    3.4399   -3.1068    1.4619 H   0  0  0  0  0  0  0  0  0  0  0  0
    4.5104   -3.0693    0.0376 H   0  0  0  0  0  0  0  0  0  0  0  0
    2.7431   -3.1648   -0.1857 H   0  0  0  0  0  0  0  0  0  0  0  0
    2.9854   -0.7930    1.1787 H   0  0  0  0  0  0  0  0  0  0  0  0
    5.0910   -0.8315   -3.6567 H   0  0  0  0  0  0  0  0  0  0  0  0
    6.8148    0.2543   -3.9882 H   0  0  0  0  0  0  0  0  0  0  0  0
    7.9426    1.3732   -4.7631 H   0  0  0  0  0  0  0  0  0  0  0  0
    5.6953   -0.1882   -6.1655 H   0  0  0  0  0  0  0  0  0  0  0  0
    7.4355   -0.4533   -6.3598 H   0  0  0  0  0  0  0  0  0  0  0  0
    6.4436    0.8979   -8.2699 H   0  0  0  0  0  0  0  0  0  0  0  0
    7.7656    1.6870   -7.4348 H   0  0  0  0  0  0  0  0  0  0  0  0
    3.7794    3.3959   -5.6676 H   0  0  0  0  0  0  0  0  0  0  0  0
    4.7261    2.7056   -9.6069 H   0  0  0  0  0  0  0  0  0  0  0  0
    4.7593    4.2568   -8.7856 H   0  0  0  0  0  0  0  0  0  0  0  0
    2.0561    2.9263   -8.8125 H   0  0  0  0  0  0  0  0  0  0  0  0
    2.6707    3.4545  -10.3858 H   0  0  0  0  0  0  0  0  0  0  0  0
    2.9649    5.7555   -9.5760 H   0  0  0  0  0  0  0  0  0  0  0  0
    2.4449    5.2766   -7.9441 H   0  0  0  0  0  0  0  0  0  0  0  0
    0.2372    5.1115   -8.6820 H   0  0  0  0  0  0  0  0  0  0  0  0
   -1.2272    5.7902  -10.0733 H   0  0  0  0  0  0  0  0  0  0  0  0
    2.9488    1.6777   -5.4182 H   0  0  0  0  0  0  0  0  0  0  0  0
    2.0143   -0.5257   -4.9285 H   0  0  0  0  0  0  0  0  0  0  0  0
    2.1374   -2.3490   -6.6636 H   0  0  0  0  0  0  0  0  0  0  0  0
    6.0826   -0.4440   -9.6600 H   0  0  0  0  0  0  0  0  0  0  0  0
    6.6423   -0.1640  -12.0548 H   0  0  0  0  0  0  0  0  0  0  0  0
    4.9621    0.7500  -13.6428 H   0  0  0  0  0  0  0  0  0  0  0  0
    2.7189    1.4911  -14.1314 H   0  0  0  0  0  0  0  0  0  0  0  0
    2.1135    2.5619  -12.8446 H   0  0  0  0  0  0  0  0  0  0  0  0
    1.4407    0.9319  -13.0250 H   0  0  0  0  0  0  0  0  0  0  0  0
    2.1232    1.0564  -10.4244 H   0  0  0  0  0  0  0  0  0  0  0  0
    5.6018    4.0107   -5.3701 H   0  0  0  0  0  0  0  0  0  0  0  0
    7.2496    3.4126   -5.6102 H   0  0  0  0  0  0  0  0  0  0  0  0
    3.7933    2.6875   -1.4803 H   0  0  0  0  0  0  0  0  0  0  0  0
  1  2  1  0
  1 41  1  0
  1 42  1  0
  1 43  1  0
  2  3  1  0
  2 44  1  0
  3  4  2  0
  3 40  1  0
  4  5  1  0
  5  6  2  0
  5 45  1  0
  6  7  1  0
  6 39  1  0
  7  8  2  0
  7  9  1  0
  9 10  1  0
  9 38  1  0
 10 11  1  0
 10 46  1  0
 10 47  1  0
 11 12  1  0
 11 48  1  0
 11 49  1  0
 12 13  1  0
 12 50  1  0
 12 51  1  0
 13 14  1  6
 13 15  1  0
 13 38  1  0
 15 16  1  1
 15 17  1  0
 15 24  1  0
 16 52  1  0
 17 18  1  0
 17 53  1  0
 17 54  1  0
 18 19  1  0
 18 55  1  0
 18 56  1  0
 19 20  1  0
 19 57  1  0
 19 58  1  0
 20 21  1  0
 20 59  1  0
 21 22  2  0
 21 23  1  0
 23 60  1  0
 24 25  2  0
 24 30  1  0
 25 26  1  0
 25 61  1  0
 26 27  2  0
 26 62  1  0
 27 28  1  0
 27 63  1  0
 28 29  1  0
 28 30  2  0
 30 31  1  0
 31 32  2  0
 31 37  1  0
 32 33  1  0
 32 64  1  0
 33 34  2  0
 33 65  1  0
 34 35  1  0
 34 66  1  0
 35 36  1  0
 35 37  2  0
 36 67  1  0
 36 68  1  0
 36 69  1  0
 37 70  1  0
 38 71  1  0
 38 72  1  0
 39 40  2  0
 39 73  1  0
M  END

