
     RDKit          3D

 35 36  0  0  0  0  0  0  0  0999 V2000
   -0.0407    0.3501    2.7134 N   0  0  0  0  0  0  0  0  0  0  0  0
    0.9421   -0.2407    2.8978 C   0  0  0  0  0  0  0  0  0  0  0  0
    2.1600   -0.9581    3.1302 C   0  0  0  0  0  0  0  0  0  0  0  0
    2.7844   -0.9169    4.3873 C   0  0  0  0  0  0  0  0  0  0  0  0
    3.9762   -1.5963    4.5964 C   0  0  0  0  0  0  0  0  0  0  0  0
    4.5632   -1.5498    5.7930 F   0  0  0  0  0  0  0  0  0  0  0  0
    4.5600   -2.3280    3.5545 C   0  0  0  0  0  0  0  0  0  0  0  0
    6.0463   -3.1751    3.8397 Cl  0  0  0  0  0  0  0  0  0  0  0  0
    3.9489   -2.3822    2.2982 C   0  0  0  0  0  0  0  0  0  0  0  0
    2.7458   -1.7005    2.0715 C   0  0  0  0  0  0  0  0  0  0  0  0
    2.0772   -1.6796    0.9032 O   0  0  0  0  0  0  0  0  0  0  0  0
    2.6099   -2.2579   -0.3047 C   0  0  2  0  0  0  0  0  0  0  0  0
    3.6704   -1.9607   -0.4000 H   0  0  0  0  0  0  0  0  0  0  0  0
    1.8159   -1.6252   -1.4501 C   0  0  0  0  0  0  0  0  0  0  0  0
    1.9435   -0.0968   -1.5082 C   0  0  0  0  0  0  0  0  0  0  0  0
    1.2199    0.5028   -2.6184 N   0  0  0  0  0  0  0  0  0  0  0  0
    1.7189    0.4125   -3.8975 C   0  0  0  0  0  0  0  0  0  0  0  0
    2.7806   -0.0902   -4.1718 O   0  0  0  0  0  0  0  0  0  0  0  0
    0.9312    0.9548   -4.8619 O   0  0  0  0  0  0  0  0  0  0  0  0
    2.5049   -3.7583   -0.2854 C   0  0  0  0  0  0  0  0  0  0  0  0
    1.3731   -4.5408    0.1404 C   0  0  0  0  0  0  0  0  0  0  0  0
    1.7141   -5.8434   -0.0777 C   0  0  0  0  0  0  0  0  0  0  0  0
    2.9601   -5.9257   -0.6070 O   0  0  0  0  0  0  0  0  0  0  0  0
    3.4335   -4.6629   -0.7264 C   0  0  0  0  0  0  0  0  0  0  0  0
    2.3456   -0.3483    5.2082 H   0  0  0  0  0  0  0  0  0  0  0  0
    4.4130   -2.9815    1.5183 H   0  0  0  0  0  0  0  0  0  0  0  0
    0.7561   -1.9138   -1.3476 H   0  0  0  0  0  0  0  0  0  0  0  0
    2.1865   -2.0515   -2.3944 H   0  0  0  0  0  0  0  0  0  0  0  0
    3.0043    0.1790   -1.6148 H   0  0  0  0  0  0  0  0  0  0  0  0
    1.5723    0.3535   -0.5769 H   0  0  0  0  0  0  0  0  0  0  0  0
    0.2364    0.7029   -2.4768 H   0  0  0  0  0  0  0  0  0  0  0  0
    0.2043    1.4664   -4.4807 H   0  0  0  0  0  0  0  0  0  0  0  0
    0.4408   -4.1712    0.5618 H   0  0  0  0  0  0  0  0  0  0  0  0
    1.2005   -6.7869    0.0886 H   0  0  0  0  0  0  0  0  0  0  0  0
    4.4310   -4.5584   -1.1475 H   0  0  0  0  0  0  0  0  0  0  0  0
  1  2  3  0
  2  3  1  0
  3  4  2  0
  3 10  1  0
  4  5  1  0
  4 25  1  0
  5  6  1  0
  5  7  2  0
  7  8  1  0
  7  9  1  0
  9 10  2  0
  9 26  1  0
 10 11  1  0
 11 12  1  0
 12 13  1  6
 12 14  1  0
 12 20  1  0
 14 15  1  0
 14 27  1  0
 14 28  1  0
 15 16  1  0
 15 29  1  0
 15 30  1  0
 16 17  1  0
 16 31  1  0
 17 18  2  0
 17 19  1  0
 19 32  1  0
 20 21  1  0
 20 24  2  0
 21 22  2  0
 21 33  1  0
 22 23  1  0
 22 34  1  0
 23 24  1  0
 24 35  1  0
M  END

