
     RDKit          3D

 68 69  0  0  0  0  0  0  0  0999 V2000
    4.6066   -3.6887   -3.0861 C   0  0  0  0  0  0  0  0  0  0  0  0
    6.0894   -3.4543   -2.7961 C   0  0  0  0  0  0  0  0  0  0  0  0
    6.7219   -2.3756   -3.6819 C   0  0  0  0  0  0  0  0  0  0  0  0
    8.2064   -2.1415   -3.3893 C   0  0  0  0  0  0  0  0  0  0  0  0
    8.8880   -1.0939   -4.2949 C   0  0  0  0  0  0  0  0  0  0  0  0
    8.3872    0.3211   -4.1009 C   0  0  0  0  0  0  0  0  0  0  0  0
    7.5002    0.8999   -5.0016 C   0  0  0  0  0  0  0  0  0  0  0  0
    7.0117    2.2455   -4.8226 C   0  0  0  0  0  0  0  0  0  0  0  0
    6.1713    2.7667   -5.7091 O   0  0  0  0  0  0  0  0  0  0  0  0
    7.4030    3.0273   -3.7445 C   0  0  0  0  0  0  0  0  0  0  0  0
    8.2954    2.4746   -2.8257 C   0  0  0  0  0  0  0  0  0  0  0  0
    8.8025    3.0860   -1.7978 O   0  0  0  0  0  0  0  0  0  0  0  0
    8.4038    4.4296   -1.4502 C   0  0  0  0  0  0  0  0  0  0  0  0
    7.1393    4.5305   -0.8438 C   0  0  0  0  0  0  0  0  0  0  0  0
    6.2956    3.4345   -0.7513 O   0  0  0  0  0  0  0  0  0  0  0  0
    6.2791    2.7986    0.5137 C   0  0  0  0  0  0  0  0  0  0  0  0
    6.7596    5.8264   -0.4021 C   0  0  0  0  0  0  0  0  0  0  0  0
    7.5922    6.9055   -0.6148 C   0  0  0  0  0  0  0  0  0  0  0  0
    7.1947    8.1447   -0.1452 O   0  0  0  0  0  0  0  0  0  0  0  0
    8.8641    6.8280   -1.3008 C   0  0  0  0  0  0  0  0  0  0  0  0
    9.6449    7.9982   -1.7041 C   0  0  0  0  0  0  0  0  0  0  0  0
   10.6829    7.9551   -2.3635 O   0  0  0  0  0  0  0  0  0  0  0  0
    9.2133    9.2387   -1.3213 O   0  0  0  0  0  0  0  0  0  0  0  0
    9.2924    5.4663   -1.6762 C   0  0  0  0  0  0  0  0  0  0  0  0
   10.6749    5.1750   -2.2323 C   0  0  0  0  0  0  0  0  0  0  0  0
   11.8217    5.3163   -1.2106 C   0  0  0  0  0  0  0  0  0  0  0  0
   11.7870    4.3158   -0.0523 C   0  0  0  0  0  0  0  0  0  0  0  0
   12.9145    4.5161    0.9651 C   0  0  0  0  0  0  0  0  0  0  0  0
   12.8870    3.5149    2.1214 C   0  0  0  0  0  0  0  0  0  0  0  0
    8.7698    1.0988   -2.9917 C   0  0  0  0  0  0  0  0  0  0  0  0
    9.7750    0.6007   -1.9892 C   0  0  0  0  0  0  0  0  0  0  0  0
   10.9347    0.4694   -2.2938 O   0  0  0  0  0  0  0  0  0  0  0  0
    9.2448    0.3376   -0.8048 O   0  0  0  0  0  0  0  0  0  0  0  0
   10.1557   -0.0387    0.2449 C   0  0  0  0  0  0  0  0  0  0  0  0
    4.1871   -4.4685   -2.4315 H   0  0  0  0  0  0  0  0  0  0  0  0
    4.4467   -4.0100   -4.1290 H   0  0  0  0  0  0  0  0  0  0  0  0
    4.0163   -2.7705   -2.9284 H   0  0  0  0  0  0  0  0  0  0  0  0
    6.6463   -4.4000   -2.9246 H   0  0  0  0  0  0  0  0  0  0  0  0
    6.2190   -3.1713   -1.7359 H   0  0  0  0  0  0  0  0  0  0  0  0
    6.1594   -1.4326   -3.5528 H   0  0  0  0  0  0  0  0  0  0  0  0
    6.5999   -2.6599   -4.7444 H   0  0  0  0  0  0  0  0  0  0  0  0
    8.7549   -3.0914   -3.5084 H   0  0  0  0  0  0  0  0  0  0  0  0
    8.3304   -1.8521   -2.3313 H   0  0  0  0  0  0  0  0  0  0  0  0
    8.7430   -1.3766   -5.3499 H   0  0  0  0  0  0  0  0  0  0  0  0
    9.9727   -1.1055   -4.1124 H   0  0  0  0  0  0  0  0  0  0  0  0
    7.1608    0.3317   -5.8717 H   0  0  0  0  0  0  0  0  0  0  0  0
    5.9771    2.1462   -6.4274 H   0  0  0  0  0  0  0  0  0  0  0  0
    7.0349    4.0425   -3.6266 H   0  0  0  0  0  0  0  0  0  0  0  0
    5.5316    1.9909    0.4696 H   0  0  0  0  0  0  0  0  0  0  0  0
    5.9953    3.4982    1.3209 H   0  0  0  0  0  0  0  0  0  0  0  0
    7.2645    2.3649    0.7664 H   0  0  0  0  0  0  0  0  0  0  0  0
    5.8014    5.9570    0.1091 H   0  0  0  0  0  0  0  0  0  0  0  0
    6.3022    8.0821    0.2152 H   0  0  0  0  0  0  0  0  0  0  0  0
    8.3973    9.1622   -0.8015 H   0  0  0  0  0  0  0  0  0  0  0  0
   10.8814    5.8786   -3.0470 H   0  0  0  0  0  0  0  0  0  0  0  0
   10.7033    4.1549   -2.6448 H   0  0  0  0  0  0  0  0  0  0  0  0
   11.8168    6.3477   -0.8270 H   0  0  0  0  0  0  0  0  0  0  0  0
   12.7778    5.2050   -1.7546 H   0  0  0  0  0  0  0  0  0  0  0  0
   11.8424    3.2844   -0.4534 H   0  0  0  0  0  0  0  0  0  0  0  0
   10.8145    4.3893    0.4680 H   0  0  0  0  0  0  0  0  0  0  0  0
   12.8564    5.5435    1.3668 H   0  0  0  0  0  0  0  0  0  0  0  0
   13.8894    4.4536    0.4477 H   0  0  0  0  0  0  0  0  0  0  0  0
   11.9395    3.5782    2.6836 H   0  0  0  0  0  0  0  0  0  0  0  0
   13.7078    3.6901    2.8360 H   0  0  0  0  0  0  0  0  0  0  0  0
   12.9854    2.4772    1.7563 H   0  0  0  0  0  0  0  0  0  0  0  0
   10.8258    0.8014    0.4743 H   0  0  0  0  0  0  0  0  0  0  0  0
   10.7523   -0.9108   -0.0575 H   0  0  0  0  0  0  0  0  0  0  0  0
    9.5293   -0.2773    1.1111 H   0  0  0  0  0  0  0  0  0  0  0  0
  1  2  1  0
  1 35  1  0
  1 36  1  0
  1 37  1  0
  2  3  1  0
  2 38  1  0
  2 39  1  0
  3  4  1  0
  3 40  1  0
  3 41  1  0
  4  5  1  0
  4 42  1  0
  4 43  1  0
  5  6  1  0
  5 44  1  0
  5 45  1  0
  6  7  2  0
  6 30  1  0
  7  8  1  0
  7 46  1  0
  8  9  1  0
  8 10  2  0
  9 47  1  0
 10 11  1  0
 10 48  1  0
 11 12  1  0
 11 30  2  0
 12 13  1  0
 13 14  2  0
 13 24  1  0
 14 15  1  0
 14 17  1  0
 15 16  1  0
 16 49  1  0
 16 50  1  0
 16 51  1  0
 17 18  2  0
 17 52  1  0
 18 19  1  0
 18 20  1  0
 19 53  1  0
 20 21  1  0
 20 24  2  0
 21 22  2  0
 21 23  1  0
 23 54  1  0
 24 25  1  0
 25 26  1  0
 25 55  1  0
 25 56  1  0
 26 27  1  0
 26 57  1  0
 26 58  1  0
 27 28  1  0
 27 59  1  0
 27 60  1  0
 28 29  1  0
 28 61  1  0
 28 62  1  0
 29 63  1  0
 29 64  1  0
 29 65  1  0
 30 31  1  0
 31 32  2  0
 31 33  1  0
 33 34  1  0
 34 66  1  0
 34 67  1  0
 34 68  1  0
M  END

