
     RDKit          3D

 41 41  0  0  0  0  0  0  0  0999 V2000
    1.2727    1.0733    3.4360 C   0  0  0  0  0  0  0  0  0  0  0  0
    2.7799    1.0155    3.1488 C   0  0  1  0  0  0  0  0  0  0  0  0
    3.1206   -0.2523    2.3548 C   0  0  0  0  0  0  0  0  0  0  0  0
    3.2828    2.2933    2.4261 C   0  0  1  0  0  0  0  0  0  0  0  0
    2.8065    2.3374    1.4339 H   0  0  0  0  0  0  0  0  0  0  0  0
    2.9776    3.5927    3.1836 C   0  0  0  0  0  0  0  0  0  0  0  0
    4.7161    2.2104    2.1561 N   0  0  0  0  0  0  0  0  0  0  0  0
    5.2456    2.2570    0.9046 C   0  0  0  0  0  0  0  0  0  0  0  0
    4.5939    2.3074   -0.1255 O   0  0  0  0  0  0  0  0  0  0  0  0
    6.7848    2.2136    0.8543 C   0  0  0  0  0  0  0  0  0  0  0  0
    7.4042    3.4000    1.3771 O   0  0  0  0  0  0  0  0  0  0  0  0
    7.6479    3.4665    2.6989 C   0  0  0  0  0  0  0  0  0  0  0  0
    7.2937    2.6114    3.4894 O   0  0  0  0  0  0  0  0  0  0  0  0
    8.3868    4.6987    3.0387 C   0  0  0  0  0  0  0  0  0  0  0  0
    8.7276    4.9529    4.3189 C   0  0  0  0  0  0  0  0  0  0  0  0
    9.4592    6.1136    4.8248 C   0  0  0  0  0  0  0  0  0  0  0  0
    9.9288    7.1359    3.9709 C   0  0  0  0  0  0  0  0  0  0  0  0
   10.6248    8.2419    4.4413 C   0  0  0  0  0  0  0  0  0  0  0  0
   10.8743    8.3538    5.8149 C   0  0  0  0  0  0  0  0  0  0  0  0
   11.7456    9.7313    6.4280 Cl  0  0  0  0  0  0  0  0  0  0  0  0
   10.4320    7.3714    6.7012 C   0  0  0  0  0  0  0  0  0  0  0  0
    9.7338    6.2675    6.2055 C   0  0  0  0  0  0  0  0  0  0  0  0
    9.2070    5.0739    7.3698 Cl  0  0  0  0  0  0  0  0  0  0  0  0
    0.9319    0.1339    3.8995 H   0  0  0  0  0  0  0  0  0  0  0  0
    0.6989    1.2080    2.5027 H   0  0  0  0  0  0  0  0  0  0  0  0
    1.0018    1.8917    4.1193 H   0  0  0  0  0  0  0  0  0  0  0  0
    3.3078    0.9626    4.1218 H   0  0  0  0  0  0  0  0  0  0  0  0
    2.6271   -0.2438    1.3685 H   0  0  0  0  0  0  0  0  0  0  0  0
    2.7830   -1.1525    2.8927 H   0  0  0  0  0  0  0  0  0  0  0  0
    4.2027   -0.3493    2.1847 H   0  0  0  0  0  0  0  0  0  0  0  0
    1.8962    3.7563    3.2966 H   0  0  0  0  0  0  0  0  0  0  0  0
    3.3914    4.4544    2.6383 H   0  0  0  0  0  0  0  0  0  0  0  0
    3.4260    3.5801    4.1920 H   0  0  0  0  0  0  0  0  0  0  0  0
    5.3665    2.1603    2.9396 H   0  0  0  0  0  0  0  0  0  0  0  0
    7.0698    2.1704   -0.2023 H   0  0  0  0  0  0  0  0  0  0  0  0
    7.1659    1.3343    1.3969 H   0  0  0  0  0  0  0  0  0  0  0  0
    8.6273    5.3600    2.2042 H   0  0  0  0  0  0  0  0  0  0  0  0
    8.4237    4.2091    5.0597 H   0  0  0  0  0  0  0  0  0  0  0  0
    9.7403    7.0559    2.8989 H   0  0  0  0  0  0  0  0  0  0  0  0
   10.9757    9.0159    3.7577 H   0  0  0  0  0  0  0  0  0  0  0  0
   10.6268    7.4604    7.7696 H   0  0  0  0  0  0  0  0  0  0  0  0
  1  2  1  0
  1 24  1  0
  1 25  1  0
  1 26  1  0
  2  3  1  0
  2  4  1  0
  2 27  1  1
  3 28  1  0
  3 29  1  0
  3 30  1  0
  4  5  1  6
  4  6  1  0
  4  7  1  0
  6 31  1  0
  6 32  1  0
  6 33  1  0
  7  8  1  0
  7 34  1  0
  8  9  2  0
  8 10  1  0
 10 11  1  0
 10 35  1  0
 10 36  1  0
 11 12  1  0
 12 13  2  0
 12 14  1  0
 14 15  2  0
 14 37  1  0
 15 16  1  0
 15 38  1  0
 16 17  2  0
 16 22  1  0
 17 18  1  0
 17 39  1  0
 18 19  2  0
 18 40  1  0
 19 20  1  0
 19 21  1  0
 21 22  2  0
 21 41  1  0
 22 23  1  0
M  END

