
     RDKit          3D

 45 47  0  0  0  0  0  0  0  0999 V2000
    1.2441   -0.0528    0.6492 C   0  0  0  0  0  0  0  0  0  0  0  0
    2.7113   -0.2445    0.2341 C   0  0  1  0  0  0  0  0  0  0  0  0
    2.9676   -1.6005   -0.4534 C   0  0  0  0  0  0  0  0  0  0  0  0
    2.4249   -1.6777   -1.8917 C   0  0  2  0  0  0  0  0  0  0  0  0
    2.7385   -3.0274   -2.5437 C   0  0  0  0  0  0  0  0  0  0  0  0
    2.9685   -0.5072   -2.7290 C   0  0  0  0  0  0  0  0  0  0  0  0
    2.6955    0.8531   -2.0891 C   0  0  2  0  0  0  0  0  0  0  0  0
    3.3113    1.8487   -2.9054 O   0  0  0  0  0  0  0  0  0  0  0  0
    2.7336    3.1450   -2.8261 C   0  0  0  0  0  0  0  0  0  0  0  0
    3.5358    4.1365   -3.6263 C   0  0  0  0  0  0  0  0  0  0  0  0
    3.9834    5.3129   -3.0783 C   0  0  0  0  0  0  0  0  0  0  0  0
    4.6520    6.2867   -3.8730 C   0  0  0  0  0  0  0  0  0  0  0  0
    5.1273    7.5221   -3.3633 C   0  0  0  0  0  0  0  0  0  0  0  0
    5.7576    8.4294   -4.1933 C   0  0  0  0  0  0  0  0  0  0  0  0
    5.9316    8.1261   -5.5663 C   0  0  0  0  0  0  0  0  0  0  0  0
    5.4803    6.9299   -6.0894 C   0  0  0  0  0  0  0  0  0  0  0  0
    4.8307    5.9742   -5.2598 C   0  0  0  0  0  0  0  0  0  0  0  0
    4.4140    4.7981   -5.7975 N   0  0  0  0  0  0  0  0  0  0  0  0
    3.8017    3.9145   -5.0336 C   0  0  0  0  0  0  0  0  0  0  0  0
    3.3660    2.7479   -5.6116 N   0  0  0  0  0  0  0  0  0  0  0  0
    3.2386    0.9013   -0.6541 C   0  0  0  0  0  0  0  0  0  0  0  0
    0.9236   -0.8539    1.3350 H   0  0  0  0  0  0  0  0  0  0  0  0
    0.5514   -0.0614   -0.2075 H   0  0  0  0  0  0  0  0  0  0  0  0
    1.1053    0.9073    1.1728 H   0  0  0  0  0  0  0  0  0  0  0  0
    3.3065   -0.2306    1.1641 H   0  0  0  0  0  0  0  0  0  0  0  0
    2.5376   -2.4166    0.1529 H   0  0  0  0  0  0  0  0  0  0  0  0
    4.0579   -1.7818   -0.4860 H   0  0  0  0  0  0  0  0  0  0  0  0
    1.3240   -1.5777   -1.8500 H   0  0  0  0  0  0  0  0  0  0  0  0
    3.8277   -3.1878   -2.6179 H   0  0  0  0  0  0  0  0  0  0  0  0
    2.3230   -3.0883   -3.5628 H   0  0  0  0  0  0  0  0  0  0  0  0
    2.3180   -3.8618   -1.9593 H   0  0  0  0  0  0  0  0  0  0  0  0
    2.5340   -0.5267   -3.7432 H   0  0  0  0  0  0  0  0  0  0  0  0
    4.0622   -0.6141   -2.8496 H   0  0  0  0  0  0  0  0  0  0  0  0
    1.6010    1.0296   -2.0805 H   0  0  0  0  0  0  0  0  0  0  0  0
    2.6749    3.4896   -1.7779 H   0  0  0  0  0  0  0  0  0  0  0  0
    1.6938    3.1032   -3.2160 H   0  0  0  0  0  0  0  0  0  0  0  0
    3.8138    5.5189   -2.0163 H   0  0  0  0  0  0  0  0  0  0  0  0
    4.9857    7.7458   -2.3016 H   0  0  0  0  0  0  0  0  0  0  0  0
    6.1217    9.3798   -3.7955 H   0  0  0  0  0  0  0  0  0  0  0  0
    6.4304    8.8493   -6.2174 H   0  0  0  0  0  0  0  0  0  0  0  0
    5.6084    6.6792   -7.1445 H   0  0  0  0  0  0  0  0  0  0  0  0
    3.7139    2.5910   -6.5512 H   0  0  0  0  0  0  0  0  0  0  0  0
    3.3205    1.9397   -4.9972 H   0  0  0  0  0  0  0  0  0  0  0  0
    3.0082    1.8738   -0.1878 H   0  0  0  0  0  0  0  0  0  0  0  0
    4.3383    0.8377   -0.7250 H   0  0  0  0  0  0  0  0  0  0  0  0
  1  2  1  0
  1 22  1  0
  1 23  1  0
  1 24  1  0
  2  3  1  0
  2 21  1  0
  2 25  1  1
  3  4  1  0
  3 26  1  0
  3 27  1  0
  4  5  1  0
  4  6  1  0
  4 28  1  1
  5 29  1  0
  5 30  1  0
  5 31  1  0
  6  7  1  0
  6 32  1  0
  6 33  1  0
  7  8  1  0
  7 21  1  0
  7 34  1  1
  8  9  1  0
  9 10  1  0
  9 35  1  0
  9 36  1  0
 10 11  2  0
 10 19  1  0
 11 12  1  0
 11 37  1  0
 12 13  2  0
 12 17  1  0
 13 14  1  0
 13 38  1  0
 14 15  2  0
 14 39  1  0
 15 16  1  0
 15 40  1  0
 16 17  2  0
 16 41  1  0
 17 18  1  0
 18 19  2  0
 19 20  1  0
 20 42  1  0
 20 43  1  0
 21 44  1  0
 21 45  1  0
M  END

