
     RDKit          3D

 62 64  0  0  0  0  0  0  0  0999 V2000
    1.6354    0.9217   -0.4972 C   0  0  0  0  0  0  0  0  0  0  0  0
    3.1067    1.3005   -0.2317 C   0  0  1  0  0  0  0  0  0  0  0  0
    3.4853    2.5958   -0.9608 C   0  0  0  0  0  0  0  0  0  0  0  0
    3.3708    1.4249    1.2508 C   0  0  0  0  0  0  0  0  0  0  0  0
    3.3057    2.5468    1.9284 N   0  0  0  0  0  0  0  0  0  0  0  0
    3.5504    2.2433    3.2492 C   0  0  0  0  0  0  0  0  0  0  0  0
    3.5355    3.3109    4.2679 C   0  0  0  0  0  0  0  0  0  0  0  0
    3.4767    3.0573    5.6520 C   0  0  0  0  0  0  0  0  0  0  0  0
    3.4626    4.1013    6.5789 C   0  0  0  0  0  0  0  0  0  0  0  0
    3.5017    5.4154    6.1208 C   0  0  0  0  0  0  0  0  0  0  0  0
    3.4886    6.4232    7.0097 F   0  0  0  0  0  0  0  0  0  0  0  0
    3.5477    5.7055    4.7589 C   0  0  0  0  0  0  0  0  0  0  0  0
    3.5624    4.6546    3.8430 C   0  0  0  0  0  0  0  0  0  0  0  0
    3.7772    0.8761    3.3738 C   0  0  0  0  0  0  0  0  0  0  0  0
    4.1255    0.0185    4.5318 C   0  0  0  0  0  0  0  0  0  0  0  0
    3.1834   -0.8660    5.0903 C   0  0  0  0  0  0  0  0  0  0  0  0
    3.5112   -1.6853    6.1735 C   0  0  0  0  0  0  0  0  0  0  0  0
    4.7960   -1.6093    6.7071 C   0  0  0  0  0  0  0  0  0  0  0  0
    5.1186   -2.3893    7.7489 F   0  0  0  0  0  0  0  0  0  0  0  0
    5.7539   -0.7419    6.1845 C   0  0  0  0  0  0  0  0  0  0  0  0
    5.4138    0.0633    5.0961 C   0  0  0  0  0  0  0  0  0  0  0  0
    3.6422    0.3620    2.0835 N   0  0  0  0  0  0  0  0  0  0  0  0
    3.9130   -1.0216    1.6906 C   0  0  0  0  0  0  0  0  0  0  0  0
    5.3881   -1.3242    1.6272 C   0  0  0  0  0  0  0  0  0  0  0  0
    5.9940   -2.2551    2.3702 C   0  0  0  0  0  0  0  0  0  0  0  0
    7.4777   -2.5186    2.3961 C   0  0  1  0  0  0  0  0  0  0  0  0
    8.0374   -2.0893    3.6344 O   0  0  0  0  0  0  0  0  0  0  0  0
    7.8212   -3.9936    2.1348 C   0  0  0  0  0  0  0  0  0  0  0  0
    7.5020   -4.4723    0.7169 C   0  0  1  0  0  0  0  0  0  0  0  0
    8.2023   -3.7197   -0.2626 O   0  0  0  0  0  0  0  0  0  0  0  0
    7.7619   -5.9732    0.5200 C   0  0  0  0  0  0  0  0  0  0  0  0
    6.7681   -6.8826    1.2307 C   0  0  0  0  0  0  0  0  0  0  0  0
    5.8376   -6.4973    1.8855 O   0  0  0  0  0  0  0  0  0  0  0  0
    6.9866   -8.2080    1.0753 O   0  0  0  0  0  0  0  0  0  0  0  0
    1.4512    0.8013   -1.5770 H   0  0  0  0  0  0  0  0  0  0  0  0
    0.9655    1.7101   -0.1189 H   0  0  0  0  0  0  0  0  0  0  0  0
    1.3558   -0.0205    0.0010 H   0  0  0  0  0  0  0  0  0  0  0  0
    3.7423    0.4908   -0.6311 H   0  0  0  0  0  0  0  0  0  0  0  0
    2.9015    3.4416   -0.5695 H   0  0  0  0  0  0  0  0  0  0  0  0
    3.2885    2.4999   -2.0403 H   0  0  0  0  0  0  0  0  0  0  0  0
    4.5497    2.8380   -0.8216 H   0  0  0  0  0  0  0  0  0  0  0  0
    3.4276    2.0322    6.0191 H   0  0  0  0  0  0  0  0  0  0  0  0
    3.4141    3.9088    7.6526 H   0  0  0  0  0  0  0  0  0  0  0  0
    3.5712    6.7476    4.4333 H   0  0  0  0  0  0  0  0  0  0  0  0
    3.5913    4.8571    2.7718 H   0  0  0  0  0  0  0  0  0  0  0  0
    2.1720   -0.9036    4.6779 H   0  0  0  0  0  0  0  0  0  0  0  0
    2.7857   -2.3714    6.6149 H   0  0  0  0  0  0  0  0  0  0  0  0
    6.7503   -0.7077    6.6297 H   0  0  0  0  0  0  0  0  0  0  0  0
    6.1632    0.7317    4.6684 H   0  0  0  0  0  0  0  0  0  0  0  0
    3.4402   -1.1842    0.7111 H   0  0  0  0  0  0  0  0  0  0  0  0
    3.4171   -1.6987    2.4008 H   0  0  0  0  0  0  0  0  0  0  0  0
    5.9790   -0.7039    0.9416 H   0  0  0  0  0  0  0  0  0  0  0  0
    5.3932   -2.8620    3.0631 H   0  0  0  0  0  0  0  0  0  0  0  0
    7.9658   -1.9042    1.6245 H   0  0  0  0  0  0  0  0  0  0  0  0
    7.5695   -2.5426    4.3502 H   0  0  0  0  0  0  0  0  0  0  0  0
    7.2811   -4.6287    2.8568 H   0  0  0  0  0  0  0  0  0  0  0  0
    8.9016   -4.1227    2.3341 H   0  0  0  0  0  0  0  0  0  0  0  0
    6.4352   -4.2920    0.5120 H   0  0  0  0  0  0  0  0  0  0  0  0
    9.1467   -3.7553   -0.0541 H   0  0  0  0  0  0  0  0  0  0  0  0
    8.7853   -6.2372    0.8488 H   0  0  0  0  0  0  0  0  0  0  0  0
    7.7183   -6.1869   -0.5626 H   0  0  0  0  0  0  0  0  0  0  0  0
    7.7614   -8.3651    0.5167 H   0  0  0  0  0  0  0  0  0  0  0  0
  1  2  1  0
  1 35  1  0
  1 36  1  0
  1 37  1  0
  2  3  1  0
  2  4  1  0
  2 38  1  6
  3 39  1  0
  3 40  1  0
  3 41  1  0
  4  5  2  0
  4 22  1  0
  5  6  1  0
  6  7  1  0
  6 14  2  0
  7  8  2  0
  7 13  1  0
  8  9  1  0
  8 42  1  0
  9 10  2  0
  9 43  1  0
 10 11  1  0
 10 12  1  0
 12 13  2  0
 12 44  1  0
 13 45  1  0
 14 15  1  0
 14 22  1  0
 15 16  2  0
 15 21  1  0
 16 17  1  0
 16 46  1  0
 17 18  2  0
 17 47  1  0
 18 19  1  0
 18 20  1  0
 20 21  2  0
 20 48  1  0
 21 49  1  0
 22 23  1  0
 23 24  1  0
 23 50  1  0
 23 51  1  0
 24 25  2  0
 24 52  1  0
 25 26  1  0
 25 53  1  0
 26 27  1  0
 26 28  1  0
 26 54  1  6
 27 55  1  0
 28 29  1  0
 28 56  1  0
 28 57  1  0
 29 30  1  0
 29 31  1  0
 29 58  1  6
 30 59  1  0
 31 32  1  0
 31 60  1  0
 31 61  1  0
 32 33  2  0
 32 34  1  0
 34 62  1  0
M  END

