
     RDKit          3D

 50 52  0  0  0  0  0  0  0  0999 V2000
    3.3696   -0.6781    1.9414 C   0  0  0  0  0  0  0  0  0  0  0  0
    4.6128   -0.0080    1.3434 C   0  0  0  0  0  0  0  0  0  0  0  0
    4.4639    1.4750    1.1859 C   0  0  0  0  0  0  0  0  0  0  0  0
    3.4793    2.0501    0.4320 N   0  0  0  0  0  0  0  0  0  0  0  0
    3.7034    3.3456    0.5651 C   0  0  0  0  0  0  0  0  0  0  0  0
    4.7742    3.5379    1.3800 N   0  0  0  0  0  0  0  0  0  0  0  0
    5.2731    2.3463    1.7769 N   0  0  0  0  0  0  0  0  0  0  0  0
    5.4043    4.8063    1.7182 C   0  0  0  0  0  0  0  0  0  0  0  0
    4.4083    5.9498    1.4988 C   0  0  2  0  0  0  0  0  0  0  0  0
    3.4526    6.0026    2.5981 N   0  0  0  0  0  0  0  0  0  0  0  0
    2.7948    7.1838    2.8943 C   0  0  0  0  0  0  0  0  0  0  0  0
    3.0547    8.2352    2.3258 O   0  0  0  0  0  0  0  0  0  0  0  0
    1.8320    7.0733    3.8772 N   0  0  0  0  0  0  0  0  0  0  0  0
    1.2006    8.2743    4.4396 C   0  0  1  0  0  0  0  0  0  0  0  0
    0.1897    8.9025    3.4613 C   0  0  0  0  0  0  0  0  0  0  0  0
   -1.0576    8.0346    3.2695 C   0  0  0  0  0  0  0  0  0  0  0  0
   -1.7326    7.6989    4.6074 C   0  0  0  0  0  0  0  0  0  0  0  0
   -0.7409    7.0380    5.5776 C   0  0  2  0  0  0  0  0  0  0  0  0
   -1.2761    6.6264    6.9581 C   0  0  0  0  0  0  0  0  0  0  0  0
   -2.6144    6.7712    7.1735 N   0  0  0  0  0  0  0  0  0  0  0  0
   -0.5279    6.1802    7.8110 O   0  0  0  0  0  0  0  0  0  0  0  0
    0.5139    7.9164    5.7641 C   0  0  0  0  0  0  0  0  0  0  0  0
    3.7356    5.8086    0.1158 C   0  0  0  0  0  0  0  0  0  0  0  0
    2.9351    4.5016    0.0000 C   0  0  0  0  0  0  0  0  0  0  0  0
    3.4971   -1.7710    1.9934 H   0  0  0  0  0  0  0  0  0  0  0  0
    2.4819   -0.4630    1.3271 H   0  0  0  0  0  0  0  0  0  0  0  0
    3.1713   -0.3108    2.9613 H   0  0  0  0  0  0  0  0  0  0  0  0
    4.8181   -0.4450    0.3504 H   0  0  0  0  0  0  0  0  0  0  0  0
    5.4996   -0.1952    1.9675 H   0  0  0  0  0  0  0  0  0  0  0  0
    6.2943    4.9525    1.0834 H   0  0  0  0  0  0  0  0  0  0  0  0
    5.7381    4.7619    2.7647 H   0  0  0  0  0  0  0  0  0  0  0  0
    4.9563    6.9021    1.5229 H   0  0  0  0  0  0  0  0  0  0  0  0
    3.0582    5.1278    2.9255 H   0  0  0  0  0  0  0  0  0  0  0  0
    1.9094    6.2779    4.5023 H   0  0  0  0  0  0  0  0  0  0  0  0
    1.9898    9.0209    4.6368 H   0  0  0  0  0  0  0  0  0  0  0  0
    0.6928    9.0969    2.5036 H   0  0  0  0  0  0  0  0  0  0  0  0
   -0.1032    9.8860    3.8711 H   0  0  0  0  0  0  0  0  0  0  0  0
   -0.7732    7.0950    2.7647 H   0  0  0  0  0  0  0  0  0  0  0  0
   -1.7733    8.5424    2.6022 H   0  0  0  0  0  0  0  0  0  0  0  0
   -2.5966    7.0353    4.4287 H   0  0  0  0  0  0  0  0  0  0  0  0
   -2.1252    8.6286    5.0606 H   0  0  0  0  0  0  0  0  0  0  0  0
   -0.4197    6.0804    5.1257 H   0  0  0  0  0  0  0  0  0  0  0  0
   -3.2480    7.1444    6.4817 H   0  0  0  0  0  0  0  0  0  0  0  0
   -2.9813    6.4890    8.0749 H   0  0  0  0  0  0  0  0  0  0  0  0
    1.2109    7.4103    6.4499 H   0  0  0  0  0  0  0  0  0  0  0  0
    0.2195    8.8570    6.2602 H   0  0  0  0  0  0  0  0  0  0  0  0
    4.5239    5.8355   -0.6564 H   0  0  0  0  0  0  0  0  0  0  0  0
    3.0880    6.6801   -0.0557 H   0  0  0  0  0  0  0  0  0  0  0  0
    2.6660    4.2818   -1.0443 H   0  0  0  0  0  0  0  0  0  0  0  0
    1.9774    4.5897    0.5437 H   0  0  0  0  0  0  0  0  0  0  0  0
  1  2  1  0
  1 25  1  0
  1 26  1  0
  1 27  1  0
  2  3  1  0
  2 28  1  0
  2 29  1  0
  3  4  1  0
  3  7  2  0
  4  5  2  0
  5  6  1  0
  5 24  1  0
  6  7  1  0
  6  8  1  0
  8  9  1  0
  8 30  1  0
  8 31  1  0
  9 10  1  0
  9 23  1  0
  9 32  1  6
 10 11  1  0
 10 33  1  0
 11 12  2  0
 11 13  1  0
 13 14  1  0
 13 34  1  0
 14 15  1  0
 14 22  1  0
 14 35  1  1
 15 16  1  0
 15 36  1  0
 15 37  1  0
 16 17  1  0
 16 38  1  0
 16 39  1  0
 17 18  1  0
 17 40  1  0
 17 41  1  0
 18 19  1  0
 18 22  1  0
 18 42  1  6
 19 20  1  0
 19 21  2  0
 20 43  1  0
 20 44  1  0
 22 45  1  0
 22 46  1  0
 23 24  1  0
 23 47  1  0
 23 48  1  0
 24 49  1  0
 24 50  1  0
M  END

