
     RDKit          3D

 43 43  0  0  0  0  0  0  0  0999 V2000
    8.2280   -0.9086   -5.9493 C   0  0  0  0  0  0  0  0  0  0  0  0
    8.2405   -1.0719   -4.6237 C   0  0  0  0  0  0  0  0  0  0  0  0
    9.4742   -1.3390   -3.8040 C   0  0  0  0  0  0  0  0  0  0  0  0
    9.6676   -0.3439   -2.7613 N   0  0  0  0  0  0  0  0  0  0  0  0
    9.7415   -0.6624   -1.4413 C   0  0  0  0  0  0  0  0  0  0  0  0
    9.6810   -1.7998   -1.0047 O   0  0  0  0  0  0  0  0  0  0  0  0
    9.8707    0.5222   -0.4715 C   0  0  1  0  0  0  0  0  0  0  0  0
    8.8833    0.6662   -0.0047 H   0  0  0  0  0  0  0  0  0  0  0  0
   10.9127    0.2625    0.6066 C   0  0  0  0  0  0  0  0  0  0  0  0
   10.1907    1.7210   -1.2077 O   0  0  0  0  0  0  0  0  0  0  0  0
    9.5995    2.8842   -0.8285 C   0  0  0  0  0  0  0  0  0  0  0  0
    8.7834    2.9526    0.0590 O   0  0  0  0  0  0  0  0  0  0  0  0
   10.0678    4.0448   -1.6381 C   0  0  0  0  0  0  0  0  0  0  0  0
    9.4508    5.2809   -1.4306 C   0  0  0  0  0  0  0  0  0  0  0  0
    9.8610    6.3979   -2.1635 C   0  0  0  0  0  0  0  0  0  0  0  0
   10.8782    6.2779   -3.1112 C   0  0  0  0  0  0  0  0  0  0  0  0
   11.3433    7.3222   -3.8681 O   0  0  0  0  0  0  0  0  0  0  0  0
   10.5022    8.3542   -4.1837 C   0  0  1  0  0  0  0  0  0  0  0  0
   10.4039    9.2302   -3.1512 F   0  0  0  0  0  0  0  0  0  0  0  0
   11.0477    9.0044   -5.2152 F   0  0  0  0  0  0  0  0  0  0  0  0
   11.5249    5.0315   -3.3229 C   0  0  0  0  0  0  0  0  0  0  0  0
   12.5063    5.0215   -4.2467 O   0  0  0  0  0  0  0  0  0  0  0  0
   13.2255    3.8209   -4.4974 C   0  0  0  0  0  0  0  0  0  0  0  0
   14.2673    4.1117   -5.5594 C   0  0  0  0  0  0  0  0  0  0  0  0
   11.1092    3.9252   -2.5789 C   0  0  0  0  0  0  0  0  0  0  0  0
    7.2982   -0.7312   -6.4966 H   0  0  0  0  0  0  0  0  0  0  0  0
    9.1488   -0.9581   -6.5411 H   0  0  0  0  0  0  0  0  0  0  0  0
    7.3023   -1.0141   -4.0578 H   0  0  0  0  0  0  0  0  0  0  0  0
   10.3615   -1.3906   -4.4603 H   0  0  0  0  0  0  0  0  0  0  0  0
    9.3926   -2.3054   -3.2812 H   0  0  0  0  0  0  0  0  0  0  0  0
    9.7373    0.6345   -3.0154 H   0  0  0  0  0  0  0  0  0  0  0  0
   10.6912   -0.6979    1.0916 H   0  0  0  0  0  0  0  0  0  0  0  0
   10.8899    1.0626    1.3604 H   0  0  0  0  0  0  0  0  0  0  0  0
   11.9215    0.2090    0.1686 H   0  0  0  0  0  0  0  0  0  0  0  0
    8.6587    5.3607   -0.6850 H   0  0  0  0  0  0  0  0  0  0  0  0
    9.4085    7.3720   -1.9757 H   0  0  0  0  0  0  0  0  0  0  0  0
    9.4847    8.0076   -4.4428 H   0  0  0  0  0  0  0  0  0  0  0  0
   12.5286    3.0301   -4.8343 H   0  0  0  0  0  0  0  0  0  0  0  0
   13.7007    3.4675   -3.5631 H   0  0  0  0  0  0  0  0  0  0  0  0
   13.7894    4.4575   -6.4884 H   0  0  0  0  0  0  0  0  0  0  0  0
   14.8462    3.2019   -5.7811 H   0  0  0  0  0  0  0  0  0  0  0  0
   14.9618    4.8940   -5.2180 H   0  0  0  0  0  0  0  0  0  0  0  0
   11.5867    2.9572   -2.7135 H   0  0  0  0  0  0  0  0  0  0  0  0
  1  2  2  0
  1 26  1  0
  1 27  1  0
  2  3  1  0
  2 28  1  0
  3  4  1  0
  3 29  1  0
  3 30  1  0
  4  5  1  0
  4 31  1  0
  5  6  2  0
  5  7  1  0
  7  8  1  1
  7  9  1  0
  7 10  1  0
  9 32  1  0
  9 33  1  0
  9 34  1  0
 10 11  1  0
 11 12  2  0
 11 13  1  0
 13 14  2  0
 13 25  1  0
 14 15  1  0
 14 35  1  0
 15 16  2  0
 15 36  1  0
 16 17  1  0
 16 21  1  0
 17 18  1  0
 18 19  1  0
 18 20  1  0
 18 37  1  6
 21 22  1  0
 21 25  2  0
 22 23  1  0
 23 24  1  0
 23 38  1  0
 23 39  1  0
 24 40  1  0
 24 41  1  0
 24 42  1  0
 25 43  1  0
M  END

