
     RDKit          3D

 33 35  0  0  0  0  0  0  0  0999 V2000
    1.2510    0.5217    0.8423 C   0  0  0  0  0  0  0  0  0  0  0  0
    2.6357    0.3041    0.2961 C   0  0  0  0  0  0  0  0  0  0  0  0
    3.2058    1.1192   -0.6947 C   0  0  0  0  0  0  0  0  0  0  0  0
    4.4929    0.8932   -1.1815 C   0  0  0  0  0  0  0  0  0  0  0  0
    5.2570   -0.1725   -0.6781 C   0  0  0  0  0  0  0  0  0  0  0  0
    6.6171   -0.4314   -1.1713 C   0  0  0  0  0  0  0  0  0  0  0  0
    7.1932    0.2950   -2.1017 N   0  0  0  0  0  0  0  0  0  0  0  0
    8.4481   -0.2948   -2.2514 O   0  0  0  0  0  0  0  0  0  0  0  0
    8.5022   -1.3206   -1.3952 C   0  0  0  0  0  0  0  0  0  0  0  0
    9.7303   -2.1781   -1.3216 C   0  0  1  0  0  0  0  0  0  0  0  0
    9.5992   -3.0638   -0.2344 O   0  0  0  0  0  0  0  0  0  0  0  0
    9.9913   -2.9081   -2.6811 C   0  0  0  0  0  0  0  0  0  0  0  0
   11.4945   -2.6721   -2.9462 C   0  0  0  0  0  0  0  0  0  0  0  0
   11.7940   -1.3596   -2.3785 N   0  0  0  0  0  0  0  0  0  0  0  0
   11.0477   -1.3249   -1.1355 C   0  0  0  0  0  0  0  0  0  0  0  0
    7.4123   -1.4601   -0.7042 N   0  0  0  0  0  0  0  0  0  0  0  0
    4.7116   -1.0034    0.3130 C   0  0  0  0  0  0  0  0  0  0  0  0
    3.4263   -0.7500    0.7725 C   0  0  0  0  0  0  0  0  0  0  0  0
    2.9110   -1.5518    1.7217 F   0  0  0  0  0  0  0  0  0  0  0  0
    0.7620    1.3765    0.3542 H   0  0  0  0  0  0  0  0  0  0  0  0
    1.2765    0.7121    1.9280 H   0  0  0  0  0  0  0  0  0  0  0  0
    0.6199   -0.3698    0.6948 H   0  0  0  0  0  0  0  0  0  0  0  0
    2.6188    1.9516   -1.0917 H   0  0  0  0  0  0  0  0  0  0  0  0
    4.9150    1.5387   -1.9530 H   0  0  0  0  0  0  0  0  0  0  0  0
    8.6606   -3.1104    0.0060 H   0  0  0  0  0  0  0  0  0  0  0  0
    9.3939   -2.4598   -3.4904 H   0  0  0  0  0  0  0  0  0  0  0  0
    9.7058   -3.9655   -2.5846 H   0  0  0  0  0  0  0  0  0  0  0  0
   11.7644   -2.7181   -4.0118 H   0  0  0  0  0  0  0  0  0  0  0  0
   12.0945   -3.4341   -2.4189 H   0  0  0  0  0  0  0  0  0  0  0  0
   11.4559   -0.6298   -3.0063 H   0  0  0  0  0  0  0  0  0  0  0  0
   10.8600   -0.2954   -0.7996 H   0  0  0  0  0  0  0  0  0  0  0  0
   11.6014   -1.8482   -0.3381 H   0  0  0  0  0  0  0  0  0  0  0  0
    5.2819   -1.8376    0.7219 H   0  0  0  0  0  0  0  0  0  0  0  0
  1  2  1  0
  1 20  1  0
  1 21  1  0
  1 22  1  0
  2  3  2  0
  2 18  1  0
  3  4  1  0
  3 23  1  0
  4  5  2  0
  4 24  1  0
  5  6  1  0
  5 17  1  0
  6  7  2  0
  6 16  1  0
  7  8  1  0
  8  9  1  0
  9 10  1  0
  9 16  2  0
 10 11  1  1
 10 12  1  0
 10 15  1  0
 11 25  1  0
 12 13  1  0
 12 26  1  0
 12 27  1  0
 13 14  1  0
 13 28  1  0
 13 29  1  0
 14 15  1  0
 14 30  1  0
 15 31  1  0
 15 32  1  0
 17 18  2  0
 17 33  1  0
 18 19  1  0
M  END

