
     RDKit          3D

 39 41  0  0  0  0  0  0  0  0999 V2000
    3.8241   -0.1069    1.7440 C   0  0  0  0  0  0  0  0  0  0  0  0
    2.7859   -0.6459    0.9482 O   0  0  0  0  0  0  0  0  0  0  0  0
    3.1270   -1.5300   -0.1173 C   0  0  0  0  0  0  0  0  0  0  0  0
    4.3834   -1.5183   -0.6844 C   0  0  0  0  0  0  0  0  0  0  0  0
    4.6524   -2.3940   -1.8051 C   0  0  0  0  0  0  0  0  0  0  0  0
    3.5902   -3.1619   -2.3217 C   0  0  0  0  0  0  0  0  0  0  0  0
    2.3235   -3.1476   -1.7604 C   0  0  0  0  0  0  0  0  0  0  0  0
    2.0532   -2.3483   -0.5652 C   0  0  0  0  0  0  0  0  0  0  0  0
    0.7610   -2.4354    0.2202 C   0  0  1  0  0  0  0  0  0  0  0  0
   -0.2517   -1.2935   -0.0633 C   0  0  1  0  0  0  0  0  0  0  0  0
    0.3212   -0.0210    0.2665 N   0  0  0  0  0  0  0  0  0  0  0  0
   -0.7452   -1.3440   -1.5208 C   0  0  0  0  0  0  0  0  0  0  0  0
   -1.4647   -2.6822   -1.7051 C   0  0  0  0  0  0  0  0  0  0  0  0
   -0.9688   -3.8867   -0.8924 C   0  0  0  0  0  0  0  0  0  0  0  0
   -1.5190   -4.9638   -1.0480 O   0  0  0  0  0  0  0  0  0  0  0  0
    0.0172   -3.6938    0.0450 N   0  0  0  0  0  0  0  0  0  0  0  0
    0.3521   -4.8440    0.8620 C   0  0  1  0  0  0  0  0  0  0  0  0
    1.2797   -5.9234    0.3747 C   0  0  0  0  0  0  0  0  0  0  0  0
    1.7111   -5.0032    1.4896 C   0  0  0  0  0  0  0  0  0  0  0  0
    4.5059   -0.9041    2.0804 H   0  0  0  0  0  0  0  0  0  0  0  0
    3.3539    0.3689    2.6176 H   0  0  0  0  0  0  0  0  0  0  0  0
    4.4128    0.6500    1.1966 H   0  0  0  0  0  0  0  0  0  0  0  0
    5.1496   -0.8220   -0.3427 H   0  0  0  0  0  0  0  0  0  0  0  0
    5.6487   -2.4333   -2.2451 H   0  0  0  0  0  0  0  0  0  0  0  0
    3.7666   -3.7917   -3.2003 H   0  0  0  0  0  0  0  0  0  0  0  0
    1.5345   -3.7618   -2.1971 H   0  0  0  0  0  0  0  0  0  0  0  0
    0.9864   -2.3698    1.2997 H   0  0  0  0  0  0  0  0  0  0  0  0
   -1.1391   -1.3892    0.5973 H   0  0  0  0  0  0  0  0  0  0  0  0
    1.3372    0.0031    0.5636 H   0  0  0  0  0  0  0  0  0  0  0  0
   -0.2334    0.8275    0.1738 H   0  0  0  0  0  0  0  0  0  0  0  0
    0.1371   -1.2724   -2.1717 H   0  0  0  0  0  0  0  0  0  0  0  0
   -1.4182   -0.5023   -1.7564 H   0  0  0  0  0  0  0  0  0  0  0  0
   -1.4486   -2.9868   -2.7616 H   0  0  0  0  0  0  0  0  0  0  0  0
   -2.5302   -2.5869   -1.4371 H   0  0  0  0  0  0  0  0  0  0  0  0
   -0.5080   -5.1948    1.4433 H   0  0  0  0  0  0  0  0  0  0  0  0
    1.7582   -5.7661   -0.5943 H   0  0  0  0  0  0  0  0  0  0  0  0
    1.0082   -6.9582    0.5994 H   0  0  0  0  0  0  0  0  0  0  0  0
    2.4864   -4.2741    1.2439 H   0  0  0  0  0  0  0  0  0  0  0  0
    1.7428   -5.3842    2.5146 H   0  0  0  0  0  0  0  0  0  0  0  0
  1  2  1  0
  1 20  1  0
  1 21  1  0
  1 22  1  0
  2  3  1  0
  3  4  2  0
  3  8  1  0
  4  5  1  0
  4 23  1  0
  5  6  2  0
  5 24  1  0
  6  7  1  0
  6 25  1  0
  7  8  2  0
  7 26  1  0
  8  9  1  0
  9 10  1  0
  9 16  1  0
  9 27  1  1
 10 11  1  0
 10 12  1  0
 10 28  1  1
 11 29  1  0
 11 30  1  0
 12 13  1  0
 12 31  1  0
 12 32  1  0
 13 14  1  0
 13 33  1  0
 13 34  1  0
 14 15  2  0
 14 16  1  0
 16 17  1  0
 17 18  1  0
 17 19  1  0
 17 35  1  1
 18 19  1  0
 18 36  1  0
 18 37  1  0
 19 38  1  0
 19 39  1  0
M  END

