
     RDKit          3D

 34 35  0  0  0  0  0  0  0  0999 V2000
    1.3861    0.1073    0.2410 C   0  0  0  0  0  0  0  0  0  0  0  0
    2.6824    0.7991   -0.0645 C   0  0  0  0  0  0  0  0  0  0  0  0
    3.9769    0.2526   -0.0438 C   0  0  0  0  0  0  0  0  0  0  0  0
    4.8299    1.3126   -0.4048 C   0  0  0  0  0  0  0  0  0  0  0  0
    6.2248    1.4792   -0.5032 C   0  0  0  0  0  0  0  0  0  0  0  0
    7.1432    0.7235   -0.2049 O   0  0  0  0  0  0  0  0  0  0  0  0
    6.5220    2.7907   -1.0476 O   0  0  0  0  0  0  0  0  0  0  0  0
    7.3931    3.6025   -0.3181 C   0  0  1  0  0  0  0  0  0  0  0  0
    7.5513    3.1951    0.7014 H   0  0  0  0  0  0  0  0  0  0  0  0
    8.7552    3.7511   -0.9920 C   0  0  0  0  0  0  0  0  0  0  0  0
    6.7153    4.9630   -0.1079 C   0  0  0  0  0  0  0  0  0  0  0  0
    7.2889    5.9857    0.1725 O   0  0  0  0  0  0  0  0  0  0  0  0
    5.2904    4.9029   -0.2440 N   0  0  0  0  0  0  0  0  0  0  0  0
    4.3847    5.8806   -0.0663 C   0  0  0  0  0  0  0  0  0  0  0  0
    4.7363    7.2493    0.2191 C   0  0  0  0  0  0  0  0  0  0  0  0
    3.7459    8.1922    0.3674 C   0  0  0  0  0  0  0  0  0  0  0  0
    2.3961    7.8033    0.2441 C   0  0  0  0  0  0  0  0  0  0  0  0
    1.4588    8.7164    0.3876 F   0  0  0  0  0  0  0  0  0  0  0  0
    2.0154    6.4717   -0.0217 C   0  0  0  0  0  0  0  0  0  0  0  0
    2.9889    5.5156   -0.1746 C   0  0  0  0  0  0  0  0  0  0  0  0
    4.0183    2.4208   -0.6461 O   0  0  0  0  0  0  0  0  0  0  0  0
    2.6606    2.0848   -0.4041 N   0  0  0  0  0  0  0  0  0  0  0  0
    1.2079   -0.7242   -0.4594 H   0  0  0  0  0  0  0  0  0  0  0  0
    0.5487    0.8140    0.1597 H   0  0  0  0  0  0  0  0  0  0  0  0
    1.3916   -0.3157    1.2581 H   0  0  0  0  0  0  0  0  0  0  0  0
    4.2717   -0.7636    0.1966 H   0  0  0  0  0  0  0  0  0  0  0  0
    9.2228    2.7585   -1.0283 H   0  0  0  0  0  0  0  0  0  0  0  0
    9.4029    4.4458   -0.4384 H   0  0  0  0  0  0  0  0  0  0  0  0
    8.6306    4.1181   -2.0224 H   0  0  0  0  0  0  0  0  0  0  0  0
    4.9220    3.9651   -0.5075 H   0  0  0  0  0  0  0  0  0  0  0  0
    5.7876    7.5100    0.3078 H   0  0  0  0  0  0  0  0  0  0  0  0
    3.9783    9.2372    0.5775 H   0  0  0  0  0  0  0  0  0  0  0  0
    0.9559    6.2239   -0.0942 H   0  0  0  0  0  0  0  0  0  0  0  0
    2.7178    4.4728   -0.3563 H   0  0  0  0  0  0  0  0  0  0  0  0
  1  2  1  0
  1 23  1  0
  1 24  1  0
  1 25  1  0
  2  3  1  0
  2 22  2  0
  3  4  2  0
  3 26  1  0
  4  5  1  0
  4 21  1  0
  5  6  2  0
  5  7  1  0
  7  8  1  0
  8  9  1  1
  8 10  1  0
  8 11  1  0
 10 27  1  0
 10 28  1  0
 10 29  1  0
 11 12  2  0
 11 13  1  0
 13 14  1  0
 13 30  1  0
 14 15  2  0
 14 20  1  0
 15 16  1  0
 15 31  1  0
 16 17  2  0
 16 32  1  0
 17 18  1  0
 17 19  1  0
 19 20  2  0
 19 33  1  0
 20 34  1  0
 21 22  1  0
M  END

