
     RDKit          3D

 42 43  0  0  0  0  0  0  0  0999 V2000
    3.8519    0.6859    5.4143 C   0  0  0  0  0  0  0  0  0  0  0  0
    4.2191   -0.6968    5.3991 O   0  0  0  0  0  0  0  0  0  0  0  0
    5.2051   -1.0421    4.5569 C   0  0  0  0  0  0  0  0  0  0  0  0
    5.7687   -0.2611    3.8308 O   0  0  0  0  0  0  0  0  0  0  0  0
    5.5333   -2.5257    4.6748 C   0  0  0  0  0  0  0  0  0  0  0  0
    5.8081   -3.1989    3.3479 C   0  0  0  0  0  0  0  0  0  0  0  0
    6.8812   -2.7948    2.5343 C   0  0  0  0  0  0  0  0  0  0  0  0
    7.1402   -3.4345    1.3204 C   0  0  0  0  0  0  0  0  0  0  0  0
    6.3290   -4.4860    0.8841 C   0  0  0  0  0  0  0  0  0  0  0  0
    5.2531   -4.8743    1.6866 C   0  0  0  0  0  0  0  0  0  0  0  0
    4.1625   -6.1888    1.1266 S   0  0  1  0  0  0  0  0  0  0  0  0
    4.8766   -6.9505    0.1027 O   0  0  0  0  0  0  0  0  0  0  0  0
    3.5691   -6.8093    2.3114 O   0  0  0  0  0  0  0  0  0  0  0  0
    2.9002   -5.4325    0.3330 N   0  0  0  0  0  0  0  0  0  0  0  0
    1.7807   -4.8298    1.0487 C   0  0  0  0  0  0  0  0  0  0  0  0
    0.8033   -4.5208   -0.0984 C   0  0  1  0  0  0  0  0  0  0  0  0
    0.2981   -5.4535   -0.3978 H   0  0  0  0  0  0  0  0  0  0  0  0
   -0.1967   -3.4245    0.2780 C   0  0  0  0  0  0  0  0  0  0  0  0
    0.1525   -2.3394    0.6555 O   0  0  0  0  0  0  0  0  0  0  0  0
   -1.5003   -3.7413    0.1863 O   0  0  0  0  0  0  0  0  0  0  0  0
    1.7634   -4.0784   -1.2293 C   0  0  2  0  0  0  0  0  0  0  0  0
    1.9784   -3.0080   -1.0893 H   0  0  0  0  0  0  0  0  0  0  0  0
    1.1648   -4.2243   -2.6138 C   0  0  1  0  0  0  0  0  0  0  0  0
    0.8250   -5.4997   -2.8839 F   0  0  0  0  0  0  0  0  0  0  0  0
    0.0454   -3.4852   -2.7343 F   0  0  0  0  0  0  0  0  0  0  0  0
    2.0240   -3.8264   -3.5628 F   0  0  0  0  0  0  0  0  0  0  0  0
    3.0507   -4.9121   -1.0286 C   0  0  0  0  0  0  0  0  0  0  0  0
    4.9932   -4.2511    2.9125 C   0  0  0  0  0  0  0  0  0  0  0  0
    3.0519    0.7802    6.1584 H   0  0  0  0  0  0  0  0  0  0  0  0
    3.4926    1.0028    4.4239 H   0  0  0  0  0  0  0  0  0  0  0  0
    4.7113    1.3145    5.6923 H   0  0  0  0  0  0  0  0  0  0  0  0
    4.7223   -3.0303    5.2157 H   0  0  0  0  0  0  0  0  0  0  0  0
    6.4302   -2.5848    5.3180 H   0  0  0  0  0  0  0  0  0  0  0  0
    7.5130   -1.9661    2.8580 H   0  0  0  0  0  0  0  0  0  0  0  0
    7.9892   -3.1166    0.7102 H   0  0  0  0  0  0  0  0  0  0  0  0
    6.5334   -5.0180   -0.0463 H   0  0  0  0  0  0  0  0  0  0  0  0
    2.0506   -3.8858    1.5593 H   0  0  0  0  0  0  0  0  0  0  0  0
    1.3735   -5.5319    1.7881 H   0  0  0  0  0  0  0  0  0  0  0  0
   -1.6135   -4.6329   -0.1722 H   0  0  0  0  0  0  0  0  0  0  0  0
    3.9439   -4.2749   -1.1459 H   0  0  0  0  0  0  0  0  0  0  0  0
    3.1340   -5.7426   -1.7454 H   0  0  0  0  0  0  0  0  0  0  0  0
    4.1690   -4.6106    3.5321 H   0  0  0  0  0  0  0  0  0  0  0  0
  1  2  1  0
  1 29  1  0
  1 30  1  0
  1 31  1  0
  2  3  1  0
  3  4  2  0
  3  5  1  0
  5  6  1  0
  5 32  1  0
  5 33  1  0
  6  7  2  0
  6 28  1  0
  7  8  1  0
  7 34  1  0
  8  9  2  0
  8 35  1  0
  9 10  1  0
  9 36  1  0
 11 10  1  1
 10 28  2  0
 11 12  2  0
 11 13  2  0
 11 14  1  0
 14 15  1  0
 14 27  1  0
 15 16  1  0
 15 37  1  0
 15 38  1  0
 16 17  1  6
 16 18  1  0
 16 21  1  0
 18 19  2  0
 18 20  1  0
 20 39  1  0
 21 22  1  1
 21 23  1  0
 21 27  1  0
 23 24  1  6
 23 25  1  0
 23 26  1  0
 27 40  1  0
 27 41  1  0
 28 42  1  0
M  END

