
     RDKit          3D

 59 62  0  0  0  0  0  0  0  0999 V2000
    2.1070   -0.5000    0.7709 C   0  0  0  0  0  0  0  0  0  0  0  0
    2.9075   -0.0026   -0.2797 O   0  0  0  0  0  0  0  0  0  0  0  0
    3.1845   -0.8070   -1.3337 C   0  0  0  0  0  0  0  0  0  0  0  0
    2.7513   -2.1127   -1.4853 C   0  0  0  0  0  0  0  0  0  0  0  0
    3.1134   -2.9256   -2.5872 C   0  0  0  0  0  0  0  0  0  0  0  0
    3.9247   -2.4013   -3.6217 C   0  0  0  0  0  0  0  0  0  0  0  0
    4.2952   -1.0129   -3.4828 C   0  0  0  0  0  0  0  0  0  0  0  0
    4.9912   -0.4056   -4.4867 O   0  0  0  0  0  0  0  0  0  0  0  0
    4.5655    0.8653   -4.9681 C   0  0  0  0  0  0  0  0  0  0  0  0
    3.9864   -0.2515   -2.3497 C   0  0  0  0  0  0  0  0  0  0  0  0
    4.4309    1.0383   -2.2460 O   0  0  0  0  0  0  0  0  0  0  0  0
    5.5163    1.2416   -1.3496 C   0  0  0  0  0  0  0  0  0  0  0  0
    4.5176   -3.1002   -4.8823 C   0  0  1  0  0  0  0  0  0  0  0  0
    4.0508   -2.3765   -6.2187 C   0  0  0  0  0  0  0  0  0  0  0  0
    5.3523   -1.9833   -6.9310 C   0  0  0  0  0  0  0  0  0  0  0  0
    6.4144   -2.8158   -6.1787 C   0  0  1  0  0  0  0  0  0  0  0  0
    7.7261   -2.4042   -6.2155 O   0  0  0  0  0  0  0  0  0  0  0  0
    8.0279   -1.1089   -5.7244 C   0  0  0  0  0  0  0  0  0  0  0  0
    5.9388   -2.8698   -4.8293 O   0  0  0  0  0  0  0  0  0  0  0  0
    6.3639   -4.2501   -6.7530 C   0  0  0  0  0  0  0  0  0  0  0  0
    6.8426   -4.5464   -7.8197 O   0  0  0  0  0  0  0  0  0  0  0  0
    5.6421   -5.2073   -5.8397 C   0  0  0  0  0  0  0  0  0  0  0  0
    4.3720   -4.6627   -5.1313 C   0  0  1  0  0  0  0  0  0  0  0  0
    4.0665   -5.6128   -3.9606 C   0  0  1  0  0  0  0  0  0  0  0  0
    5.0848   -5.5492   -2.9220 N   0  0  0  0  0  0  0  0  0  0  0  0
    5.5900   -6.5675   -2.1479 C   0  0  0  0  0  0  0  0  0  0  0  0
    5.1424   -7.9836   -2.4840 C   0  0  0  0  0  0  0  0  0  0  0  0
    6.3752   -6.3397   -1.2450 O   0  0  0  0  0  0  0  0  0  0  0  0
    2.6349   -5.4013   -3.4516 C   0  0  0  0  0  0  0  0  0  0  0  0
    2.5247   -4.3234   -2.3938 C   0  0  0  0  0  0  0  0  0  0  0  0
    2.0142    0.3125    1.5037 H   0  0  0  0  0  0  0  0  0  0  0  0
    2.5696   -1.3753    1.2611 H   0  0  0  0  0  0  0  0  0  0  0  0
    1.0987   -0.7808    0.4180 H   0  0  0  0  0  0  0  0  0  0  0  0
    2.1223   -2.5601   -0.7161 H   0  0  0  0  0  0  0  0  0  0  0  0
    4.7629    0.8765   -6.0521 H   0  0  0  0  0  0  0  0  0  0  0  0
    5.1143    1.6866   -4.4884 H   0  0  0  0  0  0  0  0  0  0  0  0
    3.4881    1.0219   -4.8001 H   0  0  0  0  0  0  0  0  0  0  0  0
    5.7841    2.3060   -1.4118 H   0  0  0  0  0  0  0  0  0  0  0  0
    6.3915    0.6310   -1.6343 H   0  0  0  0  0  0  0  0  0  0  0  0
    5.2294    1.0043   -0.3121 H   0  0  0  0  0  0  0  0  0  0  0  0
    3.4160   -1.5097   -6.0052 H   0  0  0  0  0  0  0  0  0  0  0  0
    3.4469   -3.0635   -6.8288 H   0  0  0  0  0  0  0  0  0  0  0  0
    5.5737   -0.9175   -6.8148 H   0  0  0  0  0  0  0  0  0  0  0  0
    5.3653   -2.2254   -8.0028 H   0  0  0  0  0  0  0  0  0  0  0  0
    9.1216   -1.0633   -5.6278 H   0  0  0  0  0  0  0  0  0  0  0  0
    7.5594   -0.9266   -4.7460 H   0  0  0  0  0  0  0  0  0  0  0  0
    7.7085   -0.3176   -6.4270 H   0  0  0  0  0  0  0  0  0  0  0  0
    6.3761   -5.4540   -5.0512 H   0  0  0  0  0  0  0  0  0  0  0  0
    5.4211   -6.1309   -6.3941 H   0  0  0  0  0  0  0  0  0  0  0  0
    3.5224   -4.7961   -5.8158 H   0  0  0  0  0  0  0  0  0  0  0  0
    4.1138   -6.6217   -4.3977 H   0  0  0  0  0  0  0  0  0  0  0  0
    5.4295   -4.6299   -2.6540 H   0  0  0  0  0  0  0  0  0  0  0  0
    4.0480   -8.0966   -2.4336 H   0  0  0  0  0  0  0  0  0  0  0  0
    5.6082   -8.6605   -1.7580 H   0  0  0  0  0  0  0  0  0  0  0  0
    5.4618   -8.2733   -3.4983 H   0  0  0  0  0  0  0  0  0  0  0  0
    2.2528   -6.3361   -3.0084 H   0  0  0  0  0  0  0  0  0  0  0  0
    1.9822   -5.1856   -4.3139 H   0  0  0  0  0  0  0  0  0  0  0  0
    2.9789   -4.7189   -1.4696 H   0  0  0  0  0  0  0  0  0  0  0  0
    1.4568   -4.1909   -2.1533 H   0  0  0  0  0  0  0  0  0  0  0  0
  1  2  1  0
  1 31  1  0
  1 32  1  0
  1 33  1  0
  2  3  1  0
  3  4  2  0
  3 10  1  0
  4  5  1  0
  4 34  1  0
  5  6  2  0
  5 30  1  0
  6  7  1  0
  6 13  1  0
  7  8  1  0
  7 10  2  0
  8  9  1  0
  9 35  1  0
  9 36  1  0
  9 37  1  0
 10 11  1  0
 11 12  1  0
 12 38  1  0
 12 39  1  0
 12 40  1  0
 13 14  1  6
 13 19  1  0
 13 23  1  0
 14 15  1  0
 14 41  1  0
 14 42  1  0
 15 16  1  0
 15 43  1  0
 15 44  1  0
 16 17  1  1
 16 19  1  0
 16 20  1  0
 17 18  1  0
 18 45  1  0
 18 46  1  0
 18 47  1  0
 20 21  2  0
 20 22  1  0
 22 23  1  0
 22 48  1  0
 22 49  1  0
 23 24  1  0
 23 50  1  6
 24 25  1  0
 24 29  1  0
 24 51  1  6
 25 26  1  0
 25 52  1  0
 26 27  1  0
 26 28  2  0
 27 53  1  0
 27 54  1  0
 27 55  1  0
 29 30  1  0
 29 56  1  0
 29 57  1  0
 30 58  1  0
 30 59  1  0
M  END

