
     RDKit          3D

 67 70  0  0  0  0  0  0  0  0999 V2000
    6.2805   -4.7384    4.2154 C   0  0  0  0  0  0  0  0  0  0  0  0
    6.6172   -4.2278    2.8278 C   0  0  0  0  0  0  0  0  0  0  0  0
    7.0422   -2.8762    2.9267 O   0  0  0  0  0  0  0  0  0  0  0  0
    7.4400   -2.2424    1.7210 C   0  0  1  0  0  0  0  0  0  0  0  0
    6.2686   -1.6503    0.9107 C   0  0  0  0  0  0  0  0  0  0  0  0
    5.4095   -0.6694    1.6766 C   0  0  0  0  0  0  0  0  0  0  0  0
    5.7239    0.6955    1.7195 C   0  0  0  0  0  0  0  0  0  0  0  0
    4.9472    1.6069    2.4442 C   0  0  0  0  0  0  0  0  0  0  0  0
    3.8217    1.1574    3.1502 C   0  0  0  0  0  0  0  0  0  0  0  0
    3.0002    1.9551    3.8798 O   0  0  0  0  0  0  0  0  0  0  0  0
    3.2341    3.3515    3.9286 C   0  0  0  0  0  0  0  0  0  0  0  0
    2.1279    3.9544    4.7939 C   0  0  0  0  0  0  0  0  0  0  0  0
    2.3084    5.3782    5.0196 N   0  0  0  0  0  0  0  0  0  0  0  0
    2.0645    6.1950    3.8462 C   0  0  0  0  0  0  0  0  0  0  0  0
    1.7724    5.8765    6.3076 C   0  0  1  0  0  0  0  0  0  0  0  0
    2.4322    7.2099    6.7034 C   0  0  0  0  0  0  0  0  0  0  0  0
    3.7896    7.2135    6.8205 C   0  0  0  0  0  0  0  0  0  0  0  0
    4.5516    8.3870    7.2267 C   0  0  0  0  0  0  0  0  0  0  0  0
    3.9236    9.4551    7.7527 C   0  0  0  0  0  0  0  0  0  0  0  0
    2.4297    9.4241    7.9338 C   0  0  0  0  0  0  0  0  0  0  0  0
    1.7211    8.4784    6.9765 C   0  0  0  0  0  0  0  0  0  0  0  0
    0.5521    8.8545    6.4164 C   0  0  0  0  0  0  0  0  0  0  0  0
   -0.3063    8.0409    5.4790 C   0  0  0  0  0  0  0  0  0  0  0  0
   -0.7083    6.6896    6.0355 C   0  0  0  0  0  0  0  0  0  0  0  0
   -2.0742    6.3988    6.1791 C   0  0  0  0  0  0  0  0  0  0  0  0
   -2.5180    5.2042    6.7484 C   0  0  0  0  0  0  0  0  0  0  0  0
   -1.5804    4.2786    7.2056 C   0  0  0  0  0  0  0  0  0  0  0  0
   -0.2199    4.5588    7.0672 C   0  0  0  0  0  0  0  0  0  0  0  0
    0.2478    5.7452    6.4738 C   0  0  0  0  0  0  0  0  0  0  0  0
    3.4934   -0.2091    3.1170 C   0  0  0  0  0  0  0  0  0  0  0  0
    4.2779   -1.1003    2.3925 C   0  0  0  0  0  0  0  0  0  0  0  0
    8.4721   -1.1563    2.0818 C   0  0  0  0  0  0  0  0  0  0  0  0
    8.9356   -0.4122    1.2576 O   0  0  0  0  0  0  0  0  0  0  0  0
    8.8101   -1.1275    3.3709 O   0  0  0  0  0  0  0  0  0  0  0  0
    5.9409   -5.7845    4.1653 H   0  0  0  0  0  0  0  0  0  0  0  0
    5.4799   -4.1333    4.6676 H   0  0  0  0  0  0  0  0  0  0  0  0
    7.1617   -4.6931    4.8744 H   0  0  0  0  0  0  0  0  0  0  0  0
    5.7330   -4.2994    2.1668 H   0  0  0  0  0  0  0  0  0  0  0  0
    7.4194   -4.8374    2.3660 H   0  0  0  0  0  0  0  0  0  0  0  0
    7.9786   -2.9668    1.0775 H   0  0  0  0  0  0  0  0  0  0  0  0
    5.6500   -2.4821    0.5365 H   0  0  0  0  0  0  0  0  0  0  0  0
    6.7188   -1.1663    0.0310 H   0  0  0  0  0  0  0  0  0  0  0  0
    6.6001    1.0611    1.1781 H   0  0  0  0  0  0  0  0  0  0  0  0
    5.2307    2.6594    2.4497 H   0  0  0  0  0  0  0  0  0  0  0  0
    3.2282    3.7692    2.9058 H   0  0  0  0  0  0  0  0  0  0  0  0
    4.2200    3.5735    4.3768 H   0  0  0  0  0  0  0  0  0  0  0  0
    2.1642    3.4319    5.7615 H   0  0  0  0  0  0  0  0  0  0  0  0
    1.1448    3.7004    4.3417 H   0  0  0  0  0  0  0  0  0  0  0  0
    2.7201    5.8789    3.0203 H   0  0  0  0  0  0  0  0  0  0  0  0
    2.3108    7.2444    4.0627 H   0  0  0  0  0  0  0  0  0  0  0  0
    1.0187    6.1427    3.4719 H   0  0  0  0  0  0  0  0  0  0  0  0
    2.1761    5.1606    7.0409 H   0  0  0  0  0  0  0  0  0  0  0  0
    4.3381    6.3026    6.5648 H   0  0  0  0  0  0  0  0  0  0  0  0
    5.6406    8.3654    7.1299 H   0  0  0  0  0  0  0  0  0  0  0  0
    4.4824   10.3242    8.1126 H   0  0  0  0  0  0  0  0  0  0  0  0
    1.9963   10.4337    7.8565 H   0  0  0  0  0  0  0  0  0  0  0  0
    2.2259    9.0955    8.9775 H   0  0  0  0  0  0  0  0  0  0  0  0
    0.1833    9.8585    6.6550 H   0  0  0  0  0  0  0  0  0  0  0  0
    0.2138    7.9149    4.5153 H   0  0  0  0  0  0  0  0  0  0  0  0
   -1.2178    8.6095    5.2450 H   0  0  0  0  0  0  0  0  0  0  0  0
   -2.8067    7.1386    5.8433 H   0  0  0  0  0  0  0  0  0  0  0  0
   -3.5888    5.0077    6.8465 H   0  0  0  0  0  0  0  0  0  0  0  0
   -1.9018    3.3444    7.6729 H   0  0  0  0  0  0  0  0  0  0  0  0
    0.5081    3.8331    7.4400 H   0  0  0  0  0  0  0  0  0  0  0  0
    2.6108   -0.5440    3.6659 H   0  0  0  0  0  0  0  0  0  0  0  0
    3.9972   -2.1573    2.3735 H   0  0  0  0  0  0  0  0  0  0  0  0
    8.2696   -1.8164    3.8095 H   0  0  0  0  0  0  0  0  0  0  0  0
  1  2  1  0
  1 35  1  0
  1 36  1  0
  1 37  1  0
  2  3  1  0
  2 38  1  0
  2 39  1  0
  3  4  1  0
  4  5  1  0
  4 32  1  0
  4 40  1  6
  5  6  1  0
  5 41  1  0
  5 42  1  0
  6  7  2  0
  6 31  1  0
  7  8  1  0
  7 43  1  0
  8  9  2  0
  8 44  1  0
  9 10  1  0
  9 30  1  0
 10 11  1  0
 11 12  1  0
 11 45  1  0
 11 46  1  0
 12 13  1  0
 12 47  1  0
 12 48  1  0
 13 14  1  0
 13 15  1  0
 14 49  1  0
 14 50  1  0
 14 51  1  0
 15 16  1  0
 15 29  1  0
 15 52  1  1
 16 17  2  0
 16 21  1  0
 17 18  1  0
 17 53  1  0
 18 19  2  0
 18 54  1  0
 19 20  1  0
 19 55  1  0
 20 21  1  0
 20 56  1  0
 20 57  1  0
 21 22  2  0
 22 23  1  0
 22 58  1  0
 23 24  1  0
 23 59  1  0
 23 60  1  0
 24 25  1  0
 24 29  2  0
 25 26  2  0
 25 61  1  0
 26 27  1  0
 26 62  1  0
 27 28  2  0
 27 63  1  0
 28 29  1  0
 28 64  1  0
 30 31  2  0
 30 65  1  0
 31 66  1  0
 32 33  2  0
 32 34  1  0
 34 67  1  0
M  END

