
     RDKit          3D

 64 68  0  0  0  0  0  0  0  0999 V2000
   10.1258   -8.8598    5.0684 C   0  0  0  0  0  0  0  0  0  0  0  0
    9.9284   -8.2708    3.6878 C   0  0  0  0  0  0  0  0  0  0  0  0
    8.6150   -8.1144    3.1899 C   0  0  0  0  0  0  0  0  0  0  0  0
    8.4240   -7.4956    1.8902 C   0  0  0  0  0  0  0  0  0  0  0  0
    9.5365   -7.1357    1.1562 C   0  0  0  0  0  0  0  0  0  0  0  0
    9.2739   -6.5620   -0.1251 O   0  0  0  0  0  0  0  0  0  0  0  0
    9.8947   -5.3631   -0.4441 C   0  0  0  0  0  0  0  0  0  0  0  0
    9.0632   -4.7513   -1.5810 C   0  0  1  0  0  0  0  0  0  0  0  0
    7.6963   -4.8830   -1.3097 O   0  0  0  0  0  0  0  0  0  0  0  0
    9.2959   -3.2419   -1.7403 C   0  0  0  0  0  0  0  0  0  0  0  0
   10.6396   -2.8878   -2.1909 N   0  0  0  0  0  0  0  0  0  0  0  0
   10.8908   -2.8464   -3.5909 C   0  0  0  0  0  0  0  0  0  0  0  0
   10.7293   -1.3379   -4.0938 C   0  0  0  0  0  0  0  0  0  0  0  0
   11.5917   -0.4818   -3.3434 N   0  0  0  0  0  0  0  0  0  0  0  0
   12.8748    0.0884   -3.8595 C   0  0  2  0  0  0  0  0  0  0  0  0
   12.9663   -0.0299   -5.3963 C   0  0  0  0  0  0  0  0  0  0  0  0
   14.2675    0.6231   -5.9102 C   0  0  1  0  0  0  0  0  0  0  0  0
   14.2905    2.1131   -5.5234 C   0  0  0  0  0  0  0  0  0  0  0  0
   14.2216    2.2396   -3.9913 C   0  0  2  0  0  0  0  0  0  0  0  0
   15.4296    1.5248   -3.3547 C   0  0  0  0  0  0  0  0  0  0  0  0
   15.4132    0.0382   -3.7565 C   0  0  2  0  0  0  0  0  0  0  0  0
   15.4814   -0.0909   -5.2884 C   0  0  0  0  0  0  0  0  0  0  0  0
   14.1148   -0.6198   -3.2469 C   0  0  0  0  0  0  0  0  0  0  0  0
   12.9166    1.5951   -3.4869 C   0  0  0  0  0  0  0  0  0  0  0  0
   11.3337   -0.5364   -1.9368 C   0  0  0  0  0  0  0  0  0  0  0  0
   11.4739   -2.0412   -1.4112 C   0  0  0  0  0  0  0  0  0  0  0  0
   10.8594   -7.2809    1.6112 C   0  0  0  0  0  0  0  0  0  0  0  0
   11.0248   -7.8825    2.9280 C   0  0  0  0  0  0  0  0  0  0  0  0
    9.6778   -8.2166    5.8474 H   0  0  0  0  0  0  0  0  0  0  0  0
   11.1924   -8.9933    5.3103 H   0  0  0  0  0  0  0  0  0  0  0  0
    9.6333   -9.8453    5.1570 H   0  0  0  0  0  0  0  0  0  0  0  0
    7.7579   -8.4889    3.7527 H   0  0  0  0  0  0  0  0  0  0  0  0
    7.4278   -7.2269    1.5330 H   0  0  0  0  0  0  0  0  0  0  0  0
   10.9428   -5.4893   -0.7798 H   0  0  0  0  0  0  0  0  0  0  0  0
    9.9192   -4.6894    0.4387 H   0  0  0  0  0  0  0  0  0  0  0  0
    9.3287   -5.2579   -2.5377 H   0  0  0  0  0  0  0  0  0  0  0  0
    7.6499   -5.6493   -0.7058 H   0  0  0  0  0  0  0  0  0  0  0  0
    9.0977   -2.7697   -0.7680 H   0  0  0  0  0  0  0  0  0  0  0  0
    8.5472   -2.8534   -2.4538 H   0  0  0  0  0  0  0  0  0  0  0  0
   10.1768   -3.4800   -4.1312 H   0  0  0  0  0  0  0  0  0  0  0  0
   11.9152   -3.1715   -3.8257 H   0  0  0  0  0  0  0  0  0  0  0  0
    9.6771   -1.0657   -3.9125 H   0  0  0  0  0  0  0  0  0  0  0  0
   10.9234   -1.2877   -5.1681 H   0  0  0  0  0  0  0  0  0  0  0  0
   12.1005    0.4678   -5.8639 H   0  0  0  0  0  0  0  0  0  0  0  0
   12.9464   -1.0893   -5.7026 H   0  0  0  0  0  0  0  0  0  0  0  0
   14.2953    0.5197   -7.0068 H   0  0  0  0  0  0  0  0  0  0  0  0
   13.4428    2.6453   -5.9881 H   0  0  0  0  0  0  0  0  0  0  0  0
   15.2095    2.5887   -5.9034 H   0  0  0  0  0  0  0  0  0  0  0  0
   14.2211    3.3034   -3.7036 H   0  0  0  0  0  0  0  0  0  0  0  0
   15.3999    1.6267   -2.2560 H   0  0  0  0  0  0  0  0  0  0  0  0
   16.3684    1.9951   -3.6897 H   0  0  0  0  0  0  0  0  0  0  0  0
   16.2687   -0.4839   -3.2990 H   0  0  0  0  0  0  0  0  0  0  0  0
   15.4943   -1.1543   -5.5823 H   0  0  0  0  0  0  0  0  0  0  0  0
   16.4157    0.3547   -5.6672 H   0  0  0  0  0  0  0  0  0  0  0  0
   14.0910   -0.5657   -2.1475 H   0  0  0  0  0  0  0  0  0  0  0  0
   14.1076   -1.6878   -3.5227 H   0  0  0  0  0  0  0  0  0  0  0  0
   12.0407    2.0984   -3.9284 H   0  0  0  0  0  0  0  0  0  0  0  0
   12.8433    1.7184   -2.3939 H   0  0  0  0  0  0  0  0  0  0  0  0
   10.2984   -0.2278   -1.7250 H   0  0  0  0  0  0  0  0  0  0  0  0
   12.0133    0.1066   -1.3695 H   0  0  0  0  0  0  0  0  0  0  0  0
   11.1899   -2.0809   -0.3542 H   0  0  0  0  0  0  0  0  0  0  0  0
   12.5304   -2.3240   -1.5142 H   0  0  0  0  0  0  0  0  0  0  0  0
   11.6992   -7.2730    0.9166 H   0  0  0  0  0  0  0  0  0  0  0  0
   12.0314   -7.9813    3.3449 H   0  0  0  0  0  0  0  0  0  0  0  0
  1  2  1  0
  1 29  1  0
  1 30  1  0
  1 31  1  0
  2  3  2  0
  2 28  1  0
  3  4  1  0
  3 32  1  0
  4  5  2  0
  4 33  1  0
  5  6  1  0
  5 27  1  0
  6  7  1  0
  7  8  1  0
  7 34  1  0
  7 35  1  0
  8  9  1  0
  8 10  1  0
  8 36  1  6
  9 37  1  0
 10 11  1  0
 10 38  1  0
 10 39  1  0
 11 12  1  0
 11 26  1  0
 12 13  1  0
 12 40  1  0
 12 41  1  0
 13 14  1  0
 13 42  1  0
 13 43  1  0
 15 14  1  1
 14 25  1  0
 15 16  1  0
 15 23  1  0
 15 24  1  0
 16 17  1  0
 16 44  1  0
 16 45  1  0
 17 18  1  0
 17 22  1  0
 17 46  1  6
 18 19  1  0
 18 47  1  0
 18 48  1  0
 19 20  1  0
 19 24  1  0
 19 49  1  6
 20 21  1  0
 20 50  1  0
 20 51  1  0
 21 22  1  0
 21 23  1  0
 21 52  1  1
 22 53  1  0
 22 54  1  0
 23 55  1  0
 23 56  1  0
 24 57  1  0
 24 58  1  0
 25 26  1  0
 25 59  1  0
 25 60  1  0
 26 61  1  0
 26 62  1  0
 27 28  2  0
 27 63  1  0
 28 64  1  0
M  END

