
     RDKit          3D

 48 49  0  0  0  0  0  0  0  0999 V2000
    1.1374    2.2590   -0.1854 C   0  0  0  0  0  0  0  0  0  0  0  0
    2.6080    2.2005   -0.5964 C   0  0  0  0  0  0  0  0  0  0  0  0
    3.0395    0.8672   -1.0297 N   0  0  0  0  0  0  0  0  0  0  0  0
    2.4510    0.3992   -2.2585 C   0  0  0  0  0  0  0  0  0  0  0  0
    2.8631    1.1285   -3.5505 C   0  0  0  0  0  0  0  0  0  0  0  0
    3.6748    2.0109   -3.6153 O   0  0  0  0  0  0  0  0  0  0  0  0
    2.2413    0.6877   -4.6702 O   0  0  0  0  0  0  0  0  0  0  0  0
    4.4726    0.6403   -0.9249 C   0  0  1  0  0  0  0  0  0  0  0  0
    5.1006    0.6839    0.4922 C   0  0  0  0  0  0  0  0  0  0  0  0
    5.9533   -0.5641    0.1256 C   0  0  2  0  0  0  0  0  0  0  0  0
    7.3198   -0.2779   -0.2527 N   0  0  0  0  0  0  0  0  0  0  0  0
    8.3842   -1.0160    0.2166 C   0  0  0  0  0  0  0  0  0  0  0  0
    8.2558   -1.9389    1.0029 O   0  0  0  0  0  0  0  0  0  0  0  0
    9.6015   -0.5797   -0.3063 N   0  0  0  0  0  0  0  0  0  0  0  0
   10.8781   -1.0719   -0.0591 C   0  0  0  0  0  0  0  0  0  0  0  0
   11.0858   -2.1472    0.8288 C   0  0  0  0  0  0  0  0  0  0  0  0
   12.3705   -2.6148    1.0559 C   0  0  0  0  0  0  0  0  0  0  0  0
   12.5327   -3.6367    1.9036 F   0  0  0  0  0  0  0  0  0  0  0  0
   13.4981   -2.0675    0.4411 C   0  0  0  0  0  0  0  0  0  0  0  0
   13.2956   -1.0106   -0.4324 C   0  0  0  0  0  0  0  0  0  0  0  0
   12.0146   -0.4892   -0.7074 C   0  0  0  0  0  0  0  0  0  0  0  0
   12.0133    0.6413   -1.6756 C   0  0  0  0  0  0  0  0  0  0  0  0
   13.0024    1.0980   -2.1987 O   0  0  0  0  0  0  0  0  0  0  0  0
   10.7781    1.1574   -1.9542 O   0  0  0  0  0  0  0  0  0  0  0  0
   10.7487    2.2443   -2.8853 C   0  0  0  0  0  0  0  0  0  0  0  0
    4.9762   -0.8207   -1.0600 C   0  0  0  0  0  0  0  0  0  0  0  0
    0.8989    3.2533    0.2239 H   0  0  0  0  0  0  0  0  0  0  0  0
    0.9159    1.5031    0.5846 H   0  0  0  0  0  0  0  0  0  0  0  0
    0.4529    2.0917   -1.0329 H   0  0  0  0  0  0  0  0  0  0  0  0
    3.2216    2.4639    0.2789 H   0  0  0  0  0  0  0  0  0  0  0  0
    2.8203    2.9710   -1.3646 H   0  0  0  0  0  0  0  0  0  0  0  0
    1.3494    0.4433   -2.1879 H   0  0  0  0  0  0  0  0  0  0  0  0
    2.6933   -0.6698   -2.4029 H   0  0  0  0  0  0  0  0  0  0  0  0
    1.6162   -0.0214   -4.4591 H   0  0  0  0  0  0  0  0  0  0  0  0
    5.0405    1.3002   -1.6115 H   0  0  0  0  0  0  0  0  0  0  0  0
    4.3543    0.4393    1.2631 H   0  0  0  0  0  0  0  0  0  0  0  0
    5.6507    1.5896    0.7900 H   0  0  0  0  0  0  0  0  0  0  0  0
    6.0086   -1.3562    0.8817 H   0  0  0  0  0  0  0  0  0  0  0  0
    7.4849    0.4636   -0.9231 H   0  0  0  0  0  0  0  0  0  0  0  0
    9.5869    0.1985   -0.9593 H   0  0  0  0  0  0  0  0  0  0  0  0
   10.2372   -2.6046    1.3305 H   0  0  0  0  0  0  0  0  0  0  0  0
   14.4898   -2.4695    0.6519 H   0  0  0  0  0  0  0  0  0  0  0  0
   14.1404   -0.5449   -0.9418 H   0  0  0  0  0  0  0  0  0  0  0  0
    9.6939    2.5266   -2.9935 H   0  0  0  0  0  0  0  0  0  0  0  0
   11.1637    1.9353   -3.8555 H   0  0  0  0  0  0  0  0  0  0  0  0
   11.3361    3.0940   -2.5082 H   0  0  0  0  0  0  0  0  0  0  0  0
    4.1946   -1.5401   -0.7705 H   0  0  0  0  0  0  0  0  0  0  0  0
    5.4255   -1.1304   -2.0160 H   0  0  0  0  0  0  0  0  0  0  0  0
  1  2  1  0
  1 27  1  0
  1 28  1  0
  1 29  1  0
  2  3  1  0
  2 30  1  0
  2 31  1  0
  3  4  1  0
  3  8  1  0
  4  5  1  0
  4 32  1  0
  4 33  1  0
  5  6  2  0
  5  7  1  0
  7 34  1  0
  8  9  1  0
  8 26  1  0
  8 35  1  6
  9 10  1  0
  9 36  1  0
  9 37  1  0
 10 11  1  0
 10 26  1  0
 10 38  1  1
 11 12  1  0
 11 39  1  0
 12 13  2  0
 12 14  1  0
 14 15  1  0
 14 40  1  0
 15 16  2  0
 15 21  1  0
 16 17  1  0
 16 41  1  0
 17 18  1  0
 17 19  2  0
 19 20  1  0
 19 42  1  0
 20 21  2  0
 20 43  1  0
 21 22  1  0
 22 23  2  0
 22 24  1  0
 24 25  1  0
 25 44  1  0
 25 45  1  0
 25 46  1  0
 26 47  1  0
 26 48  1  0
M  END

