
     RDKit          3D

 54 57  0  0  0  0  0  0  0  0999 V2000
    0.5555    0.8898   -0.9476 O   0  0  0  0  0  0  0  0  0  0  0  0
    1.7484    0.7337   -0.6578 C   0  0  0  0  0  0  0  0  0  0  0  0
    2.2150   -0.6756   -0.2551 C   0  0  0  0  0  0  0  0  0  0  0  0
    2.9049   -1.4861   -1.3601 C   0  0  2  0  0  0  0  0  0  0  0  0
    2.0778   -1.5165   -2.7050 C   0  0  0  0  0  0  0  0  0  0  0  0
    0.8105   -2.3635   -2.5589 C   0  0  0  0  0  0  0  0  0  0  0  0
    1.1183   -3.7920   -2.0989 C   0  0  0  0  0  0  0  0  0  0  0  0
    1.9419   -3.8012   -0.8060 C   0  0  0  0  0  0  0  0  0  0  0  0
    3.2072   -2.9433   -0.9251 C   0  0  0  0  0  0  0  0  0  0  0  0
    4.1700   -0.8548   -1.7059 N   0  0  0  0  0  0  0  0  0  0  0  0
    4.4353    0.5713   -1.8326 C   0  0  2  0  0  0  0  0  0  0  0  0
    3.7224    0.9027   -2.6133 H   0  0  0  0  0  0  0  0  0  0  0  0
    5.8601    0.7981   -2.3522 C   0  0  0  0  0  0  0  0  0  0  0  0
    6.0298    2.2545   -2.8286 C   0  0  0  0  0  0  0  0  0  0  0  0
    5.2511    3.2436   -1.9281 C   0  0  0  0  0  0  0  0  0  0  0  0
    5.0163    2.6474   -0.5407 C   0  0  0  0  0  0  0  0  0  0  0  0
    4.0785    1.4168   -0.5605 C   0  0  1  0  0  0  0  0  0  0  0  0
    4.3274    0.8252    0.3405 H   0  0  0  0  0  0  0  0  0  0  0  0
    2.6592    1.7630   -0.6135 N   0  0  0  0  0  0  0  0  0  0  0  0
    2.1354    3.0438    0.1160 C   0  0  0  0  0  0  0  0  0  0  0  0
    2.3866    3.0209    1.5724 C   0  0  0  0  0  0  0  0  0  0  0  0
    1.8139    1.9761    2.4033 C   0  0  0  0  0  0  0  0  0  0  0  0
    2.1734    1.8764    3.7420 C   0  0  0  0  0  0  0  0  0  0  0  0
    3.0820    2.7732    4.3440 C   0  0  0  0  0  0  0  0  0  0  0  0
    3.6159    3.8344    3.5470 C   0  0  0  0  0  0  0  0  0  0  0  0
    3.2774    3.9375    2.2074 C   0  0  0  0  0  0  0  0  0  0  0  0
    1.3030   -1.2042    0.0408 H   0  0  0  0  0  0  0  0  0  0  0  0
    2.8700   -0.6523    0.6286 H   0  0  0  0  0  0  0  0  0  0  0  0
    2.7180   -1.9367   -3.5016 H   0  0  0  0  0  0  0  0  0  0  0  0
    1.8183   -0.4848   -2.9809 H   0  0  0  0  0  0  0  0  0  0  0  0
    0.1245   -1.8574   -1.8628 H   0  0  0  0  0  0  0  0  0  0  0  0
    0.3029   -2.3755   -3.5372 H   0  0  0  0  0  0  0  0  0  0  0  0
    1.6796   -4.3196   -2.8925 H   0  0  0  0  0  0  0  0  0  0  0  0
    0.1830   -4.3552   -1.9545 H   0  0  0  0  0  0  0  0  0  0  0  0
    2.2373   -4.8295   -0.5441 H   0  0  0  0  0  0  0  0  0  0  0  0
    1.3261   -3.4379    0.0325 H   0  0  0  0  0  0  0  0  0  0  0  0
    3.8792   -3.4052   -1.6737 H   0  0  0  0  0  0  0  0  0  0  0  0
    3.7517   -2.9283    0.0328 H   0  0  0  0  0  0  0  0  0  0  0  0
    4.8564   -1.4705   -2.1453 H   0  0  0  0  0  0  0  0  0  0  0  0
    6.0774    0.1037   -3.1823 H   0  0  0  0  0  0  0  0  0  0  0  0
    6.5777    0.5672   -1.5486 H   0  0  0  0  0  0  0  0  0  0  0  0
    5.6909    2.3406   -3.8739 H   0  0  0  0  0  0  0  0  0  0  0  0
    7.1041    2.4950   -2.8333 H   0  0  0  0  0  0  0  0  0  0  0  0
    4.2788    3.4932   -2.3860 H   0  0  0  0  0  0  0  0  0  0  0  0
    5.8040    4.1915   -1.8470 H   0  0  0  0  0  0  0  0  0  0  0  0
    4.6211    3.3746    0.1702 H   0  0  0  0  0  0  0  0  0  0  0  0
    5.9802    2.3328   -0.1080 H   0  0  0  0  0  0  0  0  0  0  0  0
    1.0734    3.0060   -0.1705 H   0  0  0  0  0  0  0  0  0  0  0  0
    2.5849    3.9204   -0.3720 H   0  0  0  0  0  0  0  0  0  0  0  0
    1.0195    1.3413    2.0028 H   0  0  0  0  0  0  0  0  0  0  0  0
    1.7096    1.0989    4.3605 H   0  0  0  0  0  0  0  0  0  0  0  0
    3.3352    2.6851    5.4022 H   0  0  0  0  0  0  0  0  0  0  0  0
    4.2744    4.5813    3.9999 H   0  0  0  0  0  0  0  0  0  0  0  0
    3.6708    4.7795    1.6224 H   0  0  0  0  0  0  0  0  0  0  0  0
  1  2  2  0
  2  3  1  0
  2 19  1  0
  3  4  1  0
  3 27  1  0
  3 28  1  0
  4  5  1  0
  4  9  1  0
  4 10  1  6
  5  6  1  0
  5 29  1  0
  5 30  1  0
  6  7  1  0
  6 31  1  0
  6 32  1  0
  7  8  1  0
  7 33  1  0
  7 34  1  0
  8  9  1  0
  8 35  1  0
  8 36  1  0
  9 37  1  0
  9 38  1  0
 10 11  1  0
 10 39  1  0
 11 12  1  6
 11 13  1  0
 11 17  1  0
 13 14  1  0
 13 40  1  0
 13 41  1  0
 14 15  1  0
 14 42  1  0
 14 43  1  0
 15 16  1  0
 15 44  1  0
 15 45  1  0
 16 17  1  0
 16 46  1  0
 16 47  1  0
 17 18  1  1
 17 19  1  0
 19 20  1  0
 20 21  1  0
 20 48  1  0
 20 49  1  0
 21 22  2  0
 21 26  1  0
 22 23  1  0
 22 50  1  0
 23 24  2  0
 23 51  1  0
 24 25  1  0
 24 52  1  0
 25 26  2  0
 25 53  1  0
 26 54  1  0
M  END

