
     RDKit          3D

 54 55  0  0  0  0  0  0  0  0999 V2000
    6.2191   -1.8681   -1.1704 C   0  0  0  0  0  0  0  0  0  0  0  0
    5.3236   -0.7549   -0.9572 N   0  0  0  0  0  0  0  0  0  0  0  0
    5.8566    0.5806   -1.0781 C   0  0  0  0  0  0  0  0  0  0  0  0
    4.0130   -0.9462   -0.3539 C   0  0  0  0  0  0  0  0  0  0  0  0
    3.8950   -0.5107    1.1342 C   0  0  0  0  0  0  0  0  0  0  0  0
    4.4318   -1.4206    2.1086 N   0  0  0  0  0  0  0  0  0  0  0  0
    3.4328   -2.1189    3.0061 C   0  0  0  0  0  0  0  0  0  0  0  0
    3.8412   -3.4159    3.6170 C   0  0  0  0  0  0  0  0  0  0  0  0
    3.7221   -3.6463    5.0165 C   0  0  0  0  0  0  0  0  0  0  0  0
    3.9472   -4.8866    5.5867 C   0  0  0  0  0  0  0  0  0  0  0  0
    4.3016   -6.0214    4.7598 C   0  0  0  0  0  0  0  0  0  0  0  0
    4.3565   -5.8006    3.3752 C   0  0  0  0  0  0  0  0  0  0  0  0
    4.7531   -7.1831    2.3295 Cl  0  0  0  0  0  0  0  0  0  0  0  0
    4.1368   -4.5747    2.7718 C   0  0  0  0  0  0  0  0  0  0  0  0
    5.7927   -1.2774    2.3665 C   0  0  0  0  0  0  0  0  0  0  0  0
    6.4887   -0.5983    1.5847 O   0  0  0  0  0  0  0  0  0  0  0  0
    6.2879   -1.8862    3.4623 N   0  0  0  0  0  0  0  0  0  0  0  0
    7.7217   -1.9261    3.7567 C   0  0  1  0  0  0  0  0  0  0  0  0
    7.9822   -1.7512    5.2624 C   0  0  0  0  0  0  0  0  0  0  0  0
    7.5685   -2.9753    6.0938 C   0  0  0  0  0  0  0  0  0  0  0  0
    8.1670   -4.2945    5.5746 C   0  0  2  0  0  0  0  0  0  0  0  0
    9.6530   -4.4327    5.9058 C   0  0  0  0  0  0  0  0  0  0  0  0
   10.3613   -3.5559    6.3264 O   0  0  0  0  0  0  0  0  0  0  0  0
   10.1775   -5.6636    5.6772 O   0  0  0  0  0  0  0  0  0  0  0  0
    7.9144   -4.4566    4.0533 C   0  0  0  0  0  0  0  0  0  0  0  0
    8.3773   -3.2308    3.2567 C   0  0  0  0  0  0  0  0  0  0  0  0
    6.7527   -1.7334   -2.1218 H   0  0  0  0  0  0  0  0  0  0  0  0
    5.6645   -2.8106   -1.1721 H   0  0  0  0  0  0  0  0  0  0  0  0
    6.9429   -1.8581   -0.3412 H   0  0  0  0  0  0  0  0  0  0  0  0
    6.4033    0.7820   -0.1401 H   0  0  0  0  0  0  0  0  0  0  0  0
    5.0443    1.3060   -1.2012 H   0  0  0  0  0  0  0  0  0  0  0  0
    6.5489    0.6319   -1.9281 H   0  0  0  0  0  0  0  0  0  0  0  0
    3.7345   -2.0000   -0.4603 H   0  0  0  0  0  0  0  0  0  0  0  0
    3.3138   -0.3377   -0.9496 H   0  0  0  0  0  0  0  0  0  0  0  0
    2.8138   -0.4246    1.3078 H   0  0  0  0  0  0  0  0  0  0  0  0
    4.3243    0.4980    1.2407 H   0  0  0  0  0  0  0  0  0  0  0  0
    2.5445   -2.2416    2.3517 H   0  0  0  0  0  0  0  0  0  0  0  0
    3.1380   -1.4105    3.8027 H   0  0  0  0  0  0  0  0  0  0  0  0
    3.4419   -2.8079    5.6651 H   0  0  0  0  0  0  0  0  0  0  0  0
    3.8488   -5.0167    6.6667 H   0  0  0  0  0  0  0  0  0  0  0  0
    4.4640   -7.0133    5.1762 H   0  0  0  0  0  0  0  0  0  0  0  0
    4.1898   -4.4881    1.6878 H   0  0  0  0  0  0  0  0  0  0  0  0
    5.6468   -2.5440    3.9218 H   0  0  0  0  0  0  0  0  0  0  0  0
    8.1617   -1.0796    3.2126 H   0  0  0  0  0  0  0  0  0  0  0  0
    7.4515   -0.8547    5.6226 H   0  0  0  0  0  0  0  0  0  0  0  0
    9.0590   -1.5740    5.4059 H   0  0  0  0  0  0  0  0  0  0  0  0
    6.4718   -3.0869    6.0914 H   0  0  0  0  0  0  0  0  0  0  0  0
    7.8678   -2.8224    7.1421 H   0  0  0  0  0  0  0  0  0  0  0  0
    7.6542   -5.1309    6.0833 H   0  0  0  0  0  0  0  0  0  0  0  0
    9.4865   -6.2681    5.3698 H   0  0  0  0  0  0  0  0  0  0  0  0
    6.8379   -4.6244    3.8996 H   0  0  0  0  0  0  0  0  0  0  0  0
    8.4115   -5.3628    3.6675 H   0  0  0  0  0  0  0  0  0  0  0  0
    8.1508   -3.3732    2.1873 H   0  0  0  0  0  0  0  0  0  0  0  0
    9.4730   -3.1168    3.3353 H   0  0  0  0  0  0  0  0  0  0  0  0
  1  2  1  0
  1 27  1  0
  1 28  1  0
  1 29  1  0
  2  3  1  0
  2  4  1  0
  3 30  1  0
  3 31  1  0
  3 32  1  0
  4  5  1  0
  4 33  1  0
  4 34  1  0
  5  6  1  0
  5 35  1  0
  5 36  1  0
  6  7  1  0
  6 15  1  0
  7  8  1  0
  7 37  1  0
  7 38  1  0
  8  9  2  0
  8 14  1  0
  9 10  1  0
  9 39  1  0
 10 11  2  0
 10 40  1  0
 11 12  1  0
 11 41  1  0
 12 13  1  0
 12 14  2  0
 14 42  1  0
 15 16  2  0
 15 17  1  0
 17 18  1  0
 17 43  1  0
 18 19  1  0
 18 26  1  0
 18 44  1  1
 19 20  1  0
 19 45  1  0
 19 46  1  0
 20 21  1  0
 20 47  1  0
 20 48  1  0
 21 22  1  0
 21 25  1  0
 21 49  1  6
 22 23  2  0
 22 24  1  0
 24 50  1  0
 25 26  1  0
 25 51  1  0
 25 52  1  0
 26 53  1  0
 26 54  1  0
M  END

