
     RDKit          3D

 67 70  0  0  0  0  0  0  0  0999 V2000
    3.7384   -0.9717    2.0575 C   0  0  0  0  0  0  0  0  0  0  0  0
    3.2911    0.3668    2.0889 O   0  0  0  0  0  0  0  0  0  0  0  0
    3.9558    1.3186    1.3968 C   0  0  0  0  0  0  0  0  0  0  0  0
    5.1091    1.0750    0.6313 C   0  0  0  0  0  0  0  0  0  0  0  0
    5.7365    2.1211   -0.0414 C   0  0  0  0  0  0  0  0  0  0  0  0
    5.2452    3.4376    0.0251 C   0  0  0  0  0  0  0  0  0  0  0  0
    5.8658    4.5722   -0.6562 C   0  0  0  0  0  0  0  0  0  0  0  0
    6.9567    4.5818   -1.4484 C   0  0  0  0  0  0  0  0  0  0  0  0
    7.4253    5.8596   -2.0524 C   0  0  0  0  0  0  0  0  0  0  0  0
    6.8808    6.9357   -1.8597 O   0  0  0  0  0  0  0  0  0  0  0  0
    8.5421    5.7246   -2.8560 N   0  0  0  0  0  0  0  0  0  0  0  0
    9.1706    6.7867   -3.5356 C   0  0  0  0  0  0  0  0  0  0  0  0
    9.6910    7.9981   -2.9907 C   0  0  0  0  0  0  0  0  0  0  0  0
    9.6651    8.4619   -1.5706 C   0  0  0  0  0  0  0  0  0  0  0  0
   10.2369    8.7310   -3.9558 N   0  0  0  0  0  0  0  0  0  0  0  0
   10.0967    8.0202   -5.0959 N   0  0  0  0  0  0  0  0  0  0  0  0
   10.5498    8.5958   -6.3479 C   0  0  0  0  0  0  0  0  0  0  0  0
    9.4772    9.3567   -7.1114 C   0  0  0  0  0  0  0  0  0  0  0  0
    8.6259   10.2556   -6.4500 C   0  0  0  0  0  0  0  0  0  0  0  0
    7.6687   10.9738   -7.1627 C   0  0  0  0  0  0  0  0  0  0  0  0
    7.5429   10.8141   -8.5486 C   0  0  0  0  0  0  0  0  0  0  0  0
    6.3381   11.7291   -9.4079 Cl  0  0  0  0  0  0  0  0  0  0  0  0
    8.3897    9.9169   -9.2173 C   0  0  0  0  0  0  0  0  0  0  0  0
    8.2692    9.6731  -10.9375 Cl  0  0  0  0  0  0  0  0  0  0  0  0
    9.3464    9.1945   -8.4940 C   0  0  0  0  0  0  0  0  0  0  0  0
    9.4388    6.8400   -4.9005 C   0  0  0  0  0  0  0  0  0  0  0  0
    9.1167    5.8689   -5.9877 C   0  0  0  0  0  0  0  0  0  0  0  0
    4.0858    3.6546    0.7996 C   0  0  0  0  0  0  0  0  0  0  0  0
    3.4369    2.6316    1.4856 C   0  0  0  0  0  0  0  0  0  0  0  0
    2.1877    2.8927    2.2838 C   0  0  0  0  0  0  0  0  0  0  0  0
    1.0614    2.4851    1.5173 O   0  0  0  0  0  0  0  0  0  0  0  0
   -0.1775    2.5434    2.0728 C   0  0  0  0  0  0  0  0  0  0  0  0
   -0.4506    3.0170    3.3635 C   0  0  0  0  0  0  0  0  0  0  0  0
   -1.7770    3.0266    3.8164 C   0  0  0  0  0  0  0  0  0  0  0  0
   -2.8188    2.5785    3.0092 C   0  0  0  0  0  0  0  0  0  0  0  0
   -2.5535    2.1039    1.7093 C   0  0  0  0  0  0  0  0  0  0  0  0
   -3.6797    1.6212    0.8266 C   0  0  0  0  0  0  0  0  0  0  0  0
   -1.2330    2.0930    1.2580 C   0  0  0  0  0  0  0  0  0  0  0  0
    3.0395   -1.5471    2.6785 H   0  0  0  0  0  0  0  0  0  0  0  0
    4.7566   -1.0733    2.4736 H   0  0  0  0  0  0  0  0  0  0  0  0
    3.7274   -1.3814    1.0322 H   0  0  0  0  0  0  0  0  0  0  0  0
    5.5227    0.0695    0.5560 H   0  0  0  0  0  0  0  0  0  0  0  0
    6.6313    1.9013   -0.6282 H   0  0  0  0  0  0  0  0  0  0  0  0
    5.3871    5.5471   -0.5082 H   0  0  0  0  0  0  0  0  0  0  0  0
    7.5147    3.6657   -1.6684 H   0  0  0  0  0  0  0  0  0  0  0  0
    8.9268    4.7941   -2.9711 H   0  0  0  0  0  0  0  0  0  0  0  0
   10.1085    7.7088   -0.8980 H   0  0  0  0  0  0  0  0  0  0  0  0
    8.6264    8.6160   -1.2400 H   0  0  0  0  0  0  0  0  0  0  0  0
   10.2308    9.3987   -1.4719 H   0  0  0  0  0  0  0  0  0  0  0  0
   10.9683    7.7994   -6.9813 H   0  0  0  0  0  0  0  0  0  0  0  0
   11.3752    9.2739   -6.0818 H   0  0  0  0  0  0  0  0  0  0  0  0
    8.7176   10.3880   -5.3697 H   0  0  0  0  0  0  0  0  0  0  0  0
    7.0033   11.6725   -6.6527 H   0  0  0  0  0  0  0  0  0  0  0  0
    9.9915    8.5003   -9.0373 H   0  0  0  0  0  0  0  0  0  0  0  0
    8.5634    6.3467   -6.8124 H   0  0  0  0  0  0  0  0  0  0  0  0
    8.4836    5.0648   -5.5862 H   0  0  0  0  0  0  0  0  0  0  0  0
   10.0197    5.4029   -6.4199 H   0  0  0  0  0  0  0  0  0  0  0  0
    3.6795    4.6681    0.8645 H   0  0  0  0  0  0  0  0  0  0  0  0
    2.1130    3.9687    2.5241 H   0  0  0  0  0  0  0  0  0  0  0  0
    2.2187    2.3287    3.2319 H   0  0  0  0  0  0  0  0  0  0  0  0
    0.3441    3.3766    4.0166 H   0  0  0  0  0  0  0  0  0  0  0  0
   -1.9904    3.3955    4.8235 H   0  0  0  0  0  0  0  0  0  0  0  0
   -3.8465    2.5953    3.3822 H   0  0  0  0  0  0  0  0  0  0  0  0
   -4.2378    0.7990    1.3051 H   0  0  0  0  0  0  0  0  0  0  0  0
   -3.3089    1.2584   -0.1433 H   0  0  0  0  0  0  0  0  0  0  0  0
   -4.4056    2.4281    0.6295 H   0  0  0  0  0  0  0  0  0  0  0  0
   -0.9839    1.7336    0.2567 H   0  0  0  0  0  0  0  0  0  0  0  0
  1  2  1  0
  1 39  1  0
  1 40  1  0
  1 41  1  0
  2  3  1  0
  3  4  2  0
  3 29  1  0
  4  5  1  0
  4 42  1  0
  5  6  2  0
  5 43  1  0
  6  7  1  0
  6 28  1  0
  7  8  2  0
  7 44  1  0
  8  9  1  0
  8 45  1  0
  9 10  2  0
  9 11  1  0
 11 12  1  0
 11 46  1  0
 12 13  1  0
 12 26  2  0
 13 14  1  0
 13 15  2  0
 14 47  1  0
 14 48  1  0
 14 49  1  0
 15 16  1  0
 16 17  1  0
 16 26  1  0
 17 18  1  0
 17 50  1  0
 17 51  1  0
 18 19  2  0
 18 25  1  0
 19 20  1  0
 19 52  1  0
 20 21  2  0
 20 53  1  0
 21 22  1  0
 21 23  1  0
 23 24  1  0
 23 25  2  0
 25 54  1  0
 26 27  1  0
 27 55  1  0
 27 56  1  0
 27 57  1  0
 28 29  2  0
 28 58  1  0
 29 30  1  0
 30 31  1  0
 30 59  1  0
 30 60  1  0
 31 32  1  0
 32 33  2  0
 32 38  1  0
 33 34  1  0
 33 61  1  0
 34 35  2  0
 34 62  1  0
 35 36  1  0
 35 63  1  0
 36 37  1  0
 36 38  2  0
 37 64  1  0
 37 65  1  0
 37 66  1  0
 38 67  1  0
M  END

