
     RDKit          3D

 42 44  0  0  0  0  0  0  0  0999 V2000
    0.9494   -0.0637    1.0043 C   0  0  0  0  0  0  0  0  0  0  0  0
    2.3643   -0.0702    0.4769 C   0  0  0  0  0  0  0  0  0  0  0  0
    2.8810    1.0747   -0.1420 C   0  0  0  0  0  0  0  0  0  0  0  0
    4.1966    1.1162   -0.6091 C   0  0  0  0  0  0  0  0  0  0  0  0
    5.0042   -0.0077   -0.4771 C   0  0  0  0  0  0  0  0  0  0  0  0
    4.4985   -1.1841    0.1018 C   0  0  0  0  0  0  0  0  0  0  0  0
    5.4708   -2.3415    0.1520 C   0  0  0  0  0  0  0  0  0  0  0  0
    6.6175   -2.1963    0.5385 O   0  0  0  0  0  0  0  0  0  0  0  0
    4.9722   -3.5317   -0.3384 N   0  0  0  0  0  0  0  0  0  0  0  0
    5.6066   -4.7832   -0.4538 C   0  0  0  0  0  0  0  0  0  0  0  0
    6.9292   -5.0209   -0.0390 C   0  0  0  0  0  0  0  0  0  0  0  0
    7.4637   -6.3016   -0.1909 C   0  0  0  0  0  0  0  0  0  0  0  0
    6.7173   -7.3438   -0.7410 C   0  0  0  0  0  0  0  0  0  0  0  0
    5.3910   -7.1210   -1.1562 C   0  0  0  0  0  0  0  0  0  0  0  0
    4.5817   -8.2394   -1.7114 C   0  0  0  0  0  0  0  0  0  0  0  0
    4.6751   -9.5400   -1.1781 C   0  0  0  0  0  0  0  0  0  0  0  0
    3.9447  -10.6139   -1.6872 C   0  0  0  0  0  0  0  0  0  0  0  0
    3.0910  -10.3894   -2.7646 C   0  0  0  0  0  0  0  0  0  0  0  0
    2.3788  -11.4053   -3.2664 F   0  0  0  0  0  0  0  0  0  0  0  0
    2.9559   -9.1261   -3.3329 C   0  0  0  0  0  0  0  0  0  0  0  0
    3.7003   -8.0795   -2.7955 C   0  0  0  0  0  0  0  0  0  0  0  0
    3.5609   -6.8715   -3.3665 F   0  0  0  0  0  0  0  0  0  0  0  0
    4.8545   -5.8336   -1.0072 C   0  0  0  0  0  0  0  0  0  0  0  0
    3.1823   -1.2208    0.6149 C   0  0  0  0  0  0  0  0  0  0  0  0
    2.6284   -2.4173    1.3594 C   0  0  0  0  0  0  0  0  0  0  0  0
    0.4386    0.8776    0.7560 H   0  0  0  0  0  0  0  0  0  0  0  0
    0.9210   -0.1778    2.1018 H   0  0  0  0  0  0  0  0  0  0  0  0
    0.3507   -0.8911    0.5882 H   0  0  0  0  0  0  0  0  0  0  0  0
    2.2413    1.9556   -0.2467 H   0  0  0  0  0  0  0  0  0  0  0  0
    4.5874    2.0247   -1.0738 H   0  0  0  0  0  0  0  0  0  0  0  0
    6.0396    0.0015   -0.8234 H   0  0  0  0  0  0  0  0  0  0  0  0
    4.0321   -3.4926   -0.7137 H   0  0  0  0  0  0  0  0  0  0  0  0
    7.5122   -4.2068    0.3840 H   0  0  0  0  0  0  0  0  0  0  0  0
    8.4952   -6.4842    0.1212 H   0  0  0  0  0  0  0  0  0  0  0  0
    7.1706   -8.3285   -0.8714 H   0  0  0  0  0  0  0  0  0  0  0  0
    5.3309   -9.7056   -0.3212 H   0  0  0  0  0  0  0  0  0  0  0  0
    4.0208  -11.6140   -1.2577 H   0  0  0  0  0  0  0  0  0  0  0  0
    2.2919   -8.9548   -4.1808 H   0  0  0  0  0  0  0  0  0  0  0  0
    3.8267   -5.6406   -1.3208 H   0  0  0  0  0  0  0  0  0  0  0  0
    3.3972   -3.1586    1.6078 H   0  0  0  0  0  0  0  0  0  0  0  0
    1.8369   -2.9315    0.7847 H   0  0  0  0  0  0  0  0  0  0  0  0
    2.1604   -2.1015    2.3049 H   0  0  0  0  0  0  0  0  0  0  0  0
  1  2  1  0
  1 26  1  0
  1 27  1  0
  1 28  1  0
  2  3  2  0
  2 24  1  0
  3  4  1  0
  3 29  1  0
  4  5  2  0
  4 30  1  0
  5  6  1  0
  5 31  1  0
  6  7  1  0
  6 24  2  0
  7  8  2  0
  7  9  1  0
  9 10  1  0
  9 32  1  0
 10 11  2  0
 10 23  1  0
 11 12  1  0
 11 33  1  0
 12 13  2  0
 12 34  1  0
 13 14  1  0
 13 35  1  0
 14 15  1  0
 14 23  2  0
 15 16  2  0
 15 21  1  0
 16 17  1  0
 16 36  1  0
 17 18  2  0
 17 37  1  0
 18 19  1  0
 18 20  1  0
 20 21  2  0
 20 38  1  0
 21 22  1  0
 23 39  1  0
 24 25  1  0
 25 40  1  0
 25 41  1  0
 25 42  1  0
M  END

