
     RDKit          3D

 43 45  0  0  0  0  0  0  0  0999 V2000
    1.2235   -0.3856    1.3894 C   0  0  0  0  0  0  0  0  0  0  0  0
    2.4745    0.2288    1.1467 O   0  0  0  0  0  0  0  0  0  0  0  0
    3.5514   -0.3921    1.6750 C   0  0  0  0  0  0  0  0  0  0  0  0
    3.4674   -1.4799    2.2590 O   0  0  0  0  0  0  0  0  0  0  0  0
    4.8241    0.2675    1.4596 C   0  0  0  0  0  0  0  0  0  0  0  0
    5.1225    1.5081    0.8412 C   0  0  0  0  0  0  0  0  0  0  0  0
    4.1886    2.6093    0.6802 C   0  0  0  0  0  0  0  0  0  0  0  0
    4.4561    3.6233   -0.4417 C   0  0  0  0  0  0  0  0  0  0  0  0
    3.2324    2.8299    1.4406 O   0  0  0  0  0  0  0  0  0  0  0  0
    6.5943    1.8684    0.6350 C   0  0  1  0  0  0  0  0  0  0  0  0
    6.7474    2.4202   -0.3061 H   0  0  0  0  0  0  0  0  0  0  0  0
    7.1656    2.7612    1.7723 C   0  0  0  0  0  0  0  0  0  0  0  0
    8.5569    3.1134    1.7841 C   0  0  0  0  0  0  0  0  0  0  0  0
    9.1027    3.9132    2.7738 C   0  0  0  0  0  0  0  0  0  0  0  0
    8.2840    4.3986    3.8092 C   0  0  0  0  0  0  0  0  0  0  0  0
    8.6718    5.1695    4.8076 O   0  0  0  0  0  0  0  0  0  0  0  0
   10.0336    5.5814    4.9257 C   0  0  0  0  0  0  0  0  0  0  0  0
    6.8711    4.0446    3.8069 C   0  0  0  0  0  0  0  0  0  0  0  0
    6.1582    4.5441    4.7885 O   0  0  0  0  0  0  0  0  0  0  0  0
    4.7483    4.2654    4.8947 C   0  0  0  0  0  0  0  0  0  0  0  0
    6.3511    3.2195    2.7851 C   0  0  0  0  0  0  0  0  0  0  0  0
    7.3894    0.6576    0.5562 N   0  0  0  0  0  0  0  0  0  0  0  0
    8.6677    0.5459    0.0848 N   0  0  0  0  0  0  0  0  0  0  0  0
    9.0600   -0.6322    0.4107 N   0  0  0  0  0  0  0  0  0  0  0  0
    8.1174   -1.3193    1.0994 N   0  0  0  0  0  0  0  0  0  0  0  0
    7.0834   -0.4921    1.1979 C   0  0  0  0  0  0  0  0  0  0  0  0
    5.8866   -0.6182    1.8026 N   0  0  0  0  0  0  0  0  0  0  0  0
    0.4678    0.2671    0.9326 H   0  0  0  0  0  0  0  0  0  0  0  0
    1.0272   -0.4870    2.4691 H   0  0  0  0  0  0  0  0  0  0  0  0
    1.1733   -1.3923    0.9429 H   0  0  0  0  0  0  0  0  0  0  0  0
    4.9311    3.1873   -1.3346 H   0  0  0  0  0  0  0  0  0  0  0  0
    5.0870    4.4607   -0.0917 H   0  0  0  0  0  0  0  0  0  0  0  0
    3.4865    4.0554   -0.7268 H   0  0  0  0  0  0  0  0  0  0  0  0
    9.1967    2.7178    0.9928 H   0  0  0  0  0  0  0  0  0  0  0  0
   10.1634    4.1593    2.7478 H   0  0  0  0  0  0  0  0  0  0  0  0
   10.0824    6.2015    5.8276 H   0  0  0  0  0  0  0  0  0  0  0  0
   10.3374    6.1734    4.0485 H   0  0  0  0  0  0  0  0  0  0  0  0
   10.6940    4.7076    5.0370 H   0  0  0  0  0  0  0  0  0  0  0  0
    4.3959    4.8679    5.7383 H   0  0  0  0  0  0  0  0  0  0  0  0
    4.5945    3.1963    5.0981 H   0  0  0  0  0  0  0  0  0  0  0  0
    4.2245    4.5445    3.9706 H   0  0  0  0  0  0  0  0  0  0  0  0
    5.2974    2.9491    2.7909 H   0  0  0  0  0  0  0  0  0  0  0  0
    5.5708   -1.5279    2.1354 H   0  0  0  0  0  0  0  0  0  0  0  0
  1  2  1  0
  1 28  1  0
  1 29  1  0
  1 30  1  0
  2  3  1  0
  3  4  2  0
  3  5  1  0
  5  6  2  0
  5 27  1  0
  6  7  1  0
  6 10  1  0
  7  8  1  0
  7  9  2  0
  8 31  1  0
  8 32  1  0
  8 33  1  0
 10 11  1  6
 10 12  1  0
 10 22  1  0
 12 13  2  0
 12 21  1  0
 13 14  1  0
 13 34  1  0
 14 15  2  0
 14 35  1  0
 15 16  1  0
 15 18  1  0
 16 17  1  0
 17 36  1  0
 17 37  1  0
 17 38  1  0
 18 19  1  0
 18 21  2  0
 19 20  1  0
 20 39  1  0
 20 40  1  0
 20 41  1  0
 21 42  1  0
 22 23  1  0
 22 26  1  0
 23 24  2  0
 24 25  1  0
 25 26  2  0
 26 27  1  0
 27 43  1  0
M  END

