
     RDKit          3D

 43 43  0  0  0  0  0  0  0  0999 V2000
    1.2122   -1.4081   -2.9952 C   0  0  0  0  0  0  0  0  0  0  0  0
    2.6134   -1.0710   -2.4848 C   0  0  0  0  0  0  0  0  0  0  0  0
    2.6640    0.2047   -1.6388 C   0  0  0  0  0  0  0  0  0  0  0  0
    4.0773    0.5926   -1.1793 C   0  0  0  0  0  0  0  0  0  0  0  0
    4.9739    0.9275   -2.2801 N   0  0  0  0  0  0  0  0  0  0  0  0
    4.7169    2.2162   -2.9204 C   0  0  0  0  0  0  0  0  0  0  0  0
    4.7576    2.1632   -4.4517 C   0  0  0  0  0  0  0  0  0  0  0  0
    4.5665    3.5324   -5.1102 C   0  0  0  0  0  0  0  0  0  0  0  0
    4.5854    3.4805   -6.6388 C   0  0  0  0  0  0  0  0  0  0  0  0
    6.4005    0.6177   -2.1448 C   0  0  1  0  0  0  0  0  0  0  0  0
    7.1379    1.1958   -0.9030 C   0  0  0  0  0  0  0  0  0  0  0  0
    7.1622    0.2877    0.3342 C   0  0  0  0  0  0  0  0  0  0  0  0
    7.7022   -1.1016   -0.0196 C   0  0  0  0  0  0  0  0  0  0  0  0
    6.8592   -1.7718   -1.1151 C   0  0  0  0  0  0  0  0  0  0  0  0
    6.6433   -0.9015   -2.3468 C   0  0  0  0  0  0  0  0  0  0  0  0
    6.6477   -1.3706   -3.4622 O   0  0  0  0  0  0  0  0  0  0  0  0
    1.2114   -2.3347   -3.5913 H   0  0  0  0  0  0  0  0  0  0  0  0
    0.8146   -0.6025   -3.6356 H   0  0  0  0  0  0  0  0  0  0  0  0
    0.4999   -1.5469   -2.1639 H   0  0  0  0  0  0  0  0  0  0  0  0
    3.3107   -0.9621   -3.3317 H   0  0  0  0  0  0  0  0  0  0  0  0
    2.9995   -1.9162   -1.8849 H   0  0  0  0  0  0  0  0  0  0  0  0
    2.0335    0.0837   -0.7388 H   0  0  0  0  0  0  0  0  0  0  0  0
    2.2130    1.0398   -2.2047 H   0  0  0  0  0  0  0  0  0  0  0  0
    4.4973   -0.2666   -0.6369 H   0  0  0  0  0  0  0  0  0  0  0  0
    4.0040    1.4155   -0.4328 H   0  0  0  0  0  0  0  0  0  0  0  0
    5.4256    2.9944   -2.5597 H   0  0  0  0  0  0  0  0  0  0  0  0
    3.7205    2.5684   -2.6089 H   0  0  0  0  0  0  0  0  0  0  0  0
    3.9779    1.4629   -4.7988 H   0  0  0  0  0  0  0  0  0  0  0  0
    5.7159    1.7246   -4.7818 H   0  0  0  0  0  0  0  0  0  0  0  0
    5.3550    4.2218   -4.7561 H   0  0  0  0  0  0  0  0  0  0  0  0
    3.6113    3.9729   -4.7691 H   0  0  0  0  0  0  0  0  0  0  0  0
    5.5409    3.0766   -7.0132 H   0  0  0  0  0  0  0  0  0  0  0  0
    4.4502    4.4807   -7.0807 H   0  0  0  0  0  0  0  0  0  0  0  0
    3.7818    2.8329   -7.0275 H   0  0  0  0  0  0  0  0  0  0  0  0
    6.8694    1.0537   -3.0381 H   0  0  0  0  0  0  0  0  0  0  0  0
    6.7134    2.1836   -0.6577 H   0  0  0  0  0  0  0  0  0  0  0  0
    8.1862    1.3842   -1.1976 H   0  0  0  0  0  0  0  0  0  0  0  0
    6.1548    0.1936    0.7736 H   0  0  0  0  0  0  0  0  0  0  0  0
    7.7909    0.7489    1.1143 H   0  0  0  0  0  0  0  0  0  0  0  0
    7.7344   -1.7484    0.8725 H   0  0  0  0  0  0  0  0  0  0  0  0
    8.7461   -1.0073   -0.3700 H   0  0  0  0  0  0  0  0  0  0  0  0
    5.8544   -2.0009   -0.7123 H   0  0  0  0  0  0  0  0  0  0  0  0
    7.2859   -2.7282   -1.4530 H   0  0  0  0  0  0  0  0  0  0  0  0
  1  2  1  0
  1 17  1  0
  1 18  1  0
  1 19  1  0
  2  3  1  0
  2 20  1  0
  2 21  1  0
  3  4  1  0
  3 22  1  0
  3 23  1  0
  4  5  1  0
  4 24  1  0
  4 25  1  0
  5  6  1  0
  5 10  1  0
  6  7  1  0
  6 26  1  0
  6 27  1  0
  7  8  1  0
  7 28  1  0
  7 29  1  0
  8  9  1  0
  8 30  1  0
  8 31  1  0
  9 32  1  0
  9 33  1  0
  9 34  1  0
 10 11  1  0
 10 15  1  0
 10 35  1  6
 11 12  1  0
 11 36  1  0
 11 37  1  0
 12 13  1  0
 12 38  1  0
 12 39  1  0
 13 14  1  0
 13 40  1  0
 13 41  1  0
 14 15  1  0
 14 42  1  0
 14 43  1  0
 15 16  2  0
M  END

