
     RDKit          3D

 46 46  0  0  0  0  0  0  0  0999 V2000
    6.0850   -0.3788   -2.5625 C   0  0  0  0  0  0  0  0  0  0  0  0
    5.3445   -0.3134   -1.2252 C   0  0  0  0  0  0  0  0  0  0  0  0
    5.6672    0.9565   -0.4297 C   0  0  0  0  0  0  0  0  0  0  0  0
    4.8515    1.1314    0.8753 C   0  0  1  0  0  0  0  0  0  0  0  0
    5.0407   -0.0058    1.9003 C   0  0  0  0  0  0  0  0  0  0  0  0
    6.4376   -0.1437    2.3347 N   0  0  0  0  0  0  0  0  0  0  0  0
    5.0990    2.5399    1.4326 C   0  0  0  0  0  0  0  0  0  0  0  0
    4.4360    3.4939    1.0781 O   0  0  0  0  0  0  0  0  0  0  0  0
    6.1682    2.6253    2.3286 N   0  0  0  0  0  0  0  0  0  0  0  0
    6.7241    3.7184    2.9635 C   0  0  0  0  0  0  0  0  0  0  0  0
    6.2999    5.0558    2.7322 C   0  0  0  0  0  0  0  0  0  0  0  0
    6.9856    6.0648    3.4341 C   0  0  0  0  0  0  0  0  0  0  0  0
    8.0127    5.7699    4.3376 C   0  0  0  0  0  0  0  0  0  0  0  0
    8.4182    4.4234    4.6336 C   0  0  0  0  0  0  0  0  0  0  0  0
    9.4771    4.2061    5.6084 C   0  0  0  0  0  0  0  0  0  0  0  0
   10.1644    5.1413    6.0673 O   0  0  0  0  0  0  0  0  0  0  0  0
    9.7188    2.8670    5.9746 N   0  0  0  0  0  0  0  0  0  0  0  0
   10.7036    2.5804    7.0125 C   0  0  1  0  0  0  0  0  0  0  0  0
   10.2064    2.9361    8.4218 C   0  0  0  0  0  0  0  0  0  0  0  0
   11.1442    1.1188    6.9050 C   0  0  0  0  0  0  0  0  0  0  0  0
    7.7754    3.4040    3.8808 C   0  0  0  0  0  0  0  0  0  0  0  0
    5.8373   -1.2992   -3.1141 H   0  0  0  0  0  0  0  0  0  0  0  0
    7.1782   -0.3607   -2.4185 H   0  0  0  0  0  0  0  0  0  0  0  0
    5.8235    0.4771   -3.2060 H   0  0  0  0  0  0  0  0  0  0  0  0
    5.5917   -1.2117   -0.6314 H   0  0  0  0  0  0  0  0  0  0  0  0
    4.2549   -0.3612   -1.4018 H   0  0  0  0  0  0  0  0  0  0  0  0
    5.4689    1.8368   -1.0637 H   0  0  0  0  0  0  0  0  0  0  0  0
    6.7489    0.9920   -0.2037 H   0  0  0  0  0  0  0  0  0  0  0  0
    3.7855    1.1430    0.5980 H   0  0  0  0  0  0  0  0  0  0  0  0
    4.6255   -0.9371    1.4727 H   0  0  0  0  0  0  0  0  0  0  0  0
    4.4334    0.2174    2.7929 H   0  0  0  0  0  0  0  0  0  0  0  0
    7.0167   -0.5619    1.6056 H   0  0  0  0  0  0  0  0  0  0  0  0
    6.5101   -0.7522    3.1497 H   0  0  0  0  0  0  0  0  0  0  0  0
    6.5920    1.6959    2.5319 H   0  0  0  0  0  0  0  0  0  0  0  0
    5.4913    5.2683    2.0402 H   0  0  0  0  0  0  0  0  0  0  0  0
    6.7142    7.1099    3.2652 H   0  0  0  0  0  0  0  0  0  0  0  0
    8.5556    6.5658    4.8525 H   0  0  0  0  0  0  0  0  0  0  0  0
    8.8877    2.2803    6.0230 H   0  0  0  0  0  0  0  0  0  0  0  0
   11.5605    3.2356    6.7914 H   0  0  0  0  0  0  0  0  0  0  0  0
    9.3212    2.3335    8.6936 H   0  0  0  0  0  0  0  0  0  0  0  0
    9.9362    4.0011    8.4603 H   0  0  0  0  0  0  0  0  0  0  0  0
   10.9863    2.7489    9.1789 H   0  0  0  0  0  0  0  0  0  0  0  0
   10.3001    0.4337    7.1049 H   0  0  0  0  0  0  0  0  0  0  0  0
   11.9329    0.8874    7.6385 H   0  0  0  0  0  0  0  0  0  0  0  0
   11.5286    0.8983    5.8972 H   0  0  0  0  0  0  0  0  0  0  0  0
    8.1102    2.3670    3.9552 H   0  0  0  0  0  0  0  0  0  0  0  0
  1  2  1  0
  1 22  1  0
  1 23  1  0
  1 24  1  0
  2  3  1  0
  2 25  1  0
  2 26  1  0
  3  4  1  0
  3 27  1  0
  3 28  1  0
  4  5  1  0
  4  7  1  0
  4 29  1  6
  5  6  1  0
  5 30  1  0
  5 31  1  0
  6 32  1  0
  6 33  1  0
  7  8  2  0
  7  9  1  0
  9 10  1  0
  9 34  1  0
 10 11  2  0
 10 21  1  0
 11 12  1  0
 11 35  1  0
 12 13  2  0
 12 36  1  0
 13 14  1  0
 13 37  1  0
 14 15  1  0
 14 21  2  0
 15 16  2  0
 15 17  1  0
 17 18  1  0
 17 38  1  0
 18 19  1  0
 18 20  1  0
 18 39  1  6
 19 40  1  0
 19 41  1  0
 19 42  1  0
 20 43  1  0
 20 44  1  0
 20 45  1  0
 21 46  1  0
M  END

