
     RDKit          3D

108110  0  0  0  0  0  0  0  0999 V2000
   19.1442   -1.4650   -1.0177 C   0  0  0  0  0  0  0  0  0  0  0  0
   19.0045   -0.0777   -1.6471 C   0  0  0  0  0  0  0  0  0  0  0  0
   19.4855    1.0534   -0.7310 C   0  0  0  0  0  0  0  0  0  0  0  0
   19.4362    2.4595   -1.3481 C   0  0  0  0  0  0  0  0  0  0  0  0
   18.0442    2.9789   -1.7478 C   0  0  0  0  0  0  0  0  0  0  0  0
   17.0027    3.0665   -0.6212 C   0  0  0  0  0  0  0  0  0  0  0  0
   17.3711    4.0093    0.5300 C   0  0  0  0  0  0  0  0  0  0  0  0
   16.2685    4.1496    1.5842 C   0  0  0  0  0  0  0  0  0  0  0  0
   16.6391    5.0752    2.7467 C   0  0  0  0  0  0  0  0  0  0  0  0
   15.5369    5.2184    3.8007 C   0  0  0  0  0  0  0  0  0  0  0  0
   15.9189    6.1368    4.9647 C   0  0  0  0  0  0  0  0  0  0  0  0
   14.8047    6.2661    6.0103 C   0  0  0  0  0  0  0  0  0  0  0  0
   15.1313    7.1520    7.1184 N   0  0  0  0  0  0  0  0  0  0  0  0
   14.7906    8.4799    7.1577 C   0  0  0  0  0  0  0  0  0  0  0  0
   15.3213    9.0438    8.3067 C   0  0  0  0  0  0  0  0  0  0  0  0
   16.0160    8.0181    8.9877 C   0  0  0  0  0  0  0  0  0  0  0  0
   15.8984    6.8421    8.2388 C   0  0  0  0  0  0  0  0  0  0  0  0
   16.4165    5.5136    8.4839 C   0  0  0  0  0  0  0  0  0  0  0  0
   17.2180    5.1542    9.5185 C   0  0  0  0  0  0  0  0  0  0  0  0
   17.7525    3.8259    9.8015 C   0  0  0  0  0  0  0  0  0  0  0  0
   18.6015    3.6442   10.9136 C   0  0  0  0  0  0  0  0  0  0  0  0
   19.1436    2.4011   11.2231 C   0  0  0  0  0  0  0  0  0  0  0  0
   18.8717    1.2586   10.4410 C   0  0  0  0  0  0  0  0  0  0  0  0
   19.4695   -0.0204   10.8115 C   0  0  0  0  0  0  0  0  0  0  0  0
   19.3099   -1.2137   10.1852 C   0  0  0  0  0  0  0  0  0  0  0  0
   19.9384   -2.4587   10.5717 C   0  0  0  0  0  0  0  0  0  0  0  0
   20.8813   -2.7179   11.5723 C   0  0  0  0  0  0  0  0  0  0  0  0
   21.1908   -4.0964   11.5396 C   0  0  0  0  0  0  0  0  0  0  0  0
   20.4365   -4.6564   10.5216 C   0  0  0  0  0  0  0  0  0  0  0  0
   19.6824   -3.6723    9.9341 N   0  0  0  0  0  0  0  0  0  0  0  0
   18.7358   -3.9398    8.8570 C   0  0  0  0  0  0  0  0  0  0  0  0
   17.4062   -4.5554    9.3169 C   0  0  0  0  0  0  0  0  0  0  0  0
   16.5451   -3.6554   10.2062 C   0  0  0  0  0  0  0  0  0  0  0  0
   15.2416   -4.3192   10.6611 C   0  0  0  0  0  0  0  0  0  0  0  0
   14.3675   -3.4212   11.5414 C   0  0  0  0  0  0  0  0  0  0  0  0
   13.0695   -4.0856   12.0101 C   0  0  0  0  0  0  0  0  0  0  0  0
   12.1940   -3.1852   12.8866 C   0  0  0  0  0  0  0  0  0  0  0  0
   10.8980   -3.8496   13.3606 C   0  0  0  0  0  0  0  0  0  0  0  0
   10.0214   -2.9478   14.2353 C   0  0  0  0  0  0  0  0  0  0  0  0
    8.7271   -3.6204   14.7068 C   0  0  0  0  0  0  0  0  0  0  0  0
    7.7963   -2.7290   15.5420 C   0  0  0  0  0  0  0  0  0  0  0  0
    8.3581   -2.3071   16.9023 C   0  0  0  0  0  0  0  0  0  0  0  0
   18.0180    1.4401    9.3261 C   0  0  0  0  0  0  0  0  0  0  0  0
   17.4764    2.6789    9.0184 C   0  0  0  0  0  0  0  0  0  0  0  0
   18.7930   -2.2574   -1.6981 H   0  0  0  0  0  0  0  0  0  0  0  0
   18.5578   -1.5429   -0.0865 H   0  0  0  0  0  0  0  0  0  0  0  0
   20.1944   -1.6866   -0.7629 H   0  0  0  0  0  0  0  0  0  0  0  0
   17.9492    0.0878   -1.9265 H   0  0  0  0  0  0  0  0  0  0  0  0
   19.5741   -0.0429   -2.5941 H   0  0  0  0  0  0  0  0  0  0  0  0
   20.5280    0.8439   -0.4298 H   0  0  0  0  0  0  0  0  0  0  0  0
   18.9013    1.0318    0.2075 H   0  0  0  0  0  0  0  0  0  0  0  0
   20.0799    2.4749   -2.2463 H   0  0  0  0  0  0  0  0  0  0  0  0
   19.9021    3.1691   -0.6425 H   0  0  0  0  0  0  0  0  0  0  0  0
   17.6349    2.3471   -2.5551 H   0  0  0  0  0  0  0  0  0  0  0  0
   18.1670    3.9823   -2.1945 H   0  0  0  0  0  0  0  0  0  0  0  0
   16.8016    2.0592   -0.2130 H   0  0  0  0  0  0  0  0  0  0  0  0
   16.0453    3.4005   -1.0602 H   0  0  0  0  0  0  0  0  0  0  0  0
   17.6128    5.0079    0.1199 H   0  0  0  0  0  0  0  0  0  0  0  0
   18.2944    3.6575    1.0238 H   0  0  0  0  0  0  0  0  0  0  0  0
   16.0147    3.1492    1.9822 H   0  0  0  0  0  0  0  0  0  0  0  0
   15.3456    4.5210    1.1008 H   0  0  0  0  0  0  0  0  0  0  0  0
   16.8960    6.0750    2.3505 H   0  0  0  0  0  0  0  0  0  0  0  0
   17.5594    4.7013    3.2321 H   0  0  0  0  0  0  0  0  0  0  0  0
   15.2760    4.2175    4.1929 H   0  0  0  0  0  0  0  0  0  0  0  0
   14.6172    5.5986    3.3178 H   0  0  0  0  0  0  0  0  0  0  0  0
   16.1670    7.1435    4.5855 H   0  0  0  0  0  0  0  0  0  0  0  0
   16.8335    5.7603    5.4544 H   0  0  0  0  0  0  0  0  0  0  0  0
   14.5390    5.2744    6.4100 H   0  0  0  0  0  0  0  0  0  0  0  0
   13.8905    6.6583    5.5372 H   0  0  0  0  0  0  0  0  0  0  0  0
   14.1885    8.9208    6.3655 H   0  0  0  0  0  0  0  0  0  0  0  0
   15.2078   10.0797    8.6206 H   0  0  0  0  0  0  0  0  0  0  0  0
   16.5417    8.1093    9.9360 H   0  0  0  0  0  0  0  0  0  0  0  0
   16.1279    4.7432    7.7637 H   0  0  0  0  0  0  0  0  0  0  0  0
   17.5171    5.9292   10.2322 H   0  0  0  0  0  0  0  0  0  0  0  0
   18.8384    4.5052   11.5452 H   0  0  0  0  0  0  0  0  0  0  0  0
   19.7981    2.3031   12.0940 H   0  0  0  0  0  0  0  0  0  0  0  0
   20.1118    0.0154   11.6978 H   0  0  0  0  0  0  0  0  0  0  0  0
   18.6560   -1.2513    9.3103 H   0  0  0  0  0  0  0  0  0  0  0  0
   21.3066   -1.9729   12.2415 H   0  0  0  0  0  0  0  0  0  0  0  0
   21.8956   -4.6262   12.1777 H   0  0  0  0  0  0  0  0  0  0  0  0
   20.3857   -5.6826   10.1626 H   0  0  0  0  0  0  0  0  0  0  0  0
   19.2276   -4.6230    8.1460 H   0  0  0  0  0  0  0  0  0  0  0  0
   18.5538   -3.0048    8.3089 H   0  0  0  0  0  0  0  0  0  0  0  0
   17.6187   -5.5025    9.8441 H   0  0  0  0  0  0  0  0  0  0  0  0
   16.8392   -4.8329    8.4098 H   0  0  0  0  0  0  0  0  0  0  0  0
   16.3086   -2.7215    9.6633 H   0  0  0  0  0  0  0  0  0  0  0  0
   17.1271   -3.3491   11.0925 H   0  0  0  0  0  0  0  0  0  0  0  0
   15.4802   -5.2485   11.2112 H   0  0  0  0  0  0  0  0  0  0  0  0
   14.6616   -4.6378    9.7746 H   0  0  0  0  0  0  0  0  0  0  0  0
   14.1243   -2.4945   10.9888 H   0  0  0  0  0  0  0  0  0  0  0  0
   14.9513   -3.0971   12.4226 H   0  0  0  0  0  0  0  0  0  0  0  0
   13.3134   -5.0100   12.5662 H   0  0  0  0  0  0  0  0  0  0  0  0
   12.4875   -4.4133   11.1284 H   0  0  0  0  0  0  0  0  0  0  0  0
   11.9481   -2.2621   12.3292 H   0  0  0  0  0  0  0  0  0  0  0  0
   12.7777   -2.8548   13.7659 H   0  0  0  0  0  0  0  0  0  0  0  0
   11.1446   -4.7712   13.9204 H   0  0  0  0  0  0  0  0  0  0  0  0
   10.3155   -4.1827   12.4812 H   0  0  0  0  0  0  0  0  0  0  0  0
    9.7688   -2.0290   13.6730 H   0  0  0  0  0  0  0  0  0  0  0  0
   10.6116   -2.6126   15.1067 H   0  0  0  0  0  0  0  0  0  0  0  0
    8.9794   -4.5272   15.2886 H   0  0  0  0  0  0  0  0  0  0  0  0
    8.1725   -3.9793   13.8208 H   0  0  0  0  0  0  0  0  0  0  0  0
    6.8449   -3.2666   15.7001 H   0  0  0  0  0  0  0  0  0  0  0  0
    7.5365   -1.8279   14.9562 H   0  0  0  0  0  0  0  0  0  0  0  0
    8.6173   -3.1860   17.5170 H   0  0  0  0  0  0  0  0  0  0  0  0
    7.6242   -1.7117   17.4691 H   0  0  0  0  0  0  0  0  0  0  0  0
    9.2682   -1.6939   16.8028 H   0  0  0  0  0  0  0  0  0  0  0  0
   17.7741    0.5898    8.6850 H   0  0  0  0  0  0  0  0  0  0  0  0
   16.8217    2.7609    8.1476 H   0  0  0  0  0  0  0  0  0  0  0  0
  1  2  1  0
  1 45  1  0
  1 46  1  0
  1 47  1  0
  2  3  1  0
  2 48  1  0
  2 49  1  0
  3  4  1  0
  3 50  1  0
  3 51  1  0
  4  5  1  0
  4 52  1  0
  4 53  1  0
  5  6  1  0
  5 54  1  0
  5 55  1  0
  6  7  1  0
  6 56  1  0
  6 57  1  0
  7  8  1  0
  7 58  1  0
  7 59  1  0
  8  9  1  0
  8 60  1  0
  8 61  1  0
  9 10  1  0
  9 62  1  0
  9 63  1  0
 10 11  1  0
 10 64  1  0
 10 65  1  0
 11 12  1  0
 11 66  1  0
 11 67  1  0
 12 13  1  0
 12 68  1  0
 12 69  1  0
 13 14  1  0
 13 17  1  0
 14 15  2  0
 14 70  1  0
 15 16  1  0
 15 71  1  0
 16 17  2  0
 16 72  1  0
 17 18  1  0
 18 19  2  0
 18 73  1  0
 19 20  1  0
 19 74  1  0
 20 21  2  0
 20 44  1  0
 21 22  1  0
 21 75  1  0
 22 23  2  0
 22 76  1  0
 23 24  1  0
 23 43  1  0
 24 25  2  0
 24 77  1  0
 25 26  1  0
 25 78  1  0
 26 27  2  0
 26 30  1  0
 27 28  1  0
 27 79  1  0
 28 29  2  0
 28 80  1  0
 29 30  1  0
 29 81  1  0
 30 31  1  0
 31 32  1  0
 31 82  1  0
 31 83  1  0
 32 33  1  0
 32 84  1  0
 32 85  1  0
 33 34  1  0
 33 86  1  0
 33 87  1  0
 34 35  1  0
 34 88  1  0
 34 89  1  0
 35 36  1  0
 35 90  1  0
 35 91  1  0
 36 37  1  0
 36 92  1  0
 36 93  1  0
 37 38  1  0
 37 94  1  0
 37 95  1  0
 38 39  1  0
 38 96  1  0
 38 97  1  0
 39 40  1  0
 39 98  1  0
 39 99  1  0
 40 41  1  0
 40100  1  0
 40101  1  0
 41 42  1  0
 41102  1  0
 41103  1  0
 42104  1  0
 42105  1  0
 42106  1  0
 43 44  2  0
 43107  1  0
 44108  1  0
M  END

