
     RDKit          3D

 36 36  0  0  0  0  0  0  0  0999 V2000
   11.0013    7.5584    1.8873 C   0  0  0  0  0  0  0  0  0  0  0  0
   11.4143    6.3019    2.6750 C   0  0  1  0  0  0  0  0  0  0  0  0
   12.5671    6.6173    3.6455 C   0  0  0  0  0  0  0  0  0  0  0  0
   10.2321    5.6512    3.3804 C   0  0  0  0  0  0  0  0  0  0  0  0
    9.8272    4.3771    3.0366 C   0  0  0  0  0  0  0  0  0  0  0  0
    8.7410    3.6813    3.7007 C   0  0  0  0  0  0  0  0  0  0  0  0
    7.9914    4.4801    4.6732 C   0  0  0  0  0  0  0  0  0  0  0  0
    6.8697    3.8017    5.4130 C   0  0  0  0  0  0  0  0  0  0  0  0
    7.3972    2.8398    6.3982 N   0  0  0  0  0  0  0  0  0  0  0  0
    7.1785    1.4578    6.4177 C   0  0  2  0  0  0  0  0  0  0  0  0
    6.1173    1.2434    6.2086 H   0  0  0  0  0  0  0  0  0  0  0  0
    7.6849    0.7973    7.6938 C   0  0  0  0  0  0  0  0  0  0  0  0
    7.9621    0.8058    5.0991 C   0  0  0  0  0  0  0  0  0  0  0  0
    9.2642    1.1565    5.0280 O   0  0  0  0  0  0  0  0  0  0  0  0
    8.4027    5.7535    5.0148 C   0  0  0  0  0  0  0  0  0  0  0  0
    9.5184    6.3688    4.4010 C   0  0  0  0  0  0  0  0  0  0  0  0
   11.8592    7.9796    1.3359 H   0  0  0  0  0  0  0  0  0  0  0  0
   10.6159    8.3445    2.5569 H   0  0  0  0  0  0  0  0  0  0  0  0
   10.2080    7.3246    1.1598 H   0  0  0  0  0  0  0  0  0  0  0  0
   11.7952    5.5671    1.9434 H   0  0  0  0  0  0  0  0  0  0  0  0
   12.2612    7.3542    4.4061 H   0  0  0  0  0  0  0  0  0  0  0  0
   13.4355    7.0340    3.1073 H   0  0  0  0  0  0  0  0  0  0  0  0
   12.8975    5.7101    4.1759 H   0  0  0  0  0  0  0  0  0  0  0  0
   10.3598    3.8595    2.2304 H   0  0  0  0  0  0  0  0  0  0  0  0
    8.1574    2.9857    3.0709 H   0  0  0  0  0  0  0  0  0  0  0  0
    6.1769    3.2462    4.7558 H   0  0  0  0  0  0  0  0  0  0  0  0
    6.2610    4.5242    5.9844 H   0  0  0  0  0  0  0  0  0  0  0  0
    8.2864    3.1416    6.7988 H   0  0  0  0  0  0  0  0  0  0  0  0
    7.4515   -0.2768    7.6823 H   0  0  0  0  0  0  0  0  0  0  0  0
    7.2174    1.2416    8.5851 H   0  0  0  0  0  0  0  0  0  0  0  0
    8.7782    0.9046    7.7675 H   0  0  0  0  0  0  0  0  0  0  0  0
    7.3614    1.1130    4.2272 H   0  0  0  0  0  0  0  0  0  0  0  0
    7.8459   -0.2766    5.2786 H   0  0  0  0  0  0  0  0  0  0  0  0
    9.3097    2.0575    4.5506 H   0  0  0  0  0  0  0  0  0  0  0  0
    7.8577    6.3038    5.7918 H   0  0  0  0  0  0  0  0  0  0  0  0
    9.8053    7.3823    4.6827 H   0  0  0  0  0  0  0  0  0  0  0  0
  1  2  1  0
  1 17  1  0
  1 18  1  0
  1 19  1  0
  2  3  1  0
  2  4  1  0
  2 20  1  6
  3 21  1  0
  3 22  1  0
  3 23  1  0
  4  5  2  0
  4 16  1  0
  5  6  1  0
  5 24  1  0
  6  7  2  0
  6 25  1  0
  7  8  1  0
  7 15  1  0
  8  9  1  0
  8 26  1  0
  8 27  1  0
  9 10  1  0
  9 28  1  0
 10 11  1  1
 10 12  1  0
 10 13  1  0
 12 29  1  0
 12 30  1  0
 12 31  1  0
 13 14  1  0
 13 32  1  0
 13 33  1  0
 14 34  1  0
 15 16  2  0
 15 35  1  0
 16 36  1  0
M  END

