
     RDKit          3D

 40 42  0  0  0  0  0  0  0  0999 V2000
    0.8853    0.0711    0.4731 C   0  0  0  0  0  0  0  0  0  0  0  0
    2.3313    0.2588    0.1347 C   0  0  0  0  0  0  0  0  0  0  0  0
    3.0429    1.4274   -0.1405 C   0  0  0  0  0  0  0  0  0  0  0  0
    2.5422    2.7382   -0.5235 C   0  0  0  0  0  0  0  0  0  0  0  0
    3.2707    3.7444   -0.5128 O   0  0  0  0  0  0  0  0  0  0  0  0
    1.2089    2.8044   -0.9473 N   0  0  0  0  0  0  0  0  0  0  0  0
    0.4579    3.9216   -1.3172 C   0  0  0  0  0  0  0  0  0  0  0  0
    0.9058    5.2519   -1.1753 C   0  0  0  0  0  0  0  0  0  0  0  0
    0.0807    6.3136   -1.5466 C   0  0  0  0  0  0  0  0  0  0  0  0
   -1.1947    6.0762   -2.0654 C   0  0  0  0  0  0  0  0  0  0  0  0
   -2.2205    7.4207   -2.5300 Cl  0  0  0  0  0  0  0  0  0  0  0  0
   -1.6535    4.7652   -2.2173 C   0  0  0  0  0  0  0  0  0  0  0  0
   -0.8325    3.7032   -1.8459 C   0  0  0  0  0  0  0  0  0  0  0  0
    4.5613    1.4003    0.0002 C   0  0  1  0  0  0  0  0  0  0  0  0
    4.9738    2.1202   -0.7179 H   0  0  0  0  0  0  0  0  0  0  0  0
    5.0567    1.7917    1.3869 C   0  0  0  0  0  0  0  0  0  0  0  0
    5.0507    0.8928    2.4671 C   0  0  0  0  0  0  0  0  0  0  0  0
    5.4778    1.2855    3.7369 C   0  0  0  0  0  0  0  0  0  0  0  0
    5.9123    2.5987    3.9373 C   0  0  0  0  0  0  0  0  0  0  0  0
    6.5021    3.1425    5.6683 Br  0  0  0  0  0  0  0  0  0  0  0  0
    5.9184    3.5149    2.8819 C   0  0  0  0  0  0  0  0  0  0  0  0
    5.4921    3.1077    1.6168 C   0  0  0  0  0  0  0  0  0  0  0  0
    5.0595    0.0628   -0.3980 N   0  0  0  0  0  0  0  0  0  0  0  0
    4.3611   -1.0529   -0.2067 C   0  0  0  0  0  0  0  0  0  0  0  0
    5.1976   -2.6126   -0.3418 S   0  0  0  0  0  0  0  0  0  0  0  0
    3.0775   -0.9688    0.1018 N   0  0  0  0  0  0  0  0  0  0  0  0
    0.4490    1.0095    0.8394 H   0  0  0  0  0  0  0  0  0  0  0  0
    0.7601   -0.6723    1.2835 H   0  0  0  0  0  0  0  0  0  0  0  0
    0.2560   -0.2859   -0.3709 H   0  0  0  0  0  0  0  0  0  0  0  0
    0.7647    1.9167   -1.1382 H   0  0  0  0  0  0  0  0  0  0  0  0
    1.9047    5.4310   -0.7854 H   0  0  0  0  0  0  0  0  0  0  0  0
    0.4341    7.3403   -1.4340 H   0  0  0  0  0  0  0  0  0  0  0  0
   -2.6486    4.5786   -2.6247 H   0  0  0  0  0  0  0  0  0  0  0  0
   -1.1998    2.6793   -1.9672 H   0  0  0  0  0  0  0  0  0  0  0  0
    4.7136   -0.1375    2.3321 H   0  0  0  0  0  0  0  0  0  0  0  0
    5.4742    0.5757    4.5659 H   0  0  0  0  0  0  0  0  0  0  0  0
    6.2512    4.5411    3.0471 H   0  0  0  0  0  0  0  0  0  0  0  0
    5.4582    3.8276    0.7973 H   0  0  0  0  0  0  0  0  0  0  0  0
    6.0368   -0.0170   -0.6554 H   0  0  0  0  0  0  0  0  0  0  0  0
    2.5766   -1.8237    0.3093 H   0  0  0  0  0  0  0  0  0  0  0  0
  1  2  1  0
  1 27  1  0
  1 28  1  0
  1 29  1  0
  2  3  2  0
  2 26  1  0
  3  4  1  0
  3 14  1  0
  4  5  2  0
  4  6  1  0
  6  7  1  0
  6 30  1  0
  7  8  2  0
  7 13  1  0
  8  9  1  0
  8 31  1  0
  9 10  2  0
  9 32  1  0
 10 11  1  0
 10 12  1  0
 12 13  2  0
 12 33  1  0
 13 34  1  0
 14 15  1  6
 14 16  1  0
 14 23  1  0
 16 17  2  0
 16 22  1  0
 17 18  1  0
 17 35  1  0
 18 19  2  0
 18 36  1  0
 19 20  1  0
 19 21  1  0
 21 22  2  0
 21 37  1  0
 22 38  1  0
 23 24  1  0
 23 39  1  0
 24 25  2  0
 24 26  1  0
 26 40  1  0
M  END

