
     RDKit          3D

 77 80  0  0  0  0  0  0  0  0999 V2000
    4.4976    1.9010    0.9069 C   0  0  0  0  0  0  0  0  0  0  0  0
    3.4377    2.4482    1.8370 C   0  0  0  0  0  0  0  0  0  0  0  0
    2.1011    2.5295    1.3818 C   0  0  0  0  0  0  0  0  0  0  0  0
    1.7718    2.0597   -0.0283 C   0  0  0  0  0  0  0  0  0  0  0  0
    0.3627    2.0438   -0.3594 N   0  0  0  0  0  0  0  0  0  0  0  0
   -0.5129    1.0177   -0.2101 C   0  0  0  0  0  0  0  0  0  0  0  0
   -1.7606    1.4829   -0.6182 C   0  0  0  0  0  0  0  0  0  0  0  0
   -2.9786    0.6703   -0.6531 C   0  0  0  0  0  0  0  0  0  0  0  0
   -2.8682   -0.6419   -0.4704 N   0  0  0  0  0  0  0  0  0  0  0  0
   -4.1236   -1.1486   -0.5367 N   0  0  0  0  0  0  0  0  0  0  0  0
   -4.3313   -2.5987   -0.4600 C   0  0  1  0  0  0  0  0  0  0  0  0
   -3.5260   -3.2718   -1.5867 C   0  0  0  0  0  0  0  0  0  0  0  0
   -3.7041   -4.7867   -1.7967 C   0  0  0  0  0  0  0  0  0  0  0  0
   -5.1406   -5.3559   -1.6972 C   0  0  0  0  0  0  0  0  0  0  0  0
   -5.4598   -5.9753   -0.4127 N   0  0  0  0  0  0  0  0  0  0  0  0
   -5.3271   -7.3448   -0.3316 C   0  0  0  0  0  0  0  0  0  0  0  0
   -5.0751   -8.0574   -1.2857 O   0  0  0  0  0  0  0  0  0  0  0  0
   -5.5150   -7.7890    0.9310 O   0  0  0  0  0  0  0  0  0  0  0  0
   -5.4625   -9.2163    1.2637 C   0  0  1  0  0  0  0  0  0  0  0  0
   -4.0643   -9.7719    0.9728 C   0  0  0  0  0  0  0  0  0  0  0  0
   -5.7444   -9.2251    2.7677 C   0  0  0  0  0  0  0  0  0  0  0  0
   -6.5554   -9.9766    0.5051 C   0  0  0  0  0  0  0  0  0  0  0  0
   -5.6613   -5.1395    0.7662 C   0  0  0  0  0  0  0  0  0  0  0  0
   -4.3648   -4.5245    1.3510 C   0  0  0  0  0  0  0  0  0  0  0  0
   -4.0645   -3.0586    0.9862 C   0  0  0  0  0  0  0  0  0  0  0  0
   -5.0554   -0.1799   -0.7153 C   0  0  0  0  0  0  0  0  0  0  0  0
   -6.3992   -0.4691   -0.8998 N   0  0  0  0  0  0  0  0  0  0  0  0
   -4.3623    1.0414   -0.7968 C   0  0  0  0  0  0  0  0  0  0  0  0
   -4.9668    2.3702   -1.0099 C   0  0  0  0  0  0  0  0  0  0  0  0
   -6.2905    2.4926   -0.5700 N   0  0  0  0  0  0  0  0  0  0  0  0
   -4.4167    3.3072   -1.5625 O   0  0  0  0  0  0  0  0  0  0  0  0
   -1.5076    2.8326   -1.0014 C   0  0  0  0  0  0  0  0  0  0  0  0
   -0.2299    3.1565   -0.8358 N   0  0  0  0  0  0  0  0  0  0  0  0
    1.1020    3.0494    2.2121 C   0  0  0  0  0  0  0  0  0  0  0  0
    1.4031    3.4810    3.5035 C   0  0  0  0  0  0  0  0  0  0  0  0
    2.7114    3.3970    3.9728 C   0  0  0  0  0  0  0  0  0  0  0  0
    3.7224    2.8869    3.1487 C   0  0  0  0  0  0  0  0  0  0  0  0
    5.1292    2.8177    3.7017 C   0  0  1  0  0  0  0  0  0  0  0  0
    5.6132    1.5570    3.6998 F   0  0  0  0  0  0  0  0  0  0  0  0
    5.9953    3.5636    2.9832 F   0  0  0  0  0  0  0  0  0  0  0  0
    5.2003    3.2569    4.9693 F   0  0  0  0  0  0  0  0  0  0  0  0
    4.5213    2.4708   -0.0365 H   0  0  0  0  0  0  0  0  0  0  0  0
    4.2805    0.8534    0.6376 H   0  0  0  0  0  0  0  0  0  0  0  0
    5.5050    1.9274    1.3308 H   0  0  0  0  0  0  0  0  0  0  0  0
    2.1653    1.0442   -0.1914 H   0  0  0  0  0  0  0  0  0  0  0  0
    2.2627    2.7118   -0.7682 H   0  0  0  0  0  0  0  0  0  0  0  0
   -0.2130    0.0415    0.1626 H   0  0  0  0  0  0  0  0  0  0  0  0
   -5.3993   -2.7346   -0.6849 H   0  0  0  0  0  0  0  0  0  0  0  0
   -2.4602   -3.0395   -1.4387 H   0  0  0  0  0  0  0  0  0  0  0  0
   -3.8182   -2.7529   -2.5155 H   0  0  0  0  0  0  0  0  0  0  0  0
   -3.0637   -5.3604   -1.1093 H   0  0  0  0  0  0  0  0  0  0  0  0
   -3.3147   -5.0123   -2.8027 H   0  0  0  0  0  0  0  0  0  0  0  0
   -5.2706   -6.1405   -2.4510 H   0  0  0  0  0  0  0  0  0  0  0  0
   -5.8913   -4.5748   -1.9103 H   0  0  0  0  0  0  0  0  0  0  0  0
   -3.3003   -9.1857    1.5076 H   0  0  0  0  0  0  0  0  0  0  0  0
   -3.8459   -9.7433   -0.1018 H   0  0  0  0  0  0  0  0  0  0  0  0
   -3.9989  -10.8144    1.3218 H   0  0  0  0  0  0  0  0  0  0  0  0
   -4.9865   -8.6379    3.3083 H   0  0  0  0  0  0  0  0  0  0  0  0
   -5.7257  -10.2559    3.1528 H   0  0  0  0  0  0  0  0  0  0  0  0
   -6.7341   -8.7928    2.9806 H   0  0  0  0  0  0  0  0  0  0  0  0
   -6.3660   -9.9666   -0.5754 H   0  0  0  0  0  0  0  0  0  0  0  0
   -7.5407   -9.5236    0.6978 H   0  0  0  0  0  0  0  0  0  0  0  0
   -6.5878  -11.0217    0.8510 H   0  0  0  0  0  0  0  0  0  0  0  0
   -6.1451   -5.7613    1.5253 H   0  0  0  0  0  0  0  0  0  0  0  0
   -6.3850   -4.3464    0.5054 H   0  0  0  0  0  0  0  0  0  0  0  0
   -3.5256   -5.1801    1.0744 H   0  0  0  0  0  0  0  0  0  0  0  0
   -4.4198   -4.5752    2.4508 H   0  0  0  0  0  0  0  0  0  0  0  0
   -3.0181   -2.8193    1.2357 H   0  0  0  0  0  0  0  0  0  0  0  0
   -4.6789   -2.4072    1.6332 H   0  0  0  0  0  0  0  0  0  0  0  0
   -6.8305   -1.0606   -0.1949 H   0  0  0  0  0  0  0  0  0  0  0  0
   -6.9527    0.3615   -1.0927 H   0  0  0  0  0  0  0  0  0  0  0  0
   -6.5236    2.0352    0.3069 H   0  0  0  0  0  0  0  0  0  0  0  0
   -6.6372    3.4463   -0.6404 H   0  0  0  0  0  0  0  0  0  0  0  0
   -2.2228    3.5465   -1.4018 H   0  0  0  0  0  0  0  0  0  0  0  0
    0.0805    3.1262    1.8371 H   0  0  0  0  0  0  0  0  0  0  0  0
    0.6164    3.8865    4.1437 H   0  0  0  0  0  0  0  0  0  0  0  0
    2.9575    3.7297    4.9813 H   0  0  0  0  0  0  0  0  0  0  0  0
  1  2  1  0
  1 42  1  0
  1 43  1  0
  1 44  1  0
  2  3  2  0
  2 37  1  0
  3  4  1  0
  3 34  1  0
  4  5  1  0
  4 45  1  0
  4 46  1  0
  5  6  1  0
  5 33  1  0
  6  7  2  0
  6 47  1  0
  7  8  1  0
  7 32  1  0
  8  9  2  0
  8 28  1  0
  9 10  1  0
 10 11  1  0
 10 26  1  0
 11 12  1  0
 11 25  1  0
 11 48  1  6
 12 13  1  0
 12 49  1  0
 12 50  1  0
 13 14  1  0
 13 51  1  0
 13 52  1  0
 14 15  1  0
 14 53  1  0
 14 54  1  0
 15 16  1  0
 15 23  1  0
 16 17  2  0
 16 18  1  0
 19 18  1  6
 19 20  1  0
 19 21  1  0
 19 22  1  0
 20 55  1  0
 20 56  1  0
 20 57  1  0
 21 58  1  0
 21 59  1  0
 21 60  1  0
 22 61  1  0
 22 62  1  0
 22 63  1  0
 23 24  1  0
 23 64  1  0
 23 65  1  0
 24 25  1  0
 24 66  1  0
 24 67  1  0
 25 68  1  0
 25 69  1  0
 26 27  1  0
 26 28  2  0
 27 70  1  0
 27 71  1  0
 28 29  1  0
 29 30  1  0
 29 31  2  0
 30 72  1  0
 30 73  1  0
 32 33  2  0
 32 74  1  0
 34 35  2  0
 34 75  1  0
 35 36  1  0
 35 76  1  0
 36 37  2  0
 36 77  1  0
 37 38  1  0
 38 39  1  1
 38 40  1  0
 38 41  1  0
M  END

