
     RDKit          3D

 66 70  0  0  0  0  0  0  0  0999 V2000
   16.7496    4.3729    8.4567 C   0  0  0  0  0  0  0  0  0  0  0  0
   15.3816    4.0938    7.8568 C   0  0  0  0  0  0  0  0  0  0  0  0
   14.6698    4.9837    7.4265 O   0  0  0  0  0  0  0  0  0  0  0  0
   15.0208    2.7671    7.8288 N   0  0  0  0  0  0  0  0  0  0  0  0
   13.8254    2.2565    7.3218 C   0  0  0  0  0  0  0  0  0  0  0  0
   12.7460    2.9253    6.7097 C   0  0  0  0  0  0  0  0  0  0  0  0
   11.8441    1.9038    6.4039 C   0  0  0  0  0  0  0  0  0  0  0  0
   10.5143    1.9860    5.7332 C   0  0  0  0  0  0  0  0  0  0  0  0
    9.9061    1.0072    5.3134 O   0  0  0  0  0  0  0  0  0  0  0  0
   10.0183    3.2529    5.6189 N   0  0  0  0  0  0  0  0  0  0  0  0
    8.7559    3.5252    4.9548 C   0  0  0  0  0  0  0  0  0  0  0  0
    8.8735    3.7744    3.4402 C   0  0  2  0  0  0  0  0  0  0  0  0
    9.3445    2.8740    3.0052 H   0  0  0  0  0  0  0  0  0  0  0  0
    9.7539    4.9884    3.1024 C   0  0  0  0  0  0  0  0  0  0  0  0
    9.8160    5.2549    1.5933 C   0  0  0  0  0  0  0  0  0  0  0  0
    8.4146    5.4054    0.9907 C   0  0  0  0  0  0  0  0  0  0  0  0
    7.5439    4.1757    1.3033 C   0  0  2  0  0  0  0  0  0  0  0  0
    8.0101    3.3005    0.8219 H   0  0  0  0  0  0  0  0  0  0  0  0
    6.1964    4.2789    0.7571 N   0  0  0  0  0  0  0  0  0  0  0  0
    5.8671    3.9972   -0.5294 C   0  0  0  0  0  0  0  0  0  0  0  0
    6.7980    3.5717   -1.3884 N   0  0  0  0  0  0  0  0  0  0  0  0
    6.4294    3.2816   -2.6492 C   0  0  0  0  0  0  0  0  0  0  0  0
    7.4749    2.8252   -3.5689 C   0  0  0  0  0  0  0  0  0  0  0  0
    7.2597    2.4609   -4.8882 C   0  0  0  0  0  0  0  0  0  0  0  0
    8.4411    2.0929   -5.4715 N   0  0  0  0  0  0  0  0  0  0  0  0
    8.5615    1.7834   -6.4265 H   0  0  0  0  0  0  0  0  0  0  0  0
    9.4568    2.2119   -4.5445 C   0  0  0  0  0  0  0  0  0  0  0  0
   10.8279    1.9657   -4.6558 C   0  0  0  0  0  0  0  0  0  0  0  0
   11.3252    1.5317   -5.8277 F   0  0  0  0  0  0  0  0  0  0  0  0
   11.6566    2.1725   -3.5653 C   0  0  0  0  0  0  0  0  0  0  0  0
   11.0824    2.6295   -2.3628 C   0  0  0  0  0  0  0  0  0  0  0  0
   11.9063    2.8272   -1.3161 F   0  0  0  0  0  0  0  0  0  0  0  0
    9.7306    2.8829   -2.2090 C   0  0  0  0  0  0  0  0  0  0  0  0
    8.8930    2.6718   -3.3230 C   0  0  0  0  0  0  0  0  0  0  0  0
    5.1841    3.3827   -3.1376 N   0  0  0  0  0  0  0  0  0  0  0  0
    4.2410    3.8119   -2.2884 C   0  0  0  0  0  0  0  0  0  0  0  0
    4.5306    4.1335   -0.9805 C   0  0  0  0  0  0  0  0  0  0  0  0
    3.5873    4.5681   -0.1193 F   0  0  0  0  0  0  0  0  0  0  0  0
    7.4767    3.9183    2.8143 C   0  0  0  0  0  0  0  0  0  0  0  0
   12.4181    0.7360    6.8256 N   0  0  0  0  0  0  0  0  0  0  0  0
   11.8923   -0.6201    6.7970 C   0  0  0  0  0  0  0  0  0  0  0  0
   13.6147    0.9419    7.3899 N   0  0  0  0  0  0  0  0  0  0  0  0
   16.6403    5.1448    9.2327 H   0  0  0  0  0  0  0  0  0  0  0  0
   17.3987    4.7930    7.6727 H   0  0  0  0  0  0  0  0  0  0  0  0
   17.2389    3.4886    8.8902 H   0  0  0  0  0  0  0  0  0  0  0  0
   15.6524    2.0700    8.2065 H   0  0  0  0  0  0  0  0  0  0  0  0
   12.6858    3.9901    6.5147 H   0  0  0  0  0  0  0  0  0  0  0  0
   10.5449    4.0212    6.0130 H   0  0  0  0  0  0  0  0  0  0  0  0
    8.2932    4.4002    5.4426 H   0  0  0  0  0  0  0  0  0  0  0  0
    8.1003    2.6586    5.1269 H   0  0  0  0  0  0  0  0  0  0  0  0
   10.7697    4.8359    3.5025 H   0  0  0  0  0  0  0  0  0  0  0  0
    9.3436    5.8818    3.6127 H   0  0  0  0  0  0  0  0  0  0  0  0
   10.3436    4.4234    1.0917 H   0  0  0  0  0  0  0  0  0  0  0  0
   10.4131    6.1593    1.3916 H   0  0  0  0  0  0  0  0  0  0  0  0
    8.4707    5.5438   -0.1001 H   0  0  0  0  0  0  0  0  0  0  0  0
    7.9196    6.3032    1.4054 H   0  0  0  0  0  0  0  0  0  0  0  0
    5.4606    4.6566    1.3418 H   0  0  0  0  0  0  0  0  0  0  0  0
    6.3191    2.4490   -5.4333 H   0  0  0  0  0  0  0  0  0  0  0  0
   12.7286    1.9866   -3.6355 H   0  0  0  0  0  0  0  0  0  0  0  0
    9.3274    3.2317   -1.2621 H   0  0  0  0  0  0  0  0  0  0  0  0
    3.2123    3.9067   -2.6556 H   0  0  0  0  0  0  0  0  0  0  0  0
    6.8779    3.0121    3.0065 H   0  0  0  0  0  0  0  0  0  0  0  0
    6.9451    4.7619    3.2986 H   0  0  0  0  0  0  0  0  0  0  0  0
   11.0240   -0.6444    6.1318 H   0  0  0  0  0  0  0  0  0  0  0  0
   11.6010   -0.9338    7.8122 H   0  0  0  0  0  0  0  0  0  0  0  0
   12.6809   -1.2930    6.4327 H   0  0  0  0  0  0  0  0  0  0  0  0
  1  2  1  0
  1 43  1  0
  1 44  1  0
  1 45  1  0
  2  3  2  0
  2  4  1  0
  4  5  1  0
  4 46  1  0
  5  6  1  0
  5 42  2  0
  6  7  2  0
  6 47  1  0
  7  8  1  0
  7 40  1  0
  8  9  2  0
  8 10  1  0
 10 11  1  0
 10 48  1  0
 11 12  1  0
 11 49  1  0
 11 50  1  0
 12 13  1  6
 12 14  1  0
 12 39  1  0
 14 15  1  0
 14 51  1  0
 14 52  1  0
 15 16  1  0
 15 53  1  0
 15 54  1  0
 16 17  1  0
 16 55  1  0
 16 56  1  0
 17 18  1  6
 17 19  1  0
 17 39  1  0
 19 20  1  0
 19 57  1  0
 20 21  2  0
 20 37  1  0
 21 22  1  0
 22 23  1  0
 22 35  2  0
 23 24  2  0
 23 34  1  0
 24 25  1  0
 24 58  1  0
 25 26  1  0
 25 27  1  0
 27 28  1  0
 27 34  2  0
 28 29  1  0
 28 30  2  0
 30 31  1  0
 30 59  1  0
 31 32  1  0
 31 33  2  0
 33 34  1  0
 33 60  1  0
 35 36  1  0
 36 37  2  0
 36 61  1  0
 37 38  1  0
 39 62  1  0
 39 63  1  0
 40 41  1  0
 40 42  1  0
 41 64  1  0
 41 65  1  0
 41 66  1  0
M  END

