
     RDKit          3D

 72 79  0  0  0  0  0  0  0  0999 V2000
   14.5763    3.3300   -0.8544 C   0  0  0  0  0  0  0  0  0  0  0  0
   13.6189    2.6879   -0.1298 C   0  0  0  0  0  0  0  0  0  0  0  0
   13.9119    1.5395    0.6602 C   0  0  0  0  0  0  0  0  0  0  0  0
   12.9999    0.8138    1.4340 C   0  0  0  0  0  0  0  0  0  0  0  0
   11.6260    1.0913    1.5552 C   0  0  0  0  0  0  0  0  0  0  0  0
   10.7345    0.3654    2.3392 C   0  0  0  0  0  0  0  0  0  0  0  0
   11.0681   -0.8077    3.1748 C   0  0  0  0  0  0  0  0  0  0  0  0
    9.2862    0.8265    2.3661 C   0  0  0  0  0  0  0  0  0  0  0  0
    8.3878   -0.1438    2.4786 N   0  0  0  0  0  0  0  0  0  0  0  0
    7.0869    0.3218    2.4025 C   0  0  0  0  0  0  0  0  0  0  0  0
    5.9989   -0.6766    2.4266 C   0  0  0  0  0  0  0  0  0  0  0  0
    6.2868   -2.0547    2.4877 C   0  0  0  0  0  0  0  0  0  0  0  0
    5.2566   -2.9961    2.5095 C   0  0  0  0  0  0  0  0  0  0  0  0
    3.9211   -2.5828    2.4724 C   0  0  0  0  0  0  0  0  0  0  0  0
    3.6239   -1.2142    2.4119 C   0  0  0  0  0  0  0  0  0  0  0  0
    4.6488   -0.2713    2.3884 C   0  0  0  0  0  0  0  0  0  0  0  0
    6.7813    1.6019    2.3116 N   0  0  0  0  0  0  0  0  0  0  0  0
    7.7701    2.5261    2.2843 C   0  0  0  0  0  0  0  0  0  0  0  0
    7.4590    3.9248    2.2619 C   0  0  0  0  0  0  0  0  0  0  0  0
    6.1132    4.3933    2.2385 C   0  0  0  0  0  0  0  0  0  0  0  0
    5.8244    5.7433    2.2267 C   0  0  0  0  0  0  0  0  0  0  0  0
    6.8429    6.7378    2.2367 C   0  0  0  0  0  0  0  0  0  0  0  0
    6.4986    8.1671    2.2628 C   0  0  0  0  0  0  0  0  0  0  0  0
    5.2453    8.6290    2.7371 C   0  0  0  0  0  0  0  0  0  0  0  0
    4.8770    9.9809    2.7612 C   0  0  0  0  0  0  0  0  0  0  0  0
    5.7412   10.9795    2.3131 C   0  0  0  0  0  0  0  0  0  0  0  0
    6.9988   10.5763    1.8371 C   0  0  0  0  0  0  0  0  0  0  0  0
    7.3457    9.2093    1.8255 C   0  0  0  0  0  0  0  0  0  0  0  0
    8.6123    9.0352    1.3012 O   0  0  0  0  0  0  0  0  0  0  0  0
    9.0755   10.2720    0.9868 C   0  0  0  0  0  0  0  0  0  0  0  0
    8.1412   11.2840    1.2851 C   0  0  0  0  0  0  0  0  0  0  0  0
    8.4380   12.6401    1.0299 C   0  0  0  0  0  0  0  0  0  0  0  0
    9.6689   12.9838    0.4793 C   0  0  0  0  0  0  0  0  0  0  0  0
   10.6049   11.9699    0.1826 C   0  0  0  0  0  0  0  0  0  0  0  0
   11.9463   11.9483   -0.3775 C   0  0  0  0  0  0  0  0  0  0  0  0
   12.8504   12.9122   -0.8474 C   0  0  0  0  0  0  0  0  0  0  0  0
   14.0927   12.4910   -1.3261 C   0  0  0  0  0  0  0  0  0  0  0  0
   14.4410   11.1279   -1.3412 C   0  0  0  0  0  0  0  0  0  0  0  0
   13.5560   10.1491   -0.8778 C   0  0  0  0  0  0  0  0  0  0  0  0
   12.3238   10.5874   -0.4049 C   0  0  0  0  0  0  0  0  0  0  0  0
   11.3315    9.7815    0.0880 O   0  0  0  0  0  0  0  0  0  0  0  0
   10.3059   10.6152    0.4376 C   0  0  0  0  0  0  0  0  0  0  0  0
    8.1822    6.2683    2.2470 C   0  0  0  0  0  0  0  0  0  0  0  0
    8.4819    4.9167    2.2627 C   0  0  0  0  0  0  0  0  0  0  0  0
    9.1085    2.1178    2.2535 N   0  0  0  0  0  0  0  0  0  0  0  0
   14.3389    4.2099   -1.4554 H   0  0  0  0  0  0  0  0  0  0  0  0
   15.6140    2.9840   -0.8557 H   0  0  0  0  0  0  0  0  0  0  0  0
   12.5941    3.0672   -0.1539 H   0  0  0  0  0  0  0  0  0  0  0  0
   14.9509    1.1950    0.6619 H   0  0  0  0  0  0  0  0  0  0  0  0
   13.4075   -0.0382    1.9838 H   0  0  0  0  0  0  0  0  0  0  0  0
   11.1898    1.9465    1.0363 H   0  0  0  0  0  0  0  0  0  0  0  0
   12.0778   -1.2113    3.0342 H   0  0  0  0  0  0  0  0  0  0  0  0
   10.2981   -1.5743    2.9941 H   0  0  0  0  0  0  0  0  0  0  0  0
   10.9355   -0.5263    4.2360 H   0  0  0  0  0  0  0  0  0  0  0  0
    7.3301   -2.3696    2.5152 H   0  0  0  0  0  0  0  0  0  0  0  0
    5.4971   -4.0620    2.5558 H   0  0  0  0  0  0  0  0  0  0  0  0
    3.1149   -3.3209    2.4903 H   0  0  0  0  0  0  0  0  0  0  0  0
    2.5825   -0.8825    2.3831 H   0  0  0  0  0  0  0  0  0  0  0  0
    4.4285    0.7958    2.3412 H   0  0  0  0  0  0  0  0  0  0  0  0
    5.3061    3.6601    2.2180 H   0  0  0  0  0  0  0  0  0  0  0  0
    4.7767    6.0478    2.1800 H   0  0  0  0  0  0  0  0  0  0  0  0
    4.5393    7.8952    3.1283 H   0  0  0  0  0  0  0  0  0  0  0  0
    3.8919   10.2512    3.1503 H   0  0  0  0  0  0  0  0  0  0  0  0
    5.4538   12.0327    2.3322 H   0  0  0  0  0  0  0  0  0  0  0  0
    7.7045   13.4143    1.2651 H   0  0  0  0  0  0  0  0  0  0  0  0
    9.9107   14.0297    0.2779 H   0  0  0  0  0  0  0  0  0  0  0  0
   12.5886   13.9730   -0.8393 H   0  0  0  0  0  0  0  0  0  0  0  0
   14.8076   13.2303   -1.6953 H   0  0  0  0  0  0  0  0  0  0  0  0
   15.4205   10.8277   -1.7216 H   0  0  0  0  0  0  0  0  0  0  0  0
   13.8098    9.0877   -0.8818 H   0  0  0  0  0  0  0  0  0  0  0  0
    9.0010    6.9864    2.2595 H   0  0  0  0  0  0  0  0  0  0  0  0
    9.5221    4.5915    2.2893 H   0  0  0  0  0  0  0  0  0  0  0  0
  1  2  2  0
  1 46  1  0
  1 47  1  0
  2  3  1  0
  2 48  1  0
  3  4  2  0
  3 49  1  0
  4  5  1  0
  4 50  1  0
  5  6  2  0
  5 51  1  0
  6  7  1  0
  6  8  1  0
  7 52  1  0
  7 53  1  0
  7 54  1  0
  8  9  2  0
  8 45  1  0
  9 10  1  0
 10 11  1  0
 10 17  2  0
 11 12  2  0
 11 16  1  0
 12 13  1  0
 12 55  1  0
 13 14  2  0
 13 56  1  0
 14 15  1  0
 14 57  1  0
 15 16  2  0
 15 58  1  0
 16 59  1  0
 17 18  1  0
 18 19  1  0
 18 45  2  0
 19 20  2  0
 19 44  1  0
 20 21  1  0
 20 60  1  0
 21 22  2  0
 21 61  1  0
 22 23  1  0
 22 43  1  0
 23 24  2  0
 23 28  1  0
 24 25  1  0
 24 62  1  0
 25 26  2  0
 25 63  1  0
 26 27  1  0
 26 64  1  0
 27 28  2  0
 27 31  1  0
 28 29  1  0
 29 30  1  0
 30 31  2  0
 30 42  1  0
 31 32  1  0
 32 33  2  0
 32 65  1  0
 33 34  1  0
 33 66  1  0
 34 35  1  0
 34 42  2  0
 35 36  2  0
 35 40  1  0
 36 37  1  0
 36 67  1  0
 37 38  2  0
 37 68  1  0
 38 39  1  0
 38 69  1  0
 39 40  2  0
 39 70  1  0
 40 41  1  0
 41 42  1  0
 43 44  2  0
 43 71  1  0
 44 72  1  0
M  END

