
     RDKit          3D

 65 69  0  0  0  0  0  0  0  0999 V2000
    2.9058  -10.2785    7.0410 C   0  0  0  0  0  0  0  0  0  0  0  0
    2.4826  -10.3746    5.5759 C   0  0  1  0  0  0  0  0  0  0  0  0
    1.4084  -10.1523    5.4977 H   0  0  0  0  0  0  0  0  0  0  0  0
    3.1913   -9.3689    4.8071 O   0  0  0  0  0  0  0  0  0  0  0  0
    2.6341   -8.1449    4.7250 C   0  0  0  0  0  0  0  0  0  0  0  0
    1.5823   -7.8151    5.2217 O   0  0  0  0  0  0  0  0  0  0  0  0
    3.4623   -7.3167    3.9911 N   0  0  0  0  0  0  0  0  0  0  0  0
    3.0954   -6.0510    3.5267 C   0  0  0  0  0  0  0  0  0  0  0  0
    3.0567   -5.5670    2.2125 C   0  0  0  0  0  0  0  0  0  0  0  0
    3.3243   -6.2919    0.9809 C   0  0  0  0  0  0  0  0  0  0  0  0
    3.2501   -7.6515    0.7305 C   0  0  0  0  0  0  0  0  0  0  0  0
    3.5900   -7.9617   -0.6145 C   0  0  0  0  0  0  0  0  0  0  0  0
    3.6777   -9.4214   -1.5539 S   0  0  0  0  0  0  0  0  0  0  0  0
    4.1548   -8.5192   -2.9971 C   0  0  0  0  0  0  0  0  0  0  0  0
    4.4097   -9.2163   -4.2610 C   0  0  0  0  0  0  0  0  0  0  0  0
    5.1195   -8.5971   -5.3083 C   0  0  0  0  0  0  0  0  0  0  0  0
    5.3260   -9.2486   -6.5207 C   0  0  0  0  0  0  0  0  0  0  0  0
    4.8726  -10.5554   -6.7620 C   0  0  0  0  0  0  0  0  0  0  0  0
    5.0804  -11.1684   -8.1279 C   0  0  0  0  0  0  0  0  0  0  0  0
    5.9969  -12.3914   -8.1506 C   0  0  0  0  0  0  0  0  0  0  0  0
    6.7943  -12.6512   -7.2880 O   0  0  0  0  0  0  0  0  0  0  0  0
    5.9148  -13.1487   -9.2580 O   0  0  0  0  0  0  0  0  0  0  0  0
    4.1957  -11.1829   -5.6959 C   0  0  0  0  0  0  0  0  0  0  0  0
    3.5531  -12.8829   -5.7820 S   0  0  1  0  0  0  0  0  0  0  0  0
    4.8452  -13.9005   -5.0443 C   0  0  0  0  0  0  0  0  0  0  0  0
    2.3790  -12.9577   -4.9020 O   0  0  0  0  0  0  0  0  0  0  0  0
    3.4328  -13.2691   -7.2017 O   0  0  0  0  0  0  0  0  0  0  0  0
    3.9498  -10.5267   -4.4891 C   0  0  0  0  0  0  0  0  0  0  0  0
    4.2404   -7.1625   -2.7412 C   0  0  0  0  0  0  0  0  0  0  0  0
    3.9219   -6.8511   -1.3946 C   0  0  0  0  0  0  0  0  0  0  0  0
    3.8307   -5.3900   -0.4522 S   0  0  0  0  0  0  0  0  0  0  0  0
    2.7083   -4.1982    2.3822 C   0  0  0  0  0  0  0  0  0  0  0  0
    2.5419   -3.8827    3.6582 N   0  0  0  0  0  0  0  0  0  0  0  0
    2.7980   -5.0060    4.3491 N   0  0  0  0  0  0  0  0  0  0  0  0
    2.7059   -5.0077    5.7968 C   0  0  0  0  0  0  0  0  0  0  0  0
    2.7712  -11.7254    4.9543 C   0  0  0  0  0  0  0  0  0  0  0  0
    1.7536  -12.6865    4.8773 C   0  0  0  0  0  0  0  0  0  0  0  0
    2.0114  -13.9585    4.3579 C   0  0  0  0  0  0  0  0  0  0  0  0
    3.2916  -14.2810    3.8999 C   0  0  0  0  0  0  0  0  0  0  0  0
    4.3110  -13.3254    3.9654 C   0  0  0  0  0  0  0  0  0  0  0  0
    4.0540  -12.0573    4.4920 C   0  0  0  0  0  0  0  0  0  0  0  0
    2.6442   -9.2909    7.4499 H   0  0  0  0  0  0  0  0  0  0  0  0
    3.9899  -10.4399    7.1450 H   0  0  0  0  0  0  0  0  0  0  0  0
    2.3859  -11.0463    7.6337 H   0  0  0  0  0  0  0  0  0  0  0  0
    4.2459   -7.7678    3.5272 H   0  0  0  0  0  0  0  0  0  0  0  0
    2.9297   -8.3825    1.4718 H   0  0  0  0  0  0  0  0  0  0  0  0
    5.5223   -7.5916   -5.1736 H   0  0  0  0  0  0  0  0  0  0  0  0
    5.8661   -8.7265   -7.3150 H   0  0  0  0  0  0  0  0  0  0  0  0
    5.5461  -10.4170   -8.7883 H   0  0  0  0  0  0  0  0  0  0  0  0
    4.1104  -11.4403   -8.5697 H   0  0  0  0  0  0  0  0  0  0  0  0
    5.1328  -12.9086   -9.7758 H   0  0  0  0  0  0  0  0  0  0  0  0
    4.9499  -13.6192   -3.9888 H   0  0  0  0  0  0  0  0  0  0  0  0
    5.7796  -13.7624   -5.6033 H   0  0  0  0  0  0  0  0  0  0  0  0
    4.4708  -14.9301   -5.1359 H   0  0  0  0  0  0  0  0  0  0  0  0
    3.3603  -11.0466   -3.7311 H   0  0  0  0  0  0  0  0  0  0  0  0
    4.4994   -6.4243   -3.4999 H   0  0  0  0  0  0  0  0  0  0  0  0
    2.5569   -3.4463    1.6078 H   0  0  0  0  0  0  0  0  0  0  0  0
    2.7365   -3.9617    6.1233 H   0  0  0  0  0  0  0  0  0  0  0  0
    3.5593   -5.5556    6.2229 H   0  0  0  0  0  0  0  0  0  0  0  0
    1.7759   -5.4903    6.1288 H   0  0  0  0  0  0  0  0  0  0  0  0
    0.7464  -12.4358    5.2232 H   0  0  0  0  0  0  0  0  0  0  0  0
    1.2066  -14.6959    4.3028 H   0  0  0  0  0  0  0  0  0  0  0  0
    3.4941  -15.2728    3.4879 H   0  0  0  0  0  0  0  0  0  0  0  0
    5.3131  -13.5692    3.6031 H   0  0  0  0  0  0  0  0  0  0  0  0
    4.8513  -11.3120    4.5346 H   0  0  0  0  0  0  0  0  0  0  0  0
  1  2  1  0
  1 42  1  0
  1 43  1  0
  1 44  1  0
  2  3  1  1
  2  4  1  0
  2 36  1  0
  4  5  1  0
  5  6  2  0
  5  7  1  0
  7  8  1  0
  7 45  1  0
  8  9  2  0
  8 34  1  0
  9 10  1  0
  9 32  1  0
 10 11  2  0
 10 31  1  0
 11 12  1  0
 11 46  1  0
 12 13  1  0
 12 30  2  0
 13 14  1  0
 14 15  1  0
 14 29  2  0
 15 16  2  0
 15 28  1  0
 16 17  1  0
 16 47  1  0
 17 18  2  0
 17 48  1  0
 18 19  1  0
 18 23  1  0
 19 20  1  0
 19 49  1  0
 19 50  1  0
 20 21  2  0
 20 22  1  0
 22 51  1  0
 23 24  1  0
 23 28  2  0
 24 25  1  1
 24 26  2  0
 24 27  2  0
 25 52  1  0
 25 53  1  0
 25 54  1  0
 28 55  1  0
 29 30  1  0
 29 56  1  0
 30 31  1  0
 32 33  2  0
 32 57  1  0
 33 34  1  0
 34 35  1  0
 35 58  1  0
 35 59  1  0
 35 60  1  0
 36 37  2  0
 36 41  1  0
 37 38  1  0
 37 61  1  0
 38 39  2  0
 38 62  1  0
 39 40  1  0
 39 63  1  0
 40 41  2  0
 40 64  1  0
 41 65  1  0
M  END

