
     RDKit          3D

 45 46  0  0  0  0  0  0  0  0999 V2000
    1.3984   -2.4050   10.3650 C   0  0  0  0  0  0  0  0  0  0  0  0
    0.1634   -3.2768   10.1281 C   0  0  2  0  0  0  0  0  0  0  0  0
    0.3129   -4.2259   10.6634 H   0  0  0  0  0  0  0  0  0  0  0  0
   -0.0266   -3.6330    8.6391 C   0  0  0  0  0  0  0  0  0  0  0  0
    0.9757   -4.6563    8.1507 C   0  0  0  0  0  0  0  0  0  0  0  0
    1.5329   -5.4729    8.8450 O   0  0  0  0  0  0  0  0  0  0  0  0
    1.1598   -4.5727    6.8195 O   0  0  0  0  0  0  0  0  0  0  0  0
    2.0484   -5.5273    6.2258 C   0  0  0  0  0  0  0  0  0  0  0  0
    2.1657   -5.1994    4.7449 C   0  0  2  0  0  0  0  0  0  0  0  0
    2.5326   -4.1535    4.6508 H   0  0  0  0  0  0  0  0  0  0  0  0
    0.8507   -5.3251    3.9684 C   0  0  0  0  0  0  0  0  0  0  0  0
    1.0929   -5.1227    2.4670 C   0  0  0  0  0  0  0  0  0  0  0  0
    2.2228   -6.0402    1.9825 C   0  0  0  0  0  0  0  0  0  0  0  0
    3.4543   -5.8797    2.8738 C   0  0  0  0  0  0  0  0  0  0  0  0
    3.1465   -6.0907    4.2400 O   0  0  0  0  0  0  0  0  0  0  0  0
   -1.0394   -2.6687   10.7202 N   0  0  0  0  0  0  0  0  0  0  0  0
   -1.9814   -3.5966   11.3471 C   0  0  0  0  0  0  0  0  0  0  0  0
   -3.0229   -2.8676   12.1952 C   0  0  0  0  0  0  0  0  0  0  0  0
   -3.7445   -1.7982   11.3747 C   0  0  0  0  0  0  0  0  0  0  0  0
   -2.7259   -0.8276   10.7710 C   0  0  0  0  0  0  0  0  0  0  0  0
   -1.6292   -1.5848   10.0502 C   0  0  0  0  0  0  0  0  0  0  0  0
   -0.7958   -0.7716    9.3896 O   0  0  0  0  0  0  0  0  0  0  0  0
    1.2922   -1.4245    9.8723 H   0  0  0  0  0  0  0  0  0  0  0  0
    2.2994   -2.9005    9.9710 H   0  0  0  0  0  0  0  0  0  0  0  0
    1.5396   -2.2281   11.4417 H   0  0  0  0  0  0  0  0  0  0  0  0
    0.0123   -2.7361    8.0032 H   0  0  0  0  0  0  0  0  0  0  0  0
   -1.0294   -4.0708    8.4879 H   0  0  0  0  0  0  0  0  0  0  0  0
    1.6595   -6.5481    6.3729 H   0  0  0  0  0  0  0  0  0  0  0  0
    3.0368   -5.4759    6.7067 H   0  0  0  0  0  0  0  0  0  0  0  0
    0.1218   -4.5981    4.3595 H   0  0  0  0  0  0  0  0  0  0  0  0
    0.4378   -6.3342    4.1478 H   0  0  0  0  0  0  0  0  0  0  0  0
    1.3720   -4.0690    2.2812 H   0  0  0  0  0  0  0  0  0  0  0  0
    0.1674   -5.3048    1.8966 H   0  0  0  0  0  0  0  0  0  0  0  0
    2.4911   -5.8241    0.9345 H   0  0  0  0  0  0  0  0  0  0  0  0
    1.8910   -7.0927    2.0224 H   0  0  0  0  0  0  0  0  0  0  0  0
    3.8866   -4.8649    2.7381 H   0  0  0  0  0  0  0  0  0  0  0  0
    4.2357   -6.6110    2.6161 H   0  0  0  0  0  0  0  0  0  0  0  0
   -1.3969   -4.2849   11.9759 H   0  0  0  0  0  0  0  0  0  0  0  0
   -2.5009   -4.2104   10.5788 H   0  0  0  0  0  0  0  0  0  0  0  0
   -2.5166   -2.3945   13.0549 H   0  0  0  0  0  0  0  0  0  0  0  0
   -3.7356   -3.6040   12.6007 H   0  0  0  0  0  0  0  0  0  0  0  0
   -4.4599   -1.2397   12.0009 H   0  0  0  0  0  0  0  0  0  0  0  0
   -4.3217   -2.2767   10.5652 H   0  0  0  0  0  0  0  0  0  0  0  0
   -2.2667   -0.2072   11.5743 H   0  0  0  0  0  0  0  0  0  0  0  0
   -3.2020   -0.1292   10.0658 H   0  0  0  0  0  0  0  0  0  0  0  0
  1  2  1  0
  1 23  1  0
  1 24  1  0
  1 25  1  0
  2  3  1  1
  2  4  1  0
  2 16  1  0
  4  5  1  0
  4 26  1  0
  4 27  1  0
  5  6  2  0
  5  7  1  0
  7  8  1  0
  8  9  1  0
  8 28  1  0
  8 29  1  0
  9 10  1  1
  9 11  1  0
  9 15  1  0
 11 12  1  0
 11 30  1  0
 11 31  1  0
 12 13  1  0
 12 32  1  0
 12 33  1  0
 13 14  1  0
 13 34  1  0
 13 35  1  0
 14 15  1  0
 14 36  1  0
 14 37  1  0
 16 17  1  0
 16 21  1  0
 17 18  1  0
 17 38  1  0
 17 39  1  0
 18 19  1  0
 18 40  1  0
 18 41  1  0
 19 20  1  0
 19 42  1  0
 19 43  1  0
 20 21  1  0
 20 44  1  0
 20 45  1  0
 21 22  2  0
M  END

