
     RDKit          3D

 76 84  0  0  0  0  0  0  0  0999 V2000
   -7.1749  -11.0038   17.1950 F   0  0  0  0  0  0  0  0  0  0  0  0
   -6.9511   -9.7053   17.4539 C   0  0  0  0  0  0  0  0  0  0  0  0
   -8.0149   -8.8084   17.4362 C   0  0  0  0  0  0  0  0  0  0  0  0
   -7.7798   -7.4605   17.7155 C   0  0  0  0  0  0  0  0  0  0  0  0
   -6.4812   -6.9977   17.9949 C   0  0  0  0  0  0  0  0  0  0  0  0
   -6.2358   -5.6234   18.2463 N   0  0  0  0  0  0  0  0  0  0  0  0
   -5.3280   -5.2218   19.2639 C   0  0  0  0  0  0  0  0  0  0  0  0
   -4.5273   -4.0796   19.0754 C   0  0  0  0  0  0  0  0  0  0  0  0
   -3.6454   -3.6522   20.0677 C   0  0  0  0  0  0  0  0  0  0  0  0
   -3.5476   -4.3811   21.2513 C   0  0  0  0  0  0  0  0  0  0  0  0
   -2.6921   -3.9789   22.2043 F   0  0  0  0  0  0  0  0  0  0  0  0
   -4.3222   -5.5190   21.4631 C   0  0  0  0  0  0  0  0  0  0  0  0
   -5.2174   -5.9306   20.4744 C   0  0  0  0  0  0  0  0  0  0  0  0
   -7.0851   -4.6325   17.6716 C   0  0  0  0  0  0  0  0  0  0  0  0
   -7.8555   -3.8224   18.4908 C   0  0  0  0  0  0  0  0  0  0  0  0
   -8.6943   -2.8349   17.9541 C   0  0  0  0  0  0  0  0  0  0  0  0
   -8.8108   -2.6282   16.5803 C   0  0  0  0  0  0  0  0  0  0  0  0
   -9.6977   -1.5911   16.0178 C   0  0  0  0  0  0  0  0  0  0  0  0
  -10.4120   -0.7124   16.8312 C   0  0  0  0  0  0  0  0  0  0  0  0
  -11.2621    0.2687   16.2917 C   0  0  0  0  0  0  0  0  0  0  0  0
  -11.4316    0.3749   14.9272 C   0  0  0  0  0  0  0  0  0  0  0  0
  -10.7375   -0.4967   14.0472 C   0  0  0  0  0  0  0  0  0  0  0  0
  -10.8982   -0.4048   12.6239 C   0  0  0  0  0  0  0  0  0  0  0  0
  -11.8155    0.5253   12.0524 N   0  0  0  0  0  0  0  0  0  0  0  0
  -11.3340    1.4250   11.0632 C   0  0  0  0  0  0  0  0  0  0  0  0
  -12.0147    1.6167    9.8467 C   0  0  0  0  0  0  0  0  0  0  0  0
  -11.5252    2.5042    8.8869 C   0  0  0  0  0  0  0  0  0  0  0  0
  -10.3374    3.1886    9.1331 C   0  0  0  0  0  0  0  0  0  0  0  0
   -9.8608    4.0365    8.2079 F   0  0  0  0  0  0  0  0  0  0  0  0
   -9.6348    3.0080   10.3227 C   0  0  0  0  0  0  0  0  0  0  0  0
  -10.1392    2.1350   11.2863 C   0  0  0  0  0  0  0  0  0  0  0  0
  -13.2081    0.3646   12.2713 C   0  0  0  0  0  0  0  0  0  0  0  0
  -14.0661    1.4826   12.2853 C   0  0  0  0  0  0  0  0  0  0  0  0
  -15.4340    1.3316   12.5085 C   0  0  0  0  0  0  0  0  0  0  0  0
  -15.9520    0.0588   12.7426 C   0  0  0  0  0  0  0  0  0  0  0  0
  -17.2679   -0.0864   12.9670 F   0  0  0  0  0  0  0  0  0  0  0  0
  -15.1267   -1.0615   12.7495 C   0  0  0  0  0  0  0  0  0  0  0  0
  -13.7604   -0.9077   12.5054 C   0  0  0  0  0  0  0  0  0  0  0  0
  -10.1385   -1.2235   11.8037 C   0  0  0  0  0  0  0  0  0  0  0  0
   -9.2321   -2.1495   12.3412 C   0  0  0  0  0  0  0  0  0  0  0  0
   -9.0605   -2.3063   13.7159 C   0  0  0  0  0  0  0  0  0  0  0  0
   -8.1111   -3.2862   14.2796 C   0  0  0  0  0  0  0  0  0  0  0  0
   -7.2810   -4.0585   13.4681 C   0  0  0  0  0  0  0  0  0  0  0  0
   -6.3834   -4.9958   14.0083 C   0  0  0  0  0  0  0  0  0  0  0  0
   -6.3143   -5.1945   15.3713 C   0  0  0  0  0  0  0  0  0  0  0  0
   -7.1401   -4.4443   16.2495 C   0  0  0  0  0  0  0  0  0  0  0  0
   -8.0316   -3.4536   15.7037 C   0  0  0  0  0  0  0  0  0  0  0  0
   -9.8332   -1.4753   14.5930 C   0  0  0  0  0  0  0  0  0  0  0  0
   -5.4215   -7.9269   17.9926 C   0  0  0  0  0  0  0  0  0  0  0  0
   -5.6546   -9.2770   17.7347 C   0  0  0  0  0  0  0  0  0  0  0  0
   -9.0203   -9.1724   17.2154 H   0  0  0  0  0  0  0  0  0  0  0  0
   -8.6145   -6.7580   17.7148 H   0  0  0  0  0  0  0  0  0  0  0  0
   -4.6016   -3.5233   18.1393 H   0  0  0  0  0  0  0  0  0  0  0  0
   -3.0215   -2.7670   19.9292 H   0  0  0  0  0  0  0  0  0  0  0  0
   -4.2291   -6.0633   22.4052 H   0  0  0  0  0  0  0  0  0  0  0  0
   -5.8380   -6.8121   20.6434 H   0  0  0  0  0  0  0  0  0  0  0  0
   -7.8098   -3.9616   19.5727 H   0  0  0  0  0  0  0  0  0  0  0  0
   -9.2799   -2.2367   18.6519 H   0  0  0  0  0  0  0  0  0  0  0  0
  -10.3129   -0.7652   17.9151 H   0  0  0  0  0  0  0  0  0  0  0  0
  -11.7902    0.9496   16.9636 H   0  0  0  0  0  0  0  0  0  0  0  0
  -12.0912    1.1357   14.5120 H   0  0  0  0  0  0  0  0  0  0  0  0
  -12.9362    1.0665    9.6497 H   0  0  0  0  0  0  0  0  0  0  0  0
  -12.0476    2.6598    7.9408 H   0  0  0  0  0  0  0  0  0  0  0  0
   -8.7089    3.5624   10.4886 H   0  0  0  0  0  0  0  0  0  0  0  0
   -9.6028    1.9982   12.2271 H   0  0  0  0  0  0  0  0  0  0  0  0
  -13.6555    2.4802   12.1192 H   0  0  0  0  0  0  0  0  0  0  0  0
  -16.1042    2.1936   12.5182 H   0  0  0  0  0  0  0  0  0  0  0  0
  -15.5602   -2.0464   12.9343 H   0  0  0  0  0  0  0  0  0  0  0  0
  -13.1134   -1.7861   12.4983 H   0  0  0  0  0  0  0  0  0  0  0  0
  -10.2553   -1.1490   10.7206 H   0  0  0  0  0  0  0  0  0  0  0  0
   -8.6713   -2.7704   11.6428 H   0  0  0  0  0  0  0  0  0  0  0  0
   -7.3068   -3.9381   12.3853 H   0  0  0  0  0  0  0  0  0  0  0  0
   -5.7375   -5.5684   13.3382 H   0  0  0  0  0  0  0  0  0  0  0  0
   -5.6179   -5.9216   15.7865 H   0  0  0  0  0  0  0  0  0  0  0  0
   -4.4046   -7.5862   18.1948 H   0  0  0  0  0  0  0  0  0  0  0  0
   -4.8381  -10.0020   17.7334 H   0  0  0  0  0  0  0  0  0  0  0  0
  1  2  1  0
  2  3  2  0
  2 50  1  0
  3  4  1  0
  3 51  1  0
  4  5  2  0
  4 52  1  0
  5  6  1  0
  5 49  1  0
  6  7  1  0
  6 14  1  0
  7  8  2  0
  7 13  1  0
  8  9  1  0
  8 53  1  0
  9 10  2  0
  9 54  1  0
 10 11  1  0
 10 12  1  0
 12 13  2  0
 12 55  1  0
 13 56  1  0
 14 15  2  0
 14 46  1  0
 15 16  1  0
 15 57  1  0
 16 17  2  0
 16 58  1  0
 17 18  1  0
 17 47  1  0
 18 19  2  0
 18 48  1  0
 19 20  1  0
 19 59  1  0
 20 21  2  0
 20 60  1  0
 21 22  1  0
 21 61  1  0
 22 23  1  0
 22 48  2  0
 23 24  1  0
 23 39  2  0
 24 25  1  0
 24 32  1  0
 25 26  2  0
 25 31  1  0
 26 27  1  0
 26 62  1  0
 27 28  2  0
 27 63  1  0
 28 29  1  0
 28 30  1  0
 30 31  2  0
 30 64  1  0
 31 65  1  0
 32 33  2  0
 32 38  1  0
 33 34  1  0
 33 66  1  0
 34 35  2  0
 34 67  1  0
 35 36  1  0
 35 37  1  0
 37 38  2  0
 37 68  1  0
 38 69  1  0
 39 40  1  0
 39 70  1  0
 40 41  2  0
 40 71  1  0
 41 42  1  0
 41 48  1  0
 42 43  1  0
 42 47  2  0
 43 44  2  0
 43 72  1  0
 44 45  1  0
 44 73  1  0
 45 46  2  0
 45 74  1  0
 46 47  1  0
 49 50  2  0
 49 75  1  0
 50 76  1  0
M  END

