
     RDKit          3D

 37 38  0  0  0  0  0  0  0  0999 V2000
    2.0793    1.7947    0.5940 C   0  0  0  0  0  0  0  0  0  0  0  0
    2.1366    0.2990    0.2805 C   0  0  0  0  0  0  0  0  0  0  0  0
    2.5974    0.0225   -1.0777 N   0  0  0  0  0  0  0  0  0  0  0  0
    3.2597   -1.2654   -1.2782 C   0  0  0  0  0  0  0  0  0  0  0  0
    2.2767   -2.4386   -1.4561 C   0  0  0  0  0  0  0  0  0  0  0  0
    1.2950   -2.1965   -2.5158 N   0  0  0  0  0  0  0  0  0  0  0  0
    1.7534   -2.4808   -3.8719 C   0  0  0  0  0  0  0  0  0  0  0  0
    1.7321   -3.9782   -4.2065 C   0  0  0  0  0  0  0  0  0  0  0  0
    2.1493   -4.2755   -5.6390 C   0  0  1  0  0  0  0  0  0  0  0  0
    2.0441   -5.7273   -6.1727 C   0  0  0  0  0  0  0  0  0  0  0  0
    1.5374   -5.1918   -7.4491 N   0  0  0  0  0  0  0  0  0  0  0  0
    1.1970   -3.9086   -6.8098 C   0  0  0  0  0  0  0  0  0  0  0  0
    0.6327   -0.9079   -2.3164 C   0  0  0  0  0  0  0  0  0  0  0  0
    1.6171    0.2641   -2.1384 C   0  0  0  0  0  0  0  0  0  0  0  0
    1.7838    1.9586    1.6431 H   0  0  0  0  0  0  0  0  0  0  0  0
    1.3463    2.3224   -0.0373 H   0  0  0  0  0  0  0  0  0  0  0  0
    3.0629    2.2606    0.4269 H   0  0  0  0  0  0  0  0  0  0  0  0
    1.1493   -0.1587    0.5148 H   0  0  0  0  0  0  0  0  0  0  0  0
    2.8533   -0.1754    0.9712 H   0  0  0  0  0  0  0  0  0  0  0  0
    3.9406   -1.4589   -0.4326 H   0  0  0  0  0  0  0  0  0  0  0  0
    3.8947   -1.1858   -2.1807 H   0  0  0  0  0  0  0  0  0  0  0  0
    1.7313   -2.6058   -0.5085 H   0  0  0  0  0  0  0  0  0  0  0  0
    2.8257   -3.3704   -1.6668 H   0  0  0  0  0  0  0  0  0  0  0  0
    2.7679   -2.0790   -4.0910 H   0  0  0  0  0  0  0  0  0  0  0  0
    1.0741   -1.9612   -4.5684 H   0  0  0  0  0  0  0  0  0  0  0  0
    0.7154   -4.3627   -4.0152 H   0  0  0  0  0  0  0  0  0  0  0  0
    2.4026   -4.5254   -3.5195 H   0  0  0  0  0  0  0  0  0  0  0  0
    3.1577   -3.8738   -5.8340 H   0  0  0  0  0  0  0  0  0  0  0  0
    1.3071   -6.3195   -5.5920 H   0  0  0  0  0  0  0  0  0  0  0  0
    2.9760   -6.3154   -6.2478 H   0  0  0  0  0  0  0  0  0  0  0  0
    0.7678   -5.7012   -7.8806 H   0  0  0  0  0  0  0  0  0  0  0  0
    0.1452   -3.8270   -6.4636 H   0  0  0  0  0  0  0  0  0  0  0  0
    1.4330   -3.0111   -7.4087 H   0  0  0  0  0  0  0  0  0  0  0  0
   -0.0037   -0.9868   -1.4151 H   0  0  0  0  0  0  0  0  0  0  0  0
   -0.0471   -0.7145   -3.1628 H   0  0  0  0  0  0  0  0  0  0  0  0
    1.0694    1.1972   -1.9309 H   0  0  0  0  0  0  0  0  0  0  0  0
    2.1643    0.4278   -3.0858 H   0  0  0  0  0  0  0  0  0  0  0  0
  1  2  1  0
  1 15  1  0
  1 16  1  0
  1 17  1  0
  2  3  1  0
  2 18  1  0
  2 19  1  0
  3  4  1  0
  3 14  1  0
  4  5  1  0
  4 20  1  0
  4 21  1  0
  5  6  1  0
  5 22  1  0
  5 23  1  0
  6  7  1  0
  6 13  1  0
  7  8  1  0
  7 24  1  0
  7 25  1  0
  8  9  1  0
  8 26  1  0
  8 27  1  0
  9 10  1  0
  9 12  1  0
  9 28  1  6
 10 11  1  0
 10 29  1  0
 10 30  1  0
 11 12  1  0
 11 31  1  0
 12 32  1  0
 12 33  1  0
 13 14  1  0
 13 34  1  0
 13 35  1  0
 14 36  1  0
 14 37  1  0
M  END

