
     RDKit          3D

 35 37  0  0  0  0  0  0  0  0999 V2000
    7.5687   -3.0377    2.4041 C   0  0  0  0  0  0  0  0  0  0  0  0
    6.8267   -1.8921    2.0526 O   0  0  0  0  0  0  0  0  0  0  0  0
    5.5304   -2.0314    1.6819 C   0  0  0  0  0  0  0  0  0  0  0  0
    4.8438   -0.8489    1.3440 C   0  0  0  0  0  0  0  0  0  0  0  0
    3.5757   -0.8431    0.9543 N   0  0  0  0  0  0  0  0  0  0  0  0
    2.9158   -2.0015    0.8887 C   0  0  0  0  0  0  0  0  0  0  0  0
    3.4824   -3.2448    1.2269 C   0  0  0  0  0  0  0  0  0  0  0  0
    2.6866   -4.4982    1.1548 C   0  0  0  0  0  0  0  0  0  0  0  0
    1.3771   -4.5125    1.4744 C   0  0  0  0  0  0  0  0  0  0  0  0
    0.5284   -5.7560    1.3813 C   0  0  2  0  0  0  0  0  0  0  0  0
   -0.5160   -5.4706    1.1693 H   0  0  0  0  0  0  0  0  0  0  0  0
    0.5394   -6.5444    2.7150 C   0  0  0  0  0  0  0  0  0  0  0  0
    1.8912   -6.9833    3.0165 N   0  0  0  0  0  0  0  0  0  0  0  0
    2.4958   -7.7939    1.9727 C   0  0  0  0  0  0  0  0  0  0  0  0
    2.5160   -7.0297    0.6357 C   0  0  2  0  0  0  0  0  0  0  0  0
    2.9362   -7.7120   -0.1224 H   0  0  0  0  0  0  0  0  0  0  0  0
    3.3902   -5.7559    0.6726 C   0  0  0  0  0  0  0  0  0  0  0  0
    1.0703   -6.6645    0.2658 C   0  0  0  0  0  0  0  0  0  0  0  0
    4.8362   -3.2435    1.6166 C   0  0  0  0  0  0  0  0  0  0  0  0
    8.5780   -2.6910    2.6632 H   0  0  0  0  0  0  0  0  0  0  0  0
    7.6416   -3.7544    1.5658 H   0  0  0  0  0  0  0  0  0  0  0  0
    7.1346   -3.5575    3.2776 H   0  0  0  0  0  0  0  0  0  0  0  0
    5.3799    0.1057    1.3984 H   0  0  0  0  0  0  0  0  0  0  0  0
    1.8831   -1.9572    0.5274 H   0  0  0  0  0  0  0  0  0  0  0  0
    0.9053   -3.6047    1.8634 H   0  0  0  0  0  0  0  0  0  0  0  0
   -0.1849   -7.3874    2.6173 H   0  0  0  0  0  0  0  0  0  0  0  0
    0.1808   -5.9034    3.5373 H   0  0  0  0  0  0  0  0  0  0  0  0
    1.9417   -7.4396    3.9236 H   0  0  0  0  0  0  0  0  0  0  0  0
    1.9592   -8.7580    1.8020 H   0  0  0  0  0  0  0  0  0  0  0  0
    3.5243   -8.0530    2.2761 H   0  0  0  0  0  0  0  0  0  0  0  0
    3.7928   -5.5554   -0.3379 H   0  0  0  0  0  0  0  0  0  0  0  0
    4.2757   -5.9493    1.3027 H   0  0  0  0  0  0  0  0  0  0  0  0
    0.4565   -7.5775    0.1792 H   0  0  0  0  0  0  0  0  0  0  0  0
    1.0285   -6.1466   -0.7064 H   0  0  0  0  0  0  0  0  0  0  0  0
    5.3247   -4.1792    1.8867 H   0  0  0  0  0  0  0  0  0  0  0  0
  1  2  1  0
  1 20  1  0
  1 21  1  0
  1 22  1  0
  2  3  1  0
  3  4  2  0
  3 19  1  0
  4  5  1  0
  4 23  1  0
  5  6  2  0
  6  7  1  0
  6 24  1  0
  7  8  1  0
  7 19  2  0
  8  9  2  0
  8 17  1  0
  9 10  1  0
  9 25  1  0
 10 11  1  6
 10 12  1  0
 10 18  1  0
 12 13  1  0
 12 26  1  0
 12 27  1  0
 13 14  1  0
 13 28  1  0
 14 15  1  0
 14 29  1  0
 14 30  1  0
 15 16  1  6
 15 17  1  0
 15 18  1  0
 17 31  1  0
 17 32  1  0
 18 33  1  0
 18 34  1  0
 19 35  1  0
M  END

