
     RDKit          3D

 67 70  0  0  0  0  0  0  0  0999 V2000
    7.7121    3.3192   -5.4611 C   0  0  0  0  0  0  0  0  0  0  0  0
    8.3358    2.6859   -4.2318 C   0  0  0  0  0  0  0  0  0  0  0  0
    7.4186    2.8134   -3.1584 O   0  0  0  0  0  0  0  0  0  0  0  0
    7.7366    2.3141   -1.9356 C   0  0  0  0  0  0  0  0  0  0  0  0
    8.9424    1.6634   -1.6276 C   0  0  0  0  0  0  0  0  0  0  0  0
    9.1652    1.1846   -0.3323 C   0  0  0  0  0  0  0  0  0  0  0  0
    8.2098    1.3350    0.6808 C   0  0  0  0  0  0  0  0  0  0  0  0
    8.4834    0.8318    2.0918 C   0  0  0  0  0  0  0  0  0  0  0  0
    9.0336   -0.5640    2.1685 C   0  0  0  0  0  0  0  0  0  0  0  0
   10.3106   -0.8284    2.3476 N   0  0  0  0  0  0  0  0  0  0  0  0
   10.4145   -2.2111    2.3369 C   0  0  0  0  0  0  0  0  0  0  0  0
   11.5408   -3.0219    2.5006 C   0  0  0  0  0  0  0  0  0  0  0  0
   11.3744   -4.4494    2.4652 C   0  0  0  0  0  0  0  0  0  0  0  0
   12.4274   -5.3713    2.6163 C   0  0  0  0  0  0  0  0  0  0  0  0
   12.4911   -6.6236    2.6240 O   0  0  0  0  0  0  0  0  0  0  0  0
   13.8117   -4.8335    2.8168 N   0  0  0  0  0  0  0  0  0  0  0  0
   14.7173   -4.8861    1.6833 C   0  0  0  0  0  0  0  0  0  0  0  0
   15.9646   -4.0127    1.8616 C   0  0  0  0  0  0  0  0  0  0  0  0
   16.6242   -4.2440    3.2226 C   0  0  0  0  0  0  0  0  0  0  0  0
   15.6044   -4.0044    4.3379 C   0  0  0  0  0  0  0  0  0  0  0  0
   14.3586   -4.8798    4.1607 C   0  0  0  0  0  0  0  0  0  0  0  0
   10.0455   -4.9860    2.2668 C   0  0  0  0  0  0  0  0  0  0  0  0
    8.9391   -4.1786    2.1066 C   0  0  0  0  0  0  0  0  0  0  0  0
    9.1320   -2.7797    2.1387 C   0  0  0  0  0  0  0  0  0  0  0  0
    8.2592   -1.7021    2.0338 N   0  0  0  0  0  0  0  0  0  0  0  0
    6.8349   -1.7980    1.7632 C   0  0  0  0  0  0  0  0  0  0  0  0
    6.5100   -2.0836    0.2896 C   0  0  0  0  0  0  0  0  0  0  0  0
    5.0204   -2.3452    0.0008 C   0  0  1  0  0  0  0  0  0  0  0  0
    4.1296   -1.1364    0.3222 C   0  0  0  0  0  0  0  0  0  0  0  0
    4.8308   -2.7846   -1.4571 C   0  0  0  0  0  0  0  0  0  0  0  0
    7.0103    1.9898    0.3568 C   0  0  0  0  0  0  0  0  0  0  0  0
    6.7712    2.4740   -0.9276 C   0  0  0  0  0  0  0  0  0  0  0  0
    8.3961    3.2402   -6.3203 H   0  0  0  0  0  0  0  0  0  0  0  0
    7.4970    4.3839   -5.2828 H   0  0  0  0  0  0  0  0  0  0  0  0
    6.7674    2.8168   -5.7196 H   0  0  0  0  0  0  0  0  0  0  0  0
    9.2909    3.1841   -3.9773 H   0  0  0  0  0  0  0  0  0  0  0  0
    8.5615    1.6177   -4.4138 H   0  0  0  0  0  0  0  0  0  0  0  0
    9.7142    1.5234   -2.3846 H   0  0  0  0  0  0  0  0  0  0  0  0
   10.1070    0.6793   -0.1018 H   0  0  0  0  0  0  0  0  0  0  0  0
    7.5656    0.9246    2.6951 H   0  0  0  0  0  0  0  0  0  0  0  0
    9.2416    1.4705    2.5715 H   0  0  0  0  0  0  0  0  0  0  0  0
   12.5094   -2.5467    2.6565 H   0  0  0  0  0  0  0  0  0  0  0  0
   14.1390   -4.6103    0.7907 H   0  0  0  0  0  0  0  0  0  0  0  0
   15.0027   -5.9493    1.5606 H   0  0  0  0  0  0  0  0  0  0  0  0
   15.6784   -2.9516    1.7645 H   0  0  0  0  0  0  0  0  0  0  0  0
   16.6583   -4.2296    1.0345 H   0  0  0  0  0  0  0  0  0  0  0  0
   17.4905   -3.5753    3.3463 H   0  0  0  0  0  0  0  0  0  0  0  0
   17.0109   -5.2776    3.2821 H   0  0  0  0  0  0  0  0  0  0  0  0
   15.3019   -2.9434    4.3413 H   0  0  0  0  0  0  0  0  0  0  0  0
   16.0342   -4.2132    5.3298 H   0  0  0  0  0  0  0  0  0  0  0  0
   13.5509   -4.6009    4.8514 H   0  0  0  0  0  0  0  0  0  0  0  0
   14.5992   -5.9416    4.3649 H   0  0  0  0  0  0  0  0  0  0  0  0
    9.9395   -6.0721    2.2464 H   0  0  0  0  0  0  0  0  0  0  0  0
    7.9505   -4.6206    1.9597 H   0  0  0  0  0  0  0  0  0  0  0  0
    6.3627   -0.8617    2.0907 H   0  0  0  0  0  0  0  0  0  0  0  0
    6.4200   -2.5985    2.4006 H   0  0  0  0  0  0  0  0  0  0  0  0
    7.0950   -2.9632   -0.0269 H   0  0  0  0  0  0  0  0  0  0  0  0
    6.8648   -1.2379   -0.3250 H   0  0  0  0  0  0  0  0  0  0  0  0
    4.6969   -3.1845    0.6471 H   0  0  0  0  0  0  0  0  0  0  0  0
    4.4418   -0.2532   -0.2608 H   0  0  0  0  0  0  0  0  0  0  0  0
    4.1627   -0.8618    1.3885 H   0  0  0  0  0  0  0  0  0  0  0  0
    3.0764   -1.3461    0.0747 H   0  0  0  0  0  0  0  0  0  0  0  0
    5.1353   -1.9832   -2.1519 H   0  0  0  0  0  0  0  0  0  0  0  0
    3.7766   -3.0263   -1.6690 H   0  0  0  0  0  0  0  0  0  0  0  0
    5.4347   -3.6760   -1.6922 H   0  0  0  0  0  0  0  0  0  0  0  0
    6.2447    2.1267    1.1266 H   0  0  0  0  0  0  0  0  0  0  0  0
    5.8380    2.9828   -1.1785 H   0  0  0  0  0  0  0  0  0  0  0  0
  1  2  1  0
  1 33  1  0
  1 34  1  0
  1 35  1  0
  2  3  1  0
  2 36  1  0
  2 37  1  0
  3  4  1  0
  4  5  2  0
  4 32  1  0
  5  6  1  0
  5 38  1  0
  6  7  2  0
  6 39  1  0
  7  8  1  0
  7 31  1  0
  8  9  1  0
  8 40  1  0
  8 41  1  0
  9 10  2  0
  9 25  1  0
 10 11  1  0
 11 12  2  0
 11 24  1  0
 12 13  1  0
 12 42  1  0
 13 14  1  0
 13 22  2  0
 14 15  2  0
 14 16  1  0
 16 17  1  0
 16 21  1  0
 17 18  1  0
 17 43  1  0
 17 44  1  0
 18 19  1  0
 18 45  1  0
 18 46  1  0
 19 20  1  0
 19 47  1  0
 19 48  1  0
 20 21  1  0
 20 49  1  0
 20 50  1  0
 21 51  1  0
 21 52  1  0
 22 23  1  0
 22 53  1  0
 23 24  2  0
 23 54  1  0
 24 25  1  0
 25 26  1  0
 26 27  1  0
 26 55  1  0
 26 56  1  0
 27 28  1  0
 27 57  1  0
 27 58  1  0
 28 29  1  0
 28 30  1  0
 28 59  1  1
 29 60  1  0
 29 61  1  0
 29 62  1  0
 30 63  1  0
 30 64  1  0
 30 65  1  0
 31 32  2  0
 31 66  1  0
 32 67  1  0
M  END

