
     RDKit          3D

 39 41  0  0  0  0  0  0  0  0999 V2000
    1.2201    2.6324   -0.5387 C   0  0  0  0  0  0  0  0  0  0  0  0
    2.0013    1.5639   -1.2927 C   0  0  0  0  0  0  0  0  0  0  0  0
    3.6215    2.2444   -1.8336 S   0  0  0  0  0  0  0  0  0  0  0  0
    4.3927    0.8504   -2.4987 C   0  0  0  0  0  0  0  0  0  0  0  0
    3.8666   -0.3586   -2.4805 N   0  0  0  0  0  0  0  0  0  0  0  0
    4.6356   -1.2827   -3.0457 N   0  0  0  0  0  0  0  0  0  0  0  0
    5.7899   -0.7761   -3.5270 C   0  0  0  0  0  0  0  0  0  0  0  0
    6.6945   -1.5257   -4.1526 N   0  0  0  0  0  0  0  0  0  0  0  0
    7.9957   -0.9955   -4.5843 C   0  0  0  0  0  0  0  0  0  0  0  0
    8.1261    0.2245   -4.4570 O   0  0  0  0  0  0  0  0  0  0  0  0
    8.9556   -1.9110   -5.1170 C   0  0  0  0  0  0  0  0  0  0  0  0
   10.1636   -1.3551   -5.6787 C   0  0  0  0  0  0  0  0  0  0  0  0
   11.1123   -2.1458   -6.2886 C   0  0  0  0  0  0  0  0  0  0  0  0
   10.9348   -3.5480   -6.3888 C   0  0  0  0  0  0  0  0  0  0  0  0
    9.7759   -4.1261   -5.8344 C   0  0  0  0  0  0  0  0  0  0  0  0
    8.8225   -3.3467   -5.2047 C   0  0  0  0  0  0  0  0  0  0  0  0
    7.6892   -3.9630   -4.6603 O   0  0  0  0  0  0  0  0  0  0  0  0
    7.8159   -4.9049   -3.6613 C   0  0  0  0  0  0  0  0  0  0  0  0
    8.8963   -4.9295   -2.7702 C   0  0  0  0  0  0  0  0  0  0  0  0
    8.9198   -5.8877   -1.7530 C   0  0  0  0  0  0  0  0  0  0  0  0
    7.8810   -6.8143   -1.6164 C   0  0  0  0  0  0  0  0  0  0  0  0
    6.8062   -6.7767   -2.5106 C   0  0  0  0  0  0  0  0  0  0  0  0
    6.7697   -5.8275   -3.5342 C   0  0  0  0  0  0  0  0  0  0  0  0
    5.9941    0.9481   -3.2714 S   0  0  0  0  0  0  0  0  0  0  0  0
    0.2502    2.2135   -0.2295 H   0  0  0  0  0  0  0  0  0  0  0  0
    1.0193    3.5152   -1.1652 H   0  0  0  0  0  0  0  0  0  0  0  0
    1.7488    2.9623    0.3685 H   0  0  0  0  0  0  0  0  0  0  0  0
    1.4832    1.2194   -2.1995 H   0  0  0  0  0  0  0  0  0  0  0  0
    2.2188    0.6768   -0.6819 H   0  0  0  0  0  0  0  0  0  0  0  0
    6.5298   -2.5302   -4.2447 H   0  0  0  0  0  0  0  0  0  0  0  0
   10.2946   -0.2742   -5.6128 H   0  0  0  0  0  0  0  0  0  0  0  0
   12.0106   -1.6822   -6.7051 H   0  0  0  0  0  0  0  0  0  0  0  0
   11.6771   -4.1747   -6.8853 H   0  0  0  0  0  0  0  0  0  0  0  0
    9.6178   -5.2062   -5.8795 H   0  0  0  0  0  0  0  0  0  0  0  0
    9.7074   -4.2081   -2.8777 H   0  0  0  0  0  0  0  0  0  0  0  0
    9.7627   -5.9047   -1.0571 H   0  0  0  0  0  0  0  0  0  0  0  0
    7.9096   -7.5610   -0.8195 H   0  0  0  0  0  0  0  0  0  0  0  0
    5.9886   -7.4963   -2.4168 H   0  0  0  0  0  0  0  0  0  0  0  0
    5.9423   -5.7880   -4.2457 H   0  0  0  0  0  0  0  0  0  0  0  0
  1  2  1  0
  1 25  1  0
  1 26  1  0
  1 27  1  0
  2  3  1  0
  2 28  1  0
  2 29  1  0
  3  4  1  0
  4  5  2  0
  4 24  1  0
  5  6  1  0
  6  7  2  0
  7  8  1  0
  7 24  1  0
  8  9  1  0
  8 30  1  0
  9 10  2  0
  9 11  1  0
 11 12  2  0
 11 16  1  0
 12 13  1  0
 12 31  1  0
 13 14  2  0
 13 32  1  0
 14 15  1  0
 14 33  1  0
 15 16  2  0
 15 34  1  0
 16 17  1  0
 17 18  1  0
 18 19  2  0
 18 23  1  0
 19 20  1  0
 19 35  1  0
 20 21  2  0
 20 36  1  0
 21 22  1  0
 21 37  1  0
 22 23  2  0
 22 38  1  0
 23 39  1  0
M  END

