
     RDKit          3D

 46 48  0  0  0  0  0  0  0  0999 V2000
    1.8877   -1.5295   -0.9550 C   0  0  0  0  0  0  0  0  0  0  0  0
    1.8292   -2.7942   -1.4795 C   0  0  0  0  0  0  0  0  0  0  0  0
    0.9560   -3.3249   -2.5063 C   0  0  0  0  0  0  0  0  0  0  0  0
   -0.0570   -2.7267   -3.2710 C   0  0  0  0  0  0  0  0  0  0  0  0
   -0.7422   -3.4858   -4.2143 C   0  0  0  0  0  0  0  0  0  0  0  0
   -0.4206   -4.8626   -4.4139 C   0  0  0  0  0  0  0  0  0  0  0  0
    0.5739   -5.4754   -3.6760 C   0  0  0  0  0  0  0  0  0  0  0  0
    1.2747   -4.7162   -2.7048 C   0  0  0  0  0  0  0  0  0  0  0  0
    2.3267   -5.0638   -1.8206 C   0  0  0  0  0  0  0  0  0  0  0  0
    2.9938   -6.1463   -1.6666 O   0  0  0  0  0  0  0  0  0  0  0  0
    2.6442   -3.8906   -1.0975 N   0  0  0  0  0  0  0  0  0  0  0  0
    3.5121   -3.8901    0.0547 C   0  0  0  0  0  0  0  0  0  0  0  0
    5.0127   -4.1065   -0.1735 C   0  0  0  0  0  0  0  0  0  0  0  0
    5.8529   -3.7388    0.6347 O   0  0  0  0  0  0  0  0  0  0  0  0
    5.3301   -4.8158   -1.3012 N   0  0  0  0  0  0  0  0  0  0  0  0
    6.6670   -5.2539   -1.5452 C   0  0  0  0  0  0  0  0  0  0  0  0
    7.0810   -6.5013   -0.6996 C   0  0  0  0  0  0  0  0  0  0  0  0
    6.1336   -7.5894   -0.8190 N   0  0  0  0  0  0  0  0  0  0  0  0
    5.9127   -8.1990   -2.1240 C   0  0  0  0  0  0  0  0  0  0  0  0
    5.3964   -9.6382   -2.0227 C   0  0  0  0  0  0  0  0  0  0  0  0
    4.1816   -9.7194   -1.0957 C   0  0  0  0  0  0  0  0  0  0  0  0
    4.5455   -9.1623    0.2822 C   0  0  0  0  0  0  0  0  0  0  0  0
    5.0762   -7.7288    0.1756 C   0  0  0  0  0  0  0  0  0  0  0  0
    1.1914   -0.7710   -1.3110 H   0  0  0  0  0  0  0  0  0  0  0  0
    2.6160   -1.2268   -0.2039 H   0  0  0  0  0  0  0  0  0  0  0  0
   -0.3080   -1.6716   -3.1286 H   0  0  0  0  0  0  0  0  0  0  0  0
   -1.5341   -3.0271   -4.8111 H   0  0  0  0  0  0  0  0  0  0  0  0
   -0.9735   -5.4349   -5.1638 H   0  0  0  0  0  0  0  0  0  0  0  0
    0.8213   -6.5290   -3.8272 H   0  0  0  0  0  0  0  0  0  0  0  0
    3.2015   -4.6831    0.7619 H   0  0  0  0  0  0  0  0  0  0  0  0
    3.4101   -2.9438    0.5976 H   0  0  0  0  0  0  0  0  0  0  0  0
    4.5362   -5.3277   -1.7313 H   0  0  0  0  0  0  0  0  0  0  0  0
    7.3800   -4.4642   -1.2657 H   0  0  0  0  0  0  0  0  0  0  0  0
    6.7960   -5.4749   -2.6155 H   0  0  0  0  0  0  0  0  0  0  0  0
    7.1437   -6.2068    0.3547 H   0  0  0  0  0  0  0  0  0  0  0  0
    8.0646   -6.8611   -1.0429 H   0  0  0  0  0  0  0  0  0  0  0  0
    6.8424   -8.1243   -2.7049 H   0  0  0  0  0  0  0  0  0  0  0  0
    5.1435   -7.5726   -2.6125 H   0  0  0  0  0  0  0  0  0  0  0  0
    6.2056  -10.2924   -1.6541 H   0  0  0  0  0  0  0  0  0  0  0  0
    5.1514   -9.9769   -3.0399 H   0  0  0  0  0  0  0  0  0  0  0  0
    3.8420  -10.7626   -1.0077 H   0  0  0  0  0  0  0  0  0  0  0  0
    3.3501   -9.1329   -1.5191 H   0  0  0  0  0  0  0  0  0  0  0  0
    5.3028   -9.8030    0.7672 H   0  0  0  0  0  0  0  0  0  0  0  0
    3.6710   -9.1420    0.9478 H   0  0  0  0  0  0  0  0  0  0  0  0
    5.4546   -7.3450    1.1318 H   0  0  0  0  0  0  0  0  0  0  0  0
    4.2719   -7.0581   -0.1854 H   0  0  0  0  0  0  0  0  0  0  0  0
  1  2  2  0
  1 24  1  0
  1 25  1  0
  2  3  1  0
  2 11  1  0
  3  4  2  0
  3  8  1  0
  4  5  1  0
  4 26  1  0
  5  6  2  0
  5 27  1  0
  6  7  1  0
  6 28  1  0
  7  8  2  0
  7 29  1  0
  8  9  1  0
  9 10  2  0
  9 11  1  0
 11 12  1  0
 12 13  1  0
 12 30  1  0
 12 31  1  0
 13 14  2  0
 13 15  1  0
 15 16  1  0
 15 32  1  0
 16 17  1  0
 16 33  1  0
 16 34  1  0
 17 18  1  0
 17 35  1  0
 17 36  1  0
 18 19  1  0
 18 23  1  0
 19 20  1  0
 19 37  1  0
 19 38  1  0
 20 21  1  0
 20 39  1  0
 20 40  1  0
 21 22  1  0
 21 41  1  0
 21 42  1  0
 22 23  1  0
 22 43  1  0
 22 44  1  0
 23 45  1  0
 23 46  1  0
M  END

