
     RDKit          3D

150155  0  0  0  0  0  0  0  0999 V2000
    5.1459   -7.5748    4.1479 C   0  0  0  0  0  0  0  0  0  0  0  0
    5.8735   -7.0319    2.9172 C   0  0  0  0  0  0  0  0  0  0  0  0
    5.3639   -5.6623    2.4575 C   0  0  0  0  0  0  0  0  0  0  0  0
    6.0914   -5.1159    1.2257 C   0  0  0  0  0  0  0  0  0  0  0  0
    5.5897   -3.7420    0.7725 C   0  0  0  0  0  0  0  0  0  0  0  0
    6.3428   -3.1647   -0.4351 C   0  0  0  0  0  0  0  0  0  0  0  0
    6.2574   -3.9772   -1.6468 N   0  0  0  0  0  0  0  0  0  0  0  0
    4.9180   -4.3709   -2.0825 C   0  0  0  0  0  0  0  0  0  0  0  0
    3.9886   -3.1951   -2.4328 C   0  0  0  0  0  0  0  0  0  0  0  0
    4.4825   -2.3204   -3.5881 C   0  0  0  0  0  0  0  0  0  0  0  0
    3.5202   -1.1862   -3.9541 C   0  0  0  0  0  0  0  0  0  0  0  0
    4.0081   -0.3133   -5.1146 C   0  0  0  0  0  0  0  0  0  0  0  0
    3.0448    0.8180   -5.4763 C   0  0  0  0  0  0  0  0  0  0  0  0
    7.3660   -4.1338   -2.4722 C   0  0  0  0  0  0  0  0  0  0  0  0
    8.4881   -3.2661   -2.3898 C   0  0  0  0  0  0  0  0  0  0  0  0
    9.6074   -3.4454   -3.1894 C   0  0  0  0  0  0  0  0  0  0  0  0
    9.6840   -4.4948   -4.1364 C   0  0  0  0  0  0  0  0  0  0  0  0
   10.8283   -4.6769   -4.9485 C   0  0  0  0  0  0  0  0  0  0  0  0
   11.8253   -4.8355   -5.6465 C   0  0  0  0  0  0  0  0  0  0  0  0
   12.9786   -5.0183   -6.4422 C   0  0  0  0  0  0  0  0  0  0  0  0
   14.1280   -4.2001   -6.2711 C   0  0  0  0  0  0  0  0  0  0  0  0
   15.2568   -4.3917   -7.0459 C   0  0  0  0  0  0  0  0  0  0  0  0
   15.3255   -5.4037   -8.0457 C   0  0  0  0  0  0  0  0  0  0  0  0
   16.5309   -5.5568   -8.8162 C   0  0  0  0  0  0  0  0  0  0  0  0
   16.7584   -6.4659   -9.8260 C   0  0  0  0  0  0  0  0  0  0  0  0
   17.9606   -6.6336  -10.5906 C   0  0  0  0  0  0  0  0  0  0  0  0
   19.1461   -5.8645  -10.3948 C   0  0  0  0  0  0  0  0  0  0  0  0
   20.2799   -6.0741  -11.1519 C   0  0  0  0  0  0  0  0  0  0  0  0
   20.3405   -7.0612  -12.1809 C   0  0  0  0  0  0  0  0  0  0  0  0
   21.5388   -7.2770  -12.9758 C   0  0  0  0  0  0  0  0  0  0  0  0
   22.8045   -6.7325  -12.6026 C   0  0  0  0  0  0  0  0  0  0  0  0
   23.9470   -6.9413  -13.3466 C   0  0  0  0  0  0  0  0  0  0  0  0
   23.9298   -7.7134  -14.5458 C   0  0  0  0  0  0  0  0  0  0  0  0
   25.0864   -7.9637  -15.3563 C   0  0  0  0  0  0  0  0  0  0  0  0
   26.3741   -7.5268  -15.1348 C   0  0  0  0  0  0  0  0  0  0  0  0
   27.5264   -7.7918  -15.9544 C   0  0  0  0  0  0  0  0  0  0  0  0
   27.4889   -8.5603  -17.1552 C   0  0  0  0  0  0  0  0  0  0  0  0
   28.6268   -8.7905  -17.9036 C   0  0  0  0  0  0  0  0  0  0  0  0
   29.8893   -8.2683  -17.5075 C   0  0  0  0  0  0  0  0  0  0  0  0
   31.0520   -8.5110  -18.2710 C   0  0  0  0  0  0  0  0  0  0  0  0
   32.0634   -8.7271  -18.9330 C   0  0  0  0  0  0  0  0  0  0  0  0
   33.2280   -8.9834  -19.6912 C   0  0  0  0  0  0  0  0  0  0  0  0
   33.1894   -9.7721  -20.8681 C   0  0  0  0  0  0  0  0  0  0  0  0
   34.3297  -10.0323  -21.6097 C   0  0  0  0  0  0  0  0  0  0  0  0
   35.6029   -9.5233  -21.2242 C   0  0  0  0  0  0  0  0  0  0  0  0
   36.7438   -9.7892  -21.9547 N   0  0  0  0  0  0  0  0  0  0  0  0
   36.6809  -10.5460  -23.2050 C   0  0  0  0  0  0  0  0  0  0  0  0
   36.2138   -9.7445  -24.4323 C   0  0  0  0  0  0  0  0  0  0  0  0
   37.1348   -8.5889  -24.8336 C   0  0  0  0  0  0  0  0  0  0  0  0
   36.6582   -7.8296  -26.0759 C   0  0  0  0  0  0  0  0  0  0  0  0
   37.5750   -6.6710  -26.4804 C   0  0  0  0  0  0  0  0  0  0  0  0
   37.0928   -5.9128  -27.7179 C   0  0  0  0  0  0  0  0  0  0  0  0
   38.0547   -9.3203  -21.5054 C   0  0  0  0  0  0  0  0  0  0  0  0
   38.6987  -10.1468  -20.3793 C   0  0  0  0  0  0  0  0  0  0  0  0
   39.0017  -11.6041  -20.7388 C   0  0  0  0  0  0  0  0  0  0  0  0
   39.6811  -12.3796  -19.6057 C   0  0  0  0  0  0  0  0  0  0  0  0
   39.9814  -13.8424  -19.9473 C   0  0  0  0  0  0  0  0  0  0  0  0
   40.6653  -14.6062  -18.8125 C   0  0  0  0  0  0  0  0  0  0  0  0
   35.6371   -8.7267  -20.0439 C   0  0  0  0  0  0  0  0  0  0  0  0
   34.4919   -8.4681  -19.3093 C   0  0  0  0  0  0  0  0  0  0  0  0
   29.9377   -7.4976  -16.3141 C   0  0  0  0  0  0  0  0  0  0  0  0
   28.7953   -7.2712  -15.5698 C   0  0  0  0  0  0  0  0  0  0  0  0
   22.6679   -8.2535  -14.9241 C   0  0  0  0  0  0  0  0  0  0  0  0
   21.5262   -8.0494  -14.1751 C   0  0  0  0  0  0  0  0  0  0  0  0
   19.1510   -7.8233  -12.3788 C   0  0  0  0  0  0  0  0  0  0  0  0
   18.0184   -7.6201  -11.6159 C   0  0  0  0  0  0  0  0  0  0  0  0
   14.1653   -6.2159   -8.2117 C   0  0  0  0  0  0  0  0  0  0  0  0
   13.0349   -6.0313   -7.4389 C   0  0  0  0  0  0  0  0  0  0  0  0
    8.5618   -5.3560   -4.2286 C   0  0  0  0  0  0  0  0  0  0  0  0
    7.4455   -5.1843   -3.4266 C   0  0  0  0  0  0  0  0  0  0  0  0
    5.5389   -8.5589    4.4491 H   0  0  0  0  0  0  0  0  0  0  0  0
    4.0659   -7.6926    3.9568 H   0  0  0  0  0  0  0  0  0  0  0  0
    5.2546   -6.8956    5.0102 H   0  0  0  0  0  0  0  0  0  0  0  0
    5.7785   -7.7519    2.0840 H   0  0  0  0  0  0  0  0  0  0  0  0
    6.9560   -6.9624    3.1290 H   0  0  0  0  0  0  0  0  0  0  0  0
    5.4585   -4.9401    3.2902 H   0  0  0  0  0  0  0  0  0  0  0  0
    4.2805   -5.7300    2.2437 H   0  0  0  0  0  0  0  0  0  0  0  0
    5.9975   -5.8363    0.3941 H   0  0  0  0  0  0  0  0  0  0  0  0
    7.1745   -5.0514    1.4384 H   0  0  0  0  0  0  0  0  0  0  0  0
    5.7090   -3.0162    1.5963 H   0  0  0  0  0  0  0  0  0  0  0  0
    4.5044   -3.7819    0.5766 H   0  0  0  0  0  0  0  0  0  0  0  0
    7.4023   -3.0921   -0.1571 H   0  0  0  0  0  0  0  0  0  0  0  0
    5.9964   -2.1281   -0.6202 H   0  0  0  0  0  0  0  0  0  0  0  0
    4.4400   -4.9918   -1.3058 H   0  0  0  0  0  0  0  0  0  0  0  0
    5.0121   -5.0126   -2.9660 H   0  0  0  0  0  0  0  0  0  0  0  0
    3.8145   -2.5695   -1.5397 H   0  0  0  0  0  0  0  0  0  0  0  0
    3.0029   -3.6247   -2.6877 H   0  0  0  0  0  0  0  0  0  0  0  0
    4.6563   -2.9547   -4.4766 H   0  0  0  0  0  0  0  0  0  0  0  0
    5.4683   -1.8929   -3.3330 H   0  0  0  0  0  0  0  0  0  0  0  0
    3.3499   -0.5494   -3.0655 H   0  0  0  0  0  0  0  0  0  0  0  0
    2.5315   -1.6119   -4.2091 H   0  0  0  0  0  0  0  0  0  0  0  0
    4.1778   -0.9516   -6.0007 H   0  0  0  0  0  0  0  0  0  0  0  0
    4.9965    0.1099   -4.8589 H   0  0  0  0  0  0  0  0  0  0  0  0
    2.0580    0.4250   -5.7740 H   0  0  0  0  0  0  0  0  0  0  0  0
    3.4273    1.4232   -6.3136 H   0  0  0  0  0  0  0  0  0  0  0  0
    2.8836    1.4968   -4.6219 H   0  0  0  0  0  0  0  0  0  0  0  0
    8.4749   -2.4164   -1.7078 H   0  0  0  0  0  0  0  0  0  0  0  0
   10.4454   -2.7506   -3.1009 H   0  0  0  0  0  0  0  0  0  0  0  0
   14.1101   -3.4144   -5.5127 H   0  0  0  0  0  0  0  0  0  0  0  0
   16.1283   -3.7493   -6.8913 H   0  0  0  0  0  0  0  0  0  0  0  0
   17.3361   -4.8645   -8.5515 H   0  0  0  0  0  0  0  0  0  0  0  0
   15.9467   -7.1496  -10.0961 H   0  0  0  0  0  0  0  0  0  0  0  0
   19.1636   -5.0843   -9.6309 H   0  0  0  0  0  0  0  0  0  0  0  0
   21.1466   -5.4383  -10.9651 H   0  0  0  0  0  0  0  0  0  0  0  0
   22.8895   -6.1514  -11.6833 H   0  0  0  0  0  0  0  0  0  0  0  0
   24.8863   -6.5078  -12.9967 H   0  0  0  0  0  0  0  0  0  0  0  0
   24.8974   -8.5771  -16.2437 H   0  0  0  0  0  0  0  0  0  0  0  0
   26.5692   -6.9159  -14.2481 H   0  0  0  0  0  0  0  0  0  0  0  0
   26.5416   -8.9809  -17.4978 H   0  0  0  0  0  0  0  0  0  0  0  0
   28.5666   -9.3845  -18.8183 H   0  0  0  0  0  0  0  0  0  0  0  0
   32.2330  -10.1848  -21.1961 H   0  0  0  0  0  0  0  0  0  0  0  0
   34.2286  -10.6429  -22.5052 H   0  0  0  0  0  0  0  0  0  0  0  0
   36.0328  -11.4270  -23.0697 H   0  0  0  0  0  0  0  0  0  0  0  0
   37.6875  -10.9458  -23.3967 H   0  0  0  0  0  0  0  0  0  0  0  0
   35.1970   -9.3558  -24.2524 H   0  0  0  0  0  0  0  0  0  0  0  0
   36.1246  -10.4539  -25.2752 H   0  0  0  0  0  0  0  0  0  0  0  0
   38.1550   -8.9771  -25.0146 H   0  0  0  0  0  0  0  0  0  0  0  0
   37.2225   -7.8795  -23.9915 H   0  0  0  0  0  0  0  0  0  0  0  0
   35.6381   -7.4421  -25.8962 H   0  0  0  0  0  0  0  0  0  0  0  0
   36.5654   -8.5344  -26.9233 H   0  0  0  0  0  0  0  0  0  0  0  0
   38.5938   -7.0605  -26.6599 H   0  0  0  0  0  0  0  0  0  0  0  0
   37.6681   -5.9700  -25.6309 H   0  0  0  0  0  0  0  0  0  0  0  0
   37.0232   -6.5785  -28.5947 H   0  0  0  0  0  0  0  0  0  0  0  0
   37.7759   -5.0892  -27.9798 H   0  0  0  0  0  0  0  0  0  0  0  0
   36.0927   -5.4767  -27.5564 H   0  0  0  0  0  0  0  0  0  0  0  0
   37.9815   -8.2657  -21.1923 H   0  0  0  0  0  0  0  0  0  0  0  0
   38.7206   -9.3234  -22.3805 H   0  0  0  0  0  0  0  0  0  0  0  0
   38.0527  -10.1192  -19.4855 H   0  0  0  0  0  0  0  0  0  0  0  0
   39.6361   -9.6357  -20.0933 H   0  0  0  0  0  0  0  0  0  0  0  0
   39.6451  -11.6368  -21.6384 H   0  0  0  0  0  0  0  0  0  0  0  0
   38.0632  -12.1171  -21.0149 H   0  0  0  0  0  0  0  0  0  0  0  0
   39.0422  -12.3397  -18.7039 H   0  0  0  0  0  0  0  0  0  0  0  0
   40.6224  -11.8696  -19.3276 H   0  0  0  0  0  0  0  0  0  0  0  0
   40.6148  -13.8812  -20.8525 H   0  0  0  0  0  0  0  0  0  0  0  0
   39.0388  -14.3514  -20.2196 H   0  0  0  0  0  0  0  0  0  0  0  0
   41.6300  -14.1444  -18.5430 H   0  0  0  0  0  0  0  0  0  0  0  0
   40.8646  -15.6531  -19.0916 H   0  0  0  0  0  0  0  0  0  0  0  0
   40.0410  -14.6175  -17.9034 H   0  0  0  0  0  0  0  0  0  0  0  0
   36.5764   -8.3037  -19.6921 H   0  0  0  0  0  0  0  0  0  0  0  0
   34.5619   -7.8528  -18.4098 H   0  0  0  0  0  0  0  0  0  0  0  0
   30.8953   -7.0848  -15.9892 H   0  0  0  0  0  0  0  0  0  0  0  0
   28.8608   -6.6756  -14.6550 H   0  0  0  0  0  0  0  0  0  0  0  0
   22.6052   -8.8446  -15.8427 H   0  0  0  0  0  0  0  0  0  0  0  0
   20.5881   -8.4744  -14.5345 H   0  0  0  0  0  0  0  0  0  0  0  0
   19.1329   -8.6113  -13.1329 H   0  0  0  0  0  0  0  0  0  0  0  0
   17.1350   -8.2402  -11.7959 H   0  0  0  0  0  0  0  0  0  0  0  0
   14.1638   -7.0078   -8.9631 H   0  0  0  0  0  0  0  0  0  0  0  0
   12.1626   -6.6717   -7.5878 H   0  0  0  0  0  0  0  0  0  0  0  0
    8.5893   -6.1859   -4.9380 H   0  0  0  0  0  0  0  0  0  0  0  0
    6.6319   -5.9042   -3.5163 H   0  0  0  0  0  0  0  0  0  0  0  0
  1  2  1  0
  1 71  1  0
  1 72  1  0
  1 73  1  0
  2  3  1  0
  2 74  1  0
  2 75  1  0
  3  4  1  0
  3 76  1  0
  3 77  1  0
  4  5  1  0
  4 78  1  0
  4 79  1  0
  5  6  1  0
  5 80  1  0
  5 81  1  0
  6  7  1  0
  6 82  1  0
  6 83  1  0
  7  8  1  0
  7 14  1  0
  8  9  1  0
  8 84  1  0
  8 85  1  0
  9 10  1  0
  9 86  1  0
  9 87  1  0
 10 11  1  0
 10 88  1  0
 10 89  1  0
 11 12  1  0
 11 90  1  0
 11 91  1  0
 12 13  1  0
 12 92  1  0
 12 93  1  0
 13 94  1  0
 13 95  1  0
 13 96  1  0
 14 15  2  0
 14 70  1  0
 15 16  1  0
 15 97  1  0
 16 17  2  0
 16 98  1  0
 17 18  1  0
 17 69  1  0
 18 19  3  0
 19 20  1  0
 20 21  2  0
 20 68  1  0
 21 22  1  0
 21 99  1  0
 22 23  2  0
 22100  1  0
 23 24  1  0
 23 67  1  0
 24 25  2  0
 24101  1  0
 25 26  1  0
 25102  1  0
 26 27  2  0
 26 66  1  0
 27 28  1  0
 27103  1  0
 28 29  2  0
 28104  1  0
 29 30  1  0
 29 65  1  0
 30 31  2  0
 30 64  1  0
 31 32  1  0
 31105  1  0
 32 33  2  0
 32106  1  0
 33 34  1  0
 33 63  1  0
 34 35  2  0
 34107  1  0
 35 36  1  0
 35108  1  0
 36 37  2  0
 36 62  1  0
 37 38  1  0
 37109  1  0
 38 39  2  0
 38110  1  0
 39 40  1  0
 39 61  1  0
 40 41  3  0
 41 42  1  0
 42 43  2  0
 42 60  1  0
 43 44  1  0
 43111  1  0
 44 45  2  0
 44112  1  0
 45 46  1  0
 45 59  1  0
 46 47  1  0
 46 53  1  0
 47 48  1  0
 47113  1  0
 47114  1  0
 48 49  1  0
 48115  1  0
 48116  1  0
 49 50  1  0
 49117  1  0
 49118  1  0
 50 51  1  0
 50119  1  0
 50120  1  0
 51 52  1  0
 51121  1  0
 51122  1  0
 52123  1  0
 52124  1  0
 52125  1  0
 53 54  1  0
 53126  1  0
 53127  1  0
 54 55  1  0
 54128  1  0
 54129  1  0
 55 56  1  0
 55130  1  0
 55131  1  0
 56 57  1  0
 56132  1  0
 56133  1  0
 57 58  1  0
 57134  1  0
 57135  1  0
 58136  1  0
 58137  1  0
 58138  1  0
 59 60  2  0
 59139  1  0
 60140  1  0
 61 62  2  0
 61141  1  0
 62142  1  0
 63 64  2  0
 63143  1  0
 64144  1  0
 65 66  2  0
 65145  1  0
 66146  1  0
 67 68  2  0
 67147  1  0
 68148  1  0
 69 70  2  0
 69149  1  0
 70150  1  0
M  END

