
     RDKit          3D

 78 81  0  0  0  0  0  0  0  0999 V2000
    4.9955    3.8539   -0.9397 C   0  0  0  0  0  0  0  0  0  0  0  0
    3.8612    3.1416   -0.1743 C   0  0  1  0  0  0  0  0  0  0  0  0
    4.4971    2.1435    0.8169 C   0  0  0  0  0  0  0  0  0  0  0  0
    3.0549    4.2049    0.6068 C   0  0  0  0  0  0  0  0  0  0  0  0
    2.6422    2.2796   -1.3960 Si  0  0  1  0  0  4  0  0  0  0  0  0
    4.0388    1.0487   -2.1182 O   0  0  0  0  0  0  0  0  0  0  0  0
    4.1922   -0.1418   -2.5215 C   0  0  0  0  0  0  0  0  0  0  0  0
    5.4483   -0.4919   -3.1669 C   0  0  0  0  0  0  0  0  0  0  0  0
    5.6226   -1.7458   -3.6959 C   0  0  0  0  0  0  0  0  0  0  0  0
    4.5906   -2.7075   -3.5905 C   0  0  0  0  0  0  0  0  0  0  0  0
    3.3653   -2.4297   -2.9214 C   0  0  0  0  0  0  0  0  0  0  0  0
    2.3012   -3.4942   -2.8087 C   0  0  0  0  0  0  0  0  0  0  0  0
    2.4059   -4.4199   -1.5512 C   0  0  1  0  0  0  0  0  0  0  0  0
    2.4419   -3.5492   -0.4348 O   0  0  0  0  0  0  0  0  0  0  0  0
    2.0096   -3.6709    1.2037 Si  0  0  1  0  0  4  0  0  0  0  0  0
    0.1445   -3.5558    1.4247 C   0  0  0  0  0  0  0  0  0  0  0  0
    2.6440   -5.2840    1.9589 C   0  0  0  0  0  0  0  0  0  0  0  0
    2.8569   -2.2006    2.0026 C   0  0  0  0  0  0  0  0  0  0  0  0
    1.1676   -5.3022   -1.5389 C   0  0  0  0  0  0  0  0  0  0  0  0
    1.1677   -6.6138   -1.8126 C   0  0  0  0  0  0  0  0  0  0  0  0
    2.4016   -7.3983   -2.1752 C   0  0  0  0  0  0  0  0  0  0  0  0
    3.5833   -6.4844   -2.5279 C   0  0  0  0  0  0  0  0  0  0  0  0
    3.6729   -5.3044   -1.5551 C   0  0  0  0  0  0  0  0  0  0  0  0
    3.1722   -1.1670   -2.3945 C   0  0  0  0  0  0  0  0  0  0  0  0
    1.1785    1.4620   -0.7682 C   0  0  0  0  0  0  0  0  0  0  0  0
    0.1306    1.0035   -1.6698 C   0  0  0  0  0  0  0  0  0  0  0  0
   -1.0146    0.3825   -1.2106 C   0  0  0  0  0  0  0  0  0  0  0  0
   -1.2272    0.1430    0.1712 C   0  0  0  0  0  0  0  0  0  0  0  0
   -0.2148    0.5540    1.0742 C   0  0  0  0  0  0  0  0  0  0  0  0
    0.9409    1.1728    0.6376 C   0  0  0  0  0  0  0  0  0  0  0  0
    2.4015    3.1895   -3.0356 C   0  0  0  0  0  0  0  0  0  0  0  0
    3.3976    3.3274   -4.0261 C   0  0  0  0  0  0  0  0  0  0  0  0
    3.1811    4.0906   -5.1771 C   0  0  0  0  0  0  0  0  0  0  0  0
    1.9580    4.7390   -5.3708 C   0  0  0  0  0  0  0  0  0  0  0  0
    0.9547    4.6182   -4.4036 C   0  0  0  0  0  0  0  0  0  0  0  0
    1.1763    3.8571   -3.2527 C   0  0  0  0  0  0  0  0  0  0  0  0
    5.6575    4.3740   -0.2241 H   0  0  0  0  0  0  0  0  0  0  0  0
    4.6138    4.6087   -1.6443 H   0  0  0  0  0  0  0  0  0  0  0  0
    5.6161    3.1445   -1.5084 H   0  0  0  0  0  0  0  0  0  0  0  0
    5.1548    2.6831    1.5229 H   0  0  0  0  0  0  0  0  0  0  0  0
    5.1178    1.3954    0.3004 H   0  0  0  0  0  0  0  0  0  0  0  0
    3.7507    1.6018    1.4159 H   0  0  0  0  0  0  0  0  0  0  0  0
    3.7187    4.7377    1.3126 H   0  0  0  0  0  0  0  0  0  0  0  0
    2.2316    3.7637    1.1880 H   0  0  0  0  0  0  0  0  0  0  0  0
    2.6176    4.9602   -0.0664 H   0  0  0  0  0  0  0  0  0  0  0  0
    6.2120    0.2835   -3.2323 H   0  0  0  0  0  0  0  0  0  0  0  0
    6.5506   -2.0077   -4.2081 H   0  0  0  0  0  0  0  0  0  0  0  0
    4.7381   -3.6907   -4.0411 H   0  0  0  0  0  0  0  0  0  0  0  0
    2.3094   -4.1245   -3.7108 H   0  0  0  0  0  0  0  0  0  0  0  0
    1.3169   -3.0074   -2.7644 H   0  0  0  0  0  0  0  0  0  0  0  0
   -0.3808   -4.4533    1.0611 H   0  0  0  0  0  0  0  0  0  0  0  0
   -0.2598   -2.6738    0.9014 H   0  0  0  0  0  0  0  0  0  0  0  0
   -0.0955   -3.4437    2.4960 H   0  0  0  0  0  0  0  0  0  0  0  0
    2.2137   -6.1693    1.4635 H   0  0  0  0  0  0  0  0  0  0  0  0
    2.3597   -5.3315    3.0241 H   0  0  0  0  0  0  0  0  0  0  0  0
    3.7426   -5.3586    1.9071 H   0  0  0  0  0  0  0  0  0  0  0  0
    2.4558   -1.2568    1.5998 H   0  0  0  0  0  0  0  0  0  0  0  0
    3.9447   -2.2219    1.8272 H   0  0  0  0  0  0  0  0  0  0  0  0
    2.6880   -2.2002    3.0925 H   0  0  0  0  0  0  0  0  0  0  0  0
    0.2292   -4.7903   -1.3038 H   0  0  0  0  0  0  0  0  0  0  0  0
    0.2217   -7.1652   -1.7646 H   0  0  0  0  0  0  0  0  0  0  0  0
    2.1758   -8.0844   -3.0101 H   0  0  0  0  0  0  0  0  0  0  0  0
    2.6692   -8.0564   -1.3255 H   0  0  0  0  0  0  0  0  0  0  0  0
    3.4611   -6.1186   -3.5630 H   0  0  0  0  0  0  0  0  0  0  0  0
    4.5250   -7.0571   -2.5160 H   0  0  0  0  0  0  0  0  0  0  0  0
    4.5621   -4.6845   -1.7480 H   0  0  0  0  0  0  0  0  0  0  0  0
    3.7954   -5.6956   -0.5334 H   0  0  0  0  0  0  0  0  0  0  0  0
    2.2442   -0.9072   -1.8899 H   0  0  0  0  0  0  0  0  0  0  0  0
    0.2392    1.1630   -2.7460 H   0  0  0  0  0  0  0  0  0  0  0  0
   -1.7760    0.0736   -1.9344 H   0  0  0  0  0  0  0  0  0  0  0  0
   -2.1401   -0.3360    0.5274 H   0  0  0  0  0  0  0  0  0  0  0  0
   -0.3485    0.3827    2.1473 H   0  0  0  0  0  0  0  0  0  0  0  0
    1.6768    1.4713    1.3866 H   0  0  0  0  0  0  0  0  0  0  0  0
    4.3608    2.8295   -3.8988 H   0  0  0  0  0  0  0  0  0  0  0  0
    3.9721    4.1797   -5.9271 H   0  0  0  0  0  0  0  0  0  0  0  0
    1.7876    5.3369   -6.2702 H   0  0  0  0  0  0  0  0  0  0  0  0
   -0.0062    5.1207   -4.5445 H   0  0  0  0  0  0  0  0  0  0  0  0
    0.3818    3.7756   -2.5069 H   0  0  0  0  0  0  0  0  0  0  0  0
  2  1  1  6
  1 37  1  0
  1 38  1  0
  1 39  1  0
  2  3  1  0
  2  4  1  0
  2  5  1  0
  3 40  1  0
  3 41  1  0
  3 42  1  0
  4 43  1  0
  4 44  1  0
  4 45  1  0
  5  6  1  6
  5 25  1  0
  5 31  1  0
  6  7  1  0
  7  8  2  0
  7 24  1  0
  8  9  1  0
  8 46  1  0
  9 10  2  0
  9 47  1  0
 10 11  1  0
 10 48  1  0
 11 12  1  0
 11 24  2  0
 12 13  1  0
 12 49  1  0
 12 50  1  0
 13 14  1  1
 13 19  1  0
 13 23  1  0
 15 14  1  6
 15 16  1  0
 15 17  1  0
 15 18  1  0
 16 51  1  0
 16 52  1  0
 16 53  1  0
 17 54  1  0
 17 55  1  0
 17 56  1  0
 18 57  1  0
 18 58  1  0
 18 59  1  0
 19 20  2  0
 19 60  1  0
 20 21  1  0
 20 61  1  0
 21 22  1  0
 21 62  1  0
 21 63  1  0
 22 23  1  0
 22 64  1  0
 22 65  1  0
 23 66  1  0
 23 67  1  0
 24 68  1  0
 25 26  2  0
 25 30  1  0
 26 27  1  0
 26 69  1  0
 27 28  2  0
 27 70  1  0
 28 29  1  0
 28 71  1  0
 29 30  2  0
 29 72  1  0
 30 73  1  0
 31 32  2  0
 31 36  1  0
 32 33  1  0
 32 74  1  0
 33 34  2  0
 33 75  1  0
 34 35  1  0
 34 76  1  0
 35 36  2  0
 35 77  1  0
 36 78  1  0
M  END

