
     RDKit          3D

 39 41  0  0  0  0  0  0  0  0999 V2000
    1.3751    0.1919    0.2836 C   0  0  0  0  0  0  0  0  0  0  0  0
    2.8487    0.0406    0.1101 C   0  0  0  0  0  0  0  0  0  0  0  0
    3.9041    1.3888    0.2478 S   0  0  0  0  0  0  0  0  0  0  0  0
    5.3157    0.2734   -0.0798 C   0  0  0  0  0  0  0  0  0  0  0  0
    6.5145    0.7867   -0.1075 N   0  0  0  0  0  0  0  0  0  0  0  0
    7.8716    0.2312   -0.3666 C   0  0  0  0  0  0  0  0  0  0  0  0
    8.1148   -1.0952   -0.5901 C   0  0  0  0  0  0  0  0  0  0  0  0
    9.5133   -1.4541   -0.8282 C   0  0  0  0  0  0  0  0  0  0  0  0
   10.4376   -0.3993   -0.7999 C   0  0  0  0  0  0  0  0  0  0  0  0
   10.0450    0.9104   -0.5590 C   0  0  0  0  0  0  0  0  0  0  0  0
    8.7129    1.2625   -0.3279 N   0  0  0  0  0  0  0  0  0  0  0  0
    4.9403   -0.9811   -0.2634 N   0  0  0  0  0  0  0  0  0  0  0  0
    3.6069   -1.1420   -0.1703 C   0  0  0  0  0  0  0  0  0  0  0  0
    3.0492   -2.4655   -0.3499 C   0  0  0  0  0  0  0  0  0  0  0  0
    1.6980   -2.9490   -0.3827 C   0  0  0  0  0  0  0  0  0  0  0  0
    1.6514   -4.2484   -0.5882 N   0  0  0  0  0  0  0  0  0  0  0  0
    2.9483   -4.6419   -0.7007 N   0  0  0  0  0  0  0  0  0  0  0  0
    3.3738   -6.0327   -0.7740 C   0  0  0  0  0  0  0  0  0  0  0  0
    4.4475   -6.3117   -0.2869 O   0  0  0  0  0  0  0  0  0  0  0  0
    2.5233   -6.8970   -1.3797 N   0  0  0  0  0  0  0  0  0  0  0  0
    1.3929   -6.5601   -2.2392 C   0  0  0  0  0  0  0  0  0  0  0  0
    2.8332   -8.3185   -1.2714 C   0  0  0  0  0  0  0  0  0  0  0  0
    3.8154   -3.6158   -0.5471 C   0  0  0  0  0  0  0  0  0  0  0  0
    1.1044    1.2223    0.5489 H   0  0  0  0  0  0  0  0  0  0  0  0
    1.0008   -0.4726    1.0800 H   0  0  0  0  0  0  0  0  0  0  0  0
    0.8371   -0.0688   -0.6439 H   0  0  0  0  0  0  0  0  0  0  0  0
    6.6399    1.7875    0.0469 H   0  0  0  0  0  0  0  0  0  0  0  0
    7.3209   -1.8352   -0.5909 H   0  0  0  0  0  0  0  0  0  0  0  0
    9.8088   -2.4849   -1.0137 H   0  0  0  0  0  0  0  0  0  0  0  0
   11.5007   -0.6015   -0.9707 H   0  0  0  0  0  0  0  0  0  0  0  0
   10.7689    1.7280   -0.5388 H   0  0  0  0  0  0  0  0  0  0  0  0
    0.7662   -2.4012   -0.2642 H   0  0  0  0  0  0  0  0  0  0  0  0
    1.4715   -5.5390   -2.6231 H   0  0  0  0  0  0  0  0  0  0  0  0
    0.4326   -6.6526   -1.7071 H   0  0  0  0  0  0  0  0  0  0  0  0
    1.3936   -7.2544   -3.0945 H   0  0  0  0  0  0  0  0  0  0  0  0
    3.6111   -8.4667   -0.5146 H   0  0  0  0  0  0  0  0  0  0  0  0
    3.1974   -8.7170   -2.2343 H   0  0  0  0  0  0  0  0  0  0  0  0
    1.9258   -8.8741   -0.9843 H   0  0  0  0  0  0  0  0  0  0  0  0
    4.8917   -3.7599   -0.5716 H   0  0  0  0  0  0  0  0  0  0  0  0
  1  2  1  0
  1 24  1  0
  1 25  1  0
  1 26  1  0
  2  3  1  0
  2 13  2  0
  3  4  1  0
  4  5  1  0
  4 12  2  0
  5  6  1  0
  5 27  1  0
  6  7  2  0
  6 11  1  0
  7  8  1  0
  7 28  1  0
  8  9  2  0
  8 29  1  0
  9 10  1  0
  9 30  1  0
 10 11  2  0
 10 31  1  0
 12 13  1  0
 13 14  1  0
 14 15  1  0
 14 23  2  0
 15 16  2  0
 15 32  1  0
 16 17  1  0
 17 18  1  0
 17 23  1  0
 18 19  2  0
 18 20  1  0
 20 21  1  0
 20 22  1  0
 21 33  1  0
 21 34  1  0
 21 35  1  0
 22 36  1  0
 22 37  1  0
 22 38  1  0
 23 39  1  0
M  END

