
     RDKit          3D

 31 32  0  0  0  0  0  0  0  0999 V2000
    1.0457    1.3908   -1.8275 N   0  0  0  0  0  0  0  0  0  0  0  0
    2.1325    1.6782   -1.5488 C   0  0  0  0  0  0  0  0  0  0  0  0
    3.5151    2.0287   -1.2000 C   0  0  1  0  0  0  0  0  0  0  0  0
    3.4969    3.0799   -0.0651 C   0  0  0  0  0  0  0  0  0  0  0  0
    3.4571    4.2680   -0.2771 O   0  0  0  0  0  0  0  0  0  0  0  0
    3.5118    2.5341    1.1974 N   0  0  0  0  0  0  0  0  0  0  0  0
    3.6352    1.1749    1.5587 C   0  0  0  0  0  0  0  0  0  0  0  0
    3.5261    0.8240    2.7115 O   0  0  0  0  0  0  0  0  0  0  0  0
    3.8655    0.3321    0.5045 N   0  0  0  0  0  0  0  0  0  0  0  0
    4.3234    0.7668   -0.8152 C   0  0  2  0  0  0  0  0  0  0  0  0
    5.8422    0.9329   -0.9020 C   0  0  0  0  0  0  0  0  0  0  0  0
    6.4989    2.1677   -0.7942 C   0  0  0  0  0  0  0  0  0  0  0  0
    7.8948    2.2281   -0.8436 C   0  0  0  0  0  0  0  0  0  0  0  0
    8.6489    1.0653   -1.0012 C   0  0  0  0  0  0  0  0  0  0  0  0
    8.0133   -0.1797   -1.1134 C   0  0  0  0  0  0  0  0  0  0  0  0
    8.8167   -1.4400   -1.3382 C   0  0  0  0  0  0  0  0  0  0  0  0
    8.9929   -1.7898   -2.8072 C   0  0  1  0  0  0  0  0  0  0  0  0
    9.6218   -0.8121   -3.4801 F   0  0  0  0  0  0  0  0  0  0  0  0
    9.7204   -2.9104   -2.9462 F   0  0  0  0  0  0  0  0  0  0  0  0
    7.8098   -1.9998   -3.4129 F   0  0  0  0  0  0  0  0  0  0  0  0
    6.6147   -0.2264   -1.0689 C   0  0  0  0  0  0  0  0  0  0  0  0
    3.9669    2.5243   -2.0714 H   0  0  0  0  0  0  0  0  0  0  0  0
    3.4162    3.1775    1.9801 H   0  0  0  0  0  0  0  0  0  0  0  0
    4.0219   -0.6311    0.7808 H   0  0  0  0  0  0  0  0  0  0  0  0
    4.0421   -0.0298   -1.5195 H   0  0  0  0  0  0  0  0  0  0  0  0
    5.9413    3.0995   -0.6826 H   0  0  0  0  0  0  0  0  0  0  0  0
    8.3960    3.1954   -0.7618 H   0  0  0  0  0  0  0  0  0  0  0  0
    9.7393    1.1244   -1.0456 H   0  0  0  0  0  0  0  0  0  0  0  0
    8.3386   -2.3096   -0.8627 H   0  0  0  0  0  0  0  0  0  0  0  0
    9.8266   -1.3463   -0.9124 H   0  0  0  0  0  0  0  0  0  0  0  0
    6.1140   -1.1935   -1.1785 H   0  0  0  0  0  0  0  0  0  0  0  0
  1  2  3  0
  2  3  1  0
  3  4  1  0
  3 10  1  0
  3 22  1  6
  4  5  2  0
  4  6  1  0
  6  7  1  0
  6 23  1  0
  7  8  2  0
  7  9  1  0
  9 10  1  0
  9 24  1  0
 10 11  1  0
 10 25  1  6
 11 12  2  0
 11 21  1  0
 12 13  1  0
 12 26  1  0
 13 14  2  0
 13 27  1  0
 14 15  1  0
 14 28  1  0
 15 16  1  0
 15 21  2  0
 16 17  1  0
 16 29  1  0
 16 30  1  0
 17 18  1  6
 17 19  1  0
 17 20  1  0
 21 31  1  0
M  END

