
     RDKit          3D

 74 76  0  0  0  0  0  0  0  0999 V2000
    5.6726    3.0612    0.2356 C   0  0  0  0  0  0  0  0  0  0  0  0
    5.6231    1.6020    0.6788 C   0  0  0  0  0  0  0  0  0  0  0  0
    4.0594    1.2780    1.5835 S   0  0  0  0  0  0  0  0  0  0  0  0
    4.2598   -0.4972    1.9707 C   0  0  0  0  0  0  0  0  0  0  0  0
    5.1740   -0.8217    3.1460 C   0  0  1  0  0  0  0  0  0  0  0  0
    4.6274   -0.2542    4.3397 O   0  0  0  0  0  0  0  0  0  0  0  0
    4.9296   -1.0525    5.4523 C   0  0  2  0  0  0  0  0  0  0  0  0
    6.1805   -0.7033    6.1102 N   0  0  0  0  0  0  0  0  0  0  0  0
    7.4952   -0.9072    5.7110 C   0  0  0  0  0  0  0  0  0  0  0  0
    8.3773   -0.3802    6.5226 N   0  0  0  0  0  0  0  0  0  0  0  0
    7.6242    0.2049    7.5195 C   0  0  0  0  0  0  0  0  0  0  0  0
    7.9695    0.9207    8.6916 C   0  0  0  0  0  0  0  0  0  0  0  0
    9.2598    1.1789    9.0367 N   0  0  0  0  0  0  0  0  0  0  0  0
    9.8297    2.0688   10.4822 Si  0  0  1  0  0  4  0  0  0  0  0  0
   11.7075    2.0557   10.2889 C   0  0  0  0  0  0  0  0  0  0  0  0
    9.1689    3.8296   10.4682 C   0  0  0  0  0  0  0  0  0  0  0  0
    9.3166    1.1625   12.0492 C   0  0  0  0  0  0  0  0  0  0  0  0
    6.9707    1.3533    9.4838 N   0  0  0  0  0  0  0  0  0  0  0  0
    5.7012    1.0935    9.1421 C   0  0  0  0  0  0  0  0  0  0  0  0
    5.2563    0.4367    8.0700 N   0  0  0  0  0  0  0  0  0  0  0  0
    6.2556    0.0192    7.2878 C   0  0  0  0  0  0  0  0  0  0  0  0
    4.8635   -2.4973    4.8888 C   0  0  2  0  0  0  0  0  0  0  0  0
    5.5486   -3.4809    5.5947 O   0  0  0  0  0  0  0  0  0  0  0  0
    5.0193   -4.3244    6.9789 Si  0  0  1  0  0  4  0  0  0  0  0  0
    6.1009   -5.8570    7.0489 C   0  0  0  0  0  0  0  0  0  0  0  0
    5.2591   -3.2808    8.5227 C   0  0  0  0  0  0  0  0  0  0  0  0
    3.2007   -4.7771    6.7607 C   0  0  0  0  0  0  0  0  0  0  0  0
    5.3531   -2.3424    3.4126 C   0  0  2  0  0  0  0  0  0  0  0  0
    6.6905   -2.7054    3.2147 O   0  0  0  0  0  0  0  0  0  0  0  0
    7.3685   -4.1876    2.7366 Si  0  0  1  0  0  4  0  0  0  0  0  0
    8.1164   -3.9153    1.0292 C   0  0  0  0  0  0  0  0  0  0  0  0
    8.7105   -4.6041    3.9797 C   0  0  0  0  0  0  0  0  0  0  0  0
    6.0387   -5.5209    2.6574 C   0  0  0  0  0  0  0  0  0  0  0  0
    6.6064    3.2640   -0.3129 H   0  0  0  0  0  0  0  0  0  0  0  0
    5.6322    3.7415    1.1008 H   0  0  0  0  0  0  0  0  0  0  0  0
    4.8282    3.3060   -0.4281 H   0  0  0  0  0  0  0  0  0  0  0  0
    6.4793    1.3725    1.3337 H   0  0  0  0  0  0  0  0  0  0  0  0
    5.6766    0.9280   -0.1931 H   0  0  0  0  0  0  0  0  0  0  0  0
    4.6193   -1.0223    1.0701 H   0  0  0  0  0  0  0  0  0  0  0  0
    3.2447   -0.8653    2.1898 H   0  0  0  0  0  0  0  0  0  0  0  0
    6.1832   -0.4113    2.9640 H   0  0  0  0  0  0  0  0  0  0  0  0
    4.1579   -0.8550    6.2093 H   0  0  0  0  0  0  0  0  0  0  0  0
    7.7146   -1.4741    4.8070 H   0  0  0  0  0  0  0  0  0  0  0  0
    9.9314    0.8081    8.3697 H   0  0  0  0  0  0  0  0  0  0  0  0
   12.0248    2.5627    9.3623 H   0  0  0  0  0  0  0  0  0  0  0  0
   12.1076    1.0282   10.2701 H   0  0  0  0  0  0  0  0  0  0  0  0
   12.1854    2.5805   11.1327 H   0  0  0  0  0  0  0  0  0  0  0  0
    9.4777    4.3643    9.5551 H   0  0  0  0  0  0  0  0  0  0  0  0
    9.5405    4.3971   11.3382 H   0  0  0  0  0  0  0  0  0  0  0  0
    8.0692    3.8176   10.5038 H   0  0  0  0  0  0  0  0  0  0  0  0
    9.7254    0.1390   12.0698 H   0  0  0  0  0  0  0  0  0  0  0  0
    8.2193    1.0961   12.1030 H   0  0  0  0  0  0  0  0  0  0  0  0
    9.6779    1.6921   12.9469 H   0  0  0  0  0  0  0  0  0  0  0  0
    4.9368    1.4674    9.8338 H   0  0  0  0  0  0  0  0  0  0  0  0
    3.7826   -2.7244    4.8323 H   0  0  0  0  0  0  0  0  0  0  0  0
    7.1658   -5.5823    7.1185 H   0  0  0  0  0  0  0  0  0  0  0  0
    5.9707   -6.4914    6.1577 H   0  0  0  0  0  0  0  0  0  0  0  0
    5.8542   -6.4642    7.9357 H   0  0  0  0  0  0  0  0  0  0  0  0
    6.3198   -3.0115    8.6530 H   0  0  0  0  0  0  0  0  0  0  0  0
    4.9442   -3.8470    9.4160 H   0  0  0  0  0  0  0  0  0  0  0  0
    4.6803   -2.3437    8.4993 H   0  0  0  0  0  0  0  0  0  0  0  0
    3.0281   -5.3421    5.8299 H   0  0  0  0  0  0  0  0  0  0  0  0
    2.5480   -3.8886    6.7471 H   0  0  0  0  0  0  0  0  0  0  0  0
    2.8677   -5.4099    7.6006 H   0  0  0  0  0  0  0  0  0  0  0  0
    4.6929   -2.9340    2.7539 H   0  0  0  0  0  0  0  0  0  0  0  0
    8.8512   -3.0937    1.0488 H   0  0  0  0  0  0  0  0  0  0  0  0
    7.3422   -3.6558    0.2882 H   0  0  0  0  0  0  0  0  0  0  0  0
    8.6345   -4.8207    0.6706 H   0  0  0  0  0  0  0  0  0  0  0  0
    9.4628   -3.7998    4.0269 H   0  0  0  0  0  0  0  0  0  0  0  0
    9.2323   -5.5367    3.7078 H   0  0  0  0  0  0  0  0  0  0  0  0
    8.2814   -4.7243    4.9859 H   0  0  0  0  0  0  0  0  0  0  0  0
    5.2721   -5.2951    1.8978 H   0  0  0  0  0  0  0  0  0  0  0  0
    5.5362   -5.6382    3.6300 H   0  0  0  0  0  0  0  0  0  0  0  0
    6.4899   -6.4904    2.3874 H   0  0  0  0  0  0  0  0  0  0  0  0
  1  2  1  0
  1 34  1  0
  1 35  1  0
  1 36  1  0
  2  3  1  0
  2 37  1  0
  2 38  1  0
  3  4  1  0
  4  5  1  0
  4 39  1  0
  4 40  1  0
  5  6  1  0
  5 28  1  0
  5 41  1  6
  6  7  1  0
  7  8  1  0
  7 22  1  0
  7 42  1  1
  8  9  1  0
  8 21  1  0
  9 10  2  0
  9 43  1  0
 10 11  1  0
 11 12  1  0
 11 21  2  0
 12 13  1  0
 12 18  2  0
 14 13  1  6
 13 44  1  0
 14 15  1  0
 14 16  1  0
 14 17  1  0
 15 45  1  0
 15 46  1  0
 15 47  1  0
 16 48  1  0
 16 49  1  0
 16 50  1  0
 17 51  1  0
 17 52  1  0
 17 53  1  0
 18 19  1  0
 19 20  2  0
 19 54  1  0
 20 21  1  0
 22 23  1  0
 22 28  1  0
 22 55  1  6
 24 23  1  6
 24 25  1  0
 24 26  1  0
 24 27  1  0
 25 56  1  0
 25 57  1  0
 25 58  1  0
 26 59  1  0
 26 60  1  0
 26 61  1  0
 27 62  1  0
 27 63  1  0
 27 64  1  0
 28 29  1  0
 28 65  1  6
 30 29  1  1
 30 31  1  0
 30 32  1  0
 30 33  1  0
 31 66  1  0
 31 67  1  0
 31 68  1  0
 32 69  1  0
 32 70  1  0
 32 71  1  0
 33 72  1  0
 33 73  1  0
 33 74  1  0
M  END

