
     RDKit          3D

 70 74  0  0  0  0  0  0  0  0999 V2000
    6.5377   -0.1050   -1.8429 C   0  0  0  0  0  0  0  0  0  0  0  0
    5.5579   -0.6005   -0.9328 O   0  0  0  0  0  0  0  0  0  0  0  0
    5.5749   -0.0797    0.3083 C   0  0  0  0  0  0  0  0  0  0  0  0
    6.3528    0.7819    0.6433 O   0  0  0  0  0  0  0  0  0  0  0  0
    4.5294   -0.7372    1.2258 C   0  0  1  0  0  0  0  0  0  0  0  0
    4.3347    0.1562    2.4677 C   0  0  0  0  0  0  0  0  0  0  0  0
    3.1907   -0.8621    0.4753 C   0  0  0  0  0  0  0  0  0  0  0  0
    5.1090   -2.1037    1.6458 C   0  0  0  0  0  0  0  0  0  0  0  0
    6.3786   -2.1765    2.2391 C   0  0  0  0  0  0  0  0  0  0  0  0
    6.9304   -3.3849    2.6653 C   0  0  0  0  0  0  0  0  0  0  0  0
    6.2374   -4.6053    2.5051 C   0  0  0  0  0  0  0  0  0  0  0  0
    6.7877   -5.8395    2.8830 N   0  0  0  0  0  0  0  0  0  0  0  0
    5.9322   -6.8131    3.5630 C   0  0  0  0  0  0  0  0  0  0  0  0
    6.4590   -8.2427    3.4088 C   0  0  0  0  0  0  0  0  0  0  0  0
    7.9255   -8.3920    3.8483 C   0  0  2  0  0  0  0  0  0  0  0  0
    8.0630   -8.3962    5.3769 C   0  0  0  0  0  0  0  0  0  0  0  0
    9.4274   -8.5268    5.7876 O   0  0  0  0  0  0  0  0  0  0  0  0
    9.9251   -9.7840    5.9123 C   0  0  0  0  0  0  0  0  0  0  0  0
    9.2540  -10.7788    5.7171 O   0  0  0  0  0  0  0  0  0  0  0  0
   11.3304   -9.8023    6.3040 C   0  0  0  0  0  0  0  0  0  0  0  0
   12.1925   -8.7334    6.5437 C   0  0  0  0  0  0  0  0  0  0  0  0
   13.4428   -9.1906    6.8961 N   0  0  0  0  0  0  0  0  0  0  0  0
   13.4181  -10.5864    6.9106 C   0  0  0  0  0  0  0  0  0  0  0  0
   14.4358  -11.4909    7.2229 C   0  0  0  0  0  0  0  0  0  0  0  0
   14.1303  -12.8520    7.1463 C   0  0  0  0  0  0  0  0  0  0  0  0
   12.8442  -13.2844    6.7728 C   0  0  0  0  0  0  0  0  0  0  0  0
   11.8309  -12.3746    6.4672 C   0  0  0  0  0  0  0  0  0  0  0  0
   12.1137  -11.0008    6.5362 C   0  0  0  0  0  0  0  0  0  0  0  0
   14.5826   -8.3428    7.2036 C   0  0  0  0  0  0  0  0  0  0  0  0
   14.3104   -6.9299    6.6865 C   0  0  0  0  0  0  0  0  0  0  0  0
   12.8823   -6.5284    7.0251 C   0  0  0  0  0  0  0  0  0  0  0  0
   11.9403   -7.4262    6.4310 O   0  0  0  0  0  0  0  0  0  0  0  0
    8.7657   -7.3012    3.1640 C   0  0  0  0  0  0  0  0  0  0  0  0
    8.1794   -5.8928    3.3141 C   0  0  0  0  0  0  0  0  0  0  0  0
    4.9613   -4.5299    1.9039 C   0  0  0  0  0  0  0  0  0  0  0  0
    4.4183   -3.3154    1.4891 C   0  0  0  0  0  0  0  0  0  0  0  0
    6.3714   -0.6334   -2.7900 H   0  0  0  0  0  0  0  0  0  0  0  0
    7.5542   -0.3038   -1.4699 H   0  0  0  0  0  0  0  0  0  0  0  0
    6.4281    0.9808   -1.9869 H   0  0  0  0  0  0  0  0  0  0  0  0
    3.9372    1.1430    2.1820 H   0  0  0  0  0  0  0  0  0  0  0  0
    5.2811    0.3223    2.9983 H   0  0  0  0  0  0  0  0  0  0  0  0
    3.6245   -0.3210    3.1599 H   0  0  0  0  0  0  0  0  0  0  0  0
    2.8459    0.1315    0.1488 H   0  0  0  0  0  0  0  0  0  0  0  0
    2.4164   -1.2799    1.1367 H   0  0  0  0  0  0  0  0  0  0  0  0
    3.2772   -1.4991   -0.4144 H   0  0  0  0  0  0  0  0  0  0  0  0
    6.9611   -1.2622    2.3812 H   0  0  0  0  0  0  0  0  0  0  0  0
    7.9113   -3.3638    3.1392 H   0  0  0  0  0  0  0  0  0  0  0  0
    4.9166   -6.7595    3.1533 H   0  0  0  0  0  0  0  0  0  0  0  0
    5.8416   -6.5513    4.6408 H   0  0  0  0  0  0  0  0  0  0  0  0
    6.3795   -8.5285    2.3465 H   0  0  0  0  0  0  0  0  0  0  0  0
    5.8088   -8.9314    3.9749 H   0  0  0  0  0  0  0  0  0  0  0  0
    8.2870   -9.3769    3.5106 H   0  0  0  0  0  0  0  0  0  0  0  0
    7.4734   -9.2241    5.7977 H   0  0  0  0  0  0  0  0  0  0  0  0
    7.7226   -7.4516    5.8259 H   0  0  0  0  0  0  0  0  0  0  0  0
   15.4326  -11.1555    7.5180 H   0  0  0  0  0  0  0  0  0  0  0  0
   14.9021  -13.5889    7.3820 H   0  0  0  0  0  0  0  0  0  0  0  0
   12.6355  -14.3561    6.7229 H   0  0  0  0  0  0  0  0  0  0  0  0
   10.8318  -12.7027    6.1793 H   0  0  0  0  0  0  0  0  0  0  0  0
   15.4836   -8.7684    6.7339 H   0  0  0  0  0  0  0  0  0  0  0  0
   14.7579   -8.3312    8.2954 H   0  0  0  0  0  0  0  0  0  0  0  0
   14.4460   -6.8898    5.5931 H   0  0  0  0  0  0  0  0  0  0  0  0
   15.0208   -6.2191    7.1357 H   0  0  0  0  0  0  0  0  0  0  0  0
   12.6297   -5.5356    6.6301 H   0  0  0  0  0  0  0  0  0  0  0  0
   12.7264   -6.5143    8.1203 H   0  0  0  0  0  0  0  0  0  0  0  0
    8.8319   -7.5336    2.0877 H   0  0  0  0  0  0  0  0  0  0  0  0
    9.7915   -7.3069    3.5643 H   0  0  0  0  0  0  0  0  0  0  0  0
    8.7676   -5.2064    2.6891 H   0  0  0  0  0  0  0  0  0  0  0  0
    8.2921   -5.5380    4.3631 H   0  0  0  0  0  0  0  0  0  0  0  0
    4.3885   -5.4414    1.7259 H   0  0  0  0  0  0  0  0  0  0  0  0
    3.4331   -3.3327    1.0210 H   0  0  0  0  0  0  0  0  0  0  0  0
  1  2  1  0
  1 37  1  0
  1 38  1  0
  1 39  1  0
  2  3  1  0
  3  4  2  0
  5  3  1  6
  5  6  1  0
  5  7  1  0
  5  8  1  0
  6 40  1  0
  6 41  1  0
  6 42  1  0
  7 43  1  0
  7 44  1  0
  7 45  1  0
  8  9  2  0
  8 36  1  0
  9 10  1  0
  9 46  1  0
 10 11  2  0
 10 47  1  0
 11 12  1  0
 11 35  1  0
 12 13  1  0
 12 34  1  0
 13 14  1  0
 13 48  1  0
 13 49  1  0
 14 15  1  0
 14 50  1  0
 14 51  1  0
 15 16  1  0
 15 33  1  0
 15 52  1  6
 16 17  1  0
 16 53  1  0
 16 54  1  0
 17 18  1  0
 18 19  2  0
 18 20  1  0
 20 21  2  0
 20 28  1  0
 21 22  1  0
 21 32  1  0
 22 23  1  0
 22 29  1  0
 23 24  2  0
 23 28  1  0
 24 25  1  0
 24 55  1  0
 25 26  2  0
 25 56  1  0
 26 27  1  0
 26 57  1  0
 27 28  2  0
 27 58  1  0
 29 30  1  0
 29 59  1  0
 29 60  1  0
 30 31  1  0
 30 61  1  0
 30 62  1  0
 31 32  1  0
 31 63  1  0
 31 64  1  0
 33 34  1  0
 33 65  1  0
 33 66  1  0
 34 67  1  0
 34 68  1  0
 35 36  2  0
 35 69  1  0
 36 70  1  0
M  END

