
     RDKit          3D

 56 62  0  0  0  0  0  0  0  0999 V2000
    2.5555   -0.2396   -1.8528 C   0  0  0  0  0  0  0  0  0  0  0  0
    3.0061   -0.1518   -0.4824 N   0  0  0  0  0  0  0  0  0  0  0  0
    3.2595   -1.1954    0.3839 C   0  0  0  0  0  0  0  0  0  0  0  0
    3.6603   -0.8230    1.5695 N   0  0  0  0  0  0  0  0  0  0  0  0
    3.6846    0.5582    1.5138 C   0  0  0  0  0  0  0  0  0  0  0  0
    4.0399    1.5065    2.4851 C   0  0  0  0  0  0  0  0  0  0  0  0
    3.9767    2.8540    2.1477 C   0  0  0  0  0  0  0  0  0  0  0  0
    3.5653    3.3012    0.8616 C   0  0  0  0  0  0  0  0  0  0  0  0
    3.5170    4.7545    0.5535 C   0  0  0  0  0  0  0  0  0  0  0  0
    4.4743    5.6468    1.0734 C   0  0  0  0  0  0  0  0  0  0  0  0
    4.4310    7.0089    0.7823 C   0  0  0  0  0  0  0  0  0  0  0  0
    3.4279    7.5508   -0.0434 C   0  0  0  0  0  0  0  0  0  0  0  0
    3.3750    9.0029   -0.3499 C   0  0  0  0  0  0  0  0  0  0  0  0
    2.9448    9.4687   -1.6127 C   0  0  0  0  0  0  0  0  0  0  0  0
    2.8960   10.8234   -1.8861 C   0  0  0  0  0  0  0  0  0  0  0  0
    3.2666   11.7988   -0.9306 C   0  0  0  0  0  0  0  0  0  0  0  0
    3.2067   13.2337   -1.2268 C   0  0  0  0  0  0  0  0  0  0  0  0
    2.7763   13.7128   -2.4876 C   0  0  0  0  0  0  0  0  0  0  0  0
    2.7149   15.0670   -2.7743 C   0  0  0  0  0  0  0  0  0  0  0  0
    3.0870   16.0006   -1.7948 C   0  0  0  0  0  0  0  0  0  0  0  0
    3.5116   15.5575   -0.5522 C   0  0  0  0  0  0  0  0  0  0  0  0
    3.5844   14.1806   -0.2330 C   0  0  0  0  0  0  0  0  0  0  0  0
    4.0349   13.7185    1.0866 C   0  0  0  0  0  0  0  0  0  0  0  0
    4.4184   14.6311    2.0985 C   0  0  0  0  0  0  0  0  0  0  0  0
    4.8451   14.2056    3.3463 C   0  0  0  0  0  0  0  0  0  0  0  0
    4.9036   12.8322    3.6277 C   0  0  0  0  0  0  0  0  0  0  0  0
    4.5337   11.9176    2.6545 C   0  0  0  0  0  0  0  0  0  0  0  0
    4.0940   12.3250    1.3723 C   0  0  0  0  0  0  0  0  0  0  0  0
    3.7038   11.3484    0.3458 C   0  0  0  0  0  0  0  0  0  0  0  0
    3.7439    9.9589    0.5972 C   0  0  0  0  0  0  0  0  0  0  0  0
    2.4720    6.6591   -0.5658 C   0  0  0  0  0  0  0  0  0  0  0  0
    2.5145    5.2972   -0.2729 C   0  0  0  0  0  0  0  0  0  0  0  0
    3.2057    2.3569   -0.1139 C   0  0  0  0  0  0  0  0  0  0  0  0
    3.2724    1.0043    0.2305 C   0  0  0  0  0  0  0  0  0  0  0  0
    2.4326   -1.2966   -2.1266 H   0  0  0  0  0  0  0  0  0  0  0  0
    3.2862    0.2160   -2.5412 H   0  0  0  0  0  0  0  0  0  0  0  0
    1.5866    0.2694   -1.9859 H   0  0  0  0  0  0  0  0  0  0  0  0
    3.1214   -2.2296    0.0603 H   0  0  0  0  0  0  0  0  0  0  0  0
    4.3493    1.1832    3.4811 H   0  0  0  0  0  0  0  0  0  0  0  0
    4.2261    3.6007    2.9044 H   0  0  0  0  0  0  0  0  0  0  0  0
    5.2890    5.2620    1.6910 H   0  0  0  0  0  0  0  0  0  0  0  0
    5.2138    7.6606    1.1773 H   0  0  0  0  0  0  0  0  0  0  0  0
    2.6706    8.7543   -2.3918 H   0  0  0  0  0  0  0  0  0  0  0  0
    2.5665   11.1325   -2.8776 H   0  0  0  0  0  0  0  0  0  0  0  0
    2.4817   13.0072   -3.2638 H   0  0  0  0  0  0  0  0  0  0  0  0
    2.3779   15.4019   -3.7584 H   0  0  0  0  0  0  0  0  0  0  0  0
    3.0434   17.0718   -2.0066 H   0  0  0  0  0  0  0  0  0  0  0  0
    3.7941   16.3023    0.1909 H   0  0  0  0  0  0  0  0  0  0  0  0
    4.3824   15.7024    1.9044 H   0  0  0  0  0  0  0  0  0  0  0  0
    5.1334   14.9385    4.1038 H   0  0  0  0  0  0  0  0  0  0  0  0
    5.2379   12.4816    4.6072 H   0  0  0  0  0  0  0  0  0  0  0  0
    4.5879   10.8573    2.8983 H   0  0  0  0  0  0  0  0  0  0  0  0
    4.0492    9.6047    1.5802 H   0  0  0  0  0  0  0  0  0  0  0  0
    1.6567    7.0433   -1.1833 H   0  0  0  0  0  0  0  0  0  0  0  0
    1.7306    4.6455   -0.6660 H   0  0  0  0  0  0  0  0  0  0  0  0
    2.9137    2.6762   -1.1163 H   0  0  0  0  0  0  0  0  0  0  0  0
  1  2  1  0
  1 35  1  0
  1 36  1  0
  1 37  1  0
  2  3  1  0
  2 34  1  0
  3  4  2  0
  3 38  1  0
  4  5  1  0
  5  6  1  0
  5 34  2  0
  6  7  2  0
  6 39  1  0
  7  8  1  0
  7 40  1  0
  8  9  1  0
  8 33  2  0
  9 10  2  0
  9 32  1  0
 10 11  1  0
 10 41  1  0
 11 12  2  0
 11 42  1  0
 12 13  1  0
 12 31  1  0
 13 14  2  0
 13 30  1  0
 14 15  1  0
 14 43  1  0
 15 16  2  0
 15 44  1  0
 16 17  1  0
 16 29  1  0
 17 18  2  0
 17 22  1  0
 18 19  1  0
 18 45  1  0
 19 20  2  0
 19 46  1  0
 20 21  1  0
 20 47  1  0
 21 22  2  0
 21 48  1  0
 22 23  1  0
 23 24  1  0
 23 28  2  0
 24 25  2  0
 24 49  1  0
 25 26  1  0
 25 50  1  0
 26 27  2  0
 26 51  1  0
 27 28  1  0
 27 52  1  0
 28 29  1  0
 29 30  2  0
 30 53  1  0
 31 32  2  0
 31 54  1  0
 32 55  1  0
 33 34  1  0
 33 56  1  0
M  END

