
     RDKit          3D

 86 90  0  0  0  0  0  0  0  0999 V2000
    2.0944    0.6786    2.4650 C   0  0  0  0  0  0  0  0  0  0  0  0
    2.6657    0.1556    1.2802 O   0  0  0  0  0  0  0  0  0  0  0  0
    2.5682    0.8540    0.1273 C   0  0  0  0  0  0  0  0  0  0  0  0
    1.9611    2.1008    0.0083 C   0  0  0  0  0  0  0  0  0  0  0  0
    1.9355    2.7601   -1.2327 C   0  0  0  0  0  0  0  0  0  0  0  0
    1.2901    4.0907   -1.3402 C   0  0  0  0  0  0  0  0  0  0  0  0
    0.7608    4.6710   -0.4197 O   0  0  0  0  0  0  0  0  0  0  0  0
    2.5179    2.1727   -2.3587 C   0  0  0  0  0  0  0  0  0  0  0  0
    3.1147    0.9142   -2.2435 C   0  0  0  0  0  0  0  0  0  0  0  0
    3.9843    0.0323   -3.9708 I   0  0  0  0  0  0  0  0  0  0  0  0
    3.1544    0.2308   -1.0177 C   0  0  0  0  0  0  0  0  0  0  0  0
    3.7992   -0.9534   -0.9213 O   0  0  0  0  0  0  0  0  0  0  0  0
    3.1156   -2.1215   -0.3910 C   0  0  1  0  0  0  0  0  0  0  0  0
    2.1113   -1.8152   -0.0663 H   0  0  0  0  0  0  0  0  0  0  0  0
    3.0064   -3.1311   -1.5025 C   0  0  0  0  0  0  0  0  0  0  0  0
    3.7048   -4.2807   -1.5343 C   0  0  0  0  0  0  0  0  0  0  0  0
    3.5330   -5.2858   -2.6450 C   0  0  0  0  0  0  0  0  0  0  0  0
    3.5919   -6.4857   -2.4191 O   0  0  0  0  0  0  0  0  0  0  0  0
    3.3227   -4.7776   -3.8987 N   0  0  0  0  0  0  0  0  0  0  0  0
    3.1957   -5.6472   -5.0633 C   0  0  0  0  0  0  0  0  0  0  0  0
    1.7529   -6.0828   -5.3232 C   0  0  0  0  0  0  0  0  0  0  0  0
    0.8930   -4.9919   -5.5702 O   0  0  0  0  0  0  0  0  0  0  0  0
    4.6223   -4.7248   -0.4174 C   0  0  0  0  0  0  0  0  0  0  0  0
    5.0213   -3.6204    0.5797 C   0  0  1  0  0  0  0  0  0  0  0  0
    5.1790   -4.1071    1.5472 H   0  0  0  0  0  0  0  0  0  0  0  0
    6.2824   -2.9318    0.2489 N   0  0  0  0  0  0  0  0  0  0  0  0
    6.5412   -2.4013   -1.1052 C   0  0  0  0  0  0  0  0  0  0  0  0
    7.8683   -2.8459   -1.7549 C   0  0  1  0  0  0  0  0  0  0  0  0
    8.6660   -2.4977   -1.0871 H   0  0  0  0  0  0  0  0  0  0  0  0
    7.9836   -4.3809   -1.9590 C   0  0  0  0  0  0  0  0  0  0  0  0
    8.8768   -4.7986   -3.1575 C   0  0  0  0  0  0  0  0  0  0  0  0
    8.8885   -3.7137   -4.2456 C   0  0  1  0  0  0  0  0  0  0  0  0
    9.3038   -4.0945   -5.1945 H   0  0  0  0  0  0  0  0  0  0  0  0
    7.5070   -3.0018   -4.2760 C   0  0  0  0  0  0  0  0  0  0  0  0
    8.0534   -2.1268   -3.1106 C   0  0  2  0  0  0  0  0  0  0  0  0
    7.7215   -1.0766   -3.0505 H   0  0  0  0  0  0  0  0  0  0  0  0
    9.4936   -2.3746   -3.6908 C   0  0  2  0  0  0  0  0  0  0  0  0
    9.8403   -1.3845   -4.8131 C   0  0  0  0  0  0  0  0  0  0  0  0
   10.6868   -2.4374   -2.7344 C   0  0  0  0  0  0  0  0  0  0  0  0
    7.1290   -2.4716    1.2341 C   0  0  0  0  0  0  0  0  0  0  0  0
    8.0152   -1.6638    0.9897 O   0  0  0  0  0  0  0  0  0  0  0  0
    6.9637   -3.0271    2.6666 C   0  0  1  0  0  0  0  0  0  0  0  0
    8.1434   -2.6820    3.5821 C   0  0  0  0  0  0  0  0  0  0  0  0
    7.4623   -2.4805    4.9405 C   0  0  0  0  0  0  0  0  0  0  0  0
    6.1393   -1.8410    4.5225 C   0  0  0  0  0  0  0  0  0  0  0  0
    5.7989   -2.4498    3.2770 O   0  0  0  0  0  0  0  0  0  0  0  0
    3.8151   -2.6831    0.8570 C   0  0  2  0  0  0  0  0  0  0  0  0
    4.1491   -1.8506    1.4841 H   0  0  0  0  0  0  0  0  0  0  0  0
    2.8495   -3.3920    1.6232 O   0  0  0  0  0  0  0  0  0  0  0  0
    2.2753   -0.0702    3.2464 H   0  0  0  0  0  0  0  0  0  0  0  0
    1.0074    0.8345    2.3543 H   0  0  0  0  0  0  0  0  0  0  0  0
    2.5679    1.6328    2.7530 H   0  0  0  0  0  0  0  0  0  0  0  0
    1.5070    2.6064    0.8603 H   0  0  0  0  0  0  0  0  0  0  0  0
    1.3242    4.5420   -2.3656 H   0  0  0  0  0  0  0  0  0  0  0  0
    2.4974    2.6905   -3.3198 H   0  0  0  0  0  0  0  0  0  0  0  0
    2.3221   -2.8777   -2.3178 H   0  0  0  0  0  0  0  0  0  0  0  0
    3.4481   -3.7824   -4.0409 H   0  0  0  0  0  0  0  0  0  0  0  0
    3.8253   -6.5370   -4.9032 H   0  0  0  0  0  0  0  0  0  0  0  0
    3.5757   -5.0985   -5.9388 H   0  0  0  0  0  0  0  0  0  0  0  0
    1.4041   -6.7024   -4.4741 H   0  0  0  0  0  0  0  0  0  0  0  0
    1.7304   -6.7187   -6.2233 H   0  0  0  0  0  0  0  0  0  0  0  0
    0.8393   -4.4771   -4.7540 H   0  0  0  0  0  0  0  0  0  0  0  0
    5.5172   -5.2052   -0.8360 H   0  0  0  0  0  0  0  0  0  0  0  0
    4.1120   -5.5427    0.1200 H   0  0  0  0  0  0  0  0  0  0  0  0
    6.5397   -1.3023   -1.0488 H   0  0  0  0  0  0  0  0  0  0  0  0
    5.7005   -2.6834   -1.7481 H   0  0  0  0  0  0  0  0  0  0  0  0
    6.9750   -4.7766   -2.1533 H   0  0  0  0  0  0  0  0  0  0  0  0
    8.3216   -4.8738   -1.0336 H   0  0  0  0  0  0  0  0  0  0  0  0
    8.4924   -5.7433   -3.5784 H   0  0  0  0  0  0  0  0  0  0  0  0
    9.9087   -5.0118   -2.8351 H   0  0  0  0  0  0  0  0  0  0  0  0
    6.6093   -3.6138   -4.0924 H   0  0  0  0  0  0  0  0  0  0  0  0
    7.3438   -2.4277   -5.1973 H   0  0  0  0  0  0  0  0  0  0  0  0
    9.0367   -1.2701   -5.5546 H   0  0  0  0  0  0  0  0  0  0  0  0
   10.7444   -1.7132   -5.3529 H   0  0  0  0  0  0  0  0  0  0  0  0
   10.0489   -0.3855   -4.3949 H   0  0  0  0  0  0  0  0  0  0  0  0
   10.5495   -3.1234   -1.8886 H   0  0  0  0  0  0  0  0  0  0  0  0
   10.8937   -1.4396   -2.3121 H   0  0  0  0  0  0  0  0  0  0  0  0
   11.5933   -2.7589   -3.2754 H   0  0  0  0  0  0  0  0  0  0  0  0
    6.8246   -4.1234    2.6173 H   0  0  0  0  0  0  0  0  0  0  0  0
    8.6118   -1.7539    3.2242 H   0  0  0  0  0  0  0  0  0  0  0  0
    8.9114   -3.4692    3.5850 H   0  0  0  0  0  0  0  0  0  0  0  0
    8.0447   -1.8502    5.6293 H   0  0  0  0  0  0  0  0  0  0  0  0
    7.2788   -3.4477    5.4375 H   0  0  0  0  0  0  0  0  0  0  0  0
    6.2504   -0.7468    4.3929 H   0  0  0  0  0  0  0  0  0  0  0  0
    5.3147   -2.0203    5.2311 H   0  0  0  0  0  0  0  0  0  0  0  0
    2.4779   -4.1008    1.0800 H   0  0  0  0  0  0  0  0  0  0  0  0
  1  2  1  0
  1 50  1  0
  1 51  1  0
  1 52  1  0
  2  3  1  0
  3  4  2  0
  3 11  1  0
  4  5  1  0
  4 53  1  0
  5  6  1  0
  5  8  2  0
  6  7  2  0
  6 54  1  0
  8  9  1  0
  8 55  1  0
  9 10  1  0
  9 11  2  0
 11 12  1  0
 12 13  1  0
 13 14  1  1
 13 15  1  0
 13 47  1  0
 15 16  2  0
 15 56  1  0
 16 17  1  0
 16 23  1  0
 17 18  2  0
 17 19  1  0
 19 20  1  0
 19 57  1  0
 20 21  1  0
 20 58  1  0
 20 59  1  0
 21 22  1  0
 21 60  1  0
 21 61  1  0
 22 62  1  0
 23 24  1  0
 23 63  1  0
 23 64  1  0
 24 25  1  1
 24 26  1  0
 24 47  1  0
 26 27  1  0
 26 40  1  0
 27 28  1  0
 27 65  1  0
 27 66  1  0
 28 29  1  1
 28 30  1  0
 28 35  1  0
 30 31  1  0
 30 67  1  0
 30 68  1  0
 31 32  1  0
 31 69  1  0
 31 70  1  0
 32 33  1  6
 32 34  1  0
 32 37  1  0
 34 35  1  0
 34 71  1  0
 34 72  1  0
 35 36  1  1
 35 37  1  0
 37 38  1  6
 37 39  1  0
 38 73  1  0
 38 74  1  0
 38 75  1  0
 39 76  1  0
 39 77  1  0
 39 78  1  0
 40 41  2  0
 40 42  1  0
 42 43  1  0
 42 46  1  0
 42 79  1  6
 43 44  1  0
 43 80  1  0
 43 81  1  0
 44 45  1  0
 44 82  1  0
 44 83  1  0
 45 46  1  0
 45 84  1  0
 45 85  1  0
 47 48  1  1
 47 49  1  0
 49 86  1  0
M  END

