
     RDKit          3D

 40 42  0  0  0  0  0  0  0  0999 V2000
    0.9746    0.0711    0.7640 C   0  0  0  0  0  0  0  0  0  0  0  0
    2.3788    0.1709    0.8577 O   0  0  0  0  0  0  0  0  0  0  0  0
    2.9765    1.3732    0.6193 C   0  0  0  0  0  0  0  0  0  0  0  0
    2.2837    2.5429    0.2809 C   0  0  0  0  0  0  0  0  0  0  0  0
    3.0146    3.7293    0.0931 C   0  0  0  0  0  0  0  0  0  0  0  0
    4.3908    3.7473    0.2146 C   0  0  0  0  0  0  0  0  0  0  0  0
    5.1415    2.5703    0.5290 C   0  0  0  0  0  0  0  0  0  0  0  0
    6.5696    2.7051    0.5642 C   0  0  0  0  0  0  0  0  0  0  0  0
    7.6287    1.8061    0.5612 C   0  0  0  0  0  0  0  0  0  0  0  0
    7.5702    0.3881    0.4791 N   0  0  0  0  0  0  0  0  0  0  0  0
    8.7872   -0.1362    0.4177 C   0  0  0  0  0  0  0  0  0  0  0  0
    9.1750   -1.8412    0.3312 S   0  0  0  0  0  0  0  0  0  0  0  0
    9.6883    0.8546    0.4407 N   0  0  0  0  0  0  0  0  0  0  0  0
    9.0267    2.1573    0.5362 C   0  0  0  0  0  0  0  0  0  0  0  0
    9.6384    3.2108    0.5653 O   0  0  0  0  0  0  0  0  0  0  0  0
    4.3790    1.3874    0.7591 C   0  0  0  0  0  0  0  0  0  0  0  0
    4.9900    0.1993    1.1330 O   0  0  0  0  0  0  0  0  0  0  0  0
    4.8845   -0.1620    2.5185 C   0  0  0  0  0  0  0  0  0  0  0  0
    5.0075   -1.6611    2.6536 C   0  0  0  0  0  0  0  0  0  0  0  0
    4.4806   -2.4992    1.6566 C   0  0  0  0  0  0  0  0  0  0  0  0
    4.5494   -3.8887    1.7507 C   0  0  0  0  0  0  0  0  0  0  0  0
    5.1528   -4.4519    2.8731 C   0  0  0  0  0  0  0  0  0  0  0  0
    5.2291   -5.7842    2.9810 F   0  0  0  0  0  0  0  0  0  0  0  0
    5.6799   -3.6649    3.8921 C   0  0  0  0  0  0  0  0  0  0  0  0
    5.6000   -2.2743    3.7710 C   0  0  0  0  0  0  0  0  0  0  0  0
    6.2558   -1.3064    5.0778 Cl  0  0  0  0  0  0  0  0  0  0  0  0
    0.7196   -0.9708    1.0000 H   0  0  0  0  0  0  0  0  0  0  0  0
    0.6141    0.3067   -0.2531 H   0  0  0  0  0  0  0  0  0  0  0  0
    0.4658    0.7365    1.4841 H   0  0  0  0  0  0  0  0  0  0  0  0
    1.2004    2.5438    0.1697 H   0  0  0  0  0  0  0  0  0  0  0  0
    2.4818    4.6495   -0.1597 H   0  0  0  0  0  0  0  0  0  0  0  0
    4.9398    4.6771    0.0497 H   0  0  0  0  0  0  0  0  0  0  0  0
    6.9303    3.7373    0.5296 H   0  0  0  0  0  0  0  0  0  0  0  0
    6.6701   -0.0966    0.5527 H   0  0  0  0  0  0  0  0  0  0  0  0
   10.6945    0.7466    0.3996 H   0  0  0  0  0  0  0  0  0  0  0  0
    3.9076    0.1732    2.9037 H   0  0  0  0  0  0  0  0  0  0  0  0
    5.6685    0.3521    3.0969 H   0  0  0  0  0  0  0  0  0  0  0  0
    4.0062   -2.0276    0.7948 H   0  0  0  0  0  0  0  0  0  0  0  0
    4.1419   -4.5384    0.9741 H   0  0  0  0  0  0  0  0  0  0  0  0
    6.1447   -4.1297    4.7616 H   0  0  0  0  0  0  0  0  0  0  0  0
  1  2  1  0
  1 27  1  0
  1 28  1  0
  1 29  1  0
  2  3  1  0
  3  4  2  0
  3 16  1  0
  4  5  1  0
  4 30  1  0
  5  6  2  0
  5 31  1  0
  6  7  1  0
  6 32  1  0
  7  8  1  0
  7 16  2  0
  8  9  2  0
  8 33  1  0
  9 10  1  0
  9 14  1  0
 10 11  1  0
 10 34  1  0
 11 12  2  0
 11 13  1  0
 13 14  1  0
 13 35  1  0
 14 15  2  0
 16 17  1  0
 17 18  1  0
 18 19  1  0
 18 36  1  0
 18 37  1  0
 19 20  2  0
 19 25  1  0
 20 21  1  0
 20 38  1  0
 21 22  2  0
 21 39  1  0
 22 23  1  0
 22 24  1  0
 24 25  2  0
 24 40  1  0
 25 26  1  0
M  END

