
     RDKit          3D

 43 46  0  0  0  0  0  0  0  0999 V2000
   -0.7904   -2.2848   -8.4365 C   0  0  0  0  0  0  0  0  0  0  0  0
    0.5851   -2.0591   -8.5602 O   0  0  0  0  0  0  0  0  0  0  0  0
    1.4496   -2.8665   -7.8591 C   0  0  0  0  0  0  0  0  0  0  0  0
    2.8287   -2.5796   -8.0012 C   0  0  0  0  0  0  0  0  0  0  0  0
    3.7836   -3.3238   -7.3443 C   0  0  0  0  0  0  0  0  0  0  0  0
    3.4249   -4.4259   -6.4873 C   0  0  0  0  0  0  0  0  0  0  0  0
    4.4655   -5.1334   -5.8428 C   0  0  0  0  0  0  0  0  0  0  0  0
    5.7007   -4.9828   -5.8593 O   0  0  0  0  0  0  0  0  0  0  0  0
    4.0153   -6.2509   -4.9028 N   0  0  0  0  0  0  0  0  0  0  0  0
    3.9135   -6.0079   -3.4592 C   0  0  0  0  0  0  0  0  0  0  0  0
    3.6676   -7.3996   -2.8179 C   0  0  0  0  0  0  0  0  0  0  0  0
    3.8604   -8.3469   -3.9756 C   0  0  0  0  0  0  0  0  0  0  0  0
    3.8920   -9.6964   -4.0925 C   0  0  0  0  0  0  0  0  0  0  0  0
    4.1104  -10.2856   -5.3947 C   0  0  0  0  0  0  0  0  0  0  0  0
    4.1591  -11.6618   -5.5979 C   0  0  0  0  0  0  0  0  0  0  0  0
    4.3829  -12.1928   -6.8855 C   0  0  0  0  0  0  0  0  0  0  0  0
    4.5673  -11.3607   -7.9790 C   0  0  0  0  0  0  0  0  0  0  0  0
    4.5329   -9.9579   -7.8340 C   0  0  0  0  0  0  0  0  0  0  0  0
    4.7407   -9.2724   -8.9404 O   0  0  0  0  0  0  0  0  0  0  0  0
    4.7931   -7.8398   -9.0883 C   0  0  0  0  0  0  0  0  0  0  0  0
    4.2853   -9.3786   -6.5152 C   0  0  0  0  0  0  0  0  0  0  0  0
    4.2380   -8.0550   -6.4002 N   0  0  0  0  0  0  0  0  0  0  0  0
    4.0411   -7.5446   -5.1726 C   0  0  0  0  0  0  0  0  0  0  0  0
    2.0211   -4.6962   -6.3615 C   0  0  0  0  0  0  0  0  0  0  0  0
    1.0655   -3.9345   -7.0297 C   0  0  0  0  0  0  0  0  0  0  0  0
   -1.2972   -1.5352   -9.0615 H   0  0  0  0  0  0  0  0  0  0  0  0
   -1.1434   -2.1702   -7.3928 H   0  0  0  0  0  0  0  0  0  0  0  0
   -1.0853   -3.2931   -8.7876 H   0  0  0  0  0  0  0  0  0  0  0  0
    3.1139   -1.7447   -8.6463 H   0  0  0  0  0  0  0  0  0  0  0  0
    4.8437   -3.0898   -7.4553 H   0  0  0  0  0  0  0  0  0  0  0  0
    3.1046   -5.2879   -3.2664 H   0  0  0  0  0  0  0  0  0  0  0  0
    4.8579   -5.5449   -3.1295 H   0  0  0  0  0  0  0  0  0  0  0  0
    2.6460   -7.4808   -2.4118 H   0  0  0  0  0  0  0  0  0  0  0  0
    4.3611   -7.6072   -1.9887 H   0  0  0  0  0  0  0  0  0  0  0  0
    3.7662  -10.3563   -3.2298 H   0  0  0  0  0  0  0  0  0  0  0  0
    4.0231  -12.3354   -4.7488 H   0  0  0  0  0  0  0  0  0  0  0  0
    4.4162  -13.2756   -7.0223 H   0  0  0  0  0  0  0  0  0  0  0  0
    4.7501  -11.7587   -8.9778 H   0  0  0  0  0  0  0  0  0  0  0  0
    5.0427   -7.6876  -10.1452 H   0  0  0  0  0  0  0  0  0  0  0  0
    5.5553   -7.4020   -8.4333 H   0  0  0  0  0  0  0  0  0  0  0  0
    3.8243   -7.3891   -8.8452 H   0  0  0  0  0  0  0  0  0  0  0  0
    1.6759   -5.5169   -5.7296 H   0  0  0  0  0  0  0  0  0  0  0  0
    0.0114   -4.1835   -6.8956 H   0  0  0  0  0  0  0  0  0  0  0  0
  1  2  1  0
  1 26  1  0
  1 27  1  0
  1 28  1  0
  2  3  1  0
  3  4  2  0
  3 25  1  0
  4  5  1  0
  4 29  1  0
  5  6  2  0
  5 30  1  0
  6  7  1  0
  6 24  1  0
  7  8  2  0
  7  9  1  0
  9 10  1  0
  9 23  1  0
 10 11  1  0
 10 31  1  0
 10 32  1  0
 11 12  1  0
 11 33  1  0
 11 34  1  0
 12 13  1  0
 12 23  2  0
 13 14  2  0
 13 35  1  0
 14 15  1  0
 14 21  1  0
 15 16  2  0
 15 36  1  0
 16 17  1  0
 16 37  1  0
 17 18  2  0
 17 38  1  0
 18 19  1  0
 18 21  1  0
 19 20  1  0
 20 39  1  0
 20 40  1  0
 20 41  1  0
 21 22  2  0
 22 23  1  0
 24 25  2  0
 24 42  1  0
 25 43  1  0
M  END

