
     RDKit          3D

 88 99  0  0  0  0  0  0  0  0999 V2000
    1.7876   -0.9404   -0.9817 F   0  0  0  0  0  0  0  0  0  0  0  0
    3.0016   -0.3796   -1.1876 C   0  0  0  0  0  0  0  0  0  0  0  0
    3.2798    0.8763   -0.7024 C   0  0  0  0  0  0  0  0  0  0  0  0
    4.5687    1.4591   -0.9221 C   0  0  0  0  0  0  0  0  0  0  0  0
    4.8833    2.7716   -0.4214 C   0  0  0  0  0  0  0  0  0  0  0  0
    3.9253    3.4612    0.2702 N   0  0  0  0  0  0  0  0  0  0  0  0
    4.2663    4.6591    0.7115 C   0  0  0  0  0  0  0  0  0  0  0  0
    3.2432    5.4403    1.4715 C   0  0  0  0  0  0  0  0  0  0  0  0
    1.9576    4.9169    1.6916 C   0  0  0  0  0  0  0  0  0  0  0  0
    1.0042    5.6487    2.4003 C   0  0  0  0  0  0  0  0  0  0  0  0
    1.3192    6.9171    2.9023 C   0  0  0  0  0  0  0  0  0  0  0  0
    2.5958    7.4457    2.6885 C   0  0  0  0  0  0  0  0  0  0  0  0
    3.5508    6.7138    1.9784 C   0  0  0  0  0  0  0  0  0  0  0  0
    5.4739    5.2396    0.5308 N   0  0  0  0  0  0  0  0  0  0  0  0
    6.3641    4.4938   -0.1647 C   0  0  0  0  0  0  0  0  0  0  0  0
    7.7153    5.0886   -0.3954 C   0  0  0  0  0  0  0  0  0  0  0  0
    8.0237    6.3685    0.0950 C   0  0  0  0  0  0  0  0  0  0  0  0
    9.2864    6.9268   -0.1187 C   0  0  0  0  0  0  0  0  0  0  0  0
   10.2608    6.2158   -0.8255 C   0  0  0  0  0  0  0  0  0  0  0  0
    9.9620    4.9397   -1.3182 C   0  0  0  0  0  0  0  0  0  0  0  0
    8.7012    4.3815   -1.1052 C   0  0  0  0  0  0  0  0  0  0  0  0
    6.1285    3.2880   -0.6497 N   0  0  0  0  0  0  0  0  0  0  0  0
    5.5268    0.6884   -1.6543 C   0  0  0  0  0  0  0  0  0  0  0  0
    5.2259   -0.5719   -2.1327 C   0  0  0  0  0  0  0  0  0  0  0  0
    3.9488   -1.1361   -1.9045 C   0  0  0  0  0  0  0  0  0  0  0  0
    3.5889   -2.4439   -2.3879 N   0  0  0  0  0  0  0  0  0  0  0  0
    2.9813   -2.7093   -3.5972 C   0  0  0  0  0  0  0  0  0  0  0  0
    2.6275   -1.7817   -4.5892 C   0  0  0  0  0  0  0  0  0  0  0  0
    1.9767   -2.2660   -5.7183 C   0  0  0  0  0  0  0  0  0  0  0  0
    1.6779   -3.6355   -5.8403 C   0  0  0  0  0  0  0  0  0  0  0  0
    2.0397   -4.5560   -4.8476 C   0  0  0  0  0  0  0  0  0  0  0  0
    2.7207   -4.1103   -3.7099 C   0  0  0  0  0  0  0  0  0  0  0  0
    3.2311   -4.7127   -2.4767 C   0  0  0  0  0  0  0  0  0  0  0  0
    3.3419   -5.9942   -1.9145 C   0  0  0  0  0  0  0  0  0  0  0  0
    3.8440   -6.1124   -0.5632 C   0  0  0  0  0  0  0  0  0  0  0  0
    4.2889   -5.0191    0.1761 C   0  0  0  0  0  0  0  0  0  0  0  0
    4.2489   -3.7488   -0.3934 C   0  0  0  0  0  0  0  0  0  0  0  0
    3.7226   -3.6155   -1.6955 C   0  0  0  0  0  0  0  0  0  0  0  0
    3.8131   -7.5582   -0.0933 C   0  0  2  0  0  0  0  0  0  0  0  0
    2.9195   -7.7587    1.1381 C   0  0  0  0  0  0  0  0  0  0  0  0
    1.5624   -7.4808    1.2821 C   0  0  0  0  0  0  0  0  0  0  0  0
    0.9482   -7.7480    2.5121 C   0  0  0  0  0  0  0  0  0  0  0  0
    1.6871   -8.2836    3.5766 C   0  0  0  0  0  0  0  0  0  0  0  0
    3.0498   -8.5627    3.4334 C   0  0  0  0  0  0  0  0  0  0  0  0
    3.6679   -8.2977    2.2067 C   0  0  0  0  0  0  0  0  0  0  0  0
    5.0562   -8.4860    1.7633 C   0  0  0  0  0  0  0  0  0  0  0  0
    6.1765   -8.9861    2.4358 C   0  0  0  0  0  0  0  0  0  0  0  0
    7.3958   -9.0578    1.7550 C   0  0  0  0  0  0  0  0  0  0  0  0
    7.4988   -8.6380    0.4211 C   0  0  0  0  0  0  0  0  0  0  0  0
    6.3802   -8.1360   -0.2558 C   0  0  0  0  0  0  0  0  0  0  0  0
    5.1648   -8.0636    0.4208 C   0  0  0  0  0  0  0  0  0  0  0  0
    3.3183   -8.2699   -1.3434 C   0  0  0  0  0  0  0  0  0  0  0  0
    3.1347   -9.6368   -1.5242 C   0  0  0  0  0  0  0  0  0  0  0  0
    2.7144  -10.1029   -2.7739 C   0  0  0  0  0  0  0  0  0  0  0  0
    2.4978   -9.2066   -3.8336 C   0  0  0  0  0  0  0  0  0  0  0  0
    2.6740   -7.8367   -3.6542 C   0  0  0  0  0  0  0  0  0  0  0  0
    3.0685   -7.3493   -2.3940 C   0  0  0  0  0  0  0  0  0  0  0  0
    2.5219    1.4290   -0.1493 H   0  0  0  0  0  0  0  0  0  0  0  0
    1.7279    3.9278    1.2939 H   0  0  0  0  0  0  0  0  0  0  0  0
    0.0076    5.2287    2.5633 H   0  0  0  0  0  0  0  0  0  0  0  0
    0.5717    7.4905    3.4576 H   0  0  0  0  0  0  0  0  0  0  0  0
    2.8497    8.4359    3.0773 H   0  0  0  0  0  0  0  0  0  0  0  0
    4.5505    7.1112    1.8020 H   0  0  0  0  0  0  0  0  0  0  0  0
    7.2529    6.9099    0.6440 H   0  0  0  0  0  0  0  0  0  0  0  0
    9.5113    7.9244    0.2690 H   0  0  0  0  0  0  0  0  0  0  0  0
   11.2491    6.6530   -0.9931 H   0  0  0  0  0  0  0  0  0  0  0  0
   10.7187    4.3773   -1.8726 H   0  0  0  0  0  0  0  0  0  0  0  0
    8.4529    3.3888   -1.4827 H   0  0  0  0  0  0  0  0  0  0  0  0
    6.5093    1.1258   -1.8281 H   0  0  0  0  0  0  0  0  0  0  0  0
    5.9707   -1.1431   -2.6925 H   0  0  0  0  0  0  0  0  0  0  0  0
    2.8529   -0.7236   -4.4561 H   0  0  0  0  0  0  0  0  0  0  0  0
    1.6822   -1.5757   -6.5112 H   0  0  0  0  0  0  0  0  0  0  0  0
    1.1454   -3.9917   -6.7249 H   0  0  0  0  0  0  0  0  0  0  0  0
    1.7564   -5.5985   -4.9724 H   0  0  0  0  0  0  0  0  0  0  0  0
    4.6688   -5.1591    1.1894 H   0  0  0  0  0  0  0  0  0  0  0  0
    4.5956   -2.8648    0.1411 H   0  0  0  0  0  0  0  0  0  0  0  0
    0.9822   -7.0635    0.4553 H   0  0  0  0  0  0  0  0  0  0  0  0
   -0.1155   -7.5363    2.6432 H   0  0  0  0  0  0  0  0  0  0  0  0
    1.1917   -8.4842    4.5296 H   0  0  0  0  0  0  0  0  0  0  0  0
    3.6186   -8.9794    4.2680 H   0  0  0  0  0  0  0  0  0  0  0  0
    6.1044   -9.3150    3.4751 H   0  0  0  0  0  0  0  0  0  0  0  0
    8.2793   -9.4450    2.2682 H   0  0  0  0  0  0  0  0  0  0  0  0
    8.4598   -8.7024   -0.0946 H   0  0  0  0  0  0  0  0  0  0  0  0
    6.4657   -7.8108   -1.2958 H   0  0  0  0  0  0  0  0  0  0  0  0
    3.3255  -10.3340   -0.7055 H   0  0  0  0  0  0  0  0  0  0  0  0
    2.5666  -11.1737   -2.9322 H   0  0  0  0  0  0  0  0  0  0  0  0
    2.1937   -9.5877   -4.8109 H   0  0  0  0  0  0  0  0  0  0  0  0
    2.5323   -7.1643   -4.4959 H   0  0  0  0  0  0  0  0  0  0  0  0
  1  2  1  0
  2  3  2  0
  2 25  1  0
  3  4  1  0
  3 58  1  0
  4  5  1  0
  4 23  2  0
  5  6  2  0
  5 22  1  0
  6  7  1  0
  7  8  1  0
  7 14  2  0
  8  9  2  0
  8 13  1  0
  9 10  1  0
  9 59  1  0
 10 11  2  0
 10 60  1  0
 11 12  1  0
 11 61  1  0
 12 13  2  0
 12 62  1  0
 13 63  1  0
 14 15  1  0
 15 16  1  0
 15 22  2  0
 16 17  2  0
 16 21  1  0
 17 18  1  0
 17 64  1  0
 18 19  2  0
 18 65  1  0
 19 20  1  0
 19 66  1  0
 20 21  2  0
 20 67  1  0
 21 68  1  0
 23 24  1  0
 23 69  1  0
 24 25  2  0
 24 70  1  0
 25 26  1  0
 26 27  1  0
 26 38  1  0
 27 28  2  0
 27 32  1  0
 28 29  1  0
 28 71  1  0
 29 30  2  0
 29 72  1  0
 30 31  1  0
 30 73  1  0
 31 32  2  0
 31 74  1  0
 32 33  1  0
 33 34  1  0
 33 38  2  0
 34 35  2  0
 34 57  1  0
 35 36  1  0
 39 35  1  6
 36 37  2  0
 36 75  1  0
 37 38  1  0
 37 76  1  0
 39 40  1  0
 39 51  1  0
 39 52  1  0
 40 41  2  0
 40 45  1  0
 41 42  1  0
 41 77  1  0
 42 43  2  0
 42 78  1  0
 43 44  1  0
 43 79  1  0
 44 45  2  0
 44 80  1  0
 45 46  1  0
 46 47  2  0
 46 51  1  0
 47 48  1  0
 47 81  1  0
 48 49  2  0
 48 82  1  0
 49 50  1  0
 49 83  1  0
 50 51  2  0
 50 84  1  0
 52 53  1  0
 52 57  2  0
 53 54  2  0
 53 85  1  0
 54 55  1  0
 54 86  1  0
 55 56  2  0
 55 87  1  0
 56 57  1  0
 56 88  1  0
M  END

