
     RDKit          3D

 64 68  0  0  0  0  0  0  0  0999 V2000
    9.3289   -0.5414    6.3762 C   0  0  0  0  0  0  0  0  0  0  0  0
    9.5421   -0.3979    4.8976 C   0  0  0  0  0  0  0  0  0  0  0  0
    9.4451    0.8542    4.2463 C   0  0  0  0  0  0  0  0  0  0  0  0
    9.1488    1.9934    4.9453 O   0  0  0  0  0  0  0  0  0  0  0  0
    9.6407    1.0145    2.8502 C   0  0  0  0  0  0  0  0  0  0  0  0
    9.5494    2.2457    2.1678 C   0  0  0  0  0  0  0  0  0  0  0  0
    9.7597    2.3397    0.7620 C   0  0  0  0  0  0  0  0  0  0  0  0
    9.6386    3.6475    0.1627 C   0  0  0  0  0  0  0  0  0  0  0  0
    9.2420    4.7513    0.8898 N   0  0  0  0  0  0  0  0  0  0  0  0
    9.2141    5.7758    0.0772 C   0  0  0  0  0  0  0  0  0  0  0  0
    8.8854    7.2136    0.4037 C   0  0  1  0  0  0  0  0  0  0  0  0
    8.2056    7.3729    1.7769 C   0  0  0  0  0  0  0  0  0  0  0  0
    6.7542    6.9332    1.7989 C   0  0  0  0  0  0  0  0  0  0  0  0
    6.3744    5.6798    2.3026 C   0  0  0  0  0  0  0  0  0  0  0  0
    5.0303    5.2943    2.3124 C   0  0  0  0  0  0  0  0  0  0  0  0
    4.0459    6.1537    1.8170 C   0  0  0  0  0  0  0  0  0  0  0  0
    4.4124    7.4054    1.3124 C   0  0  0  0  0  0  0  0  0  0  0  0
    5.7553    7.7899    1.3063 C   0  0  0  0  0  0  0  0  0  0  0  0
   10.0847    8.0554    0.3247 N   0  0  0  0  0  0  0  0  0  0  0  0
   10.6285    8.4078   -0.8889 C   0  0  0  0  0  0  0  0  0  0  0  0
   10.1607    7.9989   -1.9583 O   0  0  0  0  0  0  0  0  0  0  0  0
   11.7167    9.2345   -0.8271 N   0  0  0  0  0  0  0  0  0  0  0  0
   12.3653    9.7413   -2.0319 C   0  0  0  0  0  0  0  0  0  0  0  0
   11.8681   11.1067   -2.4732 C   0  0  0  0  0  0  0  0  0  0  0  0
   10.5816   11.2527   -3.0198 C   0  0  0  0  0  0  0  0  0  0  0  0
   10.1239   12.5121   -3.4098 C   0  0  0  0  0  0  0  0  0  0  0  0
   10.9333   13.6439   -3.2653 C   0  0  0  0  0  0  0  0  0  0  0  0
   12.2112   13.4937   -2.7235 C   0  0  0  0  0  0  0  0  0  0  0  0
   13.2432   14.8935   -2.5347 Cl  0  0  0  0  0  0  0  0  0  0  0  0
   12.6821   12.2371   -2.3279 C   0  0  0  0  0  0  0  0  0  0  0  0
    9.5849    5.4206   -1.2011 N   0  0  0  0  0  0  0  0  0  0  0  0
    9.7478    6.1190   -1.9381 H   0  0  0  0  0  0  0  0  0  0  0  0
    9.8677    4.0950   -1.1789 C   0  0  0  0  0  0  0  0  0  0  0  0
   10.4046    3.3130   -2.5955 Cl  0  0  0  0  0  0  0  0  0  0  0  0
   10.0690    1.1764    0.0112 C   0  0  0  0  0  0  0  0  0  0  0  0
   10.1596   -0.0584    0.6728 C   0  0  0  0  0  0  0  0  0  0  0  0
    9.9545   -0.1577    2.0619 C   0  0  0  0  0  0  0  0  0  0  0  0
   10.0401   -1.3452    2.7202 N   0  0  0  0  0  0  0  0  0  0  0  0
   10.2574   -2.1967    2.2103 H   0  0  0  0  0  0  0  0  0  0  0  0
    9.8509   -1.5612    4.1262 C   0  0  0  0  0  0  0  0  0  0  0  0
    9.9746   -2.7219    4.5196 O   0  0  0  0  0  0  0  0  0  0  0  0
   10.0492    0.0503    6.9774 H   0  0  0  0  0  0  0  0  0  0  0  0
    9.4586   -1.5952    6.6588 H   0  0  0  0  0  0  0  0  0  0  0  0
    8.3117   -0.2388    6.6992 H   0  0  0  0  0  0  0  0  0  0  0  0
    9.0358    1.7594    5.8752 H   0  0  0  0  0  0  0  0  0  0  0  0
    9.3235    3.1466    2.7327 H   0  0  0  0  0  0  0  0  0  0  0  0
    8.2054    7.5818   -0.3806 H   0  0  0  0  0  0  0  0  0  0  0  0
    8.2642    8.4422    2.0347 H   0  0  0  0  0  0  0  0  0  0  0  0
    8.7824    6.8135    2.5292 H   0  0  0  0  0  0  0  0  0  0  0  0
    7.1387    4.9971    2.6789 H   0  0  0  0  0  0  0  0  0  0  0  0
    4.7537    4.3145    2.7099 H   0  0  0  0  0  0  0  0  0  0  0  0
    2.9956    5.8513    1.8268 H   0  0  0  0  0  0  0  0  0  0  0  0
    3.6493    8.0878    0.9291 H   0  0  0  0  0  0  0  0  0  0  0  0
    6.0306    8.7770    0.9211 H   0  0  0  0  0  0  0  0  0  0  0  0
   10.6520    8.1335    1.1622 H   0  0  0  0  0  0  0  0  0  0  0  0
   11.8813    9.7420    0.0354 H   0  0  0  0  0  0  0  0  0  0  0  0
   12.1765    8.9997   -2.8200 H   0  0  0  0  0  0  0  0  0  0  0  0
   13.4516    9.7761   -1.8548 H   0  0  0  0  0  0  0  0  0  0  0  0
    9.9487   10.3701   -3.1391 H   0  0  0  0  0  0  0  0  0  0  0  0
    9.1246   12.6199   -3.8393 H   0  0  0  0  0  0  0  0  0  0  0  0
   10.5838   14.6314   -3.5707 H   0  0  0  0  0  0  0  0  0  0  0  0
   13.6891   12.1498   -1.9135 H   0  0  0  0  0  0  0  0  0  0  0  0
   10.2203    1.2183   -1.0639 H   0  0  0  0  0  0  0  0  0  0  0  0
   10.3896   -0.9664    0.1093 H   0  0  0  0  0  0  0  0  0  0  0  0
  1  2  1  0
  1 42  1  0
  1 43  1  0
  1 44  1  0
  2  3  2  0
  2 40  1  0
  3  4  1  0
  3  5  1  0
  4 45  1  0
  5  6  2  0
  5 37  1  0
  6  7  1  0
  6 46  1  0
  7  8  1  0
  7 35  2  0
  8  9  1  0
  8 33  2  0
  9 10  2  0
 10 11  1  0
 10 31  1  0
 11 12  1  0
 11 19  1  0
 11 47  1  6
 12 13  1  0
 12 48  1  0
 12 49  1  0
 13 14  2  0
 13 18  1  0
 14 15  1  0
 14 50  1  0
 15 16  2  0
 15 51  1  0
 16 17  1  0
 16 52  1  0
 17 18  2  0
 17 53  1  0
 18 54  1  0
 19 20  1  0
 19 55  1  0
 20 21  2  0
 20 22  1  0
 22 23  1  0
 22 56  1  0
 23 24  1  0
 23 57  1  0
 23 58  1  0
 24 25  2  0
 24 30  1  0
 25 26  1  0
 25 59  1  0
 26 27  2  0
 26 60  1  0
 27 28  1  0
 27 61  1  0
 28 29  1  0
 28 30  2  0
 30 62  1  0
 31 32  1  0
 31 33  1  0
 33 34  1  0
 35 36  1  0
 35 63  1  0
 36 37  2  0
 36 64  1  0
 37 38  1  0
 38 39  1  0
 38 40  1  0
 40 41  2  0
M  END

