
     RDKit          3D

 63 67  0  0  0  0  0  0  0  0999 V2000
    8.5377    2.4044   -1.2021 C   0  0  0  0  0  0  0  0  0  0  0  0
    7.5217    1.3632   -0.7120 C   0  0  1  0  0  0  0  0  0  0  0  0
    7.8704    1.0166    0.2777 H   0  0  0  0  0  0  0  0  0  0  0  0
    6.0852    1.8929   -0.5191 C   0  0  0  0  0  0  0  0  0  0  0  0
    5.2672    2.0558   -1.8198 C   0  0  1  0  0  0  0  0  0  0  0  0
    4.2046    2.1065   -1.5202 H   0  0  0  0  0  0  0  0  0  0  0  0
    5.5614    3.3361   -2.6127 C   0  0  0  0  0  0  0  0  0  0  0  0
    5.4037    0.7766   -2.6680 C   0  0  0  0  0  0  0  0  0  0  0  0
    6.7931    0.3500   -2.8682 N   0  0  0  0  0  0  0  0  0  0  0  0
    7.3797    0.3942   -4.1096 C   0  0  0  0  0  0  0  0  0  0  0  0
    6.7826    1.2095   -5.0055 N   0  0  0  0  0  0  0  0  0  0  0  0
    7.3206    1.3997   -6.1929 C   0  0  0  0  0  0  0  0  0  0  0  0
    6.7004    2.2692   -7.1473 C   0  0  0  0  0  0  0  0  0  0  0  0
    7.2787    2.5115   -8.3656 C   0  0  0  0  0  0  0  0  0  0  0  0
    8.5135    1.8871   -8.7008 C   0  0  0  0  0  0  0  0  0  0  0  0
    9.0941    1.0456   -7.7958 C   0  0  0  0  0  0  0  0  0  0  0  0
    8.5158    0.8021   -6.5728 N   0  0  0  0  0  0  0  0  0  0  0  0
    9.1793   -0.1813   -5.7083 C   0  0  0  0  0  0  0  0  0  0  0  0
   10.1446   -0.7658   -6.1627 O   0  0  0  0  0  0  0  0  0  0  0  0
    8.5325   -0.3770   -4.4357 C   0  0  0  0  0  0  0  0  0  0  0  0
    8.9213   -1.5344   -3.6475 C   0  0  0  0  0  0  0  0  0  0  0  0
   10.1721   -2.0191   -3.4237 C   0  0  0  0  0  0  0  0  0  0  0  0
   10.5089   -3.6111   -2.7318 S   0  0  0  0  0  0  0  0  0  0  0  0
   12.2661   -3.3733   -2.8170 C   0  0  0  0  0  0  0  0  0  0  0  0
   13.3033   -4.5590   -2.3393 S   0  0  0  0  0  0  0  0  0  0  0  0
   12.5488   -2.1192   -3.3055 N   0  0  0  0  0  0  0  0  0  0  0  0
   13.9150   -1.5530   -3.4826 C   0  0  2  0  0  0  0  0  0  0  0  0
   13.6900   -0.5548   -3.8826 H   0  0  0  0  0  0  0  0  0  0  0  0
   14.7104   -2.3058   -4.5504 C   0  0  0  0  0  0  0  0  0  0  0  0
   14.6151   -1.3245   -2.1439 C   0  0  0  0  0  0  0  0  0  0  0  0
   14.1065   -0.3346   -1.2853 C   0  0  0  0  0  0  0  0  0  0  0  0
   14.7173   -0.0649   -0.0591 C   0  0  0  0  0  0  0  0  0  0  0  0
   15.8593   -0.7747    0.3255 C   0  0  0  0  0  0  0  0  0  0  0  0
   16.3799   -1.7524   -0.5253 C   0  0  0  0  0  0  0  0  0  0  0  0
   15.7611   -2.0272   -1.7491 C   0  0  0  0  0  0  0  0  0  0  0  0
   11.4429   -1.2804   -3.6006 C   0  0  0  0  0  0  0  0  0  0  0  0
   11.5651   -0.1061   -3.8776 O   0  0  0  0  0  0  0  0  0  0  0  0
    7.5061    0.1087   -1.6109 C   0  0  0  0  0  0  0  0  0  0  0  0
    8.5065    3.3114   -0.5773 H   0  0  0  0  0  0  0  0  0  0  0  0
    8.3592    2.7117   -2.2426 H   0  0  0  0  0  0  0  0  0  0  0  0
    9.5612    1.9990   -1.1558 H   0  0  0  0  0  0  0  0  0  0  0  0
    6.1039    2.8437    0.0403 H   0  0  0  0  0  0  0  0  0  0  0  0
    5.5494    1.1718    0.1241 H   0  0  0  0  0  0  0  0  0  0  0  0
    6.5507    3.3218   -3.0890 H   0  0  0  0  0  0  0  0  0  0  0  0
    5.5078    4.2215   -1.9583 H   0  0  0  0  0  0  0  0  0  0  0  0
    4.8221    3.4675   -3.4187 H   0  0  0  0  0  0  0  0  0  0  0  0
    4.9330    0.9027   -3.6487 H   0  0  0  0  0  0  0  0  0  0  0  0
    4.8896   -0.0505   -2.1423 H   0  0  0  0  0  0  0  0  0  0  0  0
    5.7590    2.7261   -6.8420 H   0  0  0  0  0  0  0  0  0  0  0  0
    6.7948    3.1830   -9.0790 H   0  0  0  0  0  0  0  0  0  0  0  0
    8.9979    2.0649   -9.6614 H   0  0  0  0  0  0  0  0  0  0  0  0
   10.0253    0.5008   -7.9510 H   0  0  0  0  0  0  0  0  0  0  0  0
    8.0865   -2.1178   -3.2381 H   0  0  0  0  0  0  0  0  0  0  0  0
   15.6570   -1.7768   -4.7396 H   0  0  0  0  0  0  0  0  0  0  0  0
   14.1395   -2.3286   -5.4909 H   0  0  0  0  0  0  0  0  0  0  0  0
   14.9347   -3.3390   -4.2570 H   0  0  0  0  0  0  0  0  0  0  0  0
   13.2254    0.2363   -1.5917 H   0  0  0  0  0  0  0  0  0  0  0  0
   14.3062    0.7094    0.5942 H   0  0  0  0  0  0  0  0  0  0  0  0
   16.3429   -0.5635    1.2829 H   0  0  0  0  0  0  0  0  0  0  0  0
   17.2720   -2.3132   -0.2340 H   0  0  0  0  0  0  0  0  0  0  0  0
   16.1745   -2.8044   -2.3926 H   0  0  0  0  0  0  0  0  0  0  0  0
    8.5335   -0.2066   -1.8190 H   0  0  0  0  0  0  0  0  0  0  0  0
    7.0095   -0.7208   -1.0741 H   0  0  0  0  0  0  0  0  0  0  0  0
  1  2  1  0
  1 39  1  0
  1 40  1  0
  1 41  1  0
  2  3  1  1
  2  4  1  0
  2 38  1  0
  4  5  1  0
  4 42  1  0
  4 43  1  0
  5  6  1  1
  5  7  1  0
  5  8  1  0
  7 44  1  0
  7 45  1  0
  7 46  1  0
  8  9  1  0
  8 47  1  0
  8 48  1  0
  9 10  1  0
  9 38  1  0
 10 11  1  0
 10 20  2  0
 11 12  2  0
 12 13  1  0
 12 17  1  0
 13 14  2  0
 13 49  1  0
 14 15  1  0
 14 50  1  0
 15 16  2  0
 15 51  1  0
 16 17  1  0
 16 52  1  0
 17 18  1  0
 18 19  2  0
 18 20  1  0
 20 21  1  0
 21 22  2  0
 21 53  1  0
 22 23  1  0
 22 36  1  0
 23 24  1  0
 24 25  2  0
 24 26  1  0
 26 27  1  0
 26 36  1  0
 27 28  1  6
 27 29  1  0
 27 30  1  0
 29 54  1  0
 29 55  1  0
 29 56  1  0
 30 31  2  0
 30 35  1  0
 31 32  1  0
 31 57  1  0
 32 33  2  0
 32 58  1  0
 33 34  1  0
 33 59  1  0
 34 35  2  0
 34 60  1  0
 35 61  1  0
 36 37  2  0
 38 62  1  0
 38 63  1  0
M  END

