
     RDKit          3D

 35 36  0  0  0  0  0  0  0  0999 V2000
    3.8949   -2.5771   -2.8477 C   0  0  0  0  0  0  0  0  0  0  0  0
    2.8805   -2.0911   -1.8166 C   0  0  0  0  0  0  0  0  0  0  0  0
    3.0083   -0.5637   -1.5255 C   0  0  1  0  0  0  0  0  0  0  0  0
    2.6289    0.3807   -2.6976 C   0  0  0  0  0  0  0  0  0  0  0  0
    1.1316    0.4949   -2.9346 C   0  0  0  0  0  0  0  0  0  0  0  0
    0.4218    1.5055   -2.2582 C   0  0  0  0  0  0  0  0  0  0  0  0
   -1.0148    1.6248   -2.3786 C   0  0  0  0  0  0  0  0  0  0  0  0
   -1.6426    0.6640   -3.1869 C   0  0  0  0  0  0  0  0  0  0  0  0
   -0.9486   -0.3853   -3.8607 C   0  0  0  0  0  0  0  0  0  0  0  0
    0.4810   -0.4762   -3.7260 C   0  0  0  0  0  0  0  0  0  0  0  0
   -1.8162   -1.1606   -4.5663 N   0  0  0  0  0  0  0  0  0  0  0  0
   -3.0203   -0.6383   -4.3684 C   0  0  0  0  0  0  0  0  0  0  0  0
   -2.9641    0.4824   -3.5283 N   0  0  0  0  0  0  0  0  0  0  0  0
   -4.0569    1.3171   -3.1142 C   0  0  0  0  0  0  0  0  0  0  0  0
    2.1739   -0.2385   -0.3867 N   0  0  0  0  0  0  0  0  0  0  0  0
    2.3471   -0.7084    0.9453 C   0  0  0  0  0  0  0  0  0  0  0  0
    3.7856   -3.6631   -2.9877 H   0  0  0  0  0  0  0  0  0  0  0  0
    4.9323   -2.3826   -2.5284 H   0  0  0  0  0  0  0  0  0  0  0  0
    3.7444   -2.1048   -3.8283 H   0  0  0  0  0  0  0  0  0  0  0  0
    3.0297   -2.6462   -0.8747 H   0  0  0  0  0  0  0  0  0  0  0  0
    1.8539   -2.2830   -2.1603 H   0  0  0  0  0  0  0  0  0  0  0  0
    4.0503   -0.3886   -1.1974 H   0  0  0  0  0  0  0  0  0  0  0  0
    3.1534    0.0202   -3.5944 H   0  0  0  0  0  0  0  0  0  0  0  0
    3.0551    1.3735   -2.4762 H   0  0  0  0  0  0  0  0  0  0  0  0
    0.9753    2.3038   -1.7504 H   0  0  0  0  0  0  0  0  0  0  0  0
   -1.5597    2.4407   -1.9027 H   0  0  0  0  0  0  0  0  0  0  0  0
    1.0326   -1.2385   -4.2781 H   0  0  0  0  0  0  0  0  0  0  0  0
   -3.9636   -0.9948   -4.7783 H   0  0  0  0  0  0  0  0  0  0  0  0
   -4.9943    0.9379   -3.5465 H   0  0  0  0  0  0  0  0  0  0  0  0
   -3.9188    2.3615   -3.4491 H   0  0  0  0  0  0  0  0  0  0  0  0
   -4.1636    1.3306   -2.0139 H   0  0  0  0  0  0  0  0  0  0  0  0
    1.3183    0.2934   -0.6441 H   0  0  0  0  0  0  0  0  0  0  0  0
    3.3366   -1.1577    1.0903 H   0  0  0  0  0  0  0  0  0  0  0  0
    1.5640   -1.4570    1.1698 H   0  0  0  0  0  0  0  0  0  0  0  0
    2.1918    0.1253    1.6492 H   0  0  0  0  0  0  0  0  0  0  0  0
  1  2  1  0
  1 17  1  0
  1 18  1  0
  1 19  1  0
  2  3  1  0
  2 20  1  0
  2 21  1  0
  3  4  1  0
  3 15  1  0
  3 22  1  1
  4  5  1  0
  4 23  1  0
  4 24  1  0
  5  6  2  0
  5 10  1  0
  6  7  1  0
  6 25  1  0
  7  8  2  0
  7 26  1  0
  8  9  1  0
  8 13  1  0
  9 10  2  0
  9 11  1  0
 10 27  1  0
 11 12  2  0
 12 13  1  0
 12 28  1  0
 13 14  1  0
 14 29  1  0
 14 30  1  0
 14 31  1  0
 15 16  1  0
 15 32  1  0
 16 33  1  0
 16 34  1  0
 16 35  1  0
M  END

