
     RDKit          3D

 28 29  0  0  0  0  0  0  0  0999 V2000
    5.4682   -4.2728    0.2069 C   0  0  0  0  0  0  0  0  0  0  0  0
    5.5530   -2.9423   -0.5540 C   0  0  1  0  0  0  0  0  0  0  0  0
    5.9639   -3.1754   -2.0148 C   0  0  0  0  0  0  0  0  0  0  0  0
    4.2270   -2.1568   -0.4977 C   0  0  0  0  0  0  0  0  0  0  0  0
    3.8940   -1.4438    0.8149 C   0  0  2  0  0  0  0  0  0  0  0  0
    2.4457   -1.0752    1.0173 C   0  0  0  0  0  0  0  0  0  0  0  0
    1.6412   -0.6021   -0.0325 C   0  0  0  0  0  0  0  0  0  0  0  0
    0.3632   -0.2517    0.1173 N   0  0  0  0  0  0  0  0  0  0  0  0
   -0.1966   -0.3589    1.3209 C   0  0  0  0  0  0  0  0  0  0  0  0
    0.5186   -0.8280    2.4298 C   0  0  0  0  0  0  0  0  0  0  0  0
   -0.3415   -0.9698    4.1219 Br  0  0  0  0  0  0  0  0  0  0  0  0
    1.8557   -1.1917    2.2831 C   0  0  0  0  0  0  0  0  0  0  0  0
    4.9110   -0.6235    1.5125 C   0  0  0  0  0  0  0  0  0  0  0  0
    4.5443   -1.9058    2.0024 O   0  0  0  0  0  0  0  0  0  0  0  0
    6.4342   -4.8025    0.1777 H   0  0  0  0  0  0  0  0  0  0  0  0
    4.7132   -4.9355   -0.2510 H   0  0  0  0  0  0  0  0  0  0  0  0
    5.1968   -4.1149    1.2594 H   0  0  0  0  0  0  0  0  0  0  0  0
    6.3437   -2.3322   -0.0822 H   0  0  0  0  0  0  0  0  0  0  0  0
    5.1942   -3.7532   -2.5550 H   0  0  0  0  0  0  0  0  0  0  0  0
    6.9057   -3.7440   -2.0750 H   0  0  0  0  0  0  0  0  0  0  0  0
    6.1093   -2.2262   -2.5564 H   0  0  0  0  0  0  0  0  0  0  0  0
    3.3994   -2.8459   -0.7415 H   0  0  0  0  0  0  0  0  0  0  0  0
    4.2228   -1.3906   -1.2923 H   0  0  0  0  0  0  0  0  0  0  0  0
    2.0523   -0.4964   -1.0422 H   0  0  0  0  0  0  0  0  0  0  0  0
   -1.2473   -0.0672    1.4211 H   0  0  0  0  0  0  0  0  0  0  0  0
    2.4433   -1.5693    3.1211 H   0  0  0  0  0  0  0  0  0  0  0  0
    4.5843    0.2293    2.1220 H   0  0  0  0  0  0  0  0  0  0  0  0
    5.9253   -0.5431    1.0999 H   0  0  0  0  0  0  0  0  0  0  0  0
  1  2  1  0
  1 15  1  0
  1 16  1  0
  1 17  1  0
  2  3  1  0
  2  4  1  0
  2 18  1  1
  3 19  1  0
  3 20  1  0
  3 21  1  0
  5  4  1  6
  4 22  1  0
  4 23  1  0
  5  6  1  0
  5 13  1  0
  5 14  1  0
  6  7  2  0
  6 12  1  0
  7  8  1  0
  7 24  1  0
  8  9  2  0
  9 10  1  0
  9 25  1  0
 10 11  1  0
 10 12  2  0
 12 26  1  0
 13 14  1  0
 13 27  1  0
 13 28  1  0
M  END

