
     RDKit          3D

 60 65  0  0  0  0  0  0  0  0999 V2000
    7.5563   -5.2159    3.3511 C   0  0  0  0  0  0  0  0  0  0  0  0
    7.2715   -3.9310    2.5466 C   0  0  2  0  0  0  0  0  0  0  0  0
    6.2929   -3.0143    3.2763 C   0  0  0  0  0  0  0  0  0  0  0  0
    6.6542   -2.4076    4.3398 O   0  0  0  0  0  0  0  0  0  0  0  0
    5.5996   -2.3437    2.1580 N   0  0  0  0  0  0  0  0  0  0  0  0
    4.4725   -1.4802    2.3284 C   0  0  0  0  0  0  0  0  0  0  0  0
    3.1943   -2.0460    2.1881 C   0  0  0  0  0  0  0  0  0  0  0  0
    2.0416   -1.2703    2.2798 C   0  0  0  0  0  0  0  0  0  0  0  0
    2.1529    0.1040    2.5074 C   0  0  0  0  0  0  0  0  0  0  0  0
    3.4150    0.6751    2.6457 C   0  0  0  0  0  0  0  0  0  0  0  0
    4.5907   -0.0951    2.5820 C   0  0  0  0  0  0  0  0  0  0  0  0
    5.8647    0.7081    2.7708 C   0  0  0  0  0  0  0  0  0  0  0  0
    5.9394    1.8589    2.3488 O   0  0  0  0  0  0  0  0  0  0  0  0
    6.8505    0.1366    3.5087 N   0  0  0  0  0  0  0  0  0  0  0  0
    7.9807    0.9271    3.9432 C   0  0  0  0  0  0  0  0  0  0  0  0
    8.5097    0.4678    5.2920 C   0  0  2  0  0  0  0  0  0  0  0  0
    7.6512    0.2132    5.9430 H   0  0  0  0  0  0  0  0  0  0  0  0
    9.4407    1.4449    6.0236 C   0  0  0  0  0  0  0  0  0  0  0  0
   10.3091    0.5241    6.9163 C   0  0  0  0  0  0  0  0  0  0  0  0
    9.9587   -0.8981    6.4181 C   0  0  0  0  0  0  0  0  0  0  0  0
    9.3291   -0.7116    5.1532 O   0  0  0  0  0  0  0  0  0  0  0  0
    5.7139   -3.1060    1.0026 C   0  0  0  0  0  0  0  0  0  0  0  0
    5.1633   -2.9352   -0.0664 O   0  0  0  0  0  0  0  0  0  0  0  0
    6.5940   -4.1652    1.2773 N   0  0  0  0  0  0  0  0  0  0  0  0
    7.2870   -4.8485    0.2066 C   0  0  0  0  0  0  0  0  0  0  0  0
    8.6016   -4.1429   -0.2101 C   0  0  0  0  0  0  0  0  0  0  0  0
    9.2599   -3.4519    0.9378 C   0  0  0  0  0  0  0  0  0  0  0  0
    8.6045   -3.2782    2.2028 C   0  0  0  0  0  0  0  0  0  0  0  0
    9.3322   -2.4759    2.9750 N   0  0  0  0  0  0  0  0  0  0  0  0
    9.0247   -2.0629    3.8741 H   0  0  0  0  0  0  0  0  0  0  0  0
   10.4907   -2.0743    2.2857 C   0  0  0  0  0  0  0  0  0  0  0  0
   11.5040   -1.2229    2.6788 C   0  0  0  0  0  0  0  0  0  0  0  0
   12.5503   -0.9913    1.7551 C   0  0  0  0  0  0  0  0  0  0  0  0
   12.5507   -1.5833    0.4863 C   0  0  0  0  0  0  0  0  0  0  0  0
   11.5035   -2.4232    0.0882 C   0  0  0  0  0  0  0  0  0  0  0  0
   10.4568   -2.6798    0.9955 C   0  0  0  0  0  0  0  0  0  0  0  0
    6.6269   -5.7966    3.4183 H   0  0  0  0  0  0  0  0  0  0  0  0
    7.8669   -4.9338    4.3675 H   0  0  0  0  0  0  0  0  0  0  0  0
    8.3410   -5.8444    2.9019 H   0  0  0  0  0  0  0  0  0  0  0  0
    3.1197   -3.1167    1.9902 H   0  0  0  0  0  0  0  0  0  0  0  0
    1.0600   -1.7376    2.1661 H   0  0  0  0  0  0  0  0  0  0  0  0
    1.2592    0.7300    2.5702 H   0  0  0  0  0  0  0  0  0  0  0  0
    3.5274    1.7498    2.7983 H   0  0  0  0  0  0  0  0  0  0  0  0
    6.7075   -0.8073    3.9270 H   0  0  0  0  0  0  0  0  0  0  0  0
    7.6585    1.9797    4.0115 H   0  0  0  0  0  0  0  0  0  0  0  0
    8.8148    0.9158    3.2135 H   0  0  0  0  0  0  0  0  0  0  0  0
    8.8745    2.1930    6.5970 H   0  0  0  0  0  0  0  0  0  0  0  0
   10.0613    1.9863    5.2914 H   0  0  0  0  0  0  0  0  0  0  0  0
   10.0738    0.6364    7.9851 H   0  0  0  0  0  0  0  0  0  0  0  0
   11.3806    0.7418    6.7948 H   0  0  0  0  0  0  0  0  0  0  0  0
    9.2590   -1.4028    7.1093 H   0  0  0  0  0  0  0  0  0  0  0  0
   10.8326   -1.5512    6.2743 H   0  0  0  0  0  0  0  0  0  0  0  0
    6.6039   -4.9007   -0.6510 H   0  0  0  0  0  0  0  0  0  0  0  0
    7.5003   -5.8813    0.5272 H   0  0  0  0  0  0  0  0  0  0  0  0
    8.3783   -3.3725   -0.9729 H   0  0  0  0  0  0  0  0  0  0  0  0
    9.2938   -4.8502   -0.7004 H   0  0  0  0  0  0  0  0  0  0  0  0
   11.4816   -0.7405    3.6553 H   0  0  0  0  0  0  0  0  0  0  0  0
   13.3712   -0.3302    2.0407 H   0  0  0  0  0  0  0  0  0  0  0  0
   13.3710   -1.3771   -0.2039 H   0  0  0  0  0  0  0  0  0  0  0  0
   11.4974   -2.8677   -0.9095 H   0  0  0  0  0  0  0  0  0  0  0  0
  2  1  1  1
  1 37  1  0
  1 38  1  0
  1 39  1  0
  2  3  1  0
  2 24  1  0
  2 28  1  0
  3  4  2  0
  3  5  1  0
  5  6  1  0
  5 22  1  0
  6  7  2  0
  6 11  1  0
  7  8  1  0
  7 40  1  0
  8  9  2  0
  8 41  1  0
  9 10  1  0
  9 42  1  0
 10 11  2  0
 10 43  1  0
 11 12  1  0
 12 13  2  0
 12 14  1  0
 14 15  1  0
 14 44  1  0
 15 16  1  0
 15 45  1  0
 15 46  1  0
 16 17  1  1
 16 18  1  0
 16 21  1  0
 18 19  1  0
 18 47  1  0
 18 48  1  0
 19 20  1  0
 19 49  1  0
 19 50  1  0
 20 21  1  0
 20 51  1  0
 20 52  1  0
 22 23  2  0
 22 24  1  0
 24 25  1  0
 25 26  1  0
 25 53  1  0
 25 54  1  0
 26 27  1  0
 26 55  1  0
 26 56  1  0
 27 28  2  0
 27 36  1  0
 28 29  1  0
 29 30  1  0
 29 31  1  0
 31 32  1  0
 31 36  2  0
 32 33  2  0
 32 57  1  0
 33 34  1  0
 33 58  1  0
 34 35  2  0
 34 59  1  0
 35 36  1  0
 35 60  1  0
M  END

