
     RDKit          3D

 33 34  0  0  0  0  0  0  0  0999 V2000
    3.3590    2.1302    5.3967 O   0  0  0  0  0  0  0  0  0  0  0  0
    3.6950    1.7324    4.3113 C   0  0  0  0  0  0  0  0  0  0  0  0
    3.8854    2.6072    3.2907 O   0  0  0  0  0  0  0  0  0  0  0  0
    3.9290    0.2910    4.0279 C   0  0  0  0  0  0  0  0  0  0  0  0
    4.6664   -0.1961    3.0078 C   0  0  0  0  0  0  0  0  0  0  0  0
    4.9619   -1.5974    2.7388 C   0  0  0  0  0  0  0  0  0  0  0  0
    5.7468   -2.0038    1.6748 C   0  0  0  0  0  0  0  0  0  0  0  0
    5.9242   -3.7142    1.5987 S   0  0  0  0  0  0  0  0  0  0  0  0
    4.9272   -3.9341    3.0205 C   0  0  0  0  0  0  0  0  0  0  0  0
    4.6480   -5.3044    3.5736 C   0  0  0  0  0  0  0  0  0  0  0  0
    3.9957   -6.1912    2.6274 N   0  0  0  0  0  0  0  0  0  0  0  0
    4.5124   -7.4153    2.2875 C   0  0  0  0  0  0  0  0  0  0  0  0
    5.5582   -7.8377    2.7556 O   0  0  0  0  0  0  0  0  0  0  0  0
    3.6971   -8.2219    1.2924 C   0  0  1  0  0  0  0  0  0  0  0  0
    4.4773   -8.8465    0.0987 C   0  0  0  0  0  0  0  0  0  0  0  0
    3.6963  -10.1671    0.3063 C   0  0  0  0  0  0  0  0  0  0  0  0
    3.3160   -9.6707    1.7227 C   0  0  0  0  0  0  0  0  0  0  0  0
    4.4956   -2.7265    3.5009 C   0  0  0  0  0  0  0  0  0  0  0  0
    3.9904    2.1311    2.4555 H   0  0  0  0  0  0  0  0  0  0  0  0
    3.5107   -0.3682    4.7920 H   0  0  0  0  0  0  0  0  0  0  0  0
    5.1243    0.5061    2.2995 H   0  0  0  0  0  0  0  0  0  0  0  0
    6.2285   -1.3689    0.9315 H   0  0  0  0  0  0  0  0  0  0  0  0
    4.0399   -5.1832    4.4873 H   0  0  0  0  0  0  0  0  0  0  0  0
    5.5778   -5.8175    3.8651 H   0  0  0  0  0  0  0  0  0  0  0  0
    3.1280   -5.8885    2.2014 H   0  0  0  0  0  0  0  0  0  0  0  0
    2.8131   -7.6623    0.9459 H   0  0  0  0  0  0  0  0  0  0  0  0
    5.5398   -8.9533    0.3621 H   0  0  0  0  0  0  0  0  0  0  0  0
    4.3932   -8.3396   -0.8749 H   0  0  0  0  0  0  0  0  0  0  0  0
    4.2637  -11.1074    0.2354 H   0  0  0  0  0  0  0  0  0  0  0  0
    2.8195  -10.2393   -0.3565 H   0  0  0  0  0  0  0  0  0  0  0  0
    4.0200  -10.0339    2.4858 H   0  0  0  0  0  0  0  0  0  0  0  0
    2.2852   -9.8348    2.0727 H   0  0  0  0  0  0  0  0  0  0  0  0
    3.8594   -2.6430    4.3835 H   0  0  0  0  0  0  0  0  0  0  0  0
  1  2  2  0
  2  3  1  0
  2  4  1  0
  3 19  1  0
  4  5  2  0
  4 20  1  0
  5  6  1  0
  5 21  1  0
  6  7  2  0
  6 18  1  0
  7  8  1  0
  7 22  1  0
  8  9  1  0
  9 10  1  0
  9 18  2  0
 10 11  1  0
 10 23  1  0
 10 24  1  0
 11 12  1  0
 11 25  1  0
 12 13  2  0
 12 14  1  0
 14 15  1  0
 14 17  1  0
 14 26  1  6
 15 16  1  0
 15 27  1  0
 15 28  1  0
 16 17  1  0
 16 29  1  0
 16 30  1  0
 17 31  1  0
 17 32  1  0
 18 33  1  0
M  END

