
     RDKit          3D

 50 51  0  0  0  0  0  0  0  0999 V2000
    1.9230    0.6442    3.4488 C   0  0  0  0  0  0  0  0  0  0  0  0
    3.3270    0.4722    2.9028 C   0  0  0  0  0  0  0  0  0  0  0  0
    3.7850    1.7424    2.4568 O   0  0  0  0  0  0  0  0  0  0  0  0
    5.0195    1.8702    1.9248 C   0  0  0  0  0  0  0  0  0  0  0  0
    5.3876    3.1685    1.5151 C   0  0  0  0  0  0  0  0  0  0  0  0
    6.6352    3.3960    0.9583 C   0  0  0  0  0  0  0  0  0  0  0  0
    7.5621    2.3458    0.7904 C   0  0  0  0  0  0  0  0  0  0  0  0
    8.8895    2.6622    0.1790 C   0  0  0  0  0  0  0  0  0  0  0  0
    9.1530    3.7952   -0.1883 O   0  0  0  0  0  0  0  0  0  0  0  0
    9.9005    1.5350    0.0131 C   0  0  0  0  0  0  0  0  0  0  0  0
   11.2396    2.0184   -0.5298 C   0  0  0  0  0  0  0  0  0  0  0  0
   12.1501    0.8563   -0.9209 C   0  0  0  0  0  0  0  0  0  0  0  0
   11.7612   -0.3019   -0.8547 O   0  0  0  0  0  0  0  0  0  0  0  0
   13.4212    1.1648   -1.3568 N   0  0  0  0  0  0  0  0  0  0  0  0
   14.3235    0.0897   -1.7506 C   0  0  0  0  0  0  0  0  0  0  0  0
   14.7783    0.2414   -3.2109 C   0  0  2  0  0  0  0  0  0  0  0  0
   15.7618   -0.8612   -3.6074 C   0  0  0  0  0  0  0  0  0  0  0  0
   15.3699    1.6430   -3.4344 C   0  0  0  0  0  0  0  0  0  0  0  0
   14.4139    2.7563   -2.9533 C   0  0  2  0  0  0  0  0  0  0  0  0
   15.0328    4.1468   -3.0854 C   0  0  0  0  0  0  0  0  0  0  0  0
   15.2077    4.8968   -2.1640 O   0  0  0  0  0  0  0  0  0  0  0  0
   15.3948    4.5094   -4.3378 O   0  0  0  0  0  0  0  0  0  0  0  0
   13.9746    2.5016   -1.5016 C   0  0  0  0  0  0  0  0  0  0  0  0
    7.1849    1.0580    1.2003 C   0  0  0  0  0  0  0  0  0  0  0  0
    5.9295    0.8118    1.7619 C   0  0  0  0  0  0  0  0  0  0  0  0
    1.5333   -0.3218    3.8052 H   0  0  0  0  0  0  0  0  0  0  0  0
    1.2467    1.0270    2.6694 H   0  0  0  0  0  0  0  0  0  0  0  0
    1.9168    1.3545    4.2895 H   0  0  0  0  0  0  0  0  0  0  0  0
    3.3371   -0.2465    2.0621 H   0  0  0  0  0  0  0  0  0  0  0  0
    4.0075    0.0809    3.6820 H   0  0  0  0  0  0  0  0  0  0  0  0
    4.6654    3.9763    1.6499 H   0  0  0  0  0  0  0  0  0  0  0  0
    6.9309    4.3962    0.6357 H   0  0  0  0  0  0  0  0  0  0  0  0
    9.4786    0.7674   -0.6570 H   0  0  0  0  0  0  0  0  0  0  0  0
   10.0385    1.0147    0.9749 H   0  0  0  0  0  0  0  0  0  0  0  0
   11.7379    2.6616    0.2135 H   0  0  0  0  0  0  0  0  0  0  0  0
   11.0678    2.6729   -1.3999 H   0  0  0  0  0  0  0  0  0  0  0  0
   13.7940   -0.8584   -1.5967 H   0  0  0  0  0  0  0  0  0  0  0  0
   15.2122    0.0988   -1.0885 H   0  0  0  0  0  0  0  0  0  0  0  0
   13.8742    0.1505   -3.8411 H   0  0  0  0  0  0  0  0  0  0  0  0
   16.6773   -0.8186   -2.9931 H   0  0  0  0  0  0  0  0  0  0  0  0
   16.0646   -0.7675   -4.6627 H   0  0  0  0  0  0  0  0  0  0  0  0
   15.3156   -1.8594   -3.4734 H   0  0  0  0  0  0  0  0  0  0  0  0
   15.6229    1.7703   -4.5020 H   0  0  0  0  0  0  0  0  0  0  0  0
   16.3230    1.7286   -2.8804 H   0  0  0  0  0  0  0  0  0  0  0  0
   13.5107    2.7360   -3.5936 H   0  0  0  0  0  0  0  0  0  0  0  0
   15.1807    3.8102   -4.9717 H   0  0  0  0  0  0  0  0  0  0  0  0
   13.2533    3.2637   -1.1925 H   0  0  0  0  0  0  0  0  0  0  0  0
   14.8544    2.6190   -0.8428 H   0  0  0  0  0  0  0  0  0  0  0  0
    7.8711    0.2171    1.0839 H   0  0  0  0  0  0  0  0  0  0  0  0
    5.6722   -0.2023    2.0668 H   0  0  0  0  0  0  0  0  0  0  0  0
  1  2  1  0
  1 26  1  0
  1 27  1  0
  1 28  1  0
  2  3  1  0
  2 29  1  0
  2 30  1  0
  3  4  1  0
  4  5  2  0
  4 25  1  0
  5  6  1  0
  5 31  1  0
  6  7  2  0
  6 32  1  0
  7  8  1  0
  7 24  1  0
  8  9  2  0
  8 10  1  0
 10 11  1  0
 10 33  1  0
 10 34  1  0
 11 12  1  0
 11 35  1  0
 11 36  1  0
 12 13  2  0
 12 14  1  0
 14 15  1  0
 14 23  1  0
 15 16  1  0
 15 37  1  0
 15 38  1  0
 16 17  1  0
 16 18  1  0
 16 39  1  6
 17 40  1  0
 17 41  1  0
 17 42  1  0
 18 19  1  0
 18 43  1  0
 18 44  1  0
 19 20  1  0
 19 23  1  0
 19 45  1  6
 20 21  2  0
 20 22  1  0
 22 46  1  0
 23 47  1  0
 23 48  1  0
 24 25  2  0
 24 49  1  0
 25 50  1  0
M  END

