
     RDKit          3D

 44 46  0  0  0  0  0  0  0  0999 V2000
    2.7416    0.5299   -1.6877 O   0  0  0  0  0  0  0  0  0  0  0  0
    2.0207    0.6079   -0.6393 C   0  0  0  0  0  0  0  0  0  0  0  0
    0.6151    0.3435   -0.6206 C   0  0  0  0  0  0  0  0  0  0  0  0
   -0.3116    0.6734    0.4352 C   0  0  0  0  0  0  0  0  0  0  0  0
    0.1399    1.4086    1.4942 F   0  0  0  0  0  0  0  0  0  0  0  0
   -1.6557    0.3634    0.4466 C   0  0  0  0  0  0  0  0  0  0  0  0
   -2.2000   -0.3110   -0.6519 C   0  0  0  0  0  0  0  0  0  0  0  0
   -3.5111   -0.6373   -0.6582 F   0  0  0  0  0  0  0  0  0  0  0  0
   -1.3935   -0.6397   -1.7493 C   0  0  0  0  0  0  0  0  0  0  0  0
   -0.0525   -0.3107   -1.7292 C   0  0  0  0  0  0  0  0  0  0  0  0
    0.6692   -0.6650   -2.8038 F   0  0  0  0  0  0  0  0  0  0  0  0
    2.7744    1.0679    0.6367 C   0  0  1  0  0  0  0  0  0  0  0  0
    4.0805    0.2797    0.8482 C   0  0  0  0  0  0  0  0  0  0  0  0
    5.1644    0.5938   -0.1980 C   0  0  0  0  0  0  0  0  0  0  0  0
    5.3489    2.0204   -0.3953 N   0  0  0  0  0  0  0  0  0  0  0  0
    6.6535    2.6582   -0.5130 C   0  0  0  0  0  0  0  0  0  0  0  0
    7.8276    1.7476   -0.7465 C   0  0  0  0  0  0  0  0  0  0  0  0
    8.7760    1.5596    0.1846 C   0  0  0  0  0  0  0  0  0  0  0  0
    9.9954    0.7195   -0.0773 C   0  0  0  0  0  0  0  0  0  0  0  0
   10.1559    0.4715   -1.5781 C   0  0  0  0  0  0  0  0  0  0  0  0
    8.9230    0.0885   -2.1559 O   0  0  0  0  0  0  0  0  0  0  0  0
    7.9528    1.1002   -2.1131 C   0  0  0  0  0  0  0  0  0  0  0  0
    4.1555    2.8385   -0.5469 C   0  0  0  0  0  0  0  0  0  0  0  0
    3.1287    2.5636    0.5609 C   0  0  0  0  0  0  0  0  0  0  0  0
   -2.2777    0.6732    1.2867 H   0  0  0  0  0  0  0  0  0  0  0  0
   -1.8059   -1.1570   -2.6158 H   0  0  0  0  0  0  0  0  0  0  0  0
    2.1596    0.9161    1.5279 H   0  0  0  0  0  0  0  0  0  0  0  0
    3.8970   -0.8037    0.8080 H   0  0  0  0  0  0  0  0  0  0  0  0
    4.4841    0.4978    1.8533 H   0  0  0  0  0  0  0  0  0  0  0  0
    4.7818    0.2237   -1.1660 H   0  0  0  0  0  0  0  0  0  0  0  0
    6.1351    0.1422    0.0428 H   0  0  0  0  0  0  0  0  0  0  0  0
    6.8013    3.2430    0.4159 H   0  0  0  0  0  0  0  0  0  0  0  0
    6.5663    3.4056   -1.3226 H   0  0  0  0  0  0  0  0  0  0  0  0
    8.6732    2.0262    1.1711 H   0  0  0  0  0  0  0  0  0  0  0  0
    9.9035   -0.2404    0.4633 H   0  0  0  0  0  0  0  0  0  0  0  0
   10.8942    1.2143    0.3293 H   0  0  0  0  0  0  0  0  0  0  0  0
   10.8649   -0.3446   -1.7768 H   0  0  0  0  0  0  0  0  0  0  0  0
   10.5453    1.3862   -2.0708 H   0  0  0  0  0  0  0  0  0  0  0  0
    6.9999    0.6343   -2.4144 H   0  0  0  0  0  0  0  0  0  0  0  0
    8.1645    1.8933   -2.8666 H   0  0  0  0  0  0  0  0  0  0  0  0
    3.7156    2.5165   -1.5097 H   0  0  0  0  0  0  0  0  0  0  0  0
    4.4568    3.8943   -0.5991 H   0  0  0  0  0  0  0  0  0  0  0  0
    2.2320    3.1642    0.3570 H   0  0  0  0  0  0  0  0  0  0  0  0
    3.5382    2.9207    1.5227 H   0  0  0  0  0  0  0  0  0  0  0  0
  1  2  2  0
  2  3  1  0
  2 12  1  0
  3  4  2  0
  3 10  1  0
  4  5  1  0
  4  6  1  0
  6  7  2  0
  6 25  1  0
  7  8  1  0
  7  9  1  0
  9 10  2  0
  9 26  1  0
 10 11  1  0
 12 13  1  0
 12 24  1  0
 12 27  1  1
 13 14  1  0
 13 28  1  0
 13 29  1  0
 14 15  1  0
 14 30  1  0
 14 31  1  0
 15 16  1  0
 15 23  1  0
 16 17  1  0
 16 32  1  0
 16 33  1  0
 17 18  2  0
 17 22  1  0
 18 19  1  0
 18 34  1  0
 19 20  1  0
 19 35  1  0
 19 36  1  0
 20 21  1  0
 20 37  1  0
 20 38  1  0
 21 22  1  0
 22 39  1  0
 22 40  1  0
 23 24  1  0
 23 41  1  0
 23 42  1  0
 24 43  1  0
 24 44  1  0
M  END

