
     RDKit          3D

 22 23  0  0  0  0  0  0  0  0999 V2000
    2.1063    1.1704   -1.3673 N   0  0  0  0  0  0  0  0  0  0  0  0
    2.1434    0.0598   -0.5778 C   0  0  0  0  0  0  0  0  0  0  0  0
    1.0546    0.0164    0.8004 S   0  0  0  0  0  0  0  0  0  0  0  0
    3.0845   -0.9303   -0.9253 C   0  0  0  0  0  0  0  0  0  0  0  0
    4.0569   -0.6950   -1.8322 N   0  0  0  0  0  0  0  0  0  0  0  0
    4.8821   -1.7652   -1.7792 C   0  0  0  0  0  0  0  0  0  0  0  0
    4.4489   -2.6951   -0.8524 C   0  0  0  0  0  0  0  0  0  0  0  0
    3.2692   -2.1847   -0.3225 N   0  0  0  0  0  0  0  0  0  0  0  0
    2.4200   -2.8684    0.5632 C   0  0  0  0  0  0  0  0  0  0  0  0
    2.9670   -3.3395    1.6884 N   0  0  0  0  0  0  0  0  0  0  0  0
    2.2211   -3.9679    2.5832 C   0  0  0  0  0  0  0  0  0  0  0  0
    0.8373   -4.1458    2.4088 C   0  0  0  0  0  0  0  0  0  0  0  0
   -0.1107   -4.9201    3.6450 Cl  0  0  0  0  0  0  0  0  0  0  0  0
    0.2499   -3.7258    1.2161 C   0  0  0  0  0  0  0  0  0  0  0  0
    1.0540   -3.1076    0.2568 C   0  0  0  0  0  0  0  0  0  0  0  0
    0.3975   -2.7910   -1.3219 Cl  0  0  0  0  0  0  0  0  0  0  0  0
    1.7684    2.0440   -0.9805 H   0  0  0  0  0  0  0  0  0  0  0  0
    2.8766    1.2202   -2.0339 H   0  0  0  0  0  0  0  0  0  0  0  0
    5.7710   -1.8360   -2.4069 H   0  0  0  0  0  0  0  0  0  0  0  0
    4.8331   -3.6619   -0.5419 H   0  0  0  0  0  0  0  0  0  0  0  0
    2.7143   -4.3476    3.4840 H   0  0  0  0  0  0  0  0  0  0  0  0
   -0.8050   -3.9114    1.0111 H   0  0  0  0  0  0  0  0  0  0  0  0
  1  2  1  0
  1 17  1  0
  1 18  1  0
  2  3  2  0
  2  4  1  0
  4  5  2  0
  4  8  1  0
  5  6  1  0
  6  7  2  0
  6 19  1  0
  7  8  1  0
  7 20  1  0
  8  9  1  0
  9 10  2  0
  9 15  1  0
 10 11  1  0
 11 12  2  0
 11 21  1  0
 12 13  1  0
 12 14  1  0
 14 15  2  0
 14 22  1  0
 15 16  1  0
M  END

