
     RDKit          3D

 79 83  0  0  0  0  0  0  0  0999 V2000
    0.5079    0.3198   -0.5307 C   0  0  0  0  0  0  0  0  0  0  0  0
    1.2095   -0.6853   -1.2242 O   0  0  0  0  0  0  0  0  0  0  0  0
    2.2898   -0.3396   -1.9783 C   0  0  0  0  0  0  0  0  0  0  0  0
    2.7572    0.9741   -2.1133 C   0  0  0  0  0  0  0  0  0  0  0  0
    3.8527    1.2456   -2.9426 C   0  0  0  0  0  0  0  0  0  0  0  0
    4.4192    2.6513   -3.1309 C   0  0  2  0  0  0  0  0  0  0  0  0
    5.4937    2.5824   -2.9131 H   0  0  0  0  0  0  0  0  0  0  0  0
    3.9070    3.7473   -2.2124 C   0  0  0  0  0  0  0  0  0  0  0  0
    2.9402    4.6649   -2.5319 C   0  0  0  0  0  0  0  0  0  0  0  0
    2.6681    5.8719   -1.6494 C   0  0  0  0  0  0  0  0  0  0  0  0
    2.9634    5.6651   -0.1605 C   0  0  1  0  0  0  0  0  0  0  0  0
    3.0001    6.6683    0.2982 H   0  0  0  0  0  0  0  0  0  0  0  0
    1.8924    4.8990    0.6138 C   0  0  0  0  0  0  0  0  0  0  0  0
    0.7874    4.2758    0.0243 C   0  0  0  0  0  0  0  0  0  0  0  0
   -0.1944    3.6400    0.7977 C   0  0  0  0  0  0  0  0  0  0  0  0
   -0.1152    3.5906    2.1956 C   0  0  0  0  0  0  0  0  0  0  0  0
   -1.1755    2.9062    3.0797 C   0  0  1  0  0  0  0  0  0  0  0  0
   -2.3262    2.3080    2.2508 C   0  0  0  0  0  0  0  0  0  0  0  0
   -0.5122    1.7644    3.8844 C   0  0  0  0  0  0  0  0  0  0  0  0
   -1.7757    3.9416    4.0592 C   0  0  0  0  0  0  0  0  0  0  0  0
    1.0033    4.2128    2.7841 C   0  0  0  0  0  0  0  0  0  0  0  0
    1.9749    4.8498    2.0173 C   0  0  0  0  0  0  0  0  0  0  0  0
    4.3696    5.0536   -0.0300 C   0  0  0  0  0  0  0  0  0  0  0  0
    4.6232    3.8465   -0.9254 C   0  0  0  0  0  0  0  0  0  0  0  0
    5.4466    3.0076   -0.5932 O   0  0  0  0  0  0  0  0  0  0  0  0
    2.1559    4.6846   -3.6687 N   0  0  0  0  0  0  0  0  0  0  0  0
    2.0227    3.7931   -4.7444 C   0  0  0  0  0  0  0  0  0  0  0  0
    0.7867    3.7420   -5.4156 C   0  0  0  0  0  0  0  0  0  0  0  0
    0.6015    2.9002   -6.5095 C   0  0  0  0  0  0  0  0  0  0  0  0
    1.6426    2.0697   -6.9368 C   0  0  0  0  0  0  0  0  0  0  0  0
    2.8666    2.1078   -6.2695 C   0  0  0  0  0  0  0  0  0  0  0  0
    3.0854    2.9860   -5.1988 C   0  0  0  0  0  0  0  0  0  0  0  0
    4.3448    3.0606   -4.5513 N   0  0  0  0  0  0  0  0  0  0  0  0
    5.4882    3.5840   -5.1447 C   0  0  0  0  0  0  0  0  0  0  0  0
    5.3576    4.1185   -6.5631 C   0  0  0  0  0  0  0  0  0  0  0  0
    6.5515    3.6238   -4.5528 O   0  0  0  0  0  0  0  0  0  0  0  0
    4.4726    0.1955   -3.6190 C   0  0  0  0  0  0  0  0  0  0  0  0
    4.0189   -1.1263   -3.4940 C   0  0  0  0  0  0  0  0  0  0  0  0
    4.6786   -2.0416   -4.2519 O   0  0  0  0  0  0  0  0  0  0  0  0
    4.8250   -3.3909   -3.8478 C   0  0  0  0  0  0  0  0  0  0  0  0
    2.9135   -1.4094   -2.6648 C   0  0  0  0  0  0  0  0  0  0  0  0
    2.4062   -2.6807   -2.6027 O   0  0  0  0  0  0  0  0  0  0  0  0
    2.4377   -3.3462   -1.3481 C   0  0  0  0  0  0  0  0  0  0  0  0
   -0.3132   -0.1822   -0.0002 H   0  0  0  0  0  0  0  0  0  0  0  0
    0.0819    1.0704   -1.2201 H   0  0  0  0  0  0  0  0  0  0  0  0
    1.1451    0.8428    0.2033 H   0  0  0  0  0  0  0  0  0  0  0  0
    2.2793    1.7902   -1.5743 H   0  0  0  0  0  0  0  0  0  0  0  0
    1.6277    6.2108   -1.7889 H   0  0  0  0  0  0  0  0  0  0  0  0
    3.3046    6.6966   -2.0188 H   0  0  0  0  0  0  0  0  0  0  0  0
    0.6663    4.2749   -1.0607 H   0  0  0  0  0  0  0  0  0  0  0  0
   -1.0363    3.1815    0.2780 H   0  0  0  0  0  0  0  0  0  0  0  0
   -1.9724    1.5350    1.5507 H   0  0  0  0  0  0  0  0  0  0  0  0
   -2.8579    3.0775    1.6694 H   0  0  0  0  0  0  0  0  0  0  0  0
   -3.0610    1.8330    2.9197 H   0  0  0  0  0  0  0  0  0  0  0  0
   -0.0814    1.0047    3.2128 H   0  0  0  0  0  0  0  0  0  0  0  0
   -1.2541    1.2665    4.5303 H   0  0  0  0  0  0  0  0  0  0  0  0
    0.2979    2.1339    4.5315 H   0  0  0  0  0  0  0  0  0  0  0  0
   -2.2591    4.7678    3.5140 H   0  0  0  0  0  0  0  0  0  0  0  0
   -1.0090    4.3782    4.7171 H   0  0  0  0  0  0  0  0  0  0  0  0
   -2.5349    3.4668    4.7023 H   0  0  0  0  0  0  0  0  0  0  0  0
    1.1195    4.2103    3.8705 H   0  0  0  0  0  0  0  0  0  0  0  0
    2.8160    5.3313    2.5248 H   0  0  0  0  0  0  0  0  0  0  0  0
    4.6066    4.7569    1.0010 H   0  0  0  0  0  0  0  0  0  0  0  0
    5.1200    5.8127   -0.3193 H   0  0  0  0  0  0  0  0  0  0  0  0
    1.4296    5.3907   -3.6462 H   0  0  0  0  0  0  0  0  0  0  0  0
   -0.0346    4.3753   -5.0668 H   0  0  0  0  0  0  0  0  0  0  0  0
   -0.3653    2.8811   -7.0182 H   0  0  0  0  0  0  0  0  0  0  0  0
    1.4984    1.3875   -7.7773 H   0  0  0  0  0  0  0  0  0  0  0  0
    3.6837    1.4513   -6.5731 H   0  0  0  0  0  0  0  0  0  0  0  0
    4.4517    4.7256   -6.7042 H   0  0  0  0  0  0  0  0  0  0  0  0
    5.3185    3.2954   -7.2930 H   0  0  0  0  0  0  0  0  0  0  0  0
    6.2514    4.7209   -6.7672 H   0  0  0  0  0  0  0  0  0  0  0  0
    5.3412    0.3697   -4.2568 H   0  0  0  0  0  0  0  0  0  0  0  0
    5.6420   -3.8030   -4.4586 H   0  0  0  0  0  0  0  0  0  0  0  0
    3.9099   -3.9770   -4.0155 H   0  0  0  0  0  0  0  0  0  0  0  0
    5.1105   -3.4682   -2.7838 H   0  0  0  0  0  0  0  0  0  0  0  0
    2.0855   -4.3723   -1.5280 H   0  0  0  0  0  0  0  0  0  0  0  0
    1.7801   -2.8599   -0.6127 H   0  0  0  0  0  0  0  0  0  0  0  0
    3.4649   -3.3875   -0.9407 H   0  0  0  0  0  0  0  0  0  0  0  0
  1  2  1  0
  1 44  1  0
  1 45  1  0
  1 46  1  0
  2  3  1  0
  3  4  2  0
  3 41  1  0
  4  5  1  0
  4 47  1  0
  5  6  1  0
  5 37  2  0
  6  7  1  1
  6  8  1  0
  6 33  1  0
  8  9  2  0
  8 24  1  0
  9 10  1  0
  9 26  1  0
 10 11  1  0
 10 48  1  0
 10 49  1  0
 11 12  1  1
 11 13  1  0
 11 23  1  0
 13 14  2  0
 13 22  1  0
 14 15  1  0
 14 50  1  0
 15 16  2  0
 15 51  1  0
 16 17  1  0
 16 21  1  0
 17 18  1  6
 17 19  1  0
 17 20  1  0
 18 52  1  0
 18 53  1  0
 18 54  1  0
 19 55  1  0
 19 56  1  0
 19 57  1  0
 20 58  1  0
 20 59  1  0
 20 60  1  0
 21 22  2  0
 21 61  1  0
 22 62  1  0
 23 24  1  0
 23 63  1  0
 23 64  1  0
 24 25  2  0
 26 27  1  0
 26 65  1  0
 27 28  1  0
 27 32  2  0
 28 29  2  0
 28 66  1  0
 29 30  1  0
 29 67  1  0
 30 31  2  0
 30 68  1  0
 31 32  1  0
 31 69  1  0
 32 33  1  0
 33 34  1  0
 34 35  1  0
 34 36  2  0
 35 70  1  0
 35 71  1  0
 35 72  1  0
 37 38  1  0
 37 73  1  0
 38 39  1  0
 38 41  2  0
 39 40  1  0
 40 74  1  0
 40 75  1  0
 40 76  1  0
 41 42  1  0
 42 43  1  0
 43 77  1  0
 43 78  1  0
 43 79  1  0
M  END

