
     RDKit          3D

 61 63  0  0  0  0  0  0  0  0999 V2000
    3.4351    2.9181   -3.0122 C   0  0  0  0  0  0  0  0  0  0  0  0
    3.2804    1.8667   -1.9130 C   0  0  0  0  0  0  0  0  0  0  0  0
    3.2608    0.4929   -2.4246 N   0  0  0  0  0  0  0  0  0  0  0  0
    1.9610   -0.0978   -2.7328 C   0  0  0  0  0  0  0  0  0  0  0  0
    1.2604   -0.7356   -1.5294 C   0  0  0  0  0  0  0  0  0  0  0  0
    4.4686   -0.1433   -2.5767 C   0  0  0  0  0  0  0  0  0  0  0  0
    5.5277    0.3930   -2.3092 O   0  0  0  0  0  0  0  0  0  0  0  0
    4.4262   -1.5917   -3.1223 C   0  0  0  0  0  0  0  0  0  0  0  0
    5.7098   -2.2259   -3.1249 N   0  0  0  0  0  0  0  0  0  0  0  0
    6.2125   -3.0069   -2.0509 C   0  0  0  0  0  0  0  0  0  0  0  0
    7.4373   -3.5233   -2.4493 C   0  0  0  0  0  0  0  0  0  0  0  0
    7.7066   -3.0597   -3.7758 C   0  0  0  0  0  0  0  0  0  0  0  0
    8.7524   -3.2907   -4.6977 C   0  0  0  0  0  0  0  0  0  0  0  0
    8.6608   -2.6536   -5.9776 C   0  0  0  0  0  0  0  0  0  0  0  0
    9.6504   -2.7884   -6.9385 N   0  0  0  0  0  0  0  0  0  0  0  0
   10.8051   -3.5733   -6.9201 C   0  0  0  0  0  0  0  0  0  0  0  0
   10.9977   -4.4932   -6.1395 O   0  0  0  0  0  0  0  0  0  0  0  0
   11.7219   -3.2322   -7.9095 N   0  0  0  0  0  0  0  0  0  0  0  0
   11.7995   -1.9175   -8.5382 C   0  0  0  0  0  0  0  0  0  0  0  0
   11.0700   -1.7964   -9.8723 C   0  0  0  0  0  0  0  0  0  0  0  0
    9.6723   -1.8008   -9.6210 O   0  0  0  0  0  0  0  0  0  0  0  0
   12.8453   -4.1473   -8.1318 C   0  0  0  0  0  0  0  0  0  0  0  0
   14.1435   -3.7284   -7.4630 C   0  0  0  0  0  0  0  0  0  0  0  0
   14.2404   -3.6893   -6.0605 C   0  0  0  0  0  0  0  0  0  0  0  0
   15.4322   -3.3024   -5.4453 C   0  0  0  0  0  0  0  0  0  0  0  0
   16.5462   -2.9512   -6.2177 C   0  0  0  0  0  0  0  0  0  0  0  0
   16.4616   -2.9910   -7.6109 C   0  0  0  0  0  0  0  0  0  0  0  0
   15.2653   -3.3768   -8.2270 C   0  0  0  0  0  0  0  0  0  0  0  0
    7.5710   -1.8074   -6.3393 C   0  0  0  0  0  0  0  0  0  0  0  0
    6.5181   -1.5763   -5.4173 C   0  0  0  0  0  0  0  0  0  0  0  0
    6.5978   -2.2193   -4.1621 C   0  0  0  0  0  0  0  0  0  0  0  0
    3.4184    3.9319   -2.5805 H   0  0  0  0  0  0  0  0  0  0  0  0
    2.6224    2.8548   -3.7546 H   0  0  0  0  0  0  0  0  0  0  0  0
    4.3948    2.7845   -3.5333 H   0  0  0  0  0  0  0  0  0  0  0  0
    2.3482    2.0318   -1.3482 H   0  0  0  0  0  0  0  0  0  0  0  0
    4.1169    1.9481   -1.2050 H   0  0  0  0  0  0  0  0  0  0  0  0
    2.0698   -0.8376   -3.5389 H   0  0  0  0  0  0  0  0  0  0  0  0
    1.3225    0.6974   -3.1535 H   0  0  0  0  0  0  0  0  0  0  0  0
    1.8483   -1.5723   -1.1201 H   0  0  0  0  0  0  0  0  0  0  0  0
    0.2711   -1.1245   -1.8200 H   0  0  0  0  0  0  0  0  0  0  0  0
    1.1104   -0.0044   -0.7194 H   0  0  0  0  0  0  0  0  0  0  0  0
    4.0310   -1.5807   -4.1531 H   0  0  0  0  0  0  0  0  0  0  0  0
    3.7352   -2.2065   -2.5213 H   0  0  0  0  0  0  0  0  0  0  0  0
    5.6797   -3.0487   -1.1058 H   0  0  0  0  0  0  0  0  0  0  0  0
    8.0832   -4.1637   -1.8510 H   0  0  0  0  0  0  0  0  0  0  0  0
    9.5773   -3.9644   -4.4847 H   0  0  0  0  0  0  0  0  0  0  0  0
    9.4505   -2.3319   -7.8332 H   0  0  0  0  0  0  0  0  0  0  0  0
   12.8635   -1.6773   -8.6945 H   0  0  0  0  0  0  0  0  0  0  0  0
   11.4097   -1.1482   -7.8525 H   0  0  0  0  0  0  0  0  0  0  0  0
   11.3613   -2.6330  -10.5349 H   0  0  0  0  0  0  0  0  0  0  0  0
   11.3774   -0.8525  -10.3636 H   0  0  0  0  0  0  0  0  0  0  0  0
    9.1829   -1.9764  -10.4339 H   0  0  0  0  0  0  0  0  0  0  0  0
   13.0085   -4.2406   -9.2190 H   0  0  0  0  0  0  0  0  0  0  0  0
   12.5308   -5.1288   -7.7537 H   0  0  0  0  0  0  0  0  0  0  0  0
   13.3719   -3.9751   -5.4622 H   0  0  0  0  0  0  0  0  0  0  0  0
   15.4953   -3.2796   -4.3541 H   0  0  0  0  0  0  0  0  0  0  0  0
   17.4783   -2.6503   -5.7324 H   0  0  0  0  0  0  0  0  0  0  0  0
   17.3269   -2.7216   -8.2223 H   0  0  0  0  0  0  0  0  0  0  0  0
   15.2074   -3.4128   -9.3196 H   0  0  0  0  0  0  0  0  0  0  0  0
    7.5850   -1.3036   -7.3074 H   0  0  0  0  0  0  0  0  0  0  0  0
    5.7097   -0.8854   -5.6583 H   0  0  0  0  0  0  0  0  0  0  0  0
  1  2  1  0
  1 32  1  0
  1 33  1  0
  1 34  1  0
  2  3  1  0
  2 35  1  0
  2 36  1  0
  3  4  1  0
  3  6  1  0
  4  5  1  0
  4 37  1  0
  4 38  1  0
  5 39  1  0
  5 40  1  0
  5 41  1  0
  6  7  2  0
  6  8  1  0
  8  9  1  0
  8 42  1  0
  8 43  1  0
  9 10  1  0
  9 31  1  0
 10 11  2  0
 10 44  1  0
 11 12  1  0
 11 45  1  0
 12 13  1  0
 12 31  2  0
 13 14  2  0
 13 46  1  0
 14 15  1  0
 14 29  1  0
 15 16  1  0
 15 47  1  0
 16 17  2  0
 16 18  1  0
 18 19  1  0
 18 22  1  0
 19 20  1  0
 19 48  1  0
 19 49  1  0
 20 21  1  0
 20 50  1  0
 20 51  1  0
 21 52  1  0
 22 23  1  0
 22 53  1  0
 22 54  1  0
 23 24  2  0
 23 28  1  0
 24 25  1  0
 24 55  1  0
 25 26  2  0
 25 56  1  0
 26 27  1  0
 26 57  1  0
 27 28  2  0
 27 58  1  0
 28 59  1  0
 29 30  2  0
 29 60  1  0
 30 31  1  0
 30 61  1  0
M  END

