
     RDKit          3D

 75 81  0  0  0  0  0  0  0  0999 V2000
    0.3579   -2.7117    0.4170 C   0  0  0  0  0  0  0  0  0  0  0  0
    2.0989   -1.9920    0.3612 Si  0  0  1  0  0  4  0  0  0  0  0  0
    2.0731   -0.1280    0.6388 C   0  0  0  0  0  0  0  0  0  0  0  0
    3.2273   -2.8489    1.6034 C   0  0  0  0  0  0  0  0  0  0  0  0
    2.8074   -2.3088   -1.3844 C   0  0  0  0  0  0  0  0  0  0  0  0
    3.2538   -0.9942   -2.4688 S   0  0  0  0  0  0  0  0  0  0  0  0
    3.7846   -2.0067   -3.7673 C   0  0  0  0  0  0  0  0  0  0  0  0
    4.4437   -1.2229   -5.3785 Si  0  0  1  0  0  4  0  0  0  0  0  0
    4.3590    0.6498   -5.1795 C   0  0  0  0  0  0  0  0  0  0  0  0
    6.2306   -1.7753   -5.6250 C   0  0  0  0  0  0  0  0  0  0  0  0
    3.3431   -1.7807   -6.8051 C   0  0  0  0  0  0  0  0  0  0  0  0
    3.6211   -3.3512   -3.3765 C   0  0  0  0  0  0  0  0  0  0  0  0
    3.0728   -3.4831   -2.0432 C   0  0  0  0  0  0  0  0  0  0  0  0
    2.8663   -5.1768   -1.5502 S   0  0  0  0  0  0  0  0  0  0  0  0
    3.4980   -5.7137   -3.0792 C   0  0  0  0  0  0  0  0  0  0  0  0
    3.8549   -4.6331   -3.9418 C   0  0  0  0  0  0  0  0  0  0  0  0
    4.4935   -5.1977   -5.4635 S   0  0  0  0  0  0  0  0  0  0  0  0
    4.2765   -6.8571   -4.9249 C   0  0  0  0  0  0  0  0  0  0  0  0
    4.6273   -8.3472   -5.7021 S   0  0  0  0  0  0  0  0  0  0  0  0
    4.0453   -9.2111   -4.2865 C   0  0  0  0  0  0  0  0  0  0  0  0
    3.9108  -10.9220   -3.9419 S   0  0  0  0  0  0  0  0  0  0  0  0
    3.2223  -10.5416   -2.3588 C   0  0  0  0  0  0  0  0  0  0  0  0
    3.1198   -9.1395   -2.1530 C   0  0  0  0  0  0  0  0  0  0  0  0
    2.4262   -8.7788   -0.5809 S   0  0  0  0  0  0  0  0  0  0  0  0
    2.2776  -10.5161   -0.2126 C   0  0  0  0  0  0  0  0  0  0  0  0
    1.7861  -11.1657    0.9053 C   0  0  0  0  0  0  0  0  0  0  0  0
    1.0514  -10.5653    2.5143 Si  0  0  1  0  0  4  0  0  0  0  0  0
   -0.7090  -11.2404    2.7071 C   0  0  0  0  0  0  0  0  0  0  0  0
    2.0916  -11.1894    3.9705 C   0  0  0  0  0  0  0  0  0  0  0  0
    1.0058   -8.6711    2.5437 C   0  0  0  0  0  0  0  0  0  0  0  0
    1.9377  -12.9118    0.6071 S   0  0  0  0  0  0  0  0  0  0  0  0
    2.6545  -12.7387   -1.0045 C   0  0  0  0  0  0  0  0  0  0  0  0
    3.1252  -14.2518   -1.9792 Si  0  0  1  0  0  4  0  0  0  0  0  0
    2.1775  -14.3510   -3.6241 C   0  0  0  0  0  0  0  0  0  0  0  0
    4.9845  -14.2749   -2.3745 C   0  0  0  0  0  0  0  0  0  0  0  0
    2.7077  -15.7899   -0.9533 C   0  0  0  0  0  0  0  0  0  0  0  0
    2.7616  -11.3508   -1.2864 C   0  0  0  0  0  0  0  0  0  0  0  0
    3.5869   -8.3820   -3.2464 C   0  0  0  0  0  0  0  0  0  0  0  0
    3.7336   -6.9921   -3.6306 C   0  0  0  0  0  0  0  0  0  0  0  0
   -0.0827   -2.5679    1.4176 H   0  0  0  0  0  0  0  0  0  0  0  0
    0.3572   -3.7930    0.2048 H   0  0  0  0  0  0  0  0  0  0  0  0
   -0.3018   -2.2224   -0.3175 H   0  0  0  0  0  0  0  0  0  0  0  0
    1.6778    0.0944    1.6438 H   0  0  0  0  0  0  0  0  0  0  0  0
    1.4287    0.3879   -0.0915 H   0  0  0  0  0  0  0  0  0  0  0  0
    3.0824    0.3098    0.5755 H   0  0  0  0  0  0  0  0  0  0  0  0
    2.8396   -2.7144    2.6270 H   0  0  0  0  0  0  0  0  0  0  0  0
    4.2477   -2.4343    1.5703 H   0  0  0  0  0  0  0  0  0  0  0  0
    3.2964   -3.9321    1.4140 H   0  0  0  0  0  0  0  0  0  0  0  0
    4.9800    1.0054   -4.3415 H   0  0  0  0  0  0  0  0  0  0  0  0
    3.3276    1.0015   -5.0163 H   0  0  0  0  0  0  0  0  0  0  0  0
    4.7326    1.1344   -6.0970 H   0  0  0  0  0  0  0  0  0  0  0  0
    6.8661   -1.4353   -4.7916 H   0  0  0  0  0  0  0  0  0  0  0  0
    6.6332   -1.3426   -6.5563 H   0  0  0  0  0  0  0  0  0  0  0  0
    6.3260   -2.8701   -5.6965 H   0  0  0  0  0  0  0  0  0  0  0  0
    2.3065   -1.4363   -6.6598 H   0  0  0  0  0  0  0  0  0  0  0  0
    3.3224   -2.8763   -6.9148 H   0  0  0  0  0  0  0  0  0  0  0  0
    3.7114   -1.3562   -7.7542 H   0  0  0  0  0  0  0  0  0  0  0  0
   -0.7133  -12.3402    2.6306 H   0  0  0  0  0  0  0  0  0  0  0  0
   -1.3696  -10.8523    1.9145 H   0  0  0  0  0  0  0  0  0  0  0  0
   -1.1445  -10.9663    3.6831 H   0  0  0  0  0  0  0  0  0  0  0  0
    2.1757  -12.2884    3.9465 H   0  0  0  0  0  0  0  0  0  0  0  0
    1.6460  -10.9041    4.9387 H   0  0  0  0  0  0  0  0  0  0  0  0
    3.1141  -10.7795    3.9286 H   0  0  0  0  0  0  0  0  0  0  0  0
    0.3938   -8.2664    1.7212 H   0  0  0  0  0  0  0  0  0  0  0  0
    2.0164   -8.2397    2.4583 H   0  0  0  0  0  0  0  0  0  0  0  0
    0.5686   -8.3201    3.4941 H   0  0  0  0  0  0  0  0  0  0  0  0
    2.3639  -13.4674   -4.2564 H   0  0  0  0  0  0  0  0  0  0  0  0
    1.0914  -14.4040   -3.4430 H   0  0  0  0  0  0  0  0  0  0  0  0
    2.4738  -15.2456   -4.1994 H   0  0  0  0  0  0  0  0  0  0  0  0
    5.2893  -13.3874   -2.9532 H   0  0  0  0  0  0  0  0  0  0  0  0
    5.2549  -15.1694   -2.9625 H   0  0  0  0  0  0  0  0  0  0  0  0
    5.5780  -14.2829   -1.4455 H   0  0  0  0  0  0  0  0  0  0  0  0
    1.6301  -15.8446   -0.7277 H   0  0  0  0  0  0  0  0  0  0  0  0
    3.2513  -15.7971    0.0056 H   0  0  0  0  0  0  0  0  0  0  0  0
    2.9835  -16.7048   -1.5045 H   0  0  0  0  0  0  0  0  0  0  0  0
  2  1  1  6
  1 40  1  0
  1 41  1  0
  1 42  1  0
  2  3  1  0
  2  4  1  0
  2  5  1  0
  3 43  1  0
  3 44  1  0
  3 45  1  0
  4 46  1  0
  4 47  1  0
  4 48  1  0
  5  6  1  0
  5 13  2  0
  6  7  1  0
  7  8  1  0
  7 12  2  0
  8  9  1  1
  8 10  1  0
  8 11  1  0
  9 49  1  0
  9 50  1  0
  9 51  1  0
 10 52  1  0
 10 53  1  0
 10 54  1  0
 11 55  1  0
 11 56  1  0
 11 57  1  0
 12 13  1  0
 12 16  1  0
 13 14  1  0
 14 15  1  0
 15 16  2  0
 15 39  1  0
 16 17  1  0
 17 18  1  0
 18 19  1  0
 18 39  2  0
 19 20  1  0
 20 21  1  0
 20 38  2  0
 21 22  1  0
 22 23  2  0
 22 37  1  0
 23 24  1  0
 23 38  1  0
 24 25  1  0
 25 26  2  0
 25 37  1  0
 26 27  1  0
 26 31  1  0
 27 28  1  1
 27 29  1  0
 27 30  1  0
 28 58  1  0
 28 59  1  0
 28 60  1  0
 29 61  1  0
 29 62  1  0
 29 63  1  0
 30 64  1  0
 30 65  1  0
 30 66  1  0
 31 32  1  0
 32 33  1  0
 32 37  2  0
 33 34  1  6
 33 35  1  0
 33 36  1  0
 34 67  1  0
 34 68  1  0
 34 69  1  0
 35 70  1  0
 35 71  1  0
 35 72  1  0
 36 73  1  0
 36 74  1  0
 36 75  1  0
 38 39  1  0
M  END

