
     RDKit          3D

 48 50  0  0  0  0  0  0  0  0999 V2000
    2.8329    0.8471    0.8264 C   0  0  0  0  0  0  0  0  0  0  0  0
    2.7467    0.0529   -0.3294 O   0  0  0  0  0  0  0  0  0  0  0  0
    3.2454   -1.2934   -0.2737 C   0  0  1  0  0  0  0  0  0  0  0  0
    4.7580   -1.2330    0.0366 C   0  0  0  0  0  0  0  0  0  0  0  0
    5.2207   -1.8513    1.1233 N   0  0  0  0  0  0  0  0  0  0  0  0
    6.5335   -1.7621    1.3946 C   0  0  0  0  0  0  0  0  0  0  0  0
    7.0233   -2.4714    2.6275 C   0  0  0  0  0  0  0  0  0  0  0  0
    7.3821   -1.0329    0.5579 C   0  0  0  0  0  0  0  0  0  0  0  0
    6.8143   -0.4184   -0.5665 C   0  0  0  0  0  0  0  0  0  0  0  0
    7.6445    0.3625   -1.5796 C   0  0  0  0  0  0  0  0  0  0  0  0
    6.9856    1.5040   -2.1844 N   0  0  0  0  0  0  0  0  0  0  0  0
    6.7960    2.6290   -1.3102 C   0  0  1  0  0  0  0  0  0  0  0  0
    7.9131    3.6391   -1.2143 C   0  0  0  0  0  0  0  0  0  0  0  0
    6.6406    3.9813   -1.9495 C   0  0  0  0  0  0  0  0  0  0  0  0
    5.5083   -0.5250   -0.8177 N   0  0  0  0  0  0  0  0  0  0  0  0
    2.4555   -2.0959    0.7801 C   0  0  0  0  0  0  0  0  0  0  0  0
    2.5186   -3.6319    0.7471 C   0  0  0  0  0  0  0  0  0  0  0  0
    1.8169   -4.2798   -0.4573 C   0  0  0  0  0  0  0  0  0  0  0  0
    2.6499   -4.3756   -1.7490 C   0  0  0  0  0  0  0  0  0  0  0  0
    3.5906   -3.1913   -2.0340 C   0  0  0  0  0  0  0  0  0  0  0  0
    3.0383   -1.7925   -1.7206 C   0  0  0  0  0  0  0  0  0  0  0  0
    2.4910    1.8544    0.5442 H   0  0  0  0  0  0  0  0  0  0  0  0
    3.8672    0.9341    1.2123 H   0  0  0  0  0  0  0  0  0  0  0  0
    2.1902    0.4859    1.6511 H   0  0  0  0  0  0  0  0  0  0  0  0
    6.4766   -2.1091    3.5126 H   0  0  0  0  0  0  0  0  0  0  0  0
    8.1011   -2.3285    2.7879 H   0  0  0  0  0  0  0  0  0  0  0  0
    6.8142   -3.5504    2.5478 H   0  0  0  0  0  0  0  0  0  0  0  0
    8.4495   -0.9421    0.7723 H   0  0  0  0  0  0  0  0  0  0  0  0
    7.9254   -0.3483   -2.3801 H   0  0  0  0  0  0  0  0  0  0  0  0
    8.5876    0.6892   -1.1126 H   0  0  0  0  0  0  0  0  0  0  0  0
    6.0845    1.2030   -2.5568 H   0  0  0  0  0  0  0  0  0  0  0  0
    6.2161    2.4640   -0.3869 H   0  0  0  0  0  0  0  0  0  0  0  0
    8.8029    3.4456   -1.8198 H   0  0  0  0  0  0  0  0  0  0  0  0
    8.1060    4.1142   -0.2482 H   0  0  0  0  0  0  0  0  0  0  0  0
    6.6857    4.0112   -3.0414 H   0  0  0  0  0  0  0  0  0  0  0  0
    5.9455    4.6935   -1.4961 H   0  0  0  0  0  0  0  0  0  0  0  0
    1.4020   -1.7891    0.6586 H   0  0  0  0  0  0  0  0  0  0  0  0
    2.7747   -1.7642    1.7785 H   0  0  0  0  0  0  0  0  0  0  0  0
    2.0237   -3.9864    1.6673 H   0  0  0  0  0  0  0  0  0  0  0  0
    3.5642   -3.9718    0.8256 H   0  0  0  0  0  0  0  0  0  0  0  0
    0.8872   -3.7179   -0.6570 H   0  0  0  0  0  0  0  0  0  0  0  0
    1.4880   -5.2973   -0.1854 H   0  0  0  0  0  0  0  0  0  0  0  0
    1.9567   -4.5053   -2.5987 H   0  0  0  0  0  0  0  0  0  0  0  0
    3.2599   -5.2958   -1.7237 H   0  0  0  0  0  0  0  0  0  0  0  0
    3.8741   -3.2284   -3.0990 H   0  0  0  0  0  0  0  0  0  0  0  0
    4.5369   -3.3357   -1.4854 H   0  0  0  0  0  0  0  0  0  0  0  0
    1.9602   -1.7282   -1.9423 H   0  0  0  0  0  0  0  0  0  0  0  0
    3.5324   -1.0446   -2.3561 H   0  0  0  0  0  0  0  0  0  0  0  0
  1  2  1  0
  1 22  1  0
  1 23  1  0
  1 24  1  0
  3  2  1  6
  3  4  1  0
  3 16  1  0
  3 21  1  0
  4  5  2  0
  4 15  1  0
  5  6  1  0
  6  7  1  0
  6  8  2  0
  7 25  1  0
  7 26  1  0
  7 27  1  0
  8  9  1  0
  8 28  1  0
  9 10  1  0
  9 15  2  0
 10 11  1  0
 10 29  1  0
 10 30  1  0
 11 12  1  0
 11 31  1  0
 12 13  1  0
 12 14  1  0
 12 32  1  1
 13 14  1  0
 13 33  1  0
 13 34  1  0
 14 35  1  0
 14 36  1  0
 16 17  1  0
 16 37  1  0
 16 38  1  0
 17 18  1  0
 17 39  1  0
 17 40  1  0
 18 19  1  0
 18 41  1  0
 18 42  1  0
 19 20  1  0
 19 43  1  0
 19 44  1  0
 20 21  1  0
 20 45  1  0
 20 46  1  0
 21 47  1  0
 21 48  1  0
M  END

