
     RDKit          3D

 84 93  0  0  0  0  0  0  0  0999 V2000
    1.9869    1.0056   -1.7117 C   0  0  0  0  0  0  0  0  0  0  0  0
    1.0511    1.8334   -1.1834 C   0  0  0  0  0  0  0  0  0  0  0  0
   -0.3074    1.9863   -1.6579 C   0  0  0  0  0  0  0  0  0  0  0  0
   -0.9762    1.3753   -2.7104 C   0  0  0  0  0  0  0  0  0  0  0  0
   -2.3163    1.7966   -2.8521 C   0  0  0  0  0  0  0  0  0  0  0  0
   -2.7104    2.7416   -1.9122 C   0  0  0  0  0  0  0  0  0  0  0  0
   -3.9932    3.3879   -1.7573 C   0  0  0  0  0  0  0  0  0  0  0  0
   -4.3904    4.3256   -0.8115 C   0  0  0  0  0  0  0  0  0  0  0  0
   -5.7297    4.7488   -0.9551 C   0  0  0  0  0  0  0  0  0  0  0  0
   -6.3949    4.1466   -2.0149 C   0  0  0  0  0  0  0  0  0  0  0  0
   -7.7515    4.3035   -2.4933 C   0  0  0  0  0  0  0  0  0  0  0  0
   -8.6885    5.1291   -1.9636 C   0  0  0  0  0  0  0  0  0  0  0  0
  -10.0645    5.3087   -2.4235 C   0  0  0  0  0  0  0  0  0  0  0  0
  -10.8933    6.2393   -1.7615 C   0  0  0  0  0  0  0  0  0  0  0  0
  -12.2091    6.4630   -2.1605 C   0  0  0  0  0  0  0  0  0  0  0  0
  -12.7526    5.7441   -3.2353 C   0  0  0  0  0  0  0  0  0  0  0  0
  -14.0929    5.9584   -3.6448 N   0  0  0  0  0  0  0  0  0  0  0  0
  -14.5079    6.3087   -4.9348 C   0  0  0  0  0  0  0  0  0  0  0  0
  -13.7428    6.5583   -6.0815 C   0  0  0  0  0  0  0  0  0  0  0  0
  -14.4166    6.9172   -7.2497 C   0  0  0  0  0  0  0  0  0  0  0  0
  -15.8191    7.0325   -7.2826 C   0  0  0  0  0  0  0  0  0  0  0  0
  -16.5760    6.7972   -6.1357 C   0  0  0  0  0  0  0  0  0  0  0  0
  -15.9236    6.4354   -4.9482 C   0  0  0  0  0  0  0  0  0  0  0  0
  -16.3820    6.1468   -3.6032 C   0  0  0  0  0  0  0  0  0  0  0  0
  -17.6485    6.0961   -3.0033 C   0  0  0  0  0  0  0  0  0  0  0  0
  -17.7490    5.7569   -1.6547 C   0  0  0  0  0  0  0  0  0  0  0  0
  -16.5955    5.4603   -0.9046 C   0  0  0  0  0  0  0  0  0  0  0  0
  -15.3234    5.5038   -1.4769 C   0  0  0  0  0  0  0  0  0  0  0  0
  -15.2256    5.8587   -2.8287 C   0  0  0  0  0  0  0  0  0  0  0  0
  -11.9456    4.8040   -3.9006 C   0  0  0  0  0  0  0  0  0  0  0  0
  -10.6282    4.5979   -3.5065 C   0  0  0  0  0  0  0  0  0  0  0  0
   -5.3204    3.0364   -2.8387 S   0  0  0  0  0  0  0  0  0  0  0  0
   -1.3788    3.1033   -0.8396 S   0  0  0  0  0  0  0  0  0  0  0  0
    3.3647    0.8296   -1.2559 C   0  0  0  0  0  0  0  0  0  0  0  0
    3.9314    1.5457   -0.1780 C   0  0  0  0  0  0  0  0  0  0  0  0
    5.2505    1.3429    0.2121 C   0  0  0  0  0  0  0  0  0  0  0  0
    6.0563    0.4010   -0.4521 C   0  0  0  0  0  0  0  0  0  0  0  0
    7.3983    0.1901   -0.0466 N   0  0  0  0  0  0  0  0  0  0  0  0
    7.8186   -0.1540    1.2433 C   0  0  0  0  0  0  0  0  0  0  0  0
    7.0581   -0.3993    2.3940 C   0  0  0  0  0  0  0  0  0  0  0  0
    7.7368   -0.7522    3.5613 C   0  0  0  0  0  0  0  0  0  0  0  0
    9.1395   -0.8657    3.5894 C   0  0  0  0  0  0  0  0  0  0  0  0
    9.8918   -0.6347    2.4386 C   0  0  0  0  0  0  0  0  0  0  0  0
    9.2345   -0.2789    1.2519 C   0  0  0  0  0  0  0  0  0  0  0  0
    9.6875    0.0042   -0.0960 C   0  0  0  0  0  0  0  0  0  0  0  0
   10.9517    0.0537   -0.7010 C   0  0  0  0  0  0  0  0  0  0  0  0
   11.0466    0.3870   -2.0514 C   0  0  0  0  0  0  0  0  0  0  0  0
    9.8900    0.6789   -2.7985 C   0  0  0  0  0  0  0  0  0  0  0  0
    8.6201    0.6364   -2.2212 C   0  0  0  0  0  0  0  0  0  0  0  0
    8.5278    0.2875   -0.8675 C   0  0  0  0  0  0  0  0  0  0  0  0
    5.5097   -0.3233   -1.5217 C   0  0  0  0  0  0  0  0  0  0  0  0
    4.1922   -0.1029   -1.9168 C   0  0  0  0  0  0  0  0  0  0  0  0
    1.7074    0.3887   -2.5722 H   0  0  0  0  0  0  0  0  0  0  0  0
    1.3180    2.4512   -0.3202 H   0  0  0  0  0  0  0  0  0  0  0  0
   -0.5083    0.6389   -3.3647 H   0  0  0  0  0  0  0  0  0  0  0  0
   -2.9877    1.4195   -3.6255 H   0  0  0  0  0  0  0  0  0  0  0  0
   -3.7222    4.6950   -0.0316 H   0  0  0  0  0  0  0  0  0  0  0  0
   -6.2000    5.4796   -0.2962 H   0  0  0  0  0  0  0  0  0  0  0  0
   -8.0158    3.6910   -3.3611 H   0  0  0  0  0  0  0  0  0  0  0  0
   -8.4116    5.7411   -1.0988 H   0  0  0  0  0  0  0  0  0  0  0  0
  -10.4865    6.8107   -0.9227 H   0  0  0  0  0  0  0  0  0  0  0  0
  -12.8206    7.2068   -1.6462 H   0  0  0  0  0  0  0  0  0  0  0  0
  -12.6546    6.4820   -6.0655 H   0  0  0  0  0  0  0  0  0  0  0  0
  -13.8395    7.1155   -8.1566 H   0  0  0  0  0  0  0  0  0  0  0  0
  -16.3155    7.3139   -8.2144 H   0  0  0  0  0  0  0  0  0  0  0  0
  -17.6641    6.8973   -6.1594 H   0  0  0  0  0  0  0  0  0  0  0  0
  -18.5455    6.3163   -3.5877 H   0  0  0  0  0  0  0  0  0  0  0  0
  -18.7298    5.7152   -1.1753 H   0  0  0  0  0  0  0  0  0  0  0  0
  -16.6951    5.1866    0.1490 H   0  0  0  0  0  0  0  0  0  0  0  0
  -14.4373    5.2623   -0.8881 H   0  0  0  0  0  0  0  0  0  0  0  0
  -12.3671    4.2253   -4.7247 H   0  0  0  0  0  0  0  0  0  0  0  0
  -10.0324    3.8571   -4.0435 H   0  0  0  0  0  0  0  0  0  0  0  0
    3.3366    2.2880    0.3581 H   0  0  0  0  0  0  0  0  0  0  0  0
    5.6743    1.9257    1.0322 H   0  0  0  0  0  0  0  0  0  0  0  0
    5.9698   -0.3244    2.3817 H   0  0  0  0  0  0  0  0  0  0  0  0
    7.1633   -0.9471    4.4712 H   0  0  0  0  0  0  0  0  0  0  0  0
    9.6398   -1.1423    4.5205 H   0  0  0  0  0  0  0  0  0  0  0  0
   10.9801   -0.7334    2.4586 H   0  0  0  0  0  0  0  0  0  0  0  0
   11.8511   -0.1628   -0.1190 H   0  0  0  0  0  0  0  0  0  0  0  0
   12.0256    0.4277   -2.5347 H   0  0  0  0  0  0  0  0  0  0  0  0
    9.9853    0.9480   -3.8537 H   0  0  0  0  0  0  0  0  0  0  0  0
    7.7315    0.8741   -2.8077 H   0  0  0  0  0  0  0  0  0  0  0  0
    6.1203   -1.0686   -2.0349 H   0  0  0  0  0  0  0  0  0  0  0  0
    3.7830   -0.6785   -2.7516 H   0  0  0  0  0  0  0  0  0  0  0  0
  1  2  2  0
  1 34  1  0
  1 53  1  0
  2  3  1  0
  2 54  1  0
  3  4  2  0
  3 33  1  0
  4  5  1  0
  4 55  1  0
  5  6  2  0
  5 56  1  0
  6  7  1  0
  6 33  1  0
  7  8  2  0
  7 32  1  0
  8  9  1  0
  8 57  1  0
  9 10  2  0
  9 58  1  0
 10 11  1  0
 10 32  1  0
 11 12  2  0
 11 59  1  0
 12 13  1  0
 12 60  1  0
 13 14  2  0
 13 31  1  0
 14 15  1  0
 14 61  1  0
 15 16  2  0
 15 62  1  0
 16 17  1  0
 16 30  1  0
 17 18  1  0
 17 29  1  0
 18 19  2  0
 18 23  1  0
 19 20  1  0
 19 63  1  0
 20 21  2  0
 20 64  1  0
 21 22  1  0
 21 65  1  0
 22 23  2  0
 22 66  1  0
 23 24  1  0
 24 25  1  0
 24 29  2  0
 25 26  2  0
 25 67  1  0
 26 27  1  0
 26 68  1  0
 27 28  2  0
 27 69  1  0
 28 29  1  0
 28 70  1  0
 30 31  2  0
 30 71  1  0
 31 72  1  0
 34 35  2  0
 34 52  1  0
 35 36  1  0
 35 73  1  0
 36 37  2  0
 36 74  1  0
 37 38  1  0
 37 51  1  0
 38 39  1  0
 38 50  1  0
 39 40  2  0
 39 44  1  0
 40 41  1  0
 40 75  1  0
 41 42  2  0
 41 76  1  0
 42 43  1  0
 42 77  1  0
 43 44  2  0
 43 78  1  0
 44 45  1  0
 45 46  1  0
 45 50  2  0
 46 47  2  0
 46 79  1  0
 47 48  1  0
 47 80  1  0
 48 49  2  0
 48 81  1  0
 49 50  1  0
 49 82  1  0
 51 52  2  0
 51 83  1  0
 52 84  1  0
M  END

