
     RDKit          3D

 49 51  0  0  0  0  0  0  0  0999 V2000
    0.1872   -5.1417   -5.8138 C   0  0  0  0  0  0  0  0  0  0  0  0
   -0.3394   -3.8424   -6.3686 C   0  0  0  0  0  0  0  0  0  0  0  0
   -0.6405   -3.6946   -7.7293 C   0  0  0  0  0  0  0  0  0  0  0  0
   -1.0964   -2.4729   -8.2337 C   0  0  0  0  0  0  0  0  0  0  0  0
   -1.4626   -2.3303   -9.9422 Cl  0  0  0  0  0  0  0  0  0  0  0  0
   -1.2555   -1.3659   -7.3988 C   0  0  0  0  0  0  0  0  0  0  0  0
   -0.9584   -1.5020   -6.0408 C   0  0  0  0  0  0  0  0  0  0  0  0
   -0.5099   -2.7225   -5.5274 C   0  0  0  0  0  0  0  0  0  0  0  0
   -0.1870   -2.8229   -4.1963 O   0  0  0  0  0  0  0  0  0  0  0  0
   -1.2351   -3.2532   -3.3309 C   0  0  0  0  0  0  0  0  0  0  0  0
   -0.6146   -3.7103   -2.0192 C   0  0  0  0  0  0  0  0  0  0  0  0
   -1.6350   -4.2918   -1.0419 C   0  0  0  0  0  0  0  0  0  0  0  0
   -2.1659   -5.6612   -1.4808 C   0  0  0  0  0  0  0  0  0  0  0  0
   -1.7201   -6.2868   -2.4180 O   0  0  0  0  0  0  0  0  0  0  0  0
   -3.1994   -6.1199   -0.6812 N   0  0  0  0  0  0  0  0  0  0  0  0
   -3.7708   -7.3246   -0.8784 N   0  0  0  0  0  0  0  0  0  0  0  0
   -4.7194   -7.6754   -0.0873 C   0  0  0  0  0  0  0  0  0  0  0  0
   -5.3901   -8.9669   -0.2240 C   0  0  0  0  0  0  0  0  0  0  0  0
   -4.9990   -9.8912   -1.2372 C   0  0  0  0  0  0  0  0  0  0  0  0
   -5.6177  -11.1079   -1.3727 C   0  0  0  0  0  0  0  0  0  0  0  0
   -6.6776  -11.4837   -0.4970 C   0  0  0  0  0  0  0  0  0  0  0  0
   -7.3387  -12.7364   -0.6084 C   0  0  0  0  0  0  0  0  0  0  0  0
   -8.3638  -13.0855    0.2474 C   0  0  0  0  0  0  0  0  0  0  0  0
   -8.7767  -12.1890    1.2616 C   0  0  0  0  0  0  0  0  0  0  0  0
   -8.1552  -10.9637    1.3976 C   0  0  0  0  0  0  0  0  0  0  0  0
   -7.0954  -10.5739    0.5321 C   0  0  0  0  0  0  0  0  0  0  0  0
   -6.4272   -9.3110    0.6452 C   0  0  0  0  0  0  0  0  0  0  0  0
   -6.7795   -8.4104    1.5997 O   0  0  0  0  0  0  0  0  0  0  0  0
    0.2952   -5.8948   -6.6075 H   0  0  0  0  0  0  0  0  0  0  0  0
   -0.4702   -5.5605   -5.0344 H   0  0  0  0  0  0  0  0  0  0  0  0
    1.1716   -4.9910   -5.3416 H   0  0  0  0  0  0  0  0  0  0  0  0
   -0.5145   -4.5398   -8.4090 H   0  0  0  0  0  0  0  0  0  0  0  0
   -1.6030   -0.4155   -7.8069 H   0  0  0  0  0  0  0  0  0  0  0  0
   -1.0608   -0.6529   -5.3611 H   0  0  0  0  0  0  0  0  0  0  0  0
   -1.7969   -4.0801   -3.7960 H   0  0  0  0  0  0  0  0  0  0  0  0
   -1.9463   -2.4198   -3.1599 H   0  0  0  0  0  0  0  0  0  0  0  0
   -0.0932   -2.8588   -1.5533 H   0  0  0  0  0  0  0  0  0  0  0  0
    0.1434   -4.4749   -2.2460 H   0  0  0  0  0  0  0  0  0  0  0  0
   -2.4848   -3.6004   -0.8931 H   0  0  0  0  0  0  0  0  0  0  0  0
   -1.1717   -4.4163   -0.0471 H   0  0  0  0  0  0  0  0  0  0  0  0
   -3.5237   -5.5337    0.0920 H   0  0  0  0  0  0  0  0  0  0  0  0
   -5.0627   -7.0165    0.7287 H   0  0  0  0  0  0  0  0  0  0  0  0
   -4.1860   -9.5918   -1.9010 H   0  0  0  0  0  0  0  0  0  0  0  0
   -5.3057  -11.8050   -2.1541 H   0  0  0  0  0  0  0  0  0  0  0  0
   -7.0172  -13.4262   -1.3933 H   0  0  0  0  0  0  0  0  0  0  0  0
   -8.8597  -14.0539    0.1449 H   0  0  0  0  0  0  0  0  0  0  0  0
   -9.5883  -12.4671    1.9380 H   0  0  0  0  0  0  0  0  0  0  0  0
   -8.5028  -10.2980    2.1946 H   0  0  0  0  0  0  0  0  0  0  0  0
   -7.5036   -8.7575    2.1343 H   0  0  0  0  0  0  0  0  0  0  0  0
  1  2  1  0
  1 29  1  0
  1 30  1  0
  1 31  1  0
  2  3  2  0
  2  8  1  0
  3  4  1  0
  3 32  1  0
  4  5  1  0
  4  6  2  0
  6  7  1  0
  6 33  1  0
  7  8  2  0
  7 34  1  0
  8  9  1  0
  9 10  1  0
 10 11  1  0
 10 35  1  0
 10 36  1  0
 11 12  1  0
 11 37  1  0
 11 38  1  0
 12 13  1  0
 12 39  1  0
 12 40  1  0
 13 14  2  0
 13 15  1  0
 15 16  1  0
 15 41  1  0
 16 17  2  0
 17 18  1  0
 17 42  1  0
 18 19  2  0
 18 27  1  0
 19 20  1  0
 19 43  1  0
 20 21  2  0
 20 44  1  0
 21 22  1  0
 21 26  1  0
 22 23  2  0
 22 45  1  0
 23 24  1  0
 23 46  1  0
 24 25  2  0
 24 47  1  0
 25 26  1  0
 25 48  1  0
 26 27  2  0
 27 28  1  0
 28 49  1  0
M  END

