
     RDKit          3D

 43 44  0  0  0  0  0  0  0  0999 V2000
    2.0610   -4.0974   -2.5285 C   0  0  0  0  0  0  0  0  0  0  0  0
    2.0719   -3.5057   -1.2546 O   0  0  0  0  0  0  0  0  0  0  0  0
    3.2399   -2.9146   -0.8062 C   0  0  0  0  0  0  0  0  0  0  0  0
    4.3761   -2.7746   -1.5827 C   0  0  0  0  0  0  0  0  0  0  0  0
    5.5546   -2.1377   -1.0242 C   0  0  0  0  0  0  0  0  0  0  0  0
    5.4976   -1.7100    0.3071 C   0  0  0  0  0  0  0  0  0  0  0  0
    7.0746   -0.8960    1.0707 Br  0  0  0  0  0  0  0  0  0  0  0  0
    4.3779   -1.8387    1.1089 C   0  0  0  0  0  0  0  0  0  0  0  0
    3.1777   -2.4456    0.5375 C   0  0  0  0  0  0  0  0  0  0  0  0
    1.9799   -2.7250    1.3712 C   0  0  0  0  0  0  0  0  0  0  0  0
    1.0113   -1.6174    1.4270 N   0  0  0  0  0  0  0  0  0  0  0  0
   -0.2327   -1.5380    2.1629 C   0  0  1  0  0  0  0  0  0  0  0  0
   -0.3482   -2.5857    3.2764 C   0  0  0  0  0  0  0  0  0  0  0  0
   -0.4730   -0.1102    2.6366 C   0  0  0  0  0  0  0  0  0  0  0  0
    0.5661    0.5772    3.2799 C   0  0  0  0  0  0  0  0  0  0  0  0
    0.3844    1.8750    3.7600 C   0  0  0  0  0  0  0  0  0  0  0  0
   -0.8511    2.5174    3.6177 C   0  0  0  0  0  0  0  0  0  0  0  0
   -1.0800    3.9157    4.1344 C   0  0  0  0  0  0  0  0  0  0  0  0
   -1.8869    1.8166    2.9774 C   0  0  0  0  0  0  0  0  0  0  0  0
   -1.7303    0.5181    2.4786 C   0  0  0  0  0  0  0  0  0  0  0  0
   -2.8916   -0.1674    1.7946 C   0  0  0  0  0  0  0  0  0  0  0  0
    1.0634   -4.5390   -2.6702 H   0  0  0  0  0  0  0  0  0  0  0  0
    2.8238   -4.8920   -2.6211 H   0  0  0  0  0  0  0  0  0  0  0  0
    2.2393   -3.3565   -3.3299 H   0  0  0  0  0  0  0  0  0  0  0  0
    4.4020   -3.1158   -2.6163 H   0  0  0  0  0  0  0  0  0  0  0  0
    6.4526   -2.0068   -1.6241 H   0  0  0  0  0  0  0  0  0  0  0  0
    4.4022   -1.5204    2.1512 H   0  0  0  0  0  0  0  0  0  0  0  0
    2.2184   -2.9477    2.4289 H   0  0  0  0  0  0  0  0  0  0  0  0
    1.3948   -3.5904    1.0065 H   0  0  0  0  0  0  0  0  0  0  0  0
    1.2149   -0.8430    0.7927 H   0  0  0  0  0  0  0  0  0  0  0  0
   -1.0007   -1.7770    1.3969 H   0  0  0  0  0  0  0  0  0  0  0  0
    0.4060   -2.4150    4.0582 H   0  0  0  0  0  0  0  0  0  0  0  0
   -0.2384   -3.6100    2.8933 H   0  0  0  0  0  0  0  0  0  0  0  0
   -1.3389   -2.4971    3.7432 H   0  0  0  0  0  0  0  0  0  0  0  0
    1.5385    0.0955    3.4170 H   0  0  0  0  0  0  0  0  0  0  0  0
    1.2142    2.3887    4.2513 H   0  0  0  0  0  0  0  0  0  0  0  0
   -0.1634    4.3443    4.5641 H   0  0  0  0  0  0  0  0  0  0  0  0
   -1.8576    3.9275    4.9163 H   0  0  0  0  0  0  0  0  0  0  0  0
   -1.4234    4.5861    3.3296 H   0  0  0  0  0  0  0  0  0  0  0  0
   -2.8584    2.3058    2.8590 H   0  0  0  0  0  0  0  0  0  0  0  0
   -3.7855    0.4712    1.8083 H   0  0  0  0  0  0  0  0  0  0  0  0
   -3.1624   -1.1176    2.2848 H   0  0  0  0  0  0  0  0  0  0  0  0
   -2.6734   -0.3963    0.7372 H   0  0  0  0  0  0  0  0  0  0  0  0
  1  2  1  0
  1 22  1  0
  1 23  1  0
  1 24  1  0
  2  3  1  0
  3  4  2  0
  3  9  1  0
  4  5  1  0
  4 25  1  0
  5  6  2  0
  5 26  1  0
  6  7  1  0
  6  8  1  0
  8  9  2  0
  8 27  1  0
  9 10  1  0
 10 11  1  0
 10 28  1  0
 10 29  1  0
 11 12  1  0
 11 30  1  0
 12 13  1  0
 12 14  1  0
 12 31  1  6
 13 32  1  0
 13 33  1  0
 13 34  1  0
 14 15  2  0
 14 20  1  0
 15 16  1  0
 15 35  1  0
 16 17  2  0
 16 36  1  0
 17 18  1  0
 17 19  1  0
 18 37  1  0
 18 38  1  0
 18 39  1  0
 19 20  2  0
 19 40  1  0
 20 21  1  0
 21 41  1  0
 21 42  1  0
 21 43  1  0
M  END

