
     RDKit          3D

 40 40  0  0  0  0  0  0  0  0999 V2000
    1.1960    0.2751    2.1656 C   0  0  0  0  0  0  0  0  0  0  0  0
    2.1474    1.2711    1.8979 O   0  0  0  0  0  0  0  0  0  0  0  0
    3.2330    0.8319    1.1128 C   0  0  0  0  0  0  0  0  0  0  0  0
    4.2227    1.9719    0.9171 C   0  0  0  0  0  0  0  0  0  0  0  0
    4.8841    2.4090    2.1397 N   0  0  0  0  0  0  0  0  0  0  0  0
    4.1894    3.3137    3.0401 C   0  0  0  0  0  0  0  0  0  0  0  0
    6.1643    1.9476    2.3792 C   0  0  0  0  0  0  0  0  0  0  0  0
    6.7216    1.1364    1.6433 O   0  0  0  0  0  0  0  0  0  0  0  0
    6.7804    2.4371    3.5158 N   0  0  0  0  0  0  0  0  0  0  0  0
    8.2003    2.1706    3.7660 C   0  0  1  0  0  0  0  0  0  0  0  0
    8.7123    3.0986    4.8783 C   0  0  0  0  0  0  0  0  0  0  0  0
    8.1365    2.7464    6.2583 C   0  0  0  0  0  0  0  0  0  0  0  0
    8.3655    1.2720    6.6113 C   0  0  0  0  0  0  0  0  0  0  0  0
    7.8328    0.3407    5.5148 C   0  0  2  0  0  0  0  0  0  0  0  0
    8.0349   -1.1295    5.8806 C   0  0  0  0  0  0  0  0  0  0  0  0
    8.4824   -1.5137    6.9272 O   0  0  0  0  0  0  0  0  0  0  0  0
    7.6514   -2.0222    4.9377 O   0  0  0  0  0  0  0  0  0  0  0  0
    8.4417    0.6965    4.1443 C   0  0  0  0  0  0  0  0  0  0  0  0
    0.3985    0.7237    2.7759 H   0  0  0  0  0  0  0  0  0  0  0  0
    1.6326   -0.5768    2.7253 H   0  0  0  0  0  0  0  0  0  0  0  0
    0.7441   -0.1263    1.2357 H   0  0  0  0  0  0  0  0  0  0  0  0
    2.8790    0.4848    0.1183 H   0  0  0  0  0  0  0  0  0  0  0  0
    3.7467   -0.0249    1.5949 H   0  0  0  0  0  0  0  0  0  0  0  0
    3.6979    2.8305    0.4640 H   0  0  0  0  0  0  0  0  0  0  0  0
    5.0020    1.6357    0.2209 H   0  0  0  0  0  0  0  0  0  0  0  0
    3.1287    3.3402    2.7667 H   0  0  0  0  0  0  0  0  0  0  0  0
    4.5899    4.3464    3.0009 H   0  0  0  0  0  0  0  0  0  0  0  0
    4.2412    2.9595    4.0834 H   0  0  0  0  0  0  0  0  0  0  0  0
    6.3942    3.2637    3.9533 H   0  0  0  0  0  0  0  0  0  0  0  0
    8.7619    2.3671    2.8361 H   0  0  0  0  0  0  0  0  0  0  0  0
    8.4994    4.1506    4.6178 H   0  0  0  0  0  0  0  0  0  0  0  0
    9.8111    3.0073    4.9097 H   0  0  0  0  0  0  0  0  0  0  0  0
    7.0532    2.9642    6.2819 H   0  0  0  0  0  0  0  0  0  0  0  0
    8.5910    3.3934    7.0265 H   0  0  0  0  0  0  0  0  0  0  0  0
    7.8976    1.0208    7.5749 H   0  0  0  0  0  0  0  0  0  0  0  0
    9.4447    1.0795    6.7411 H   0  0  0  0  0  0  0  0  0  0  0  0
    6.7374    0.4837    5.4315 H   0  0  0  0  0  0  0  0  0  0  0  0
    7.3380   -1.5632    4.1445 H   0  0  0  0  0  0  0  0  0  0  0  0
    8.0350    0.0810    3.3281 H   0  0  0  0  0  0  0  0  0  0  0  0
    9.5307    0.5175    4.1695 H   0  0  0  0  0  0  0  0  0  0  0  0
  1  2  1  0
  1 19  1  0
  1 20  1  0
  1 21  1  0
  2  3  1  0
  3  4  1  0
  3 22  1  0
  3 23  1  0
  4  5  1  0
  4 24  1  0
  4 25  1  0
  5  6  1  0
  5  7  1  0
  6 26  1  0
  6 27  1  0
  6 28  1  0
  7  8  2  0
  7  9  1  0
  9 10  1  0
  9 29  1  0
 10 11  1  0
 10 18  1  0
 10 30  1  6
 11 12  1  0
 11 31  1  0
 11 32  1  0
 12 13  1  0
 12 33  1  0
 12 34  1  0
 13 14  1  0
 13 35  1  0
 13 36  1  0
 14 15  1  0
 14 18  1  0
 14 37  1  6
 15 16  2  0
 15 17  1  0
 17 38  1  0
 18 39  1  0
 18 40  1  0
M  END

