
     RDKit          3D

 37 38  0  0  0  0  0  0  0  0999 V2000
   11.2507   -2.9482    0.3326 C   0  0  0  0  0  0  0  0  0  0  0  0
   10.7221   -1.8774    0.5265 C   0  0  0  0  0  0  0  0  0  0  0  0
   10.1181   -0.5676    0.7595 C   0  0  0  0  0  0  0  0  0  0  0  0
    8.7135   -0.7115    0.8959 O   0  0  0  0  0  0  0  0  0  0  0  0
    7.9464    0.3901    1.1213 C   0  0  0  0  0  0  0  0  0  0  0  0
    8.4609    1.6894    1.2329 C   0  0  0  0  0  0  0  0  0  0  0  0
    7.5980    2.7649    1.4651 C   0  0  0  0  0  0  0  0  0  0  0  0
    6.2221    2.5555    1.5875 C   0  0  0  0  0  0  0  0  0  0  0  0
    5.7120    1.2631    1.4765 C   0  0  0  0  0  0  0  0  0  0  0  0
    6.5501    0.1600    1.2432 C   0  0  0  0  0  0  0  0  0  0  0  0
    6.0327   -1.2048    1.1233 C   0  0  0  0  0  0  0  0  0  0  0  0
    4.7786   -1.4761    1.2182 N   0  0  0  0  0  0  0  0  0  0  0  0
    4.3795   -2.7515    1.0987 N   0  0  0  0  0  0  0  0  0  0  0  0
    3.0392   -3.1491    1.1842 C   0  0  0  0  0  0  0  0  0  0  0  0
    2.7521   -4.3266    1.0681 O   0  0  0  0  0  0  0  0  0  0  0  0
    2.1800   -2.1037    1.3990 N   0  0  0  0  0  0  0  0  0  0  0  0
    0.7833   -2.1364    1.5389 C   0  0  0  0  0  0  0  0  0  0  0  0
    0.0260   -3.3205    1.4736 C   0  0  0  0  0  0  0  0  0  0  0  0
   -1.3616   -3.2594    1.6245 C   0  0  0  0  0  0  0  0  0  0  0  0
   -2.0168   -2.0438    1.8393 C   0  0  0  0  0  0  0  0  0  0  0  0
   -1.2622   -0.8684    1.9035 C   0  0  0  0  0  0  0  0  0  0  0  0
    0.1235   -0.9118    1.7552 C   0  0  0  0  0  0  0  0  0  0  0  0
   11.7151   -3.9015    0.1606 H   0  0  0  0  0  0  0  0  0  0  0  0
   10.3572    0.1073   -0.0848 H   0  0  0  0  0  0  0  0  0  0  0  0
   10.5511   -0.1159    1.6729 H   0  0  0  0  0  0  0  0  0  0  0  0
    9.5306    1.8761    1.1410 H   0  0  0  0  0  0  0  0  0  0  0  0
    8.0119    3.7727    1.5502 H   0  0  0  0  0  0  0  0  0  0  0  0
    5.5496    3.3968    1.7687 H   0  0  0  0  0  0  0  0  0  0  0  0
    4.6398    1.0823    1.5703 H   0  0  0  0  0  0  0  0  0  0  0  0
    6.7704   -2.0020    0.9464 H   0  0  0  0  0  0  0  0  0  0  0  0
    5.0427   -3.5117    0.9370 H   0  0  0  0  0  0  0  0  0  0  0  0
    2.6334   -1.1966    1.4640 H   0  0  0  0  0  0  0  0  0  0  0  0
    0.5340   -4.2677    1.3058 H   0  0  0  0  0  0  0  0  0  0  0  0
   -1.9382   -4.1869    1.5714 H   0  0  0  0  0  0  0  0  0  0  0  0
   -3.1027   -2.0114    1.9552 H   0  0  0  0  0  0  0  0  0  0  0  0
   -1.7536    0.0936    2.0707 H   0  0  0  0  0  0  0  0  0  0  0  0
    0.7069    0.0125    1.8072 H   0  0  0  0  0  0  0  0  0  0  0  0
  1  2  3  0
  1 23  1  0
  2  3  1  0
  3  4  1  0
  3 24  1  0
  3 25  1  0
  4  5  1  0
  5  6  2  0
  5 10  1  0
  6  7  1  0
  6 26  1  0
  7  8  2  0
  7 27  1  0
  8  9  1  0
  8 28  1  0
  9 10  2  0
  9 29  1  0
 10 11  1  0
 11 12  2  0
 11 30  1  0
 12 13  1  0
 13 14  1  0
 13 31  1  0
 14 15  2  0
 14 16  1  0
 16 17  1  0
 16 32  1  0
 17 18  2  0
 17 22  1  0
 18 19  1  0
 18 33  1  0
 19 20  2  0
 19 34  1  0
 20 21  1  0
 20 35  1  0
 21 22  2  0
 21 36  1  0
 22 37  1  0
M  END

