
     RDKit          3D

 88 96  0  0  0  0  0  0  0  0999 V2000
    0.1910    2.0372    2.2714 O   0  0  0  0  0  0  0  0  0  0  0  0
    1.3064    1.6308    2.4135 C   0  0  0  0  0  0  0  0  0  0  0  0
    1.5914    0.3042    2.7682 O   0  0  0  0  0  0  0  0  0  0  0  0
    2.9559    0.2067    2.8362 C   0  0  0  0  0  0  0  0  0  0  0  0
    3.5155   -1.0944    3.1920 C   0  0  0  0  0  0  0  0  0  0  0  0
    2.6734   -2.1913    3.4530 C   0  0  0  0  0  0  0  0  0  0  0  0
    3.2241   -3.4275    3.7925 C   0  0  0  0  0  0  0  0  0  0  0  0
    4.6119   -3.5803    3.8744 C   0  0  0  0  0  0  0  0  0  0  0  0
    5.4536   -2.4908    3.6151 C   0  0  0  0  0  0  0  0  0  0  0  0
    4.9122   -1.2534    3.2756 C   0  0  0  0  0  0  0  0  0  0  0  0
    3.6087    1.2936    2.5738 N   0  0  0  0  0  0  0  0  0  0  0  0
    2.6476    2.2590    2.2936 C   0  0  0  0  0  0  0  0  0  0  0  0
    2.8063    3.5725    1.9611 C   0  0  0  0  0  0  0  0  0  0  0  0
    4.0184    4.3481    1.7993 C   0  0  0  0  0  0  0  0  0  0  0  0
    5.3194    3.8170    1.9733 C   0  0  0  0  0  0  0  0  0  0  0  0
    6.4440    4.6133    1.8078 C   0  0  0  0  0  0  0  0  0  0  0  0
    6.3224    5.9733    1.4538 C   0  0  0  0  0  0  0  0  0  0  0  0
    7.4735    6.7815    1.2842 N   0  0  0  0  0  0  0  0  0  0  0  0
    8.6234    6.2515    0.6487 C   0  0  0  0  0  0  0  0  0  0  0  0
    8.5014    5.4241   -0.4871 C   0  0  0  0  0  0  0  0  0  0  0  0
    9.6249    4.8969   -1.1085 C   0  0  0  0  0  0  0  0  0  0  0  0
   10.9254    5.1808   -0.6254 C   0  0  0  0  0  0  0  0  0  0  0  0
   12.1368    4.6648   -1.2278 C   0  0  0  0  0  0  0  0  0  0  0  0
   12.2965    3.8504   -2.3105 C   0  0  0  0  0  0  0  0  0  0  0  0
   11.3372    3.2856   -3.1441 N   0  0  0  0  0  0  0  0  0  0  0  0
   11.9911    2.5961   -4.0236 C   0  0  0  0  0  0  0  0  0  0  0  0
   11.4341    1.8119   -5.1224 C   0  0  0  0  0  0  0  0  0  0  0  0
   10.0385    1.7546   -5.3010 C   0  0  0  0  0  0  0  0  0  0  0  0
    9.4998    1.0095   -6.3471 C   0  0  0  0  0  0  0  0  0  0  0  0
   10.3435    0.3156   -7.2242 C   0  0  0  0  0  0  0  0  0  0  0  0
   11.7302    0.3692   -7.0509 C   0  0  0  0  0  0  0  0  0  0  0  0
   12.2781    1.1131   -6.0054 C   0  0  0  0  0  0  0  0  0  0  0  0
   13.3548    2.6144   -3.8959 O   0  0  0  0  0  0  0  0  0  0  0  0
   13.6378    3.4219   -2.7850 C   0  0  0  0  0  0  0  0  0  0  0  0
   14.7520    3.6377   -2.4087 O   0  0  0  0  0  0  0  0  0  0  0  0
   11.0337    6.0159    0.5108 C   0  0  0  0  0  0  0  0  0  0  0  0
    9.9116    6.5386    1.1404 C   0  0  0  0  0  0  0  0  0  0  0  0
    7.4791    8.1159    1.7566 C   0  0  0  0  0  0  0  0  0  0  0  0
    6.8906    8.4463    2.9941 C   0  0  0  0  0  0  0  0  0  0  0  0
    6.8923    9.7529    3.4641 C   0  0  0  0  0  0  0  0  0  0  0  0
    7.4912   10.7964    2.7151 C   0  0  0  0  0  0  0  0  0  0  0  0
    7.5544   12.1896    3.1053 C   0  0  0  0  0  0  0  0  0  0  0  0
    7.1245   12.8967    4.1970 C   0  0  0  0  0  0  0  0  0  0  0  0
    7.3359   14.2736    4.2886 N   0  0  0  0  0  0  0  0  0  0  0  0
    6.8284   14.6496    5.4127 C   0  0  0  0  0  0  0  0  0  0  0  0
    6.7993   16.0005    5.9657 C   0  0  0  0  0  0  0  0  0  0  0  0
    7.3711   17.0581    5.2324 C   0  0  0  0  0  0  0  0  0  0  0  0
    7.3528   18.3519    5.7471 C   0  0  0  0  0  0  0  0  0  0  0  0
    6.7666   18.6054    6.9942 C   0  0  0  0  0  0  0  0  0  0  0  0
    6.1974   17.5580    7.7255 C   0  0  0  0  0  0  0  0  0  0  0  0
    6.2110   16.2583    7.2173 C   0  0  0  0  0  0  0  0  0  0  0  0
    6.2563   13.6464    6.1587 O   0  0  0  0  0  0  0  0  0  0  0  0
    6.4100   12.4702    5.4324 C   0  0  0  0  0  0  0  0  0  0  0  0
    6.0006   11.4205    5.8484 O   0  0  0  0  0  0  0  0  0  0  0  0
    8.0803   10.4474    1.4738 C   0  0  0  0  0  0  0  0  0  0  0  0
    8.0753    9.1438    0.9993 C   0  0  0  0  0  0  0  0  0  0  0  0
    5.0336    6.5119    1.2735 C   0  0  0  0  0  0  0  0  0  0  0  0
    3.9106    5.7138    1.4485 C   0  0  0  0  0  0  0  0  0  0  0  0
    1.5919   -2.0637    3.3872 H   0  0  0  0  0  0  0  0  0  0  0  0
    2.5666   -4.2765    3.9946 H   0  0  0  0  0  0  0  0  0  0  0  0
    5.0402   -4.5499    4.1408 H   0  0  0  0  0  0  0  0  0  0  0  0
    6.5379   -2.6103    3.6790 H   0  0  0  0  0  0  0  0  0  0  0  0
    5.5544   -0.3954    3.0709 H   0  0  0  0  0  0  0  0  0  0  0  0
    1.8647    4.1061    1.7951 H   0  0  0  0  0  0  0  0  0  0  0  0
    5.4248    2.7697    2.2561 H   0  0  0  0  0  0  0  0  0  0  0  0
    7.4362    4.1858    1.9622 H   0  0  0  0  0  0  0  0  0  0  0  0
    7.5092    5.2025   -0.8843 H   0  0  0  0  0  0  0  0  0  0  0  0
    9.5194    4.2646   -1.9900 H   0  0  0  0  0  0  0  0  0  0  0  0
   13.0776    4.9636   -0.7540 H   0  0  0  0  0  0  0  0  0  0  0  0
    9.3949    2.3007   -4.6095 H   0  0  0  0  0  0  0  0  0  0  0  0
    8.4163    0.9673   -6.4824 H   0  0  0  0  0  0  0  0  0  0  0  0
    9.9175   -0.2681   -8.0443 H   0  0  0  0  0  0  0  0  0  0  0  0
   12.3889   -0.1718   -7.7344 H   0  0  0  0  0  0  0  0  0  0  0  0
   13.3588    1.1600   -5.8634 H   0  0  0  0  0  0  0  0  0  0  0  0
   12.0250    6.2430    0.9122 H   0  0  0  0  0  0  0  0  0  0  0  0
   10.0247    7.1671    2.0252 H   0  0  0  0  0  0  0  0  0  0  0  0
    6.4346    7.6600    3.5982 H   0  0  0  0  0  0  0  0  0  0  0  0
    6.4398    9.9768    4.4295 H   0  0  0  0  0  0  0  0  0  0  0  0
    8.0541   12.8379    2.3776 H   0  0  0  0  0  0  0  0  0  0  0  0
    7.8229   16.8404    4.2630 H   0  0  0  0  0  0  0  0  0  0  0  0
    7.7973   19.1703    5.1755 H   0  0  0  0  0  0  0  0  0  0  0  0
    6.7540   19.6219    7.3955 H   0  0  0  0  0  0  0  0  0  0  0  0
    5.7400   17.7546    8.6982 H   0  0  0  0  0  0  0  0  0  0  0  0
    5.7692   15.4361    7.7824 H   0  0  0  0  0  0  0  0  0  0  0  0
    8.5403   11.2309    0.8660 H   0  0  0  0  0  0  0  0  0  0  0  0
    8.5266    8.9125    0.0331 H   0  0  0  0  0  0  0  0  0  0  0  0
    4.9200    7.5593    0.9895 H   0  0  0  0  0  0  0  0  0  0  0  0
    2.9188    6.1486    1.2983 H   0  0  0  0  0  0  0  0  0  0  0  0
  1  2  2  0
  2  3  1  0
  2 12  1  0
  3  4  1  0
  4  5  1  0
  4 11  2  0
  5  6  2  0
  5 10  1  0
  6  7  1  0
  6 59  1  0
  7  8  2  0
  7 60  1  0
  8  9  1  0
  8 61  1  0
  9 10  2  0
  9 62  1  0
 10 63  1  0
 11 12  1  0
 12 13  2  0
 13 14  1  0
 13 64  1  0
 14 15  2  0
 14 58  1  0
 15 16  1  0
 15 65  1  0
 16 17  2  0
 16 66  1  0
 17 18  1  0
 17 57  1  0
 18 19  1  0
 18 38  1  0
 19 20  2  0
 19 37  1  0
 20 21  1  0
 20 67  1  0
 21 22  2  0
 21 68  1  0
 22 23  1  0
 22 36  1  0
 23 24  2  0
 23 69  1  0
 24 25  1  0
 24 34  1  0
 25 26  2  0
 26 27  1  0
 26 33  1  0
 27 28  2  0
 27 32  1  0
 28 29  1  0
 28 70  1  0
 29 30  2  0
 29 71  1  0
 30 31  1  0
 30 72  1  0
 31 32  2  0
 31 73  1  0
 32 74  1  0
 33 34  1  0
 34 35  2  0
 36 37  2  0
 36 75  1  0
 37 76  1  0
 38 39  2  0
 38 56  1  0
 39 40  1  0
 39 77  1  0
 40 41  2  0
 40 78  1  0
 41 42  1  0
 41 55  1  0
 42 43  2  0
 42 79  1  0
 43 44  1  0
 43 53  1  0
 44 45  2  0
 45 46  1  0
 45 52  1  0
 46 47  2  0
 46 51  1  0
 47 48  1  0
 47 80  1  0
 48 49  2  0
 48 81  1  0
 49 50  1  0
 49 82  1  0
 50 51  2  0
 50 83  1  0
 51 84  1  0
 52 53  1  0
 53 54  2  0
 55 56  2  0
 55 85  1  0
 56 86  1  0
 57 58  2  0
 57 87  1  0
 58 88  1  0
M  END

