
     RDKit          3D

 55 57  0  0  0  0  0  0  0  0999 V2000
    4.3544    5.1026    0.2601 C   0  0  0  0  0  0  0  0  0  0  0  0
    4.5736    3.6379   -0.0052 C   0  0  0  0  0  0  0  0  0  0  0  0
    3.8530    2.9477   -1.0232 C   0  0  0  0  0  0  0  0  0  0  0  0
    4.0674    1.6201   -1.3189 C   0  0  0  0  0  0  0  0  0  0  0  0
    5.0555    0.8688   -0.5756 C   0  0  0  0  0  0  0  0  0  0  0  0
    5.4873   -0.6851   -1.0781 S   0  0  1  0  0  0  0  0  0  0  0  0
    6.3701   -1.3289   -0.0715 O   0  0  0  0  0  0  0  0  0  0  0  0
    4.3544   -1.4425   -1.6490 O   0  0  0  0  0  0  0  0  0  0  0  0
    6.4903   -0.5768   -2.5714 N   0  0  0  0  0  0  0  0  0  0  0  0
    7.8960   -0.2567   -2.3780 C   0  0  1  0  0  0  0  0  0  0  0  0
    8.7997   -1.4720   -2.0795 C   0  0  0  0  0  0  0  0  0  0  0  0
    8.9719   -2.3747   -3.3027 C   0  0  0  0  0  0  0  0  0  0  0  0
    9.4381   -1.6057   -4.4781 N   0  0  0  0  0  0  0  0  0  0  0  0
   10.5482   -2.0200   -5.1294 C   0  0  0  0  0  0  0  0  0  0  0  0
   11.2015   -3.0120   -4.8405 O   0  0  0  0  0  0  0  0  0  0  0  0
   11.0417   -1.1786   -6.3433 C   0  0  1  0  0  0  0  0  0  0  0  0
   12.5172   -1.4064   -6.6003 C   0  0  0  0  0  0  0  0  0  0  0  0
   10.2623   -1.6934   -7.4912 O   0  0  0  0  0  0  0  0  0  0  0  0
   10.0599   -1.0582   -8.6051 C   0  0  0  0  0  0  0  0  0  0  0  0
   10.5038    0.2749   -8.8875 C   0  0  0  0  0  0  0  0  0  0  0  0
   10.2199    0.8423  -10.1057 C   0  0  0  0  0  0  0  0  0  0  0  0
    9.4899    0.1122  -11.0881 C   0  0  0  0  0  0  0  0  0  0  0  0
    9.1913    0.6132  -12.2714 O   0  0  0  0  0  0  0  0  0  0  0  0
    9.0472   -1.2161  -10.8163 C   0  0  0  0  0  0  0  0  0  0  0  0
    9.3245   -1.7854   -9.6054 C   0  0  0  0  0  0  0  0  0  0  0  0
    8.5811   -0.4568   -4.8047 C   0  0  0  0  0  0  0  0  0  0  0  0
    8.4443    0.4899   -3.6105 C   0  0  0  0  0  0  0  0  0  0  0  0
    5.7938    1.5527    0.4619 C   0  0  0  0  0  0  0  0  0  0  0  0
    5.5401    2.8810    0.7228 C   0  0  0  0  0  0  0  0  0  0  0  0
    4.9668    5.7660   -0.3869 H   0  0  0  0  0  0  0  0  0  0  0  0
    4.6062    5.3686    1.3011 H   0  0  0  0  0  0  0  0  0  0  0  0
    3.3030    5.3972    0.0950 H   0  0  0  0  0  0  0  0  0  0  0  0
    3.0812    3.4907   -1.5808 H   0  0  0  0  0  0  0  0  0  0  0  0
    3.4782    1.1102   -2.0816 H   0  0  0  0  0  0  0  0  0  0  0  0
    6.3225   -1.4723   -3.0293 H   0  0  0  0  0  0  0  0  0  0  0  0
    7.9486    0.4299   -1.5192 H   0  0  0  0  0  0  0  0  0  0  0  0
    8.3482   -2.0396   -1.2536 H   0  0  0  0  0  0  0  0  0  0  0  0
    9.7951   -1.1271   -1.7480 H   0  0  0  0  0  0  0  0  0  0  0  0
    8.0114   -2.8494   -3.5721 H   0  0  0  0  0  0  0  0  0  0  0  0
    9.6963   -3.1766   -3.1246 H   0  0  0  0  0  0  0  0  0  0  0  0
   10.8067   -0.1138   -6.2348 H   0  0  0  0  0  0  0  0  0  0  0  0
   12.7177   -2.4827   -6.6724 H   0  0  0  0  0  0  0  0  0  0  0  0
   13.0866   -1.0193   -5.7437 H   0  0  0  0  0  0  0  0  0  0  0  0
   12.8617   -0.8888   -7.5085 H   0  0  0  0  0  0  0  0  0  0  0  0
   11.0606    0.8398   -8.1438 H   0  0  0  0  0  0  0  0  0  0  0  0
   10.5509    1.8592  -10.3268 H   0  0  0  0  0  0  0  0  0  0  0  0
    9.5143    1.5216  -12.3839 H   0  0  0  0  0  0  0  0  0  0  0  0
    8.4905   -1.7463  -11.5892 H   0  0  0  0  0  0  0  0  0  0  0  0
    9.0021   -2.7961   -9.3555 H   0  0  0  0  0  0  0  0  0  0  0  0
    7.5805   -0.8383   -5.0758 H   0  0  0  0  0  0  0  0  0  0  0  0
    8.9625    0.0735   -5.6853 H   0  0  0  0  0  0  0  0  0  0  0  0
    7.7552    1.3068   -3.8716 H   0  0  0  0  0  0  0  0  0  0  0  0
    9.4328    0.9283   -3.3822 H   0  0  0  0  0  0  0  0  0  0  0  0
    6.5140    0.9878    1.0545 H   0  0  0  0  0  0  0  0  0  0  0  0
    6.0890    3.3695    1.5356 H   0  0  0  0  0  0  0  0  0  0  0  0
  1  2  1  0
  1 30  1  0
  1 31  1  0
  1 32  1  0
  2  3  2  0
  2 29  1  0
  3  4  1  0
  3 33  1  0
  4  5  2  0
  4 34  1  0
  5  6  1  0
  5 28  1  0
  6  7  2  0
  6  8  2  0
  6  9  1  6
  9 10  1  0
  9 35  1  0
 10 11  1  0
 10 27  1  0
 10 36  1  1
 11 12  1  0
 11 37  1  0
 11 38  1  0
 12 13  1  0
 12 39  1  0
 12 40  1  0
 13 14  1  0
 13 26  1  0
 14 15  2  0
 14 16  1  0
 16 17  1  0
 16 18  1  0
 16 41  1  1
 17 42  1  0
 17 43  1  0
 17 44  1  0
 18 19  1  0
 19 20  2  0
 19 25  1  0
 20 21  1  0
 20 45  1  0
 21 22  2  0
 21 46  1  0
 22 23  1  0
 22 24  1  0
 23 47  1  0
 24 25  2  0
 24 48  1  0
 25 49  1  0
 26 27  1  0
 26 50  1  0
 26 51  1  0
 27 52  1  0
 27 53  1  0
 28 29  2  0
 28 54  1  0
 29 55  1  0
M  END

