
     RDKit          3D

 58 60  0  0  0  0  0  0  0  0999 V2000
    0.9843   13.1740    4.7448 C   0  0  0  0  0  0  0  0  0  0  0  0
    2.1515   12.4671    4.2973 O   0  0  0  0  0  0  0  0  0  0  0  0
    3.1347   12.1445    5.1030 C   0  0  0  0  0  0  0  0  0  0  0  0
    3.1643   12.4527    6.4987 C   0  0  0  0  0  0  0  0  0  0  0  0
    4.2545   12.0619    7.2426 C   0  0  0  0  0  0  0  0  0  0  0  0
    5.3490   11.3633    6.6502 C   0  0  0  0  0  0  0  0  0  0  0  0
    6.5391   10.9427    7.4428 C   0  0  0  0  0  0  0  0  0  0  0  0
    6.7098    9.3784    7.5359 C   0  0  0  0  0  0  0  0  0  0  0  0
    8.0505    8.9327    7.2956 N   0  0  0  0  0  0  0  0  0  0  0  0
    8.5634    8.9587    6.0413 C   0  0  0  0  0  0  0  0  0  0  0  0
    7.9298    9.4095    5.0841 O   0  0  0  0  0  0  0  0  0  0  0  0
    9.9973    8.4600    5.8745 C   0  0  0  0  0  0  0  0  0  0  0  0
   10.2968    7.2026    6.4719 O   0  0  0  0  0  0  0  0  0  0  0  0
   10.6804    7.1762    7.7700 C   0  0  0  0  0  0  0  0  0  0  0  0
   10.1971    7.9232    8.5978 O   0  0  0  0  0  0  0  0  0  0  0  0
   11.7112    6.0995    8.1237 C   0  0  1  0  0  0  0  0  0  0  0  0
   12.0048    5.0809    6.9912 C   0  0  1  0  0  0  0  0  0  0  0  0
   13.2489    4.2412    7.3065 C   0  0  0  0  0  0  0  0  0  0  0  0
   10.7899    4.1727    6.7541 C   0  0  0  0  0  0  0  0  0  0  0  0
   12.8676    6.7929    8.6342 N   0  0  0  0  0  0  0  0  0  0  0  0
   13.3901    7.9665    8.0519 C   0  0  0  0  0  0  0  0  0  0  0  0
   12.8509    8.5175    7.0673 O   0  0  0  0  0  0  0  0  0  0  0  0
   14.5315    8.3048    8.8625 C   0  0  0  0  0  0  0  0  0  0  0  0
   15.4609    9.3594    8.7674 C   0  0  0  0  0  0  0  0  0  0  0  0
   16.4743    9.4501    9.7091 C   0  0  0  0  0  0  0  0  0  0  0  0
   16.5801    8.4962   10.7677 C   0  0  0  0  0  0  0  0  0  0  0  0
   15.6695    7.4553   10.8801 C   0  0  0  0  0  0  0  0  0  0  0  0
   14.6365    7.3455    9.9319 C   0  0  0  0  0  0  0  0  0  0  0  0
   13.5620    6.3842    9.8105 C   0  0  0  0  0  0  0  0  0  0  0  0
   13.2270    5.4043   10.4870 O   0  0  0  0  0  0  0  0  0  0  0  0
    5.3009   11.0547    5.2530 C   0  0  0  0  0  0  0  0  0  0  0  0
    4.2253   11.4374    4.4956 C   0  0  0  0  0  0  0  0  0  0  0  0
    0.3548   13.2930    3.8574 H   0  0  0  0  0  0  0  0  0  0  0  0
    1.2653   14.1598    5.1412 H   0  0  0  0  0  0  0  0  0  0  0  0
    0.4529   12.5865    5.5065 H   0  0  0  0  0  0  0  0  0  0  0  0
    2.3406   12.9876    6.9684 H   0  0  0  0  0  0  0  0  0  0  0  0
    4.2908   12.2926    8.3080 H   0  0  0  0  0  0  0  0  0  0  0  0
    6.5240   11.3947    8.4439 H   0  0  0  0  0  0  0  0  0  0  0  0
    7.4252   11.3268    6.9146 H   0  0  0  0  0  0  0  0  0  0  0  0
    6.0358    8.8984    6.8081 H   0  0  0  0  0  0  0  0  0  0  0  0
    6.3990    9.0478    8.5364 H   0  0  0  0  0  0  0  0  0  0  0  0
    8.6919    8.6346    8.0492 H   0  0  0  0  0  0  0  0  0  0  0  0
   10.7157    9.2048    6.2562 H   0  0  0  0  0  0  0  0  0  0  0  0
   10.1625    8.3353    4.7975 H   0  0  0  0  0  0  0  0  0  0  0  0
   11.3067    5.5498    8.9923 H   0  0  0  0  0  0  0  0  0  0  0  0
   12.1992    5.6588    6.0732 H   0  0  0  0  0  0  0  0  0  0  0  0
   13.1498    3.7276    8.2756 H   0  0  0  0  0  0  0  0  0  0  0  0
   14.1521    4.8646    7.3587 H   0  0  0  0  0  0  0  0  0  0  0  0
   13.4044    3.4839    6.5205 H   0  0  0  0  0  0  0  0  0  0  0  0
   10.5833    3.5569    7.6468 H   0  0  0  0  0  0  0  0  0  0  0  0
   10.9757    3.4829    5.9149 H   0  0  0  0  0  0  0  0  0  0  0  0
    9.8816    4.7461    6.5151 H   0  0  0  0  0  0  0  0  0  0  0  0
   15.3763   10.0869    7.9561 H   0  0  0  0  0  0  0  0  0  0  0  0
   17.2058   10.2599    9.6458 H   0  0  0  0  0  0  0  0  0  0  0  0
   17.3905    8.5927   11.4947 H   0  0  0  0  0  0  0  0  0  0  0  0
   15.7425    6.7232   11.6885 H   0  0  0  0  0  0  0  0  0  0  0  0
    6.1480   10.5045    4.8286 H   0  0  0  0  0  0  0  0  0  0  0  0
    4.1614   11.2249    3.4280 H   0  0  0  0  0  0  0  0  0  0  0  0
  1  2  1  0
  1 33  1  0
  1 34  1  0
  1 35  1  0
  2  3  1  0
  3  4  2  0
  3 32  1  0
  4  5  1  0
  4 36  1  0
  5  6  2  0
  5 37  1  0
  6  7  1  0
  6 31  1  0
  7  8  1  0
  7 38  1  0
  7 39  1  0
  8  9  1  0
  8 40  1  0
  8 41  1  0
  9 10  1  0
  9 42  1  0
 10 11  2  0
 10 12  1  0
 12 13  1  0
 12 43  1  0
 12 44  1  0
 13 14  1  0
 14 15  2  0
 14 16  1  0
 16 17  1  0
 16 20  1  0
 16 45  1  1
 17 18  1  0
 17 19  1  0
 17 46  1  6
 18 47  1  0
 18 48  1  0
 18 49  1  0
 19 50  1  0
 19 51  1  0
 19 52  1  0
 20 21  1  0
 20 29  1  0
 21 22  2  0
 21 23  1  0
 23 24  1  0
 23 28  2  0
 24 25  2  0
 24 53  1  0
 25 26  1  0
 25 54  1  0
 26 27  2  0
 26 55  1  0
 27 28  1  0
 27 56  1  0
 28 29  1  0
 29 30  2  0
 31 32  2  0
 31 57  1  0
 32 58  1  0
M  END

