
     RDKit          3D

 45 48  0  0  0  0  0  0  0  0999 V2000
    5.4364   -2.9070   -1.7591 C   0  0  0  0  0  0  0  0  0  0  0  0
    6.2913   -2.0417   -0.8844 C   0  0  0  0  0  0  0  0  0  0  0  0
    6.5648   -0.7164   -1.1974 N   0  0  0  0  0  0  0  0  0  0  0  0
    6.5087   -0.0932   -0.0188 C   0  0  0  0  0  0  0  0  0  0  0  0
    6.8044    1.4011    0.0962 C   0  0  1  0  0  0  0  0  0  0  0  0
    7.3007    1.7236   -1.2726 N   0  0  0  0  0  0  0  0  0  0  0  0
    8.0325    2.7261   -1.7069 C   0  0  0  0  0  0  0  0  0  0  0  0
    8.4025    3.7431   -1.1562 O   0  0  0  0  0  0  0  0  0  0  0  0
    8.6119    2.5576   -3.2415 C   0  0  2  0  0  0  0  0  0  0  0  0
    7.3215    1.9749   -4.3238 S   0  0  0  0  0  0  0  0  0  0  0  0
    7.6322    0.1821   -4.3651 C   0  0  0  0  0  0  0  0  0  0  0  0
    9.0829   -0.1091   -4.7348 C   0  0  0  0  0  0  0  0  0  0  0  0
   10.1256    0.5526   -3.8553 C   0  0  0  0  0  0  0  0  0  0  0  0
   11.3869   -0.0547   -3.7454 C   0  0  0  0  0  0  0  0  0  0  0  0
   12.4181    0.5283   -3.0114 C   0  0  0  0  0  0  0  0  0  0  0  0
   12.2054    1.7501   -2.3667 C   0  0  0  0  0  0  0  0  0  0  0  0
   10.9622    2.3688   -2.4605 C   0  0  0  0  0  0  0  0  0  0  0  0
    9.9173    1.7838   -3.2014 C   0  0  0  0  0  0  0  0  0  0  0  0
    5.5497    2.2283    0.4677 C   0  0  0  0  0  0  0  0  0  0  0  0
    6.0809    3.5384    1.0635 C   0  0  0  0  0  0  0  0  0  0  0  0
    7.3707    3.1296    1.8168 C   0  0  0  0  0  0  0  0  0  0  0  0
    7.8056    1.7615    1.2258 C   0  0  0  0  0  0  0  0  0  0  0  0
    6.1711   -0.8042    1.0364 N   0  0  0  0  0  0  0  0  0  0  0  0
    5.9420   -2.0917    0.4812 O   0  0  0  0  0  0  0  0  0  0  0  0
    5.8448   -2.9492   -2.7805 H   0  0  0  0  0  0  0  0  0  0  0  0
    4.3834   -2.5521   -1.8303 H   0  0  0  0  0  0  0  0  0  0  0  0
    5.4049   -3.9371   -1.3717 H   0  0  0  0  0  0  0  0  0  0  0  0
    7.1699    0.8587   -1.8287 H   0  0  0  0  0  0  0  0  0  0  0  0
    8.7756    3.6014   -3.5375 H   0  0  0  0  0  0  0  0  0  0  0  0
    6.9277   -0.2023   -5.1160 H   0  0  0  0  0  0  0  0  0  0  0  0
    7.3394   -0.2357   -3.3856 H   0  0  0  0  0  0  0  0  0  0  0  0
    9.2627    0.1775   -5.7875 H   0  0  0  0  0  0  0  0  0  0  0  0
    9.2120   -1.2011   -4.6931 H   0  0  0  0  0  0  0  0  0  0  0  0
   11.5566   -1.0102   -4.2486 H   0  0  0  0  0  0  0  0  0  0  0  0
   13.3854    0.0261   -2.9381 H   0  0  0  0  0  0  0  0  0  0  0  0
   13.0033    2.2182   -1.7863 H   0  0  0  0  0  0  0  0  0  0  0  0
   10.7831    3.3149   -1.9449 H   0  0  0  0  0  0  0  0  0  0  0  0
    5.0138    1.6433    1.2306 H   0  0  0  0  0  0  0  0  0  0  0  0
    4.8694    2.3538   -0.3888 H   0  0  0  0  0  0  0  0  0  0  0  0
    5.3428    4.0246    1.7206 H   0  0  0  0  0  0  0  0  0  0  0  0
    6.3200    4.2560    0.2644 H   0  0  0  0  0  0  0  0  0  0  0  0
    7.1727    3.0249    2.8951 H   0  0  0  0  0  0  0  0  0  0  0  0
    8.1537    3.8942    1.7090 H   0  0  0  0  0  0  0  0  0  0  0  0
    7.7248    0.9651    1.9766 H   0  0  0  0  0  0  0  0  0  0  0  0
    8.8434    1.7517    0.8613 H   0  0  0  0  0  0  0  0  0  0  0  0
  1  2  1  0
  1 25  1  0
  1 26  1  0
  1 27  1  0
  2  3  2  0
  2 24  1  0
  3  4  1  0
  4  5  1  0
  4 23  2  0
  5  6  1  6
  5 19  1  0
  5 22  1  0
  6  7  1  0
  6 28  1  0
  7  8  2  0
  7  9  1  0
  9 10  1  0
  9 18  1  0
  9 29  1  6
 10 11  1  0
 11 12  1  0
 11 30  1  0
 11 31  1  0
 12 13  1  0
 12 32  1  0
 12 33  1  0
 13 14  2  0
 13 18  1  0
 14 15  1  0
 14 34  1  0
 15 16  2  0
 15 35  1  0
 16 17  1  0
 16 36  1  0
 17 18  2  0
 17 37  1  0
 19 20  1  0
 19 38  1  0
 19 39  1  0
 20 21  1  0
 20 40  1  0
 20 41  1  0
 21 22  1  0
 21 42  1  0
 21 43  1  0
 22 44  1  0
 22 45  1  0
 23 24  1  0
M  END

