
     RDKit          3D

 47 47  0  0  0  0  0  0  0  0999 V2000
    1.3331   -0.1775    1.3082 C   0  0  0  0  0  0  0  0  0  0  0  0
    2.6801   -0.2506    0.6643 C   0  0  0  0  0  0  0  0  0  0  0  0
    3.4315    0.9169    0.3586 C   0  0  0  0  0  0  0  0  0  0  0  0
    4.7105    0.8749   -0.2360 C   0  0  0  0  0  0  0  0  0  0  0  0
    5.2919   -0.3918   -0.6004 C   0  0  0  0  0  0  0  0  0  0  0  0
    6.5783   -0.4630   -1.3877 C   0  0  1  0  0  0  0  0  0  0  0  0
    6.3855    0.0491   -2.8356 C   0  0  0  0  0  0  0  0  0  0  0  0
    7.7304    0.2965   -0.6974 C   0  0  0  0  0  0  0  0  0  0  0  0
    4.5295   -1.5598   -0.2820 C   0  0  0  0  0  0  0  0  0  0  0  0
    5.1080   -2.7394   -0.6404 O   0  0  0  0  0  0  0  0  0  0  0  0
    4.4676   -3.9796   -0.4392 C   0  0  0  0  0  0  0  0  0  0  0  0
    4.7169   -4.6039    0.9511 C   0  0  0  0  0  0  0  0  0  0  0  0
    4.0273   -5.5453    1.3037 O   0  0  0  0  0  0  0  0  0  0  0  0
    5.7412   -4.0688    1.6547 N   0  0  0  0  0  0  0  0  0  0  0  0
    6.1657   -4.5480    2.9710 C   0  0  1  0  0  0  0  0  0  0  0  0
    7.5761   -5.1421    2.8640 C   0  0  0  0  0  0  0  0  0  0  0  0
    6.0285   -3.4283    4.0348 C   0  0  1  0  0  0  0  0  0  0  0  0
    4.5876   -2.9075    4.1191 C   0  0  0  0  0  0  0  0  0  0  0  0
    6.5137   -3.8858    5.4178 C   0  0  0  0  0  0  0  0  0  0  0  0
    3.2527   -1.5256    0.3567 C   0  0  0  0  0  0  0  0  0  0  0  0
    1.0322    0.8592    1.5203 H   0  0  0  0  0  0  0  0  0  0  0  0
    1.3084   -0.7422    2.2627 H   0  0  0  0  0  0  0  0  0  0  0  0
    0.5490   -0.6357    0.6722 H   0  0  0  0  0  0  0  0  0  0  0  0
    2.9916    1.8900    0.5977 H   0  0  0  0  0  0  0  0  0  0  0  0
    5.2440    1.8022   -0.4428 H   0  0  0  0  0  0  0  0  0  0  0  0
    6.8740   -1.5205   -1.4565 H   0  0  0  0  0  0  0  0  0  0  0  0
    6.0607    1.1020   -2.8430 H   0  0  0  0  0  0  0  0  0  0  0  0
    5.6213   -0.5410   -3.3645 H   0  0  0  0  0  0  0  0  0  0  0  0
    7.3284   -0.0207   -3.4038 H   0  0  0  0  0  0  0  0  0  0  0  0
    7.5236    1.3763   -0.6245 H   0  0  0  0  0  0  0  0  0  0  0  0
    8.6665    0.1775   -1.2679 H   0  0  0  0  0  0  0  0  0  0  0  0
    7.9012   -0.0798    0.3236 H   0  0  0  0  0  0  0  0  0  0  0  0
    4.8886   -4.6689   -1.1879 H   0  0  0  0  0  0  0  0  0  0  0  0
    3.3825   -3.9149   -0.5972 H   0  0  0  0  0  0  0  0  0  0  0  0
    6.2360   -3.2841    1.2415 H   0  0  0  0  0  0  0  0  0  0  0  0
    5.4589   -5.3547    3.2222 H   0  0  0  0  0  0  0  0  0  0  0  0
    8.3228   -4.3616    2.6364 H   0  0  0  0  0  0  0  0  0  0  0  0
    7.6113   -5.8926    2.0601 H   0  0  0  0  0  0  0  0  0  0  0  0
    7.8803   -5.6366    3.7975 H   0  0  0  0  0  0  0  0  0  0  0  0
    6.6774   -2.5908    3.7089 H   0  0  0  0  0  0  0  0  0  0  0  0
    3.9007   -3.7058    4.4476 H   0  0  0  0  0  0  0  0  0  0  0  0
    4.2259   -2.5304    3.1507 H   0  0  0  0  0  0  0  0  0  0  0  0
    4.5147   -2.0829    4.8459 H   0  0  0  0  0  0  0  0  0  0  0  0
    5.9608   -4.7803    5.7531 H   0  0  0  0  0  0  0  0  0  0  0  0
    6.3432   -3.0946    6.1647 H   0  0  0  0  0  0  0  0  0  0  0  0
    7.5872   -4.1253    5.4344 H   0  0  0  0  0  0  0  0  0  0  0  0
    2.7548   -2.4371    0.6829 H   0  0  0  0  0  0  0  0  0  0  0  0
  1  2  1  0
  1 21  1  0
  1 22  1  0
  1 23  1  0
  2  3  2  0
  2 20  1  0
  3  4  1  0
  3 24  1  0
  4  5  2  0
  4 25  1  0
  5  6  1  0
  5  9  1  0
  6  7  1  0
  6  8  1  0
  6 26  1  1
  7 27  1  0
  7 28  1  0
  7 29  1  0
  8 30  1  0
  8 31  1  0
  8 32  1  0
  9 10  1  0
  9 20  2  0
 10 11  1  0
 11 12  1  0
 11 33  1  0
 11 34  1  0
 12 13  2  0
 12 14  1  0
 14 15  1  0
 14 35  1  0
 15 16  1  0
 15 17  1  0
 15 36  1  1
 16 37  1  0
 16 38  1  0
 16 39  1  0
 17 18  1  0
 17 19  1  0
 17 40  1  6
 18 41  1  0
 18 42  1  0
 18 43  1  0
 19 44  1  0
 19 45  1  0
 19 46  1  0
 20 47  1  0
M  END

