
     RDKit          3D

 73 76  0  0  0  0  0  0  0  0999 V2000
    2.0111    1.1060    1.0797 C   0  0  0  0  0  0  0  0  0  0  0  0
    3.4411    0.8010    0.6329 C   0  0  0  0  0  0  0  0  0  0  0  0
    3.7263    1.2561   -0.8029 C   0  0  0  0  0  0  0  0  0  0  0  0
    5.1030    1.0018   -1.2180 N   0  0  0  0  0  0  0  0  0  0  0  0
    5.4141   -0.3699   -1.5967 C   0  0  0  0  0  0  0  0  0  0  0  0
    4.9707   -0.7333   -3.0206 C   0  0  0  0  0  0  0  0  0  0  0  0
    5.4796    0.2264   -4.0061 N   0  0  0  0  0  0  0  0  0  0  0  0
    5.5425   -0.1348   -5.3524 C   0  0  0  0  0  0  0  0  0  0  0  0
    5.3527    0.8021   -6.3925 C   0  0  0  0  0  0  0  0  0  0  0  0
    5.4757    0.4093   -7.7215 C   0  0  0  0  0  0  0  0  0  0  0  0
    5.7800   -0.9089   -8.0956 C   0  0  0  0  0  0  0  0  0  0  0  0
    5.9911   -1.2035   -9.5536 C   0  0  0  0  0  0  0  0  0  0  0  0
    5.0902   -0.6289  -10.4056 N   0  0  0  0  0  0  0  0  0  0  0  0
    6.9296   -1.8657   -9.9809 O   0  0  0  0  0  0  0  0  0  0  0  0
    5.9464   -1.8757   -7.0691 C   0  0  0  0  0  0  0  0  0  0  0  0
    6.2072   -3.3585   -7.3807 C   0  0  1  0  0  0  0  0  0  0  0  0
    6.5324   -3.4245   -8.4215 H   0  0  0  0  0  0  0  0  0  0  0  0
    7.3476   -3.8696   -6.5025 C   0  0  0  0  0  0  0  0  0  0  0  0
    7.2319   -4.1253   -5.3118 O   0  0  0  0  0  0  0  0  0  0  0  0
    8.6004   -4.0403   -7.0873 N   0  0  0  0  0  0  0  0  0  0  0  0
    9.7107   -4.5218   -6.2607 C   0  0  0  0  0  0  0  0  0  0  0  0
   10.9373   -4.5428   -7.1958 C   0  0  2  0  0  0  0  0  0  0  0  0
   11.0943   -5.5633   -7.5739 H   0  0  0  0  0  0  0  0  0  0  0  0
   12.1415   -4.1815   -6.5696 O   0  0  0  0  0  0  0  0  0  0  0  0
   10.5215   -3.6503   -8.3929 C   0  0  1  0  0  0  0  0  0  0  0  0
   10.8299   -2.6046   -8.2116 H   0  0  0  0  0  0  0  0  0  0  0  0
   11.0018   -4.0269   -9.6475 O   0  0  0  0  0  0  0  0  0  0  0  0
   10.2132   -5.0745  -10.1756 C   0  0  0  0  0  0  0  0  0  0  0  0
    8.8917   -5.1117   -9.3673 C   0  0  0  0  0  0  0  0  0  0  0  0
    7.7841   -5.4239   -9.8819 O   0  0  0  0  0  0  0  0  0  0  0  0
    8.9837   -3.8061   -8.4381 C   0  0  1  0  0  0  0  0  0  0  0  0
    8.4215   -2.9849   -8.9076 H   0  0  0  0  0  0  0  0  0  0  0  0
    4.9287   -4.2978   -7.3088 C   0  0  1  0  0  0  0  0  0  0  0  0
    3.9930   -3.8994   -8.4668 C   0  0  0  0  0  0  0  0  0  0  0  0
    5.3834   -5.7564   -7.5277 C   0  0  0  0  0  0  0  0  0  0  0  0
    4.1549   -4.2046   -5.9825 C   0  0  0  0  0  0  0  0  0  0  0  0
    5.8268   -1.4668   -5.7379 C   0  0  0  0  0  0  0  0  0  0  0  0
    5.2268    1.6197   -3.6530 C   0  0  0  0  0  0  0  0  0  0  0  0
    5.6603    1.9088   -2.2067 C   0  0  0  0  0  0  0  0  0  0  0  0
    1.8344    0.7730    2.1144 H   0  0  0  0  0  0  0  0  0  0  0  0
    1.2695    0.6004    0.4383 H   0  0  0  0  0  0  0  0  0  0  0  0
    1.7977    2.1876    1.0391 H   0  0  0  0  0  0  0  0  0  0  0  0
    3.6288   -0.2832    0.7236 H   0  0  0  0  0  0  0  0  0  0  0  0
    4.1693    1.2922    1.3001 H   0  0  0  0  0  0  0  0  0  0  0  0
    3.5580    2.3449   -0.8621 H   0  0  0  0  0  0  0  0  0  0  0  0
    2.9715    0.8008   -1.4829 H   0  0  0  0  0  0  0  0  0  0  0  0
    4.9512   -1.0716   -0.8863 H   0  0  0  0  0  0  0  0  0  0  0  0
    6.5074   -0.5120   -1.5233 H   0  0  0  0  0  0  0  0  0  0  0  0
    3.8618   -0.7781   -3.0750 H   0  0  0  0  0  0  0  0  0  0  0  0
    5.3375   -1.7405   -3.2491 H   0  0  0  0  0  0  0  0  0  0  0  0
    5.1102    1.8416   -6.1785 H   0  0  0  0  0  0  0  0  0  0  0  0
    5.3539    1.1659   -8.5007 H   0  0  0  0  0  0  0  0  0  0  0  0
    4.2114   -0.2545  -10.0744 H   0  0  0  0  0  0  0  0  0  0  0  0
    5.1972   -0.8219  -11.3952 H   0  0  0  0  0  0  0  0  0  0  0  0
    9.4748   -5.5005   -5.8175 H   0  0  0  0  0  0  0  0  0  0  0  0
    9.8614   -3.8265   -5.4162 H   0  0  0  0  0  0  0  0  0  0  0  0
   12.0816   -3.2579   -6.2878 H   0  0  0  0  0  0  0  0  0  0  0  0
   10.7326   -6.0486  -10.0869 H   0  0  0  0  0  0  0  0  0  0  0  0
   10.0213   -4.8789  -11.2474 H   0  0  0  0  0  0  0  0  0  0  0  0
    4.4907   -4.0167   -9.4424 H   0  0  0  0  0  0  0  0  0  0  0  0
    3.6515   -2.8562   -8.3755 H   0  0  0  0  0  0  0  0  0  0  0  0
    3.0976   -4.5419   -8.4665 H   0  0  0  0  0  0  0  0  0  0  0  0
    6.0097   -5.8558   -8.4287 H   0  0  0  0  0  0  0  0  0  0  0  0
    4.5034   -6.4093   -7.6473 H   0  0  0  0  0  0  0  0  0  0  0  0
    5.9544   -6.1344   -6.6654 H   0  0  0  0  0  0  0  0  0  0  0  0
    3.7202   -3.2056   -5.8278 H   0  0  0  0  0  0  0  0  0  0  0  0
    4.7999   -4.4429   -5.1253 H   0  0  0  0  0  0  0  0  0  0  0  0
    3.3230   -4.9280   -5.9944 H   0  0  0  0  0  0  0  0  0  0  0  0
    5.9959   -2.2182   -4.9712 H   0  0  0  0  0  0  0  0  0  0  0  0
    4.1555    1.8834   -3.7943 H   0  0  0  0  0  0  0  0  0  0  0  0
    5.8094    2.2725   -4.3185 H   0  0  0  0  0  0  0  0  0  0  0  0
    5.3951    2.9467   -1.9495 H   0  0  0  0  0  0  0  0  0  0  0  0
    6.7622    1.8325   -2.1610 H   0  0  0  0  0  0  0  0  0  0  0  0
  1  2  1  0
  1 40  1  0
  1 41  1  0
  1 42  1  0
  2  3  1  0
  2 43  1  0
  2 44  1  0
  3  4  1  0
  3 45  1  0
  3 46  1  0
  4  5  1  0
  4 39  1  0
  5  6  1  0
  5 47  1  0
  5 48  1  0
  6  7  1  0
  6 49  1  0
  6 50  1  0
  7  8  1  0
  7 38  1  0
  8  9  2  0
  8 37  1  0
  9 10  1  0
  9 51  1  0
 10 11  2  0
 10 52  1  0
 11 12  1  0
 11 15  1  0
 12 13  1  0
 12 14  2  0
 13 53  1  0
 13 54  1  0
 15 16  1  0
 15 37  2  0
 16 17  1  6
 16 18  1  0
 16 33  1  0
 18 19  2  0
 18 20  1  0
 20 21  1  0
 20 31  1  0
 21 22  1  0
 21 55  1  0
 21 56  1  0
 22 23  1  6
 22 24  1  0
 22 25  1  0
 24 57  1  0
 25 26  1  1
 25 27  1  0
 25 31  1  0
 27 28  1  0
 28 29  1  0
 28 58  1  0
 28 59  1  0
 29 30  2  0
 29 31  1  0
 31 32  1  6
 33 34  1  6
 33 35  1  0
 33 36  1  0
 34 60  1  0
 34 61  1  0
 34 62  1  0
 35 63  1  0
 35 64  1  0
 35 65  1  0
 36 66  1  0
 36 67  1  0
 36 68  1  0
 37 69  1  0
 38 39  1  0
 38 70  1  0
 38 71  1  0
 39 72  1  0
 39 73  1  0
M  END

