
     RDKit          3D

 55 56  0  0  0  0  0  0  0  0999 V2000
    4.8585   -0.6412    5.3224 C   0  0  0  0  0  0  0  0  0  0  0  0
    5.3085   -1.2663    4.0020 C   0  0  0  0  0  0  0  0  0  0  0  0
    5.8622   -0.2714    2.9744 C   0  0  0  0  0  0  0  0  0  0  0  0
    7.0956    0.4196    3.3694 N   0  0  0  0  0  0  0  0  0  0  0  0
    8.2756   -0.4591    3.3142 C   0  0  0  0  0  0  0  0  0  0  0  0
    9.3929   -0.0910    4.2991 C   0  0  0  0  0  0  0  0  0  0  0  0
    9.0791   -0.4268    5.7583 C   0  0  0  0  0  0  0  0  0  0  0  0
    7.3168    1.6434    2.5923 C   0  0  0  0  0  0  0  0  0  0  0  0
    6.3584    2.7997    2.8878 C   0  0  0  0  0  0  0  0  0  0  0  0
    6.1184    3.0445    4.4035 C   0  0  0  0  0  0  0  0  0  0  0  0
    7.3215    2.9529    5.1806 N   0  0  0  0  0  0  0  0  0  0  0  0
    8.2948    3.9486    5.1848 C   0  0  0  0  0  0  0  0  0  0  0  0
    9.5374    3.8860    5.8119 C   0  0  0  0  0  0  0  0  0  0  0  0
   10.0822    5.1474    5.5818 N   0  0  0  0  0  0  0  0  0  0  0  0
   11.5233    5.3949    5.5371 C   0  0  1  0  0  0  0  0  0  0  0  0
   12.2098    4.8563    4.2572 C   0  0  0  0  0  0  0  0  0  0  0  0
   12.0192    5.7622    3.0347 C   0  0  0  0  0  0  0  0  0  0  0  0
   12.4538    7.2039    3.3307 C   0  0  0  0  0  0  0  0  0  0  0  0
   11.7038    7.7721    4.5430 C   0  0  0  0  0  0  0  0  0  0  0  0
   11.8713    6.8769    5.7791 C   0  0  0  0  0  0  0  0  0  0  0  0
    9.2080    5.8352    4.6238 N   0  0  0  0  0  0  0  0  0  0  0  0
    8.1131    5.0803    4.4916 N   0  0  0  0  0  0  0  0  0  0  0  0
    4.4475   -1.4029    6.0036 H   0  0  0  0  0  0  0  0  0  0  0  0
    4.0712    0.1148    5.1615 H   0  0  0  0  0  0  0  0  0  0  0  0
    5.6954   -0.1494    5.8412 H   0  0  0  0  0  0  0  0  0  0  0  0
    4.4539   -1.7793    3.5275 H   0  0  0  0  0  0  0  0  0  0  0  0
    6.0499   -2.0591    4.2005 H   0  0  0  0  0  0  0  0  0  0  0  0
    5.0897    0.4918    2.7890 H   0  0  0  0  0  0  0  0  0  0  0  0
    6.0084   -0.7948    2.0028 H   0  0  0  0  0  0  0  0  0  0  0  0
    8.6830   -0.4797    2.2805 H   0  0  0  0  0  0  0  0  0  0  0  0
    7.9525   -1.4893    3.5287 H   0  0  0  0  0  0  0  0  0  0  0  0
    9.6456    0.9810    4.2094 H   0  0  0  0  0  0  0  0  0  0  0  0
   10.3041   -0.6333    3.9934 H   0  0  0  0  0  0  0  0  0  0  0  0
    8.1537    0.0621    6.1068 H   0  0  0  0  0  0  0  0  0  0  0  0
    9.8950   -0.1106    6.4272 H   0  0  0  0  0  0  0  0  0  0  0  0
    8.9340   -1.5108    5.8996 H   0  0  0  0  0  0  0  0  0  0  0  0
    7.2846    1.4308    1.4997 H   0  0  0  0  0  0  0  0  0  0  0  0
    8.3402    1.9885    2.8004 H   0  0  0  0  0  0  0  0  0  0  0  0
    5.3685    2.6496    2.4264 H   0  0  0  0  0  0  0  0  0  0  0  0
    6.7852    3.7171    2.4576 H   0  0  0  0  0  0  0  0  0  0  0  0
    5.4209    2.2908    4.7952 H   0  0  0  0  0  0  0  0  0  0  0  0
    5.6985    4.0511    4.5349 H   0  0  0  0  0  0  0  0  0  0  0  0
    7.6018    2.0187    5.4703 H   0  0  0  0  0  0  0  0  0  0  0  0
    9.9312    3.1937    6.5530 H   0  0  0  0  0  0  0  0  0  0  0  0
   11.9171    4.8180    6.3919 H   0  0  0  0  0  0  0  0  0  0  0  0
   11.8259    3.8395    4.0571 H   0  0  0  0  0  0  0  0  0  0  0  0
   13.2894    4.7506    4.4724 H   0  0  0  0  0  0  0  0  0  0  0  0
   10.9527    5.7606    2.7567 H   0  0  0  0  0  0  0  0  0  0  0  0
   12.5879    5.3567    2.1790 H   0  0  0  0  0  0  0  0  0  0  0  0
   12.2837    7.8410    2.4459 H   0  0  0  0  0  0  0  0  0  0  0  0
   13.5441    7.2272    3.5244 H   0  0  0  0  0  0  0  0  0  0  0  0
   10.6323    7.8482    4.3044 H   0  0  0  0  0  0  0  0  0  0  0  0
   12.0675    8.7881    4.7754 H   0  0  0  0  0  0  0  0  0  0  0  0
   11.2643    7.2512    6.6194 H   0  0  0  0  0  0  0  0  0  0  0  0
   12.9267    6.9113    6.1067 H   0  0  0  0  0  0  0  0  0  0  0  0
  1  2  1  0
  1 23  1  0
  1 24  1  0
  1 25  1  0
  2  3  1  0
  2 26  1  0
  2 27  1  0
  3  4  1  0
  3 28  1  0
  3 29  1  0
  4  5  1  0
  4  8  1  0
  5  6  1  0
  5 30  1  0
  5 31  1  0
  6  7  1  0
  6 32  1  0
  6 33  1  0
  7 34  1  0
  7 35  1  0
  7 36  1  0
  8  9  1  0
  8 37  1  0
  8 38  1  0
  9 10  1  0
  9 39  1  0
  9 40  1  0
 10 11  1  0
 10 41  1  0
 10 42  1  0
 11 12  1  0
 11 43  1  0
 12 13  2  0
 12 22  1  0
 13 14  1  0
 13 44  1  0
 14 15  1  0
 14 21  1  0
 15 16  1  0
 15 20  1  0
 15 45  1  1
 16 17  1  0
 16 46  1  0
 16 47  1  0
 17 18  1  0
 17 48  1  0
 17 49  1  0
 18 19  1  0
 18 50  1  0
 18 51  1  0
 19 20  1  0
 19 52  1  0
 19 53  1  0
 20 54  1  0
 20 55  1  0
 21 22  2  0
M  END

