
     RDKit          3D

 33 35  0  0  0  0  0  0  0  0999 V2000
    4.9208   -1.5809    1.1042 N   0  0  0  0  0  0  0  0  0  0  0  0
    4.0497   -1.0338    0.1962 C   0  0  0  0  0  0  0  0  0  0  0  0
    4.4368   -0.2415   -0.8824 C   0  0  0  0  0  0  0  0  0  0  0  0
    3.4810    0.2714   -1.7889 C   0  0  0  0  0  0  0  0  0  0  0  0
    2.1438   -0.1015   -1.6099 C   0  0  0  0  0  0  0  0  0  0  0  0
    1.7923   -0.8101   -0.5524 N   0  0  0  0  0  0  0  0  0  0  0  0
    2.6158   -1.2689    0.3848 C   0  0  0  0  0  0  0  0  0  0  0  0
    2.1232   -1.9078    1.5915 C   0  0  0  0  0  0  0  0  0  0  0  0
    2.8607   -2.2962    2.5431 O   0  0  0  0  0  0  0  0  0  0  0  0
    0.6284   -2.2201    1.6607 C   0  0  0  0  0  0  0  0  0  0  0  0
    0.3059   -3.6564    1.3026 C   0  0  0  0  0  0  0  0  0  0  0  0
    0.8359   -4.7239    2.0929 C   0  0  0  0  0  0  0  0  0  0  0  0
    0.5301   -6.0202    1.7571 C   0  0  0  0  0  0  0  0  0  0  0  0
   -0.3052   -6.2774    0.6347 C   0  0  0  0  0  0  0  0  0  0  0  0
   -0.6763   -7.5816    0.2124 C   0  0  0  0  0  0  0  0  0  0  0  0
   -1.4888   -7.7562   -0.8904 C   0  0  0  0  0  0  0  0  0  0  0  0
   -1.9626   -6.6326   -1.6147 C   0  0  0  0  0  0  0  0  0  0  0  0
   -1.6191   -5.3535   -1.2279 C   0  0  0  0  0  0  0  0  0  0  0  0
   -0.7831   -5.1400   -0.0962 C   0  0  0  0  0  0  0  0  0  0  0  0
   -0.4664   -3.8630    0.2544 N   0  0  0  0  0  0  0  0  0  0  0  0
    5.6966   -0.9946    1.3998 H   0  0  0  0  0  0  0  0  0  0  0  0
    4.4576   -2.1074    1.8646 H   0  0  0  0  0  0  0  0  0  0  0  0
    5.5031   -0.0727   -1.0536 H   0  0  0  0  0  0  0  0  0  0  0  0
    3.7799    0.8533   -2.6617 H   0  0  0  0  0  0  0  0  0  0  0  0
    1.3676    0.1458   -2.3419 H   0  0  0  0  0  0  0  0  0  0  0  0
    0.1116   -1.5595    0.9489 H   0  0  0  0  0  0  0  0  0  0  0  0
    0.3025   -2.0109    2.6936 H   0  0  0  0  0  0  0  0  0  0  0  0
    1.4880   -4.4876    2.9355 H   0  0  0  0  0  0  0  0  0  0  0  0
    0.9216   -6.8587    2.3405 H   0  0  0  0  0  0  0  0  0  0  0  0
   -0.3079   -8.4448    0.7740 H   0  0  0  0  0  0  0  0  0  0  0  0
   -1.7704   -8.7629   -1.2094 H   0  0  0  0  0  0  0  0  0  0  0  0
   -2.6051   -6.7860   -2.4857 H   0  0  0  0  0  0  0  0  0  0  0  0
   -1.9706   -4.4721   -1.7679 H   0  0  0  0  0  0  0  0  0  0  0  0
  1  2  1  0
  1 21  1  0
  1 22  1  0
  2  3  2  0
  2  7  1  0
  3  4  1  0
  3 23  1  0
  4  5  2  0
  4 24  1  0
  5  6  1  0
  5 25  1  0
  6  7  2  0
  7  8  1  0
  8  9  2  0
  8 10  1  0
 10 11  1  0
 10 26  1  0
 10 27  1  0
 11 12  2  0
 11 20  1  0
 12 13  1  0
 12 28  1  0
 13 14  2  0
 13 29  1  0
 14 15  1  0
 14 19  1  0
 15 16  2  0
 15 30  1  0
 16 17  1  0
 16 31  1  0
 17 18  2  0
 17 32  1  0
 18 19  1  0
 18 33  1  0
 19 20  2  0
M  END

