
     RDKit          3D

 54 56  0  0  0  0  0  0  0  0999 V2000
   10.0025   -0.7708  -10.5826 C   0  0  0  0  0  0  0  0  0  0  0  0
   10.1517   -0.4141   -9.1376 C   0  0  0  0  0  0  0  0  0  0  0  0
    9.4157    0.6509   -8.5584 C   0  0  0  0  0  0  0  0  0  0  0  0
    9.5541    0.9780   -7.2229 C   0  0  0  0  0  0  0  0  0  0  0  0
   10.4542    0.2402   -6.3868 C   0  0  0  0  0  0  0  0  0  0  0  0
   10.6202    0.5550   -5.0022 C   0  0  0  0  0  0  0  0  0  0  0  0
   10.0096    1.6083   -4.2444 C   0  0  0  0  0  0  0  0  0  0  0  0
   10.5138    1.4636   -2.9324 C   0  0  0  0  0  0  0  0  0  0  0  0
   10.4093    1.9779   -1.5826 C   0  0  0  0  0  0  0  0  0  0  0  0
   11.0248    1.3348   -0.6846 O   0  0  0  0  0  0  0  0  0  0  0  0
    9.6911    3.1501   -1.2641 N   0  0  0  0  0  0  0  0  0  0  0  0
    9.3479    3.3565    0.1380 C   0  0  0  0  0  0  0  0  0  0  0  0
    9.4391    4.8325    0.5265 C   0  0  0  0  0  0  0  0  0  0  0  0
    8.6056    5.6988   -0.4226 C   0  0  0  0  0  0  0  0  0  0  0  0
    9.0152    5.4361   -1.8750 C   0  0  0  0  0  0  0  0  0  0  0  0
    8.9740    3.9399   -2.2512 C   0  0  2  0  0  0  0  0  0  0  0  0
    7.5327    3.4060   -2.4893 C   0  0  0  0  0  0  0  0  0  0  0  0
    6.9089    3.9343   -3.6880 N   0  0  0  0  0  0  0  0  0  0  0  0
    5.9493    4.8993   -3.6714 C   0  0  0  0  0  0  0  0  0  0  0  0
    5.5089    5.4082   -2.6514 O   0  0  0  0  0  0  0  0  0  0  0  0
    5.4111    5.3046   -5.0508 C   0  0  0  0  0  0  0  0  0  0  0  0
    6.4101    5.3457   -6.2116 C   0  0  0  0  0  0  0  0  0  0  0  0
    6.8739    4.0050   -6.6041 N   0  0  0  0  0  0  0  0  0  0  0  0
   11.3772    0.3502   -3.0484 N   0  0  0  0  0  0  0  0  0  0  0  0
   11.8513   -0.0077   -2.2202 H   0  0  0  0  0  0  0  0  0  0  0  0
   11.4515   -0.2024   -4.2457 N   0  0  0  0  0  0  0  0  0  0  0  0
   11.1936   -0.8404   -6.9741 C   0  0  0  0  0  0  0  0  0  0  0  0
   11.0431   -1.1507   -8.3067 C   0  0  0  0  0  0  0  0  0  0  0  0
    9.3003   -0.1077  -11.1060 H   0  0  0  0  0  0  0  0  0  0  0  0
    9.6465   -1.8108  -10.6919 H   0  0  0  0  0  0  0  0  0  0  0  0
   10.9775   -0.7261  -11.0990 H   0  0  0  0  0  0  0  0  0  0  0  0
    8.7252    1.2167   -9.1885 H   0  0  0  0  0  0  0  0  0  0  0  0
    8.9705    1.7921   -6.7921 H   0  0  0  0  0  0  0  0  0  0  0  0
    9.3050    2.3413   -4.6164 H   0  0  0  0  0  0  0  0  0  0  0  0
   10.0390    2.7370    0.7230 H   0  0  0  0  0  0  0  0  0  0  0  0
    8.3207    2.9870    0.3547 H   0  0  0  0  0  0  0  0  0  0  0  0
   10.4966    5.1490    0.4844 H   0  0  0  0  0  0  0  0  0  0  0  0
    9.1041    4.9585    1.5701 H   0  0  0  0  0  0  0  0  0  0  0  0
    8.7272    6.7696   -0.1870 H   0  0  0  0  0  0  0  0  0  0  0  0
    7.5312    5.4781   -0.2960 H   0  0  0  0  0  0  0  0  0  0  0  0
   10.0498    5.7896   -2.0273 H   0  0  0  0  0  0  0  0  0  0  0  0
    8.3735    6.0058   -2.5655 H   0  0  0  0  0  0  0  0  0  0  0  0
    9.5163    3.8448   -3.2020 H   0  0  0  0  0  0  0  0  0  0  0  0
    6.8782    3.6548   -1.6428 H   0  0  0  0  0  0  0  0  0  0  0  0
    7.5833    2.3076   -2.5624 H   0  0  0  0  0  0  0  0  0  0  0  0
    7.1853    3.5838   -4.6064 H   0  0  0  0  0  0  0  0  0  0  0  0
    4.9626    6.2989   -4.9140 H   0  0  0  0  0  0  0  0  0  0  0  0
    4.5745    4.6258   -5.3038 H   0  0  0  0  0  0  0  0  0  0  0  0
    7.2946    5.9335   -5.9134 H   0  0  0  0  0  0  0  0  0  0  0  0
    5.9408    5.8934   -7.0531 H   0  0  0  0  0  0  0  0  0  0  0  0
    6.0920    3.4590   -6.9718 H   0  0  0  0  0  0  0  0  0  0  0  0
    7.5517    4.0789   -7.3632 H   0  0  0  0  0  0  0  0  0  0  0  0
   11.8716   -1.3951   -6.3258 H   0  0  0  0  0  0  0  0  0  0  0  0
   11.6141   -1.9749   -8.7416 H   0  0  0  0  0  0  0  0  0  0  0  0
  1  2  1  0
  1 29  1  0
  1 30  1  0
  1 31  1  0
  2  3  2  0
  2 28  1  0
  3  4  1  0
  3 32  1  0
  4  5  2  0
  4 33  1  0
  5  6  1  0
  5 27  1  0
  6  7  1  0
  6 26  2  0
  7  8  2  0
  7 34  1  0
  8  9  1  0
  8 24  1  0
  9 10  2  0
  9 11  1  0
 11 12  1  0
 11 16  1  0
 12 13  1  0
 12 35  1  0
 12 36  1  0
 13 14  1  0
 13 37  1  0
 13 38  1  0
 14 15  1  0
 14 39  1  0
 14 40  1  0
 15 16  1  0
 15 41  1  0
 15 42  1  0
 16 17  1  0
 16 43  1  6
 17 18  1  0
 17 44  1  0
 17 45  1  0
 18 19  1  0
 18 46  1  0
 19 20  2  0
 19 21  1  0
 21 22  1  0
 21 47  1  0
 21 48  1  0
 22 23  1  0
 22 49  1  0
 22 50  1  0
 23 51  1  0
 23 52  1  0
 24 25  1  0
 24 26  1  0
 27 28  2  0
 27 53  1  0
 28 54  1  0
M  END

