
     RDKit          3D

 31 32  0  0  0  0  0  0  0  0999 V2000
    5.2470    0.5705   -1.4476 C   0  0  0  0  0  0  0  0  0  0  0  0
    3.8758    0.2115   -0.8754 C   0  0  0  0  0  0  0  0  0  0  0  0
    3.4800    1.0249    0.3647 C   0  0  0  0  0  0  0  0  0  0  0  0
    4.3534    0.8094    1.5016 N   0  0  0  0  0  0  0  0  0  0  0  0
    5.1051    1.7575    2.1276 C   0  0  0  0  0  0  0  0  0  0  0  0
    5.0848    3.0187    1.6587 N   0  0  0  0  0  0  0  0  0  0  0  0
    5.8395    3.8907    2.3148 C   0  0  0  0  0  0  0  0  0  0  0  0
    6.6341    3.5948    3.4318 C   0  0  0  0  0  0  0  0  0  0  0  0
    7.4456    4.6787    4.0865 C   0  0  0  0  0  0  0  0  0  0  0  0
    6.5796    2.2367    3.8412 C   0  0  0  0  0  0  0  0  0  0  0  0
    7.3127    1.6657    4.9780 C   0  0  0  0  0  0  0  0  0  0  0  0
    8.1885    2.2019    5.9059 C   0  0  0  0  0  0  0  0  0  0  0  0
    8.6707    1.2567    6.8528 C   0  0  0  0  0  0  0  0  0  0  0  0
    8.1510    0.0042    6.6305 C   0  0  0  0  0  0  0  0  0  0  0  0
    8.4782   -1.4204    7.5478 Cl  0  0  0  0  0  0  0  0  0  0  0  0
    7.0708   -0.0488    5.2730 S   0  0  0  0  0  0  0  0  0  0  0  0
    5.8195    1.3478    3.1859 N   0  0  0  0  0  0  0  0  0  0  0  0
    5.4832   -0.0404   -2.3333 H   0  0  0  0  0  0  0  0  0  0  0  0
    6.0439    0.4054   -0.7051 H   0  0  0  0  0  0  0  0  0  0  0  0
    5.2896    1.6306   -1.7468 H   0  0  0  0  0  0  0  0  0  0  0  0
    3.8429   -0.8660   -0.6280 H   0  0  0  0  0  0  0  0  0  0  0  0
    3.0943    0.3659   -1.6403 H   0  0  0  0  0  0  0  0  0  0  0  0
    2.4392    0.7769    0.6454 H   0  0  0  0  0  0  0  0  0  0  0  0
    3.5089    2.1008    0.1429 H   0  0  0  0  0  0  0  0  0  0  0  0
    4.4066   -0.1127    1.9189 H   0  0  0  0  0  0  0  0  0  0  0  0
    5.8260    4.9216    1.9357 H   0  0  0  0  0  0  0  0  0  0  0  0
    7.2970    5.6335    3.5598 H   0  0  0  0  0  0  0  0  0  0  0  0
    8.5267    4.4597    4.0701 H   0  0  0  0  0  0  0  0  0  0  0  0
    7.1593    4.8369    5.1399 H   0  0  0  0  0  0  0  0  0  0  0  0
    8.4906    3.2454    5.9235 H   0  0  0  0  0  0  0  0  0  0  0  0
    9.3669    1.4860    7.6595 H   0  0  0  0  0  0  0  0  0  0  0  0
  1  2  1  0
  1 18  1  0
  1 19  1  0
  1 20  1  0
  2  3  1  0
  2 21  1  0
  2 22  1  0
  3  4  1  0
  3 23  1  0
  3 24  1  0
  4  5  1  0
  4 25  1  0
  5  6  2  0
  5 17  1  0
  6  7  1  0
  7  8  2  0
  7 26  1  0
  8  9  1  0
  8 10  1  0
  9 27  1  0
  9 28  1  0
  9 29  1  0
 10 11  1  0
 10 17  2  0
 11 12  2  0
 11 16  1  0
 12 13  1  0
 12 30  1  0
 13 14  2  0
 13 31  1  0
 14 15  1  0
 14 16  1  0
M  END

