
     RDKit          3D

 56 58  0  0  0  0  0  0  0  0999 V2000
    4.1043    0.3462    1.6230 C   0  0  0  0  0  0  0  0  0  0  0  0
    5.3778    1.1685    1.7343 C   0  0  0  0  0  0  0  0  0  0  0  0
    5.4446    2.1881    0.7230 O   0  0  0  0  0  0  0  0  0  0  0  0
    5.9589    1.8441   -0.4746 C   0  0  0  0  0  0  0  0  0  0  0  0
    6.3707    0.7313   -0.7319 O   0  0  0  0  0  0  0  0  0  0  0  0
    5.9425    2.9897   -1.4014 C   0  0  0  0  0  0  0  0  0  0  0  0
    5.4533    4.2600   -1.1534 C   0  0  0  0  0  0  0  0  0  0  0  0
    5.6390    5.0142   -2.3404 C   0  0  0  0  0  0  0  0  0  0  0  0
    5.3425    6.3530   -2.6885 C   0  0  0  0  0  0  0  0  0  0  0  0
    4.5955    7.4048   -1.5067 Cl  0  0  0  0  0  0  0  0  0  0  0  0
    5.6469    6.8077   -3.9542 C   0  0  0  0  0  0  0  0  0  0  0  0
    6.2460    5.9428   -4.9024 C   0  0  0  0  0  0  0  0  0  0  0  0
    6.5536    4.6172   -4.6073 C   0  0  0  0  0  0  0  0  0  0  0  0
    7.1157    3.7488   -5.4935 O   0  0  0  0  0  0  0  0  0  0  0  0
    7.4416    4.1968   -6.8045 C   0  0  0  0  0  0  0  0  0  0  0  0
    8.0392    3.0399   -7.5914 C   0  0  0  0  0  0  0  0  0  0  0  0
    7.1413    1.8028   -7.7299 C   0  0  0  0  0  0  0  0  0  0  0  0
    5.7487    2.0800   -8.3108 C   0  0  1  0  0  0  0  0  0  0  0  0
    5.8187    2.8801   -9.4896 O   0  0  0  0  0  0  0  0  0  0  0  0
    4.9300    0.7816   -8.4854 C   0  0  1  0  0  0  0  0  0  0  0  0
    3.4820    0.9981   -8.9644 C   0  0  0  0  0  0  0  0  0  0  0  0
    3.3579    1.1366  -10.4871 C   0  0  0  0  0  0  0  0  0  0  0  0
    4.0699   -0.0375  -11.1649 C   0  0  0  0  0  0  0  0  0  0  0  0
    5.5118   -0.1329  -10.6751 C   0  0  0  0  0  0  0  0  0  0  0  0
    5.6130   -0.2060   -9.2619 O   0  0  0  0  0  0  0  0  0  0  0  0
    6.2511    4.1471   -3.2969 C   0  0  0  0  0  0  0  0  0  0  0  0
    6.4333    2.9146   -2.7014 N   0  0  0  0  0  0  0  0  0  0  0  0
    7.0525    1.7344   -3.2996 C   0  0  0  0  0  0  0  0  0  0  0  0
    4.0460   -0.3684    2.4598 H   0  0  0  0  0  0  0  0  0  0  0  0
    4.0889   -0.2261    0.6837 H   0  0  0  0  0  0  0  0  0  0  0  0
    3.2137    0.9927    1.6593 H   0  0  0  0  0  0  0  0  0  0  0  0
    6.2677    0.5266    1.6557 H   0  0  0  0  0  0  0  0  0  0  0  0
    5.4147    1.7185    2.6859 H   0  0  0  0  0  0  0  0  0  0  0  0
    5.0110    4.5993   -0.2222 H   0  0  0  0  0  0  0  0  0  0  0  0
    5.4229    7.8387   -4.2315 H   0  0  0  0  0  0  0  0  0  0  0  0
    6.4618    6.3417   -5.8926 H   0  0  0  0  0  0  0  0  0  0  0  0
    8.1661    5.0297   -6.7431 H   0  0  0  0  0  0  0  0  0  0  0  0
    6.5360    4.5792   -7.3079 H   0  0  0  0  0  0  0  0  0  0  0  0
    8.9937    2.7414   -7.1261 H   0  0  0  0  0  0  0  0  0  0  0  0
    8.2887    3.4359   -8.5894 H   0  0  0  0  0  0  0  0  0  0  0  0
    7.0150    1.3204   -6.7472 H   0  0  0  0  0  0  0  0  0  0  0  0
    7.6451    1.0555   -8.3665 H   0  0  0  0  0  0  0  0  0  0  0  0
    5.1804    2.6962   -7.5926 H   0  0  0  0  0  0  0  0  0  0  0  0
    6.4330    2.4579  -10.1049 H   0  0  0  0  0  0  0  0  0  0  0  0
    4.8858    0.3366   -7.4766 H   0  0  0  0  0  0  0  0  0  0  0  0
    3.0580    1.8768   -8.4517 H   0  0  0  0  0  0  0  0  0  0  0  0
    2.8878    0.1257   -8.6413 H   0  0  0  0  0  0  0  0  0  0  0  0
    3.8116    2.0867  -10.8105 H   0  0  0  0  0  0  0  0  0  0  0  0
    2.2947    1.1663  -10.7774 H   0  0  0  0  0  0  0  0  0  0  0  0
    4.0623    0.0645  -12.2634 H   0  0  0  0  0  0  0  0  0  0  0  0
    3.5485   -0.9810  -10.9237 H   0  0  0  0  0  0  0  0  0  0  0  0
    6.0930    0.7239  -11.0781 H   0  0  0  0  0  0  0  0  0  0  0  0
    5.9994   -1.0456  -11.0526 H   0  0  0  0  0  0  0  0  0  0  0  0
    7.4340    2.0085   -4.2851 H   0  0  0  0  0  0  0  0  0  0  0  0
    6.3226    0.9172   -3.3933 H   0  0  0  0  0  0  0  0  0  0  0  0
    7.8712    1.3716   -2.6649 H   0  0  0  0  0  0  0  0  0  0  0  0
  1  2  1  0
  1 29  1  0
  1 30  1  0
  1 31  1  0
  2  3  1  0
  2 32  1  0
  2 33  1  0
  3  4  1  0
  4  5  2  0
  4  6  1  0
  6  7  2  0
  6 27  1  0
  7  8  1  0
  7 34  1  0
  8  9  2  0
  8 26  1  0
  9 10  1  0
  9 11  1  0
 11 12  2  0
 11 35  1  0
 12 13  1  0
 12 36  1  0
 13 14  1  0
 13 26  2  0
 14 15  1  0
 15 16  1  0
 15 37  1  0
 15 38  1  0
 16 17  1  0
 16 39  1  0
 16 40  1  0
 17 18  1  0
 17 41  1  0
 17 42  1  0
 18 19  1  0
 18 20  1  0
 18 43  1  1
 19 44  1  0
 20 21  1  0
 20 25  1  0
 20 45  1  1
 21 22  1  0
 21 46  1  0
 21 47  1  0
 22 23  1  0
 22 48  1  0
 22 49  1  0
 23 24  1  0
 23 50  1  0
 23 51  1  0
 24 25  1  0
 24 52  1  0
 24 53  1  0
 26 27  1  0
 27 28  1  0
 28 54  1  0
 28 55  1  0
 28 56  1  0
M  END

