
     RDKit          3D

 51 51  0  0  0  0  0  0  0  0999 V2000
    2.5679    0.2946   -1.2604 C   0  0  0  0  0  0  0  0  0  0  0  0
    1.9547    0.1779   -0.0634 C   0  0  0  0  0  0  0  0  0  0  0  0
    0.8318   -0.6332    0.1359 N   0  0  0  0  0  0  0  0  0  0  0  0
   -0.2888   -0.1830    0.9565 C   0  0  0  0  0  0  0  0  0  0  0  0
   -1.3693   -1.2599    1.0783 C   0  0  0  0  0  0  0  0  0  0  0  0
   -0.9193   -2.5452    1.7736 C   0  0  0  0  0  0  0  0  0  0  0  0
    2.4931    0.8947    1.1422 C   0  0  0  0  0  0  0  0  0  0  0  0
    2.3463    2.2887    1.2071 C   0  0  0  0  0  0  0  0  0  0  0  0
    2.8429    3.0219    2.2874 C   0  0  0  0  0  0  0  0  0  0  0  0
    3.5036    2.3519    3.3164 C   0  0  0  0  0  0  0  0  0  0  0  0
    3.6681    0.9647    3.2534 C   0  0  0  0  0  0  0  0  0  0  0  0
    3.1742    0.2072    2.1797 C   0  0  0  0  0  0  0  0  0  0  0  0
    3.4340   -1.2869    2.0558 C   0  0  0  0  0  0  0  0  0  0  0  0
    3.8180   -2.0738    3.3242 C   0  0  1  0  0  0  0  0  0  0  0  0
    2.6206   -2.1649    4.2967 C   0  0  0  0  0  0  0  0  0  0  0  0
    2.9281   -2.6224    5.7318 C   0  0  0  0  0  0  0  0  0  0  0  0
    3.7671   -1.6402    6.5543 C   0  0  0  0  0  0  0  0  0  0  0  0
    4.3434   -3.4764    2.9499 C   0  0  0  0  0  0  0  0  0  0  0  0
    5.7407   -3.5132    2.3197 C   0  0  0  0  0  0  0  0  0  0  0  0
    6.2081   -4.9276    1.9712 C   0  0  0  0  0  0  0  0  0  0  0  0
    2.1718   -0.1962   -2.1553 H   0  0  0  0  0  0  0  0  0  0  0  0
    3.5002    0.8517   -1.3559 H   0  0  0  0  0  0  0  0  0  0  0  0
    0.5233   -1.0698   -0.7301 H   0  0  0  0  0  0  0  0  0  0  0  0
   -0.7490    0.7418    0.5487 H   0  0  0  0  0  0  0  0  0  0  0  0
    0.0921    0.0763    1.9574 H   0  0  0  0  0  0  0  0  0  0  0  0
   -1.7561   -1.4964    0.0687 H   0  0  0  0  0  0  0  0  0  0  0  0
   -2.2217   -0.8182    1.6225 H   0  0  0  0  0  0  0  0  0  0  0  0
   -0.0862   -3.0232    1.2358 H   0  0  0  0  0  0  0  0  0  0  0  0
   -1.7440   -3.2730    1.8363 H   0  0  0  0  0  0  0  0  0  0  0  0
   -0.5737   -2.3405    2.8004 H   0  0  0  0  0  0  0  0  0  0  0  0
    1.8302    2.7982    0.3896 H   0  0  0  0  0  0  0  0  0  0  0  0
    2.7145    4.1068    2.3212 H   0  0  0  0  0  0  0  0  0  0  0  0
    3.9007    2.9061    4.1711 H   0  0  0  0  0  0  0  0  0  0  0  0
    4.2046    0.4657    4.0618 H   0  0  0  0  0  0  0  0  0  0  0  0
    4.2302   -1.4069    1.2999 H   0  0  0  0  0  0  0  0  0  0  0  0
    2.5471   -1.7609    1.6061 H   0  0  0  0  0  0  0  0  0  0  0  0
    4.6460   -1.5467    3.8308 H   0  0  0  0  0  0  0  0  0  0  0  0
    1.8770   -2.8517    3.8532 H   0  0  0  0  0  0  0  0  0  0  0  0
    2.1228   -1.1809    4.3482 H   0  0  0  0  0  0  0  0  0  0  0  0
    3.4260   -3.6081    5.7194 H   0  0  0  0  0  0  0  0  0  0  0  0
    1.9678   -2.7885    6.2508 H   0  0  0  0  0  0  0  0  0  0  0  0
    4.7709   -1.4893    6.1248 H   0  0  0  0  0  0  0  0  0  0  0  0
    3.9073   -2.0025    7.5855 H   0  0  0  0  0  0  0  0  0  0  0  0
    3.2809   -0.6517    6.6136 H   0  0  0  0  0  0  0  0  0  0  0  0
    3.6181   -3.9571    2.2662 H   0  0  0  0  0  0  0  0  0  0  0  0
    4.3621   -4.1091    3.8541 H   0  0  0  0  0  0  0  0  0  0  0  0
    6.4621   -3.0488    3.0167 H   0  0  0  0  0  0  0  0  0  0  0  0
    5.7635   -2.8914    1.4079 H   0  0  0  0  0  0  0  0  0  0  0  0
    6.2406   -5.5729    2.8654 H   0  0  0  0  0  0  0  0  0  0  0  0
    7.2168   -4.9233    1.5280 H   0  0  0  0  0  0  0  0  0  0  0  0
    5.5288   -5.4067    1.2461 H   0  0  0  0  0  0  0  0  0  0  0  0
  1  2  2  0
  1 21  1  0
  1 22  1  0
  2  3  1  0
  2  7  1  0
  3  4  1  0
  3 23  1  0
  4  5  1  0
  4 24  1  0
  4 25  1  0
  5  6  1  0
  5 26  1  0
  5 27  1  0
  6 28  1  0
  6 29  1  0
  6 30  1  0
  7  8  2  0
  7 12  1  0
  8  9  1  0
  8 31  1  0
  9 10  2  0
  9 32  1  0
 10 11  1  0
 10 33  1  0
 11 12  2  0
 11 34  1  0
 12 13  1  0
 13 14  1  0
 13 35  1  0
 13 36  1  0
 14 15  1  0
 14 18  1  0
 14 37  1  1
 15 16  1  0
 15 38  1  0
 15 39  1  0
 16 17  1  0
 16 40  1  0
 16 41  1  0
 17 42  1  0
 17 43  1  0
 17 44  1  0
 18 19  1  0
 18 45  1  0
 18 46  1  0
 19 20  1  0
 19 47  1  0
 19 48  1  0
 20 49  1  0
 20 50  1  0
 20 51  1  0
M  END

