
     RDKit          3D

 62 66  0  0  0  0  0  0  0  0999 V2000
    5.9395    0.7838   -2.8699 C   0  0  0  0  0  0  0  0  0  0  0  0
    5.5914   -0.2964   -2.1618 C   0  0  0  0  0  0  0  0  0  0  0  0
    4.6166   -0.1784   -1.0321 C   0  0  0  0  0  0  0  0  0  0  0  0
    3.9209    0.8129   -0.8799 O   0  0  0  0  0  0  0  0  0  0  0  0
    4.4587   -1.2627   -0.1869 N   0  0  0  0  0  0  0  0  0  0  0  0
    5.1957   -2.4264    0.0517 C   0  0  0  0  0  0  0  0  0  0  0  0
    6.5690   -2.5443   -0.1965 C   0  0  0  0  0  0  0  0  0  0  0  0
    7.2657   -3.7325    0.0966 C   0  0  0  0  0  0  0  0  0  0  0  0
    8.6315   -3.7466   -0.2119 N   0  0  0  0  0  0  0  0  0  0  0  0
    9.6145   -4.6833   -0.0237 C   0  0  0  0  0  0  0  0  0  0  0  0
   10.8204   -4.2724   -0.5426 N   0  0  0  0  0  0  0  0  0  0  0  0
   11.8196   -5.1041   -0.4420 C   0  0  0  0  0  0  0  0  0  0  0  0
   11.7030   -6.3874    0.1770 C   0  0  0  0  0  0  0  0  0  0  0  0
   12.7776   -7.2066    0.2207 N   0  0  0  0  0  0  0  0  0  0  0  0
   12.6078   -8.3797    0.7949 C   0  0  0  0  0  0  0  0  0  0  0  0
   11.3817   -8.7995    1.3654 C   0  0  0  0  0  0  0  0  0  0  0  0
   10.2609   -7.9786    1.3498 C   0  0  0  0  0  0  0  0  0  0  0  0
    8.9836   -8.4259    1.9637 C   0  0  0  0  0  0  0  0  0  0  0  0
    8.2414   -7.5860    2.8155 C   0  0  0  0  0  0  0  0  0  0  0  0
    7.0773   -8.0521    3.4296 C   0  0  0  0  0  0  0  0  0  0  0  0
    6.6177   -9.3529    3.2026 C   0  0  0  0  0  0  0  0  0  0  0  0
    7.3555  -10.1730    2.3532 C   0  0  0  0  0  0  0  0  0  0  0  0
    6.9283  -11.4223    2.1153 F   0  0  0  0  0  0  0  0  0  0  0  0
    8.5247   -9.7359    1.7376 C   0  0  0  0  0  0  0  0  0  0  0  0
   10.4158   -6.7011    0.7082 C   0  0  0  0  0  0  0  0  0  0  0  0
    9.3826   -5.8292    0.5897 N   0  0  0  0  0  0  0  0  0  0  0  0
    6.5778   -4.8085    0.6804 C   0  0  0  0  0  0  0  0  0  0  0  0
    5.2167   -4.6707    0.9566 C   0  0  0  0  0  0  0  0  0  0  0  0
    4.5000   -3.5094    0.6571 C   0  0  0  0  0  0  0  0  0  0  0  0
    3.1190   -3.3209    0.9935 N   0  0  0  0  0  0  0  0  0  0  0  0
    2.7848   -3.5405    2.3950 C   0  0  0  0  0  0  0  0  0  0  0  0
    2.0963   -3.8319    0.0842 C   0  0  1  0  0  0  0  0  0  0  0  0
    2.3968   -3.7804   -1.4352 C   0  0  0  0  0  0  0  0  0  0  0  0
    2.6070   -5.2299   -1.4318 N   0  0  0  0  0  0  0  0  0  0  0  0
    2.1831   -6.0298   -2.5491 C   0  0  0  0  0  0  0  0  0  0  0  0
    1.9625   -5.3767   -0.1264 C   0  0  0  0  0  0  0  0  0  0  0  0
    6.6164    0.7146   -3.7252 H   0  0  0  0  0  0  0  0  0  0  0  0
    5.5388    1.7653   -2.6010 H   0  0  0  0  0  0  0  0  0  0  0  0
    5.9735   -1.2856   -2.4240 H   0  0  0  0  0  0  0  0  0  0  0  0
    3.6048   -1.2240    0.3710 H   0  0  0  0  0  0  0  0  0  0  0  0
    7.1228   -1.6889   -0.5851 H   0  0  0  0  0  0  0  0  0  0  0  0
    8.9916   -2.9221   -0.6803 H   0  0  0  0  0  0  0  0  0  0  0  0
   12.7949   -4.8118   -0.8503 H   0  0  0  0  0  0  0  0  0  0  0  0
   13.4760   -9.0484    0.8327 H   0  0  0  0  0  0  0  0  0  0  0  0
   11.3315   -9.7784    1.8480 H   0  0  0  0  0  0  0  0  0  0  0  0
    8.5847   -6.5690    3.0012 H   0  0  0  0  0  0  0  0  0  0  0  0
    6.5180   -7.3925    4.0977 H   0  0  0  0  0  0  0  0  0  0  0  0
    5.7071   -9.7366    3.6664 H   0  0  0  0  0  0  0  0  0  0  0  0
    9.0539  -10.4174    1.0693 H   0  0  0  0  0  0  0  0  0  0  0  0
    7.1072   -5.7269    0.9162 H   0  0  0  0  0  0  0  0  0  0  0  0
    4.6953   -5.5077    1.4250 H   0  0  0  0  0  0  0  0  0  0  0  0
    3.5170   -3.0312    3.0384 H   0  0  0  0  0  0  0  0  0  0  0  0
    2.7564   -4.6099    2.6917 H   0  0  0  0  0  0  0  0  0  0  0  0
    1.7893   -3.1150    2.6059 H   0  0  0  0  0  0  0  0  0  0  0  0
    1.1472   -3.3520    0.3682 H   0  0  0  0  0  0  0  0  0  0  0  0
    3.2578   -3.1781   -1.7670 H   0  0  0  0  0  0  0  0  0  0  0  0
    1.5029   -3.4569   -2.0108 H   0  0  0  0  0  0  0  0  0  0  0  0
    2.7481   -5.7496   -3.4533 H   0  0  0  0  0  0  0  0  0  0  0  0
    1.0960   -5.9258   -2.7813 H   0  0  0  0  0  0  0  0  0  0  0  0
    2.3845   -7.0954   -2.3511 H   0  0  0  0  0  0  0  0  0  0  0  0
    2.4822   -6.0439    0.5846 H   0  0  0  0  0  0  0  0  0  0  0  0
    0.8974   -5.6912   -0.1823 H   0  0  0  0  0  0  0  0  0  0  0  0
  1  2  2  0
  1 37  1  0
  1 38  1  0
  2  3  1  0
  2 39  1  0
  3  4  2  0
  3  5  1  0
  5  6  1  0
  5 40  1  0
  6  7  2  0
  6 29  1  0
  7  8  1  0
  7 41  1  0
  8  9  1  0
  8 27  2  0
  9 10  1  0
  9 42  1  0
 10 11  2  0
 10 26  1  0
 11 12  1  0
 12 13  2  0
 12 43  1  0
 13 14  1  0
 13 25  1  0
 14 15  2  0
 15 16  1  0
 15 44  1  0
 16 17  2  0
 16 45  1  0
 17 18  1  0
 17 25  1  0
 18 19  2  0
 18 24  1  0
 19 20  1  0
 19 46  1  0
 20 21  2  0
 20 47  1  0
 21 22  1  0
 21 48  1  0
 22 23  1  0
 22 24  2  0
 24 49  1  0
 25 26  2  0
 27 28  1  0
 27 50  1  0
 28 29  2  0
 28 51  1  0
 29 30  1  0
 30 31  1  0
 30 32  1  0
 31 52  1  0
 31 53  1  0
 31 54  1  0
 32 33  1  0
 32 36  1  0
 32 55  1  6
 33 34  1  0
 33 56  1  0
 33 57  1  0
 34 35  1  0
 34 36  1  0
 35 58  1  0
 35 59  1  0
 35 60  1  0
 36 61  1  0
 36 62  1  0
M  END

