
     RDKit          3D

 52 56  0  0  0  0  0  0  0  0999 V2000
    4.0682    0.6985    3.5749 C   0  0  0  0  0  0  0  0  0  0  0  0
    3.7175    0.4249    2.1386 C   0  0  0  0  0  0  0  0  0  0  0  0
    3.5086   -0.8165    1.7602 N   0  0  0  0  0  0  0  0  0  0  0  0
    3.1938   -1.0586    0.4513 C   0  0  0  0  0  0  0  0  0  0  0  0
    3.0821   -0.0816   -0.4957 C   0  0  0  0  0  0  0  0  0  0  0  0
    3.2963    1.2248   -0.1140 N   0  0  0  0  0  0  0  0  0  0  0  0
    3.2575    2.3872   -0.8310 C   0  0  0  0  0  0  0  0  0  0  0  0
    3.5553    3.4458    0.0287 C   0  0  0  0  0  0  0  0  0  0  0  0
    3.5507    4.8960   -0.3677 C   0  0  1  0  0  0  0  0  0  0  0  0
    2.3111    5.6684    0.1404 C   0  0  0  0  0  0  0  0  0  0  0  0
    2.3847    7.0982   -0.3199 C   0  0  0  0  0  0  0  0  0  0  0  0
    1.2896    7.8963   -0.6585 C   0  0  0  0  0  0  0  0  0  0  0  0
    1.4371    9.2205   -1.0730 C   0  0  0  0  0  0  0  0  0  0  0  0
    2.7192    9.8102   -1.1923 C   0  0  0  0  0  0  0  0  0  0  0  0
    2.8945   11.1181   -1.6579 N   0  0  0  0  0  0  0  0  0  0  0  0
    3.9825   11.9346   -1.1129 C   0  0  0  0  0  0  0  0  0  0  0  0
    4.3182   13.1068   -2.0457 C   0  0  0  0  0  0  0  0  0  0  0  0
    3.1674   13.9198   -2.4074 N   0  0  0  0  0  0  0  0  0  0  0  0
    2.7300   14.8676   -1.3989 C   0  0  0  0  0  0  0  0  0  0  0  0
    2.1266   13.0695   -2.9619 C   0  0  0  0  0  0  0  0  0  0  0  0
    1.7243   11.8914   -2.0596 C   0  0  0  0  0  0  0  0  0  0  0  0
    3.8295    9.0059   -0.8485 C   0  0  0  0  0  0  0  0  0  0  0  0
    3.6485    7.6933   -0.4260 C   0  0  0  0  0  0  0  0  0  0  0  0
    4.7931    6.9961   -0.0815 O   0  0  0  0  0  0  0  0  0  0  0  0
    4.8267    5.6328    0.0506 C   0  0  0  0  0  0  0  0  0  0  0  0
    5.8337    5.1215    0.4474 O   0  0  0  0  0  0  0  0  0  0  0  0
    3.7808    2.9051    1.3164 C   0  0  0  0  0  0  0  0  0  0  0  0
    3.6209    1.5209    1.2237 C   0  0  0  0  0  0  0  0  0  0  0  0
    4.0924   -0.2484    4.1290 H   0  0  0  0  0  0  0  0  0  0  0  0
    3.3304    1.3728    4.0415 H   0  0  0  0  0  0  0  0  0  0  0  0
    5.0518    1.1910    3.6547 H   0  0  0  0  0  0  0  0  0  0  0  0
    3.0275   -2.1023    0.1699 H   0  0  0  0  0  0  0  0  0  0  0  0
    2.8343   -0.2646   -1.5419 H   0  0  0  0  0  0  0  0  0  0  0  0
    3.0281    2.3853   -1.8947 H   0  0  0  0  0  0  0  0  0  0  0  0
    3.5369    4.9587   -1.4721 H   0  0  0  0  0  0  0  0  0  0  0  0
    2.2772    5.6048    1.2442 H   0  0  0  0  0  0  0  0  0  0  0  0
    1.3969    5.1788   -0.2267 H   0  0  0  0  0  0  0  0  0  0  0  0
    0.2827    7.4749   -0.5837 H   0  0  0  0  0  0  0  0  0  0  0  0
    0.5394    9.7943   -1.2948 H   0  0  0  0  0  0  0  0  0  0  0  0
    4.8847   11.3239   -0.9880 H   0  0  0  0  0  0  0  0  0  0  0  0
    3.7119   12.3111   -0.1028 H   0  0  0  0  0  0  0  0  0  0  0  0
    4.7564   12.6961   -2.9735 H   0  0  0  0  0  0  0  0  0  0  0  0
    5.0849   13.7416   -1.5728 H   0  0  0  0  0  0  0  0  0  0  0  0
    3.5676   15.5318   -1.1303 H   0  0  0  0  0  0  0  0  0  0  0  0
    2.3467   14.4225   -0.4544 H   0  0  0  0  0  0  0  0  0  0  0  0
    1.9271   15.4998   -1.8118 H   0  0  0  0  0  0  0  0  0  0  0  0
    2.4936   12.6565   -3.9190 H   0  0  0  0  0  0  0  0  0  0  0  0
    1.2347   13.6764   -3.1867 H   0  0  0  0  0  0  0  0  0  0  0  0
    1.0438   11.2448   -2.6317 H   0  0  0  0  0  0  0  0  0  0  0  0
    1.1564   12.2557   -1.1755 H   0  0  0  0  0  0  0  0  0  0  0  0
    4.8534    9.3690   -0.9192 H   0  0  0  0  0  0  0  0  0  0  0  0
    4.0645    3.4507    2.2127 H   0  0  0  0  0  0  0  0  0  0  0  0
  1  2  1  0
  1 29  1  0
  1 30  1  0
  1 31  1  0
  2  3  2  0
  2 28  1  0
  3  4  1  0
  4  5  2  0
  4 32  1  0
  5  6  1  0
  5 33  1  0
  6  7  1  0
  6 28  1  0
  7  8  2  0
  7 34  1  0
  8  9  1  0
  8 27  1  0
  9 10  1  0
  9 25  1  0
  9 35  1  6
 10 11  1  0
 10 36  1  0
 10 37  1  0
 11 12  2  0
 11 23  1  0
 12 13  1  0
 12 38  1  0
 13 14  2  0
 13 39  1  0
 14 15  1  0
 14 22  1  0
 15 16  1  0
 15 21  1  0
 16 17  1  0
 16 40  1  0
 16 41  1  0
 17 18  1  0
 17 42  1  0
 17 43  1  0
 18 19  1  0
 18 20  1  0
 19 44  1  0
 19 45  1  0
 19 46  1  0
 20 21  1  0
 20 47  1  0
 20 48  1  0
 21 49  1  0
 21 50  1  0
 22 23  2  0
 22 51  1  0
 23 24  1  0
 24 25  1  0
 25 26  2  0
 27 28  2  0
 27 52  1  0
M  END

