
     RDKit          3D

 56 59  0  0  0  0  0  0  0  0999 V2000
    1.3167    0.0275    0.5809 C   0  0  0  0  0  0  0  0  0  0  0  0
    2.8031   -0.0104    0.3805 C   0  0  0  0  0  0  0  0  0  0  0  0
    3.5088    1.1864    0.0674 C   0  0  0  0  0  0  0  0  0  0  0  0
    4.9125    1.2718   -0.1399 C   0  0  0  0  0  0  0  0  0  0  0  0
    5.5561    0.0143    0.0014 C   0  0  0  0  0  0  0  0  0  0  0  0
    6.9103   -0.2651   -0.1196 O   0  0  0  0  0  0  0  0  0  0  0  0
    6.9929   -1.5967    0.1152 C   0  0  0  0  0  0  0  0  0  0  0  0
    8.2137   -2.1819    0.0481 N   0  0  0  0  0  0  0  0  0  0  0  0
    8.3674   -3.6093    0.3015 C   0  0  0  0  0  0  0  0  0  0  0  0
    9.1568   -4.2615   -0.8385 C   0  0  0  0  0  0  0  0  0  0  0  0
   10.3974   -3.5359   -1.0876 N   0  0  0  0  0  0  0  0  0  0  0  0
   11.5974   -4.2198   -1.0702 C   0  0  0  0  0  0  0  0  0  0  0  0
   11.6469   -5.4144   -0.8255 O   0  0  0  0  0  0  0  0  0  0  0  0
   12.8628   -3.4228   -1.3774 C   0  0  0  0  0  0  0  0  0  0  0  0
   14.1009   -4.3151   -1.3564 C   0  0  0  0  0  0  0  0  0  0  0  0
   15.3474   -3.5569   -1.6659 C   0  0  0  0  0  0  0  0  0  0  0  0
   15.4911   -2.2920   -1.9274 N   0  0  0  0  0  0  0  0  0  0  0  0
   16.8523   -2.1716   -2.1319 C   0  0  0  0  0  0  0  0  0  0  0  0
   17.5159   -0.8564   -2.4768 C   0  0  1  0  0  0  0  0  0  0  0  0
   16.9078   -0.3413   -3.8000 C   0  0  0  0  0  0  0  0  0  0  0  0
   17.2165    0.1490   -1.3435 C   0  0  0  0  0  0  0  0  0  0  0  0
   19.0338   -1.0452   -2.6303 C   0  0  0  0  0  0  0  0  0  0  0  0
   17.5030   -3.2989   -2.0015 N   0  0  0  0  0  0  0  0  0  0  0  0
   16.5072   -4.2250   -1.6912 O   0  0  0  0  0  0  0  0  0  0  0  0
   10.2169   -2.1206   -1.3664 C   0  0  0  0  0  0  0  0  0  0  0  0
    9.4314   -1.4413   -0.2310 C   0  0  0  0  0  0  0  0  0  0  0  0
    5.8480   -2.2003    0.3753 N   0  0  0  0  0  0  0  0  0  0  0  0
    4.9036   -1.2014    0.3119 C   0  0  0  0  0  0  0  0  0  0  0  0
    3.4901   -1.2588    0.5124 C   0  0  0  0  0  0  0  0  0  0  0  0
    0.9015    1.0371    0.4445 H   0  0  0  0  0  0  0  0  0  0  0  0
    1.0392   -0.3229    1.5946 H   0  0  0  0  0  0  0  0  0  0  0  0
    0.7996   -0.6539   -0.1229 H   0  0  0  0  0  0  0  0  0  0  0  0
    2.9214    2.1060   -0.0178 H   0  0  0  0  0  0  0  0  0  0  0  0
    5.4303    2.1967   -0.3812 H   0  0  0  0  0  0  0  0  0  0  0  0
    7.3669   -4.0480    0.4014 H   0  0  0  0  0  0  0  0  0  0  0  0
    8.9109   -3.7492    1.2551 H   0  0  0  0  0  0  0  0  0  0  0  0
    8.5375   -4.2663   -1.7543 H   0  0  0  0  0  0  0  0  0  0  0  0
    9.4168   -5.2970   -0.5870 H   0  0  0  0  0  0  0  0  0  0  0  0
   12.9821   -2.6022   -0.6511 H   0  0  0  0  0  0  0  0  0  0  0  0
   12.7711   -2.9310   -2.3598 H   0  0  0  0  0  0  0  0  0  0  0  0
   13.9932   -5.1443   -2.0740 H   0  0  0  0  0  0  0  0  0  0  0  0
   14.2081   -4.8060   -0.3757 H   0  0  0  0  0  0  0  0  0  0  0  0
   15.8167   -0.2272   -3.7157 H   0  0  0  0  0  0  0  0  0  0  0  0
   17.1171   -1.0354   -4.6294 H   0  0  0  0  0  0  0  0  0  0  0  0
   17.3410    0.6382   -4.0581 H   0  0  0  0  0  0  0  0  0  0  0  0
   16.1325    0.2716   -1.2006 H   0  0  0  0  0  0  0  0  0  0  0  0
   17.6487    1.1327   -1.5873 H   0  0  0  0  0  0  0  0  0  0  0  0
   17.6525   -0.1873   -0.3894 H   0  0  0  0  0  0  0  0  0  0  0  0
   19.2703   -1.7661   -3.4269 H   0  0  0  0  0  0  0  0  0  0  0  0
   19.4878   -1.4196   -1.7008 H   0  0  0  0  0  0  0  0  0  0  0  0
   19.5052   -0.0825   -2.8831 H   0  0  0  0  0  0  0  0  0  0  0  0
    9.6583   -1.9915   -2.3127 H   0  0  0  0  0  0  0  0  0  0  0  0
   11.1839   -1.6179   -1.4808 H   0  0  0  0  0  0  0  0  0  0  0  0
    9.1751   -0.4096   -0.4992 H   0  0  0  0  0  0  0  0  0  0  0  0
   10.0607   -1.4178    0.6802 H   0  0  0  0  0  0  0  0  0  0  0  0
    2.9817   -2.1914    0.7497 H   0  0  0  0  0  0  0  0  0  0  0  0
  1  2  1  0
  1 30  1  0
  1 31  1  0
  1 32  1  0
  2  3  2  0
  2 29  1  0
  3  4  1  0
  3 33  1  0
  4  5  2  0
  4 34  1  0
  5  6  1  0
  5 28  1  0
  6  7  1  0
  7  8  1  0
  7 27  2  0
  8  9  1  0
  8 26  1  0
  9 10  1  0
  9 35  1  0
  9 36  1  0
 10 11  1  0
 10 37  1  0
 10 38  1  0
 11 12  1  0
 11 25  1  0
 12 13  2  0
 12 14  1  0
 14 15  1  0
 14 39  1  0
 14 40  1  0
 15 16  1  0
 15 41  1  0
 15 42  1  0
 16 17  2  0
 16 24  1  0
 17 18  1  0
 18 19  1  0
 18 23  2  0
 19 20  1  6
 19 21  1  0
 19 22  1  0
 20 43  1  0
 20 44  1  0
 20 45  1  0
 21 46  1  0
 21 47  1  0
 21 48  1  0
 22 49  1  0
 22 50  1  0
 22 51  1  0
 23 24  1  0
 25 26  1  0
 25 52  1  0
 25 53  1  0
 26 54  1  0
 26 55  1  0
 27 28  1  0
 28 29  2  0
 29 56  1  0
M  END

