
     RDKit          3D

 53 55  0  0  0  0  0  0  0  0999 V2000
    6.8012    2.7177   -9.1644 C   0  0  0  0  0  0  0  0  0  0  0  0
    7.7384    2.5745   -7.9705 C   0  0  0  0  0  0  0  0  0  0  0  0
    7.3533    1.0067   -7.0753 S   0  0  0  0  0  0  0  0  0  0  0  0
    8.5144    1.0568   -5.7175 C   0  0  0  0  0  0  0  0  0  0  0  0
    8.0468    0.8441   -4.4126 C   0  0  0  0  0  0  0  0  0  0  0  0
    8.9396    0.8065   -3.3364 C   0  0  0  0  0  0  0  0  0  0  0  0
   10.3160    1.0009   -3.5299 C   0  0  0  0  0  0  0  0  0  0  0  0
   11.2888    0.9444   -2.3745 C   0  0  0  0  0  0  0  0  0  0  0  0
   12.0603   -0.3693   -2.1848 C   0  0  0  0  0  0  0  0  0  0  0  0
   13.1352   -0.3994   -1.6258 O   0  0  0  0  0  0  0  0  0  0  0  0
   11.4076   -1.4994   -2.6533 N   0  0  0  0  0  0  0  0  0  0  0  0
   11.8202   -2.8301   -2.5755 C   0  0  0  0  0  0  0  0  0  0  0  0
   12.9964   -3.2445   -1.9818 C   0  0  0  0  0  0  0  0  0  0  0  0
   13.3754   -4.6741   -1.9000 C   0  0  0  0  0  0  0  0  0  0  0  0
   12.4475   -5.6460   -2.5704 C   0  0  0  0  0  0  0  0  0  0  0  0
   12.8004   -7.0177   -2.6033 C   0  0  0  0  0  0  0  0  0  0  0  0
   11.9609   -8.0924   -3.2239 C   0  0  0  0  0  0  0  0  0  0  0  0
   13.9496   -7.2972   -2.0882 O   0  0  0  0  0  0  0  0  0  0  0  0
   14.5052   -8.6487   -2.0265 C   0  0  0  0  0  0  0  0  0  0  0  0
   15.2611   -9.0672   -3.0795 C   0  0  0  0  0  0  0  0  0  0  0  0
   15.8239  -10.3932   -3.0310 C   0  0  0  0  0  0  0  0  0  0  0  0
   15.4310  -11.2283   -1.9457 C   0  0  0  0  0  0  0  0  0  0  0  0
   15.9544  -12.9087   -1.9942 Cl  0  0  0  0  0  0  0  0  0  0  0  0
   14.6483  -10.7674   -0.9114 C   0  0  0  0  0  0  0  0  0  0  0  0
   13.9803  -11.8648    0.3132 Cl  0  0  0  0  0  0  0  0  0  0  0  0
   14.1738   -9.4028   -0.8768 C   0  0  0  0  0  0  0  0  0  0  0  0
   11.2687   -5.1589   -3.1589 C   0  0  0  0  0  0  0  0  0  0  0  0
   10.9482   -3.8095   -3.1582 C   0  0  0  0  0  0  0  0  0  0  0  0
   10.7765    1.2228   -4.8407 C   0  0  0  0  0  0  0  0  0  0  0  0
    9.8948    1.2373   -5.9198 C   0  0  0  0  0  0  0  0  0  0  0  0
    7.0159    3.6551   -9.7017 H   0  0  0  0  0  0  0  0  0  0  0  0
    5.7470    2.7433   -8.8469 H   0  0  0  0  0  0  0  0  0  0  0  0
    6.9234    1.8841   -9.8738 H   0  0  0  0  0  0  0  0  0  0  0  0
    7.6156    3.4113   -7.2660 H   0  0  0  0  0  0  0  0  0  0  0  0
    8.7884    2.5549   -8.2998 H   0  0  0  0  0  0  0  0  0  0  0  0
    6.9750    0.7214   -4.2415 H   0  0  0  0  0  0  0  0  0  0  0  0
    8.5513    0.6484   -2.3257 H   0  0  0  0  0  0  0  0  0  0  0  0
   10.7690    1.1347   -1.4201 H   0  0  0  0  0  0  0  0  0  0  0  0
   12.0599    1.7246   -2.4593 H   0  0  0  0  0  0  0  0  0  0  0  0
   10.5282   -1.3259   -3.1306 H   0  0  0  0  0  0  0  0  0  0  0  0
   13.6480   -2.4936   -1.5390 H   0  0  0  0  0  0  0  0  0  0  0  0
   13.4767   -4.9524   -0.8249 H   0  0  0  0  0  0  0  0  0  0  0  0
   14.4149   -4.8304   -2.2473 H   0  0  0  0  0  0  0  0  0  0  0  0
   10.8942   -7.8691   -3.1047 H   0  0  0  0  0  0  0  0  0  0  0  0
   12.1843   -9.0622   -2.7695 H   0  0  0  0  0  0  0  0  0  0  0  0
   12.1809   -8.1582   -4.3017 H   0  0  0  0  0  0  0  0  0  0  0  0
   15.4191   -8.4229   -3.9467 H   0  0  0  0  0  0  0  0  0  0  0  0
   16.5737  -10.7275   -3.7432 H   0  0  0  0  0  0  0  0  0  0  0  0
   13.8252   -8.9488    0.0489 H   0  0  0  0  0  0  0  0  0  0  0  0
   10.5759   -5.8445   -3.6482 H   0  0  0  0  0  0  0  0  0  0  0  0
   10.0150   -3.4876   -3.6260 H   0  0  0  0  0  0  0  0  0  0  0  0
   11.8452    1.3735   -5.0189 H   0  0  0  0  0  0  0  0  0  0  0  0
   10.2824    1.3802   -6.9310 H   0  0  0  0  0  0  0  0  0  0  0  0
  1  2  1  0
  1 31  1  0
  1 32  1  0
  1 33  1  0
  2  3  1  0
  2 34  1  0
  2 35  1  0
  3  4  1  0
  4  5  2  0
  4 30  1  0
  5  6  1  0
  5 36  1  0
  6  7  2  0
  6 37  1  0
  7  8  1  0
  7 29  1  0
  8  9  1  0
  8 38  1  0
  8 39  1  0
  9 10  2  0
  9 11  1  0
 11 12  1  0
 11 40  1  0
 12 13  2  0
 12 28  1  0
 13 14  1  0
 13 41  1  0
 14 15  1  0
 14 42  1  0
 14 43  1  0
 15 16  2  0
 15 27  1  0
 16 17  1  0
 16 18  1  0
 17 44  1  0
 17 45  1  0
 17 46  1  0
 18 19  1  0
 19 20  2  0
 19 26  1  0
 20 21  1  0
 20 47  1  0
 21 22  2  0
 21 48  1  0
 22 23  1  0
 22 24  1  0
 24 25  1  0
 24 26  2  0
 26 49  1  0
 27 28  2  0
 27 50  1  0
 28 51  1  0
 29 30  2  0
 29 52  1  0
 30 53  1  0
M  END

