
     RDKit          3D

 33 35  0  0  0  0  0  0  0  0999 V2000
    1.2632    0.5730    0.7615 C   0  0  0  0  0  0  0  0  0  0  0  0
    2.6488    0.3198    0.2332 C   0  0  0  0  0  0  0  0  0  0  0  0
    3.2465    1.0843   -0.7931 C   0  0  0  0  0  0  0  0  0  0  0  0
    4.5253    0.8355   -1.2665 C   0  0  0  0  0  0  0  0  0  0  0  0
    5.3153   -0.2301   -0.7234 C   0  0  0  0  0  0  0  0  0  0  0  0
    6.6269   -0.4883   -1.2029 C   0  0  0  0  0  0  0  0  0  0  0  0
    7.2437    0.2173   -2.2016 N   0  0  0  0  0  0  0  0  0  0  0  0
    8.5577   -0.4319   -2.2833 O   0  0  0  0  0  0  0  0  0  0  0  0
    8.5224   -1.4046   -1.3743 C   0  0  0  0  0  0  0  0  0  0  0  0
    9.7333   -2.2934   -1.1787 C   0  0  1  0  0  0  0  0  0  0  0  0
    9.5140   -3.1103   -0.0763 O   0  0  0  0  0  0  0  0  0  0  0  0
   10.0565   -3.1209   -2.4618 C   0  0  0  0  0  0  0  0  0  0  0  0
   11.0112   -2.2467   -3.2763 C   0  0  0  0  0  0  0  0  0  0  0  0
   11.6983   -1.4711   -2.2665 N   0  0  0  0  0  0  0  0  0  0  0  0
   11.0368   -1.4572   -0.9851 C   0  0  0  0  0  0  0  0  0  0  0  0
    7.4493   -1.5112   -0.6923 N   0  0  0  0  0  0  0  0  0  0  0  0
    4.7197   -1.0142    0.3169 C   0  0  0  0  0  0  0  0  0  0  0  0
    3.4448   -0.7231    0.7490 C   0  0  0  0  0  0  0  0  0  0  0  0
    2.9096   -1.4867    1.7385 F   0  0  0  0  0  0  0  0  0  0  0  0
    0.7982    1.4253    0.2425 H   0  0  0  0  0  0  0  0  0  0  0  0
    1.2627    0.8001    1.8429 H   0  0  0  0  0  0  0  0  0  0  0  0
    0.5992   -0.3004    0.6305 H   0  0  0  0  0  0  0  0  0  0  0  0
    2.6695    1.9069   -1.2286 H   0  0  0  0  0  0  0  0  0  0  0  0
    4.9474    1.4516   -2.0617 H   0  0  0  0  0  0  0  0  0  0  0  0
    8.6006   -2.9119    0.2193 H   0  0  0  0  0  0  0  0  0  0  0  0
    9.1546   -3.3911   -3.0211 H   0  0  0  0  0  0  0  0  0  0  0  0
   10.5597   -4.0466   -2.1416 H   0  0  0  0  0  0  0  0  0  0  0  0
   10.4730   -1.5128   -3.9051 H   0  0  0  0  0  0  0  0  0  0  0  0
   11.7413   -2.7639   -3.9164 H   0  0  0  0  0  0  0  0  0  0  0  0
   12.5483   -0.9428   -2.4569 H   0  0  0  0  0  0  0  0  0  0  0  0
   10.8878   -0.4175   -0.6646 H   0  0  0  0  0  0  0  0  0  0  0  0
   11.7059   -1.9430   -0.2504 H   0  0  0  0  0  0  0  0  0  0  0  0
    5.2605   -1.8420    0.7749 H   0  0  0  0  0  0  0  0  0  0  0  0
  1  2  1  0
  1 20  1  0
  1 21  1  0
  1 22  1  0
  2  3  2  0
  2 18  1  0
  3  4  1  0
  3 23  1  0
  4  5  2  0
  4 24  1  0
  5  6  1  0
  5 17  1  0
  6  7  2  0
  6 16  1  0
  7  8  1  0
  8  9  1  0
  9 10  1  0
  9 16  2  0
 10 11  1  1
 10 12  1  0
 10 15  1  0
 11 25  1  0
 12 13  1  0
 12 26  1  0
 12 27  1  0
 13 14  1  0
 13 28  1  0
 13 29  1  0
 14 15  1  0
 14 30  1  0
 15 31  1  0
 15 32  1  0
 17 18  2  0
 17 33  1  0
 18 19  1  0
M  END

