
     RDKit          3D

 44 46  0  0  0  0  0  0  0  0999 V2000
    6.7949   -2.9676    2.5277 C   0  0  0  0  0  0  0  0  0  0  0  0
    5.9748   -1.8771    2.1769 O   0  0  0  0  0  0  0  0  0  0  0  0
    4.8076   -2.0995    1.5209 C   0  0  0  0  0  0  0  0  0  0  0  0
    4.0544   -0.9629    1.2135 C   0  0  0  0  0  0  0  0  0  0  0  0
    2.8326   -1.0896    0.5363 C   0  0  0  0  0  0  0  0  0  0  0  0
    2.1785    0.0712    0.2839 O   0  0  0  0  0  0  0  0  0  0  0  0
    0.9418    0.0337   -0.3929 C   0  0  0  0  0  0  0  0  0  0  0  0
    2.3588   -2.3537    0.1638 C   0  0  0  0  0  0  0  0  0  0  0  0
    3.1177   -3.4970    0.4750 C   0  0  0  0  0  0  0  0  0  0  0  0
    2.6253   -4.8278    0.0956 C   0  0  0  0  0  0  0  0  0  0  0  0
    1.4913   -5.0034   -0.4978 N   0  0  0  0  0  0  0  0  0  0  0  0
    1.2928   -6.3322   -0.7266 N   0  0  0  0  0  0  0  0  0  0  0  0
    0.0882   -6.8534   -1.1592 C   0  0  0  0  0  0  0  0  0  0  0  0
   -0.9843   -5.8477   -1.5198 C   0  0  0  0  0  0  0  0  0  0  0  0
   -0.0602   -8.0611   -1.2271 O   0  0  0  0  0  0  0  0  0  0  0  0
    2.4415   -7.1830   -0.3244 C   0  0  1  0  0  0  0  0  0  0  0  0
    2.0762   -7.9404    0.3835 H   0  0  0  0  0  0  0  0  0  0  0  0
    3.0682   -7.9014   -1.5085 C   0  0  0  0  0  0  0  0  0  0  0  0
    3.6792   -7.1848   -2.5502 C   0  0  0  0  0  0  0  0  0  0  0  0
    4.2536   -7.8444   -3.6381 C   0  0  0  0  0  0  0  0  0  0  0  0
    4.2132   -9.2370   -3.6772 C   0  0  0  0  0  0  0  0  0  0  0  0
    4.7666   -9.8776   -4.7175 F   0  0  0  0  0  0  0  0  0  0  0  0
    3.6089   -9.9769   -2.6645 C   0  0  0  0  0  0  0  0  0  0  0  0
    3.0337   -9.2997   -1.5869 C   0  0  0  0  0  0  0  0  0  0  0  0
    3.3506   -6.1348    0.3682 C   0  0  0  0  0  0  0  0  0  0  0  0
    4.3442   -3.3745    1.1521 C   0  0  0  0  0  0  0  0  0  0  0  0
    7.6702   -2.5479    3.0417 H   0  0  0  0  0  0  0  0  0  0  0  0
    7.1395   -3.5286    1.6400 H   0  0  0  0  0  0  0  0  0  0  0  0
    6.2821   -3.6670    3.2128 H   0  0  0  0  0  0  0  0  0  0  0  0
    4.4177    0.0243    1.4999 H   0  0  0  0  0  0  0  0  0  0  0  0
    0.6039    1.0748   -0.4832 H   0  0  0  0  0  0  0  0  0  0  0  0
    0.1833   -0.5419    0.1674 H   0  0  0  0  0  0  0  0  0  0  0  0
    1.0390   -0.4003   -1.4042 H   0  0  0  0  0  0  0  0  0  0  0  0
    1.4161   -2.4854   -0.3628 H   0  0  0  0  0  0  0  0  0  0  0  0
   -0.6272   -5.1518   -2.2936 H   0  0  0  0  0  0  0  0  0  0  0  0
   -1.2596   -5.2389   -0.6453 H   0  0  0  0  0  0  0  0  0  0  0  0
   -1.8591   -6.4013   -1.8820 H   0  0  0  0  0  0  0  0  0  0  0  0
    3.7034   -6.0918   -2.5242 H   0  0  0  0  0  0  0  0  0  0  0  0
    4.7297   -7.2981   -4.4547 H   0  0  0  0  0  0  0  0  0  0  0  0
    3.5860  -11.0660   -2.7355 H   0  0  0  0  0  0  0  0  0  0  0  0
    2.5340   -9.8693   -0.8000 H   0  0  0  0  0  0  0  0  0  0  0  0
    4.3714   -6.1380   -0.0423 H   0  0  0  0  0  0  0  0  0  0  0  0
    3.4388   -6.3110    1.4529 H   0  0  0  0  0  0  0  0  0  0  0  0
    4.9256   -4.2635    1.3878 H   0  0  0  0  0  0  0  0  0  0  0  0
  1  2  1  0
  1 27  1  0
  1 28  1  0
  1 29  1  0
  2  3  1  0
  3  4  2  0
  3 26  1  0
  4  5  1  0
  4 30  1  0
  5  6  1  0
  5  8  2  0
  6  7  1  0
  7 31  1  0
  7 32  1  0
  7 33  1  0
  8  9  1  0
  8 34  1  0
  9 10  1  0
  9 26  2  0
 10 11  2  0
 10 25  1  0
 11 12  1  0
 12 13  1  0
 12 16  1  0
 13 14  1  0
 13 15  2  0
 14 35  1  0
 14 36  1  0
 14 37  1  0
 16 17  1  1
 16 18  1  0
 16 25  1  0
 18 19  2  0
 18 24  1  0
 19 20  1  0
 19 38  1  0
 20 21  2  0
 20 39  1  0
 21 22  1  0
 21 23  1  0
 23 24  2  0
 23 40  1  0
 24 41  1  0
 25 42  1  0
 25 43  1  0
 26 44  1  0
M  END

