
     RDKit          3D

 75 79  0  0  0  0  0  0  0  0999 V2000
    0.3473    2.3634    0.7344 C   0  0  0  0  0  0  0  0  0  0  0  0
    1.7639    2.2431    0.7979 O   0  0  0  0  0  0  0  0  0  0  0  0
    2.2750    1.0490    0.4182 C   0  0  0  0  0  0  0  0  0  0  0  0
    1.5746    0.1324    0.0498 O   0  0  0  0  0  0  0  0  0  0  0  0
    3.7599    1.0058    0.5058 C   0  0  0  0  0  0  0  0  0  0  0  0
    4.4127   -0.1832    0.1389 C   0  0  0  0  0  0  0  0  0  0  0  0
    5.8000   -0.2697    0.2015 C   0  0  0  0  0  0  0  0  0  0  0  0
    6.5761    0.8245    0.6247 C   0  0  0  0  0  0  0  0  0  0  0  0
    8.0948    0.6760    0.6681 C   0  0  2  0  0  0  0  0  0  0  0  0
    8.3061   -0.3431    1.0160 H   0  0  0  0  0  0  0  0  0  0  0  0
    8.8453    1.5852    1.6196 C   0  0  0  0  0  0  0  0  0  0  0  0
    9.2903    2.8856    1.2767 C   0  0  0  0  0  0  0  0  0  0  0  0
   10.2278    3.6188    2.2016 C   0  0  0  0  0  0  0  0  0  0  0  0
    9.8947    3.3350    3.6691 C   0  0  2  0  0  0  0  0  0  0  0  0
    8.8579    3.6646    3.8492 H   0  0  0  0  0  0  0  0  0  0  0  0
   10.7689    3.9979    4.6978 C   0  0  0  0  0  0  0  0  0  0  0  0
   10.2590    4.1435    6.0282 C   0  0  0  0  0  0  0  0  0  0  0  0
   11.0045    4.7092    7.0450 C   0  0  0  0  0  0  0  0  0  0  0  0
   12.3188    5.1443    6.7868 C   0  0  0  0  0  0  0  0  0  0  0  0
   13.1353    5.6900    7.6711 O   0  0  0  0  0  0  0  0  0  0  0  0
   12.7279    5.8771    9.0251 C   0  0  0  0  0  0  0  0  0  0  0  0
   12.8603    4.9946    5.4484 C   0  0  0  0  0  0  0  0  0  0  0  0
   14.1009    5.4347    5.3006 O   0  0  0  0  0  0  0  0  0  0  0  0
   14.7659    5.3204    4.0443 C   0  0  0  0  0  0  0  0  0  0  0  0
   12.0744    4.4269    4.4400 C   0  0  0  0  0  0  0  0  0  0  0  0
    9.9275    1.8077    3.9324 C   0  0  0  0  0  0  0  0  0  0  0  0
    9.1197    1.0020    2.8842 C   0  0  0  0  0  0  0  0  0  0  0  0
    8.7903   -0.1453    3.2579 O   0  0  0  0  0  0  0  0  0  0  0  0
    9.1249    3.5285    0.0453 N   0  0  0  0  0  0  0  0  0  0  0  0
    8.5303    3.1775   -1.1468 C   0  0  0  0  0  0  0  0  0  0  0  0
    8.1666    4.2118   -2.0532 C   0  0  0  0  0  0  0  0  0  0  0  0
    7.5448    3.9374   -3.2612 C   0  0  0  0  0  0  0  0  0  0  0  0
    7.2280    2.6147   -3.6181 C   0  0  0  0  0  0  0  0  0  0  0  0
    7.5813    1.5870   -2.7414 C   0  0  0  0  0  0  0  0  0  0  0  0
    8.2547    1.8366   -1.5419 C   0  0  0  0  0  0  0  0  0  0  0  0
    8.6606    0.7524   -0.7065 N   0  0  0  0  0  0  0  0  0  0  0  0
    9.5911   -0.1723   -1.0780 C   0  0  0  0  0  0  0  0  0  0  0  0
    9.8533   -1.1444   -0.3565 O   0  0  0  0  0  0  0  0  0  0  0  0
   10.3354    0.0196   -2.3963 C   0  0  0  0  0  0  0  0  0  0  0  0
   11.7793   -0.5220   -2.3705 C   0  0  0  0  0  0  0  0  0  0  0  0
   11.9583   -2.0328   -2.5756 C   0  0  0  0  0  0  0  0  0  0  0  0
   12.6957   -2.4734   -3.4253 O   0  0  0  0  0  0  0  0  0  0  0  0
   11.2736   -2.8228   -1.7544 O   0  0  0  0  0  0  0  0  0  0  0  0
    5.9164    2.0031    1.0006 C   0  0  0  0  0  0  0  0  0  0  0  0
    4.5259    2.0989    0.9407 C   0  0  0  0  0  0  0  0  0  0  0  0
    0.1091    3.3812    1.0693 H   0  0  0  0  0  0  0  0  0  0  0  0
   -0.1421    1.6239    1.3873 H   0  0  0  0  0  0  0  0  0  0  0  0
   -0.0170    2.2063   -0.2928 H   0  0  0  0  0  0  0  0  0  0  0  0
    3.8080   -1.0315   -0.1878 H   0  0  0  0  0  0  0  0  0  0  0  0
    6.2985   -1.2022   -0.0771 H   0  0  0  0  0  0  0  0  0  0  0  0
   10.1739    4.7090    2.0163 H   0  0  0  0  0  0  0  0  0  0  0  0
   11.2808    3.3275    1.9955 H   0  0  0  0  0  0  0  0  0  0  0  0
    9.2452    3.7987    6.2384 H   0  0  0  0  0  0  0  0  0  0  0  0
   10.5769    4.8125    8.0413 H   0  0  0  0  0  0  0  0  0  0  0  0
   13.5825    6.3347    9.5357 H   0  0  0  0  0  0  0  0  0  0  0  0
   12.4870    4.9115    9.4964 H   0  0  0  0  0  0  0  0  0  0  0  0
   11.8579    6.5500    9.0812 H   0  0  0  0  0  0  0  0  0  0  0  0
   15.7685    5.7358    4.1959 H   0  0  0  0  0  0  0  0  0  0  0  0
   14.2388    5.8978    3.2689 H   0  0  0  0  0  0  0  0  0  0  0  0
   14.8432    4.2659    3.7370 H   0  0  0  0  0  0  0  0  0  0  0  0
   12.4830    4.3212    3.4385 H   0  0  0  0  0  0  0  0  0  0  0  0
    9.5031    1.5598    4.9162 H   0  0  0  0  0  0  0  0  0  0  0  0
   10.9689    1.4384    3.9327 H   0  0  0  0  0  0  0  0  0  0  0  0
    9.3336    4.5201    0.0905 H   0  0  0  0  0  0  0  0  0  0  0  0
    8.3827    5.2488   -1.7754 H   0  0  0  0  0  0  0  0  0  0  0  0
    7.2852    4.7635   -3.9284 H   0  0  0  0  0  0  0  0  0  0  0  0
    6.7079    2.3931   -4.5514 H   0  0  0  0  0  0  0  0  0  0  0  0
    7.3418    0.5495   -2.9856 H   0  0  0  0  0  0  0  0  0  0  0  0
   10.3515    1.0865   -2.6561 H   0  0  0  0  0  0  0  0  0  0  0  0
    9.7618   -0.4698   -3.2024 H   0  0  0  0  0  0  0  0  0  0  0  0
   12.2587   -0.2454   -1.4151 H   0  0  0  0  0  0  0  0  0  0  0  0
   12.3552   -0.0467   -3.1754 H   0  0  0  0  0  0  0  0  0  0  0  0
   10.7327   -2.2728   -1.1186 H   0  0  0  0  0  0  0  0  0  0  0  0
    6.5052    2.8535    1.3493 H   0  0  0  0  0  0  0  0  0  0  0  0
    4.0236    3.0230    1.2297 H   0  0  0  0  0  0  0  0  0  0  0  0
  1  2  1  0
  1 46  1  0
  1 47  1  0
  1 48  1  0
  2  3  1  0
  3  4  2  0
  3  5  1  0
  5  6  2  0
  5 45  1  0
  6  7  1  0
  6 49  1  0
  7  8  2  0
  7 50  1  0
  8  9  1  0
  8 44  1  0
  9 10  1  1
  9 11  1  0
  9 36  1  0
 11 12  2  0
 11 27  1  0
 12 13  1  0
 12 29  1  0
 13 14  1  0
 13 51  1  0
 13 52  1  0
 14 15  1  1
 14 16  1  0
 14 26  1  0
 16 17  2  0
 16 25  1  0
 17 18  1  0
 17 53  1  0
 18 19  2  0
 18 54  1  0
 19 20  1  0
 19 22  1  0
 20 21  1  0
 21 55  1  0
 21 56  1  0
 21 57  1  0
 22 23  1  0
 22 25  2  0
 23 24  1  0
 24 58  1  0
 24 59  1  0
 24 60  1  0
 25 61  1  0
 26 27  1  0
 26 62  1  0
 26 63  1  0
 27 28  2  0
 29 30  1  0
 29 64  1  0
 30 31  1  0
 30 35  2  0
 31 32  2  0
 31 65  1  0
 32 33  1  0
 32 66  1  0
 33 34  2  0
 33 67  1  0
 34 35  1  0
 34 68  1  0
 35 36  1  0
 36 37  1  0
 37 38  2  0
 37 39  1  0
 39 40  1  0
 39 69  1  0
 39 70  1  0
 40 41  1  0
 40 71  1  0
 40 72  1  0
 41 42  2  0
 41 43  1  0
 43 73  1  0
 44 45  2  0
 44 74  1  0
 45 75  1  0
M  END

