
     RDKit          3D

 59 62  0  0  0  0  0  0  0  0999 V2000
    2.8548   -1.2597    0.9081 O   0  0  0  0  0  0  0  0  0  0  0  0
    2.5037   -0.3300    0.2011 C   0  0  0  0  0  0  0  0  0  0  0  0
    2.7883    1.1217    0.6328 C   0  0  0  0  0  0  0  0  0  0  0  0
    1.6050    1.8787    0.9412 O   0  0  0  0  0  0  0  0  0  0  0  0
    0.9710    2.5120   -0.0582 C   0  0  0  0  0  0  0  0  0  0  0  0
    1.2860    2.3850   -1.2268 O   0  0  0  0  0  0  0  0  0  0  0  0
   -0.1466    3.3749    0.4185 C   0  0  0  0  0  0  0  0  0  0  0  0
   -0.4648    3.5006    1.7834 C   0  0  0  0  0  0  0  0  0  0  0  0
   -1.5215    4.3265    2.1560 C   0  0  0  0  0  0  0  0  0  0  0  0
   -2.2637    5.0299    1.1983 C   0  0  0  0  0  0  0  0  0  0  0  0
   -1.9418    4.9042   -0.1631 C   0  0  0  0  0  0  0  0  0  0  0  0
   -2.5942    5.5372   -1.1702 O   0  0  0  0  0  0  0  0  0  0  0  0
   -3.6563    6.4263   -0.8718 C   0  0  0  0  0  0  0  0  0  0  0  0
   -4.1798    7.0357   -2.1509 C   0  0  0  0  0  0  0  0  0  0  0  0
   -5.5327    7.3868   -2.2590 C   0  0  0  0  0  0  0  0  0  0  0  0
   -6.0279    8.0002   -3.4122 C   0  0  0  0  0  0  0  0  0  0  0  0
   -5.1534    8.2503   -4.4667 C   0  0  0  0  0  0  0  0  0  0  0  0
   -5.6206    8.8322   -5.5806 F   0  0  0  0  0  0  0  0  0  0  0  0
   -3.8057    7.9039   -4.3933 C   0  0  0  0  0  0  0  0  0  0  0  0
   -3.3242    7.2996   -3.2307 C   0  0  0  0  0  0  0  0  0  0  0  0
   -0.8802    4.0712   -0.5462 C   0  0  0  0  0  0  0  0  0  0  0  0
    1.8781   -0.4371   -1.0076 N   0  0  0  0  0  0  0  0  0  0  0  0
    1.4526   -1.6019   -1.6798 C   0  0  0  0  0  0  0  0  0  0  0  0
    0.7737   -1.4482   -2.8971 C   0  0  0  0  0  0  0  0  0  0  0  0
    0.3203   -2.5520   -3.6190 C   0  0  0  0  0  0  0  0  0  0  0  0
    0.5426   -3.8662   -3.1588 C   0  0  0  0  0  0  0  0  0  0  0  0
    0.1371   -4.9996   -3.8894 N   0  0  0  0  0  0  0  0  0  0  0  0
   -0.4074   -4.8167   -5.2260 C   0  0  0  0  0  0  0  0  0  0  0  0
   -0.3950   -6.1417   -5.9879 C   0  0  0  0  0  0  0  0  0  0  0  0
   -1.0705   -7.1613   -5.2843 O   0  0  0  0  0  0  0  0  0  0  0  0
   -0.4909   -7.3690   -4.0136 C   0  0  0  0  0  0  0  0  0  0  0  0
   -0.5148   -6.0959   -3.1743 C   0  0  0  0  0  0  0  0  0  0  0  0
    1.2281   -4.0046   -1.9324 C   0  0  0  0  0  0  0  0  0  0  0  0
    1.6725   -2.9065   -1.2015 C   0  0  0  0  0  0  0  0  0  0  0  0
    3.3670    1.6521   -0.1398 H   0  0  0  0  0  0  0  0  0  0  0  0
    3.3556    1.0658    1.5678 H   0  0  0  0  0  0  0  0  0  0  0  0
    0.1116    2.9536    2.5289 H   0  0  0  0  0  0  0  0  0  0  0  0
   -1.7825    4.4321    3.2119 H   0  0  0  0  0  0  0  0  0  0  0  0
   -3.0865    5.6660    1.5242 H   0  0  0  0  0  0  0  0  0  0  0  0
   -3.2921    7.2212   -0.1903 H   0  0  0  0  0  0  0  0  0  0  0  0
   -4.4704    5.8946   -0.3451 H   0  0  0  0  0  0  0  0  0  0  0  0
   -6.2178    7.1764   -1.4326 H   0  0  0  0  0  0  0  0  0  0  0  0
   -7.0796    8.2764   -3.5089 H   0  0  0  0  0  0  0  0  0  0  0  0
   -3.1528    8.1096   -5.2439 H   0  0  0  0  0  0  0  0  0  0  0  0
   -2.2728    7.0152   -3.1623 H   0  0  0  0  0  0  0  0  0  0  0  0
   -0.6295    3.9687   -1.6025 H   0  0  0  0  0  0  0  0  0  0  0  0
    1.6754    0.4485   -1.4718 H   0  0  0  0  0  0  0  0  0  0  0  0
    0.5807   -0.4431   -3.2840 H   0  0  0  0  0  0  0  0  0  0  0  0
   -0.2231   -2.3720   -4.5463 H   0  0  0  0  0  0  0  0  0  0  0  0
    0.2099   -4.0916   -5.7776 H   0  0  0  0  0  0  0  0  0  0  0  0
   -1.4470   -4.4209   -5.1987 H   0  0  0  0  0  0  0  0  0  0  0  0
    0.6569   -6.4397   -6.1788 H   0  0  0  0  0  0  0  0  0  0  0  0
   -0.9034   -6.0250   -6.9572 H   0  0  0  0  0  0  0  0  0  0  0  0
    0.5575   -7.7170   -4.1216 H   0  0  0  0  0  0  0  0  0  0  0  0
   -1.0715   -8.1624   -3.5184 H   0  0  0  0  0  0  0  0  0  0  0  0
   -0.0047   -6.2871   -2.2212 H   0  0  0  0  0  0  0  0  0  0  0  0
   -1.5705   -5.8370   -2.9392 H   0  0  0  0  0  0  0  0  0  0  0  0
    1.4473   -5.0005   -1.5435 H   0  0  0  0  0  0  0  0  0  0  0  0
    2.2041   -3.0461   -0.2629 H   0  0  0  0  0  0  0  0  0  0  0  0
  1  2  2  0
  2  3  1  0
  2 22  1  0
  3  4  1  0
  3 35  1  0
  3 36  1  0
  4  5  1  0
  5  6  2  0
  5  7  1  0
  7  8  2  0
  7 21  1  0
  8  9  1  0
  8 37  1  0
  9 10  2  0
  9 38  1  0
 10 11  1  0
 10 39  1  0
 11 12  1  0
 11 21  2  0
 12 13  1  0
 13 14  1  0
 13 40  1  0
 13 41  1  0
 14 15  2  0
 14 20  1  0
 15 16  1  0
 15 42  1  0
 16 17  2  0
 16 43  1  0
 17 18  1  0
 17 19  1  0
 19 20  2  0
 19 44  1  0
 20 45  1  0
 21 46  1  0
 22 23  1  0
 22 47  1  0
 23 24  2  0
 23 34  1  0
 24 25  1  0
 24 48  1  0
 25 26  2  0
 25 49  1  0
 26 27  1  0
 26 33  1  0
 27 28  1  0
 27 32  1  0
 28 29  1  0
 28 50  1  0
 28 51  1  0
 29 30  1  0
 29 52  1  0
 29 53  1  0
 30 31  1  0
 31 32  1  0
 31 54  1  0
 31 55  1  0
 32 56  1  0
 32 57  1  0
 33 34  2  0
 33 58  1  0
 34 59  1  0
M  END

