
     RDKit          3D

 40 40  0  0  0  0  0  0  0  0999 V2000
    0.7309    1.7591    1.1088 C   0  0  0  0  0  0  0  0  0  0  0  0
    2.1245    2.3503    1.1718 C   0  0  0  0  0  0  0  0  0  0  0  0
    3.0641    1.2980    0.9577 O   0  0  0  0  0  0  0  0  0  0  0  0
    4.3920    1.5230    0.9586 C   0  0  0  0  0  0  0  0  0  0  0  0
    4.9499    2.8179    1.1617 C   0  0  0  0  0  0  0  0  0  0  0  0
    6.3676    2.9484    1.1493 C   0  0  0  0  0  0  0  0  0  0  0  0
    7.1997    1.8059    0.9341 C   0  0  0  0  0  0  0  0  0  0  0  0
    8.7035    2.0157    0.9676 C   0  0  1  0  0  0  0  0  0  0  0  0
    9.1131    2.3572    2.4231 C   0  0  0  0  0  0  0  0  0  0  0  0
    9.5386    0.8002    0.5103 C   0  0  0  0  0  0  0  0  0  0  0  0
    9.1020    3.2484    0.0811 C   0  0  0  0  0  0  0  0  0  0  0  0
    9.7324    4.1819    0.5624 O   0  0  0  0  0  0  0  0  0  0  0  0
    8.8332    3.2392   -1.2675 N   0  0  0  0  0  0  0  0  0  0  0  0
    7.9454    2.3698   -2.0138 C   0  0  0  0  0  0  0  0  0  0  0  0
    9.3025    4.3342   -2.0213 N   0  0  0  0  0  0  0  0  0  0  0  0
    6.6158    0.5281    0.7250 C   0  0  0  0  0  0  0  0  0  0  0  0
    5.1917    0.3543    0.7438 C   0  0  0  0  0  0  0  0  0  0  0  0
    4.5531   -0.9843    0.5452 C   0  0  0  0  0  0  0  0  0  0  0  0
   -0.0192    2.5485    1.2713 H   0  0  0  0  0  0  0  0  0  0  0  0
    0.5968    0.9879    1.8825 H   0  0  0  0  0  0  0  0  0  0  0  0
    0.5440    1.2995    0.1263 H   0  0  0  0  0  0  0  0  0  0  0  0
    2.3212    2.8150    2.1537 H   0  0  0  0  0  0  0  0  0  0  0  0
    2.2680    3.1256    0.3989 H   0  0  0  0  0  0  0  0  0  0  0  0
    4.3190    3.6877    1.3310 H   0  0  0  0  0  0  0  0  0  0  0  0
    6.8233    3.9263    1.3102 H   0  0  0  0  0  0  0  0  0  0  0  0
    8.8603    1.5113    3.0802 H   0  0  0  0  0  0  0  0  0  0  0  0
    8.5956    3.2527    2.7882 H   0  0  0  0  0  0  0  0  0  0  0  0
   10.1944    2.5510    2.4742 H   0  0  0  0  0  0  0  0  0  0  0  0
    9.4140   -0.0389    1.2111 H   0  0  0  0  0  0  0  0  0  0  0  0
   10.6065    1.0673    0.5031 H   0  0  0  0  0  0  0  0  0  0  0  0
    9.2706    0.4446   -0.4940 H   0  0  0  0  0  0  0  0  0  0  0  0
    7.6347    1.5064   -1.4130 H   0  0  0  0  0  0  0  0  0  0  0  0
    8.4539    2.0187   -2.9253 H   0  0  0  0  0  0  0  0  0  0  0  0
    7.0335    2.9143   -2.3137 H   0  0  0  0  0  0  0  0  0  0  0  0
   10.3141    4.3935   -1.8784 H   0  0  0  0  0  0  0  0  0  0  0  0
    8.9452    5.1888   -1.5810 H   0  0  0  0  0  0  0  0  0  0  0  0
    7.2448   -0.3495    0.5839 H   0  0  0  0  0  0  0  0  0  0  0  0
    5.3182   -1.7605    0.3944 H   0  0  0  0  0  0  0  0  0  0  0  0
    3.8763   -1.0076   -0.3312 H   0  0  0  0  0  0  0  0  0  0  0  0
    3.9306   -1.2916    1.4077 H   0  0  0  0  0  0  0  0  0  0  0  0
  1  2  1  0
  1 19  1  0
  1 20  1  0
  1 21  1  0
  2  3  1  0
  2 22  1  0
  2 23  1  0
  3  4  1  0
  4  5  2  0
  4 17  1  0
  5  6  1  0
  5 24  1  0
  6  7  2  0
  6 25  1  0
  7  8  1  0
  7 16  1  0
  8  9  1  0
  8 10  1  0
  8 11  1  6
  9 26  1  0
  9 27  1  0
  9 28  1  0
 10 29  1  0
 10 30  1  0
 10 31  1  0
 11 12  2  0
 11 13  1  0
 13 14  1  0
 13 15  1  0
 14 32  1  0
 14 33  1  0
 14 34  1  0
 15 35  1  0
 15 36  1  0
 16 17  2  0
 16 37  1  0
 17 18  1  0
 18 38  1  0
 18 39  1  0
 18 40  1  0
M  END

