
     RDKit          3D

 40 42  0  0  0  0  0  0  0  0999 V2000
    0.8789   -2.4417   -2.5831 O   0  0  0  0  0  0  0  0  0  0  0  0
    1.2490   -3.4088   -3.1991 C   0  0  0  0  0  0  0  0  0  0  0  0
    0.8110   -3.6214   -4.4520 O   0  0  0  0  0  0  0  0  0  0  0  0
    2.2742   -4.4120   -2.6630 C   0  0  1  0  0  0  0  0  0  0  0  0
    3.6940   -4.0189   -3.1350 C   0  0  0  0  0  0  0  0  0  0  0  0
    4.2135   -2.7646   -2.3995 C   0  0  0  0  0  0  0  0  0  0  0  0
    4.1273   -2.9582   -0.9720 N   0  0  0  0  0  0  0  0  0  0  0  0
    5.3363   -2.9554   -0.0806 C   0  0  0  0  0  0  0  0  0  0  0  0
    6.6437   -2.9481   -0.7539 C   0  0  0  0  0  0  0  0  0  0  0  0
    7.4892   -1.8724   -1.0469 C   0  0  0  0  0  0  0  0  0  0  0  0
    8.6328   -2.2148   -1.7713 C   0  0  0  0  0  0  0  0  0  0  0  0
    8.7347   -3.5954   -2.0928 C   0  0  0  0  0  0  0  0  0  0  0  0
    9.7452   -4.2981   -2.8143 C   0  0  0  0  0  0  0  0  0  0  0  0
   10.8698   -3.6160   -3.3826 C   0  0  0  0  0  0  0  0  0  0  0  0
   11.8541   -4.2873   -4.0905 C   0  0  0  0  0  0  0  0  0  0  0  0
   11.7719   -5.6792   -4.2710 C   0  0  0  0  0  0  0  0  0  0  0  0
   13.0224   -6.5284   -5.1714 Cl  0  0  0  0  0  0  0  0  0  0  0  0
   10.6889   -6.3863   -3.7288 C   0  0  0  0  0  0  0  0  0  0  0  0
    9.7024   -5.7147   -3.0200 C   0  0  0  0  0  0  0  0  0  0  0  0
    7.3247   -4.4559   -1.4083 S   0  0  0  0  0  0  0  0  0  0  0  0
    2.8251   -3.2613   -0.4358 C   0  0  0  0  0  0  0  0  0  0  0  0
    2.2356   -4.5134   -1.1296 C   0  0  0  0  0  0  0  0  0  0  0  0
    1.1555   -4.4503   -4.8151 H   0  0  0  0  0  0  0  0  0  0  0  0
    2.0386   -5.4076   -3.0773 H   0  0  0  0  0  0  0  0  0  0  0  0
    3.7197   -3.8161   -4.2156 H   0  0  0  0  0  0  0  0  0  0  0  0
    4.3954   -4.8449   -2.9448 H   0  0  0  0  0  0  0  0  0  0  0  0
    3.5848   -1.8927   -2.6536 H   0  0  0  0  0  0  0  0  0  0  0  0
    5.2583   -2.5567   -2.6521 H   0  0  0  0  0  0  0  0  0  0  0  0
    5.1757   -3.8257    0.5847 H   0  0  0  0  0  0  0  0  0  0  0  0
    5.1913   -2.0632    0.5570 H   0  0  0  0  0  0  0  0  0  0  0  0
    7.2736   -0.8502   -0.7221 H   0  0  0  0  0  0  0  0  0  0  0  0
    9.3999   -1.4935   -2.0513 H   0  0  0  0  0  0  0  0  0  0  0  0
   10.9613   -2.5349   -3.2612 H   0  0  0  0  0  0  0  0  0  0  0  0
   12.6991   -3.7392   -4.5127 H   0  0  0  0  0  0  0  0  0  0  0  0
   10.6294   -7.4682   -3.8659 H   0  0  0  0  0  0  0  0  0  0  0  0
    8.8739   -6.2934   -2.6033 H   0  0  0  0  0  0  0  0  0  0  0  0
    2.1526   -2.4114   -0.6427 H   0  0  0  0  0  0  0  0  0  0  0  0
    2.9090   -3.4119    0.6486 H   0  0  0  0  0  0  0  0  0  0  0  0
    1.2070   -4.6474   -0.7659 H   0  0  0  0  0  0  0  0  0  0  0  0
    2.8136   -5.3977   -0.8190 H   0  0  0  0  0  0  0  0  0  0  0  0
  1  2  2  0
  2  3  1  0
  2  4  1  0
  3 23  1  0
  4  5  1  0
  4 22  1  0
  4 24  1  1
  5  6  1  0
  5 25  1  0
  5 26  1  0
  6  7  1  0
  6 27  1  0
  6 28  1  0
  7  8  1  0
  7 21  1  0
  8  9  1  0
  8 29  1  0
  8 30  1  0
  9 10  2  0
  9 20  1  0
 10 11  1  0
 10 31  1  0
 11 12  2  0
 11 32  1  0
 12 13  1  0
 12 20  1  0
 13 14  2  0
 13 19  1  0
 14 15  1  0
 14 33  1  0
 15 16  2  0
 15 34  1  0
 16 17  1  0
 16 18  1  0
 18 19  2  0
 18 35  1  0
 19 36  1  0
 21 22  1  0
 21 37  1  0
 21 38  1  0
 22 39  1  0
 22 40  1  0
M  END

