
     RDKit          3D

 41 42  0  0  0  0  0  0  0  0999 V2000
   -0.2568   -0.1760   -2.2927 C   0  0  0  0  0  0  0  0  0  0  0  0
    0.2355   -0.6218   -0.9138 C   0  0  1  0  0  0  0  0  0  0  0  0
    0.8660   -2.0258   -0.9136 C   0  0  0  0  0  0  0  0  0  0  0  0
    2.2218   -2.1296   -1.4127 N   0  0  0  0  0  0  0  0  0  0  0  0
    2.6031   -3.3483   -2.1190 C   0  0  0  0  0  0  0  0  0  0  0  0
    2.4394   -3.2213   -3.6619 C   0  0  1  0  0  0  0  0  0  0  0  0
    2.7905   -4.5955   -4.2643 C   0  0  0  0  0  0  0  0  0  0  0  0
    1.0402   -2.9906   -3.8410 O   0  0  0  0  0  0  0  0  0  0  0  0
    3.3096   -2.0998   -4.2233 C   0  0  0  0  0  0  0  0  0  0  0  0
    4.7579   -2.1796   -4.0480 C   0  0  0  0  0  0  0  0  0  0  0  0
    5.5490   -1.1182   -4.5923 C   0  0  0  0  0  0  0  0  0  0  0  0
    4.9839   -0.0058   -5.1780 C   0  0  0  0  0  0  0  0  0  0  0  0
    3.5484    0.1094   -5.2858 C   0  0  0  0  0  0  0  0  0  0  0  0
    2.7604   -0.9714   -4.8135 C   0  0  0  0  0  0  0  0  0  0  0  0
    3.2541   -1.1570   -1.1076 C   0  0  0  0  0  0  0  0  0  0  0  0
    2.8171    0.3101   -1.1608 C   0  0  2  0  0  0  0  0  0  0  0  0
    3.9587    1.2189   -0.7126 C   0  0  0  0  0  0  0  0  0  0  0  0
    1.3443    0.5953   -0.1001 S   0  0  0  0  0  0  0  0  0  0  0  0
   -0.9682   -0.9103   -2.7030 H   0  0  0  0  0  0  0  0  0  0  0  0
    0.5670   -0.0827   -3.0128 H   0  0  0  0  0  0  0  0  0  0  0  0
   -0.7626    0.7964   -2.2117 H   0  0  0  0  0  0  0  0  0  0  0  0
   -0.6260   -0.6839   -0.2305 H   0  0  0  0  0  0  0  0  0  0  0  0
    0.2569   -2.7205   -1.5071 H   0  0  0  0  0  0  0  0  0  0  0  0
    0.8955   -2.4026    0.1295 H   0  0  0  0  0  0  0  0  0  0  0  0
    1.9716   -4.1658   -1.7425 H   0  0  0  0  0  0  0  0  0  0  0  0
    3.6544   -3.5549   -1.8890 H   0  0  0  0  0  0  0  0  0  0  0  0
    2.1437   -5.3860   -3.8505 H   0  0  0  0  0  0  0  0  0  0  0  0
    3.8440   -4.8630   -4.1033 H   0  0  0  0  0  0  0  0  0  0  0  0
    2.6275   -4.5435   -5.3510 H   0  0  0  0  0  0  0  0  0  0  0  0
    0.9310   -2.6623   -4.7450 H   0  0  0  0  0  0  0  0  0  0  0  0
    5.2437   -3.1156   -3.7631 H   0  0  0  0  0  0  0  0  0  0  0  0
    6.6406   -1.1978   -4.5388 H   0  0  0  0  0  0  0  0  0  0  0  0
    5.6249    0.7890   -5.5705 H   0  0  0  0  0  0  0  0  0  0  0  0
    3.0834    0.9584   -5.7875 H   0  0  0  0  0  0  0  0  0  0  0  0
    1.6732   -0.8852   -4.9179 H   0  0  0  0  0  0  0  0  0  0  0  0
    4.0826   -1.3403   -1.8090 H   0  0  0  0  0  0  0  0  0  0  0  0
    3.6039   -1.3916   -0.0805 H   0  0  0  0  0  0  0  0  0  0  0  0
    2.5584    0.5521   -2.2011 H   0  0  0  0  0  0  0  0  0  0  0  0
    4.2521    1.0196    0.3312 H   0  0  0  0  0  0  0  0  0  0  0  0
    3.6615    2.2748   -0.7904 H   0  0  0  0  0  0  0  0  0  0  0  0
    4.8338    1.0649   -1.3617 H   0  0  0  0  0  0  0  0  0  0  0  0
  1  2  1  0
  1 19  1  0
  1 20  1  0
  1 21  1  0
  2  3  1  0
  2 18  1  0
  2 22  1  1
  3  4  1  0
  3 23  1  0
  3 24  1  0
  4  5  1  0
  4 15  1  0
  5  6  1  0
  5 25  1  0
  5 26  1  0
  6  7  1  0
  6  8  1  1
  6  9  1  0
  7 27  1  0
  7 28  1  0
  7 29  1  0
  8 30  1  0
  9 10  2  0
  9 14  1  0
 10 11  1  0
 10 31  1  0
 11 12  2  0
 11 32  1  0
 12 13  1  0
 12 33  1  0
 13 14  2  0
 13 34  1  0
 14 35  1  0
 15 16  1  0
 15 36  1  0
 15 37  1  0
 16 17  1  0
 16 18  1  0
 16 38  1  6
 17 39  1  0
 17 40  1  0
 17 41  1  0
M  END

