
     RDKit          3D

 58 61  0  0  0  0  0  0  0  0999 V2000
    1.1748    0.7848   -0.0709 C   0  0  0  0  0  0  0  0  0  0  0  0
    2.6549    0.6367   -0.3229 C   0  0  0  0  0  0  0  0  0  0  0  0
    3.1938    0.7859   -1.6101 C   0  0  0  0  0  0  0  0  0  0  0  0
    4.5604    0.6220   -1.8478 C   0  0  0  0  0  0  0  0  0  0  0  0
    5.4173    0.3101   -0.7873 C   0  0  0  0  0  0  0  0  0  0  0  0
    6.8215    0.1576   -1.0214 N   0  0  0  0  0  0  0  0  0  0  0  0
    7.7149    1.1859   -1.2393 C   0  0  0  0  0  0  0  0  0  0  0  0
    7.1944    2.8644   -1.3519 S   0  0  0  0  0  0  0  0  0  0  0  0
    8.8492    3.6910   -1.5567 C   0  0  1  0  0  0  0  0  0  0  0  0
    9.4509    3.4971   -2.9495 C   0  0  0  0  0  0  0  0  0  0  0  0
    8.6823    5.1718   -1.1777 C   0  0  0  0  0  0  0  0  0  0  0  0
    9.4054    5.6946   -0.3541 O   0  0  0  0  0  0  0  0  0  0  0  0
    7.7027    5.8411   -1.8760 N   0  0  0  0  0  0  0  0  0  0  0  0
    7.3122    7.1983   -1.6687 C   0  0  0  0  0  0  0  0  0  0  0  0
    8.2303    8.2495   -1.8815 C   0  0  0  0  0  0  0  0  0  0  0  0
    9.6422    7.9909   -2.3367 C   0  0  0  0  0  0  0  0  0  0  0  0
    7.7842    9.5633   -1.6716 C   0  0  0  0  0  0  0  0  0  0  0  0
    6.4715    9.8321   -1.2873 C   0  0  0  0  0  0  0  0  0  0  0  0
    5.5722    8.7808   -1.1047 C   0  0  0  0  0  0  0  0  0  0  0  0
    5.9756    7.4523   -1.2862 C   0  0  0  0  0  0  0  0  0  0  0  0
    5.0034    6.3174   -1.0723 C   0  0  0  0  0  0  0  0  0  0  0  0
    8.9410    0.7281   -1.3030 N   0  0  0  0  0  0  0  0  0  0  0  0
    8.8837   -0.6230   -1.1240 N   0  0  0  0  0  0  0  0  0  0  0  0
    7.6288   -0.9765   -0.9531 C   0  0  0  0  0  0  0  0  0  0  0  0
    7.1974   -2.3661   -0.7295 C   0  0  0  0  0  0  0  0  0  0  0  0
    8.1528   -3.2740   -0.2299 C   0  0  0  0  0  0  0  0  0  0  0  0
    7.8196   -4.6114   -0.0244 C   0  0  0  0  0  0  0  0  0  0  0  0
    6.5292   -5.0704   -0.3129 C   0  0  0  0  0  0  0  0  0  0  0  0
    5.5783   -4.1801   -0.8174 C   0  0  0  0  0  0  0  0  0  0  0  0
    5.9061   -2.8382   -1.0280 C   0  0  0  0  0  0  0  0  0  0  0  0
    4.9022    0.1702    0.5071 C   0  0  0  0  0  0  0  0  0  0  0  0
    3.5350    0.3276    0.7289 C   0  0  0  0  0  0  0  0  0  0  0  0
    0.6670    1.2765   -0.9136 H   0  0  0  0  0  0  0  0  0  0  0  0
    0.9789    1.3746    0.8385 H   0  0  0  0  0  0  0  0  0  0  0  0
    0.6985   -0.2001    0.0746 H   0  0  0  0  0  0  0  0  0  0  0  0
    2.5330    1.0321   -2.4456 H   0  0  0  0  0  0  0  0  0  0  0  0
    4.9665    0.7343   -2.8552 H   0  0  0  0  0  0  0  0  0  0  0  0
    9.5064    3.2539   -0.7955 H   0  0  0  0  0  0  0  0  0  0  0  0
    8.7862    3.8744   -3.7416 H   0  0  0  0  0  0  0  0  0  0  0  0
    9.6542    2.4318   -3.1224 H   0  0  0  0  0  0  0  0  0  0  0  0
   10.4067    4.0433   -3.0092 H   0  0  0  0  0  0  0  0  0  0  0  0
    7.0816    5.2736   -2.4453 H   0  0  0  0  0  0  0  0  0  0  0  0
    9.6689    7.2401   -3.1428 H   0  0  0  0  0  0  0  0  0  0  0  0
   10.2495    7.5897   -1.5104 H   0  0  0  0  0  0  0  0  0  0  0  0
   10.1108    8.9138   -2.7077 H   0  0  0  0  0  0  0  0  0  0  0  0
    8.4844   10.3883   -1.8285 H   0  0  0  0  0  0  0  0  0  0  0  0
    6.1459   10.8642   -1.1347 H   0  0  0  0  0  0  0  0  0  0  0  0
    4.5413    8.9882   -0.8053 H   0  0  0  0  0  0  0  0  0  0  0  0
    4.0529    6.6882   -0.6630 H   0  0  0  0  0  0  0  0  0  0  0  0
    5.4049    5.5614   -0.3783 H   0  0  0  0  0  0  0  0  0  0  0  0
    4.7664    5.7890   -2.0136 H   0  0  0  0  0  0  0  0  0  0  0  0
    9.1569   -2.9063   -0.0136 H   0  0  0  0  0  0  0  0  0  0  0  0
    8.5720   -5.3014    0.3661 H   0  0  0  0  0  0  0  0  0  0  0  0
    6.2681   -6.1189   -0.1485 H   0  0  0  0  0  0  0  0  0  0  0  0
    4.5715   -4.5315   -1.0573 H   0  0  0  0  0  0  0  0  0  0  0  0
    5.1541   -2.1667   -1.4419 H   0  0  0  0  0  0  0  0  0  0  0  0
    5.5777   -0.0620    1.3329 H   0  0  0  0  0  0  0  0  0  0  0  0
    3.1435    0.2147    1.7437 H   0  0  0  0  0  0  0  0  0  0  0  0
  1  2  1  0
  1 33  1  0
  1 34  1  0
  1 35  1  0
  2  3  2  0
  2 32  1  0
  3  4  1  0
  3 36  1  0
  4  5  2  0
  4 37  1  0
  5  6  1  0
  5 31  1  0
  6  7  1  0
  6 24  1  0
  7  8  1  0
  7 22  2  0
  8  9  1  0
  9 10  1  0
  9 11  1  0
  9 38  1  1
 10 39  1  0
 10 40  1  0
 10 41  1  0
 11 12  2  0
 11 13  1  0
 13 14  1  0
 13 42  1  0
 14 15  2  0
 14 20  1  0
 15 16  1  0
 15 17  1  0
 16 43  1  0
 16 44  1  0
 16 45  1  0
 17 18  2  0
 17 46  1  0
 18 19  1  0
 18 47  1  0
 19 20  2  0
 19 48  1  0
 20 21  1  0
 21 49  1  0
 21 50  1  0
 21 51  1  0
 22 23  1  0
 23 24  2  0
 24 25  1  0
 25 26  2  0
 25 30  1  0
 26 27  1  0
 26 52  1  0
 27 28  2  0
 27 53  1  0
 28 29  1  0
 28 54  1  0
 29 30  2  0
 29 55  1  0
 30 56  1  0
 31 32  2  0
 31 57  1  0
 32 58  1  0
M  END

