
     RDKit          3D

 37 38  0  0  0  0  0  0  0  0999 V2000
    1.6080    1.9683    0.2946 C   0  0  0  0  0  0  0  0  0  0  0  0
    1.9406    0.4814    0.1925 C   0  0  0  0  0  0  0  0  0  0  0  0
    2.3497    0.0635   -1.1478 N   0  0  0  0  0  0  0  0  0  0  0  0
    3.4665   -0.8119   -1.2895 C   0  0  0  0  0  0  0  0  0  0  0  0
    2.9679   -2.3328   -1.2616 C   0  0  0  0  0  0  0  0  0  0  0  0
    1.9979   -2.5323   -2.2857 N   0  0  0  0  0  0  0  0  0  0  0  0
    2.4306   -2.9697   -3.6112 C   0  0  0  0  0  0  0  0  0  0  0  0
    1.6107   -4.1469   -4.1583 C   0  0  0  0  0  0  0  0  0  0  0  0
    2.0118   -4.4998   -5.5836 C   0  0  1  0  0  0  0  0  0  0  0  0
    1.1528   -5.5286   -6.3637 C   0  0  0  0  0  0  0  0  0  0  0  0
    1.2533   -4.6711   -7.5571 N   0  0  0  0  0  0  0  0  0  0  0  0
    1.6619   -3.5152   -6.7346 C   0  0  0  0  0  0  0  0  0  0  0  0
    0.8663   -1.6537   -2.2000 C   0  0  0  0  0  0  0  0  0  0  0  0
    1.3324   -0.1344   -2.1405 C   0  0  0  0  0  0  0  0  0  0  0  0
    1.3670    2.2103    1.3451 H   0  0  0  0  0  0  0  0  0  0  0  0
    0.7298    2.2270   -0.3207 H   0  0  0  0  0  0  0  0  0  0  0  0
    2.4599    2.5891   -0.0227 H   0  0  0  0  0  0  0  0  0  0  0  0
    1.0495   -0.1258    0.4958 H   0  0  0  0  0  0  0  0  0  0  0  0
    2.7656    0.2344    0.8851 H   0  0  0  0  0  0  0  0  0  0  0  0
    4.1886   -0.6565   -0.4703 H   0  0  0  0  0  0  0  0  0  0  0  0
    3.9653   -0.6504   -2.2585 H   0  0  0  0  0  0  0  0  0  0  0  0
    2.5279   -2.5154   -0.2677 H   0  0  0  0  0  0  0  0  0  0  0  0
    3.8354   -2.9983   -1.4168 H   0  0  0  0  0  0  0  0  0  0  0  0
    3.4986   -3.2504   -3.5504 H   0  0  0  0  0  0  0  0  0  0  0  0
    2.3354   -2.0971   -4.3094 H   0  0  0  0  0  0  0  0  0  0  0  0
    0.5397   -3.8778   -4.1371 H   0  0  0  0  0  0  0  0  0  0  0  0
    1.7418   -5.0184   -3.4924 H   0  0  0  0  0  0  0  0  0  0  0  0
    3.0772   -4.7794   -5.6248 H   0  0  0  0  0  0  0  0  0  0  0  0
    0.1328   -5.6145   -5.9360 H   0  0  0  0  0  0  0  0  0  0  0  0
    1.5628   -6.5483   -6.4812 H   0  0  0  0  0  0  0  0  0  0  0  0
    0.3997   -4.5557   -8.1011 H   0  0  0  0  0  0  0  0  0  0  0  0
    0.8438   -2.8251   -6.4379 H   0  0  0  0  0  0  0  0  0  0  0  0
    2.4845   -2.9045   -7.1515 H   0  0  0  0  0  0  0  0  0  0  0  0
    0.2841   -1.8536   -1.2794 H   0  0  0  0  0  0  0  0  0  0  0  0
    0.2310   -1.7573   -3.1063 H   0  0  0  0  0  0  0  0  0  0  0  0
    0.4404    0.4775   -1.9075 H   0  0  0  0  0  0  0  0  0  0  0  0
    1.7143    0.1172   -3.1503 H   0  0  0  0  0  0  0  0  0  0  0  0
  1  2  1  0
  1 15  1  0
  1 16  1  0
  1 17  1  0
  2  3  1  0
  2 18  1  0
  2 19  1  0
  3  4  1  0
  3 14  1  0
  4  5  1  0
  4 20  1  0
  4 21  1  0
  5  6  1  0
  5 22  1  0
  5 23  1  0
  6  7  1  0
  6 13  1  0
  7  8  1  0
  7 24  1  0
  7 25  1  0
  8  9  1  0
  8 26  1  0
  8 27  1  0
  9 10  1  0
  9 12  1  0
  9 28  1  6
 10 11  1  0
 10 29  1  0
 10 30  1  0
 11 12  1  0
 11 31  1  0
 12 32  1  0
 12 33  1  0
 13 14  1  0
 13 34  1  0
 13 35  1  0
 14 36  1  0
 14 37  1  0
M  END

