
     RDKit          3D

 47 49  0  0  0  0  0  0  0  0999 V2000
    5.3605   -2.7502   -8.1444 O   0  0  0  0  0  0  0  0  0  0  0  0
    4.6606   -2.4277   -7.1923 C   0  0  0  0  0  0  0  0  0  0  0  0
    3.6488   -1.5069   -7.4125 O   0  0  0  0  0  0  0  0  0  0  0  0
    4.8019   -2.9398   -5.8429 C   0  0  0  0  0  0  0  0  0  0  0  0
    4.0450   -2.5004   -4.6980 C   0  0  0  0  0  0  0  0  0  0  0  0
    4.2100   -3.0864   -3.4560 C   0  0  0  0  0  0  0  0  0  0  0  0
    5.1472   -4.1335   -3.2461 C   0  0  0  0  0  0  0  0  0  0  0  0
    5.2390   -4.8257   -1.9218 C   0  0  0  0  0  0  0  0  0  0  0  0
    4.5791   -6.1338   -1.8843 N   0  0  0  0  0  0  0  0  0  0  0  0
    4.3172   -6.9107   -0.7060 C   0  0  0  0  0  0  0  0  0  0  0  0
    4.0523   -8.3704   -1.0149 C   0  0  0  0  0  0  0  0  0  0  0  0
    5.1540   -9.2233   -1.1779 C   0  0  0  0  0  0  0  0  0  0  0  0
    4.9834  -10.5731   -1.4917 C   0  0  0  0  0  0  0  0  0  0  0  0
    3.6940  -11.0837   -1.6431 C   0  0  0  0  0  0  0  0  0  0  0  0
    2.5910  -10.2416   -1.4803 C   0  0  0  0  0  0  0  0  0  0  0  0
    2.7426   -8.8827   -1.1687 C   0  0  0  0  0  0  0  0  0  0  0  0
    1.5014   -8.0212   -0.9839 C   0  0  0  0  0  0  0  0  0  0  0  0
    1.2883   -7.0091   -2.0075 N   0  0  0  0  0  0  0  0  0  0  0  0
    0.6453   -7.3124   -3.2861 C   0  0  0  0  0  0  0  0  0  0  0  0
    0.6851   -5.9634   -4.0296 C   0  0  0  0  0  0  0  0  0  0  0  0
    0.7216   -4.9174   -2.9053 C   0  0  0  0  0  0  0  0  0  0  0  0
    1.3088   -5.6635   -1.7173 C   0  0  0  0  0  0  0  0  0  0  0  0
    1.7391   -5.1900   -0.6753 O   0  0  0  0  0  0  0  0  0  0  0  0
    5.9572   -4.5262   -4.3604 C   0  0  0  0  0  0  0  0  0  0  0  0
    5.7945   -3.9528   -5.5995 C   0  0  0  0  0  0  0  0  0  0  0  0
    3.1074   -1.4379   -6.6170 H   0  0  0  0  0  0  0  0  0  0  0  0
    3.3496   -1.6581   -4.7756 H   0  0  0  0  0  0  0  0  0  0  0  0
    3.6229   -2.7111   -2.6105 H   0  0  0  0  0  0  0  0  0  0  0  0
    4.7894   -4.2479   -1.0939 H   0  0  0  0  0  0  0  0  0  0  0  0
    6.2778   -5.0390   -1.5993 H   0  0  0  0  0  0  0  0  0  0  0  0
    4.1532   -6.4468   -2.7575 H   0  0  0  0  0  0  0  0  0  0  0  0
    3.4445   -6.4057   -0.2308 H   0  0  0  0  0  0  0  0  0  0  0  0
    5.1621   -6.7762   -0.0114 H   0  0  0  0  0  0  0  0  0  0  0  0
    6.1646   -8.8249   -1.0491 H   0  0  0  0  0  0  0  0  0  0  0  0
    5.8547  -11.2202   -1.6136 H   0  0  0  0  0  0  0  0  0  0  0  0
    3.5432  -12.1381   -1.8859 H   0  0  0  0  0  0  0  0  0  0  0  0
    1.5827  -10.6498   -1.5913 H   0  0  0  0  0  0  0  0  0  0  0  0
    1.5394   -7.4889   -0.0207 H   0  0  0  0  0  0  0  0  0  0  0  0
    0.6178   -8.6803   -0.9524 H   0  0  0  0  0  0  0  0  0  0  0  0
   -0.3906   -7.6654   -3.1157 H   0  0  0  0  0  0  0  0  0  0  0  0
    1.1822   -8.1130   -3.8194 H   0  0  0  0  0  0  0  0  0  0  0  0
   -0.1669   -5.8441   -4.7125 H   0  0  0  0  0  0  0  0  0  0  0  0
    1.6014   -5.8926   -4.6359 H   0  0  0  0  0  0  0  0  0  0  0  0
   -0.2853   -4.5725   -2.6115 H   0  0  0  0  0  0  0  0  0  0  0  0
    1.3213   -4.0270   -3.1384 H   0  0  0  0  0  0  0  0  0  0  0  0
    6.7342   -5.2879   -4.2268 H   0  0  0  0  0  0  0  0  0  0  0  0
    6.4205   -4.2465   -6.4439 H   0  0  0  0  0  0  0  0  0  0  0  0
  1  2  2  0
  2  3  1  0
  2  4  1  0
  3 26  1  0
  4  5  2  0
  4 25  1  0
  5  6  1  0
  5 27  1  0
  6  7  2  0
  6 28  1  0
  7  8  1  0
  7 24  1  0
  8  9  1  0
  8 29  1  0
  8 30  1  0
  9 10  1  0
  9 31  1  0
 10 11  1  0
 10 32  1  0
 10 33  1  0
 11 12  2  0
 11 16  1  0
 12 13  1  0
 12 34  1  0
 13 14  2  0
 13 35  1  0
 14 15  1  0
 14 36  1  0
 15 16  2  0
 15 37  1  0
 16 17  1  0
 17 18  1  0
 17 38  1  0
 17 39  1  0
 18 19  1  0
 18 22  1  0
 19 20  1  0
 19 40  1  0
 19 41  1  0
 20 21  1  0
 20 42  1  0
 20 43  1  0
 21 22  1  0
 21 44  1  0
 21 45  1  0
 22 23  2  0
 24 25  2  0
 24 46  1  0
 25 47  1  0
M  END

