
     RDKit          3D

 92104  0  0  0  0  0  0  0  0999 V2000
   -0.7390    0.9952    0.9078 C   0  0  0  0  0  0  0  0  0  0  0  0
    0.6514    1.1011    0.8269 C   0  0  0  0  0  0  0  0  0  0  0  0
    1.4280   -0.0208    0.4856 C   0  0  0  0  0  0  0  0  0  0  0  0
    0.7621   -1.2283    0.2195 C   0  0  0  0  0  0  0  0  0  0  0  0
   -0.6336   -1.3629    0.3175 C   0  0  0  0  0  0  0  0  0  0  0  0
   -1.3799   -0.2218    0.6644 C   0  0  0  0  0  0  0  0  0  0  0  0
   -1.2746   -2.6863    0.0832 C   0  0  0  0  0  0  0  0  0  0  0  0
   -2.5817   -2.8162   -0.4201 C   0  0  0  0  0  0  0  0  0  0  0  0
   -3.1578   -4.0777   -0.5888 C   0  0  0  0  0  0  0  0  0  0  0  0
   -2.4452   -5.2389   -0.2828 C   0  0  0  0  0  0  0  0  0  0  0  0
   -1.1208   -5.1395    0.1873 C   0  0  0  0  0  0  0  0  0  0  0  0
   -0.5738   -3.8657    0.3851 C   0  0  0  0  0  0  0  0  0  0  0  0
   -0.3558   -6.3701    0.4991 C   0  0  0  0  0  0  0  0  0  0  0  0
    1.0414   -6.3639    0.5927 C   0  0  0  0  0  0  0  0  0  0  0  0
    1.7845   -7.4997    0.9579 C   0  0  0  0  0  0  0  0  0  0  0  0
    1.0661   -8.6861    1.1999 C   0  0  0  0  0  0  0  0  0  0  0  0
   -0.3222   -8.7264    1.0571 C   0  0  0  0  0  0  0  0  0  0  0  0
   -1.0411   -7.5829    0.7052 C   0  0  0  0  0  0  0  0  0  0  0  0
   -2.5617   -7.6061    0.6067 C   0  0  2  0  0  0  0  0  0  0  0  0
   -3.0321   -8.9206    0.3321 O   0  0  0  0  0  0  0  0  0  0  0  0
   -3.4005   -9.2262   -1.0090 C   0  0  0  0  0  0  0  0  0  0  0  0
   -2.5729   -8.4422   -2.0091 C   0  0  0  0  0  0  0  0  0  0  0  0
   -2.6304   -7.0398   -1.7699 O   0  0  0  0  0  0  0  0  0  0  0  0
   -3.0511   -6.6207   -0.4995 C   0  0  2  0  0  0  0  0  0  0  0  0
   -4.4726   -6.5587   -0.5023 O   0  0  0  0  0  0  0  0  0  0  0  0
   -5.1571   -6.9543    0.6815 C   0  0  0  0  0  0  0  0  0  0  0  0
   -4.3436   -6.6511    1.9247 C   0  0  0  0  0  0  0  0  0  0  0  0
   -3.0420   -7.2260    1.8679 O   0  0  0  0  0  0  0  0  0  0  0  0
    3.2690   -7.4298    1.0890 C   0  0  0  0  0  0  0  0  0  0  0  0
    4.0735   -8.5863    1.1139 C   0  0  0  0  0  0  0  0  0  0  0  0
    5.4510   -8.4887    1.2909 C   0  0  0  0  0  0  0  0  0  0  0  0
    6.0829   -7.2455    1.4177 C   0  0  0  0  0  0  0  0  0  0  0  0
    5.3167   -6.0698    1.3321 C   0  0  0  0  0  0  0  0  0  0  0  0
    3.9229   -6.1932    1.2059 C   0  0  0  0  0  0  0  0  0  0  0  0
    5.9741   -4.7407    1.3984 C   0  0  0  0  0  0  0  0  0  0  0  0
    5.2808   -3.5658    1.0547 C   0  0  0  0  0  0  0  0  0  0  0  0
    5.8586   -2.2911    1.1300 C   0  0  0  0  0  0  0  0  0  0  0  0
    7.1922   -2.2089    1.5773 C   0  0  0  0  0  0  0  0  0  0  0  0
    7.9074   -3.3612    1.8865 C   0  0  0  0  0  0  0  0  0  0  0  0
    7.3224   -4.6311    1.7830 C   0  0  0  0  0  0  0  0  0  0  0  0
    8.1843   -5.8411    2.1193 C   0  0  2  0  0  0  0  0  0  0  0  0
    9.4267   -5.6063    1.5238 O   0  0  0  0  0  0  0  0  0  0  0  0
   10.2286   -6.7667    1.3835 C   0  0  0  0  0  0  0  0  0  0  0  0
    9.5757   -7.6696    0.3370 C   0  0  0  0  0  0  0  0  0  0  0  0
    8.1525   -7.5633    0.3858 O   0  0  0  0  0  0  0  0  0  0  0  0
    7.5921   -7.2291    1.6160 C   0  0  2  0  0  0  0  0  0  0  0  0
    7.9835   -8.2499    2.5301 O   0  0  0  0  0  0  0  0  0  0  0  0
    7.5619   -8.1014    3.8790 C   0  0  0  0  0  0  0  0  0  0  0  0
    7.4597   -6.6186    4.2551 C   0  0  0  0  0  0  0  0  0  0  0  0
    8.4264   -5.8918    3.5279 O   0  0  0  0  0  0  0  0  0  0  0  0
    5.0865   -1.0831    0.7242 C   0  0  0  0  0  0  0  0  0  0  0  0
    5.7250    0.0598    0.2065 C   0  0  0  0  0  0  0  0  0  0  0  0
    4.9788    1.1709   -0.1910 C   0  0  0  0  0  0  0  0  0  0  0  0
    3.5854    1.1660   -0.1004 C   0  0  0  0  0  0  0  0  0  0  0  0
    2.9137    0.0384    0.4045 C   0  0  0  0  0  0  0  0  0  0  0  0
    3.6846   -1.0587    0.8255 C   0  0  0  0  0  0  0  0  0  0  0  0
   -1.3314    1.8696    1.1893 H   0  0  0  0  0  0  0  0  0  0  0  0
    1.1382    2.0516    1.0572 H   0  0  0  0  0  0  0  0  0  0  0  0
    1.3521   -2.0840   -0.1101 H   0  0  0  0  0  0  0  0  0  0  0  0
   -2.4644   -0.2907    0.7728 H   0  0  0  0  0  0  0  0  0  0  0  0
   -3.1529   -1.9264   -0.6937 H   0  0  0  0  0  0  0  0  0  0  0  0
   -4.1760   -4.1737   -0.9689 H   0  0  0  0  0  0  0  0  0  0  0  0
    0.4162   -3.7847    0.8323 H   0  0  0  0  0  0  0  0  0  0  0  0
    1.5674   -5.4439    0.3449 H   0  0  0  0  0  0  0  0  0  0  0  0
    1.5882   -9.5919    1.5126 H   0  0  0  0  0  0  0  0  0  0  0  0
   -0.8678   -9.6554    1.2296 H   0  0  0  0  0  0  0  0  0  0  0  0
   -4.4742   -9.0185   -1.1637 H   0  0  0  0  0  0  0  0  0  0  0  0
   -3.2364  -10.3063   -1.1503 H   0  0  0  0  0  0  0  0  0  0  0  0
   -2.9456   -8.6230   -3.0306 H   0  0  0  0  0  0  0  0  0  0  0  0
   -1.5181   -8.7683   -1.9659 H   0  0  0  0  0  0  0  0  0  0  0  0
   -6.1053   -6.3942    0.7074 H   0  0  0  0  0  0  0  0  0  0  0  0
   -5.3959   -8.0318    0.6403 H   0  0  0  0  0  0  0  0  0  0  0  0
   -4.8510   -7.0576    2.8150 H   0  0  0  0  0  0  0  0  0  0  0  0
   -4.2447   -5.5583    2.0544 H   0  0  0  0  0  0  0  0  0  0  0  0
    3.6251   -9.5734    0.9908 H   0  0  0  0  0  0  0  0  0  0  0  0
    6.0639   -9.3909    1.3314 H   0  0  0  0  0  0  0  0  0  0  0  0
    3.3232   -5.2865    1.2317 H   0  0  0  0  0  0  0  0  0  0  0  0
    4.2667   -3.6503    0.6680 H   0  0  0  0  0  0  0  0  0  0  0  0
    7.6739   -1.2352    1.6875 H   0  0  0  0  0  0  0  0  0  0  0  0
    8.9462   -3.2901    2.2109 H   0  0  0  0  0  0  0  0  0  0  0  0
   10.3353   -7.2780    2.3526 H   0  0  0  0  0  0  0  0  0  0  0  0
   11.2217   -6.4317    1.0505 H   0  0  0  0  0  0  0  0  0  0  0  0
    9.8854   -8.7203    0.4768 H   0  0  0  0  0  0  0  0  0  0  0  0
    9.8555   -7.3540   -0.6797 H   0  0  0  0  0  0  0  0  0  0  0  0
    6.5967   -8.6151    4.0512 H   0  0  0  0  0  0  0  0  0  0  0  0
    8.3304   -8.6050    4.4863 H   0  0  0  0  0  0  0  0  0  0  0  0
    7.6769   -6.4719    5.3237 H   0  0  0  0  0  0  0  0  0  0  0  0
    6.4438   -6.2230    4.0690 H   0  0  0  0  0  0  0  0  0  0  0  0
    6.8102    0.0720    0.0871 H   0  0  0  0  0  0  0  0  0  0  0  0
    5.4907    2.0452   -0.6016 H   0  0  0  0  0  0  0  0  0  0  0  0
    3.0145    2.0284   -0.4519 H   0  0  0  0  0  0  0  0  0  0  0  0
    3.1729   -1.9091    1.2777 H   0  0  0  0  0  0  0  0  0  0  0  0
  1  2  2  0
  1  6  1  0
  1 57  1  0
  2  3  1  0
  2 58  1  0
  3  4  2  0
  3 55  1  0
  4  5  1  0
  4 59  1  0
  5  6  2  0
  5  7  1  0
  6 60  1  0
  7  8  2  0
  7 12  1  0
  8  9  1  0
  8 61  1  0
  9 10  2  0
  9 62  1  0
 10 11  1  0
 10 24  1  0
 11 12  2  0
 11 13  1  0
 12 63  1  0
 13 14  2  0
 13 18  1  0
 14 15  1  0
 14 64  1  0
 15 16  2  0
 15 29  1  0
 16 17  1  0
 16 65  1  0
 17 18  2  0
 17 66  1  0
 18 19  1  0
 19 20  1  6
 19 24  1  0
 19 28  1  0
 20 21  1  0
 21 22  1  0
 21 67  1  0
 21 68  1  0
 22 23  1  0
 22 69  1  0
 22 70  1  0
 24 23  1  6
 24 25  1  0
 25 26  1  0
 26 27  1  0
 26 71  1  0
 26 72  1  0
 27 28  1  0
 27 73  1  0
 27 74  1  0
 29 30  1  0
 29 34  2  0
 30 31  2  0
 30 75  1  0
 31 32  1  0
 31 76  1  0
 32 33  2  0
 32 46  1  0
 33 34  1  0
 33 35  1  0
 34 77  1  0
 35 36  1  0
 35 40  2  0
 36 37  2  0
 36 78  1  0
 37 38  1  0
 37 51  1  0
 38 39  2  0
 38 79  1  0
 39 40  1  0
 39 80  1  0
 40 41  1  0
 41 42  1  6
 41 46  1  0
 41 50  1  0
 42 43  1  0
 43 44  1  0
 43 81  1  0
 43 82  1  0
 44 45  1  0
 44 83  1  0
 44 84  1  0
 46 45  1  6
 46 47  1  0
 47 48  1  0
 48 49  1  0
 48 85  1  0
 48 86  1  0
 49 50  1  0
 49 87  1  0
 49 88  1  0
 51 52  1  0
 51 56  2  0
 52 53  2  0
 52 89  1  0
 53 54  1  0
 53 90  1  0
 54 55  2  0
 54 91  1  0
 55 56  1  0
 56 92  1  0
M  END

