
     RDKit          3D

 35 36  0  0  0  0  0  0  0  0999 V2000
    2.8005   -0.7516   -2.6471 O   0  0  0  0  0  0  0  0  0  0  0  0
    3.0906   -0.3669   -1.5256 C   0  0  0  0  0  0  0  0  0  0  0  0
    2.7376    0.8734   -1.0407 N   0  0  0  0  0  0  0  0  0  0  0  0
    2.0945    1.8589   -1.9031 C   0  0  0  0  0  0  0  0  0  0  0  0
    3.0603    2.7898   -2.6139 C   0  0  0  0  0  0  0  0  0  0  0  0
    3.2528    4.1046   -2.1717 C   0  0  0  0  0  0  0  0  0  0  0  0
    4.1648    4.9484   -2.8149 C   0  0  0  0  0  0  0  0  0  0  0  0
    4.8775    4.4586   -3.9017 C   0  0  0  0  0  0  0  0  0  0  0  0
    5.7554    5.2658   -4.5285 F   0  0  0  0  0  0  0  0  0  0  0  0
    4.7161    3.1521   -4.3804 C   0  0  0  0  0  0  0  0  0  0  0  0
    5.5042    2.6724   -5.5859 C   0  0  0  0  0  0  0  0  0  0  0  0
    5.4243    1.2858   -5.8051 O   0  0  0  0  0  0  0  0  0  0  0  0
    3.7949    2.3325   -3.7225 C   0  0  0  0  0  0  0  0  0  0  0  0
    3.7862   -1.1365   -0.6003 N   0  0  0  0  0  0  0  0  0  0  0  0
    4.2911   -2.4292   -0.7695 C   0  0  0  0  0  0  0  0  0  0  0  0
    4.2001   -3.1990   -1.9439 C   0  0  0  0  0  0  0  0  0  0  0  0
    4.7563   -4.4800   -1.9777 C   0  0  0  0  0  0  0  0  0  0  0  0
    5.4060   -5.0306   -0.8697 C   0  0  0  0  0  0  0  0  0  0  0  0
    5.4933   -4.2694    0.2924 C   0  0  0  0  0  0  0  0  0  0  0  0
    6.1025   -4.7479    1.3819 F   0  0  0  0  0  0  0  0  0  0  0  0
    4.9462   -2.9905    0.3413 C   0  0  0  0  0  0  0  0  0  0  0  0
    5.0378   -2.2631    1.4739 F   0  0  0  0  0  0  0  0  0  0  0  0
    3.2122    1.2261   -0.2172 H   0  0  0  0  0  0  0  0  0  0  0  0
    1.3903    2.4450   -1.2915 H   0  0  0  0  0  0  0  0  0  0  0  0
    1.5080    1.2897   -2.6370 H   0  0  0  0  0  0  0  0  0  0  0  0
    2.6824    4.4841   -1.3188 H   0  0  0  0  0  0  0  0  0  0  0  0
    4.3284    5.9774   -2.4886 H   0  0  0  0  0  0  0  0  0  0  0  0
    6.5509    3.0249   -5.4983 H   0  0  0  0  0  0  0  0  0  0  0  0
    5.1019    3.1516   -6.4953 H   0  0  0  0  0  0  0  0  0  0  0  0
    5.8323    0.8330   -5.0546 H   0  0  0  0  0  0  0  0  0  0  0  0
    3.6478    1.3128   -4.0854 H   0  0  0  0  0  0  0  0  0  0  0  0
    3.9089   -0.7614    0.3331 H   0  0  0  0  0  0  0  0  0  0  0  0
    3.6885   -2.7777   -2.8054 H   0  0  0  0  0  0  0  0  0  0  0  0
    4.6770   -5.0657   -2.8964 H   0  0  0  0  0  0  0  0  0  0  0  0
    5.8425   -6.0305   -0.8835 H   0  0  0  0  0  0  0  0  0  0  0  0
  1  2  2  0
  2  3  1  0
  2 14  1  0
  3  4  1  0
  3 23  1  0
  4  5  1  0
  4 24  1  0
  4 25  1  0
  5  6  2  0
  5 13  1  0
  6  7  1  0
  6 26  1  0
  7  8  2  0
  7 27  1  0
  8  9  1  0
  8 10  1  0
 10 11  1  0
 10 13  2  0
 11 12  1  0
 11 28  1  0
 11 29  1  0
 12 30  1  0
 13 31  1  0
 14 15  1  0
 14 32  1  0
 15 16  2  0
 15 21  1  0
 16 17  1  0
 16 33  1  0
 17 18  2  0
 17 34  1  0
 18 19  1  0
 18 35  1  0
 19 20  1  0
 19 21  2  0
 21 22  1  0
M  END

