
     RDKit          3D

 62 66  0  0  0  0  0  0  0  0999 V2000
    1.5169    0.7285    0.2034 C   0  0  0  0  0  0  0  0  0  0  0  0
    2.1098   -0.5962    0.2280 N   0  0  0  0  0  0  0  0  0  0  0  0
    1.4505   -1.5937   -0.5993 C   0  0  0  0  0  0  0  0  0  0  0  0
    1.7920   -1.5031   -2.0969 C   0  0  0  0  0  0  0  0  0  0  0  0
    3.2381   -1.5018   -2.2987 N   0  0  0  0  0  0  0  0  0  0  0  0
    3.7682   -1.8930   -3.5270 C   0  0  0  0  0  0  0  0  0  0  0  0
    2.9427   -2.2225   -4.6310 C   0  0  0  0  0  0  0  0  0  0  0  0
    3.4858   -2.6565   -5.8350 C   0  0  0  0  0  0  0  0  0  0  0  0
    4.8722   -2.7640   -6.0211 C   0  0  0  0  0  0  0  0  0  0  0  0
    5.3622   -3.2442   -7.3495 C   0  0  0  0  0  0  0  0  0  0  0  0
    4.6184   -3.7736   -8.1630 O   0  0  0  0  0  0  0  0  0  0  0  0
    6.7057   -3.0532   -7.5968 N   0  0  0  0  0  0  0  0  0  0  0  0
    7.3897   -3.3836   -8.7718 C   0  0  0  0  0  0  0  0  0  0  0  0
    8.4861   -2.6820   -9.0523 N   0  0  0  0  0  0  0  0  0  0  0  0
    8.9631   -3.2268  -10.1862 N   0  0  0  0  0  0  0  0  0  0  0  0
    9.8093   -2.8536  -10.5969 H   0  0  0  0  0  0  0  0  0  0  0  0
    8.1990   -4.2517  -10.6409 C   0  0  0  0  0  0  0  0  0  0  0  0
    7.1548   -4.4062   -9.7389 C   0  0  0  0  0  0  0  0  0  0  0  0
    6.1147   -5.4833   -9.9142 C   0  0  0  0  0  0  0  0  0  0  0  0
    6.5720   -6.4561  -10.9187 N   0  0  0  0  0  0  0  0  0  0  0  0
    6.8137   -8.0568  -10.4983 S   0  0  1  0  0  0  0  0  0  0  0  0
    5.7938   -8.3861   -9.5027 O   0  0  0  0  0  0  0  0  0  0  0  0
    6.9467   -8.7939  -11.7583 O   0  0  0  0  0  0  0  0  0  0  0  0
    8.4097   -8.1789   -9.6605 C   0  0  0  0  0  0  0  0  0  0  0  0
    8.4794   -7.9754   -8.2783 C   0  0  0  0  0  0  0  0  0  0  0  0
    9.7209   -8.0517   -7.6418 C   0  0  0  0  0  0  0  0  0  0  0  0
   10.8741   -8.3396   -8.3794 C   0  0  0  0  0  0  0  0  0  0  0  0
   10.7887   -8.5629   -9.7580 C   0  0  0  0  0  0  0  0  0  0  0  0
    9.5529   -8.4870  -10.4061 C   0  0  0  0  0  0  0  0  0  0  0  0
    7.1655   -5.9129  -12.1360 C   0  0  0  0  0  0  0  0  0  0  0  0
    8.4421   -5.0937  -11.8536 C   0  0  0  0  0  0  0  0  0  0  0  0
    5.6984   -2.4403   -4.9301 C   0  0  0  0  0  0  0  0  0  0  0  0
    5.1679   -2.0148   -3.7184 C   0  0  0  0  0  0  0  0  0  0  0  0
    3.9418   -0.5146   -1.4760 C   0  0  0  0  0  0  0  0  0  0  0  0
    3.5461   -0.6433    0.0018 C   0  0  0  0  0  0  0  0  0  0  0  0
    0.4548    0.6611    0.4898 H   0  0  0  0  0  0  0  0  0  0  0  0
    1.5619    1.2574   -0.7739 H   0  0  0  0  0  0  0  0  0  0  0  0
    2.0188    1.3703    0.9457 H   0  0  0  0  0  0  0  0  0  0  0  0
    0.3588   -1.5170   -0.4704 H   0  0  0  0  0  0  0  0  0  0  0  0
    1.7539   -2.5941   -0.2411 H   0  0  0  0  0  0  0  0  0  0  0  0
    1.3223   -0.6034   -2.5502 H   0  0  0  0  0  0  0  0  0  0  0  0
    1.3576   -2.3792   -2.5978 H   0  0  0  0  0  0  0  0  0  0  0  0
    1.8603   -2.1279   -4.5581 H   0  0  0  0  0  0  0  0  0  0  0  0
    2.8341   -2.9126   -6.6727 H   0  0  0  0  0  0  0  0  0  0  0  0
    7.2170   -2.4116   -7.0018 H   0  0  0  0  0  0  0  0  0  0  0  0
    5.1530   -5.0512  -10.2348 H   0  0  0  0  0  0  0  0  0  0  0  0
    5.8915   -6.0119   -8.9803 H   0  0  0  0  0  0  0  0  0  0  0  0
    7.5671   -7.7813   -7.7118 H   0  0  0  0  0  0  0  0  0  0  0  0
    9.7855   -7.8955   -6.5621 H   0  0  0  0  0  0  0  0  0  0  0  0
   11.8419   -8.4027   -7.8757 H   0  0  0  0  0  0  0  0  0  0  0  0
   11.6865   -8.8097  -10.3302 H   0  0  0  0  0  0  0  0  0  0  0  0
    9.4603   -8.6877  -11.4750 H   0  0  0  0  0  0  0  0  0  0  0  0
    6.4089   -5.2610  -12.6075 H   0  0  0  0  0  0  0  0  0  0  0  0
    7.3593   -6.7395  -12.8300 H   0  0  0  0  0  0  0  0  0  0  0  0
    8.6900   -4.4748  -12.7335 H   0  0  0  0  0  0  0  0  0  0  0  0
    9.2999   -5.7695  -11.6874 H   0  0  0  0  0  0  0  0  0  0  0  0
    6.7836   -2.5549   -4.9987 H   0  0  0  0  0  0  0  0  0  0  0  0
    5.8542   -1.8116   -2.8964 H   0  0  0  0  0  0  0  0  0  0  0  0
    3.7201    0.5105   -1.8428 H   0  0  0  0  0  0  0  0  0  0  0  0
    5.0258   -0.6518   -1.5648 H   0  0  0  0  0  0  0  0  0  0  0  0
    4.0375    0.1530    0.5842 H   0  0  0  0  0  0  0  0  0  0  0  0
    3.9252   -1.6106    0.3790 H   0  0  0  0  0  0  0  0  0  0  0  0
  1  2  1  0
  1 36  1  0
  1 37  1  0
  1 38  1  0
  2  3  1  0
  2 35  1  0
  3  4  1  0
  3 39  1  0
  3 40  1  0
  4  5  1  0
  4 41  1  0
  4 42  1  0
  5  6  1  0
  5 34  1  0
  6  7  2  0
  6 33  1  0
  7  8  1  0
  7 43  1  0
  8  9  2  0
  8 44  1  0
  9 10  1  0
  9 32  1  0
 10 11  2  0
 10 12  1  0
 12 13  1  0
 12 45  1  0
 13 14  2  0
 13 18  1  0
 14 15  1  0
 15 16  1  0
 15 17  1  0
 17 18  2  0
 17 31  1  0
 18 19  1  0
 19 20  1  0
 19 46  1  0
 19 47  1  0
 20 21  1  0
 20 30  1  0
 21 22  2  0
 21 23  2  0
 21 24  1  1
 24 25  2  0
 24 29  1  0
 25 26  1  0
 25 48  1  0
 26 27  2  0
 26 49  1  0
 27 28  1  0
 27 50  1  0
 28 29  2  0
 28 51  1  0
 29 52  1  0
 30 31  1  0
 30 53  1  0
 30 54  1  0
 31 55  1  0
 31 56  1  0
 32 33  2  0
 32 57  1  0
 33 58  1  0
 34 35  1  0
 34 59  1  0
 34 60  1  0
 35 61  1  0
 35 62  1  0
M  END

