
     RDKit          3D

 45 46  0  0  0  0  0  0  0  0999 V2000
    2.6208    0.2598    1.6595 C   0  0  0  0  0  0  0  0  0  0  0  0
    2.4088    0.0656    0.1517 C   0  0  2  0  0  0  0  0  0  0  0  0
    1.3338    0.0756   -0.0816 H   0  0  0  0  0  0  0  0  0  0  0  0
    3.0379   -1.2449   -0.4054 C   0  0  0  0  0  0  0  0  0  0  0  0
    2.4903   -2.5471    0.2155 C   0  0  1  0  0  0  0  0  0  0  0  0
    0.9650   -2.7348    0.0652 C   0  0  0  0  0  0  0  0  0  0  0  0
    0.5311   -3.0456   -1.3750 C   0  0  0  0  0  0  0  0  0  0  0  0
    1.2754   -4.2671   -1.9310 C   0  0  0  0  0  0  0  0  0  0  0  0
    2.7965   -4.1021   -1.8180 C   0  0  0  0  0  0  0  0  0  0  0  0
    3.2249   -3.7719   -0.3802 C   0  0  0  0  0  0  0  0  0  0  0  0
    2.9871    1.1749   -0.5670 N   0  0  0  0  0  0  0  0  0  0  0  0
    2.3264    1.9653   -1.6096 C   0  0  0  0  0  0  0  0  0  0  0  0
    3.1928    2.9946   -2.2609 C   0  0  0  0  0  0  0  0  0  0  0  0
    4.0127    2.6648   -3.3899 C   0  0  0  0  0  0  0  0  0  0  0  0
    4.8488    3.5948   -3.9603 C   0  0  0  0  0  0  0  0  0  0  0  0
    4.9498    4.9356   -3.4517 C   0  0  0  0  0  0  0  0  0  0  0  0
    5.8942    5.8400   -4.0788 C   0  0  0  0  0  0  0  0  0  0  0  0
    6.5655    5.5819   -5.0700 O   0  0  0  0  0  0  0  0  0  0  0  0
    6.0418    7.0901   -3.4992 O   0  0  0  0  0  0  0  0  0  0  0  0
    4.0616    5.2781   -2.3682 C   0  0  0  0  0  0  0  0  0  0  0  0
    3.2261    4.3379   -1.7979 C   0  0  0  0  0  0  0  0  0  0  0  0
    3.6901    0.2176    1.9212 H   0  0  0  0  0  0  0  0  0  0  0  0
    2.1033   -0.5352    2.2120 H   0  0  0  0  0  0  0  0  0  0  0  0
    2.2143    1.2249    1.9952 H   0  0  0  0  0  0  0  0  0  0  0  0
    4.1275   -1.2032   -0.2354 H   0  0  0  0  0  0  0  0  0  0  0  0
    2.8951   -1.2488   -1.4965 H   0  0  0  0  0  0  0  0  0  0  0  0
    2.7253   -2.5206    1.2930 H   0  0  0  0  0  0  0  0  0  0  0  0
    0.4131   -1.8625    0.4556 H   0  0  0  0  0  0  0  0  0  0  0  0
    0.6683   -3.5794    0.7115 H   0  0  0  0  0  0  0  0  0  0  0  0
    0.7158   -2.1730   -2.0287 H   0  0  0  0  0  0  0  0  0  0  0  0
   -0.5578   -3.2150   -1.4041 H   0  0  0  0  0  0  0  0  0  0  0  0
    0.9857   -4.4483   -2.9789 H   0  0  0  0  0  0  0  0  0  0  0  0
    0.9653   -5.1642   -1.3641 H   0  0  0  0  0  0  0  0  0  0  0  0
    3.1326   -3.3074   -2.5081 H   0  0  0  0  0  0  0  0  0  0  0  0
    3.3070   -5.0205   -2.1510 H   0  0  0  0  0  0  0  0  0  0  0  0
    4.3164   -3.6210   -0.3279 H   0  0  0  0  0  0  0  0  0  0  0  0
    3.0046   -4.6406    0.2646 H   0  0  0  0  0  0  0  0  0  0  0  0
    3.9654    1.4095   -0.3837 H   0  0  0  0  0  0  0  0  0  0  0  0
    1.4372    2.3914   -1.1039 H   0  0  0  0  0  0  0  0  0  0  0  0
    1.9099    1.2124   -2.3085 H   0  0  0  0  0  0  0  0  0  0  0  0
    3.9666    1.6573   -3.8189 H   0  0  0  0  0  0  0  0  0  0  0  0
    5.4665    3.3441   -4.8244 H   0  0  0  0  0  0  0  0  0  0  0  0
    5.5921    7.0936   -2.6454 H   0  0  0  0  0  0  0  0  0  0  0  0
    3.9982    6.3080   -2.0032 H   0  0  0  0  0  0  0  0  0  0  0  0
    2.5600    4.6488   -0.9847 H   0  0  0  0  0  0  0  0  0  0  0  0
  1  2  1  0
  1 22  1  0
  1 23  1  0
  1 24  1  0
  2  3  1  6
  2  4  1  0
  2 11  1  0
  4  5  1  0
  4 25  1  0
  4 26  1  0
  5  6  1  0
  5 10  1  0
  5 27  1  1
  6  7  1  0
  6 28  1  0
  6 29  1  0
  7  8  1  0
  7 30  1  0
  7 31  1  0
  8  9  1  0
  8 32  1  0
  8 33  1  0
  9 10  1  0
  9 34  1  0
  9 35  1  0
 10 36  1  0
 10 37  1  0
 11 12  1  0
 11 38  1  0
 12 13  1  0
 12 39  1  0
 12 40  1  0
 13 14  2  0
 13 21  1  0
 14 15  1  0
 14 41  1  0
 15 16  2  0
 15 42  1  0
 16 17  1  0
 16 20  1  0
 17 18  2  0
 17 19  1  0
 19 43  1  0
 20 21  2  0
 20 44  1  0
 21 45  1  0
M  END

