
     RDKit          3D

 26 28  0  0  0  0  0  0  0  0999 V2000
   -2.4645    0.7319    0.1511 C   0  0  0  0  0  0  0  0  0  0  0  0
   -2.4943   -0.6625    0.1459 C   0  0  0  0  0  0  0  0  0  0  0  0
   -1.3035   -1.3947    0.0482 C   0  0  0  0  0  0  0  0  0  0  0  0
   -0.0423   -0.7808   -0.0490 C   0  0  0  0  0  0  0  0  0  0  0  0
    1.2426   -1.4770   -0.1620 C   0  0  0  0  0  0  0  0  0  0  0  0
    1.3707   -2.9097   -0.2024 C   0  0  0  0  0  0  0  0  0  0  0  0
    0.3828   -3.7667   -0.0946 N   0  0  0  0  0  0  0  0  0  0  0  0
    0.8844   -5.0456   -0.0691 N   0  0  0  0  0  0  0  0  0  0  0  0
    2.2409   -5.0617   -0.6292 C   0  0  0  0  0  0  0  0  0  0  0  0
    2.7122   -3.6390   -0.3012 C   0  0  0  0  0  0  0  0  0  0  0  0
    2.4319   -0.6884   -0.2361 C   0  0  0  0  0  0  0  0  0  0  0  0
    2.3695    0.6950   -0.2153 C   0  0  0  0  0  0  0  0  0  0  0  0
    1.1635    1.2375   -0.1254 N   0  0  0  0  0  0  0  0  0  0  0  0
   -0.0462    0.6828   -0.0368 C   0  0  0  0  0  0  0  0  0  0  0  0
   -1.2485    1.4114    0.0609 C   0  0  0  0  0  0  0  0  0  0  0  0
   -3.3920    1.3051    0.2274 H   0  0  0  0  0  0  0  0  0  0  0  0
   -3.4460   -1.1934    0.2195 H   0  0  0  0  0  0  0  0  0  0  0  0
   -1.3141   -2.4845    0.0471 H   0  0  0  0  0  0  0  0  0  0  0  0
    0.2186   -5.7151   -0.4452 H   0  0  0  0  0  0  0  0  0  0  0  0
    2.2295   -5.2228   -1.7269 H   0  0  0  0  0  0  0  0  0  0  0  0
    2.8547   -5.8513   -0.1707 H   0  0  0  0  0  0  0  0  0  0  0  0
    3.3871   -3.2304   -1.0669 H   0  0  0  0  0  0  0  0  0  0  0  0
    3.2419   -3.5986    0.6684 H   0  0  0  0  0  0  0  0  0  0  0  0
    3.4179   -1.1456   -0.2995 H   0  0  0  0  0  0  0  0  0  0  0  0
    3.2407    1.3525   -0.2621 H   0  0  0  0  0  0  0  0  0  0  0  0
   -1.2019    2.5008    0.0651 H   0  0  0  0  0  0  0  0  0  0  0  0
  1  2  2  0
  1 15  1  0
  1 16  1  0
  2  3  1  0
  2 17  1  0
  3  4  2  0
  3 18  1  0
  4  5  1  0
  4 14  1  0
  5  6  1  0
  5 11  2  0
  6  7  2  0
  6 10  1  0
  7  8  1  0
  8  9  1  0
  8 19  1  0
  9 10  1  0
  9 20  1  0
  9 21  1  0
 10 22  1  0
 10 23  1  0
 11 12  1  0
 11 24  1  0
 12 13  2  0
 12 25  1  0
 13 14  1  0
 14 15  2  0
 15 26  1  0
M  END

