
     RDKit          3D

 46 49  0  0  0  0  0  0  0  0999 V2000
    5.9992    6.5582   -3.2891 C   0  0  0  0  0  0  0  0  0  0  0  0
    6.8255    5.4461   -2.9077 N   0  0  0  0  0  0  0  0  0  0  0  0
    6.4960    4.6396   -1.8363 N   0  0  0  0  0  0  0  0  0  0  0  0
    7.4730    3.7540   -1.8024 C   0  0  0  0  0  0  0  0  0  0  0  0
    7.6648    2.6771   -0.9044 C   0  0  0  0  0  0  0  0  0  0  0  0
    6.7409    2.4094    0.1647 C   0  0  0  0  0  0  0  0  0  0  0  0
    6.8917    1.4447    1.0346 N   0  0  0  0  0  0  0  0  0  0  0  0
    7.9608    0.6131    0.9631 C   0  0  0  0  0  0  0  0  0  0  0  0
    8.0176   -0.4890    1.9611 C   0  0  1  0  0  0  0  0  0  0  0  0
    7.3676   -0.2252    3.0902 F   0  0  0  0  0  0  0  0  0  0  0  0
    7.5129   -1.6755    1.4913 F   0  0  0  0  0  0  0  0  0  0  0  0
    9.3145   -0.7977    2.2975 F   0  0  0  0  0  0  0  0  0  0  0  0
    8.9301    0.7636   -0.0828 C   0  0  0  0  0  0  0  0  0  0  0  0
   10.1196   -0.1227   -0.1727 C   0  0  0  0  0  0  0  0  0  0  0  0
   11.4181    0.3545    0.0923 C   0  0  0  0  0  0  0  0  0  0  0  0
   12.4984   -0.4941   -0.0497 C   0  0  0  0  0  0  0  0  0  0  0  0
   12.2565   -1.8437   -0.4716 C   0  0  0  0  0  0  0  0  0  0  0  0
   13.3370   -2.6450   -0.6873 N   0  0  0  0  0  0  0  0  0  0  0  0
   13.3582   -3.9317   -1.3181 C   0  0  0  0  0  0  0  0  0  0  0  0
   12.4499   -4.3053   -2.0060 O   0  0  0  0  0  0  0  0  0  0  0  0
   14.5834   -4.7493   -1.0269 C   0  0  0  0  0  0  0  0  0  0  0  0
   15.8570   -4.2274   -0.7308 C   0  0  0  0  0  0  0  0  0  0  0  0
   16.0100   -2.8833   -0.6572 F   0  0  0  0  0  0  0  0  0  0  0  0
   16.9804   -5.0111   -0.5180 C   0  0  0  0  0  0  0  0  0  0  0  0
   16.8454   -6.3999   -0.5926 C   0  0  0  0  0  0  0  0  0  0  0  0
   15.6083   -6.9786   -0.8745 C   0  0  0  0  0  0  0  0  0  0  0  0
   14.5032   -6.1594   -1.0922 C   0  0  0  0  0  0  0  0  0  0  0  0
   13.3386   -6.7370   -1.3416 F   0  0  0  0  0  0  0  0  0  0  0  0
   11.0175   -2.3349   -0.6527 N   0  0  0  0  0  0  0  0  0  0  0  0
   10.0009   -1.5180   -0.5128 C   0  0  0  0  0  0  0  0  0  0  0  0
    8.7872    1.7867   -0.9971 C   0  0  0  0  0  0  0  0  0  0  0  0
    8.4073    3.9644   -2.8049 O   0  0  0  0  0  0  0  0  0  0  0  0
    7.9850    5.0676   -3.5224 C   0  0  0  0  0  0  0  0  0  0  0  0
    8.5637    5.5380   -4.4718 O   0  0  0  0  0  0  0  0  0  0  0  0
    5.9166    7.2851   -2.4641 H   0  0  0  0  0  0  0  0  0  0  0  0
    4.9856    6.2184   -3.5587 H   0  0  0  0  0  0  0  0  0  0  0  0
    6.4680    7.0400   -4.1573 H   0  0  0  0  0  0  0  0  0  0  0  0
    5.8536    3.0451    0.2642 H   0  0  0  0  0  0  0  0  0  0  0  0
   11.5576    1.3943    0.3893 H   0  0  0  0  0  0  0  0  0  0  0  0
   13.5216   -0.1419    0.1015 H   0  0  0  0  0  0  0  0  0  0  0  0
   14.2408   -2.2767   -0.3971 H   0  0  0  0  0  0  0  0  0  0  0  0
   17.9345   -4.5281   -0.3038 H   0  0  0  0  0  0  0  0  0  0  0  0
   17.7166   -7.0370   -0.4266 H   0  0  0  0  0  0  0  0  0  0  0  0
   15.4744   -8.0597   -0.9306 H   0  0  0  0  0  0  0  0  0  0  0  0
    8.9994   -1.9480   -0.6047 H   0  0  0  0  0  0  0  0  0  0  0  0
    9.5120    1.9286   -1.8000 H   0  0  0  0  0  0  0  0  0  0  0  0
  1  2  1  0
  1 35  1  0
  1 36  1  0
  1 37  1  0
  2  3  1  0
  2 33  1  0
  3  4  2  0
  4  5  1  0
  4 32  1  0
  5  6  2  0
  5 31  1  0
  6  7  1  0
  6 38  1  0
  7  8  2  0
  8  9  1  0
  8 13  1  0
  9 10  1  1
  9 11  1  0
  9 12  1  0
 13 14  1  0
 13 31  2  0
 14 15  2  0
 14 30  1  0
 15 16  1  0
 15 39  1  0
 16 17  2  0
 16 40  1  0
 17 18  1  0
 17 29  1  0
 18 19  1  0
 18 41  1  0
 19 20  2  0
 19 21  1  0
 21 22  2  0
 21 27  1  0
 22 23  1  0
 22 24  1  0
 24 25  2  0
 24 42  1  0
 25 26  1  0
 25 43  1  0
 26 27  2  0
 26 44  1  0
 27 28  1  0
 29 30  2  0
 30 45  1  0
 31 46  1  0
 32 33  1  0
 33 34  2  0
M  END

