
     RDKit          3D

 62 65  0  0  0  0  0  0  0  0999 V2000
    0.9008    0.3966    0.9705 C   0  0  0  0  0  0  0  0  0  0  0  0
    2.3779    0.4228    0.6278 C   0  0  0  0  0  0  0  0  0  0  0  0
    3.0020   -0.6720    1.2820 O   0  0  0  0  0  0  0  0  0  0  0  0
    4.3357   -0.8781    1.1451 C   0  0  0  0  0  0  0  0  0  0  0  0
    5.1827   -0.0700    0.3721 C   0  0  0  0  0  0  0  0  0  0  0  0
    6.5444   -0.3627    0.2876 C   0  0  0  0  0  0  0  0  0  0  0  0
    7.0895   -1.4630    0.9653 C   0  0  0  0  0  0  0  0  0  0  0  0
    8.5336   -1.7418    0.8708 C   0  0  0  0  0  0  0  0  0  0  0  0
    9.4022   -0.7425    0.7918 N   0  0  0  0  0  0  0  0  0  0  0  0
   10.6310   -1.3088    0.7105 N   0  0  0  0  0  0  0  0  0  0  0  0
   11.7886   -0.4858    0.6178 C   0  0  0  0  0  0  0  0  0  0  0  0
   11.6378    0.8785    0.3319 C   0  0  0  0  0  0  0  0  0  0  0  0
   12.7691    1.6886    0.2284 C   0  0  0  0  0  0  0  0  0  0  0  0
   14.0485    1.1527    0.4046 C   0  0  0  0  0  0  0  0  0  0  0  0
   14.1898   -0.2073    0.6955 C   0  0  0  0  0  0  0  0  0  0  0  0
   13.0673   -1.0294    0.8089 C   0  0  0  0  0  0  0  0  0  0  0  0
   10.5726   -2.6591    0.7363 C   0  0  0  0  0  0  0  0  0  0  0  0
    9.2234   -3.0145    0.8334 C   0  0  0  0  0  0  0  0  0  0  0  0
    8.6250   -4.3195    0.8054 C   0  0  0  0  0  0  0  0  0  0  0  0
    9.2140   -5.5529    0.8504 C   0  0  0  0  0  0  0  0  0  0  0  0
   10.6244   -5.7313    0.9557 C   0  0  0  0  0  0  0  0  0  0  0  0
   11.7736   -5.9060    1.0341 N   0  0  0  0  0  0  0  0  0  0  0  0
    8.3091   -6.7636    0.7920 C   0  0  0  0  0  0  0  0  0  0  0  0
    7.0980   -6.6369    0.7207 O   0  0  0  0  0  0  0  0  0  0  0  0
    8.9682   -7.9669    0.8303 N   0  0  0  0  0  0  0  0  0  0  0  0
    8.4351   -9.2705    0.8059 C   0  0  0  0  0  0  0  0  0  0  0  0
    7.0622   -9.5417    0.7173 C   0  0  0  0  0  0  0  0  0  0  0  0
    6.6425  -10.8775    0.7011 C   0  0  0  0  0  0  0  0  0  0  0  0
    7.5454  -11.9327    0.7700 C   0  0  0  0  0  0  0  0  0  0  0  0
    8.9215  -11.6571    0.8587 C   0  0  0  0  0  0  0  0  0  0  0  0
    9.7455  -12.7341    0.9232 O   0  0  0  0  0  0  0  0  0  0  0  0
   11.1373  -12.5386    1.0172 C   0  0  0  0  0  0  0  0  0  0  0  0
    9.3643  -10.3300    0.8764 C   0  0  0  0  0  0  0  0  0  0  0  0
    6.2232   -2.2536    1.7481 C   0  0  0  0  0  0  0  0  0  0  0  0
    4.8579   -1.9879    1.8514 C   0  0  0  0  0  0  0  0  0  0  0  0
    3.9405   -2.8351    2.6927 C   0  0  0  0  0  0  0  0  0  0  0  0
    0.3815    1.2337    0.4787 H   0  0  0  0  0  0  0  0  0  0  0  0
    0.7518    0.4845    2.0576 H   0  0  0  0  0  0  0  0  0  0  0  0
    0.4400   -0.5449    0.6348 H   0  0  0  0  0  0  0  0  0  0  0  0
    2.8410    1.3718    0.9575 H   0  0  0  0  0  0  0  0  0  0  0  0
    2.5285    0.3437   -0.4653 H   0  0  0  0  0  0  0  0  0  0  0  0
    4.7895    0.7877   -0.1735 H   0  0  0  0  0  0  0  0  0  0  0  0
    7.1979    0.2665   -0.3192 H   0  0  0  0  0  0  0  0  0  0  0  0
   10.6346    1.2809    0.1994 H   0  0  0  0  0  0  0  0  0  0  0  0
   12.6462    2.7513    0.0049 H   0  0  0  0  0  0  0  0  0  0  0  0
   14.9306    1.7916    0.3207 H   0  0  0  0  0  0  0  0  0  0  0  0
   15.1830   -0.6371    0.8458 H   0  0  0  0  0  0  0  0  0  0  0  0
   13.1971   -2.0831    1.0595 H   0  0  0  0  0  0  0  0  0  0  0  0
   11.4577   -3.2808    0.6505 H   0  0  0  0  0  0  0  0  0  0  0  0
    7.5350   -4.3644    0.7290 H   0  0  0  0  0  0  0  0  0  0  0  0
    9.9804   -7.9211    0.8891 H   0  0  0  0  0  0  0  0  0  0  0  0
    6.3521   -8.7214    0.6635 H   0  0  0  0  0  0  0  0  0  0  0  0
    5.5730  -11.0930    0.6322 H   0  0  0  0  0  0  0  0  0  0  0  0
    7.2204  -12.9744    0.7579 H   0  0  0  0  0  0  0  0  0  0  0  0
   11.5926  -13.5374    1.0566 H   0  0  0  0  0  0  0  0  0  0  0  0
   11.4157  -11.9842    1.9321 H   0  0  0  0  0  0  0  0  0  0  0  0
   11.5388  -11.9990    0.1400 H   0  0  0  0  0  0  0  0  0  0  0  0
   10.4281  -10.0983    0.9456 H   0  0  0  0  0  0  0  0  0  0  0  0
    6.6256   -3.0885    2.3258 H   0  0  0  0  0  0  0  0  0  0  0  0
    4.4907   -3.6531    3.1789 H   0  0  0  0  0  0  0  0  0  0  0  0
    3.1353   -3.2741    2.0812 H   0  0  0  0  0  0  0  0  0  0  0  0
    3.4440   -2.2333    3.4715 H   0  0  0  0  0  0  0  0  0  0  0  0
  1  2  1  0
  1 37  1  0
  1 38  1  0
  1 39  1  0
  2  3  1  0
  2 40  1  0
  2 41  1  0
  3  4  1  0
  4  5  2  0
  4 35  1  0
  5  6  1  0
  5 42  1  0
  6  7  2  0
  6 43  1  0
  7  8  1  0
  7 34  1  0
  8  9  2  0
  8 18  1  0
  9 10  1  0
 10 11  1  0
 10 17  1  0
 11 12  2  0
 11 16  1  0
 12 13  1  0
 12 44  1  0
 13 14  2  0
 13 45  1  0
 14 15  1  0
 14 46  1  0
 15 16  2  0
 15 47  1  0
 16 48  1  0
 17 18  2  0
 17 49  1  0
 18 19  1  0
 19 20  2  0
 19 50  1  0
 20 21  1  0
 20 23  1  0
 21 22  3  0
 23 24  2  0
 23 25  1  0
 25 26  1  0
 25 51  1  0
 26 27  2  0
 26 33  1  0
 27 28  1  0
 27 52  1  0
 28 29  2  0
 28 53  1  0
 29 30  1  0
 29 54  1  0
 30 31  1  0
 30 33  2  0
 31 32  1  0
 32 55  1  0
 32 56  1  0
 32 57  1  0
 33 58  1  0
 34 35  2  0
 34 59  1  0
 35 36  1  0
 36 60  1  0
 36 61  1  0
 36 62  1  0
M  END

