
     RDKit          3D

 43 45  0  0  0  0  0  0  0  0999 V2000
    3.1026    0.6622   -0.8853 C   0  0  0  0  0  0  0  0  0  0  0  0
    2.7519   -0.2925    0.2747 C   0  0  2  0  0  0  0  0  0  0  0  0
    3.4617    0.0752    1.5916 C   0  0  0  0  0  0  0  0  0  0  0  0
    4.0965    1.3078    1.7894 C   0  0  0  0  0  0  0  0  0  0  0  0
    4.7114    1.6081    3.0085 C   0  0  0  0  0  0  0  0  0  0  0  0
    4.7037    0.6909    4.0645 C   0  0  0  0  0  0  0  0  0  0  0  0
    5.3200    1.0612    5.3927 C   0  0  0  0  0  0  0  0  0  0  0  0
    5.7526   -0.1059    6.0611 O   0  0  0  0  0  0  0  0  0  0  0  0
    6.3030   -0.0037    7.3020 C   0  0  0  0  0  0  0  0  0  0  0  0
    6.5020    1.2041    7.9876 C   0  0  0  0  0  0  0  0  0  0  0  0
    7.0807    1.1969    9.2635 C   0  0  0  0  0  0  0  0  0  0  0  0
    7.4553   -0.0091    9.8418 C   0  0  0  0  0  0  0  0  0  0  0  0
    8.0102   -0.0139   11.0656 F   0  0  0  0  0  0  0  0  0  0  0  0
    7.2660   -1.2195    9.1725 C   0  0  0  0  0  0  0  0  0  0  0  0
    6.6906   -1.2135    7.9053 C   0  0  0  0  0  0  0  0  0  0  0  0
    4.0715   -0.5455    3.8702 C   0  0  0  0  0  0  0  0  0  0  0  0
    3.4614   -0.8448    2.6533 C   0  0  0  0  0  0  0  0  0  0  0  0
    3.1747   -1.6648   -0.0854 N   0  0  0  0  0  0  0  0  0  0  0  0
    2.4487   -2.5869   -0.7547 C   0  0  0  0  0  0  0  0  0  0  0  0
    3.0780   -3.9671   -1.4425 S   0  0  0  0  0  0  0  0  0  0  0  0
    1.0921   -2.3204   -0.8151 N   0  0  0  0  0  0  0  0  0  0  0  0
    0.4713   -1.2921   -0.1333 C   0  0  0  0  0  0  0  0  0  0  0  0
   -0.8992   -1.3048   -0.1663 N   0  0  0  0  0  0  0  0  0  0  0  0
    1.2329   -0.3292    0.4853 C   0  0  0  0  0  0  0  0  0  0  0  0
    0.5828    0.6934    1.2181 C   0  0  0  0  0  0  0  0  0  0  0  0
    0.0028    1.5197    1.8021 N   0  0  0  0  0  0  0  0  0  0  0  0
    4.1902    0.7089   -1.0546 H   0  0  0  0  0  0  0  0  0  0  0  0
    2.7322    1.6786   -0.6874 H   0  0  0  0  0  0  0  0  0  0  0  0
    2.6221    0.3055   -1.8079 H   0  0  0  0  0  0  0  0  0  0  0  0
    4.1235    2.0542    0.9955 H   0  0  0  0  0  0  0  0  0  0  0  0
    5.2059    2.5762    3.1310 H   0  0  0  0  0  0  0  0  0  0  0  0
    4.5727    1.5956    6.0137 H   0  0  0  0  0  0  0  0  0  0  0  0
    6.1660    1.7567    5.2360 H   0  0  0  0  0  0  0  0  0  0  0  0
    6.2151    2.1582    7.5459 H   0  0  0  0  0  0  0  0  0  0  0  0
    7.2424    2.1272    9.8117 H   0  0  0  0  0  0  0  0  0  0  0  0
    7.5719   -2.1513    9.6524 H   0  0  0  0  0  0  0  0  0  0  0  0
    6.5312   -2.1434    7.3560 H   0  0  0  0  0  0  0  0  0  0  0  0
    4.0663   -1.2763    4.6803 H   0  0  0  0  0  0  0  0  0  0  0  0
    2.9730   -1.8129    2.5233 H   0  0  0  0  0  0  0  0  0  0  0  0
    4.1689   -1.8650   -0.0446 H   0  0  0  0  0  0  0  0  0  0  0  0
    0.5489   -2.9867   -1.3524 H   0  0  0  0  0  0  0  0  0  0  0  0
   -1.3591   -2.2091   -0.1326 H   0  0  0  0  0  0  0  0  0  0  0  0
   -1.3613   -0.5842    0.3797 H   0  0  0  0  0  0  0  0  0  0  0  0
  2  1  1  6
  1 27  1  0
  1 28  1  0
  1 29  1  0
  2  3  1  0
  2 18  1  0
  2 24  1  0
  3  4  2  0
  3 17  1  0
  4  5  1  0
  4 30  1  0
  5  6  2  0
  5 31  1  0
  6  7  1  0
  6 16  1  0
  7  8  1  0
  7 32  1  0
  7 33  1  0
  8  9  1  0
  9 10  2  0
  9 15  1  0
 10 11  1  0
 10 34  1  0
 11 12  2  0
 11 35  1  0
 12 13  1  0
 12 14  1  0
 14 15  2  0
 14 36  1  0
 15 37  1  0
 16 17  2  0
 16 38  1  0
 17 39  1  0
 18 19  1  0
 18 40  1  0
 19 20  2  0
 19 21  1  0
 21 22  1  0
 21 41  1  0
 22 23  1  0
 22 24  2  0
 23 42  1  0
 23 43  1  0
 24 25  1  0
 25 26  3  0
M  END

