
     RDKit          3D

 31 31  0  0  0  0  0  0  0  0999 V2000
    2.4830   -1.5428   -0.7537 O   0  0  0  0  0  0  0  0  0  0  0  0
    3.7950   -1.7166   -0.5476 C   0  0  0  0  0  0  0  0  0  0  0  0
    4.0379   -2.2606    0.6730 O   0  0  0  0  0  0  0  0  0  0  0  0
    4.6568   -0.5729   -1.0390 C   0  0  0  0  0  0  0  0  0  0  0  0
    4.4695    0.7678   -0.3026 C   0  0  1  0  0  0  0  0  0  0  0  0
    4.5701    0.7246    1.2113 C   0  0  0  0  0  0  0  0  0  0  0  0
    6.2368    0.2332    1.7732 S   0  0  1  0  0  0  0  0  0  0  0  0
    6.4187   -1.2152    1.4790 O   0  0  0  0  0  0  0  0  0  0  0  0
    7.2333    1.1890    1.2771 O   0  0  0  0  0  0  0  0  0  0  0  0
    6.1669    0.3773    3.5914 C   0  0  0  0  0  0  0  0  0  0  0  0
    7.4937   -0.1003    4.1694 C   0  0  0  0  0  0  0  0  0  0  0  0
    7.4293    0.0627    5.9995 S   0  0  0  0  0  0  0  0  0  0  0  0
    9.0174   -0.7475    6.3798 C   0  0  1  0  0  0  0  0  0  0  0  0
   10.0592   -0.1124    5.8290 F   0  0  0  0  0  0  0  0  0  0  0  0
    9.1710   -0.7455    7.7037 F   0  0  0  0  0  0  0  0  0  0  0  0
    9.0613   -2.0143    5.9479 F   0  0  0  0  0  0  0  0  0  0  0  0
    4.9422    2.0229   -1.0048 C   0  0  0  0  0  0  0  0  0  0  0  0
    3.4692    1.7548   -0.8643 C   0  0  0  0  0  0  0  0  0  0  0  0
    4.9838   -2.1163    0.9024 H   0  0  0  0  0  0  0  0  0  0  0  0
    4.4501   -0.4113   -2.1086 H   0  0  0  0  0  0  0  0  0  0  0  0
    5.7073   -0.9011   -0.9679 H   0  0  0  0  0  0  0  0  0  0  0  0
    3.8775   -0.0093    1.6508 H   0  0  0  0  0  0  0  0  0  0  0  0
    4.3967    1.7163    1.6552 H   0  0  0  0  0  0  0  0  0  0  0  0
    5.3203   -0.2381    3.9316 H   0  0  0  0  0  0  0  0  0  0  0  0
    5.9728    1.4375    3.8138 H   0  0  0  0  0  0  0  0  0  0  0  0
    8.3215    0.5056    3.7746 H   0  0  0  0  0  0  0  0  0  0  0  0
    7.6612   -1.1546    3.9084 H   0  0  0  0  0  0  0  0  0  0  0  0
    5.4064    1.8977   -1.9871 H   0  0  0  0  0  0  0  0  0  0  0  0
    5.4006    2.8086   -0.3989 H   0  0  0  0  0  0  0  0  0  0  0  0
    2.9036    1.4372   -1.7446 H   0  0  0  0  0  0  0  0  0  0  0  0
    2.8897    2.3634   -0.1637 H   0  0  0  0  0  0  0  0  0  0  0  0
  1  2  2  0
  2  3  1  0
  2  4  1  0
  3 19  1  0
  5  4  1  6
  4 20  1  0
  4 21  1  0
  5  6  1  0
  5 17  1  0
  5 18  1  0
  7  6  1  6
  6 22  1  0
  6 23  1  0
  7  8  2  0
  7  9  2  0
  7 10  1  0
 10 11  1  0
 10 24  1  0
 10 25  1  0
 11 12  1  0
 11 26  1  0
 11 27  1  0
 12 13  1  0
 13 14  1  6
 13 15  1  0
 13 16  1  0
 17 18  1  0
 17 28  1  0
 17 29  1  0
 18 30  1  0
 18 31  1  0
M  END

