
     RDKit          3D

 43 45  0  0  0  0  0  0  0  0999 V2000
    0.9852   -1.2814    0.3101 C   0  0  0  0  0  0  0  0  0  0  0  0
    2.4772   -1.2631    0.1674 C   0  0  0  0  0  0  0  0  0  0  0  0
    3.3503   -0.9071    1.2138 C   0  0  0  0  0  0  0  0  0  0  0  0
    4.7506   -0.7348    0.9817 C   0  0  0  0  0  0  0  0  0  0  0  0
    5.3526   -1.0354   -0.2424 C   0  0  0  0  0  0  0  0  0  0  0  0
    4.5321   -1.6952   -1.3207 C   0  0  2  0  0  0  0  0  0  0  0  0
    5.1064   -1.4591   -2.7212 C   0  0  0  0  0  0  0  0  0  0  0  0
    3.0435   -1.2691   -1.2304 C   0  0  0  0  0  0  0  0  0  0  0  0
    5.6001   -0.1944    2.0783 C   0  0  0  0  0  0  0  0  0  0  0  0
    6.7668   -0.8681    2.2565 N   0  0  0  0  0  0  0  0  0  0  0  0
    7.8284   -0.6825    3.1134 C   0  0  0  0  0  0  0  0  0  0  0  0
    8.8989   -1.5150    3.0577 N   0  0  0  0  0  0  0  0  0  0  0  0
    9.7159   -1.1058    3.9787 N   0  0  0  0  0  0  0  0  0  0  0  0
    9.1407   -0.0605    4.5607 N   0  0  0  0  0  0  0  0  0  0  0  0
    9.7552    0.6648    5.6580 C   0  0  0  0  0  0  0  0  0  0  0  0
    7.9586    0.2487    4.0552 N   0  0  0  0  0  0  0  0  0  0  0  0
    5.2336    0.8781    2.8973 C   0  0  0  0  0  0  0  0  0  0  0  0
    3.9204    1.5389    2.7002 C   0  0  0  0  0  0  0  0  0  0  0  0
    2.7285    0.6229    3.0986 C   0  0  0  0  0  0  0  0  0  0  0  0
    2.8827   -0.7197    2.5664 N   0  0  0  0  0  0  0  0  0  0  0  0
    2.7300   -1.7961    3.4343 C   0  0  0  0  0  0  0  0  0  0  0  0
    2.5221   -1.6890    4.6235 O   0  0  0  0  0  0  0  0  0  0  0  0
    2.8313   -2.9948    2.8345 O   0  0  0  0  0  0  0  0  0  0  0  0
    0.6641   -1.3397    1.3606 H   0  0  0  0  0  0  0  0  0  0  0  0
    0.5305   -2.1359   -0.2251 H   0  0  0  0  0  0  0  0  0  0  0  0
    0.5092   -0.3729   -0.1225 H   0  0  0  0  0  0  0  0  0  0  0  0
    6.3682   -0.7009   -0.4756 H   0  0  0  0  0  0  0  0  0  0  0  0
    4.5469   -2.7924   -1.1391 H   0  0  0  0  0  0  0  0  0  0  0  0
    5.0981   -0.3852   -2.9739 H   0  0  0  0  0  0  0  0  0  0  0  0
    4.5234   -1.9919   -3.4900 H   0  0  0  0  0  0  0  0  0  0  0  0
    6.1495   -1.8104   -2.7890 H   0  0  0  0  0  0  0  0  0  0  0  0
    2.4424   -1.9282   -1.8846 H   0  0  0  0  0  0  0  0  0  0  0  0
    2.9506   -0.2537   -1.6808 H   0  0  0  0  0  0  0  0  0  0  0  0
    6.8903   -1.6496    1.6067 H   0  0  0  0  0  0  0  0  0  0  0  0
   10.7248    0.1943    5.8556 H   0  0  0  0  0  0  0  0  0  0  0  0
    9.1120    0.6021    6.5466 H   0  0  0  0  0  0  0  0  0  0  0  0
    9.8910    1.7173    5.3738 H   0  0  0  0  0  0  0  0  0  0  0  0
    5.8829    1.1654    3.7250 H   0  0  0  0  0  0  0  0  0  0  0  0
    3.8155    1.7718    1.6241 H   0  0  0  0  0  0  0  0  0  0  0  0
    3.8597    2.4780    3.2701 H   0  0  0  0  0  0  0  0  0  0  0  0
    1.8018    1.1032    2.7336 H   0  0  0  0  0  0  0  0  0  0  0  0
    2.6548    0.5295    4.1906 H   0  0  0  0  0  0  0  0  0  0  0  0
    2.9173   -2.8465    1.8694 H   0  0  0  0  0  0  0  0  0  0  0  0
  1  2  1  0
  1 24  1  0
  1 25  1  0
  1 26  1  0
  2  3  2  0
  2  8  1  0
  3  4  1  0
  3 20  1  0
  4  5  2  0
  4  9  1  0
  5  6  1  0
  5 27  1  0
  6  7  1  0
  6  8  1  0
  6 28  1  1
  7 29  1  0
  7 30  1  0
  7 31  1  0
  8 32  1  0
  8 33  1  0
  9 10  1  0
  9 17  2  0
 10 11  1  0
 10 34  1  0
 11 12  1  0
 11 16  2  0
 12 13  2  0
 13 14  1  0
 14 15  1  0
 14 16  1  0
 15 35  1  0
 15 36  1  0
 15 37  1  0
 17 18  1  0
 17 38  1  0
 18 19  1  0
 18 39  1  0
 18 40  1  0
 19 20  1  0
 19 41  1  0
 19 42  1  0
 20 21  1  0
 21 22  2  0
 21 23  1  0
 23 43  1  0
M  END

