
     RDKit          3D

 38 39  0  0  0  0  0  0  0  0999 V2000
    1.3155    4.5994   -4.5456 C   0  0  0  0  0  0  0  0  0  0  0  0
    2.7263    4.0963   -4.2566 C   0  0  0  0  0  0  0  0  0  0  0  0
    3.0155    4.0175   -2.4475 S   0  0  0  0  0  0  0  0  0  0  0  0
    4.7545    3.4368   -2.4354 C   0  0  0  0  0  0  0  0  0  0  0  0
    5.2905    3.2624   -0.9962 C   0  0  1  0  0  0  0  0  0  0  0  0
    4.6503    2.0661   -0.2880 C   0  0  0  0  0  0  0  0  0  0  0  0
    6.7452    3.1194   -0.9510 N   0  0  0  0  0  0  0  0  0  0  0  0
    7.6025    4.2593   -1.2948 C   0  0  2  0  0  0  0  0  0  0  0  0
    9.0651    3.7914   -1.2321 C   0  0  0  0  0  0  0  0  0  0  0  0
    9.4528    3.5124    0.2127 C   0  0  0  0  0  0  0  0  0  0  0  0
    9.3272    4.6742    1.0301 O   0  0  0  0  0  0  0  0  0  0  0  0
    8.3054    5.5319    0.7874 C   0  0  0  0  0  0  0  0  0  0  0  0
    8.1688    6.6066    1.6812 C   0  0  0  0  0  0  0  0  0  0  0  0
    7.1824    7.5695    1.4896 C   0  0  0  0  0  0  0  0  0  0  0  0
    6.3302    7.4667    0.3851 C   0  0  0  0  0  0  0  0  0  0  0  0
    4.9862    8.7928    0.0972 Br  0  0  0  0  0  0  0  0  0  0  0  0
    6.4612    6.4061   -0.5109 C   0  0  0  0  0  0  0  0  0  0  0  0
    7.4372    5.4166   -0.3189 C   0  0  0  0  0  0  0  0  0  0  0  0
    1.1394    4.6439   -5.6324 H   0  0  0  0  0  0  0  0  0  0  0  0
    1.1601    5.6092   -4.1342 H   0  0  0  0  0  0  0  0  0  0  0  0
    0.5564    3.9334   -4.1056 H   0  0  0  0  0  0  0  0  0  0  0  0
    3.4781    4.7662   -4.7068 H   0  0  0  0  0  0  0  0  0  0  0  0
    2.8766    3.0908   -4.6842 H   0  0  0  0  0  0  0  0  0  0  0  0
    5.3643    4.1745   -2.9818 H   0  0  0  0  0  0  0  0  0  0  0  0
    4.8258    2.4767   -2.9779 H   0  0  0  0  0  0  0  0  0  0  0  0
    5.0374    4.1717   -0.4275 H   0  0  0  0  0  0  0  0  0  0  0  0
    4.9238    1.1231   -0.7934 H   0  0  0  0  0  0  0  0  0  0  0  0
    3.5527    2.1401   -0.2944 H   0  0  0  0  0  0  0  0  0  0  0  0
    5.0014    2.0075    0.7525 H   0  0  0  0  0  0  0  0  0  0  0  0
    7.0279    2.3049   -1.4978 H   0  0  0  0  0  0  0  0  0  0  0  0
    7.4007    4.6545   -2.3131 H   0  0  0  0  0  0  0  0  0  0  0  0
    9.7215    4.5680   -1.6576 H   0  0  0  0  0  0  0  0  0  0  0  0
    9.2083    2.8788   -1.8352 H   0  0  0  0  0  0  0  0  0  0  0  0
   10.5034    3.1995    0.3005 H   0  0  0  0  0  0  0  0  0  0  0  0
    8.8087    2.7153    0.6210 H   0  0  0  0  0  0  0  0  0  0  0  0
    8.8602    6.6696    2.5238 H   0  0  0  0  0  0  0  0  0  0  0  0
    7.0806    8.4008    2.1892 H   0  0  0  0  0  0  0  0  0  0  0  0
    5.7963    6.3475   -1.3754 H   0  0  0  0  0  0  0  0  0  0  0  0
  1  2  1  0
  1 19  1  0
  1 20  1  0
  1 21  1  0
  2  3  1  0
  2 22  1  0
  2 23  1  0
  3  4  1  0
  4  5  1  0
  4 24  1  0
  4 25  1  0
  5  6  1  0
  5  7  1  0
  5 26  1  1
  6 27  1  0
  6 28  1  0
  6 29  1  0
  7  8  1  0
  7 30  1  0
  8  9  1  0
  8 18  1  0
  8 31  1  6
  9 10  1  0
  9 32  1  0
  9 33  1  0
 10 11  1  0
 10 34  1  0
 10 35  1  0
 11 12  1  0
 12 13  1  0
 12 18  2  0
 13 14  2  0
 13 36  1  0
 14 15  1  0
 14 37  1  0
 15 16  1  0
 15 17  2  0
 17 18  1  0
 17 38  1  0
M  END

