
     RDKit          3D

 27 28  0  0  0  0  0  0  0  0999 V2000
    1.0199    0.2234   -0.3630 C   0  0  0  0  0  0  0  0  0  0  0  0
    2.4378    0.6473   -0.0561 C   0  0  0  0  0  0  0  0  0  0  0  0
    2.6939    1.3364    0.9397 O   0  0  0  0  0  0  0  0  0  0  0  0
    3.3890    0.2216   -0.9395 N   0  0  0  0  0  0  0  0  0  0  0  0
    4.7691    0.4310   -0.9377 C   0  0  0  0  0  0  0  0  0  0  0  0
    5.5177   -0.1422   -1.8885 N   0  0  0  0  0  0  0  0  0  0  0  0
    6.8018    0.2197   -1.6571 C   0  0  0  0  0  0  0  0  0  0  0  0
    8.0063   -0.1292   -2.3630 C   0  0  0  0  0  0  0  0  0  0  0  0
    9.2097    0.3978   -1.8653 C   0  0  0  0  0  0  0  0  0  0  0  0
    9.2790    1.2410   -0.7457 C   0  0  0  0  0  0  0  0  0  0  0  0
   10.5883    1.8078   -0.2558 C   0  0  0  0  0  0  0  0  0  0  0  0
    8.0720    1.5740   -0.0758 C   0  0  0  0  0  0  0  0  0  0  0  0
    6.8942    1.0347   -0.5627 N   0  0  0  0  0  0  0  0  0  0  0  0
    5.5911    1.1843   -0.0539 C   0  0  0  0  0  0  0  0  0  0  0  0
    5.2966    1.9079    1.0406 N   0  0  0  0  0  0  0  0  0  0  0  0
    0.6174   -0.3300    0.5007 H   0  0  0  0  0  0  0  0  0  0  0  0
    0.9267   -0.3995   -1.2641 H   0  0  0  0  0  0  0  0  0  0  0  0
    0.3946    1.1230   -0.4826 H   0  0  0  0  0  0  0  0  0  0  0  0
    3.0969   -0.3551   -1.7224 H   0  0  0  0  0  0  0  0  0  0  0  0
    7.9492   -0.7780   -3.2332 H   0  0  0  0  0  0  0  0  0  0  0  0
   10.1420    0.1439   -2.3806 H   0  0  0  0  0  0  0  0  0  0  0  0
   11.3143    1.0133   -0.0092 H   0  0  0  0  0  0  0  0  0  0  0  0
   10.4498    2.4135    0.6532 H   0  0  0  0  0  0  0  0  0  0  0  0
   11.0679    2.4568   -1.0099 H   0  0  0  0  0  0  0  0  0  0  0  0
    8.0007    2.2839    0.7458 H   0  0  0  0  0  0  0  0  0  0  0  0
    6.0218    2.1587    1.7024 H   0  0  0  0  0  0  0  0  0  0  0  0
    4.2943    1.8706    1.3045 H   0  0  0  0  0  0  0  0  0  0  0  0
  1  2  1  0
  1 16  1  0
  1 17  1  0
  1 18  1  0
  2  3  2  0
  2  4  1  0
  4  5  1  0
  4 19  1  0
  5  6  1  0
  5 14  2  0
  6  7  2  0
  7  8  1  0
  7 13  1  0
  8  9  2  0
  8 20  1  0
  9 10  1  0
  9 21  1  0
 10 11  1  0
 10 12  2  0
 11 22  1  0
 11 23  1  0
 11 24  1  0
 12 13  1  0
 12 25  1  0
 13 14  1  0
 14 15  1  0
 15 26  1  0
 15 27  1  0
M  END

