
     RDKit          3D

 70 75  0  0  0  0  0  0  0  0999 V2000
    4.3811    2.1496   -0.8523 C   0  0  0  0  0  0  0  0  0  0  0  0
    3.2969    1.6206    0.0722 C   0  0  0  0  0  0  0  0  0  0  0  0
    3.8357    1.1755    1.3284 O   0  0  0  0  0  0  0  0  0  0  0  0
    4.2853   -0.1032    1.4012 C   0  0  0  0  0  0  0  0  0  0  0  0
    4.2755   -0.8506    0.4501 O   0  0  0  0  0  0  0  0  0  0  0  0
    4.7244   -0.4227    2.7849 C   0  0  0  0  0  0  0  0  0  0  0  0
    5.4435   -1.5427    3.1232 C   0  0  0  0  0  0  0  0  0  0  0  0
    6.0809   -2.5103    2.1864 C   0  0  0  0  0  0  0  0  0  0  0  0
    6.8186   -2.0976    1.0648 C   0  0  0  0  0  0  0  0  0  0  0  0
    7.4562   -3.0337    0.2512 C   0  0  0  0  0  0  0  0  0  0  0  0
    7.3606   -4.3993    0.5384 C   0  0  0  0  0  0  0  0  0  0  0  0
    6.6400   -4.8209    1.6594 C   0  0  0  0  0  0  0  0  0  0  0  0
    6.0208   -3.8827    2.4870 C   0  0  0  0  0  0  0  0  0  0  0  0
    5.6969   -1.8718    4.4616 N   0  0  0  0  0  0  0  0  0  0  0  0
    5.4880   -0.9748    5.3502 C   0  0  0  0  0  0  0  0  0  0  0  0
    5.9757   -1.1663    7.0440 S   0  0  0  0  0  0  0  0  0  0  0  0
    5.5025    0.5038    7.4065 C   0  0  0  0  0  0  0  0  0  0  0  0
    5.5678    1.1916    8.5733 C   0  0  0  0  0  0  0  0  0  0  0  0
    6.0408    0.8052    9.8922 C   0  0  0  0  0  0  0  0  0  0  0  0
    6.7341   -0.3911   10.1654 C   0  0  0  0  0  0  0  0  0  0  0  0
    7.1645   -0.7162   11.4506 C   0  0  0  0  0  0  0  0  0  0  0  0
    6.9053    0.1628   12.5039 C   0  0  0  0  0  0  0  0  0  0  0  0
    6.2256    1.3631   12.2765 C   0  0  0  0  0  0  0  0  0  0  0  0
    5.7939    1.6924   10.9848 C   0  0  0  0  0  0  0  0  0  0  0  0
    5.1300    2.8349   10.6883 O   0  0  0  0  0  0  0  0  0  0  0  0
    4.8313    3.7770   11.7050 C   0  0  0  0  0  0  0  0  0  0  0  0
    4.0854    4.9470   11.1090 C   0  0  0  0  0  0  0  0  0  0  0  0
    3.2124    4.7813   10.0247 C   0  0  0  0  0  0  0  0  0  0  0  0
    2.4952    5.8645    9.5120 C   0  0  0  0  0  0  0  0  0  0  0  0
    2.6451    7.1258   10.0946 C   0  0  0  0  0  0  0  0  0  0  0  0
    1.6664    8.6086    9.4021 Br  0  0  0  0  0  0  0  0  0  0  0  0
    3.5095    7.3137   11.1758 C   0  0  0  0  0  0  0  0  0  0  0  0
    4.2276    6.2228   11.6714 C   0  0  0  0  0  0  0  0  0  0  0  0
    4.9273    1.1592    6.1924 C   0  0  0  0  0  0  0  0  0  0  0  0
    4.4911    2.2884    6.1186 O   0  0  0  0  0  0  0  0  0  0  0  0
    4.9341    0.2605    5.1235 N   0  0  0  0  0  0  0  0  0  0  0  0
    4.1954    0.5125    3.8693 C   0  0  2  0  0  0  0  0  0  0  0  0
    4.4051    1.5533    3.5920 H   0  0  0  0  0  0  0  0  0  0  0  0
    2.6853    0.3877    4.0947 C   0  0  0  0  0  0  0  0  0  0  0  0
    1.9099    1.5345    4.3190 C   0  0  0  0  0  0  0  0  0  0  0  0
    0.5361    1.4398    4.5481 C   0  0  0  0  0  0  0  0  0  0  0  0
   -0.0710    0.1808    4.5577 C   0  0  0  0  0  0  0  0  0  0  0  0
   -1.7918    0.0516    4.8440 Cl  0  0  0  0  0  0  0  0  0  0  0  0
    0.6813   -0.9764    4.3377 C   0  0  0  0  0  0  0  0  0  0  0  0
    2.0535   -0.8645    4.1047 C   0  0  0  0  0  0  0  0  0  0  0  0
    3.9249    2.5601   -1.7676 H   0  0  0  0  0  0  0  0  0  0  0  0
    5.0705    1.3445   -1.1462 H   0  0  0  0  0  0  0  0  0  0  0  0
    4.9573    2.9523   -0.3659 H   0  0  0  0  0  0  0  0  0  0  0  0
    2.7537    0.7872   -0.3970 H   0  0  0  0  0  0  0  0  0  0  0  0
    2.5808    2.4111    0.3408 H   0  0  0  0  0  0  0  0  0  0  0  0
    6.9074   -1.0354    0.8347 H   0  0  0  0  0  0  0  0  0  0  0  0
    8.0330   -2.6945   -0.6129 H   0  0  0  0  0  0  0  0  0  0  0  0
    7.8558   -5.1317   -0.1045 H   0  0  0  0  0  0  0  0  0  0  0  0
    6.5685   -5.8852    1.8979 H   0  0  0  0  0  0  0  0  0  0  0  0
    5.4851   -4.2061    3.3809 H   0  0  0  0  0  0  0  0  0  0  0  0
    5.1806    2.2102    8.4895 H   0  0  0  0  0  0  0  0  0  0  0  0
    6.9615   -1.0779    9.3495 H   0  0  0  0  0  0  0  0  0  0  0  0
    7.7030   -1.6495   11.6266 H   0  0  0  0  0  0  0  0  0  0  0  0
    7.2357   -0.0799   13.5170 H   0  0  0  0  0  0  0  0  0  0  0  0
    6.0371    2.0353   13.1127 H   0  0  0  0  0  0  0  0  0  0  0  0
    5.7603    4.1276   12.1901 H   0  0  0  0  0  0  0  0  0  0  0  0
    4.2155    3.2907   12.4870 H   0  0  0  0  0  0  0  0  0  0  0  0
    3.0982    3.7976    9.5661 H   0  0  0  0  0  0  0  0  0  0  0  0
    1.8241    5.7278    8.6626 H   0  0  0  0  0  0  0  0  0  0  0  0
    3.6288    8.3032   11.6199 H   0  0  0  0  0  0  0  0  0  0  0  0
    4.9132    6.3769   12.5099 H   0  0  0  0  0  0  0  0  0  0  0  0
    2.3918    2.5143    4.3270 H   0  0  0  0  0  0  0  0  0  0  0  0
   -0.0653    2.3341    4.7198 H   0  0  0  0  0  0  0  0  0  0  0  0
    0.1926   -1.9520    4.3429 H   0  0  0  0  0  0  0  0  0  0  0  0
    2.6347   -1.7705    3.9172 H   0  0  0  0  0  0  0  0  0  0  0  0
  1  2  1  0
  1 46  1  0
  1 47  1  0
  1 48  1  0
  2  3  1  0
  2 49  1  0
  2 50  1  0
  3  4  1  0
  4  5  2  0
  4  6  1  0
  6  7  2  0
  6 37  1  0
  7  8  1  0
  7 14  1  0
  8  9  2  0
  8 13  1  0
  9 10  1  0
  9 51  1  0
 10 11  2  0
 10 52  1  0
 11 12  1  0
 11 53  1  0
 12 13  2  0
 12 54  1  0
 13 55  1  0
 14 15  2  0
 15 16  1  0
 15 36  1  0
 16 17  1  0
 17 18  2  0
 17 34  1  0
 18 19  1  0
 18 56  1  0
 19 20  2  0
 19 24  1  0
 20 21  1  0
 20 57  1  0
 21 22  2  0
 21 58  1  0
 22 23  1  0
 22 59  1  0
 23 24  2  0
 23 60  1  0
 24 25  1  0
 25 26  1  0
 26 27  1  0
 26 61  1  0
 26 62  1  0
 27 28  2  0
 27 33  1  0
 28 29  1  0
 28 63  1  0
 29 30  2  0
 29 64  1  0
 30 31  1  0
 30 32  1  0
 32 33  2  0
 32 65  1  0
 33 66  1  0
 34 35  2  0
 34 36  1  0
 36 37  1  0
 37 38  1  6
 37 39  1  0
 39 40  2  0
 39 45  1  0
 40 41  1  0
 40 67  1  0
 41 42  2  0
 41 68  1  0
 42 43  1  0
 42 44  1  0
 44 45  2  0
 44 69  1  0
 45 70  1  0
M  END

