
     RDKit          3D

 23 23  0  0  0  0  0  0  0  0999 V2000
    1.8503    0.7203   -1.7897 C   0  0  0  0  0  0  0  0  0  0  0  0
    2.7387    0.4382   -0.7311 O   0  0  0  0  0  0  0  0  0  0  0  0
    3.5012   -0.6740   -0.8633 C   0  0  0  0  0  0  0  0  0  0  0  0
    4.5308   -0.9464   -0.0505 C   0  0  0  0  0  0  0  0  0  0  0  0
    5.3503   -2.2049   -0.1365 C   0  0  0  0  0  0  0  0  0  0  0  0
    6.8373   -1.9762   -0.3678 C   0  0  0  0  0  0  0  0  0  0  0  0
    7.7996   -2.6443    0.4026 C   0  0  0  0  0  0  0  0  0  0  0  0
    9.1682   -2.4621    0.1813 C   0  0  0  0  0  0  0  0  0  0  0  0
    9.5847   -1.5935   -0.8290 C   0  0  0  0  0  0  0  0  0  0  0  0
   11.4499   -1.3295   -1.1404 Br  0  0  0  0  0  0  0  0  0  0  0  0
    8.6489   -0.9109   -1.6115 C   0  0  0  0  0  0  0  0  0  0  0  0
    7.2870   -1.1056   -1.3730 C   0  0  0  0  0  0  0  0  0  0  0  0
    1.2604    1.5988   -1.4944 H   0  0  0  0  0  0  0  0  0  0  0  0
    1.1587   -0.1219   -1.9802 H   0  0  0  0  0  0  0  0  0  0  0  0
    2.3885    0.9539   -2.7273 H   0  0  0  0  0  0  0  0  0  0  0  0
    3.2056   -1.3633   -1.6682 H   0  0  0  0  0  0  0  0  0  0  0  0
    4.7836   -0.2191    0.7283 H   0  0  0  0  0  0  0  0  0  0  0  0
    4.9533   -2.8429   -0.9475 H   0  0  0  0  0  0  0  0  0  0  0  0
    5.2340   -2.7939    0.7907 H   0  0  0  0  0  0  0  0  0  0  0  0
    7.4777   -3.3243    1.1969 H   0  0  0  0  0  0  0  0  0  0  0  0
    9.9035   -2.9888    0.7921 H   0  0  0  0  0  0  0  0  0  0  0  0
    8.9823   -0.2312   -2.3977 H   0  0  0  0  0  0  0  0  0  0  0  0
    6.5561   -0.5625   -1.9778 H   0  0  0  0  0  0  0  0  0  0  0  0
  1  2  1  0
  1 13  1  0
  1 14  1  0
  1 15  1  0
  2  3  1  0
  3  4  2  0
  3 16  1  0
  4  5  1  0
  4 17  1  0
  5  6  1  0
  5 18  1  0
  5 19  1  0
  6  7  2  0
  6 12  1  0
  7  8  1  0
  7 20  1  0
  8  9  2  0
  8 21  1  0
  9 10  1  0
  9 11  1  0
 11 12  2  0
 11 22  1  0
 12 23  1  0
M  END

