
     RDKit          3D

 41 43  0  0  0  0  0  0  0  0999 V2000
    5.4046   -1.6206    0.1744 C   0  0  0  0  0  0  0  0  0  0  0  0
    4.2238   -1.4232   -0.7598 C   0  0  0  0  0  0  0  0  0  0  0  0
    4.4592   -0.3465   -1.6982 O   0  0  0  0  0  0  0  0  0  0  0  0
    4.2158    0.8984   -1.3039 C   0  0  0  0  0  0  0  0  0  0  0  0
    3.7538    1.1757   -0.2000 O   0  0  0  0  0  0  0  0  0  0  0  0
    4.5272    1.8977   -2.3435 C   0  0  0  0  0  0  0  0  0  0  0  0
    4.1888    3.2856   -2.1175 C   0  0  0  0  0  0  0  0  0  0  0  0
    3.6455    3.6787   -0.9761 N   0  0  0  0  0  0  0  0  0  0  0  0
    4.3848    4.1985   -3.0052 O   0  0  0  0  0  0  0  0  0  0  0  0
    4.8865    3.9493   -4.3674 C   0  0  0  0  0  0  0  0  0  0  0  0
    5.0281    5.1662   -5.0853 C   0  0  0  0  0  0  0  0  0  0  0  0
    4.5593    6.4187   -4.5698 C   0  0  0  0  0  0  0  0  0  0  0  0
    4.7195    7.5982   -5.2845 C   0  0  0  0  0  0  0  0  0  0  0  0
    5.3434    7.6083   -6.5413 C   0  0  0  0  0  0  0  0  0  0  0  0
    5.8071    6.3904   -7.0667 C   0  0  0  0  0  0  0  0  0  0  0  0
    5.6604    5.1991   -6.3720 C   0  0  0  0  0  0  0  0  0  0  0  0
    5.0730    2.5958   -4.7019 C   0  0  0  0  0  0  0  0  0  0  0  0
    5.2483    2.1278   -6.0136 C   0  0  0  0  0  0  0  0  0  0  0  0
    5.4047    1.6735   -7.0831 N   0  0  0  0  0  0  0  0  0  0  0  0
    5.2093    1.5437   -3.6180 C   0  0  1  0  0  0  0  0  0  0  0  0
    4.7939    0.5879   -3.9688 H   0  0  0  0  0  0  0  0  0  0  0  0
    6.6811    1.2626   -3.2397 C   0  0  0  0  0  0  0  0  0  0  0  0
    7.6145    2.2791   -2.8389 C   0  0  0  0  0  0  0  0  0  0  0  0
    8.8662    1.7806   -2.5982 C   0  0  0  0  0  0  0  0  0  0  0  0
    8.9342    0.0691   -2.8582 S   0  0  0  0  0  0  0  0  0  0  0  0
    7.2583    0.0148   -3.2742 C   0  0  0  0  0  0  0  0  0  0  0  0
    5.2242   -2.5017    0.8103 H   0  0  0  0  0  0  0  0  0  0  0  0
    5.5403   -0.7491    0.8314 H   0  0  0  0  0  0  0  0  0  0  0  0
    6.3337   -1.7862   -0.3915 H   0  0  0  0  0  0  0  0  0  0  0  0
    3.3014   -1.2071   -0.2020 H   0  0  0  0  0  0  0  0  0  0  0  0
    4.0618   -2.3017   -1.3988 H   0  0  0  0  0  0  0  0  0  0  0  0
    3.4967    2.9504   -0.2634 H   0  0  0  0  0  0  0  0  0  0  0  0
    3.3960    4.6548   -0.8533 H   0  0  0  0  0  0  0  0  0  0  0  0
    4.0642    6.4509   -3.6002 H   0  0  0  0  0  0  0  0  0  0  0  0
    4.3469    8.5330   -4.8552 H   0  0  0  0  0  0  0  0  0  0  0  0
    5.4639    8.5397   -7.0982 H   0  0  0  0  0  0  0  0  0  0  0  0
    6.2972    6.3720   -8.0442 H   0  0  0  0  0  0  0  0  0  0  0  0
    6.0342    4.2781   -6.8172 H   0  0  0  0  0  0  0  0  0  0  0  0
    7.3711    3.3407   -2.7753 H   0  0  0  0  0  0  0  0  0  0  0  0
    9.7618    2.3265   -2.3050 H   0  0  0  0  0  0  0  0  0  0  0  0
    6.7878   -0.9274   -3.5493 H   0  0  0  0  0  0  0  0  0  0  0  0
  1  2  1  0
  1 27  1  0
  1 28  1  0
  1 29  1  0
  2  3  1  0
  2 30  1  0
  2 31  1  0
  3  4  1  0
  4  5  2  0
  4  6  1  0
  6  7  2  0
  6 20  1  0
  7  8  1  0
  7  9  1  0
  8 32  1  0
  8 33  1  0
  9 10  1  0
 10 11  1  0
 10 17  2  0
 11 12  2  0
 11 16  1  0
 12 13  1  0
 12 34  1  0
 13 14  2  0
 13 35  1  0
 14 15  1  0
 14 36  1  0
 15 16  2  0
 15 37  1  0
 16 38  1  0
 17 18  1  0
 17 20  1  0
 18 19  3  0
 20 21  1  6
 20 22  1  0
 22 23  1  0
 22 26  2  0
 23 24  2  0
 23 39  1  0
 24 25  1  0
 24 40  1  0
 25 26  1  0
 26 41  1  0
M  END

