
     RDKit          3D

170186  0  0  0  0  0  0  0  0999 V2000
    3.8920   -1.1354    0.0537 F   0  0  0  0  0  0  0  0  0  0  0  0
    3.2584    0.0462   -0.0511 C   0  0  1  0  0  0  0  0  0  0  0  0
    2.0329   -0.1036    0.4826 F   0  0  0  0  0  0  0  0  0  0  0  0
    3.9223    0.9159    0.7408 F   0  0  0  0  0  0  0  0  0  0  0  0
    3.1988    0.5332   -1.4756 C   0  0  0  0  0  0  0  0  0  0  0  0
    4.1993    0.1728   -2.3843 C   0  0  0  0  0  0  0  0  0  0  0  0
    4.1719    0.6771   -3.6840 C   0  0  0  0  0  0  0  0  0  0  0  0
    3.1670    1.5698   -4.0874 C   0  0  0  0  0  0  0  0  0  0  0  0
    3.1629    2.1321   -5.4742 C   0  0  0  0  0  0  0  0  0  0  0  0
    2.8294    1.2805   -6.5604 C   0  0  0  0  0  0  0  0  0  0  0  0
    3.2199    1.5296   -7.8400 N   0  0  0  0  0  0  0  0  0  0  0  0
    2.9648    0.4058   -8.5518 C   0  0  0  0  0  0  0  0  0  0  0  0
    2.2152   -0.5709   -7.7332 C   0  0  0  0  0  0  0  0  0  0  0  0
    1.4493   -1.7484   -8.2085 C   0  0  0  0  0  0  0  0  0  0  0  0
    0.5030   -1.5942   -9.2396 C   0  0  0  0  0  0  0  0  0  0  0  0
   -0.2882   -2.6665   -9.6561 C   0  0  0  0  0  0  0  0  0  0  0  0
   -0.1485   -3.9196   -9.0522 C   0  0  0  0  0  0  0  0  0  0  0  0
    0.7891   -4.0891   -8.0297 C   0  0  0  0  0  0  0  0  0  0  0  0
    1.5774   -3.0148   -7.6115 C   0  0  0  0  0  0  0  0  0  0  0  0
    2.1460   -0.0241   -6.4710 C   0  0  0  0  0  0  0  0  0  0  0  0
    1.2942   -0.5267   -5.3575 C   0  0  0  0  0  0  0  0  0  0  0  0
    1.7088   -1.5485   -4.4880 C   0  0  0  0  0  0  0  0  0  0  0  0
    0.8626   -2.0206   -3.4812 C   0  0  0  0  0  0  0  0  0  0  0  0
   -0.4196   -1.4851   -3.3302 C   0  0  0  0  0  0  0  0  0  0  0  0
   -0.8487   -0.4720   -4.1925 C   0  0  0  0  0  0  0  0  0  0  0  0
    0.0012    0.0028   -5.1942 C   0  0  0  0  0  0  0  0  0  0  0  0
    3.4882    0.1827   -9.8617 C   0  0  0  0  0  0  0  0  0  0  0  0
    3.6865   -1.2216  -10.3185 C   0  0  0  0  0  0  0  0  0  0  0  0
    4.4204   -2.1255   -9.5285 C   0  0  0  0  0  0  0  0  0  0  0  0
    4.6276   -3.4385   -9.9434 C   0  0  0  0  0  0  0  0  0  0  0  0
    4.0936   -3.8797  -11.1598 C   0  0  0  0  0  0  0  0  0  0  0  0
    4.3673   -5.2844  -11.6321 C   0  0  1  0  0  0  0  0  0  0  0  0
    4.3917   -6.1600  -10.6102 F   0  0  0  0  0  0  0  0  0  0  0  0
    3.4422   -5.7129  -12.5091 F   0  0  0  0  0  0  0  0  0  0  0  0
    5.5630   -5.3768  -12.2488 F   0  0  0  0  0  0  0  0  0  0  0  0
    3.3484   -2.9983  -11.9504 C   0  0  0  0  0  0  0  0  0  0  0  0
    3.1530   -1.6835  -11.5332 C   0  0  0  0  0  0  0  0  0  0  0  0
    3.8503    1.2452  -10.7260 C   0  0  0  0  0  0  0  0  0  0  0  0
    3.3913    2.5267  -10.5646 N   0  0  0  0  0  0  0  0  0  0  0  0
    2.9300    2.8577   -9.7230 H   0  0  0  0  0  0  0  0  0  0  0  0
    3.6784    3.3170  -11.6475 C   0  0  0  0  0  0  0  0  0  0  0  0
    4.4931    2.5106  -12.5327 C   0  0  0  0  0  0  0  0  0  0  0  0
    5.2968    2.9980  -13.6894 C   0  0  0  0  0  0  0  0  0  0  0  0
    4.9446    2.7336  -15.0222 C   0  0  0  0  0  0  0  0  0  0  0  0
    5.7568    3.1610  -16.0756 C   0  0  0  0  0  0  0  0  0  0  0  0
    6.9402    3.8566  -15.8134 C   0  0  0  0  0  0  0  0  0  0  0  0
    7.3044    4.1243  -14.4909 C   0  0  0  0  0  0  0  0  0  0  0  0
    6.4893    3.6996  -13.4391 C   0  0  0  0  0  0  0  0  0  0  0  0
    4.6123    1.2431  -11.9625 C   0  0  0  0  0  0  0  0  0  0  0  0
    5.5429    0.1883  -12.4364 C   0  0  0  0  0  0  0  0  0  0  0  0
    6.5912   -0.2433  -11.6031 C   0  0  0  0  0  0  0  0  0  0  0  0
    7.5171   -1.1882  -12.0488 C   0  0  0  0  0  0  0  0  0  0  0  0
    7.4138   -1.7220  -13.3367 C   0  0  0  0  0  0  0  0  0  0  0  0
    6.3794   -1.2996  -14.1760 C   0  0  0  0  0  0  0  0  0  0  0  0
    5.4548   -0.3527  -13.7304 C   0  0  0  0  0  0  0  0  0  0  0  0
    3.1605    4.6208  -11.8218 C   0  0  0  0  0  0  0  0  0  0  0  0
    3.1735    5.2198  -13.1917 C   0  0  0  0  0  0  0  0  0  0  0  0
    2.3444    4.7249  -14.2107 C   0  0  0  0  0  0  0  0  0  0  0  0
    2.3216    5.3257  -15.4681 C   0  0  0  0  0  0  0  0  0  0  0  0
    3.1534    6.4187  -15.7351 C   0  0  0  0  0  0  0  0  0  0  0  0
    3.0802    7.1159  -17.0686 C   0  0  1  0  0  0  0  0  0  0  0  0
    2.7337    6.2756  -18.0601 F   0  0  0  0  0  0  0  0  0  0  0  0
    2.1617    8.1058  -17.0592 F   0  0  0  0  0  0  0  0  0  0  0  0
    4.2529    7.6804  -17.4081 F   0  0  0  0  0  0  0  0  0  0  0  0
    4.0085    6.9029  -14.7392 C   0  0  0  0  0  0  0  0  0  0  0  0
    4.0054    6.3150  -13.4755 C   0  0  0  0  0  0  0  0  0  0  0  0
    2.6439    5.4047  -10.7520 C   0  0  0  0  0  0  0  0  0  0  0  0
    3.0114    5.2176   -9.4578 N   0  0  0  0  0  0  0  0  0  0  0  0
    2.5471    6.2854   -8.7624 C   0  0  0  0  0  0  0  0  0  0  0  0
    2.9736    6.5784   -7.4324 C   0  0  0  0  0  0  0  0  0  0  0  0
    2.9377    7.9908   -6.9631 C   0  0  0  0  0  0  0  0  0  0  0  0
    2.3269    8.3474   -5.7483 C   0  0  0  0  0  0  0  0  0  0  0  0
    2.3041    9.6714   -5.3166 C   0  0  0  0  0  0  0  0  0  0  0  0
    2.9011   10.6710   -6.0927 C   0  0  0  0  0  0  0  0  0  0  0  0
    2.9398   12.0957   -5.6026 C   0  0  1  0  0  0  0  0  0  0  0  0
    1.9287   12.3677   -4.7585 F   0  0  0  0  0  0  0  0  0  0  0  0
    4.0840   12.3617   -4.9402 F   0  0  0  0  0  0  0  0  0  0  0  0
    2.8674   12.9764   -6.6175 F   0  0  0  0  0  0  0  0  0  0  0  0
    3.5075   10.3357   -7.3088 C   0  0  0  0  0  0  0  0  0  0  0  0
    3.5201    9.0109   -7.7377 C   0  0  0  0  0  0  0  0  0  0  0  0
    3.4504    5.5723   -6.5538 C   0  0  0  0  0  0  0  0  0  0  0  0
    3.1686    4.2421   -6.7277 N   0  0  0  0  0  0  0  0  0  0  0  0
    2.7816    3.8539   -7.5820 H   0  0  0  0  0  0  0  0  0  0  0  0
    3.5109    3.4959   -5.6312 C   0  0  0  0  0  0  0  0  0  0  0  0
    4.1781    4.3990   -4.7180 C   0  0  0  0  0  0  0  0  0  0  0  0
    4.9903    4.0169   -3.5266 C   0  0  0  0  0  0  0  0  0  0  0  0
    6.3170    3.5941   -3.7217 C   0  0  0  0  0  0  0  0  0  0  0  0
    7.1303    3.2639   -2.6348 C   0  0  0  0  0  0  0  0  0  0  0  0
    6.6282    3.3434   -1.3331 C   0  0  0  0  0  0  0  0  0  0  0  0
    5.3107    3.7617   -1.1258 C   0  0  0  0  0  0  0  0  0  0  0  0
    4.5026    4.1030   -2.2133 C   0  0  0  0  0  0  0  0  0  0  0  0
    4.1595    5.6713   -5.2914 C   0  0  0  0  0  0  0  0  0  0  0  0
    4.9232    6.8377   -4.7853 C   0  0  0  0  0  0  0  0  0  0  0  0
    5.8892    7.4523   -5.6030 C   0  0  0  0  0  0  0  0  0  0  0  0
    6.6575    8.5165   -5.1275 C   0  0  0  0  0  0  0  0  0  0  0  0
    6.4769    8.9877   -3.8238 C   0  0  0  0  0  0  0  0  0  0  0  0
    5.5251    8.3821   -2.9988 C   0  0  0  0  0  0  0  0  0  0  0  0
    4.7579    7.3166   -3.4739 C   0  0  0  0  0  0  0  0  0  0  0  0
    1.6865    7.1300   -9.6174 C   0  0  0  0  0  0  0  0  0  0  0  0
    0.7240    8.1677   -9.1774 C   0  0  0  0  0  0  0  0  0  0  0  0
   -0.2048    7.8726   -8.1611 C   0  0  0  0  0  0  0  0  0  0  0  0
   -1.1689    8.8052   -7.7742 C   0  0  0  0  0  0  0  0  0  0  0  0
   -1.2233   10.0579   -8.3926 C   0  0  0  0  0  0  0  0  0  0  0  0
   -0.3058   10.3671   -9.4005 C   0  0  0  0  0  0  0  0  0  0  0  0
    0.6554    9.4317   -9.7899 C   0  0  0  0  0  0  0  0  0  0  0  0
    1.7610    6.5798  -10.8788 C   0  0  0  0  0  0  0  0  0  0  0  0
    0.8793    6.9156  -12.0314 C   0  0  0  0  0  0  0  0  0  0  0  0
    1.1276    7.9973  -12.8917 C   0  0  0  0  0  0  0  0  0  0  0  0
    0.2629    8.2865  -13.9506 C   0  0  0  0  0  0  0  0  0  0  0  0
   -0.8788    7.5076  -14.1589 C   0  0  0  0  0  0  0  0  0  0  0  0
   -1.1468    6.4351  -13.3035 C   0  0  0  0  0  0  0  0  0  0  0  0
   -0.2736    6.1402  -12.2538 C   0  0  0  0  0  0  0  0  0  0  0  0
    2.1702    1.9234   -3.1641 C   0  0  0  0  0  0  0  0  0  0  0  0
    2.1742    1.3993   -1.8730 C   0  0  0  0  0  0  0  0  0  0  0  0
    4.9962   -0.5057   -2.0750 H   0  0  0  0  0  0  0  0  0  0  0  0
    4.9518    0.3940   -4.3938 H   0  0  0  0  0  0  0  0  0  0  0  0
    0.3786   -0.6146   -9.7078 H   0  0  0  0  0  0  0  0  0  0  0  0
   -1.0213   -2.5210  -10.4540 H   0  0  0  0  0  0  0  0  0  0  0  0
   -0.7665   -4.7603   -9.3778 H   0  0  0  0  0  0  0  0  0  0  0  0
    0.9103   -5.0658   -7.5542 H   0  0  0  0  0  0  0  0  0  0  0  0
    2.3124   -3.1613   -6.8187 H   0  0  0  0  0  0  0  0  0  0  0  0
    2.7119   -1.9672   -4.5936 H   0  0  0  0  0  0  0  0  0  0  0  0
    1.2080   -2.8116   -2.8105 H   0  0  0  0  0  0  0  0  0  0  0  0
   -1.0818   -1.8572   -2.5444 H   0  0  0  0  0  0  0  0  0  0  0  0
   -1.8525   -0.0514   -4.0883 H   0  0  0  0  0  0  0  0  0  0  0  0
   -0.3419    0.7899   -5.8703 H   0  0  0  0  0  0  0  0  0  0  0  0
    4.8452   -1.7845   -8.5824 H   0  0  0  0  0  0  0  0  0  0  0  0
    5.2034   -4.1258   -9.3205 H   0  0  0  0  0  0  0  0  0  0  0  0
    2.9154   -3.3454  -12.8898 H   0  0  0  0  0  0  0  0  0  0  0  0
    2.5612   -1.0049  -12.1506 H   0  0  0  0  0  0  0  0  0  0  0  0
    4.0166    2.1993  -15.2364 H   0  0  0  0  0  0  0  0  0  0  0  0
    5.4617    2.9508  -17.1067 H   0  0  0  0  0  0  0  0  0  0  0  0
    7.5762    4.1892  -16.6377 H   0  0  0  0  0  0  0  0  0  0  0  0
    8.2304    4.6637  -14.2752 H   0  0  0  0  0  0  0  0  0  0  0  0
    6.7816    3.9047  -12.4063 H   0  0  0  0  0  0  0  0  0  0  0  0
    6.6826    0.1762  -10.5984 H   0  0  0  0  0  0  0  0  0  0  0  0
    8.3254   -1.5082  -11.3862 H   0  0  0  0  0  0  0  0  0  0  0  0
    8.1360   -2.4650  -13.6839 H   0  0  0  0  0  0  0  0  0  0  0  0
    6.2884   -1.7124  -15.1839 H   0  0  0  0  0  0  0  0  0  0  0  0
    4.6425   -0.0411  -14.3884 H   0  0  0  0  0  0  0  0  0  0  0  0
    1.6894    3.8761  -14.0037 H   0  0  0  0  0  0  0  0  0  0  0  0
    1.6571    4.9454  -16.2459 H   0  0  0  0  0  0  0  0  0  0  0  0
    4.6727    7.7424  -14.9530 H   0  0  0  0  0  0  0  0  0  0  0  0
    4.6659    6.7000  -12.6958 H   0  0  0  0  0  0  0  0  0  0  0  0
    1.8490    7.5754   -5.1423 H   0  0  0  0  0  0  0  0  0  0  0  0
    1.8141    9.9332   -4.3774 H   0  0  0  0  0  0  0  0  0  0  0  0
    3.9673   11.1141   -7.9206 H   0  0  0  0  0  0  0  0  0  0  0  0
    4.0026    8.7537   -8.6826 H   0  0  0  0  0  0  0  0  0  0  0  0
    6.7132    3.5307   -4.7381 H   0  0  0  0  0  0  0  0  0  0  0  0
    8.1609    2.9429   -2.8073 H   0  0  0  0  0  0  0  0  0  0  0  0
    7.2602    3.0790   -0.4815 H   0  0  0  0  0  0  0  0  0  0  0  0
    4.9064    3.8147   -0.1121 H   0  0  0  0  0  0  0  0  0  0  0  0
    3.4740    4.4272   -2.0426 H   0  0  0  0  0  0  0  0  0  0  0  0
    6.0424    7.0827   -6.6196 H   0  0  0  0  0  0  0  0  0  0  0  0
    7.4034    8.9791   -5.7790 H   0  0  0  0  0  0  0  0  0  0  0  0
    7.0749    9.8237   -3.4527 H   0  0  0  0  0  0  0  0  0  0  0  0
    5.3754    8.7433   -1.9781 H   0  0  0  0  0  0  0  0  0  0  0  0
    4.0099    6.8590   -2.8247 H   0  0  0  0  0  0  0  0  0  0  0  0
   -0.1765    6.8913   -7.6812 H   0  0  0  0  0  0  0  0  0  0  0  0
   -1.8845    8.5504   -6.9880 H   0  0  0  0  0  0  0  0  0  0  0  0
   -1.9763   10.7900   -8.0899 H   0  0  0  0  0  0  0  0  0  0  0  0
   -0.3363   11.3453   -9.8873 H   0  0  0  0  0  0  0  0  0  0  0  0
    1.3725    9.6883  -10.5708 H   0  0  0  0  0  0  0  0  0  0  0  0
    2.0217    8.6060  -12.7423 H   0  0  0  0  0  0  0  0  0  0  0  0
    0.4879    9.1186  -14.6220 H   0  0  0  0  0  0  0  0  0  0  0  0
   -1.5562    7.7361  -14.9856 H   0  0  0  0  0  0  0  0  0  0  0  0
   -2.0412    5.8242  -13.4526 H   0  0  0  0  0  0  0  0  0  0  0  0
   -0.4879    5.3013  -11.5869 H   0  0  0  0  0  0  0  0  0  0  0  0
    1.3726    2.6030   -3.4709 H   0  0  0  0  0  0  0  0  0  0  0  0
    1.3820    1.6638   -1.1701 H   0  0  0  0  0  0  0  0  0  0  0  0
  2  1  1  6
  2  3  1  0
  2  4  1  0
  2  5  1  0
  5  6  2  0
  5114  1  0
  6  7  1  0
  6115  1  0
  7  8  2  0
  7116  1  0
  8  9  1  0
  8113  1  0
  9 10  1  0
  9 84  2  0
 10 11  2  0
 10 20  1  0
 11 12  1  0
 12 13  1  0
 12 27  2  0
 13 14  1  0
 13 20  2  0
 14 15  2  0
 14 19  1  0
 15 16  1  0
 15117  1  0
 16 17  2  0
 16118  1  0
 17 18  1  0
 17119  1  0
 18 19  2  0
 18120  1  0
 19121  1  0
 20 21  1  0
 21 22  2  0
 21 26  1  0
 22 23  1  0
 22122  1  0
 23 24  2  0
 23123  1  0
 24 25  1  0
 24124  1  0
 25 26  2  0
 25125  1  0
 26126  1  0
 27 28  1  0
 27 38  1  0
 28 29  2  0
 28 37  1  0
 29 30  1  0
 29127  1  0
 30 31  2  0
 30128  1  0
 31 32  1  0
 31 36  1  0
 32 33  1  1
 32 34  1  0
 32 35  1  0
 36 37  2  0
 36129  1  0
 37130  1  0
 38 39  1  0
 38 49  2  0
 39 40  1  0
 39 41  1  0
 41 42  2  0
 41 56  1  0
 42 43  1  0
 42 49  1  0
 43 44  2  0
 43 48  1  0
 44 45  1  0
 44131  1  0
 45 46  2  0
 45132  1  0
 46 47  1  0
 46133  1  0
 47 48  2  0
 47134  1  0
 48135  1  0
 49 50  1  0
 50 51  2  0
 50 55  1  0
 51 52  1  0
 51136  1  0
 52 53  2  0
 52137  1  0
 53 54  1  0
 53138  1  0
 54 55  2  0
 54139  1  0
 55140  1  0
 56 57  1  0
 56 67  2  0
 57 58  2  0
 57 66  1  0
 58 59  1  0
 58141  1  0
 59 60  2  0
 59142  1  0
 60 61  1  0
 60 65  1  0
 61 62  1  6
 61 63  1  0
 61 64  1  0
 65 66  2  0
 65143  1  0
 66144  1  0
 67 68  1  0
 67106  1  0
 68 69  2  0
 69 70  1  0
 69 99  1  0
 70 71  1  0
 70 81  2  0
 71 72  2  0
 71 80  1  0
 72 73  1  0
 72145  1  0
 73 74  2  0
 73146  1  0
 74 75  1  0
 74 79  1  0
 75 76  1  1
 75 77  1  0
 75 78  1  0
 79 80  2  0
 79147  1  0
 80148  1  0
 81 82  1  0
 81 92  1  0
 82 83  1  0
 82 84  1  0
 84 85  1  0
 85 86  1  0
 85 92  2  0
 86 87  2  0
 86 91  1  0
 87 88  1  0
 87149  1  0
 88 89  2  0
 88150  1  0
 89 90  1  0
 89151  1  0
 90 91  2  0
 90152  1  0
 91153  1  0
 92 93  1  0
 93 94  2  0
 93 98  1  0
 94 95  1  0
 94154  1  0
 95 96  2  0
 95155  1  0
 96 97  1  0
 96156  1  0
 97 98  2  0
 97157  1  0
 98158  1  0
 99100  1  0
 99106  2  0
100101  2  0
100105  1  0
101102  1  0
101159  1  0
102103  2  0
102160  1  0
103104  1  0
103161  1  0
104105  2  0
104162  1  0
105163  1  0
106107  1  0
107108  2  0
107112  1  0
108109  1  0
108164  1  0
109110  2  0
109165  1  0
110111  1  0
110166  1  0
111112  2  0
111167  1  0
112168  1  0
113114  2  0
113169  1  0
114170  1  0
M  END

