
     RDKit          3D

 32 33  0  0  0  0  0  0  0  0999 V2000
    0.9244    0.1362    0.0357 C   0  0  0  0  0  0  0  0  0  0  0  0
    2.4152    0.0970   -0.0488 C   0  0  0  0  0  0  0  0  0  0  0  0
    3.1855    1.1567    0.0203 N   0  0  0  0  0  0  0  0  0  0  0  0
    4.4829    0.7121   -0.0755 C   0  0  0  0  0  0  0  0  0  0  0  0
    4.5153   -0.6500   -0.1957 C   0  0  0  0  0  0  0  0  0  0  0  0
    3.1834   -1.0613   -0.1840 N   0  0  0  0  0  0  0  0  0  0  0  0
    2.7483   -2.3999   -0.2549 C   0  0  0  0  0  0  0  0  0  0  0  0
    3.5603   -3.4581    0.1943 C   0  0  0  0  0  0  0  0  0  0  0  0
    3.1650   -4.7221    0.0920 N   0  0  0  0  0  0  0  0  0  0  0  0
    1.9607   -4.9883   -0.4272 C   0  0  0  0  0  0  0  0  0  0  0  0
    1.5030   -6.4470   -0.5502 C   0  0  1  0  0  0  0  0  0  0  0  0
    2.5904   -7.3983   -0.0248 C   0  0  0  0  0  0  0  0  0  0  0  0
    0.2111   -6.6490    0.2753 C   0  0  0  0  0  0  0  0  0  0  0  0
    1.2224   -6.7697   -2.0362 C   0  0  0  0  0  0  0  0  0  0  0  0
    1.1478   -3.9129   -0.8355 C   0  0  0  0  0  0  0  0  0  0  0  0
    1.5413   -2.6452   -0.7599 N   0  0  0  0  0  0  0  0  0  0  0  0
    0.6378    1.1687    0.2745 H   0  0  0  0  0  0  0  0  0  0  0  0
    0.5355   -0.5369    0.8157 H   0  0  0  0  0  0  0  0  0  0  0  0
    0.4525   -0.1676   -0.9100 H   0  0  0  0  0  0  0  0  0  0  0  0
    5.3279    1.3996   -0.0608 H   0  0  0  0  0  0  0  0  0  0  0  0
    5.3351   -1.3494   -0.3286 H   0  0  0  0  0  0  0  0  0  0  0  0
    4.5352   -3.2708    0.6551 H   0  0  0  0  0  0  0  0  0  0  0  0
    2.8171   -7.2045    1.0334 H   0  0  0  0  0  0  0  0  0  0  0  0
    3.5300   -7.2823   -0.5839 H   0  0  0  0  0  0  0  0  0  0  0  0
    2.2507   -8.4415   -0.1247 H   0  0  0  0  0  0  0  0  0  0  0  0
    0.3810   -6.4220    1.3399 H   0  0  0  0  0  0  0  0  0  0  0  0
   -0.1262   -7.6956    0.2025 H   0  0  0  0  0  0  0  0  0  0  0  0
   -0.6129   -6.0104   -0.0799 H   0  0  0  0  0  0  0  0  0  0  0  0
    2.1265   -6.6305   -2.6500 H   0  0  0  0  0  0  0  0  0  0  0  0
    0.4271   -6.1339   -2.4561 H   0  0  0  0  0  0  0  0  0  0  0  0
    0.8998   -7.8180   -2.1427 H   0  0  0  0  0  0  0  0  0  0  0  0
    0.1465   -4.0844   -1.2440 H   0  0  0  0  0  0  0  0  0  0  0  0
  1  2  1  0
  1 17  1  0
  1 18  1  0
  1 19  1  0
  2  3  2  0
  2  6  1  0
  3  4  1  0
  4  5  2  0
  4 20  1  0
  5  6  1  0
  5 21  1  0
  6  7  1  0
  7  8  2  0
  7 16  1  0
  8  9  1  0
  8 22  1  0
  9 10  2  0
 10 11  1  0
 10 15  1  0
 11 12  1  1
 11 13  1  0
 11 14  1  0
 12 23  1  0
 12 24  1  0
 12 25  1  0
 13 26  1  0
 13 27  1  0
 13 28  1  0
 14 29  1  0
 14 30  1  0
 14 31  1  0
 15 16  2  0
 15 32  1  0
M  END

