
     RDKit          3D

 67 71  0  0  0  0  0  0  0  0999 V2000
    1.0969   -0.3851    0.3506 C   0  0  0  0  0  0  0  0  0  0  0  0
    2.5786   -0.1187    0.2533 C   0  0  0  0  0  0  0  0  0  0  0  0
    3.1605    1.1735    0.3182 C   0  0  0  0  0  0  0  0  0  0  0  0
    2.3273    2.4810    0.4927 B   0  0  0  0  0  0  0  0  0  0  0  0
    2.9164    3.7220    0.5375 O   0  0  0  0  0  0  0  0  0  0  0  0
    1.9154    4.6913    0.9247 C   0  0  2  0  0  0  0  0  0  0  0  0
    2.1713    5.9901    0.1639 C   0  0  0  0  0  0  0  0  0  0  0  0
    2.0788    4.9265    2.4316 C   0  0  0  0  0  0  0  0  0  0  0  0
    0.5688    3.9465    0.5486 C   0  0  2  0  0  0  0  0  0  0  0  0
    0.1113    4.2085   -0.8918 C   0  0  0  0  0  0  0  0  0  0  0  0
   -0.5912    4.1758    1.5142 C   0  0  0  0  0  0  0  0  0  0  0  0
    0.9617    2.5530    0.6179 O   0  0  0  0  0  0  0  0  0  0  0  0
    4.5690    1.3236    0.2205 C   0  0  0  0  0  0  0  0  0  0  0  0
    5.4328    0.2452    0.0577 C   0  0  0  0  0  0  0  0  0  0  0  0
    4.8729   -1.0380   -0.0085 C   0  0  0  0  0  0  0  0  0  0  0  0
    3.4727   -1.1803    0.0910 C   0  0  0  0  0  0  0  0  0  0  0  0
    3.1046   -2.5007    0.0066 O   0  0  0  0  0  0  0  0  0  0  0  0
    4.2595   -3.2276   -0.1483 C   0  0  0  0  0  0  0  0  0  0  0  0
    4.3077   -4.6186   -0.2734 C   0  0  0  0  0  0  0  0  0  0  0  0
    3.0334   -5.4254   -0.2436 C   0  0  0  0  0  0  0  0  0  0  0  0
    5.6015   -5.1802   -0.4249 C   0  0  0  0  0  0  0  0  0  0  0  0
    5.8578   -6.7120   -0.5755 B   0  0  0  0  0  0  0  0  0  0  0  0
    7.1246   -7.2331   -0.6870 O   0  0  0  0  0  0  0  0  0  0  0  0
    7.0163   -8.6331   -1.0332 C   0  0  2  0  0  0  0  0  0  0  0  0
    8.1270   -9.4012   -0.3209 C   0  0  0  0  0  0  0  0  0  0  0  0
    7.2014   -8.7347   -2.5528 C   0  0  0  0  0  0  0  0  0  0  0  0
    5.5462   -8.9805   -0.5567 C   0  0  2  0  0  0  0  0  0  0  0  0
    5.4751   -9.4472    0.9025 C   0  0  0  0  0  0  0  0  0  0  0  0
    4.7875   -9.9548   -1.4540 C   0  0  0  0  0  0  0  0  0  0  0  0
    4.8925   -7.6881   -0.6165 O   0  0  0  0  0  0  0  0  0  0  0  0
    6.7435   -4.3368   -0.4435 C   0  0  0  0  0  0  0  0  0  0  0  0
    6.6618   -2.9538   -0.3160 C   0  0  0  0  0  0  0  0  0  0  0  0
    5.3902   -2.3839   -0.1653 C   0  0  0  0  0  0  0  0  0  0  0  0
    0.5452    0.1398   -0.4438 H   0  0  0  0  0  0  0  0  0  0  0  0
    0.6875   -0.0120    1.3017 H   0  0  0  0  0  0  0  0  0  0  0  0
    0.8855   -1.4597    0.2744 H   0  0  0  0  0  0  0  0  0  0  0  0
    3.1338    6.4188    0.4813 H   0  0  0  0  0  0  0  0  0  0  0  0
    1.3837    6.7314    0.3723 H   0  0  0  0  0  0  0  0  0  0  0  0
    2.2202    5.8239   -0.9200 H   0  0  0  0  0  0  0  0  0  0  0  0
    3.1117    5.2489    2.6302 H   0  0  0  0  0  0  0  0  0  0  0  0
    1.8980    4.0054    3.0050 H   0  0  0  0  0  0  0  0  0  0  0  0
    1.3960    5.7067    2.8004 H   0  0  0  0  0  0  0  0  0  0  0  0
   -0.2749    5.2311   -1.0183 H   0  0  0  0  0  0  0  0  0  0  0  0
   -0.6937    3.5020   -1.1431 H   0  0  0  0  0  0  0  0  0  0  0  0
    0.9315    4.0544   -1.6084 H   0  0  0  0  0  0  0  0  0  0  0  0
   -0.8692    5.2410    1.5489 H   0  0  0  0  0  0  0  0  0  0  0  0
   -0.3465    3.8435    2.5315 H   0  0  0  0  0  0  0  0  0  0  0  0
   -1.4705    3.6063    1.1773 H   0  0  0  0  0  0  0  0  0  0  0  0
    4.9797    2.3341    0.2772 H   0  0  0  0  0  0  0  0  0  0  0  0
    6.5127    0.3942   -0.0150 H   0  0  0  0  0  0  0  0  0  0  0  0
    2.1583   -4.7726   -0.1292 H   0  0  0  0  0  0  0  0  0  0  0  0
    3.0418   -6.1513    0.5837 H   0  0  0  0  0  0  0  0  0  0  0  0
    2.9157   -6.0161   -1.1646 H   0  0  0  0  0  0  0  0  0  0  0  0
    9.1051   -9.0730   -0.7040 H   0  0  0  0  0  0  0  0  0  0  0  0
    8.0368  -10.4838   -0.5022 H   0  0  0  0  0  0  0  0  0  0  0  0
    8.1160   -9.2236    0.7624 H   0  0  0  0  0  0  0  0  0  0  0  0
    8.1679   -8.2844   -2.8237 H   0  0  0  0  0  0  0  0  0  0  0  0
    6.4132   -8.1882   -3.0913 H   0  0  0  0  0  0  0  0  0  0  0  0
    7.1986   -9.7802   -2.8960 H   0  0  0  0  0  0  0  0  0  0  0  0
    5.8887  -10.4590    1.0289 H   0  0  0  0  0  0  0  0  0  0  0  0
    4.4217   -9.4633    1.2197 H   0  0  0  0  0  0  0  0  0  0  0  0
    6.0182   -8.7629    1.5708 H   0  0  0  0  0  0  0  0  0  0  0  0
    5.3005  -10.9283   -1.4985 H   0  0  0  0  0  0  0  0  0  0  0  0
    4.6794   -9.5680   -2.4758 H   0  0  0  0  0  0  0  0  0  0  0  0
    3.7777  -10.1210   -1.0492 H   0  0  0  0  0  0  0  0  0  0  0  0
    7.7228   -4.8055   -0.5641 H   0  0  0  0  0  0  0  0  0  0  0  0
    7.5602   -2.3324   -0.3341 H   0  0  0  0  0  0  0  0  0  0  0  0
  1  2  1  0
  1 34  1  0
  1 35  1  0
  1 36  1  0
  2  3  2  0
  2 16  1  0
  3  4  1  0
  3 13  1  0
  4  5  1  0
  4 12  1  0
  5  6  1  0
  6  7  1  6
  6  8  1  0
  6  9  1  0
  7 37  1  0
  7 38  1  0
  7 39  1  0
  8 40  1  0
  8 41  1  0
  8 42  1  0
  9 10  1  6
  9 11  1  0
  9 12  1  0
 10 43  1  0
 10 44  1  0
 10 45  1  0
 11 46  1  0
 11 47  1  0
 11 48  1  0
 13 14  2  0
 13 49  1  0
 14 15  1  0
 14 50  1  0
 15 16  2  0
 15 33  1  0
 16 17  1  0
 17 18  1  0
 18 19  1  0
 18 33  2  0
 19 20  1  0
 19 21  2  0
 20 51  1  0
 20 52  1  0
 20 53  1  0
 21 22  1  0
 21 31  1  0
 22 23  1  0
 22 30  1  0
 23 24  1  0
 24 25  1  1
 24 26  1  0
 24 27  1  0
 25 54  1  0
 25 55  1  0
 25 56  1  0
 26 57  1  0
 26 58  1  0
 26 59  1  0
 27 28  1  1
 27 29  1  0
 27 30  1  0
 28 60  1  0
 28 61  1  0
 28 62  1  0
 29 63  1  0
 29 64  1  0
 29 65  1  0
 31 32  2  0
 31 66  1  0
 32 33  1  0
 32 67  1  0
M  END

