
     RDKit          3D

 77 84  0  0  0  0  0  0  0  0999 V2000
    3.7065   -4.2126    0.7886 C   0  0  0  0  0  0  0  0  0  0  0  0
    4.5648   -3.1604    0.9237 C   0  0  0  0  0  0  0  0  0  0  0  0
    5.9919   -3.2608    0.9219 C   0  0  0  0  0  0  0  0  0  0  0  0
    6.9816   -2.2888    1.0842 C   0  0  0  0  0  0  0  0  0  0  0  0
    6.9160   -0.8693    1.1384 C   0  0  0  0  0  0  0  0  0  0  0  0
    5.7629   -0.1472    0.7032 C   0  0  0  0  0  0  0  0  0  0  0  0
    5.6461    1.5502    0.7542 P   0  0  1  0  0  0  0  0  0  0  0  0
    4.9308    2.3580   -0.3012 O   0  0  0  0  0  0  0  0  0  0  0  0
    4.7605    2.2268    2.2280 C   0  0  0  0  0  0  0  0  0  0  0  0
    4.8139    3.6372    2.4781 C   0  0  0  0  0  0  0  0  0  0  0  0
    4.1138    4.2222    3.5114 C   0  0  0  0  0  0  0  0  0  0  0  0
    3.2955    3.3810    4.3087 C   0  0  0  0  0  0  0  0  0  0  0  0
    3.2035    1.9660    4.0525 C   0  0  0  0  0  0  0  0  0  0  0  0
    3.9255    1.4048    3.0124 C   0  0  0  0  0  0  0  0  0  0  0  0
    2.2956    1.4300    5.0549 C   0  0  0  0  0  0  0  0  0  0  0  0
    1.8126    0.1537    5.3230 C   0  0  0  0  0  0  0  0  0  0  0  0
    0.9161   -0.0250    6.3939 C   0  0  0  0  0  0  0  0  0  0  0  0
    0.2155   -1.6572    6.8332 P   0  0  1  0  0  0  0  0  0  0  0  0
   -0.6181   -1.5634    8.0676 O   0  0  0  0  0  0  0  0  0  0  0  0
   -0.5667   -1.9779    5.4221 O   0  0  0  0  0  0  0  0  0  0  0  0
   -0.9820   -3.2494    5.0445 C   0  0  0  0  0  0  0  0  0  0  0  0
   -2.3315   -3.5879    5.1253 C   0  0  0  0  0  0  0  0  0  0  0  0
   -2.7415   -4.8491    4.6833 C   0  0  0  0  0  0  0  0  0  0  0  0
   -1.8039   -5.7501    4.1706 C   0  0  0  0  0  0  0  0  0  0  0  0
   -0.4536   -5.3924    4.1001 C   0  0  0  0  0  0  0  0  0  0  0  0
   -0.0202   -4.1344    4.5355 C   0  0  0  0  0  0  0  0  0  0  0  0
    1.4292   -3.6957    4.4995 C   0  0  0  0  0  0  0  0  0  0  0  0
    2.0663   -3.6641    5.8820 C   0  0  0  0  0  0  0  0  0  0  0  0
    3.1574   -4.5065    6.1441 C   0  0  0  0  0  0  0  0  0  0  0  0
    3.7431   -4.5759    7.4103 C   0  0  0  0  0  0  0  0  0  0  0  0
    3.2324   -3.8112    8.4609 C   0  0  0  0  0  0  0  0  0  0  0  0
    2.1476   -2.9666    8.2265 C   0  0  0  0  0  0  0  0  0  0  0  0
    1.5721   -2.8690    6.9465 C   0  0  0  0  0  0  0  0  0  0  0  0
    0.5236    1.0693    7.1774 C   0  0  0  0  0  0  0  0  0  0  0  0
    0.9998    2.3661    6.9176 C   0  0  0  0  0  0  0  0  0  0  0  0
    1.8824    2.5244    5.8539 C   0  0  0  0  0  0  0  0  0  0  0  0
    2.5035    3.6959    5.3709 N   0  0  0  0  0  0  0  0  0  0  0  0
    2.3553    5.0208    5.9673 C   0  0  0  0  0  0  0  0  0  0  0  0
    3.3431    5.2831    7.1058 C   0  0  0  0  0  0  0  0  0  0  0  0
    7.1702    2.0899    1.0450 O   0  0  0  0  0  0  0  0  0  0  0  0
    8.2076    1.2936    1.4950 C   0  0  0  0  0  0  0  0  0  0  0  0
    9.3627    1.9906    1.8579 C   0  0  0  0  0  0  0  0  0  0  0  0
   10.4655    1.3141    2.3762 C   0  0  0  0  0  0  0  0  0  0  0  0
   10.3886   -0.0725    2.5453 C   0  0  0  0  0  0  0  0  0  0  0  0
    9.2355   -0.7585    2.1747 C   0  0  0  0  0  0  0  0  0  0  0  0
    8.1074   -0.1198    1.6025 C   0  0  0  0  0  0  0  0  0  0  0  0
    2.6237   -4.0698    0.7936 H   0  0  0  0  0  0  0  0  0  0  0  0
    4.0756   -5.2321    0.6372 H   0  0  0  0  0  0  0  0  0  0  0  0
    4.1244   -2.1693    1.0632 H   0  0  0  0  0  0  0  0  0  0  0  0
    6.3694   -4.2864    0.8259 H   0  0  0  0  0  0  0  0  0  0  0  0
    7.9872   -2.7079    1.1517 H   0  0  0  0  0  0  0  0  0  0  0  0
    4.9844   -0.6533    0.1352 H   0  0  0  0  0  0  0  0  0  0  0  0
    5.4366    4.2517    1.8263 H   0  0  0  0  0  0  0  0  0  0  0  0
    4.1860    5.2937    3.7022 H   0  0  0  0  0  0  0  0  0  0  0  0
    3.8874    0.3344    2.8026 H   0  0  0  0  0  0  0  0  0  0  0  0
    2.1334   -0.6924    4.7138 H   0  0  0  0  0  0  0  0  0  0  0  0
   -3.0386   -2.8615    5.5297 H   0  0  0  0  0  0  0  0  0  0  0  0
   -3.7969   -5.1261    4.7415 H   0  0  0  0  0  0  0  0  0  0  0  0
   -2.1235   -6.7352    3.8227 H   0  0  0  0  0  0  0  0  0  0  0  0
    0.2780   -6.0975    3.6965 H   0  0  0  0  0  0  0  0  0  0  0  0
    1.4823   -2.6996    4.0288 H   0  0  0  0  0  0  0  0  0  0  0  0
    2.0086   -4.3668    3.8516 H   0  0  0  0  0  0  0  0  0  0  0  0
    3.5519   -5.1248    5.3341 H   0  0  0  0  0  0  0  0  0  0  0  0
    4.5945   -5.2407    7.5761 H   0  0  0  0  0  0  0  0  0  0  0  0
    3.6715   -3.8749    9.4593 H   0  0  0  0  0  0  0  0  0  0  0  0
    1.7240   -2.3771    9.0430 H   0  0  0  0  0  0  0  0  0  0  0  0
   -0.1684    0.8905    8.0035 H   0  0  0  0  0  0  0  0  0  0  0  0
    0.6776    3.2045    7.5372 H   0  0  0  0  0  0  0  0  0  0  0  0
    1.3170    5.1081    6.3201 H   0  0  0  0  0  0  0  0  0  0  0  0
    2.4763    5.7622    5.1647 H   0  0  0  0  0  0  0  0  0  0  0  0
    3.2156    4.5578    7.9233 H   0  0  0  0  0  0  0  0  0  0  0  0
    3.1765    6.2916    7.5135 H   0  0  0  0  0  0  0  0  0  0  0  0
    4.3832    5.2233    6.7514 H   0  0  0  0  0  0  0  0  0  0  0  0
    9.3653    3.0744    1.7261 H   0  0  0  0  0  0  0  0  0  0  0  0
   11.3655    1.8654    2.6584 H   0  0  0  0  0  0  0  0  0  0  0  0
   11.2291   -0.6240    2.9740 H   0  0  0  0  0  0  0  0  0  0  0  0
    9.1975   -1.8343    2.3421 H   0  0  0  0  0  0  0  0  0  0  0  0
  1  2  2  0
  1 47  1  0
  1 48  1  0
  2  3  1  0
  2 49  1  0
  3  4  2  0
  3 50  1  0
  4  5  1  0
  4 51  1  0
  5  6  2  0
  5 46  1  0
  6  7  1  0
  6 52  1  0
  7  8  2  0
  7  9  1  1
  7 40  1  0
  9 10  2  0
  9 14  1  0
 10 11  1  0
 10 53  1  0
 11 12  2  0
 11 54  1  0
 12 13  1  0
 12 37  1  0
 13 14  2  0
 13 15  1  0
 14 55  1  0
 15 16  2  0
 15 36  1  0
 16 17  1  0
 16 56  1  0
 18 17  1  6
 17 34  2  0
 18 19  2  0
 18 20  1  0
 18 33  1  0
 20 21  1  0
 21 22  1  0
 21 26  2  0
 22 23  2  0
 22 57  1  0
 23 24  1  0
 23 58  1  0
 24 25  2  0
 24 59  1  0
 25 26  1  0
 25 60  1  0
 26 27  1  0
 27 28  1  0
 27 61  1  0
 27 62  1  0
 28 29  1  0
 28 33  2  0
 29 30  2  0
 29 63  1  0
 30 31  1  0
 30 64  1  0
 31 32  2  0
 31 65  1  0
 32 33  1  0
 32 66  1  0
 34 35  1  0
 34 67  1  0
 35 36  2  0
 35 68  1  0
 36 37  1  0
 37 38  1  0
 38 39  1  0
 38 69  1  0
 38 70  1  0
 39 71  1  0
 39 72  1  0
 39 73  1  0
 40 41  1  0
 41 42  1  0
 41 46  2  0
 42 43  2  0
 42 74  1  0
 43 44  1  0
 43 75  1  0
 44 45  2  0
 44 76  1  0
 45 46  1  0
 45 77  1  0
M  END

