
     RDKit          3D

111119  0  0  0  0  0  0  0  0999 V2000
    3.5928   -6.5125   -5.2151 C   0  0  0  0  0  0  0  0  0  0  0  0
    4.8151   -5.7536   -4.6971 C   0  0  0  0  0  0  0  0  0  0  0  0
    4.5042   -4.3197   -4.2543 C   0  0  0  0  0  0  0  0  0  0  0  0
    5.7316   -3.5671   -3.7297 C   0  0  0  0  0  0  0  0  0  0  0  0
    5.4936   -2.0853   -3.3855 C   0  0  1  0  0  0  0  0  0  0  0  0
    4.4311   -1.8484   -2.2881 C   0  0  0  0  0  0  0  0  0  0  0  0
    4.7057   -2.4925   -0.9249 C   0  0  0  0  0  0  0  0  0  0  0  0
    6.8121   -1.3635   -3.0239 C   0  0  0  0  0  0  0  0  0  0  0  0
    7.7860   -1.2829   -4.0997 N   0  0  0  0  0  0  0  0  0  0  0  0
    8.9357   -2.0588   -4.2410 C   0  0  0  0  0  0  0  0  0  0  0  0
    9.4197   -3.0967   -3.4331 C   0  0  0  0  0  0  0  0  0  0  0  0
   10.6190   -3.7078   -3.8017 C   0  0  0  0  0  0  0  0  0  0  0  0
   11.3265   -3.3054   -4.9501 C   0  0  0  0  0  0  0  0  0  0  0  0
   10.8432   -2.2736   -5.7536 C   0  0  0  0  0  0  0  0  0  0  0  0
    9.6428   -1.6399   -5.4030 C   0  0  0  0  0  0  0  0  0  0  0  0
    8.8767   -0.5532   -5.9814 C   0  0  0  0  0  0  0  0  0  0  0  0
    9.0608    0.2657   -7.0984 C   0  0  0  0  0  0  0  0  0  0  0  0
    8.1324    1.2815   -7.3838 C   0  0  0  0  0  0  0  0  0  0  0  0
    8.3107    2.2007   -8.5352 C   0  0  0  0  0  0  0  0  0  0  0  0
    7.9714    3.5676   -8.4350 C   0  0  0  0  0  0  0  0  0  0  0  0
    8.1228    4.4032   -9.5284 C   0  0  0  0  0  0  0  0  0  0  0  0
    8.6131    3.9604  -10.7662 C   0  0  0  0  0  0  0  0  0  0  0  0
    8.9585    2.6127  -10.8896 C   0  0  0  0  0  0  0  0  0  0  0  0
    8.8019    1.7738   -9.7880 C   0  0  0  0  0  0  0  0  0  0  0  0
    9.1302    0.4835   -9.9562 F   0  0  0  0  0  0  0  0  0  0  0  0
    8.6887    5.0311  -11.7774 C   0  0  0  0  0  0  0  0  0  0  0  0
    9.1253    4.9556  -13.1019 C   0  0  0  0  0  0  0  0  0  0  0  0
    9.1095    6.1096  -13.8830 C   0  0  0  0  0  0  0  0  0  0  0  0
    9.5182    5.9872  -15.1554 F   0  0  0  0  0  0  0  0  0  0  0  0
    8.6772    7.3703  -13.4181 C   0  0  0  0  0  0  0  0  0  0  0  0
    8.6449    8.5790  -14.2787 C   0  0  0  0  0  0  0  0  0  0  0  0
    9.6815    8.8563  -15.2058 C   0  0  0  0  0  0  0  0  0  0  0  0
    9.6797   10.0011  -15.9975 C   0  0  0  0  0  0  0  0  0  0  0  0
    8.6095   10.8984  -15.8693 C   0  0  0  0  0  0  0  0  0  0  0  0
    7.5574   10.6465  -14.9449 C   0  0  0  0  0  0  0  0  0  0  0  0
    7.5831    9.4914  -14.1590 C   0  0  0  0  0  0  0  0  0  0  0  0
    6.6388   11.7624  -15.0539 C   0  0  0  0  0  0  0  0  0  0  0  0
    5.4397   12.0964  -14.4091 C   0  0  0  0  0  0  0  0  0  0  0  0
    4.7983   13.2887  -14.7419 C   0  0  0  0  0  0  0  0  0  0  0  0
    5.3484   14.1482  -15.7110 C   0  0  0  0  0  0  0  0  0  0  0  0
    6.5394   13.8379  -16.3689 C   0  0  0  0  0  0  0  0  0  0  0  0
    7.1817   12.6370  -16.0375 C   0  0  0  0  0  0  0  0  0  0  0  0
    8.3701   12.0958  -16.5261 N   0  0  0  0  0  0  0  0  0  0  0  0
    9.2426   12.6733  -17.5365 C   0  0  0  0  0  0  0  0  0  0  0  0
    9.1411   12.0153  -18.9330 C   0  0  1  0  0  0  0  0  0  0  0  0
    7.7744   12.2568  -19.6108 C   0  0  0  0  0  0  0  0  0  0  0  0
    7.5213   13.6721  -20.1400 C   0  0  0  0  0  0  0  0  0  0  0  0
   10.3267   12.4336  -19.8269 C   0  0  0  0  0  0  0  0  0  0  0  0
   11.6702   11.7797  -19.4813 C   0  0  0  0  0  0  0  0  0  0  0  0
   12.8147   12.2078  -20.4063 C   0  0  0  0  0  0  0  0  0  0  0  0
   14.1502   11.5396  -20.0769 C   0  0  0  0  0  0  0  0  0  0  0  0
    8.2447    7.4219  -12.0752 C   0  0  0  0  0  0  0  0  0  0  0  0
    8.2548    6.2763  -11.2976 C   0  0  0  0  0  0  0  0  0  0  0  0
    7.7466    6.1658   -9.5712 S   0  0  1  0  0  0  0  0  0  0  0  0
    6.3019    6.3871   -9.4448 O   0  0  0  0  0  0  0  0  0  0  0  0
    8.6691    6.9130   -8.7101 O   0  0  0  0  0  0  0  0  0  0  0  0
    7.0148    1.4454   -6.5265 C   0  0  0  0  0  0  0  0  0  0  0  0
    6.8050    0.6369   -5.4128 C   0  0  0  0  0  0  0  0  0  0  0  0
    7.7442   -0.3672   -5.1394 C   0  0  0  0  0  0  0  0  0  0  0  0
    3.8536   -7.5372   -5.5244 H   0  0  0  0  0  0  0  0  0  0  0  0
    3.1459   -6.0061   -6.0872 H   0  0  0  0  0  0  0  0  0  0  0  0
    2.8091   -6.5880   -4.4424 H   0  0  0  0  0  0  0  0  0  0  0  0
    5.5950   -5.7298   -5.4796 H   0  0  0  0  0  0  0  0  0  0  0  0
    5.2603   -6.3059   -3.8493 H   0  0  0  0  0  0  0  0  0  0  0  0
    3.7150   -4.3485   -3.4818 H   0  0  0  0  0  0  0  0  0  0  0  0
    4.0712   -3.7621   -5.1059 H   0  0  0  0  0  0  0  0  0  0  0  0
    6.5271   -3.6220   -4.4918 H   0  0  0  0  0  0  0  0  0  0  0  0
    6.1330   -4.0945   -2.8447 H   0  0  0  0  0  0  0  0  0  0  0  0
    5.1084   -1.5973   -4.2994 H   0  0  0  0  0  0  0  0  0  0  0  0
    3.4560   -2.2022   -2.6615 H   0  0  0  0  0  0  0  0  0  0  0  0
    4.3116   -0.7583   -2.1535 H   0  0  0  0  0  0  0  0  0  0  0  0
    4.7632   -3.5906   -0.9914 H   0  0  0  0  0  0  0  0  0  0  0  0
    3.8997   -2.2514   -0.2139 H   0  0  0  0  0  0  0  0  0  0  0  0
    5.6479   -2.1378   -0.4762 H   0  0  0  0  0  0  0  0  0  0  0  0
    7.2999   -1.8585   -2.1713 H   0  0  0  0  0  0  0  0  0  0  0  0
    6.5844   -0.3351   -2.6950 H   0  0  0  0  0  0  0  0  0  0  0  0
    8.8815   -3.4285   -2.5436 H   0  0  0  0  0  0  0  0  0  0  0  0
   11.0138   -4.5188   -3.1844 H   0  0  0  0  0  0  0  0  0  0  0  0
   12.2611   -3.8071   -5.2113 H   0  0  0  0  0  0  0  0  0  0  0  0
   11.3931   -1.9600   -6.6446 H   0  0  0  0  0  0  0  0  0  0  0  0
    9.9342    0.1248   -7.7356 H   0  0  0  0  0  0  0  0  0  0  0  0
    7.6097    3.9665   -7.4855 H   0  0  0  0  0  0  0  0  0  0  0  0
    9.3392    2.1870  -11.8197 H   0  0  0  0  0  0  0  0  0  0  0  0
    9.4702    4.0241  -13.5541 H   0  0  0  0  0  0  0  0  0  0  0  0
   10.5146    8.1593  -15.2979 H   0  0  0  0  0  0  0  0  0  0  0  0
   10.4997   10.1833  -16.6938 H   0  0  0  0  0  0  0  0  0  0  0  0
    6.7632    9.2901  -13.4656 H   0  0  0  0  0  0  0  0  0  0  0  0
    5.0147   11.4318  -13.6526 H   0  0  0  0  0  0  0  0  0  0  0  0
    3.8636   13.5612  -14.2466 H   0  0  0  0  0  0  0  0  0  0  0  0
    4.8337   15.0807  -15.9565 H   0  0  0  0  0  0  0  0  0  0  0  0
    6.9477   14.5175  -17.1181 H   0  0  0  0  0  0  0  0  0  0  0  0
   10.2778   12.5991  -17.1666 H   0  0  0  0  0  0  0  0  0  0  0  0
    9.0210   13.7489  -17.6028 H   0  0  0  0  0  0  0  0  0  0  0  0
    9.2200   10.9254  -18.7728 H   0  0  0  0  0  0  0  0  0  0  0  0
    6.9745   11.9800  -18.9035 H   0  0  0  0  0  0  0  0  0  0  0  0
    7.6845   11.5463  -20.4512 H   0  0  0  0  0  0  0  0  0  0  0  0
    7.6076   14.4392  -19.3533 H   0  0  0  0  0  0  0  0  0  0  0  0
    6.5044   13.7526  -20.5552 H   0  0  0  0  0  0  0  0  0  0  0  0
    8.2247   13.9452  -20.9422 H   0  0  0  0  0  0  0  0  0  0  0  0
   10.4407   13.5333  -19.8071 H   0  0  0  0  0  0  0  0  0  0  0  0
   10.0790   12.1822  -20.8735 H   0  0  0  0  0  0  0  0  0  0  0  0
   11.5592   10.6803  -19.5266 H   0  0  0  0  0  0  0  0  0  0  0  0
   11.9537   12.0100  -18.4380 H   0  0  0  0  0  0  0  0  0  0  0  0
   12.9290   13.3061  -20.3569 H   0  0  0  0  0  0  0  0  0  0  0  0
   12.5371   11.9833  -21.4523 H   0  0  0  0  0  0  0  0  0  0  0  0
   14.4748   11.7753  -19.0494 H   0  0  0  0  0  0  0  0  0  0  0  0
   14.9477   11.8707  -20.7608 H   0  0  0  0  0  0  0  0  0  0  0  0
   14.0796   10.4417  -20.1554 H   0  0  0  0  0  0  0  0  0  0  0  0
    7.9231    8.3733  -11.6475 H   0  0  0  0  0  0  0  0  0  0  0  0
    6.2762    2.2159   -6.7582 H   0  0  0  0  0  0  0  0  0  0  0  0
    5.9255    0.7872   -4.7847 H   0  0  0  0  0  0  0  0  0  0  0  0
  1  2  1  0
  1 60  1  0
  1 61  1  0
  1 62  1  0
  2  3  1  0
  2 63  1  0
  2 64  1  0
  3  4  1  0
  3 65  1  0
  3 66  1  0
  4  5  1  0
  4 67  1  0
  4 68  1  0
  5  6  1  0
  5  8  1  0
  5 69  1  6
  6  7  1  0
  6 70  1  0
  6 71  1  0
  7 72  1  0
  7 73  1  0
  7 74  1  0
  8  9  1  0
  8 75  1  0
  8 76  1  0
  9 10  1  0
  9 59  1  0
 10 11  2  0
 10 15  1  0
 11 12  1  0
 11 77  1  0
 12 13  2  0
 12 78  1  0
 13 14  1  0
 13 79  1  0
 14 15  2  0
 14 80  1  0
 15 16  1  0
 16 17  1  0
 16 59  2  0
 17 18  2  0
 17 81  1  0
 18 19  1  0
 18 57  1  0
 19 20  2  0
 19 24  1  0
 20 21  1  0
 20 82  1  0
 21 22  2  0
 54 21  1  1
 22 23  1  0
 22 26  1  0
 23 24  2  0
 23 83  1  0
 24 25  1  0
 26 27  2  0
 26 53  1  0
 27 28  1  0
 27 84  1  0
 28 29  1  0
 28 30  2  0
 30 31  1  0
 30 52  1  0
 31 32  2  0
 31 36  1  0
 32 33  1  0
 32 85  1  0
 33 34  2  0
 33 86  1  0
 34 35  1  0
 34 43  1  0
 35 36  2  0
 35 37  1  0
 36 87  1  0
 37 38  2  0
 37 42  1  0
 38 39  1  0
 38 88  1  0
 39 40  2  0
 39 89  1  0
 40 41  1  0
 40 90  1  0
 41 42  2  0
 41 91  1  0
 42 43  1  0
 43 44  1  0
 44 45  1  0
 44 92  1  0
 44 93  1  0
 45 46  1  0
 45 48  1  0
 45 94  1  1
 46 47  1  0
 46 95  1  0
 46 96  1  0
 47 97  1  0
 47 98  1  0
 47 99  1  0
 48 49  1  0
 48100  1  0
 48101  1  0
 49 50  1  0
 49102  1  0
 49103  1  0
 50 51  1  0
 50104  1  0
 50105  1  0
 51106  1  0
 51107  1  0
 51108  1  0
 52 53  2  0
 52109  1  0
 53 54  1  0
 54 55  2  0
 54 56  2  0
 57 58  2  0
 57110  1  0
 58 59  1  0
 58111  1  0
M  END

