
     RDKit          3D

 48 50  0  0  0  0  0  0  0  0999 V2000
    0.8662   -0.4341    0.2843 C   0  0  0  0  0  0  0  0  0  0  0  0
    2.0913   -0.1228   -0.5347 C   0  0  0  0  0  0  0  0  0  0  0  0
    2.8473    1.0388   -0.3299 C   0  0  0  0  0  0  0  0  0  0  0  0
    3.9887    1.3071   -1.1070 C   0  0  0  0  0  0  0  0  0  0  0  0
    4.7822    2.4627   -0.9365 N   0  0  0  0  0  0  0  0  0  0  0  0
    4.6287    3.4980   -0.0486 C   0  0  0  0  0  0  0  0  0  0  0  0
    3.7280    3.5767    0.7693 O   0  0  0  0  0  0  0  0  0  0  0  0
    5.7022    4.5841   -0.1492 C   0  0  1  0  0  0  0  0  0  0  0  0
    6.3788    4.3914   -0.9995 H   0  0  0  0  0  0  0  0  0  0  0  0
    5.1064    5.9988   -0.2739 C   0  0  0  0  0  0  0  0  0  0  0  0
    6.2425    6.9130    0.1939 C   0  0  0  0  0  0  0  0  0  0  0  0
    6.9884    6.0763    1.1334 N   0  0  0  0  0  0  0  0  0  0  0  0
    7.9937    6.6246    1.8870 C   0  0  0  0  0  0  0  0  0  0  0  0
    8.2834    7.8596    1.7721 O   0  0  0  0  0  0  0  0  0  0  0  0
    8.7598    5.8276    2.8447 C   0  0  0  0  0  0  0  0  0  0  0  0
    8.5702    4.5850    3.0496 O   0  0  0  0  0  0  0  0  0  0  0  0
    9.7330    6.5158    3.5243 N   0  0  0  0  0  0  0  0  0  0  0  0
   10.4394    5.9879    4.6654 C   0  0  1  0  0  0  0  0  0  0  0  0
   10.6480    4.9242    4.4703 H   0  0  0  0  0  0  0  0  0  0  0  0
   11.7492    6.7288    4.9654 C   0  0  0  0  0  0  0  0  0  0  0  0
   12.0146    6.3359    6.4226 C   0  0  0  0  0  0  0  0  0  0  0  0
   10.7451    6.0334    7.0023 O   0  0  0  0  0  0  0  0  0  0  0  0
    9.7231    6.1097    6.0282 C   0  0  0  0  0  0  0  0  0  0  0  0
    6.5385    4.6875    1.1460 C   0  0  0  0  0  0  0  0  0  0  0  0
    4.3739    0.3944   -2.1032 C   0  0  0  0  0  0  0  0  0  0  0  0
    3.6319   -0.7660   -2.3191 C   0  0  0  0  0  0  0  0  0  0  0  0
    2.5083   -1.0066   -1.5369 C   0  0  0  0  0  0  0  0  0  0  0  0
    1.7931   -2.1280   -1.7474 F   0  0  0  0  0  0  0  0  0  0  0  0
    0.6724    0.3580    1.0207 H   0  0  0  0  0  0  0  0  0  0  0  0
    0.9802   -1.3887    0.8237 H   0  0  0  0  0  0  0  0  0  0  0  0
   -0.0248   -0.5391   -0.3561 H   0  0  0  0  0  0  0  0  0  0  0  0
    2.5558    1.7502    0.4396 H   0  0  0  0  0  0  0  0  0  0  0  0
    5.5795    2.5275   -1.5577 H   0  0  0  0  0  0  0  0  0  0  0  0
    4.2416    6.0686    0.4037 H   0  0  0  0  0  0  0  0  0  0  0  0
    4.7641    6.2330   -1.2927 H   0  0  0  0  0  0  0  0  0  0  0  0
    5.8832    7.8317    0.6855 H   0  0  0  0  0  0  0  0  0  0  0  0
    6.8916    7.2318   -0.6439 H   0  0  0  0  0  0  0  0  0  0  0  0
    9.6688    7.5251    3.3873 H   0  0  0  0  0  0  0  0  0  0  0  0
   11.5813    7.8164    4.8759 H   0  0  0  0  0  0  0  0  0  0  0  0
   12.5673    6.4568    4.2827 H   0  0  0  0  0  0  0  0  0  0  0  0
   12.5038    7.1420    6.9963 H   0  0  0  0  0  0  0  0  0  0  0  0
   12.6626    5.4416    6.4854 H   0  0  0  0  0  0  0  0  0  0  0  0
    9.1852    7.0798    6.0780 H   0  0  0  0  0  0  0  0  0  0  0  0
    8.9917    5.3037    6.1991 H   0  0  0  0  0  0  0  0  0  0  0  0
    5.9019    4.4696    2.0217 H   0  0  0  0  0  0  0  0  0  0  0  0
    7.3828    3.9841    1.1619 H   0  0  0  0  0  0  0  0  0  0  0  0
    5.2596    0.5894   -2.7148 H   0  0  0  0  0  0  0  0  0  0  0  0
    3.9148   -1.4878   -3.0875 H   0  0  0  0  0  0  0  0  0  0  0  0
  1  2  1  0
  1 29  1  0
  1 30  1  0
  1 31  1  0
  2  3  2  0
  2 27  1  0
  3  4  1  0
  3 32  1  0
  4  5  1  0
  4 25  2  0
  5  6  1  0
  5 33  1  0
  6  7  2  0
  6  8  1  0
  8  9  1  6
  8 10  1  0
  8 24  1  0
 10 11  1  0
 10 34  1  0
 10 35  1  0
 11 12  1  0
 11 36  1  0
 11 37  1  0
 12 13  1  0
 12 24  1  0
 13 14  2  0
 13 15  1  0
 15 16  2  0
 15 17  1  0
 17 18  1  0
 17 38  1  0
 18 19  1  1
 18 20  1  0
 18 23  1  0
 20 21  1  0
 20 39  1  0
 20 40  1  0
 21 22  1  0
 21 41  1  0
 21 42  1  0
 22 23  1  0
 23 43  1  0
 23 44  1  0
 24 45  1  0
 24 46  1  0
 25 26  1  0
 25 47  1  0
 26 27  2  0
 26 48  1  0
 27 28  1  0
M  END

