
     RDKit          3D

 49 48  0  0  0  0  0  0  0  0999 V2000
    1.3059   -1.0186   -2.2797 C   0  0  0  0  0  0  0  0  0  0  0  0
    2.7650   -0.7083   -1.9387 C   0  0  0  0  0  0  0  0  0  0  0  0
    2.9956    0.6302   -1.2153 C   0  0  1  0  0  0  0  0  0  0  0  0
    2.4087    0.6425    0.2025 C   0  0  0  0  0  0  0  0  0  0  0  0
    4.4950    0.9835   -1.1547 C   0  0  0  0  0  0  0  0  0  0  0  0
    5.1446    1.2055   -2.4469 N   0  0  0  0  0  0  0  0  0  0  0  0
    4.8358    2.5308   -2.9902 C   0  0  0  0  0  0  0  0  0  0  0  0
    5.0207    2.6749   -4.5062 C   0  0  0  0  0  0  0  0  0  0  0  0
    4.1254    1.7868   -5.3907 C   0  0  1  0  0  0  0  0  0  0  0  0
    2.6391    2.1496   -5.2727 C   0  0  0  0  0  0  0  0  0  0  0  0
    4.5822    1.8525   -6.8541 C   0  0  0  0  0  0  0  0  0  0  0  0
    6.5878    0.9556   -2.3868 C   0  0  0  0  0  0  0  0  0  0  0  0
    6.9863   -0.5254   -2.3531 C   0  0  0  0  0  0  0  0  0  0  0  0
    6.6651   -1.3432   -3.6188 C   0  0  1  0  0  0  0  0  0  0  0  0
    7.5117   -0.9123   -4.8242 C   0  0  0  0  0  0  0  0  0  0  0  0
    6.8372   -2.8432   -3.3478 C   0  0  0  0  0  0  0  0  0  0  0  0
    1.2219   -1.9675   -2.8335 H   0  0  0  0  0  0  0  0  0  0  0  0
    0.8673   -0.2284   -2.9126 H   0  0  0  0  0  0  0  0  0  0  0  0
    0.6743   -1.1098   -1.3812 H   0  0  0  0  0  0  0  0  0  0  0  0
    3.3598   -0.6979   -2.8659 H   0  0  0  0  0  0  0  0  0  0  0  0
    3.1821   -1.5234   -1.3173 H   0  0  0  0  0  0  0  0  0  0  0  0
    2.4783    1.4173   -1.7954 H   0  0  0  0  0  0  0  0  0  0  0  0
    2.8961   -0.1174    0.8381 H   0  0  0  0  0  0  0  0  0  0  0  0
    1.3290    0.4294    0.2015 H   0  0  0  0  0  0  0  0  0  0  0  0
    2.5505    1.6215    0.6888 H   0  0  0  0  0  0  0  0  0  0  0  0
    5.0082    0.1513   -0.6469 H   0  0  0  0  0  0  0  0  0  0  0  0
    4.6330    1.8692   -0.4919 H   0  0  0  0  0  0  0  0  0  0  0  0
    5.4433    3.3149   -2.4805 H   0  0  0  0  0  0  0  0  0  0  0  0
    3.7902    2.7637   -2.7406 H   0  0  0  0  0  0  0  0  0  0  0  0
    6.0761    2.4867   -4.7686 H   0  0  0  0  0  0  0  0  0  0  0  0
    4.8434    3.7358   -4.7642 H   0  0  0  0  0  0  0  0  0  0  0  0
    4.2497    0.7471   -5.0406 H   0  0  0  0  0  0  0  0  0  0  0  0
    2.4599    3.1909   -5.5936 H   0  0  0  0  0  0  0  0  0  0  0  0
    2.2657    2.0480   -4.2421 H   0  0  0  0  0  0  0  0  0  0  0  0
    2.0205    1.4961   -5.9092 H   0  0  0  0  0  0  0  0  0  0  0  0
    4.5020    2.8801   -7.2500 H   0  0  0  0  0  0  0  0  0  0  0  0
    3.9674    1.2014   -7.4969 H   0  0  0  0  0  0  0  0  0  0  0  0
    5.6324    1.5360   -6.9649 H   0  0  0  0  0  0  0  0  0  0  0  0
    7.0373    1.4692   -1.5054 H   0  0  0  0  0  0  0  0  0  0  0  0
    7.0528    1.4247   -3.2660 H   0  0  0  0  0  0  0  0  0  0  0  0
    6.5103   -1.0122   -1.4845 H   0  0  0  0  0  0  0  0  0  0  0  0
    8.0737   -0.5778   -2.1574 H   0  0  0  0  0  0  0  0  0  0  0  0
    5.6044   -1.1604   -3.8649 H   0  0  0  0  0  0  0  0  0  0  0  0
    8.5868   -1.0706   -4.6284 H   0  0  0  0  0  0  0  0  0  0  0  0
    7.3717    0.1507   -5.0750 H   0  0  0  0  0  0  0  0  0  0  0  0
    7.2495   -1.4955   -5.7219 H   0  0  0  0  0  0  0  0  0  0  0  0
    7.8784   -3.0781   -3.0650 H   0  0  0  0  0  0  0  0  0  0  0  0
    6.5928   -3.4448   -4.2386 H   0  0  0  0  0  0  0  0  0  0  0  0
    6.1860   -3.1825   -2.5257 H   0  0  0  0  0  0  0  0  0  0  0  0
  1  2  1  0
  1 17  1  0
  1 18  1  0
  1 19  1  0
  2  3  1  0
  2 20  1  0
  2 21  1  0
  3  4  1  0
  3  5  1  0
  3 22  1  6
  4 23  1  0
  4 24  1  0
  4 25  1  0
  5  6  1  0
  5 26  1  0
  5 27  1  0
  6  7  1  0
  6 12  1  0
  7  8  1  0
  7 28  1  0
  7 29  1  0
  8  9  1  0
  8 30  1  0
  8 31  1  0
  9 10  1  0
  9 11  1  0
  9 32  1  1
 10 33  1  0
 10 34  1  0
 10 35  1  0
 11 36  1  0
 11 37  1  0
 11 38  1  0
 12 13  1  0
 12 39  1  0
 12 40  1  0
 13 14  1  0
 13 41  1  0
 13 42  1  0
 14 15  1  0
 14 16  1  0
 14 43  1  6
 15 44  1  0
 15 45  1  0
 15 46  1  0
 16 47  1  0
 16 48  1  0
 16 49  1  0
M  END

