
     RDKit          3D

 28 29  0  0  0  0  0  0  0  0999 V2000
    1.3478    0.3925   -0.3494 C   0  0  0  0  0  0  0  0  0  0  0  0
    2.7012    0.0468    0.0882 N   0  0  0  0  0  0  0  0  0  0  0  0
    3.1686   -1.2050   -0.2538 C   0  0  0  0  0  0  0  0  0  0  0  0
    2.4790   -2.0326   -0.8243 O   0  0  0  0  0  0  0  0  0  0  0  0
    4.6117   -1.5469    0.1423 C   0  0  0  0  0  0  0  0  0  0  0  0
    4.8001   -1.6604    1.6751 C   0  0  0  0  0  0  0  0  0  0  0  0
    4.2243   -0.5180    2.3193 N   0  0  0  0  0  0  0  0  0  0  0  0
    4.3548    0.7865    1.7527 C   0  0  0  0  0  0  0  0  0  0  0  0
    5.3317    1.7220    2.2144 C   0  0  0  0  0  0  0  0  0  0  0  0
    5.3904    2.9633    1.6318 C   0  0  0  0  0  0  0  0  0  0  0  0
    4.4937    3.3520    0.5799 C   0  0  0  0  0  0  0  0  0  0  0  0
    4.5874    4.7067    0.0588 C   0  0  0  0  0  0  0  0  0  0  0  0
    5.4593    5.5077    0.3567 O   0  0  0  0  0  0  0  0  0  0  0  0
    3.6150    5.0910   -0.8446 O   0  0  0  0  0  0  0  0  0  0  0  0
    3.6130    2.3402    0.0537 C   0  0  0  0  0  0  0  0  0  0  0  0
    3.5409    1.0848    0.6279 C   0  0  0  0  0  0  0  0  0  0  0  0
    0.7239   -0.5095   -0.3313 H   0  0  0  0  0  0  0  0  0  0  0  0
    1.3404    0.7840   -1.3807 H   0  0  0  0  0  0  0  0  0  0  0  0
    0.9371    1.1565    0.3232 H   0  0  0  0  0  0  0  0  0  0  0  0
    5.3104   -0.8043   -0.2676 H   0  0  0  0  0  0  0  0  0  0  0  0
    4.8372   -2.5282   -0.2951 H   0  0  0  0  0  0  0  0  0  0  0  0
    5.8880   -1.6612    1.8952 H   0  0  0  0  0  0  0  0  0  0  0  0
    4.3615   -2.5795    2.0911 H   0  0  0  0  0  0  0  0  0  0  0  0
    3.4990   -0.7001    3.0218 H   0  0  0  0  0  0  0  0  0  0  0  0
    6.0076    1.4545    3.0296 H   0  0  0  0  0  0  0  0  0  0  0  0
    6.1194    3.7036    1.9657 H   0  0  0  0  0  0  0  0  0  0  0  0
    2.8654    4.4857   -0.7819 H   0  0  0  0  0  0  0  0  0  0  0  0
    3.0552    2.5168   -0.8685 H   0  0  0  0  0  0  0  0  0  0  0  0
  1  2  1  0
  1 17  1  0
  1 18  1  0
  1 19  1  0
  2  3  1  0
  2 16  1  0
  3  4  2  0
  3  5  1  0
  5  6  1  0
  5 20  1  0
  5 21  1  0
  6  7  1  0
  6 22  1  0
  6 23  1  0
  7  8  1  0
  7 24  1  0
  8  9  2  0
  8 16  1  0
  9 10  1  0
  9 25  1  0
 10 11  2  0
 10 26  1  0
 11 12  1  0
 11 15  1  0
 12 13  2  0
 12 14  1  0
 14 27  1  0
 15 16  2  0
 15 28  1  0
M  END

