
     RDKit          3D

 57 59  0  0  0  0  0  0  0  0999 V2000
    6.2181   -4.7864    0.5635 C   0  0  0  0  0  0  0  0  0  0  0  0
    5.6179   -3.3767    0.7342 C   0  0  1  0  0  0  0  0  0  0  0  0
    4.1291   -3.4391    0.3372 C   0  0  0  0  0  0  0  0  0  0  0  0
    5.7504   -2.9770    2.2247 C   0  0  0  0  0  0  0  0  0  0  0  0
    5.5086   -1.5067    2.5922 C   0  0  0  0  0  0  0  0  0  0  0  0
    6.5900   -0.5517    2.0527 C   0  0  0  0  0  0  0  0  0  0  0  0
    6.4172   -0.0405    0.6874 N   0  0  0  0  0  0  0  0  0  0  0  0
    5.7659    1.2576    0.6297 C   0  0  0  0  0  0  0  0  0  0  0  0
    6.6761    2.4434    0.9880 C   0  0  0  0  0  0  0  0  0  0  0  0
    6.2065    3.5168    1.3461 O   0  0  0  0  0  0  0  0  0  0  0  0
    7.9958    2.1970    0.8126 N   0  0  0  0  0  0  0  0  0  0  0  0
    9.0370    3.1716    1.1142 C   0  0  0  0  0  0  0  0  0  0  0  0
    9.4513    3.2012    2.5763 C   0  0  0  0  0  0  0  0  0  0  0  0
   10.6263    2.5460    3.0138 C   0  0  0  0  0  0  0  0  0  0  0  0
   10.9702    2.5828    4.3833 C   0  0  0  0  0  0  0  0  0  0  0  0
   10.1720    3.2255    5.3104 C   0  0  0  0  0  0  0  0  0  0  0  0
    8.9585    3.8777    4.8906 C   0  0  0  0  0  0  0  0  0  0  0  0
    8.0907    4.4912    5.8176 C   0  0  0  0  0  0  0  0  0  0  0  0
    8.3844    4.5970    7.0998 O   0  0  0  0  0  0  0  0  0  0  0  0
    6.8732    5.0140    5.4878 N   0  0  0  0  0  0  0  0  0  0  0  0
    5.9509    5.5188    6.4630 C   0  0  1  0  0  0  0  0  0  0  0  0
    6.3115    6.7805    7.2072 C   0  0  0  0  0  0  0  0  0  0  0  0
    5.2345    6.8036    6.1513 C   0  0  0  0  0  0  0  0  0  0  0  0
    8.6432    3.8653    3.4862 C   0  0  0  0  0  0  0  0  0  0  0  0
    5.9115   -0.9697   -0.3279 C   0  0  0  0  0  0  0  0  0  0  0  0
    6.3996   -2.4181   -0.2075 C   0  0  0  0  0  0  0  0  0  0  0  0
    5.7350   -5.5086    1.2417 H   0  0  0  0  0  0  0  0  0  0  0  0
    7.2981   -4.7895    0.7849 H   0  0  0  0  0  0  0  0  0  0  0  0
    6.0857   -5.1549   -0.4670 H   0  0  0  0  0  0  0  0  0  0  0  0
    3.6136   -4.2272    0.9099 H   0  0  0  0  0  0  0  0  0  0  0  0
    4.0108   -3.6741   -0.7338 H   0  0  0  0  0  0  0  0  0  0  0  0
    3.5950   -2.4963    0.5299 H   0  0  0  0  0  0  0  0  0  0  0  0
    6.7690   -3.2380    2.5663 H   0  0  0  0  0  0  0  0  0  0  0  0
    5.0672   -3.6167    2.8108 H   0  0  0  0  0  0  0  0  0  0  0  0
    5.5129   -1.4334    3.6931 H   0  0  0  0  0  0  0  0  0  0  0  0
    4.5061   -1.1665    2.2780 H   0  0  0  0  0  0  0  0  0  0  0  0
    7.5668   -1.0629    2.1344 H   0  0  0  0  0  0  0  0  0  0  0  0
    6.6697    0.3256    2.7119 H   0  0  0  0  0  0  0  0  0  0  0  0
    4.8646    1.3443    1.2702 H   0  0  0  0  0  0  0  0  0  0  0  0
    5.4222    1.4425   -0.4022 H   0  0  0  0  0  0  0  0  0  0  0  0
    8.2281    1.2302    0.5973 H   0  0  0  0  0  0  0  0  0  0  0  0
    8.6512    4.1583    0.8174 H   0  0  0  0  0  0  0  0  0  0  0  0
    9.9067    2.9459    0.4781 H   0  0  0  0  0  0  0  0  0  0  0  0
   11.2699    2.0316    2.2963 H   0  0  0  0  0  0  0  0  0  0  0  0
   11.8868    2.0904    4.7207 H   0  0  0  0  0  0  0  0  0  0  0  0
   10.4576    3.2258    6.3637 H   0  0  0  0  0  0  0  0  0  0  0  0
    6.4957    4.7083    4.5956 H   0  0  0  0  0  0  0  0  0  0  0  0
    5.3916    4.7589    7.0255 H   0  0  0  0  0  0  0  0  0  0  0  0
    7.2700    7.2455    6.9666 H   0  0  0  0  0  0  0  0  0  0  0  0
    6.0243    6.8421    8.2598 H   0  0  0  0  0  0  0  0  0  0  0  0
    5.4754    7.2874    5.2008 H   0  0  0  0  0  0  0  0  0  0  0  0
    4.1904    6.8927    6.4623 H   0  0  0  0  0  0  0  0  0  0  0  0
    7.7632    4.3793    3.0963 H   0  0  0  0  0  0  0  0  0  0  0  0
    6.2317   -0.5795   -1.3098 H   0  0  0  0  0  0  0  0  0  0  0  0
    4.8018   -0.9675   -0.3588 H   0  0  0  0  0  0  0  0  0  0  0  0
    7.4696   -2.4196    0.0647 H   0  0  0  0  0  0  0  0  0  0  0  0
    6.3535   -2.8550   -1.2196 H   0  0  0  0  0  0  0  0  0  0  0  0
  2  1  1  1
  1 27  1  0
  1 28  1  0
  1 29  1  0
  2  3  1  0
  2  4  1  0
  2 26  1  0
  3 30  1  0
  3 31  1  0
  3 32  1  0
  4  5  1  0
  4 33  1  0
  4 34  1  0
  5  6  1  0
  5 35  1  0
  5 36  1  0
  6  7  1  0
  6 37  1  0
  6 38  1  0
  7  8  1  0
  7 25  1  0
  8  9  1  0
  8 39  1  0
  8 40  1  0
  9 10  2  0
  9 11  1  0
 11 12  1  0
 11 41  1  0
 12 13  1  0
 12 42  1  0
 12 43  1  0
 13 14  2  0
 13 24  1  0
 14 15  1  0
 14 44  1  0
 15 16  2  0
 15 45  1  0
 16 17  1  0
 16 46  1  0
 17 18  1  0
 17 24  2  0
 18 19  2  0
 18 20  1  0
 20 21  1  0
 20 47  1  0
 21 22  1  0
 21 23  1  0
 21 48  1  1
 22 23  1  0
 22 49  1  0
 22 50  1  0
 23 51  1  0
 23 52  1  0
 24 53  1  0
 25 26  1  0
 25 54  1  0
 25 55  1  0
 26 56  1  0
 26 57  1  0
M  END

