
     RDKit          3D

 55 56  0  0  0  0  0  0  0  0999 V2000
    5.8606   -1.5862   -3.0708 N   0  0  0  0  0  0  0  0  0  0  0  0
    6.8132   -1.0289   -2.2950 C   0  0  0  0  0  0  0  0  0  0  0  0
    7.9149   -0.6832   -2.7279 O   0  0  0  0  0  0  0  0  0  0  0  0
    6.4063   -0.8366   -0.8351 C   0  0  0  0  0  0  0  0  0  0  0  0
    5.2420    0.1845   -0.6807 C   0  0  2  0  0  0  0  0  0  0  0  0
    5.1648    0.4354    0.3946 H   0  0  0  0  0  0  0  0  0  0  0  0
    3.9967   -0.3569   -1.2133 N   0  0  0  0  0  0  0  0  0  0  0  0
    5.5812    1.4896   -1.4439 C   0  0  0  0  0  0  0  0  0  0  0  0
    4.8226    1.9330   -2.2936 O   0  0  0  0  0  0  0  0  0  0  0  0
    6.7815    2.0474   -1.1434 N   0  0  0  0  0  0  0  0  0  0  0  0
    7.4946    2.8827   -2.1096 C   0  0  1  0  0  0  0  0  0  0  0  0
    7.1593    4.3905   -1.9893 C   0  0  0  0  0  0  0  0  0  0  0  0
    7.5273    5.0512   -0.6797 C   0  0  0  0  0  0  0  0  0  0  0  0
    8.6888    5.8343   -0.5646 C   0  0  0  0  0  0  0  0  0  0  0  0
    9.0404    6.4366    0.6477 C   0  0  0  0  0  0  0  0  0  0  0  0
    8.2311    6.2678    1.7741 C   0  0  0  0  0  0  0  0  0  0  0  0
    7.0664    5.4997    1.6749 C   0  0  0  0  0  0  0  0  0  0  0  0
    6.7189    4.9007    0.4613 C   0  0  0  0  0  0  0  0  0  0  0  0
    9.0139    2.5666   -1.9752 C   0  0  1  0  0  0  0  0  0  0  0  0
    9.2785    1.2849   -1.4550 O   0  0  0  0  0  0  0  0  0  0  0  0
    9.7369    2.8125   -3.3154 C   0  0  0  0  0  0  0  0  0  0  0  0
    9.1279    3.2845   -4.2886 O   0  0  0  0  0  0  0  0  0  0  0  0
   11.0521    2.5193   -3.3880 N   0  0  0  0  0  0  0  0  0  0  0  0
   11.9358    2.0757   -2.2958 C   0  0  0  0  0  0  0  0  0  0  0  0
   13.2474    2.7974   -2.6085 C   0  0  0  0  0  0  0  0  0  0  0  0
   13.3055    2.7670   -4.1406 C   0  0  0  0  0  0  0  0  0  0  0  0
   11.8415    2.8788   -4.5958 C   0  0  1  0  0  0  0  0  0  0  0  0
   11.5639    3.9106   -4.8765 H   0  0  0  0  0  0  0  0  0  0  0  0
   11.5322    1.9865   -5.8305 C   0  0  0  0  0  0  0  0  0  0  0  0
   12.3694    1.2912   -6.3476 O   0  0  0  0  0  0  0  0  0  0  0  0
   10.2933    2.0812   -6.2971 O   0  0  0  0  0  0  0  0  0  0  0  0
    6.0203   -1.5964   -4.0735 H   0  0  0  0  0  0  0  0  0  0  0  0
    4.9041   -1.5665   -2.7052 H   0  0  0  0  0  0  0  0  0  0  0  0
    7.2986   -0.5253   -0.2756 H   0  0  0  0  0  0  0  0  0  0  0  0
    6.0733   -1.7981   -0.4131 H   0  0  0  0  0  0  0  0  0  0  0  0
    3.5383    0.3812   -1.7555 H   0  0  0  0  0  0  0  0  0  0  0  0
    3.3676   -0.6582   -0.4725 H   0  0  0  0  0  0  0  0  0  0  0  0
    7.3913    1.5428   -0.5082 H   0  0  0  0  0  0  0  0  0  0  0  0
    7.1643    2.5791   -3.1138 H   0  0  0  0  0  0  0  0  0  0  0  0
    6.0765    4.4801   -2.1667 H   0  0  0  0  0  0  0  0  0  0  0  0
    7.6619    4.8985   -2.8257 H   0  0  0  0  0  0  0  0  0  0  0  0
    9.3203    5.9878   -1.4451 H   0  0  0  0  0  0  0  0  0  0  0  0
    9.9459    7.0461    0.7095 H   0  0  0  0  0  0  0  0  0  0  0  0
    8.5005    6.7402    2.7222 H   0  0  0  0  0  0  0  0  0  0  0  0
    6.4197    5.3733    2.5474 H   0  0  0  0  0  0  0  0  0  0  0  0
    5.7998    4.3144    0.3896 H   0  0  0  0  0  0  0  0  0  0  0  0
    9.4492    3.2726   -1.2450 H   0  0  0  0  0  0  0  0  0  0  0  0
    8.8705    0.5758   -2.0145 H   0  0  0  0  0  0  0  0  0  0  0  0
   12.0563    0.9799   -2.3312 H   0  0  0  0  0  0  0  0  0  0  0  0
   11.5120    2.3221   -1.3163 H   0  0  0  0  0  0  0  0  0  0  0  0
   14.1148    2.3138   -2.1357 H   0  0  0  0  0  0  0  0  0  0  0  0
   13.1977    3.8351   -2.2374 H   0  0  0  0  0  0  0  0  0  0  0  0
   13.7088    1.8117   -4.5069 H   0  0  0  0  0  0  0  0  0  0  0  0
   13.9252    3.5674   -4.5688 H   0  0  0  0  0  0  0  0  0  0  0  0
    9.7451    2.6495   -5.6921 H   0  0  0  0  0  0  0  0  0  0  0  0
  1  2  1  0
  1 32  1  0
  1 33  1  0
  2  3  2  0
  2  4  1  0
  4  5  1  0
  4 34  1  0
  4 35  1  0
  5  6  1  1
  5  7  1  0
  5  8  1  0
  7 36  1  0
  7 37  1  0
  8  9  2  0
  8 10  1  0
 10 11  1  0
 10 38  1  0
 11 12  1  0
 11 19  1  0
 11 39  1  6
 12 13  1  0
 12 40  1  0
 12 41  1  0
 13 14  2  0
 13 18  1  0
 14 15  1  0
 14 42  1  0
 15 16  2  0
 15 43  1  0
 16 17  1  0
 16 44  1  0
 17 18  2  0
 17 45  1  0
 18 46  1  0
 19 20  1  0
 19 21  1  0
 19 47  1  1
 20 48  1  0
 21 22  2  0
 21 23  1  0
 23 24  1  0
 23 27  1  0
 24 25  1  0
 24 49  1  0
 24 50  1  0
 25 26  1  0
 25 51  1  0
 25 52  1  0
 26 27  1  0
 26 53  1  0
 26 54  1  0
 27 28  1  6
 27 29  1  0
 29 30  2  0
 29 31  1  0
 31 55  1  0
M  END

