
     RDKit          3D

 50 51  0  0  0  0  0  0  0  0999 V2000
    1.6619   -2.6724   -1.4748 C   0  0  0  0  0  0  0  0  0  0  0  0
    0.4721   -1.8240   -1.8512 C   0  0  0  0  0  0  0  0  0  0  0  0
    0.5170   -0.4403   -1.7495 C   0  0  0  0  0  0  0  0  0  0  0  0
   -0.6209    0.3651   -2.0877 C   0  0  0  0  0  0  0  0  0  0  0  0
   -0.5827    1.7609   -1.9959 C   0  0  0  0  0  0  0  0  0  0  0  0
    0.3883    2.5239   -1.6329 O   0  0  0  0  0  0  0  0  0  0  0  0
   -1.8183   -0.2995   -2.5119 C   0  0  0  0  0  0  0  0  0  0  0  0
   -1.8784   -1.6795   -2.6182 C   0  0  0  0  0  0  0  0  0  0  0  0
   -3.1461   -2.3802   -3.0404 C   0  0  0  0  0  0  0  0  0  0  0  0
   -0.7217   -2.4374   -2.3009 C   0  0  0  0  0  0  0  0  0  0  0  0
   -0.7900   -3.8171   -2.3564 O   0  0  0  0  0  0  0  0  0  0  0  0
   -0.4231   -4.4392   -3.5818 C   0  0  0  0  0  0  0  0  0  0  0  0
   -0.4838   -5.9626   -3.4735 C   0  0  0  0  0  0  0  0  0  0  0  0
   -0.2049   -6.6494   -4.4429 O   0  0  0  0  0  0  0  0  0  0  0  0
   -0.8601   -6.4374   -2.2597 N   0  0  0  0  0  0  0  0  0  0  0  0
   -0.9588   -7.8586   -1.9489 C   0  0  2  0  0  0  0  0  0  0  0  0
   -0.8373   -8.3698   -2.9170 H   0  0  0  0  0  0  0  0  0  0  0  0
   -2.3452   -8.1783   -1.3808 C   0  0  0  0  0  0  0  0  0  0  0  0
    0.2016   -8.2859   -1.0289 C   0  0  0  0  0  0  0  0  0  0  0  0
    0.3061   -9.8027   -0.7851 C   0  0  0  0  0  0  0  0  0  0  0  0
    1.5267  -10.1862    0.0240 C   0  0  0  0  0  0  0  0  0  0  0  0
    1.4649  -10.2810    1.4235 C   0  0  0  0  0  0  0  0  0  0  0  0
    2.5997  -10.5990    2.1753 C   0  0  0  0  0  0  0  0  0  0  0  0
    3.8221  -10.8291    1.5376 C   0  0  0  0  0  0  0  0  0  0  0  0
    3.8989  -10.7397    0.1443 C   0  0  0  0  0  0  0  0  0  0  0  0
    2.7616  -10.4211   -0.6026 C   0  0  0  0  0  0  0  0  0  0  0  0
    2.4239   -2.0756   -0.9535 H   0  0  0  0  0  0  0  0  0  0  0  0
    2.1412   -3.1196   -2.3621 H   0  0  0  0  0  0  0  0  0  0  0  0
    1.3632   -3.5073   -0.8225 H   0  0  0  0  0  0  0  0  0  0  0  0
    1.4315    0.0427   -1.3998 H   0  0  0  0  0  0  0  0  0  0  0  0
   -1.4822    2.3607   -2.2581 H   0  0  0  0  0  0  0  0  0  0  0  0
   -2.7051    0.2941   -2.7503 H   0  0  0  0  0  0  0  0  0  0  0  0
   -3.9909   -1.6780   -3.0847 H   0  0  0  0  0  0  0  0  0  0  0  0
   -3.4018   -3.1915   -2.3413 H   0  0  0  0  0  0  0  0  0  0  0  0
   -3.0457   -2.8423   -4.0370 H   0  0  0  0  0  0  0  0  0  0  0  0
    0.6045   -4.1681   -3.8813 H   0  0  0  0  0  0  0  0  0  0  0  0
   -1.0932   -4.1373   -4.4060 H   0  0  0  0  0  0  0  0  0  0  0  0
   -1.0488   -5.7486   -1.5376 H   0  0  0  0  0  0  0  0  0  0  0  0
   -2.4732   -9.2584   -1.2139 H   0  0  0  0  0  0  0  0  0  0  0  0
   -3.1328   -7.8490   -2.0753 H   0  0  0  0  0  0  0  0  0  0  0  0
   -2.5068   -7.6694   -0.4142 H   0  0  0  0  0  0  0  0  0  0  0  0
    0.1146   -7.7624   -0.0587 H   0  0  0  0  0  0  0  0  0  0  0  0
    1.1415   -7.9342   -1.4850 H   0  0  0  0  0  0  0  0  0  0  0  0
    0.3342  -10.3176   -1.7611 H   0  0  0  0  0  0  0  0  0  0  0  0
   -0.5971  -10.1633   -0.2669 H   0  0  0  0  0  0  0  0  0  0  0  0
    0.5112  -10.1082    1.9319 H   0  0  0  0  0  0  0  0  0  0  0  0
    2.5276  -10.6711    3.2639 H   0  0  0  0  0  0  0  0  0  0  0  0
    4.7101  -11.0810    2.1230 H   0  0  0  0  0  0  0  0  0  0  0  0
    4.8489  -10.9232   -0.3649 H   0  0  0  0  0  0  0  0  0  0  0  0
    2.8309  -10.3581   -1.6929 H   0  0  0  0  0  0  0  0  0  0  0  0
  1  2  1  0
  1 27  1  0
  1 28  1  0
  1 29  1  0
  2  3  2  0
  2 10  1  0
  3  4  1  0
  3 30  1  0
  4  5  1  0
  4  7  2  0
  5  6  2  0
  5 31  1  0
  7  8  1  0
  7 32  1  0
  8  9  1  0
  8 10  2  0
  9 33  1  0
  9 34  1  0
  9 35  1  0
 10 11  1  0
 11 12  1  0
 12 13  1  0
 12 36  1  0
 12 37  1  0
 13 14  2  0
 13 15  1  0
 15 16  1  0
 15 38  1  0
 16 17  1  6
 16 18  1  0
 16 19  1  0
 18 39  1  0
 18 40  1  0
 18 41  1  0
 19 20  1  0
 19 42  1  0
 19 43  1  0
 20 21  1  0
 20 44  1  0
 20 45  1  0
 21 22  2  0
 21 26  1  0
 22 23  1  0
 22 46  1  0
 23 24  2  0
 23 47  1  0
 24 25  1  0
 24 48  1  0
 25 26  2  0
 25 49  1  0
 26 50  1  0
M  END

