
     RDKit          3D

 60 63  0  0  0  0  0  0  0  0999 V2000
    2.0059    0.6169   -1.9718 C   0  0  0  0  0  0  0  0  0  0  0  0
    2.5664   -0.8064   -1.9492 C   0  0  0  0  0  0  0  0  0  0  0  0
    2.6137   -1.3709   -0.6042 N   0  0  0  0  0  0  0  0  0  0  0  0
    2.0215   -2.6461   -0.3355 C   0  0  0  0  0  0  0  0  0  0  0  0
    3.1455   -3.7804   -0.4954 C   0  0  0  0  0  0  0  0  0  0  0  0
    4.2840   -3.4704    0.2873 N   0  0  0  0  0  0  0  0  0  0  0  0
    4.1805   -3.9479    2.1605 S   0  0  1  0  0  0  0  0  0  0  0  0
    5.5334   -3.5171    2.5280 O   0  0  0  0  0  0  0  0  0  0  0  0
    2.9980   -3.1534    2.5698 O   0  0  0  0  0  0  0  0  0  0  0  0
    3.9169   -5.5979    2.2873 C   0  0  0  0  0  0  0  0  0  0  0  0
    4.9976   -6.5169    2.0343 C   0  0  0  0  0  0  0  0  0  0  0  0
    4.7729   -7.8743    2.0321 C   0  0  0  0  0  0  0  0  0  0  0  0
    3.4706   -8.4007    2.2796 C   0  0  0  0  0  0  0  0  0  0  0  0
    3.1733   -9.7581    2.2902 N   0  0  0  0  0  0  0  0  0  0  0  0
    4.0011  -10.8478    2.0959 C   0  0  0  0  0  0  0  0  0  0  0  0
    5.2130  -10.7416    1.8963 O   0  0  0  0  0  0  0  0  0  0  0  0
    3.3295  -12.1795    2.1655 C   0  0  0  0  0  0  0  0  0  0  0  0
    1.9381  -12.4036    2.1374 C   0  0  0  0  0  0  0  0  0  0  0  0
    1.3935  -13.6822    2.2075 C   0  0  0  0  0  0  0  0  0  0  0  0
    2.2369  -14.8099    2.3030 C   0  0  0  0  0  0  0  0  0  0  0  0
    1.7227  -16.1255    2.3699 N   0  0  0  0  0  0  0  0  0  0  0  0
    2.6057  -17.2925    2.2996 C   0  0  0  0  0  0  0  0  0  0  0  0
    1.6478  -18.4776    2.1042 C   0  0  0  0  0  0  0  0  0  0  0  0
    0.3585  -18.0030    2.7734 C   0  0  0  0  0  0  0  0  0  0  0  0
    0.4059  -16.4823    2.6421 C   0  0  0  0  0  0  0  0  0  0  0  0
   -0.5388  -15.7320    2.7787 O   0  0  0  0  0  0  0  0  0  0  0  0
    3.6316  -14.5972    2.3169 C   0  0  0  0  0  0  0  0  0  0  0  0
    4.1595  -13.3127    2.2429 C   0  0  0  0  0  0  0  0  0  0  0  0
    2.4053   -7.4810    2.5401 C   0  0  0  0  0  0  0  0  0  0  0  0
    2.6016   -6.1231    2.5368 C   0  0  0  0  0  0  0  0  0  0  0  0
    4.8396   -2.1890    0.0389 C   0  0  0  0  0  0  0  0  0  0  0  0
    3.7358   -1.0490    0.2284 C   0  0  0  0  0  0  0  0  0  0  0  0
    2.0005    0.9980   -3.0035 H   0  0  0  0  0  0  0  0  0  0  0  0
    2.6152    1.3010   -1.3618 H   0  0  0  0  0  0  0  0  0  0  0  0
    0.9754    0.6396   -1.5870 H   0  0  0  0  0  0  0  0  0  0  0  0
    3.5858   -0.8177   -2.3792 H   0  0  0  0  0  0  0  0  0  0  0  0
    1.9465   -1.4652   -2.5743 H   0  0  0  0  0  0  0  0  0  0  0  0
    1.1893   -2.8404   -1.0244 H   0  0  0  0  0  0  0  0  0  0  0  0
    1.6882   -2.6910    0.7078 H   0  0  0  0  0  0  0  0  0  0  0  0
    3.4001   -3.8295   -1.5701 H   0  0  0  0  0  0  0  0  0  0  0  0
    2.7135   -4.7433   -0.1922 H   0  0  0  0  0  0  0  0  0  0  0  0
    6.0030   -6.1294    1.8666 H   0  0  0  0  0  0  0  0  0  0  0  0
    5.5869   -8.5748    1.8588 H   0  0  0  0  0  0  0  0  0  0  0  0
    2.2148   -9.9744    2.5331 H   0  0  0  0  0  0  0  0  0  0  0  0
    1.2362  -11.5712    2.0301 H   0  0  0  0  0  0  0  0  0  0  0  0
    0.3163  -13.8236    2.1915 H   0  0  0  0  0  0  0  0  0  0  0  0
    3.1952  -17.3907    3.2307 H   0  0  0  0  0  0  0  0  0  0  0  0
    3.3195  -17.1887    1.4685 H   0  0  0  0  0  0  0  0  0  0  0  0
    2.0539  -19.4097    2.5227 H   0  0  0  0  0  0  0  0  0  0  0  0
    1.4769  -18.6422    1.0283 H   0  0  0  0  0  0  0  0  0  0  0  0
    0.3345  -18.2444    3.8511 H   0  0  0  0  0  0  0  0  0  0  0  0
   -0.5696  -18.3924    2.3323 H   0  0  0  0  0  0  0  0  0  0  0  0
    4.3212  -15.4377    2.3943 H   0  0  0  0  0  0  0  0  0  0  0  0
    5.2389  -13.1527    2.2488 H   0  0  0  0  0  0  0  0  0  0  0  0
    1.4069   -7.8722    2.7619 H   0  0  0  0  0  0  0  0  0  0  0  0
    1.7813   -5.4403    2.7590 H   0  0  0  0  0  0  0  0  0  0  0  0
    5.2049   -2.1068   -1.0023 H   0  0  0  0  0  0  0  0  0  0  0  0
    5.6684   -1.9994    0.7322 H   0  0  0  0  0  0  0  0  0  0  0  0
    4.1558   -0.0718   -0.0445 H   0  0  0  0  0  0  0  0  0  0  0  0
    3.4418   -1.0599    1.2855 H   0  0  0  0  0  0  0  0  0  0  0  0
  1  2  1  0
  1 33  1  0
  1 34  1  0
  1 35  1  0
  2  3  1  0
  2 36  1  0
  2 37  1  0
  3  4  1  0
  3 32  1  0
  4  5  1  0
  4 38  1  0
  4 39  1  0
  5  6  1  0
  5 40  1  0
  5 41  1  0
  6  7  1  0
  6 31  1  0
  7  8  2  0
  7  9  2  0
  7 10  1  6
 10 11  2  0
 10 30  1  0
 11 12  1  0
 11 42  1  0
 12 13  2  0
 12 43  1  0
 13 14  1  0
 13 29  1  0
 14 15  1  0
 14 44  1  0
 15 16  2  0
 15 17  1  0
 17 18  2  0
 17 28  1  0
 18 19  1  0
 18 45  1  0
 19 20  2  0
 19 46  1  0
 20 21  1  0
 20 27  1  0
 21 22  1  0
 21 25  1  0
 22 23  1  0
 22 47  1  0
 22 48  1  0
 23 24  1  0
 23 49  1  0
 23 50  1  0
 24 25  1  0
 24 51  1  0
 24 52  1  0
 25 26  2  0
 27 28  2  0
 27 53  1  0
 28 54  1  0
 29 30  2  0
 29 55  1  0
 30 56  1  0
 31 32  1  0
 31 57  1  0
 31 58  1  0
 32 59  1  0
 32 60  1  0
M  END

