
     RDKit          3D

 53 56  0  0  0  0  0  0  0  0999 V2000
    1.2379    1.4892    0.6626 C   0  0  0  0  0  0  0  0  0  0  0  0
    2.5984    0.9117    0.4602 C   0  0  0  0  0  0  0  0  0  0  0  0
    3.7491    1.4778   -0.1528 C   0  0  0  0  0  0  0  0  0  0  0  0
    3.8534    2.8045   -0.7419 C   0  0  0  0  0  0  0  0  0  0  0  0
    2.9029    3.4506   -1.1890 O   0  0  0  0  0  0  0  0  0  0  0  0
    5.1379    3.3973   -0.8472 N   0  0  0  0  0  0  0  0  0  0  0  0
    6.2395    3.1926    0.0786 C   0  0  0  0  0  0  0  0  0  0  0  0
    6.3594    4.2821    1.1581 C   0  0  0  0  0  0  0  0  0  0  0  0
    6.3866    5.7257    0.6321 C   0  0  0  0  0  0  0  0  0  0  0  0
    5.0658    6.2220    0.1952 N   0  0  0  0  0  0  0  0  0  0  0  0
    4.2864    6.9754    0.9984 C   0  0  0  0  0  0  0  0  0  0  0  0
    4.6327    7.2231    2.3758 C   0  0  0  0  0  0  0  0  0  0  0  0
    3.8383    8.0095    3.1777 C   0  0  0  0  0  0  0  0  0  0  0  0
    2.6730    8.5859    2.6416 C   0  0  0  0  0  0  0  0  0  0  0  0
    1.9216    9.3443    3.4096 F   0  0  0  0  0  0  0  0  0  0  0  0
    2.2893    8.3664    1.3068 C   0  0  0  0  0  0  0  0  0  0  0  0
    3.0720    7.5729    0.5009 C   0  0  0  0  0  0  0  0  0  0  0  0
    4.6153    5.8427   -1.1667 C   0  0  0  0  0  0  0  0  0  0  0  0
    5.2396    4.5519   -1.7137 C   0  0  0  0  0  0  0  0  0  0  0  0
    4.6915    0.4150   -0.1608 C   0  0  0  0  0  0  0  0  0  0  0  0
    4.2088   -0.6710    0.4125 N   0  0  0  0  0  0  0  0  0  0  0  0
    2.9448   -0.3560    0.8037 N   0  0  0  0  0  0  0  0  0  0  0  0
    2.1658   -1.3207    1.5161 C   0  0  0  0  0  0  0  0  0  0  0  0
    2.3264   -2.6933    1.2555 C   0  0  0  0  0  0  0  0  0  0  0  0
    1.6027   -3.6104    1.9911 C   0  0  0  0  0  0  0  0  0  0  0  0
    0.7067   -3.1045    3.0128 C   0  0  0  0  0  0  0  0  0  0  0  0
   -0.0832   -4.0364    3.8333 C   0  0  1  0  0  0  0  0  0  0  0  0
   -0.8942   -4.8529    3.0954 F   0  0  0  0  0  0  0  0  0  0  0  0
    0.6827   -4.9055    4.5606 F   0  0  0  0  0  0  0  0  0  0  0  0
   -0.8885   -3.4122    4.7249 F   0  0  0  0  0  0  0  0  0  0  0  0
    0.6438   -1.7112    3.1883 C   0  0  0  0  0  0  0  0  0  0  0  0
    1.3349   -0.8226    2.4944 N   0  0  0  0  0  0  0  0  0  0  0  0
    1.1790    2.4730    0.1837 H   0  0  0  0  0  0  0  0  0  0  0  0
    0.9802    1.5394    1.7298 H   0  0  0  0  0  0  0  0  0  0  0  0
    0.4784    0.8305    0.2083 H   0  0  0  0  0  0  0  0  0  0  0  0
    7.1870    3.1413   -0.4902 H   0  0  0  0  0  0  0  0  0  0  0  0
    6.1166    2.2283    0.5790 H   0  0  0  0  0  0  0  0  0  0  0  0
    7.2953    4.1213    1.7185 H   0  0  0  0  0  0  0  0  0  0  0  0
    5.5360    4.1787    1.8843 H   0  0  0  0  0  0  0  0  0  0  0  0
    7.0583    5.8155   -0.2334 H   0  0  0  0  0  0  0  0  0  0  0  0
    6.7822    6.4117    1.3882 H   0  0  0  0  0  0  0  0  0  0  0  0
    5.5141    6.7634    2.8136 H   0  0  0  0  0  0  0  0  0  0  0  0
    4.0868    8.1871    4.2244 H   0  0  0  0  0  0  0  0  0  0  0  0
    1.3744    8.8272    0.9332 H   0  0  0  0  0  0  0  0  0  0  0  0
    2.7655    7.4095   -0.5281 H   0  0  0  0  0  0  0  0  0  0  0  0
    4.8257    6.6880   -1.8453 H   0  0  0  0  0  0  0  0  0  0  0  0
    3.5375    5.6559   -1.1301 H   0  0  0  0  0  0  0  0  0  0  0  0
    6.2967    4.6986   -1.9875 H   0  0  0  0  0  0  0  0  0  0  0  0
    4.6917    4.3552   -2.6475 H   0  0  0  0  0  0  0  0  0  0  0  0
    5.6872    0.3873   -0.6047 H   0  0  0  0  0  0  0  0  0  0  0  0
    3.0222   -3.0114    0.4785 H   0  0  0  0  0  0  0  0  0  0  0  0
    1.6946   -4.6805    1.8063 H   0  0  0  0  0  0  0  0  0  0  0  0
   -0.0211   -1.3094    3.9619 H   0  0  0  0  0  0  0  0  0  0  0  0
  1  2  1  0
  1 33  1  0
  1 34  1  0
  1 35  1  0
  2  3  2  0
  2 22  1  0
  3  4  1  0
  3 20  1  0
  4  5  2  0
  4  6  1  0
  6  7  1  0
  6 19  1  0
  7  8  1  0
  7 36  1  0
  7 37  1  0
  8  9  1  0
  8 38  1  0
  8 39  1  0
  9 10  1  0
  9 40  1  0
  9 41  1  0
 10 11  1  0
 10 18  1  0
 11 12  2  0
 11 17  1  0
 12 13  1  0
 12 42  1  0
 13 14  2  0
 13 43  1  0
 14 15  1  0
 14 16  1  0
 16 17  2  0
 16 44  1  0
 17 45  1  0
 18 19  1  0
 18 46  1  0
 18 47  1  0
 19 48  1  0
 19 49  1  0
 20 21  2  0
 20 50  1  0
 21 22  1  0
 22 23  1  0
 23 24  2  0
 23 32  1  0
 24 25  1  0
 24 51  1  0
 25 26  2  0
 25 52  1  0
 26 27  1  0
 26 31  1  0
 27 28  1  6
 27 29  1  0
 27 30  1  0
 31 32  2  0
 31 53  1  0
M  END

