
     RDKit          3D

 24 25  0  0  0  0  0  0  0  0999 V2000
    1.1619    0.0552    0.6815 N   0  0  0  0  0  0  0  0  0  0  0  0
    2.2924    0.0532    0.4227 C   0  0  0  0  0  0  0  0  0  0  0  0
    3.7255    0.0511    0.1050 C   0  0  1  0  0  0  0  0  0  0  0  0
    3.9179    0.0748   -1.4127 C   0  0  0  0  0  0  0  0  0  0  0  0
    3.9853    1.2855   -2.1143 C   0  0  0  0  0  0  0  0  0  0  0  0
    4.1041    1.3102   -3.5050 C   0  0  0  0  0  0  0  0  0  0  0  0
    4.1506    0.1111   -4.2295 C   0  0  0  0  0  0  0  0  0  0  0  0
    4.2711    0.0696   -5.5782 O   0  0  0  0  0  0  0  0  0  0  0  0
    4.0687   -1.1084   -3.5408 C   0  0  0  0  0  0  0  0  0  0  0  0
    3.9500   -1.1181   -2.1536 C   0  0  0  0  0  0  0  0  0  0  0  0
    4.5414    1.1319    0.9148 C   0  0  0  0  0  0  0  0  0  0  0  0
    5.4537    0.0172    1.4313 C   0  0  2  0  0  0  0  0  0  0  0  0
    5.6496   -0.0085    2.7709 F   0  0  0  0  0  0  0  0  0  0  0  0
    6.6801    0.0221    0.8455 F   0  0  0  0  0  0  0  0  0  0  0  0
    4.5300   -1.0678    0.8738 C   0  0  0  0  0  0  0  0  0  0  0  0
    3.9376    2.2360   -1.5779 H   0  0  0  0  0  0  0  0  0  0  0  0
    4.1600    2.2684   -4.0308 H   0  0  0  0  0  0  0  0  0  0  0  0
    4.3096    0.9683   -5.9314 H   0  0  0  0  0  0  0  0  0  0  0  0
    4.0982   -2.0381   -4.1122 H   0  0  0  0  0  0  0  0  0  0  0  0
    3.8744   -2.0810   -1.6429 H   0  0  0  0  0  0  0  0  0  0  0  0
    3.9606    1.5933    1.7232 H   0  0  0  0  0  0  0  0  0  0  0  0
    5.0496    1.8994    0.3190 H   0  0  0  0  0  0  0  0  0  0  0  0
    3.9446   -1.5536    1.6644 H   0  0  0  0  0  0  0  0  0  0  0  0
    5.0295   -1.8172    0.2481 H   0  0  0  0  0  0  0  0  0  0  0  0
  1  2  3  0
  3  2  1  6
  3  4  1  0
  3 11  1  0
  3 15  1  0
  4  5  2  0
  4 10  1  0
  5  6  1  0
  5 16  1  0
  6  7  2  0
  6 17  1  0
  7  8  1  0
  7  9  1  0
  8 18  1  0
  9 10  2  0
  9 19  1  0
 10 20  1  0
 11 12  1  0
 11 21  1  0
 11 22  1  0
 12 13  1  1
 12 14  1  0
 12 15  1  0
 15 23  1  0
 15 24  1  0
M  END

