
     RDKit          3D

 43 45  0  0  0  0  0  0  0  0999 V2000
    0.6935   -0.0691    0.7289 C   0  0  0  0  0  0  0  0  0  0  0  0
    2.1764    0.1928    0.4461 C   0  0  1  0  0  0  0  0  0  0  0  0
    2.4935    1.5436    0.8933 N   0  0  0  0  0  0  0  0  0  0  0  0
    3.4871    2.3624    0.4075 C   0  0  0  0  0  0  0  0  0  0  0  0
    4.2478    2.0539   -0.7436 C   0  0  0  0  0  0  0  0  0  0  0  0
    5.2181    2.9405   -1.2109 C   0  0  0  0  0  0  0  0  0  0  0  0
    5.4753    4.1525   -0.5600 C   0  0  0  0  0  0  0  0  0  0  0  0
    6.4904    5.0247   -1.0704 N   0  0  0  0  0  0  0  0  0  0  0  0
    6.0683    6.5099   -1.7885 S   0  0  1  0  0  0  0  0  0  0  0  0
    5.8523    6.0553   -3.5133 C   0  0  0  0  0  0  0  0  0  0  0  0
    4.7686    6.9802   -1.3023 O   0  0  0  0  0  0  0  0  0  0  0  0
    7.2692    7.3396   -1.6660 O   0  0  0  0  0  0  0  0  0  0  0  0
    4.7233    4.4658    0.5856 C   0  0  0  0  0  0  0  0  0  0  0  0
    3.7580    3.5904    1.0621 C   0  0  0  0  0  0  0  0  0  0  0  0
    3.1898   -0.8470    0.9851 C   0  0  2  0  0  0  0  0  0  0  0  0
    3.0914   -2.2906    0.4000 C   0  0  0  0  0  0  0  0  0  0  0  0
    3.2731   -3.1982    1.6656 C   0  0  2  0  0  0  0  0  0  0  0  0
    1.9988   -3.0512    2.4832 C   0  0  0  0  0  0  0  0  0  0  0  0
    1.9951   -1.8112    2.9984 C   0  0  0  0  0  0  0  0  0  0  0  0
    3.2702   -1.1171    2.5357 C   0  0  1  0  0  0  0  0  0  0  0  0
    4.2336   -2.3305    2.5131 C   0  0  0  0  0  0  0  0  0  0  0  0
    0.0745    0.6256    0.1408 H   0  0  0  0  0  0  0  0  0  0  0  0
    0.4496    0.0813    1.7920 H   0  0  0  0  0  0  0  0  0  0  0  0
    0.4046   -1.0975    0.4731 H   0  0  0  0  0  0  0  0  0  0  0  0
    2.2919    0.1813   -0.6521 H   0  0  0  0  0  0  0  0  0  0  0  0
    2.0680    1.8338    1.7651 H   0  0  0  0  0  0  0  0  0  0  0  0
    4.0869    1.1177   -1.2789 H   0  0  0  0  0  0  0  0  0  0  0  0
    5.8057    2.6849   -2.0961 H   0  0  0  0  0  0  0  0  0  0  0  0
    7.2800    5.2191   -0.4535 H   0  0  0  0  0  0  0  0  0  0  0  0
    5.0599    5.2982   -3.5794 H   0  0  0  0  0  0  0  0  0  0  0  0
    6.8072    5.6759   -3.8964 H   0  0  0  0  0  0  0  0  0  0  0  0
    5.5505    6.9721   -4.0375 H   0  0  0  0  0  0  0  0  0  0  0  0
    4.8926    5.4175    1.0931 H   0  0  0  0  0  0  0  0  0  0  0  0
    3.1815    3.8564    1.9532 H   0  0  0  0  0  0  0  0  0  0  0  0
    4.1761   -0.4402    0.7096 H   0  0  0  0  0  0  0  0  0  0  0  0
    3.8892   -2.4765   -0.3367 H   0  0  0  0  0  0  0  0  0  0  0  0
    2.1330   -2.4908   -0.1036 H   0  0  0  0  0  0  0  0  0  0  0  0
    3.5871   -4.2271    1.4418 H   0  0  0  0  0  0  0  0  0  0  0  0
    1.2008   -3.7948    2.5410 H   0  0  0  0  0  0  0  0  0  0  0  0
    1.1969   -1.3460    3.5798 H   0  0  0  0  0  0  0  0  0  0  0  0
    3.5868   -0.2417    3.1195 H   0  0  0  0  0  0  0  0  0  0  0  0
    4.4166   -2.7496    3.5137 H   0  0  0  0  0  0  0  0  0  0  0  0
    5.1963   -2.1199    2.0192 H   0  0  0  0  0  0  0  0  0  0  0  0
  1  2  1  0
  1 22  1  0
  1 23  1  0
  1 24  1  0
  2  3  1  0
  2 15  1  0
  2 25  1  6
  3  4  1  0
  3 26  1  0
  4  5  2  0
  4 14  1  0
  5  6  1  0
  5 27  1  0
  6  7  2  0
  6 28  1  0
  7  8  1  0
  7 13  1  0
  9  8  1  1
  8 29  1  0
  9 10  1  0
  9 11  2  0
  9 12  2  0
 10 30  1  0
 10 31  1  0
 10 32  1  0
 13 14  2  0
 13 33  1  0
 14 34  1  0
 15 16  1  0
 15 20  1  0
 15 35  1  6
 16 17  1  0
 16 36  1  0
 16 37  1  0
 17 18  1  0
 17 21  1  0
 17 38  1  6
 18 19  2  0
 18 39  1  0
 19 20  1  0
 19 40  1  0
 20 21  1  0
 20 41  1  1
 21 42  1  0
 21 43  1  0
M  END

