
     RDKit          3D

 48 50  0  0  0  0  0  0  0  0999 V2000
    0.9578    0.0697   -0.6286 C   0  0  0  0  0  0  0  0  0  0  0  0
    2.4561    0.2253   -0.3446 C   0  0  1  0  0  0  0  0  0  0  0  0
    2.5787    0.7561    0.6104 H   0  0  0  0  0  0  0  0  0  0  0  0
    3.1813   -1.1056   -0.2171 C   0  0  0  0  0  0  0  0  0  0  0  0
    3.3390   -1.7682   -1.5292 N   0  0  0  0  0  0  0  0  0  0  0  0
    2.8795   -3.4570   -1.6581 S   0  0  1  0  0  0  0  0  0  0  0  0
    2.2239   -3.7379   -0.4051 O   0  0  0  0  0  0  0  0  0  0  0  0
    2.1821   -3.5680   -2.9309 O   0  0  0  0  0  0  0  0  0  0  0  0
    4.4089   -4.3681   -1.7171 C   0  0  0  0  0  0  0  0  0  0  0  0
    5.1727   -4.4756   -0.5468 C   0  0  0  0  0  0  0  0  0  0  0  0
    6.3537   -5.2161   -0.5879 C   0  0  0  0  0  0  0  0  0  0  0  0
    6.7443   -5.8497   -1.7738 C   0  0  0  0  0  0  0  0  0  0  0  0
    5.9574   -5.7502   -2.9269 C   0  0  0  0  0  0  0  0  0  0  0  0
    4.7789   -5.0026   -2.9081 C   0  0  0  0  0  0  0  0  0  0  0  0
    3.9623   -0.9350   -2.6174 C   0  0  1  0  0  0  0  0  0  0  0  0
    4.9848   -0.7784   -2.2226 H   0  0  0  0  0  0  0  0  0  0  0  0
    4.0632   -1.5677   -3.9974 C   0  0  0  0  0  0  0  0  0  0  0  0
    3.2495    0.4177   -2.6542 C   0  0  0  0  0  0  0  0  0  0  0  0
    3.1240    1.0514   -1.3549 N   0  0  0  0  0  0  0  0  0  0  0  0
    4.6207    2.0752   -0.7584 S   0  0  1  0  0  0  0  0  0  0  0  0
    4.0641    2.4981    0.5364 O   0  0  0  0  0  0  0  0  0  0  0  0
    5.6778    1.0312   -0.8128 O   0  0  0  0  0  0  0  0  0  0  0  0
    4.9299    3.3435   -1.8086 C   0  0  0  0  0  0  0  0  0  0  0  0
    4.1091    4.5330   -1.7491 C   0  0  0  0  0  0  0  0  0  0  0  0
    4.2438    5.4968   -2.7260 C   0  0  0  0  0  0  0  0  0  0  0  0
    5.1604    5.3522   -3.7967 C   0  0  0  0  0  0  0  0  0  0  0  0
    5.9686    4.1880   -3.8486 C   0  0  0  0  0  0  0  0  0  0  0  0
    5.8690    3.1934   -2.8993 C   0  0  0  0  0  0  0  0  0  0  0  0
    0.4525   -0.4026    0.2293 H   0  0  0  0  0  0  0  0  0  0  0  0
    0.7530   -0.5542   -1.5132 H   0  0  0  0  0  0  0  0  0  0  0  0
    0.5107    1.0606   -0.7925 H   0  0  0  0  0  0  0  0  0  0  0  0
    2.6869   -1.7953    0.4788 H   0  0  0  0  0  0  0  0  0  0  0  0
    4.2218   -0.9422    0.1346 H   0  0  0  0  0  0  0  0  0  0  0  0
    4.8440   -4.0009    0.3793 H   0  0  0  0  0  0  0  0  0  0  0  0
    6.9666   -5.3067    0.3112 H   0  0  0  0  0  0  0  0  0  0  0  0
    7.6688   -6.4313   -1.7973 H   0  0  0  0  0  0  0  0  0  0  0  0
    6.2606   -6.2584   -3.8447 H   0  0  0  0  0  0  0  0  0  0  0  0
    4.1445   -4.9184   -3.7917 H   0  0  0  0  0  0  0  0  0  0  0  0
    3.0736   -1.7656   -4.4315 H   0  0  0  0  0  0  0  0  0  0  0  0
    4.6457   -2.4976   -3.9976 H   0  0  0  0  0  0  0  0  0  0  0  0
    4.5924   -0.8522   -4.6433 H   0  0  0  0  0  0  0  0  0  0  0  0
    2.2446    0.2871   -3.1029 H   0  0  0  0  0  0  0  0  0  0  0  0
    3.8104    1.0863   -3.3229 H   0  0  0  0  0  0  0  0  0  0  0  0
    3.4147    4.6621   -0.9189 H   0  0  0  0  0  0  0  0  0  0  0  0
    3.6327    6.4020   -2.6604 H   0  0  0  0  0  0  0  0  0  0  0  0
    5.2523    6.1270   -4.5585 H   0  0  0  0  0  0  0  0  0  0  0  0
    6.7035    4.0788   -4.6519 H   0  0  0  0  0  0  0  0  0  0  0  0
    6.5176    2.3178   -2.9279 H   0  0  0  0  0  0  0  0  0  0  0  0
  1  2  1  0
  1 29  1  0
  1 30  1  0
  1 31  1  0
  2  3  1  1
  2  4  1  0
  2 19  1  0
  4  5  1  0
  4 32  1  0
  4 33  1  0
  5  6  1  0
  5 15  1  0
  6  7  2  0
  6  8  2  0
  6  9  1  1
  9 10  2  0
  9 14  1  0
 10 11  1  0
 10 34  1  0
 11 12  2  0
 11 35  1  0
 12 13  1  0
 12 36  1  0
 13 14  2  0
 13 37  1  0
 14 38  1  0
 15 16  1  1
 15 17  1  0
 15 18  1  0
 17 39  1  0
 17 40  1  0
 17 41  1  0
 18 19  1  0
 18 42  1  0
 18 43  1  0
 19 20  1  0
 20 21  2  0
 20 22  2  0
 20 23  1  6
 23 24  2  0
 23 28  1  0
 24 25  1  0
 24 44  1  0
 25 26  2  0
 25 45  1  0
 26 27  1  0
 26 46  1  0
 27 28  2  0
 27 47  1  0
 28 48  1  0
M  END

