
     RDKit          3D

 66 71  0  0  0  0  0  0  0  0999 V2000
    0.2718   -0.9502   -0.3650 C   0  0  0  0  0  0  0  0  0  0  0  0
    1.5688   -0.7586    0.1560 O   0  0  0  0  0  0  0  0  0  0  0  0
    2.4361   -1.7930    0.2454 C   0  0  0  0  0  0  0  0  0  0  0  0
    2.0993   -3.1239   -0.1745 C   0  0  0  0  0  0  0  0  0  0  0  0
    3.0147   -4.1547   -0.0666 C   0  0  0  0  0  0  0  0  0  0  0  0
    4.3034   -3.9038    0.4651 C   0  0  0  0  0  0  0  0  0  0  0  0
    4.6359   -2.5425    0.8890 C   0  0  0  0  0  0  0  0  0  0  0  0
    3.6934   -1.5103    0.7709 C   0  0  0  0  0  0  0  0  0  0  0  0
    5.9830   -2.4825    1.3995 C   0  0  0  0  0  0  0  0  0  0  0  0
    6.6199   -1.5079    1.8503 O   0  0  0  0  0  0  0  0  0  0  0  0
    6.4760   -3.8857    1.2718 C   0  0  0  0  0  0  0  0  0  0  0  0
    5.4473   -4.7116    0.7096 C   0  0  0  0  0  0  0  0  0  0  0  0
    5.6616   -6.0603    0.4933 N   0  0  0  0  0  0  0  0  0  0  0  0
    4.6336   -6.8989   -0.0690 C   0  0  0  0  0  0  0  0  0  0  0  0
    3.7250   -7.5488    0.7650 C   0  0  0  0  0  0  0  0  0  0  0  0
    2.7221   -8.3624    0.2289 C   0  0  0  0  0  0  0  0  0  0  0  0
    2.6348   -8.5350   -1.1622 C   0  0  0  0  0  0  0  0  0  0  0  0
    1.7094   -9.3055   -1.7807 O   0  0  0  0  0  0  0  0  0  0  0  0
    0.7695  -10.0425   -1.0166 C   0  0  0  0  0  0  0  0  0  0  0  0
   -0.0886  -10.8479   -1.9903 C   0  0  0  0  0  0  0  0  0  0  0  0
   -1.0478  -11.6716   -1.2690 N   0  0  0  0  0  0  0  0  0  0  0  0
   -2.3961  -11.7638   -1.8261 C   0  0  0  0  0  0  0  0  0  0  0  0
   -2.5096  -12.8285   -2.9212 C   0  0  0  0  0  0  0  0  0  0  0  0
   -2.0616  -14.0842   -2.4447 O   0  0  0  0  0  0  0  0  0  0  0  0
   -0.7236  -14.0330   -1.9849 C   0  0  0  0  0  0  0  0  0  0  0  0
   -0.5671  -12.9952   -0.8684 C   0  0  0  0  0  0  0  0  0  0  0  0
    3.5577   -7.8812   -1.9999 C   0  0  0  0  0  0  0  0  0  0  0  0
    4.5503   -7.0744   -1.4564 C   0  0  0  0  0  0  0  0  0  0  0  0
    6.8885   -6.6901    0.8080 C   0  0  0  0  0  0  0  0  0  0  0  0
    7.0417   -7.8811    0.6059 O   0  0  0  0  0  0  0  0  0  0  0  0
    7.9477   -5.8219    1.3892 C   0  0  0  0  0  0  0  0  0  0  0  0
    9.1684   -6.3982    1.7119 C   0  0  0  0  0  0  0  0  0  0  0  0
   10.2017   -5.6131    2.2638 C   0  0  0  0  0  0  0  0  0  0  0  0
   11.3459   -6.2619    2.5391 O   0  0  0  0  0  0  0  0  0  0  0  0
   12.4488   -5.5640    3.0881 C   0  0  0  0  0  0  0  0  0  0  0  0
    9.9951   -4.2296    2.4931 C   0  0  0  0  0  0  0  0  0  0  0  0
    8.7823   -3.6476    2.1753 C   0  0  0  0  0  0  0  0  0  0  0  0
    7.7255   -4.4260    1.6142 C   0  0  0  0  0  0  0  0  0  0  0  0
   -0.2234    0.0295   -0.3292 H   0  0  0  0  0  0  0  0  0  0  0  0
   -0.3141   -1.6668    0.2376 H   0  0  0  0  0  0  0  0  0  0  0  0
    0.2946   -1.2988   -1.4128 H   0  0  0  0  0  0  0  0  0  0  0  0
    1.1129   -3.3359   -0.5855 H   0  0  0  0  0  0  0  0  0  0  0  0
    2.7274   -5.1523   -0.3957 H   0  0  0  0  0  0  0  0  0  0  0  0
    3.9399   -0.4956    1.0870 H   0  0  0  0  0  0  0  0  0  0  0  0
    3.7975   -7.4172    1.8466 H   0  0  0  0  0  0  0  0  0  0  0  0
    2.0221   -8.8576    0.9015 H   0  0  0  0  0  0  0  0  0  0  0  0
    0.1266   -9.3699   -0.4207 H   0  0  0  0  0  0  0  0  0  0  0  0
    1.2916  -10.7163   -0.3121 H   0  0  0  0  0  0  0  0  0  0  0  0
    0.5875  -11.4193   -2.6585 H   0  0  0  0  0  0  0  0  0  0  0  0
   -0.6272  -10.1391   -2.6386 H   0  0  0  0  0  0  0  0  0  0  0  0
   -2.7089  -10.7780   -2.2064 H   0  0  0  0  0  0  0  0  0  0  0  0
   -3.0904  -12.0354   -1.0096 H   0  0  0  0  0  0  0  0  0  0  0  0
   -1.9214  -12.5251   -3.8142 H   0  0  0  0  0  0  0  0  0  0  0  0
   -3.5568  -12.9607   -3.2371 H   0  0  0  0  0  0  0  0  0  0  0  0
   -0.0398  -13.7962   -2.8280 H   0  0  0  0  0  0  0  0  0  0  0  0
   -0.4698  -15.0417   -1.6223 H   0  0  0  0  0  0  0  0  0  0  0  0
    0.4853  -12.9320   -0.5479 H   0  0  0  0  0  0  0  0  0  0  0  0
   -1.1523  -13.3317    0.0067 H   0  0  0  0  0  0  0  0  0  0  0  0
    3.4778   -8.0325   -3.0780 H   0  0  0  0  0  0  0  0  0  0  0  0
    5.2692   -6.5729   -2.1075 H   0  0  0  0  0  0  0  0  0  0  0  0
    9.3313   -7.4626    1.5374 H   0  0  0  0  0  0  0  0  0  0  0  0
   13.2494   -6.3039    3.2135 H   0  0  0  0  0  0  0  0  0  0  0  0
   12.2029   -5.1269    4.0711 H   0  0  0  0  0  0  0  0  0  0  0  0
   12.7978   -4.7639    2.4131 H   0  0  0  0  0  0  0  0  0  0  0  0
   10.7869   -3.6137    2.9199 H   0  0  0  0  0  0  0  0  0  0  0  0
    8.5874   -2.5860    2.3378 H   0  0  0  0  0  0  0  0  0  0  0  0
  1  2  1  0
  1 39  1  0
  1 40  1  0
  1 41  1  0
  2  3  1  0
  3  4  2  0
  3  8  1  0
  4  5  1  0
  4 42  1  0
  5  6  2  0
  5 43  1  0
  6  7  1  0
  6 12  1  0
  7  8  2  0
  7  9  1  0
  8 44  1  0
  9 10  2  0
  9 11  1  0
 11 12  2  0
 11 38  1  0
 12 13  1  0
 13 14  1  0
 13 29  1  0
 14 15  2  0
 14 28  1  0
 15 16  1  0
 15 45  1  0
 16 17  2  0
 16 46  1  0
 17 18  1  0
 17 27  1  0
 18 19  1  0
 19 20  1  0
 19 47  1  0
 19 48  1  0
 20 21  1  0
 20 49  1  0
 20 50  1  0
 21 22  1  0
 21 26  1  0
 22 23  1  0
 22 51  1  0
 22 52  1  0
 23 24  1  0
 23 53  1  0
 23 54  1  0
 24 25  1  0
 25 26  1  0
 25 55  1  0
 25 56  1  0
 26 57  1  0
 26 58  1  0
 27 28  2  0
 27 59  1  0
 28 60  1  0
 29 30  2  0
 29 31  1  0
 31 32  1  0
 31 38  2  0
 32 33  2  0
 32 61  1  0
 33 34  1  0
 33 36  1  0
 34 35  1  0
 35 62  1  0
 35 63  1  0
 35 64  1  0
 36 37  2  0
 36 65  1  0
 37 38  1  0
 37 66  1  0
M  END

