
     RDKit          3D

 43 43  0  0  0  0  0  0  0  0999 V2000
    0.9690    0.8575    0.0281 C   0  0  0  0  0  0  0  0  0  0  0  0
    2.4846    0.6276    0.0949 C   0  0  1  0  0  0  0  0  0  0  0  0
    3.2049    1.9011    0.5583 C   0  0  0  0  0  0  0  0  0  0  0  0
    2.8076   -0.5968    0.9740 C   0  0  0  0  0  0  0  0  0  0  0  0
    4.2768   -1.0332    0.9784 C   0  0  0  0  0  0  0  0  0  0  0  0
    4.5729   -2.3118    1.8024 C   0  0  1  0  0  0  0  0  0  0  0  0
    4.0545   -3.5412    1.0506 C   0  0  0  0  0  0  0  0  0  0  0  0
    6.0135   -2.3879    2.0930 N   0  0  0  0  0  0  0  0  0  0  0  0
    6.5329   -1.4325    3.0633 C   0  0  0  0  0  0  0  0  0  0  0  0
    6.5599   -1.9924    4.4889 C   0  0  0  0  0  0  0  0  0  0  0  0
    7.3350   -3.2258    4.5013 N   0  0  0  0  0  0  0  0  0  0  0  0
    6.8489   -4.2825    3.5970 C   0  0  2  0  0  0  0  0  0  0  0  0
    5.5074   -4.8895    4.0641 C   0  0  0  0  0  0  0  0  0  0  0  0
    7.9133   -5.3862    3.5594 C   0  0  0  0  0  0  0  0  0  0  0  0
    6.7422   -3.6437    2.1801 C   0  0  0  0  0  0  0  0  0  0  0  0
    0.7182    1.7034   -0.6324 H   0  0  0  0  0  0  0  0  0  0  0  0
    0.5594    1.0844    1.0279 H   0  0  0  0  0  0  0  0  0  0  0  0
    0.4413   -0.0327   -0.3517 H   0  0  0  0  0  0  0  0  0  0  0  0
    2.8338    0.3989   -0.9306 H   0  0  0  0  0  0  0  0  0  0  0  0
    2.9214    2.1592    1.5939 H   0  0  0  0  0  0  0  0  0  0  0  0
    2.9405    2.7595   -0.0805 H   0  0  0  0  0  0  0  0  0  0  0  0
    4.3004    1.7962    0.5279 H   0  0  0  0  0  0  0  0  0  0  0  0
    2.1725   -1.4335    0.6347 H   0  0  0  0  0  0  0  0  0  0  0  0
    2.4872   -0.3825    2.0121 H   0  0  0  0  0  0  0  0  0  0  0  0
    4.8919   -0.2103    1.3707 H   0  0  0  0  0  0  0  0  0  0  0  0
    4.6305   -1.2020   -0.0549 H   0  0  0  0  0  0  0  0  0  0  0  0
    3.9846   -2.2359    2.7463 H   0  0  0  0  0  0  0  0  0  0  0  0
    4.6198   -3.6988    0.1174 H   0  0  0  0  0  0  0  0  0  0  0  0
    2.9995   -3.3939    0.7790 H   0  0  0  0  0  0  0  0  0  0  0  0
    4.1065   -4.4613    1.6481 H   0  0  0  0  0  0  0  0  0  0  0  0
    5.9424   -0.5054    3.0379 H   0  0  0  0  0  0  0  0  0  0  0  0
    7.5702   -1.1670    2.7834 H   0  0  0  0  0  0  0  0  0  0  0  0
    5.5147   -2.1117    4.8539 H   0  0  0  0  0  0  0  0  0  0  0  0
    7.0460   -1.2641    5.1605 H   0  0  0  0  0  0  0  0  0  0  0  0
    7.4268   -3.5901    5.4487 H   0  0  0  0  0  0  0  0  0  0  0  0
    5.6162   -5.3143    5.0767 H   0  0  0  0  0  0  0  0  0  0  0  0
    5.1789   -5.7050    3.3993 H   0  0  0  0  0  0  0  0  0  0  0  0
    4.7002   -4.1432    4.1018 H   0  0  0  0  0  0  0  0  0  0  0  0
    8.0355   -5.8463    4.5548 H   0  0  0  0  0  0  0  0  0  0  0  0
    8.8868   -4.9705    3.2588 H   0  0  0  0  0  0  0  0  0  0  0  0
    7.6359   -6.1879    2.8556 H   0  0  0  0  0  0  0  0  0  0  0  0
    6.3319   -4.3793    1.4765 H   0  0  0  0  0  0  0  0  0  0  0  0
    7.7812   -3.4436    1.8560 H   0  0  0  0  0  0  0  0  0  0  0  0
  1  2  1  0
  1 16  1  0
  1 17  1  0
  1 18  1  0
  2  3  1  0
  2  4  1  0
  2 19  1  6
  3 20  1  0
  3 21  1  0
  3 22  1  0
  4  5  1  0
  4 23  1  0
  4 24  1  0
  5  6  1  0
  5 25  1  0
  5 26  1  0
  6  7  1  0
  6  8  1  0
  6 27  1  1
  7 28  1  0
  7 29  1  0
  7 30  1  0
  8  9  1  0
  8 15  1  0
  9 10  1  0
  9 31  1  0
  9 32  1  0
 10 11  1  0
 10 33  1  0
 10 34  1  0
 11 12  1  0
 11 35  1  0
 12 13  1  1
 12 14  1  0
 12 15  1  0
 13 36  1  0
 13 37  1  0
 13 38  1  0
 14 39  1  0
 14 40  1  0
 14 41  1  0
 15 42  1  0
 15 43  1  0
M  END

