
     RDKit          3D

 67 70  0  0  0  0  0  0  0  0999 V2000
    2.1900    1.5071   -1.4875 C   0  0  0  0  0  0  0  0  0  0  0  0
    3.5930    1.2133   -1.2617 N   0  0  0  0  0  0  0  0  0  0  0  0
    3.8575   -0.1387   -0.8082 C   0  0  0  0  0  0  0  0  0  0  0  0
    5.3557   -0.4083   -0.7829 C   0  0  0  0  0  0  0  0  0  0  0  0
    5.5518   -1.7313   -0.3291 O   0  0  0  0  0  0  0  0  0  0  0  0
    6.8151   -2.2248   -0.2174 C   0  0  0  0  0  0  0  0  0  0  0  0
    7.9810   -1.5160   -0.5405 C   0  0  0  0  0  0  0  0  0  0  0  0
    9.2293   -2.1235   -0.3865 C   0  0  0  0  0  0  0  0  0  0  0  0
    9.3564   -3.4396    0.0884 C   0  0  0  0  0  0  0  0  0  0  0  0
   10.6562   -3.9573    0.2119 N   0  0  0  0  0  0  0  0  0  0  0  0
   11.1339   -5.1790    0.6159 C   0  0  0  0  0  0  0  0  0  0  0  0
   10.2951   -6.1527    0.9816 N   0  0  0  0  0  0  0  0  0  0  0  0
   10.8132   -7.3334    1.3588 C   0  0  0  0  0  0  0  0  0  0  0  0
   12.1804   -7.5261    1.3637 C   0  0  0  0  0  0  0  0  0  0  0  0
   13.0502   -8.5630    1.6672 N   0  0  0  0  0  0  0  0  0  0  0  0
   12.8167   -9.4942    1.9862 H   0  0  0  0  0  0  0  0  0  0  0  0
   14.3694   -8.1775    1.4771 C   0  0  0  0  0  0  0  0  0  0  0  0
   15.3581   -8.8477    1.6534 O   0  0  0  0  0  0  0  0  0  0  0  0
   14.3089   -6.8233    1.0286 N   0  0  0  0  0  0  0  0  0  0  0  0
   15.4609   -6.0428    0.7123 C   0  0  0  0  0  0  0  0  0  0  0  0
   16.5682   -6.6388    0.0919 C   0  0  0  0  0  0  0  0  0  0  0  0
   17.6799   -5.8483   -0.2003 C   0  0  0  0  0  0  0  0  0  0  0  0
   17.7168   -4.4849    0.0960 C   0  0  0  0  0  0  0  0  0  0  0  0
   16.6016   -3.8922    0.7145 C   0  0  0  0  0  0  0  0  0  0  0  0
   16.5399   -2.5292    1.0536 N   0  0  0  0  0  0  0  0  0  0  0  0
   17.4754   -1.5337    0.8442 C   0  0  0  0  0  0  0  0  0  0  0  0
   18.5525   -1.7157    0.3007 O   0  0  0  0  0  0  0  0  0  0  0  0
   17.0348   -0.1970    1.3472 C   0  0  0  0  0  0  0  0  0  0  0  0
   17.8178    0.8816    1.2082 C   0  0  0  0  0  0  0  0  0  0  0  0
   17.5041    2.2587    1.7155 C   0  0  0  0  0  0  0  0  0  0  0  0
   17.7691    3.2947    0.7298 N   0  0  0  0  0  0  0  0  0  0  0  0
   16.8817    3.2329   -0.4162 C   0  0  0  0  0  0  0  0  0  0  0  0
   17.8295    4.6205    1.3114 C   0  0  0  0  0  0  0  0  0  0  0  0
   15.4800   -4.6805    1.0261 C   0  0  0  0  0  0  0  0  0  0  0  0
   12.9798   -6.4263    0.9630 C   0  0  0  0  0  0  0  0  0  0  0  0
   12.4924   -5.2629    0.5976 N   0  0  0  0  0  0  0  0  0  0  0  0
    8.1798   -4.1465    0.4096 C   0  0  0  0  0  0  0  0  0  0  0  0
    6.9365   -3.5406    0.2563 C   0  0  0  0  0  0  0  0  0  0  0  0
    2.0706    2.5608   -1.7847 H   0  0  0  0  0  0  0  0  0  0  0  0
    1.5314    1.3237   -0.6088 H   0  0  0  0  0  0  0  0  0  0  0  0
    1.8053    0.8875   -2.3152 H   0  0  0  0  0  0  0  0  0  0  0  0
    3.9823    1.8834   -0.5990 H   0  0  0  0  0  0  0  0  0  0  0  0
    3.3897   -0.8474   -1.5131 H   0  0  0  0  0  0  0  0  0  0  0  0
    3.4335   -0.3753    0.1939 H   0  0  0  0  0  0  0  0  0  0  0  0
    5.8644    0.3101   -0.1083 H   0  0  0  0  0  0  0  0  0  0  0  0
    5.7748   -0.2636   -1.7955 H   0  0  0  0  0  0  0  0  0  0  0  0
    7.9353   -0.4935   -0.9158 H   0  0  0  0  0  0  0  0  0  0  0  0
   10.1282   -1.5554   -0.6459 H   0  0  0  0  0  0  0  0  0  0  0  0
   11.4040   -3.3298   -0.0595 H   0  0  0  0  0  0  0  0  0  0  0  0
   10.1086   -8.1186    1.6542 H   0  0  0  0  0  0  0  0  0  0  0  0
   16.5630   -7.7023   -0.1381 H   0  0  0  0  0  0  0  0  0  0  0  0
   18.5476   -6.3083   -0.6797 H   0  0  0  0  0  0  0  0  0  0  0  0
   18.5834   -3.8735   -0.1415 H   0  0  0  0  0  0  0  0  0  0  0  0
   15.6836   -2.2430    1.5128 H   0  0  0  0  0  0  0  0  0  0  0  0
   16.0551   -0.1120    1.8329 H   0  0  0  0  0  0  0  0  0  0  0  0
   18.7829    0.7519    0.7046 H   0  0  0  0  0  0  0  0  0  0  0  0
   18.1655    2.4506    2.5810 H   0  0  0  0  0  0  0  0  0  0  0  0
   16.4598    2.2952    2.1091 H   0  0  0  0  0  0  0  0  0  0  0  0
   16.9133    2.2324   -0.8733 H   0  0  0  0  0  0  0  0  0  0  0  0
   17.2005    3.9611   -1.1786 H   0  0  0  0  0  0  0  0  0  0  0  0
   15.8186    3.4544   -0.1594 H   0  0  0  0  0  0  0  0  0  0  0  0
   18.5836    4.6518    2.1140 H   0  0  0  0  0  0  0  0  0  0  0  0
   16.8590    4.9603    1.7442 H   0  0  0  0  0  0  0  0  0  0  0  0
   18.1245    5.3543    0.5446 H   0  0  0  0  0  0  0  0  0  0  0  0
   14.6078   -4.2255    1.4956 H   0  0  0  0  0  0  0  0  0  0  0  0
    8.2582   -5.1670    0.7754 H   0  0  0  0  0  0  0  0  0  0  0  0
    6.0231   -4.0855    0.5044 H   0  0  0  0  0  0  0  0  0  0  0  0
  1  2  1  0
  1 39  1  0
  1 40  1  0
  1 41  1  0
  2  3  1  0
  2 42  1  0
  3  4  1  0
  3 43  1  0
  3 44  1  0
  4  5  1  0
  4 45  1  0
  4 46  1  0
  5  6  1  0
  6  7  2  0
  6 38  1  0
  7  8  1  0
  7 47  1  0
  8  9  2  0
  8 48  1  0
  9 10  1  0
  9 37  1  0
 10 11  1  0
 10 49  1  0
 11 12  2  0
 11 36  1  0
 12 13  1  0
 13 14  2  0
 13 50  1  0
 14 15  1  0
 14 35  1  0
 15 16  1  0
 15 17  1  0
 17 18  2  0
 17 19  1  0
 19 20  1  0
 19 35  1  0
 20 21  2  0
 20 34  1  0
 21 22  1  0
 21 51  1  0
 22 23  2  0
 22 52  1  0
 23 24  1  0
 23 53  1  0
 24 25  1  0
 24 34  2  0
 25 26  1  0
 25 54  1  0
 26 27  2  0
 26 28  1  0
 28 29  2  0
 28 55  1  0
 29 30  1  0
 29 56  1  0
 30 31  1  0
 30 57  1  0
 30 58  1  0
 31 32  1  0
 31 33  1  0
 32 59  1  0
 32 60  1  0
 32 61  1  0
 33 62  1  0
 33 63  1  0
 33 64  1  0
 34 65  1  0
 35 36  2  0
 37 38  2  0
 37 66  1  0
 38 67  1  0
M  END

