
     RDKit          3D

 70 73  0  0  0  0  0  0  0  0999 V2000
    2.9069    0.1168    2.0190 C   0  0  0  0  0  0  0  0  0  0  0  0
    3.2942   -0.2908    0.7271 O   0  0  0  0  0  0  0  0  0  0  0  0
    3.7814   -1.5491    0.5479 C   0  0  0  0  0  0  0  0  0  0  0  0
    3.9694   -2.4832    1.5731 C   0  0  0  0  0  0  0  0  0  0  0  0
    4.4507   -3.7675    1.2877 C   0  0  0  0  0  0  0  0  0  0  0  0
    4.7602   -4.1555   -0.0198 C   0  0  0  0  0  0  0  0  0  0  0  0
    5.2336   -5.5550   -0.3391 C   0  0  0  0  0  0  0  0  0  0  0  0
    4.1002   -6.4980   -0.7770 C   0  0  0  0  0  0  0  0  0  0  0  0
    4.6172   -7.8169   -1.0672 N   0  0  0  0  0  0  0  0  0  0  0  0
    3.8536   -8.7499   -1.5100 C   0  0  0  0  0  0  0  0  0  0  0  0
    2.3568   -8.5366   -1.7262 C   0  0  0  0  0  0  0  0  0  0  0  0
    1.6593   -9.6294   -2.5322 C   0  0  0  0  0  0  0  0  0  0  0  0
    2.0220  -11.0051   -1.9828 C   0  0  0  0  0  0  0  0  0  0  0  0
    3.5179  -11.2228   -1.9988 C   0  0  0  0  0  0  0  0  0  0  0  0
    3.9413  -12.3880   -2.1940 O   0  0  0  0  0  0  0  0  0  0  0  0
    4.4073  -10.0962   -1.7956 C   0  0  0  0  0  0  0  0  0  0  0  0
    5.7953  -10.3721   -1.8707 C   0  0  0  0  0  0  0  0  0  0  0  0
    6.2034  -11.5873   -2.0955 O   0  0  0  0  0  0  0  0  0  0  0  0
    6.8927   -9.3590   -1.7254 C   0  0  0  0  0  0  0  0  0  0  0  0
    8.2876   -9.9035   -2.0628 C   0  0  0  0  0  0  0  0  0  0  0  0
    9.3618   -8.8797   -1.8496 C   0  0  0  0  0  0  0  0  0  0  0  0
   10.2855   -9.0728   -0.9396 N   0  0  0  0  0  0  0  0  0  0  0  0
   11.1332   -7.9493   -0.9876 O   0  0  0  0  0  0  0  0  0  0  0  0
   10.7002   -7.1167   -1.9270 C   0  0  0  0  0  0  0  0  0  0  0  0
    9.5758   -7.6256   -2.5277 C   0  0  0  0  0  0  0  0  0  0  0  0
    8.8860   -6.9005   -3.5992 C   0  0  0  0  0  0  0  0  0  0  0  0
    7.8343   -7.2558   -4.1010 O   0  0  0  0  0  0  0  0  0  0  0  0
    9.6310   -5.6485   -4.0723 C   0  0  0  0  0  0  0  0  0  0  0  0
   10.4092   -4.8693   -2.9769 C   0  0  1  0  0  0  0  0  0  0  0  0
   11.2198   -3.7410   -3.6346 C   0  0  0  0  0  0  0  0  0  0  0  0
    9.4196   -4.2554   -1.9669 C   0  0  0  0  0  0  0  0  0  0  0  0
   11.3857   -5.8360   -2.2451 C   0  0  0  0  0  0  0  0  0  0  0  0
    4.5805   -3.2049   -1.0401 C   0  0  0  0  0  0  0  0  0  0  0  0
    4.1040   -1.9199   -0.7819 C   0  0  0  0  0  0  0  0  0  0  0  0
    3.9029   -1.0722   -1.8346 O   0  0  0  0  0  0  0  0  0  0  0  0
    4.6832    0.1117   -1.8830 C   0  0  0  0  0  0  0  0  0  0  0  0
    2.5250    1.1422    1.9230 H   0  0  0  0  0  0  0  0  0  0  0  0
    3.7571    0.1169    2.7255 H   0  0  0  0  0  0  0  0  0  0  0  0
    2.1070   -0.5259    2.4289 H   0  0  0  0  0  0  0  0  0  0  0  0
    3.7356   -2.2209    2.6053 H   0  0  0  0  0  0  0  0  0  0  0  0
    4.5869   -4.4759    2.1098 H   0  0  0  0  0  0  0  0  0  0  0  0
    5.7304   -5.9989    0.5387 H   0  0  0  0  0  0  0  0  0  0  0  0
    5.9842   -5.5304   -1.1466 H   0  0  0  0  0  0  0  0  0  0  0  0
    3.5850   -6.0548   -1.6532 H   0  0  0  0  0  0  0  0  0  0  0  0
    3.3348   -6.5367    0.0244 H   0  0  0  0  0  0  0  0  0  0  0  0
    2.2082   -7.5551   -2.2037 H   0  0  0  0  0  0  0  0  0  0  0  0
    1.8854   -8.4500   -0.7284 H   0  0  0  0  0  0  0  0  0  0  0  0
    1.9665   -9.5678   -3.5907 H   0  0  0  0  0  0  0  0  0  0  0  0
    0.5684   -9.4781   -2.5126 H   0  0  0  0  0  0  0  0  0  0  0  0
    1.5623  -11.8305   -2.5459 H   0  0  0  0  0  0  0  0  0  0  0  0
    1.6762  -11.1023   -0.9360 H   0  0  0  0  0  0  0  0  0  0  0  0
    5.3353  -12.1763   -2.1726 H   0  0  0  0  0  0  0  0  0  0  0  0
    6.8506   -8.9642   -0.6975 H   0  0  0  0  0  0  0  0  0  0  0  0
    6.6489   -8.4883   -2.3517 H   0  0  0  0  0  0  0  0  0  0  0  0
    8.3090  -10.2271   -3.1158 H   0  0  0  0  0  0  0  0  0  0  0  0
    8.5259  -10.7827   -1.4493 H   0  0  0  0  0  0  0  0  0  0  0  0
    8.9006   -4.9968   -4.5749 H   0  0  0  0  0  0  0  0  0  0  0  0
   10.3406   -5.9867   -4.8516 H   0  0  0  0  0  0  0  0  0  0  0  0
   10.5548   -3.0281   -4.1474 H   0  0  0  0  0  0  0  0  0  0  0  0
   11.9302   -4.1343   -4.3799 H   0  0  0  0  0  0  0  0  0  0  0  0
   11.7966   -3.1790   -2.8819 H   0  0  0  0  0  0  0  0  0  0  0  0
    8.7122   -3.5827   -2.4771 H   0  0  0  0  0  0  0  0  0  0  0  0
    9.9531   -3.6642   -1.2054 H   0  0  0  0  0  0  0  0  0  0  0  0
    8.8282   -5.0210   -1.4411 H   0  0  0  0  0  0  0  0  0  0  0  0
   11.7888   -5.3768   -1.3278 H   0  0  0  0  0  0  0  0  0  0  0  0
   12.2560   -6.0519   -2.8925 H   0  0  0  0  0  0  0  0  0  0  0  0
    4.8087   -3.4504   -2.0808 H   0  0  0  0  0  0  0  0  0  0  0  0
    4.4289    0.6179   -2.8252 H   0  0  0  0  0  0  0  0  0  0  0  0
    5.7640   -0.1229   -1.8866 H   0  0  0  0  0  0  0  0  0  0  0  0
    4.4637    0.7851   -1.0398 H   0  0  0  0  0  0  0  0  0  0  0  0
  1  2  1  0
  1 37  1  0
  1 38  1  0
  1 39  1  0
  2  3  1  0
  3  4  2  0
  3 34  1  0
  4  5  1  0
  4 40  1  0
  5  6  2  0
  5 41  1  0
  6  7  1  0
  6 33  1  0
  7  8  1  0
  7 42  1  0
  7 43  1  0
  8  9  1  0
  8 44  1  0
  8 45  1  0
  9 10  2  0
 10 11  1  0
 10 16  1  0
 11 12  1  0
 11 46  1  0
 11 47  1  0
 12 13  1  0
 12 48  1  0
 12 49  1  0
 13 14  1  0
 13 50  1  0
 13 51  1  0
 14 15  2  0
 14 16  1  0
 16 17  2  0
 17 18  1  0
 17 19  1  0
 18 52  1  0
 19 20  1  0
 19 53  1  0
 19 54  1  0
 20 21  1  0
 20 55  1  0
 20 56  1  0
 21 22  2  0
 21 25  1  0
 22 23  1  0
 23 24  1  0
 24 25  2  0
 24 32  1  0
 25 26  1  0
 26 27  2  0
 26 28  1  0
 28 29  1  0
 28 57  1  0
 28 58  1  0
 29 30  1  6
 29 31  1  0
 29 32  1  0
 30 59  1  0
 30 60  1  0
 30 61  1  0
 31 62  1  0
 31 63  1  0
 31 64  1  0
 32 65  1  0
 32 66  1  0
 33 34  2  0
 33 67  1  0
 34 35  1  0
 35 36  1  0
 36 68  1  0
 36 69  1  0
 36 70  1  0
M  END

