
     RDKit          3D

 42 42  0  0  0  0  0  0  0  0999 V2000
    2.3368    1.2536    0.3314 C   0  0  0  0  0  0  0  0  0  0  0  0
    3.1682    0.1601   -0.3419 C   0  0  0  0  0  0  0  0  0  0  0  0
    3.4706   -1.0277    0.5752 C   0  0  0  0  0  0  0  0  0  0  0  0
    4.3007   -2.1302   -0.0936 C   0  0  0  0  0  0  0  0  0  0  0  0
    4.6823   -3.2509    0.8570 C   0  0  0  0  0  0  0  0  0  0  0  0
    5.3383   -2.8879    1.9558 N   0  0  0  0  0  0  0  0  0  0  0  0
    5.7183   -3.9050    2.8344 C   0  0  0  0  0  0  0  0  0  0  0  0
    6.4664   -3.4658    4.0549 C   0  0  0  0  0  0  0  0  0  0  0  0
    5.4056   -5.2286    2.5541 C   0  0  0  0  0  0  0  0  0  0  0  0
    4.6991   -5.5116    1.3825 C   0  0  0  0  0  0  0  0  0  0  0  0
    4.1936   -6.8822    0.9605 C   0  0  0  0  0  0  0  0  0  0  0  0
    4.0342   -6.8029   -0.4807 N   0  0  0  0  0  0  0  0  0  0  0  0
    3.8887   -7.8640   -1.4517 C   0  0  1  0  0  0  0  0  0  0  0  0
    3.2618   -9.1161   -0.8210 C   0  0  0  0  0  0  0  0  0  0  0  0
    3.0204   -7.3265   -2.6051 C   0  0  0  0  0  0  0  0  0  0  0  0
    5.3201   -8.1817   -1.9739 C   0  0  0  0  0  0  0  0  0  0  0  0
    4.3229   -4.4871    0.5094 N   0  0  0  0  0  0  0  0  0  0  0  0
    2.1449    2.0996   -0.3488 H   0  0  0  0  0  0  0  0  0  0  0  0
    2.8502    1.6513    1.2229 H   0  0  0  0  0  0  0  0  0  0  0  0
    1.3592    0.8654    0.6643 H   0  0  0  0  0  0  0  0  0  0  0  0
    4.1209    0.5917   -0.7010 H   0  0  0  0  0  0  0  0  0  0  0  0
    2.6428   -0.1960   -1.2479 H   0  0  0  0  0  0  0  0  0  0  0  0
    2.5209   -1.4608    0.9409 H   0  0  0  0  0  0  0  0  0  0  0  0
    4.0171   -0.6896    1.4707 H   0  0  0  0  0  0  0  0  0  0  0  0
    5.2343   -1.6812   -0.4797 H   0  0  0  0  0  0  0  0  0  0  0  0
    3.7600   -2.5581   -0.9527 H   0  0  0  0  0  0  0  0  0  0  0  0
    7.3880   -2.9196    3.7781 H   0  0  0  0  0  0  0  0  0  0  0  0
    6.7436   -4.3132    4.7013 H   0  0  0  0  0  0  0  0  0  0  0  0
    5.8655   -2.7534    4.6514 H   0  0  0  0  0  0  0  0  0  0  0  0
    5.7064   -6.0264    3.2419 H   0  0  0  0  0  0  0  0  0  0  0  0
    3.1997   -7.1696    1.3663 H   0  0  0  0  0  0  0  0  0  0  0  0
    4.8765   -7.7121    1.2082 H   0  0  0  0  0  0  0  0  0  0  0  0
    4.0676   -5.7736   -0.7240 H   0  0  0  0  0  0  0  0  0  0  0  0
    2.2611   -8.9007   -0.4178 H   0  0  0  0  0  0  0  0  0  0  0  0
    3.8847   -9.5222   -0.0114 H   0  0  0  0  0  0  0  0  0  0  0  0
    3.1589   -9.8958   -1.5891 H   0  0  0  0  0  0  0  0  0  0  0  0
    2.0061   -7.0830   -2.2552 H   0  0  0  0  0  0  0  0  0  0  0  0
    2.9391   -8.0888   -3.3931 H   0  0  0  0  0  0  0  0  0  0  0  0
    3.4624   -6.4211   -3.0478 H   0  0  0  0  0  0  0  0  0  0  0  0
    5.9645   -8.5520   -1.1637 H   0  0  0  0  0  0  0  0  0  0  0  0
    5.7888   -7.2918   -2.4177 H   0  0  0  0  0  0  0  0  0  0  0  0
    5.2425   -8.9606   -2.7461 H   0  0  0  0  0  0  0  0  0  0  0  0
  1  2  1  0
  1 18  1  0
  1 19  1  0
  1 20  1  0
  2  3  1  0
  2 21  1  0
  2 22  1  0
  3  4  1  0
  3 23  1  0
  3 24  1  0
  4  5  1  0
  4 25  1  0
  4 26  1  0
  5  6  2  0
  5 17  1  0
  6  7  1  0
  7  8  1  0
  7  9  2  0
  8 27  1  0
  8 28  1  0
  8 29  1  0
  9 10  1  0
  9 30  1  0
 10 11  1  0
 10 17  2  0
 11 12  1  0
 11 31  1  0
 11 32  1  0
 13 12  1  1
 12 33  1  0
 13 14  1  0
 13 15  1  0
 13 16  1  0
 14 34  1  0
 14 35  1  0
 14 36  1  0
 15 37  1  0
 15 38  1  0
 15 39  1  0
 16 40  1  0
 16 41  1  0
 16 42  1  0
M  END

