
     RDKit          3D

 77 84  0  0  0  0  0  0  0  0999 V2000
    1.9683    6.4772   -3.9835 C   0  0  0  0  0  0  0  0  0  0  0  0
    2.8489    6.6247   -2.8955 O   0  0  0  0  0  0  0  0  0  0  0  0
    3.5134    5.5315   -2.4314 C   0  0  0  0  0  0  0  0  0  0  0  0
    3.3950    4.2373   -2.9551 C   0  0  0  0  0  0  0  0  0  0  0  0
    4.1377    3.2032   -2.3873 C   0  0  0  0  0  0  0  0  0  0  0  0
    5.0045    3.4011   -1.2976 C   0  0  0  0  0  0  0  0  0  0  0  0
    5.1163    4.7054   -0.7611 C   0  0  0  0  0  0  0  0  0  0  0  0
    4.3704    5.7363   -1.3440 C   0  0  0  0  0  0  0  0  0  0  0  0
    5.9983    5.0516    0.4189 C   0  0  0  0  0  0  0  0  0  0  0  0
    6.3621    3.8749    1.3245 C   0  0  0  0  0  0  0  0  0  0  0  0
    7.3265    2.9519    0.7373 N   0  0  0  0  0  0  0  0  0  0  0  0
    8.6938    2.7451    1.2638 C   0  0  1  0  0  0  0  0  0  0  0  0
    9.4049    4.0250    1.7557 C   0  0  0  0  0  0  0  0  0  0  0  0
    9.1878    4.4017    3.2307 C   0  0  0  0  0  0  0  0  0  0  0  0
    9.3608    3.2456    4.1036 N   0  0  0  0  0  0  0  0  0  0  0  0
    9.4384    3.5504    5.5027 C   0  0  2  0  0  0  0  0  0  0  0  0
    8.3266    4.2789    6.1541 C   0  0  0  0  0  0  0  0  0  0  0  0
    8.5463    5.1000    7.2123 C   0  0  0  0  0  0  0  0  0  0  0  0
    7.4759    5.5795    7.9179 O   0  0  0  0  0  0  0  0  0  0  0  0
    7.4237    6.9014    8.3176 C   0  0  0  0  0  0  0  0  0  0  0  0
    7.8338    7.9452    7.4594 C   0  0  0  0  0  0  0  0  0  0  0  0
    7.7133    9.2879    7.8216 C   0  0  0  0  0  0  0  0  0  0  0  0
    8.1498   10.4136    6.9243 C   0  0  0  0  0  0  0  0  0  0  0  0
    7.1509    9.5591    9.0863 C   0  0  0  0  0  0  0  0  0  0  0  0
    6.9091   10.7764    9.7003 N   0  0  0  0  0  0  0  0  0  0  0  0
    6.3747   10.4874   10.8619 C   0  0  0  0  0  0  0  0  0  0  0  0
    5.9439   11.4666   11.8821 C   0  0  1  0  0  0  0  0  0  0  0  0
    6.7351   12.7511   12.0493 C   0  0  0  0  0  0  0  0  0  0  0  0
    5.3744   12.7985   11.4290 C   0  0  0  0  0  0  0  0  0  0  0  0
    6.2451    9.1254   11.0559 N   0  0  0  0  0  0  0  0  0  0  0  0
    5.8632    8.6758   11.8776 H   0  0  0  0  0  0  0  0  0  0  0  0
    6.7384    8.4967    9.9273 C   0  0  0  0  0  0  0  0  0  0  0  0
    6.8665    7.1511    9.5699 C   0  0  0  0  0  0  0  0  0  0  0  0
    9.7897    5.5306    7.6299 N   0  0  0  0  0  0  0  0  0  0  0  0
   10.8390    5.0683    7.0417 C   0  0  0  0  0  0  0  0  0  0  0  0
   10.8517    3.9781    6.0612 C   0  0  1  0  0  0  0  0  0  0  0  0
   11.6869    3.9674    5.3548 H   0  0  0  0  0  0  0  0  0  0  0  0
   10.2508    2.6218    6.3523 C   0  0  0  0  0  0  0  0  0  0  0  0
    8.4799    2.1315    3.7518 C   0  0  0  0  0  0  0  0  0  0  0  0
    8.7887    1.6406    2.3384 C   0  0  0  0  0  0  0  0  0  0  0  0
    6.9203    2.0474   -0.2133 C   0  0  0  0  0  0  0  0  0  0  0  0
    7.5708    1.0549   -0.5163 O   0  0  0  0  0  0  0  0  0  0  0  0
    5.6701    2.2501   -0.8129 N   0  0  0  0  0  0  0  0  0  0  0  0
    1.5474    7.4716   -4.1855 H   0  0  0  0  0  0  0  0  0  0  0  0
    1.1405    5.7806   -3.7548 H   0  0  0  0  0  0  0  0  0  0  0  0
    2.4881    6.1200   -4.8917 H   0  0  0  0  0  0  0  0  0  0  0  0
    2.7388    4.0185   -3.7976 H   0  0  0  0  0  0  0  0  0  0  0  0
    4.0431    2.1971   -2.8067 H   0  0  0  0  0  0  0  0  0  0  0  0
    4.4426    6.7496   -0.9409 H   0  0  0  0  0  0  0  0  0  0  0  0
    5.4818    5.8158    1.0239 H   0  0  0  0  0  0  0  0  0  0  0  0
    6.9333    5.5230    0.0665 H   0  0  0  0  0  0  0  0  0  0  0  0
    5.4462    3.3268    1.6074 H   0  0  0  0  0  0  0  0  0  0  0  0
    6.7857    4.2673    2.2527 H   0  0  0  0  0  0  0  0  0  0  0  0
    9.2500    2.3751    0.3932 H   0  0  0  0  0  0  0  0  0  0  0  0
    9.1561    4.8813    1.1084 H   0  0  0  0  0  0  0  0  0  0  0  0
   10.4838    3.8408    1.6259 H   0  0  0  0  0  0  0  0  0  0  0  0
    8.1971    4.8822    3.3802 H   0  0  0  0  0  0  0  0  0  0  0  0
    9.9306    5.1642    3.5158 H   0  0  0  0  0  0  0  0  0  0  0  0
    7.3076    4.1429    5.7869 H   0  0  0  0  0  0  0  0  0  0  0  0
    8.2552    7.6874    6.4859 H   0  0  0  0  0  0  0  0  0  0  0  0
    8.5382   10.0401    5.9655 H   0  0  0  0  0  0  0  0  0  0  0  0
    8.9361   11.0179    7.4063 H   0  0  0  0  0  0  0  0  0  0  0  0
    7.3138   11.1024    6.7201 H   0  0  0  0  0  0  0  0  0  0  0  0
    5.5161   11.0253   12.7874 H   0  0  0  0  0  0  0  0  0  0  0  0
    7.5967   12.8682   11.3871 H   0  0  0  0  0  0  0  0  0  0  0  0
    6.8670   13.1355   13.0648 H   0  0  0  0  0  0  0  0  0  0  0  0
    5.3169   12.9475   10.3478 H   0  0  0  0  0  0  0  0  0  0  0  0
    4.5444   13.2164   12.0060 H   0  0  0  0  0  0  0  0  0  0  0  0
    6.5590    6.3214   10.2077 H   0  0  0  0  0  0  0  0  0  0  0  0
   11.7960    5.5661    7.2592 H   0  0  0  0  0  0  0  0  0  0  0  0
    9.8968    2.4105    7.3646 H   0  0  0  0  0  0  0  0  0  0  0  0
   10.7443    1.7943    5.8378 H   0  0  0  0  0  0  0  0  0  0  0  0
    7.4050    2.4095    3.8385 H   0  0  0  0  0  0  0  0  0  0  0  0
    8.6464    1.3164    4.4729 H   0  0  0  0  0  0  0  0  0  0  0  0
    8.1384    0.8013    2.0531 H   0  0  0  0  0  0  0  0  0  0  0  0
    9.8240    1.2590    2.3344 H   0  0  0  0  0  0  0  0  0  0  0  0
    5.4650    1.4238   -1.3659 H   0  0  0  0  0  0  0  0  0  0  0  0
  1  2  1  0
  1 44  1  0
  1 45  1  0
  1 46  1  0
  2  3  1  0
  3  4  2  0
  3  8  1  0
  4  5  1  0
  4 47  1  0
  5  6  2  0
  5 48  1  0
  6  7  1  0
  6 43  1  0
  7  8  2  0
  7  9  1  0
  8 49  1  0
  9 10  1  0
  9 50  1  0
  9 51  1  0
 10 11  1  0
 10 52  1  0
 10 53  1  0
 11 12  1  0
 11 41  1  0
 12 13  1  0
 12 40  1  0
 12 54  1  6
 13 14  1  0
 13 55  1  0
 13 56  1  0
 14 15  1  0
 14 57  1  0
 14 58  1  0
 16 15  1  6
 15 39  1  0
 16 17  1  0
 16 36  1  0
 16 38  1  0
 17 18  2  0
 17 59  1  0
 18 19  1  0
 18 34  1  0
 19 20  1  0
 20 21  2  0
 20 33  1  0
 21 22  1  0
 21 60  1  0
 22 23  1  0
 22 24  2  0
 23 61  1  0
 23 62  1  0
 23 63  1  0
 24 25  1  0
 24 32  1  0
 25 26  2  0
 26 27  1  0
 26 30  1  0
 27 28  1  0
 27 29  1  0
 27 64  1  1
 28 29  1  0
 28 65  1  0
 28 66  1  0
 29 67  1  0
 29 68  1  0
 30 31  1  0
 30 32  1  0
 32 33  2  0
 33 69  1  0
 34 35  2  0
 35 36  1  0
 35 70  1  0
 36 37  1  6
 36 38  1  0
 38 71  1  0
 38 72  1  0
 39 40  1  0
 39 73  1  0
 39 74  1  0
 40 75  1  0
 40 76  1  0
 41 42  2  0
 41 43  1  0
 43 77  1  0
M  END

