
     RDKit          3D

 74 77  0  0  0  0  0  0  0  0999 V2000
    1.2542    1.3042    9.2828 C   0  0  0  0  0  0  0  0  0  0  0  0
    1.7722    0.5038    8.3372 C   0  0  0  0  0  0  0  0  0  0  0  0
    2.7692   -0.4753    8.4444 N   0  0  0  0  0  0  0  0  0  0  0  0
    3.0526   -1.1893    9.6089 C   0  0  0  0  0  0  0  0  0  0  0  0
    2.1085   -1.3357   10.6611 C   0  0  0  0  0  0  0  0  0  0  0  0
    2.4555   -2.0915   11.7632 C   0  0  0  0  0  0  0  0  0  0  0  0
    3.7260   -2.7009   11.8481 C   0  0  0  0  0  0  0  0  0  0  0  0
    4.0573   -3.4980   13.0650 C   0  0  0  0  0  0  0  0  0  0  0  0
    3.2390   -3.6075   13.9676 O   0  0  0  0  0  0  0  0  0  0  0  0
    5.3939   -4.1642   13.1761 C   0  0  1  0  0  0  0  0  0  0  0  0
    5.9903   -4.2861   14.5711 C   0  0  0  0  0  0  0  0  0  0  0  0
    5.4418   -5.4996   13.9059 C   0  0  0  0  0  0  0  0  0  0  0  0
    4.5714   -2.5102   10.7467 C   0  0  0  0  0  0  0  0  0  0  0  0
    4.2505   -1.7893    9.6759 N   0  0  0  0  0  0  0  0  0  0  0  0
    3.5869   -0.7142    7.2402 C   0  0  1  0  0  0  0  0  0  0  0  0
    2.8325   -1.4061    6.0793 C   0  0  0  0  0  0  0  0  0  0  0  0
    3.6853   -1.0581    4.8576 C   0  0  0  0  0  0  0  0  0  0  0  0
    4.0245    0.4282    5.0847 C   0  0  2  0  0  0  0  0  0  0  0  0
    5.1243    0.9182    4.2786 N   0  0  0  0  0  0  0  0  0  0  0  0
    5.0426    2.0378    3.5020 C   0  0  0  0  0  0  0  0  0  0  0  0
    4.0113    2.6650    3.3252 O   0  0  0  0  0  0  0  0  0  0  0  0
    6.3322    2.4201    2.7997 C   0  0  0  0  0  0  0  0  0  0  0  0
    6.3804    2.3421    1.3908 C   0  0  0  0  0  0  0  0  0  0  0  0
    5.1968    1.8654    0.5838 C   0  0  0  0  0  0  0  0  0  0  0  0
    7.5773    2.7047    0.7721 C   0  0  0  0  0  0  0  0  0  0  0  0
    8.7093    3.1500    1.4713 C   0  0  0  0  0  0  0  0  0  0  0  0
    9.9989    3.2775    0.6963 C   0  0  0  0  0  0  0  0  0  0  0  0
    9.8992    3.9725   -0.4786 N   0  0  0  0  0  0  0  0  0  0  0  0
   11.0428    2.7572    1.0515 O   0  0  0  0  0  0  0  0  0  0  0  0
    8.6575    3.3064    2.8837 C   0  0  0  0  0  0  0  0  0  0  0  0
    9.6853    3.7930    3.6516 N   0  0  0  0  0  0  0  0  0  0  0  0
   10.6369    4.8511    3.3020 C   0  0  2  0  0  0  0  0  0  0  0  0
   10.5940    4.9900    2.2147 H   0  0  0  0  0  0  0  0  0  0  0  0
   12.0616    4.4180    3.6593 C   0  0  0  0  0  0  0  0  0  0  0  0
   10.2230    6.2064    3.9249 C   0  0  0  0  0  0  0  0  0  0  0  0
   10.1397    6.2476    5.4528 C   0  0  0  0  0  0  0  0  0  0  0  0
    7.4415    2.8957    3.5033 C   0  0  0  0  0  0  0  0  0  0  0  0
    7.3365    3.0537    5.2658 Cl  0  0  0  0  0  0  0  0  0  0  0  0
    4.2430    0.5513    6.6181 C   0  0  0  0  0  0  0  0  0  0  0  0
    0.4788    2.0182    9.0003 H   0  0  0  0  0  0  0  0  0  0  0  0
    1.5690    1.2905   10.3270 H   0  0  0  0  0  0  0  0  0  0  0  0
    1.4187    0.6282    7.3092 H   0  0  0  0  0  0  0  0  0  0  0  0
    1.1196   -0.8877   10.5887 H   0  0  0  0  0  0  0  0  0  0  0  0
    1.7546   -2.2442   12.5867 H   0  0  0  0  0  0  0  0  0  0  0  0
    6.0971   -4.0314   12.3534 H   0  0  0  0  0  0  0  0  0  0  0  0
    5.3977   -3.8442   15.3763 H   0  0  0  0  0  0  0  0  0  0  0  0
    7.0738   -4.1715   14.6613 H   0  0  0  0  0  0  0  0  0  0  0  0
    4.4798   -5.8768   14.2628 H   0  0  0  0  0  0  0  0  0  0  0  0
    6.1324   -6.2539   13.5192 H   0  0  0  0  0  0  0  0  0  0  0  0
    5.5688   -2.9612   10.7198 H   0  0  0  0  0  0  0  0  0  0  0  0
    4.3831   -1.3840    7.5779 H   0  0  0  0  0  0  0  0  0  0  0  0
    1.8205   -0.9844    5.9567 H   0  0  0  0  0  0  0  0  0  0  0  0
    2.7158   -2.4871    6.2496 H   0  0  0  0  0  0  0  0  0  0  0  0
    3.1812   -1.2336    3.8951 H   0  0  0  0  0  0  0  0  0  0  0  0
    4.6142   -1.6568    4.8586 H   0  0  0  0  0  0  0  0  0  0  0  0
    3.1601    1.0394    4.7873 H   0  0  0  0  0  0  0  0  0  0  0  0
    6.0409    0.5064    4.4178 H   0  0  0  0  0  0  0  0  0  0  0  0
    4.8760    0.8559    0.8911 H   0  0  0  0  0  0  0  0  0  0  0  0
    5.4442    1.8273   -0.4872 H   0  0  0  0  0  0  0  0  0  0  0  0
    4.3293    2.5274    0.7244 H   0  0  0  0  0  0  0  0  0  0  0  0
    7.6561    2.5878   -0.3119 H   0  0  0  0  0  0  0  0  0  0  0  0
    9.0702    4.4953   -0.7262 H   0  0  0  0  0  0  0  0  0  0  0  0
   10.7231    4.0396   -1.0651 H   0  0  0  0  0  0  0  0  0  0  0  0
    9.5107    3.7163    4.6474 H   0  0  0  0  0  0  0  0  0  0  0  0
   12.7858    5.2134    3.4201 H   0  0  0  0  0  0  0  0  0  0  0  0
   12.3210    3.5168    3.0874 H   0  0  0  0  0  0  0  0  0  0  0  0
   12.1551    4.1891    4.7335 H   0  0  0  0  0  0  0  0  0  0  0  0
    9.2443    6.4928    3.5020 H   0  0  0  0  0  0  0  0  0  0  0  0
   10.9431    6.9678    3.5764 H   0  0  0  0  0  0  0  0  0  0  0  0
    9.3774    5.5502    5.8378 H   0  0  0  0  0  0  0  0  0  0  0  0
    9.8530    7.2530    5.7989 H   0  0  0  0  0  0  0  0  0  0  0  0
   11.1014    5.9989    5.9291 H   0  0  0  0  0  0  0  0  0  0  0  0
    3.8109    1.4838    7.0090 H   0  0  0  0  0  0  0  0  0  0  0  0
    5.3185    0.5843    6.8537 H   0  0  0  0  0  0  0  0  0  0  0  0
  1  2  2  0
  1 40  1  0
  1 41  1  0
  2  3  1  0
  2 42  1  0
  3  4  1  0
  3 15  1  0
  4  5  2  0
  4 14  1  0
  5  6  1  0
  5 43  1  0
  6  7  2  0
  6 44  1  0
  7  8  1  0
  7 13  1  0
  8  9  2  0
  8 10  1  0
 10 11  1  0
 10 12  1  0
 10 45  1  6
 11 12  1  0
 11 46  1  0
 11 47  1  0
 12 48  1  0
 12 49  1  0
 13 14  2  0
 13 50  1  0
 15 16  1  0
 15 39  1  0
 15 51  1  1
 16 17  1  0
 16 52  1  0
 16 53  1  0
 17 18  1  0
 17 54  1  0
 17 55  1  0
 18 19  1  0
 18 39  1  0
 18 56  1  1
 19 20  1  0
 19 57  1  0
 20 21  2  0
 20 22  1  0
 22 23  2  0
 22 37  1  0
 23 24  1  0
 23 25  1  0
 24 58  1  0
 24 59  1  0
 24 60  1  0
 25 26  2  0
 25 61  1  0
 26 27  1  0
 26 30  1  0
 27 28  1  0
 27 29  2  0
 28 62  1  0
 28 63  1  0
 30 31  1  0
 30 37  2  0
 31 32  1  0
 31 64  1  0
 32 33  1  6
 32 34  1  0
 32 35  1  0
 34 65  1  0
 34 66  1  0
 34 67  1  0
 35 36  1  0
 35 68  1  0
 35 69  1  0
 36 70  1  0
 36 71  1  0
 36 72  1  0
 37 38  1  0
 39 73  1  0
 39 74  1  0
M  END

