
     RDKit          3D

 33 34  0  0  0  0  0  0  0  0999 V2000
    0.9968    0.3945   -0.5678 C   0  0  0  0  0  0  0  0  0  0  0  0
    2.4528    0.1284   -0.3129 C   0  0  0  0  0  0  0  0  0  0  0  0
    3.4171    1.1427   -0.4732 C   0  0  0  0  0  0  0  0  0  0  0  0
    4.7659    0.9188   -0.2166 C   0  0  0  0  0  0  0  0  0  0  0  0
    5.7850    2.0147   -0.3553 C   0  0  0  0  0  0  0  0  0  0  0  0
    5.1730   -0.4027    0.1529 C   0  0  0  0  0  0  0  0  0  0  0  0
    6.6177   -0.6708    0.4490 C   0  0  0  0  0  0  0  0  0  0  0  0
    6.6441   -0.3525    1.6876 O   0  0  0  0  0  0  0  0  0  0  0  0
    7.6031   -1.1371   -0.4259 C   0  0  0  0  0  0  0  0  0  0  0  0
    7.3247   -1.4327   -1.8098 C   0  0  0  0  0  0  0  0  0  0  0  0
    8.3031   -1.8944   -2.6714 C   0  0  0  0  0  0  0  0  0  0  0  0
    9.6176   -2.0893   -2.2077 C   0  0  0  0  0  0  0  0  0  0  0  0
   10.9658   -2.7255   -3.3890 Br  0  0  0  0  0  0  0  0  0  0  0  0
    9.9426   -1.8143   -0.8619 C   0  0  0  0  0  0  0  0  0  0  0  0
    8.9628   -1.3553   -0.0117 C   0  0  0  0  0  0  0  0  0  0  0  0
    9.2831   -1.0968    1.2659 F   0  0  0  0  0  0  0  0  0  0  0  0
    4.2033   -1.4290    0.3958 C   0  0  0  0  0  0  0  0  0  0  0  0
    4.6388   -2.7785    0.8953 C   0  0  0  0  0  0  0  0  0  0  0  0
    2.8714   -1.1480    0.1249 C   0  0  0  0  0  0  0  0  0  0  0  0
    0.8259    1.4015   -0.9727 H   0  0  0  0  0  0  0  0  0  0  0  0
    0.4147    0.2969    0.3649 H   0  0  0  0  0  0  0  0  0  0  0  0
    0.5807   -0.3415   -1.2757 H   0  0  0  0  0  0  0  0  0  0  0  0
    3.0947    2.1356   -0.7972 H   0  0  0  0  0  0  0  0  0  0  0  0
    5.3077    2.9783   -0.5808 H   0  0  0  0  0  0  0  0  0  0  0  0
    6.5022    1.7825   -1.1587 H   0  0  0  0  0  0  0  0  0  0  0  0
    6.3699    2.1122    0.5718 H   0  0  0  0  0  0  0  0  0  0  0  0
    6.3103   -1.2871   -2.1865 H   0  0  0  0  0  0  0  0  0  0  0  0
    8.0577   -2.1088   -3.7130 H   0  0  0  0  0  0  0  0  0  0  0  0
   10.9527   -1.9564   -0.4765 H   0  0  0  0  0  0  0  0  0  0  0  0
    5.3007   -3.2717    0.1659 H   0  0  0  0  0  0  0  0  0  0  0  0
    3.7760   -3.4327    1.0823 H   0  0  0  0  0  0  0  0  0  0  0  0
    5.2166   -2.6731    1.8260 H   0  0  0  0  0  0  0  0  0  0  0  0
    2.1229   -1.9329    0.2642 H   0  0  0  0  0  0  0  0  0  0  0  0
  1  2  1  0
  1 20  1  0
  1 21  1  0
  1 22  1  0
  2  3  2  0
  2 19  1  0
  3  4  1  0
  3 23  1  0
  4  5  1  0
  4  6  2  0
  5 24  1  0
  5 25  1  0
  5 26  1  0
  6  7  1  0
  6 17  1  0
  7  8  2  0
  7  9  1  0
  9 10  2  0
  9 15  1  0
 10 11  1  0
 10 27  1  0
 11 12  2  0
 11 28  1  0
 12 13  1  0
 12 14  1  0
 14 15  2  0
 14 29  1  0
 15 16  1  0
 17 18  1  0
 17 19  2  0
 18 30  1  0
 18 31  1  0
 18 32  1  0
 19 33  1  0
M  END

