
     RDKit          3D

 57 58  0  0  0  0  0  0  0  0999 V2000
    6.4702   -0.0790    0.6823 C   0  0  0  0  0  0  0  0  0  0  0  0
    5.4590   -0.3667   -0.4012 C   0  0  0  0  0  0  0  0  0  0  0  0
    5.1670    0.5643   -1.4000 C   0  0  0  0  0  0  0  0  0  0  0  0
    4.2350    0.2650   -2.4019 C   0  0  0  0  0  0  0  0  0  0  0  0
    3.5569   -0.9553   -2.4473 C   0  0  0  0  0  0  0  0  0  0  0  0
    2.5242   -1.3005   -3.5134 C   0  0  1  0  0  0  0  0  0  0  0  0
    1.0918   -1.1042   -2.9787 C   0  0  0  0  0  0  0  0  0  0  0  0
    2.7223   -0.5456   -4.8334 C   0  0  0  0  0  0  0  0  0  0  0  0
    3.8519   -1.8895   -1.4255 C   0  0  0  0  0  0  0  0  0  0  0  0
    3.1459   -3.0657   -1.4819 O   0  0  0  0  0  0  0  0  0  0  0  0
    3.4192   -4.0981   -0.5843 C   0  0  0  0  0  0  0  0  0  0  0  0
    4.7134   -4.8429   -0.9035 C   0  0  0  0  0  0  0  0  0  0  0  0
    5.3518   -4.7251   -1.9163 O   0  0  0  0  0  0  0  0  0  0  0  0
    5.0021   -5.6909    0.1011 O   0  0  0  0  0  0  0  0  0  0  0  0
    6.2010   -6.5037    0.0147 C   0  0  1  0  0  0  0  0  0  0  0  0
    7.2105   -6.0104    1.0333 C   0  0  0  0  0  0  0  0  0  0  0  0
    5.7612   -7.9611    0.2724 C   0  0  0  0  0  0  0  0  0  0  0  0
    6.1444   -8.5355    1.2729 O   0  0  0  0  0  0  0  0  0  0  0  0
    4.8649   -8.6298   -0.7149 C   0  0  0  0  0  0  0  0  0  0  0  0
    4.3028   -9.8697   -0.3594 C   0  0  0  0  0  0  0  0  0  0  0  0
    3.4689  -10.5709   -1.2218 C   0  0  0  0  0  0  0  0  0  0  0  0
    3.1879  -10.0457   -2.5004 C   0  0  0  0  0  0  0  0  0  0  0  0
    2.3667  -10.7002   -3.4249 N   0  0  0  0  0  0  0  0  0  0  0  0
    1.8540  -12.3132   -3.4451 S   0  0  1  0  0  0  0  0  0  0  0  0
    3.3513  -13.2524   -3.7845 C   0  0  0  0  0  0  0  0  0  0  0  0
    1.3958  -12.6880   -2.1113 O   0  0  0  0  0  0  0  0  0  0  0  0
    0.9863  -12.3869   -4.6155 O   0  0  0  0  0  0  0  0  0  0  0  0
    3.7502   -8.8076   -2.8691 C   0  0  0  0  0  0  0  0  0  0  0  0
    4.5682   -8.1079   -1.9880 C   0  0  0  0  0  0  0  0  0  0  0  0
    4.7883   -1.6025   -0.4292 C   0  0  0  0  0  0  0  0  0  0  0  0
    6.8787    0.9382    0.5919 H   0  0  0  0  0  0  0  0  0  0  0  0
    7.3172   -0.7848    0.6389 H   0  0  0  0  0  0  0  0  0  0  0  0
    6.0238   -0.1742    1.6865 H   0  0  0  0  0  0  0  0  0  0  0  0
    5.6745    1.5325   -1.4058 H   0  0  0  0  0  0  0  0  0  0  0  0
    4.0385    1.0126   -3.1731 H   0  0  0  0  0  0  0  0  0  0  0  0
    2.6464   -2.3760   -3.7231 H   0  0  0  0  0  0  0  0  0  0  0  0
    0.9042   -0.0433   -2.7429 H   0  0  0  0  0  0  0  0  0  0  0  0
    0.9249   -1.6913   -2.0638 H   0  0  0  0  0  0  0  0  0  0  0  0
    0.3468   -1.4218   -3.7273 H   0  0  0  0  0  0  0  0  0  0  0  0
    2.5213    0.5334   -4.7282 H   0  0  0  0  0  0  0  0  0  0  0  0
    2.0258   -0.9286   -5.5964 H   0  0  0  0  0  0  0  0  0  0  0  0
    3.7466   -0.6629   -5.2208 H   0  0  0  0  0  0  0  0  0  0  0  0
    2.5987   -4.8279   -0.6812 H   0  0  0  0  0  0  0  0  0  0  0  0
    3.4328   -3.7709    0.4697 H   0  0  0  0  0  0  0  0  0  0  0  0
    6.6010   -6.4041   -1.0052 H   0  0  0  0  0  0  0  0  0  0  0  0
    6.8014   -6.0822    2.0505 H   0  0  0  0  0  0  0  0  0  0  0  0
    7.4841   -4.9668    0.8185 H   0  0  0  0  0  0  0  0  0  0  0  0
    8.1193   -6.6280    0.9919 H   0  0  0  0  0  0  0  0  0  0  0  0
    4.5312  -10.2719    0.6297 H   0  0  0  0  0  0  0  0  0  0  0  0
    3.0106  -11.5075   -0.9061 H   0  0  0  0  0  0  0  0  0  0  0  0
    2.1563  -10.2327   -4.3022 H   0  0  0  0  0  0  0  0  0  0  0  0
    4.0931  -13.0454   -3.0020 H   0  0  0  0  0  0  0  0  0  0  0  0
    3.7226  -12.9735   -4.7787 H   0  0  0  0  0  0  0  0  0  0  0  0
    3.0563  -14.3106   -3.7614 H   0  0  0  0  0  0  0  0  0  0  0  0
    3.5429   -8.3947   -3.8600 H   0  0  0  0  0  0  0  0  0  0  0  0
    4.9849   -7.1551   -2.3192 H   0  0  0  0  0  0  0  0  0  0  0  0
    5.0186   -2.3360    0.3458 H   0  0  0  0  0  0  0  0  0  0  0  0
  1  2  1  0
  1 31  1  0
  1 32  1  0
  1 33  1  0
  2  3  2  0
  2 30  1  0
  3  4  1  0
  3 34  1  0
  4  5  2  0
  4 35  1  0
  5  6  1  0
  5  9  1  0
  6  7  1  0
  6  8  1  0
  6 36  1  6
  7 37  1  0
  7 38  1  0
  7 39  1  0
  8 40  1  0
  8 41  1  0
  8 42  1  0
  9 10  1  0
  9 30  2  0
 10 11  1  0
 11 12  1  0
 11 43  1  0
 11 44  1  0
 12 13  2  0
 12 14  1  0
 14 15  1  0
 15 16  1  0
 15 17  1  0
 15 45  1  6
 16 46  1  0
 16 47  1  0
 16 48  1  0
 17 18  2  0
 17 19  1  0
 19 20  2  0
 19 29  1  0
 20 21  1  0
 20 49  1  0
 21 22  2  0
 21 50  1  0
 22 23  1  0
 22 28  1  0
 24 23  1  1
 23 51  1  0
 24 25  1  0
 24 26  2  0
 24 27  2  0
 25 52  1  0
 25 53  1  0
 25 54  1  0
 28 29  2  0
 28 55  1  0
 29 56  1  0
 30 57  1  0
M  END

