
     RDKit          3D

 59 62  0  0  0  0  0  0  0  0999 V2000
    3.6839    1.8673    0.0409 C   0  0  0  0  0  0  0  0  0  0  0  0
    3.2056    0.4862    0.4873 C   0  0  0  0  0  0  0  0  0  0  0  0
    4.3373   -0.5238    0.7469 C   0  0  1  0  0  0  0  0  0  0  0  0
    5.0414   -0.0910    1.4747 H   0  0  0  0  0  0  0  0  0  0  0  0
    3.8061   -1.8503    1.3045 C   0  0  0  0  0  0  0  0  0  0  0  0
    5.1293   -0.7443   -0.4561 N   0  0  0  0  0  0  0  0  0  0  0  0
    6.4815   -0.6017   -0.5089 C   0  0  0  0  0  0  0  0  0  0  0  0
    7.1791   -0.2489    0.4366 O   0  0  0  0  0  0  0  0  0  0  0  0
    7.0574   -0.9125   -1.8475 C   0  0  0  0  0  0  0  0  0  0  0  0
    6.2917   -1.3199   -2.9013 N   0  0  0  0  0  0  0  0  0  0  0  0
    7.0383   -1.5255   -3.9316 N   0  0  0  0  0  0  0  0  0  0  0  0
    8.3199   -1.2550   -3.5642 N   0  0  0  0  0  0  0  0  0  0  0  0
    9.3912   -1.3889   -4.5072 C   0  0  0  0  0  0  0  0  0  0  0  0
    9.9683   -0.2304   -5.0307 C   0  0  0  0  0  0  0  0  0  0  0  0
   11.0210   -0.3389   -5.9412 C   0  0  0  0  0  0  0  0  0  0  0  0
   11.4771   -1.6012   -6.3172 C   0  0  0  0  0  0  0  0  0  0  0  0
   10.8956   -2.7671   -5.7979 C   0  0  0  0  0  0  0  0  0  0  0  0
    9.8312   -2.6736   -4.8828 C   0  0  0  0  0  0  0  0  0  0  0  0
    9.2057   -3.9267   -4.3109 C   0  0  0  0  0  0  0  0  0  0  0  0
    9.5778   -5.1722   -5.1112 C   0  0  0  0  0  0  0  0  0  0  0  0
   11.0120   -5.2019   -5.3679 N   0  0  0  0  0  0  0  0  0  0  0  0
   11.5033   -6.4958   -5.8173 C   0  0  0  0  0  0  0  0  0  0  0  0
   11.4712   -7.5648   -4.7407 C   0  0  0  0  0  0  0  0  0  0  0  0
   11.0643   -8.8737   -5.0338 C   0  0  0  0  0  0  0  0  0  0  0  0
   11.0837   -9.8749   -4.0578 C   0  0  0  0  0  0  0  0  0  0  0  0
   11.5103   -9.5504   -2.7734 C   0  0  0  0  0  0  0  0  0  0  0  0
   11.5284  -10.5019   -1.8276 F   0  0  0  0  0  0  0  0  0  0  0  0
   11.9146   -8.2569   -2.4453 C   0  0  0  0  0  0  0  0  0  0  0  0
   11.8936   -7.2719   -3.4335 C   0  0  0  0  0  0  0  0  0  0  0  0
   11.4084   -4.1197   -6.2504 C   0  0  0  0  0  0  0  0  0  0  0  0
    8.3845   -0.8646   -2.2572 C   0  0  0  0  0  0  0  0  0  0  0  0
    9.6385   -0.5116   -1.5325 C   0  0  0  0  0  0  0  0  0  0  0  0
    2.8343    2.5481   -0.1256 H   0  0  0  0  0  0  0  0  0  0  0  0
    4.2555    1.8071   -0.8984 H   0  0  0  0  0  0  0  0  0  0  0  0
    4.3403    2.3263    0.7983 H   0  0  0  0  0  0  0  0  0  0  0  0
    2.5158    0.0634   -0.2678 H   0  0  0  0  0  0  0  0  0  0  0  0
    2.6137    0.5771    1.4145 H   0  0  0  0  0  0  0  0  0  0  0  0
    3.2445   -1.6870    2.2382 H   0  0  0  0  0  0  0  0  0  0  0  0
    4.6338   -2.5433    1.5182 H   0  0  0  0  0  0  0  0  0  0  0  0
    3.1273   -2.3396    0.5851 H   0  0  0  0  0  0  0  0  0  0  0  0
    4.6749   -1.0690   -1.3063 H   0  0  0  0  0  0  0  0  0  0  0  0
    9.5824    0.7453   -4.7291 H   0  0  0  0  0  0  0  0  0  0  0  0
   11.4808    0.5607   -6.3565 H   0  0  0  0  0  0  0  0  0  0  0  0
   12.3045   -1.6884   -7.0276 H   0  0  0  0  0  0  0  0  0  0  0  0
    8.1118   -3.8162   -4.2739 H   0  0  0  0  0  0  0  0  0  0  0  0
    9.5465   -4.0534   -3.2676 H   0  0  0  0  0  0  0  0  0  0  0  0
    8.9989   -5.1992   -6.0641 H   0  0  0  0  0  0  0  0  0  0  0  0
    9.2967   -6.0714   -4.5444 H   0  0  0  0  0  0  0  0  0  0  0  0
   12.5495   -6.3533   -6.1430 H   0  0  0  0  0  0  0  0  0  0  0  0
   10.9543   -6.8618   -6.7151 H   0  0  0  0  0  0  0  0  0  0  0  0
   10.7234   -9.1202   -6.0435 H   0  0  0  0  0  0  0  0  0  0  0  0
   10.7668  -10.8965   -4.2767 H   0  0  0  0  0  0  0  0  0  0  0  0
   12.2394   -8.0406   -1.4254 H   0  0  0  0  0  0  0  0  0  0  0  0
   12.1977   -6.2503   -3.1947 H   0  0  0  0  0  0  0  0  0  0  0  0
   11.0543   -4.2937   -7.2971 H   0  0  0  0  0  0  0  0  0  0  0  0
   12.5098   -4.0881   -6.3054 H   0  0  0  0  0  0  0  0  0  0  0  0
   10.3754   -1.3290   -1.5904 H   0  0  0  0  0  0  0  0  0  0  0  0
    9.3882   -0.3159   -0.4827 H   0  0  0  0  0  0  0  0  0  0  0  0
   10.1125    0.3868   -1.9597 H   0  0  0  0  0  0  0  0  0  0  0  0
  1  2  1  0
  1 33  1  0
  1 34  1  0
  1 35  1  0
  2  3  1  0
  2 36  1  0
  2 37  1  0
  3  4  1  1
  3  5  1  0
  3  6  1  0
  5 38  1  0
  5 39  1  0
  5 40  1  0
  6  7  1  0
  6 41  1  0
  7  8  2  0
  7  9  1  0
  9 10  1  0
  9 31  2  0
 10 11  2  0
 11 12  1  0
 12 13  1  0
 12 31  1  0
 13 14  2  0
 13 18  1  0
 14 15  1  0
 14 42  1  0
 15 16  2  0
 15 43  1  0
 16 17  1  0
 16 44  1  0
 17 18  2  0
 17 30  1  0
 18 19  1  0
 19 20  1  0
 19 45  1  0
 19 46  1  0
 20 21  1  0
 20 47  1  0
 20 48  1  0
 21 22  1  0
 21 30  1  0
 22 23  1  0
 22 49  1  0
 22 50  1  0
 23 24  2  0
 23 29  1  0
 24 25  1  0
 24 51  1  0
 25 26  2  0
 25 52  1  0
 26 27  1  0
 26 28  1  0
 28 29  2  0
 28 53  1  0
 29 54  1  0
 30 55  1  0
 30 56  1  0
 31 32  1  0
 32 57  1  0
 32 58  1  0
 32 59  1  0
M  END

