
     RDKit          3D

 60 62  0  0  0  0  0  0  0  0999 V2000
    2.4479    1.2862    1.5891 C   0  0  0  0  0  0  0  0  0  0  0  0
    2.4985   -0.1016    0.9726 C   0  0  0  0  0  0  0  0  0  0  0  0
    3.3527   -0.9872    1.7228 O   0  0  0  0  0  0  0  0  0  0  0  0
    4.6643   -0.9870    1.4242 C   0  0  0  0  0  0  0  0  0  0  0  0
    5.1804   -0.2913    0.5902 O   0  0  0  0  0  0  0  0  0  0  0  0
    5.3851   -2.0107    2.2987 C   0  0  0  0  0  0  0  0  0  0  0  0
    6.8048   -2.0514    2.0762 N   0  0  0  0  0  0  0  0  0  0  0  0
    7.3647   -3.0136    1.2374 C   0  0  0  0  0  0  0  0  0  0  0  0
    6.6350   -3.9150    0.6597 N   0  0  0  0  0  0  0  0  0  0  0  0
    7.1431   -4.8802   -0.1545 C   0  0  0  0  0  0  0  0  0  0  0  0
    8.4232   -4.9545   -0.3766 O   0  0  0  0  0  0  0  0  0  0  0  0
    6.2046   -5.7981   -0.7436 C   0  0  0  0  0  0  0  0  0  0  0  0
    6.5441   -6.8385   -1.5728 C   0  0  0  0  0  0  0  0  0  0  0  0
    7.9470   -7.1723   -1.8554 C   0  0  0  0  0  0  0  0  0  0  0  0
    8.4042   -7.5244   -3.1121 C   0  0  0  0  0  0  0  0  0  0  0  0
    9.7970   -7.6791   -3.3579 C   0  0  0  0  0  0  0  0  0  0  0  0
   10.3076   -7.9893   -4.5576 O   0  0  0  0  0  0  0  0  0  0  0  0
    9.4551   -8.2241   -5.6630 C   0  0  0  0  0  0  0  0  0  0  0  0
   10.7489   -7.4827   -2.3262 C   0  0  0  0  0  0  0  0  0  0  0  0
   12.0670   -7.6826   -2.5927 O   0  0  0  0  0  0  0  0  0  0  0  0
   12.8865   -6.5216   -2.6348 C   0  0  0  0  0  0  0  0  0  0  0  0
   10.2904   -7.1621   -1.0403 C   0  0  0  0  0  0  0  0  0  0  0  0
   11.2259   -7.0384   -0.0824 O   0  0  0  0  0  0  0  0  0  0  0  0
   10.8445   -6.6512    1.2325 C   0  0  0  0  0  0  0  0  0  0  0  0
    8.8963   -7.0353   -0.7867 C   0  0  0  0  0  0  0  0  0  0  0  0
    9.1374   -2.7715    1.1403 S   0  0  0  0  0  0  0  0  0  0  0  0
    9.0313   -1.3641    2.2024 C   0  0  0  0  0  0  0  0  0  0  0  0
   10.0698   -0.5513    2.6373 C   0  0  0  0  0  0  0  0  0  0  0  0
    9.7829    0.5354    3.4858 C   0  0  0  0  0  0  0  0  0  0  0  0
   10.8553    1.2831    3.8679 O   0  0  0  0  0  0  0  0  0  0  0  0
   10.6522    2.3969    4.7031 C   0  0  0  0  0  0  0  0  0  0  0  0
    8.4596    0.7864    3.8770 C   0  0  0  0  0  0  0  0  0  0  0  0
    7.4146   -0.0385    3.4321 C   0  0  0  0  0  0  0  0  0  0  0  0
    7.6967   -1.1202    2.5970 C   0  0  0  0  0  0  0  0  0  0  0  0
    1.7255    1.9129    1.0418 H   0  0  0  0  0  0  0  0  0  0  0  0
    3.4322    1.7745    1.5342 H   0  0  0  0  0  0  0  0  0  0  0  0
    2.1317    1.2385    2.6430 H   0  0  0  0  0  0  0  0  0  0  0  0
    2.8578   -0.0581   -0.0662 H   0  0  0  0  0  0  0  0  0  0  0  0
    1.5106   -0.5842    0.9917 H   0  0  0  0  0  0  0  0  0  0  0  0
    4.9761   -3.0024    2.0578 H   0  0  0  0  0  0  0  0  0  0  0  0
    5.1582   -1.8006    3.3565 H   0  0  0  0  0  0  0  0  0  0  0  0
    5.1537   -5.6013   -0.5196 H   0  0  0  0  0  0  0  0  0  0  0  0
    5.7609   -7.4131   -2.0740 H   0  0  0  0  0  0  0  0  0  0  0  0
    7.6897   -7.6229   -3.9288 H   0  0  0  0  0  0  0  0  0  0  0  0
   10.1105   -8.4800   -6.5052 H   0  0  0  0  0  0  0  0  0  0  0  0
    8.8685   -7.3262   -5.9210 H   0  0  0  0  0  0  0  0  0  0  0  0
    8.7670   -9.0647   -5.4718 H   0  0  0  0  0  0  0  0  0  0  0  0
   13.9014   -6.8612   -2.8850 H   0  0  0  0  0  0  0  0  0  0  0  0
   12.9081   -6.0046   -1.6616 H   0  0  0  0  0  0  0  0  0  0  0  0
   12.5416   -5.8175   -3.4129 H   0  0  0  0  0  0  0  0  0  0  0  0
   11.7786   -6.4528    1.7736 H   0  0  0  0  0  0  0  0  0  0  0  0
   10.3066   -7.4683    1.7446 H   0  0  0  0  0  0  0  0  0  0  0  0
   10.2163   -5.7488    1.2145 H   0  0  0  0  0  0  0  0  0  0  0  0
    8.5403   -7.1379    0.2344 H   0  0  0  0  0  0  0  0  0  0  0  0
   11.1047   -0.7264    2.3386 H   0  0  0  0  0  0  0  0  0  0  0  0
   11.6401    2.8457    4.8752 H   0  0  0  0  0  0  0  0  0  0  0  0
   10.2172    2.1099    5.6784 H   0  0  0  0  0  0  0  0  0  0  0  0
    9.9951    3.1521    4.2335 H   0  0  0  0  0  0  0  0  0  0  0  0
    8.2196    1.6279    4.5264 H   0  0  0  0  0  0  0  0  0  0  0  0
    6.3911    0.1855    3.7370 H   0  0  0  0  0  0  0  0  0  0  0  0
  1  2  1  0
  1 35  1  0
  1 36  1  0
  1 37  1  0
  2  3  1  0
  2 38  1  0
  2 39  1  0
  3  4  1  0
  4  5  2  0
  4  6  1  0
  6  7  1  0
  6 40  1  0
  6 41  1  0
  7  8  1  0
  7 34  1  0
  8  9  2  0
  8 26  1  0
  9 10  1  0
 10 11  2  0
 10 12  1  0
 12 13  2  0
 12 42  1  0
 13 14  1  0
 13 43  1  0
 14 15  2  0
 14 25  1  0
 15 16  1  0
 15 44  1  0
 16 17  1  0
 16 19  2  0
 17 18  1  0
 18 45  1  0
 18 46  1  0
 18 47  1  0
 19 20  1  0
 19 22  1  0
 20 21  1  0
 21 48  1  0
 21 49  1  0
 21 50  1  0
 22 23  1  0
 22 25  2  0
 23 24  1  0
 24 51  1  0
 24 52  1  0
 24 53  1  0
 25 54  1  0
 26 27  1  0
 27 28  1  0
 27 34  2  0
 28 29  2  0
 28 55  1  0
 29 30  1  0
 29 32  1  0
 30 31  1  0
 31 56  1  0
 31 57  1  0
 31 58  1  0
 32 33  2  0
 32 59  1  0
 33 34  1  0
 33 60  1  0
M  END

