
     RDKit          3D

 41 44  0  0  0  0  0  0  0  0999 V2000
    1.2190   -0.7636   -0.5020 O   0  0  0  0  0  0  0  0  0  0  0  0
    1.8103    0.2525   -0.7931 C   0  0  0  0  0  0  0  0  0  0  0  0
    1.2815    1.4435   -0.5955 O   0  0  0  0  0  0  0  0  0  0  0  0
    3.1403    0.0735   -1.4718 C   0  0  0  0  0  0  0  0  0  0  0  0
    4.3901    0.8004   -1.3658 C   0  0  0  0  0  0  0  0  0  0  0  0
    4.6703    1.8873   -0.6931 N   0  0  0  0  0  0  0  0  0  0  0  0
    3.8291    2.6293    0.3899 C   0  0  0  0  0  0  0  0  0  0  0  0
    3.9315    2.0984    1.4905 O   0  0  0  0  0  0  0  0  0  0  0  0
    3.1540    3.7717   -0.1037 C   0  0  0  0  0  0  0  0  0  0  0  0
    3.2762    4.2074   -1.4714 C   0  0  0  0  0  0  0  0  0  0  0  0
    2.5923    5.3174   -1.9513 C   0  0  0  0  0  0  0  0  0  0  0  0
    1.7689    6.0744   -1.1201 C   0  0  0  0  0  0  0  0  0  0  0  0
    1.6232    5.7261    0.2565 C   0  0  0  0  0  0  0  0  0  0  0  0
    0.8047    6.5064    1.1151 C   0  0  0  0  0  0  0  0  0  0  0  0
    0.6556    6.1928    2.4557 C   0  0  0  0  0  0  0  0  0  0  0  0
    1.3268    5.0780    2.9843 C   0  0  0  0  0  0  0  0  0  0  0  0
    2.1358    4.2906    2.1693 C   0  0  0  0  0  0  0  0  0  0  0  0
    2.3083    4.5814    0.7974 C   0  0  0  0  0  0  0  0  0  0  0  0
    5.7049    0.0191   -2.2796 S   0  0  0  0  0  0  0  0  0  0  0  0
    4.4917   -1.0173   -3.1800 C   0  0  1  0  0  0  0  0  0  0  0  0
    4.7624   -2.4235   -3.6966 C   0  0  0  0  0  0  0  0  0  0  0  0
    3.3027   -2.9826   -3.8265 C   0  0  0  0  0  0  0  0  0  0  0  0
    2.3669   -2.0605   -2.9727 C   0  0  0  0  0  0  0  0  0  0  0  0
    3.3714   -1.2280   -2.1685 C   0  0  2  0  0  0  0  0  0  0  0  0
    1.8910    2.2064   -0.6891 H   0  0  0  0  0  0  0  0  0  0  0  0
    5.6489    2.1736   -0.7066 H   0  0  0  0  0  0  0  0  0  0  0  0
    3.9325    3.6712   -2.1555 H   0  0  0  0  0  0  0  0  0  0  0  0
    2.7179    5.6051   -2.9987 H   0  0  0  0  0  0  0  0  0  0  0  0
    1.2380    6.9472   -1.5049 H   0  0  0  0  0  0  0  0  0  0  0  0
    0.2893    7.3730    0.6913 H   0  0  0  0  0  0  0  0  0  0  0  0
    0.0199    6.8093    3.0969 H   0  0  0  0  0  0  0  0  0  0  0  0
    1.2165    4.8216    4.0410 H   0  0  0  0  0  0  0  0  0  0  0  0
    2.6518    3.4303    2.5896 H   0  0  0  0  0  0  0  0  0  0  0  0
    4.1193   -0.3887   -4.0054 H   0  0  0  0  0  0  0  0  0  0  0  0
    5.3420   -2.9986   -2.9575 H   0  0  0  0  0  0  0  0  0  0  0  0
    5.3123   -2.4428   -4.6475 H   0  0  0  0  0  0  0  0  0  0  0  0
    3.2616   -4.0250   -3.4793 H   0  0  0  0  0  0  0  0  0  0  0  0
    2.9830   -2.9883   -4.8786 H   0  0  0  0  0  0  0  0  0  0  0  0
    1.6817   -2.6170   -2.3230 H   0  0  0  0  0  0  0  0  0  0  0  0
    1.7550   -1.4093   -3.6159 H   0  0  0  0  0  0  0  0  0  0  0  0
    3.7785   -1.9003   -1.3798 H   0  0  0  0  0  0  0  0  0  0  0  0
  1  2  2  0
  2  3  1  0
  2  4  1  0
  3 25  1  0
  4  5  2  0
  4 24  1  0
  5  6  1  0
  5 19  1  0
  6  7  1  0
  6 26  1  0
  7  8  2  0
  7  9  1  0
  9 10  2  0
  9 18  1  0
 10 11  1  0
 10 27  1  0
 11 12  2  0
 11 28  1  0
 12 13  1  0
 12 29  1  0
 13 14  1  0
 13 18  2  0
 14 15  2  0
 14 30  1  0
 15 16  1  0
 15 31  1  0
 16 17  2  0
 16 32  1  0
 17 18  1  0
 17 33  1  0
 19 20  1  0
 20 21  1  0
 20 24  1  0
 20 34  1  6
 21 22  1  0
 21 35  1  0
 21 36  1  0
 22 23  1  0
 22 37  1  0
 22 38  1  0
 23 24  1  0
 23 39  1  0
 23 40  1  0
 24 41  1  1
M  END

