
     RDKit          3D

 19 19  0  0  0  0  0  0  0  0999 V2000
    2.5057   -2.2470   -0.1208 C   0  0  0  0  0  0  0  0  0  0  0  0
    2.6882   -0.7480   -0.2825 C   0  0  0  0  0  0  0  0  0  0  0  0
    3.1808   -0.4178   -1.5997 O   0  0  0  0  0  0  0  0  0  0  0  0
    4.4978   -0.4645   -1.7924 C   0  0  0  0  0  0  0  0  0  0  0  0
    5.3242   -0.7134   -0.9511 O   0  0  0  0  0  0  0  0  0  0  0  0
    4.8490   -0.1750   -3.2377 C   0  0  0  0  0  0  0  0  0  0  0  0
    4.1061   -0.7773   -4.1696 N   0  0  0  0  0  0  0  0  0  0  0  0
    4.4403   -0.5908   -5.4361 C   0  0  0  0  0  0  0  0  0  0  0  0
    3.4669   -1.4026   -6.6270 Cl  0  0  0  0  0  0  0  0  0  0  0  0
    5.4399    0.1546   -5.8942 N   0  0  0  0  0  0  0  0  0  0  0  0
    6.1809    0.7706   -4.9794 C   0  0  0  0  0  0  0  0  0  0  0  0
    5.9360    0.6371   -3.6053 C   0  0  0  0  0  0  0  0  0  0  0  0
    6.9313    1.4904   -2.4760 Cl  0  0  0  0  0  0  0  0  0  0  0  0
    2.0516   -2.4623    0.8596 H   0  0  0  0  0  0  0  0  0  0  0  0
    3.4735   -2.7673   -0.1698 H   0  0  0  0  0  0  0  0  0  0  0  0
    1.8460   -2.6492   -0.9046 H   0  0  0  0  0  0  0  0  0  0  0  0
    3.3860   -0.3482    0.4681 H   0  0  0  0  0  0  0  0  0  0  0  0
    1.7302   -0.2147   -0.2075 H   0  0  0  0  0  0  0  0  0  0  0  0
    7.0069    1.3991   -5.3293 H   0  0  0  0  0  0  0  0  0  0  0  0
  1  2  1  0
  1 14  1  0
  1 15  1  0
  1 16  1  0
  2  3  1  0
  2 17  1  0
  2 18  1  0
  3  4  1  0
  4  5  2  0
  4  6  1  0
  6  7  2  0
  6 12  1  0
  7  8  1  0
  8  9  1  0
  8 10  2  0
 10 11  1  0
 11 12  2  0
 11 19  1  0
 12 13  1  0
M  END

