
     RDKit          3D

 35 36  0  0  0  0  0  0  0  0999 V2000
    4.1832    5.2152    2.6430 C   0  0  0  0  0  0  0  0  0  0  0  0
    3.9513    3.9964    3.2998 O   0  0  0  0  0  0  0  0  0  0  0  0
    4.6677    2.9138    2.7722 C   0  0  0  0  0  0  0  0  0  0  0  0
    4.3252    1.6536    3.5676 C   0  0  1  0  0  0  0  0  0  0  0  0
    2.8318    1.3286    3.5160 C   0  0  0  0  0  0  0  0  0  0  0  0
    5.1476    0.4352    3.0661 C   0  0  0  0  0  0  0  0  0  0  0  0
    6.5734    0.5913    3.1901 N   0  0  0  0  0  0  0  0  0  0  0  0
    7.2682    0.4117    4.3612 C   0  0  0  0  0  0  0  0  0  0  0  0
    8.6051    0.6311    4.3768 N   0  0  0  0  0  0  0  0  0  0  0  0
    8.9253    0.3571    5.6655 C   0  0  0  0  0  0  0  0  0  0  0  0
   10.1560    0.3902    6.3424 C   0  0  0  0  0  0  0  0  0  0  0  0
   10.1627    0.0359    7.7321 C   0  0  0  0  0  0  0  0  0  0  0  0
   11.4426    0.0475    8.5247 C   0  0  0  0  0  0  0  0  0  0  0  0
    8.9415   -0.3243    8.3504 C   0  0  0  0  0  0  0  0  0  0  0  0
    7.7193   -0.3582    7.6878 C   0  0  0  0  0  0  0  0  0  0  0  0
    7.7595   -0.0053    6.3251 N   0  0  0  0  0  0  0  0  0  0  0  0
    6.6765    0.0264    5.4870 N   0  0  0  0  0  0  0  0  0  0  0  0
    3.5770    5.9852    3.1413 H   0  0  0  0  0  0  0  0  0  0  0  0
    3.8916    5.1723    1.5738 H   0  0  0  0  0  0  0  0  0  0  0  0
    5.2489    5.5166    2.6946 H   0  0  0  0  0  0  0  0  0  0  0  0
    5.7601    3.1116    2.8212 H   0  0  0  0  0  0  0  0  0  0  0  0
    4.4164    2.7628    1.6969 H   0  0  0  0  0  0  0  0  0  0  0  0
    4.6210    1.8229    4.6159 H   0  0  0  0  0  0  0  0  0  0  0  0
    2.5057    1.0998    2.4863 H   0  0  0  0  0  0  0  0  0  0  0  0
    2.2516    2.1925    3.8679 H   0  0  0  0  0  0  0  0  0  0  0  0
    2.5877    0.4635    4.1521 H   0  0  0  0  0  0  0  0  0  0  0  0
    4.9164    0.2344    2.0077 H   0  0  0  0  0  0  0  0  0  0  0  0
    4.8572   -0.4395    3.6681 H   0  0  0  0  0  0  0  0  0  0  0  0
    7.1439    0.8954    2.4058 H   0  0  0  0  0  0  0  0  0  0  0  0
   11.0548    0.6818    5.8025 H   0  0  0  0  0  0  0  0  0  0  0  0
   12.2979    0.3376    7.8960 H   0  0  0  0  0  0  0  0  0  0  0  0
   11.6756   -0.9431    8.9575 H   0  0  0  0  0  0  0  0  0  0  0  0
   11.4036    0.7577    9.3718 H   0  0  0  0  0  0  0  0  0  0  0  0
    8.9463   -0.5940    9.4108 H   0  0  0  0  0  0  0  0  0  0  0  0
    6.7512   -0.6227    8.1012 H   0  0  0  0  0  0  0  0  0  0  0  0
  1  2  1  0
  1 18  1  0
  1 19  1  0
  1 20  1  0
  2  3  1  0
  3  4  1  0
  3 21  1  0
  3 22  1  0
  4  5  1  0
  4  6  1  0
  4 23  1  1
  5 24  1  0
  5 25  1  0
  5 26  1  0
  6  7  1  0
  6 27  1  0
  6 28  1  0
  7  8  1  0
  7 29  1  0
  8  9  1  0
  8 17  2  0
  9 10  2  0
 10 11  1  0
 10 16  1  0
 11 12  2  0
 11 30  1  0
 12 13  1  0
 12 14  1  0
 13 31  1  0
 13 32  1  0
 13 33  1  0
 14 15  2  0
 14 34  1  0
 15 16  1  0
 15 35  1  0
 16 17  1  0
M  END

