
     RDKit          3D

 43 43  0  0  0  0  0  0  0  0999 V2000
    6.2189    1.9505    0.3044 C   0  0  0  0  0  0  0  0  0  0  0  0
    5.1058    1.1939   -0.4212 C   0  0  0  0  0  0  0  0  0  0  0  0
    5.5159   -0.2194   -0.8448 C   0  0  0  0  0  0  0  0  0  0  0  0
    4.4001   -0.9779   -1.5732 C   0  0  1  0  0  0  0  0  0  0  0  0
    3.8934   -0.3102   -2.7241 O   0  0  0  0  0  0  0  0  0  0  0  0
    4.8080   -0.0161   -3.7577 C   0  0  0  0  0  0  0  0  0  0  0  0
    4.7729   -2.4051   -1.9111 C   0  0  0  0  0  0  0  0  0  0  0  0
    5.9718   -2.7663   -2.2962 N   0  0  0  0  0  0  0  0  0  0  0  0
    5.8405   -4.1286   -2.5453 O   0  0  0  0  0  0  0  0  0  0  0  0
    4.5646   -4.4542   -2.2844 C   0  0  0  0  0  0  0  0  0  0  0  0
    4.1371   -5.8684   -2.4967 C   0  0  0  0  0  0  0  0  0  0  0  0
    2.9196   -6.2625   -1.6566 C   0  0  0  0  0  0  0  0  0  0  0  0
    2.4169   -7.6719   -1.9667 C   0  0  0  0  0  0  0  0  0  0  0  0
    1.2936   -8.0189   -1.1149 N   0  0  0  0  0  0  0  0  0  0  0  0
    0.6847   -9.3309   -1.3405 C   0  0  1  0  0  0  0  0  0  0  0  0
    1.5903  -10.4543   -0.8241 C   0  0  0  0  0  0  0  0  0  0  0  0
   -0.6798   -9.3684   -0.6501 C   0  0  0  0  0  0  0  0  0  0  0  0
    3.8605   -3.4359   -1.8894 N   0  0  0  0  0  0  0  0  0  0  0  0
    5.8941    2.9614    0.5978 H   0  0  0  0  0  0  0  0  0  0  0  0
    7.1117    2.0603   -0.3339 H   0  0  0  0  0  0  0  0  0  0  0  0
    6.5338    1.4230    1.2205 H   0  0  0  0  0  0  0  0  0  0  0  0
    4.7822    1.7610   -1.3097 H   0  0  0  0  0  0  0  0  0  0  0  0
    4.2141    1.1307    0.2285 H   0  0  0  0  0  0  0  0  0  0  0  0
    5.7993   -0.8099    0.0437 H   0  0  0  0  0  0  0  0  0  0  0  0
    6.4206   -0.1869   -1.4751 H   0  0  0  0  0  0  0  0  0  0  0  0
    3.5235   -1.0496   -0.9110 H   0  0  0  0  0  0  0  0  0  0  0  0
    4.2134    0.3411   -4.6113 H   0  0  0  0  0  0  0  0  0  0  0  0
    5.3892   -0.9005   -4.0759 H   0  0  0  0  0  0  0  0  0  0  0  0
    5.5229    0.7804   -3.4778 H   0  0  0  0  0  0  0  0  0  0  0  0
    4.9989   -6.5246   -2.2920 H   0  0  0  0  0  0  0  0  0  0  0  0
    3.9125   -5.9940   -3.5724 H   0  0  0  0  0  0  0  0  0  0  0  0
    2.1151   -5.5283   -1.8329 H   0  0  0  0  0  0  0  0  0  0  0  0
    3.1622   -6.1973   -0.5838 H   0  0  0  0  0  0  0  0  0  0  0  0
    3.2354   -8.3920   -1.7933 H   0  0  0  0  0  0  0  0  0  0  0  0
    2.1759   -7.7468   -3.0547 H   0  0  0  0  0  0  0  0  0  0  0  0
    0.5768   -7.2990   -1.2036 H   0  0  0  0  0  0  0  0  0  0  0  0
    0.5191   -9.5078   -2.4299 H   0  0  0  0  0  0  0  0  0  0  0  0
    1.7768  -10.3266    0.2546 H   0  0  0  0  0  0  0  0  0  0  0  0
    2.5645  -10.4687   -1.3370 H   0  0  0  0  0  0  0  0  0  0  0  0
    1.1209  -11.4375   -0.9868 H   0  0  0  0  0  0  0  0  0  0  0  0
   -0.5672   -9.1967    0.4328 H   0  0  0  0  0  0  0  0  0  0  0  0
   -1.1724  -10.3415   -0.7986 H   0  0  0  0  0  0  0  0  0  0  0  0
   -1.3517   -8.5900   -1.0501 H   0  0  0  0  0  0  0  0  0  0  0  0
  1  2  1  0
  1 19  1  0
  1 20  1  0
  1 21  1  0
  2  3  1  0
  2 22  1  0
  2 23  1  0
  3  4  1  0
  3 24  1  0
  3 25  1  0
  4  5  1  0
  4  7  1  0
  4 26  1  1
  5  6  1  0
  6 27  1  0
  6 28  1  0
  6 29  1  0
  7  8  2  0
  7 18  1  0
  8  9  1  0
  9 10  1  0
 10 11  1  0
 10 18  2  0
 11 12  1  0
 11 30  1  0
 11 31  1  0
 12 13  1  0
 12 32  1  0
 12 33  1  0
 13 14  1  0
 13 34  1  0
 13 35  1  0
 14 15  1  0
 14 36  1  0
 15 16  1  0
 15 17  1  0
 15 37  1  6
 16 38  1  0
 16 39  1  0
 16 40  1  0
 17 41  1  0
 17 42  1  0
 17 43  1  0
M  END

