
     RDKit          3D

 61 64  0  0  0  0  0  0  0  0999 V2000
    3.3718   -3.2004   -0.5461 C   0  0  0  0  0  0  0  0  0  0  0  0
    4.7528   -3.6971   -0.1393 C   0  0  0  0  0  0  0  0  0  0  0  0
    5.0507   -3.4347    1.2276 O   0  0  0  0  0  0  0  0  0  0  0  0
    5.4999   -2.0866    1.4995 C   0  0  0  0  0  0  0  0  0  0  0  0
    5.8086   -1.3724    0.5548 O   0  0  0  0  0  0  0  0  0  0  0  0
    5.5079   -1.7789    2.8787 C   0  0  0  0  0  0  0  0  0  0  0  0
    6.0153   -0.1581    3.3778 S   0  0  0  0  0  0  0  0  0  0  0  0
    5.7533   -0.5236    5.0931 C   0  0  0  0  0  0  0  0  0  0  0  0
    6.0023    0.4539    6.1183 C   0  0  0  0  0  0  0  0  0  0  0  0
    6.4711    1.7635    5.8127 C   0  0  0  0  0  0  0  0  0  0  0  0
    6.7100    2.7031    6.8108 C   0  0  0  0  0  0  0  0  0  0  0  0
    6.4957    2.3924    8.1604 C   0  0  0  0  0  0  0  0  0  0  0  0
    6.0329    1.1072    8.4855 C   0  0  0  0  0  0  0  0  0  0  0  0
    5.7914    0.1609    7.4968 C   0  0  0  0  0  0  0  0  0  0  0  0
    5.2906   -1.8503    5.2404 C   0  0  0  0  0  0  0  0  0  0  0  0
    5.1585   -2.5349    4.0406 C   0  0  0  0  0  0  0  0  0  0  0  0
    4.7526   -3.8889    3.8783 N   0  0  0  0  0  0  0  0  0  0  0  0
    4.5808   -4.8243    4.8247 C   0  0  0  0  0  0  0  0  0  0  0  0
    4.6274   -4.6915    6.0367 O   0  0  0  0  0  0  0  0  0  0  0  0
    4.2724   -6.2545    4.2916 C   0  0  0  0  0  0  0  0  0  0  0  0
    4.7789   -6.5614    2.9605 N   0  0  0  0  0  0  0  0  0  0  0  0
    6.1854   -6.4714    2.7095 C   0  0  0  0  0  0  0  0  0  0  0  0
    6.8195   -7.9212    2.7796 C   0  0  0  0  0  0  0  0  0  0  0  0
    6.1141   -8.7967    1.8823 N   0  0  0  0  0  0  0  0  0  0  0  0
    6.5822   -9.0988    0.5945 C   0  0  0  0  0  0  0  0  0  0  0  0
    7.9472   -8.9934    0.2458 C   0  0  0  0  0  0  0  0  0  0  0  0
    8.3207   -9.3269   -1.0505 C   0  0  0  0  0  0  0  0  0  0  0  0
    7.3485   -9.7579   -1.9592 C   0  0  0  0  0  0  0  0  0  0  0  0
    7.7109  -10.0956   -3.3862 C   0  0  1  0  0  0  0  0  0  0  0  0
    8.9382  -10.6324   -3.4580 F   0  0  0  0  0  0  0  0  0  0  0  0
    6.8420  -10.9692   -3.9150 F   0  0  0  0  0  0  0  0  0  0  0  0
    7.7052   -8.9997   -4.1597 F   0  0  0  0  0  0  0  0  0  0  0  0
    6.0254   -9.8447   -1.5114 C   0  0  0  0  0  0  0  0  0  0  0  0
    5.6604   -9.5237   -0.2748 N   0  0  0  0  0  0  0  0  0  0  0  0
    4.7087   -8.8875    2.1741 C   0  0  0  0  0  0  0  0  0  0  0  0
    4.0701   -7.4373    2.0854 C   0  0  0  0  0  0  0  0  0  0  0  0
    3.1545   -3.4753   -1.5918 H   0  0  0  0  0  0  0  0  0  0  0  0
    3.3308   -2.1047   -0.4655 H   0  0  0  0  0  0  0  0  0  0  0  0
    2.5844   -3.6280    0.0963 H   0  0  0  0  0  0  0  0  0  0  0  0
    5.5209   -3.2275   -0.7720 H   0  0  0  0  0  0  0  0  0  0  0  0
    4.8246   -4.7927   -0.2614 H   0  0  0  0  0  0  0  0  0  0  0  0
    6.6468    2.0387    4.7696 H   0  0  0  0  0  0  0  0  0  0  0  0
    7.0695    3.6980    6.5312 H   0  0  0  0  0  0  0  0  0  0  0  0
    6.6834    3.1327    8.9414 H   0  0  0  0  0  0  0  0  0  0  0  0
    5.8573    0.8411    9.5322 H   0  0  0  0  0  0  0  0  0  0  0  0
    5.4313   -0.8284    7.7859 H   0  0  0  0  0  0  0  0  0  0  0  0
    5.0627   -2.3043    6.2008 H   0  0  0  0  0  0  0  0  0  0  0  0
    4.6324   -4.1221    2.8911 H   0  0  0  0  0  0  0  0  0  0  0  0
    3.1853   -6.4192    4.2993 H   0  0  0  0  0  0  0  0  0  0  0  0
    4.7165   -6.9379    5.0384 H   0  0  0  0  0  0  0  0  0  0  0  0
    6.6697   -5.8196    3.4438 H   0  0  0  0  0  0  0  0  0  0  0  0
    6.3662   -6.0633    1.7041 H   0  0  0  0  0  0  0  0  0  0  0  0
    6.7238   -8.2893    3.8123 H   0  0  0  0  0  0  0  0  0  0  0  0
    7.8830   -7.8461    2.5356 H   0  0  0  0  0  0  0  0  0  0  0  0
    8.7084   -8.6849    0.9603 H   0  0  0  0  0  0  0  0  0  0  0  0
    9.3686   -9.2670   -1.3503 H   0  0  0  0  0  0  0  0  0  0  0  0
    5.2360  -10.1967   -2.1821 H   0  0  0  0  0  0  0  0  0  0  0  0
    4.5662   -9.2633    3.1981 H   0  0  0  0  0  0  0  0  0  0  0  0
    4.2145   -9.5384    1.4469 H   0  0  0  0  0  0  0  0  0  0  0  0
    3.0083   -7.4847    2.3554 H   0  0  0  0  0  0  0  0  0  0  0  0
    4.1698   -7.1092    1.0391 H   0  0  0  0  0  0  0  0  0  0  0  0
  1  2  1  0
  1 37  1  0
  1 38  1  0
  1 39  1  0
  2  3  1  0
  2 40  1  0
  2 41  1  0
  3  4  1  0
  4  5  2  0
  4  6  1  0
  6  7  1  0
  6 16  2  0
  7  8  1  0
  8  9  1  0
  8 15  2  0
  9 10  2  0
  9 14  1  0
 10 11  1  0
 10 42  1  0
 11 12  2  0
 11 43  1  0
 12 13  1  0
 12 44  1  0
 13 14  2  0
 13 45  1  0
 14 46  1  0
 15 16  1  0
 15 47  1  0
 16 17  1  0
 17 18  1  0
 17 48  1  0
 18 19  2  0
 18 20  1  0
 20 21  1  0
 20 49  1  0
 20 50  1  0
 21 22  1  0
 21 36  1  0
 22 23  1  0
 22 51  1  0
 22 52  1  0
 23 24  1  0
 23 53  1  0
 23 54  1  0
 24 25  1  0
 24 35  1  0
 25 26  2  0
 25 34  1  0
 26 27  1  0
 26 55  1  0
 27 28  2  0
 27 56  1  0
 28 29  1  0
 28 33  1  0
 29 30  1  6
 29 31  1  0
 29 32  1  0
 33 34  2  0
 33 57  1  0
 35 36  1  0
 35 58  1  0
 35 59  1  0
 36 60  1  0
 36 61  1  0
M  END

