
     RDKit          3D

 44 46  0  0  0  0  0  0  0  0999 V2000
    3.6112   -2.0219    6.0602 C   0  0  0  0  0  0  0  0  0  0  0  0
    3.8645   -1.2742    4.9836 C   0  0  0  0  0  0  0  0  0  0  0  0
    3.9494   -1.8197    3.5886 C   0  0  0  0  0  0  0  0  0  0  0  0
    5.2691   -1.6514    3.0219 O   0  0  0  0  0  0  0  0  0  0  0  0
    5.5407   -0.4852    2.4095 C   0  0  0  0  0  0  0  0  0  0  0  0
    4.7562    0.4460    2.3699 O   0  0  0  0  0  0  0  0  0  0  0  0
    6.8870   -0.4789    1.8113 C   0  0  0  0  0  0  0  0  0  0  0  0
    7.4728    0.7506    1.3559 C   0  0  0  0  0  0  0  0  0  0  0  0
    6.7681    2.0706    1.2907 C   0  0  0  0  0  0  0  0  0  0  0  0
    8.7228    0.6977    0.9686 N   0  0  0  0  0  0  0  0  0  0  0  0
    9.5602   -0.4980    0.9958 C   0  0  0  0  0  0  0  0  0  0  0  0
   10.9002   -0.1806    0.5953 C   0  0  0  0  0  0  0  0  0  0  0  0
   11.9415   -1.1505    0.5149 C   0  0  0  0  0  0  0  0  0  0  0  0
   13.1966   -0.7480    0.1162 C   0  0  0  0  0  0  0  0  0  0  0  0
   13.4224    0.6224   -0.2059 C   0  0  0  0  0  0  0  0  0  0  0  0
   12.3423    1.5052   -0.1032 C   0  0  0  0  0  0  0  0  0  0  0  0
   11.1201    1.1514    0.2772 N   0  0  0  0  0  0  0  0  0  0  0  0
    9.0579   -1.6463    1.3208 N   0  0  0  0  0  0  0  0  0  0  0  0
    7.6820   -1.7437    1.6901 C   0  0  2  0  0  0  0  0  0  0  0  0
    6.9750   -2.7584    0.7607 C   0  0  0  0  0  0  0  0  0  0  0  0
    6.5564   -4.0053    1.2367 C   0  0  0  0  0  0  0  0  0  0  0  0
    5.9642   -4.9382    0.3803 C   0  0  0  0  0  0  0  0  0  0  0  0
    5.7851   -4.6154   -0.9661 C   0  0  0  0  0  0  0  0  0  0  0  0
    5.0396   -5.7722   -2.0449 Cl  0  0  0  0  0  0  0  0  0  0  0  0
    6.2002   -3.3743   -1.4623 C   0  0  0  0  0  0  0  0  0  0  0  0
    6.7935   -2.4562   -0.5966 C   0  0  0  0  0  0  0  0  0  0  0  0
    3.5305   -1.5805    7.0572 H   0  0  0  0  0  0  0  0  0  0  0  0
    3.4653   -3.1050    5.9859 H   0  0  0  0  0  0  0  0  0  0  0  0
    4.0033   -0.1916    5.0809 H   0  0  0  0  0  0  0  0  0  0  0  0
    3.2253   -1.3157    2.9303 H   0  0  0  0  0  0  0  0  0  0  0  0
    3.7704   -2.9033    3.5714 H   0  0  0  0  0  0  0  0  0  0  0  0
    5.8712    1.9949    0.6603 H   0  0  0  0  0  0  0  0  0  0  0  0
    7.4419    2.8451    0.9011 H   0  0  0  0  0  0  0  0  0  0  0  0
    6.4021    2.3566    2.2870 H   0  0  0  0  0  0  0  0  0  0  0  0
    9.2972    1.4960    0.6288 H   0  0  0  0  0  0  0  0  0  0  0  0
   11.7204   -2.1879    0.7711 H   0  0  0  0  0  0  0  0  0  0  0  0
   14.0119   -1.4726    0.0471 H   0  0  0  0  0  0  0  0  0  0  0  0
   14.4019    0.9808   -0.5248 H   0  0  0  0  0  0  0  0  0  0  0  0
   12.4834    2.5660   -0.3479 H   0  0  0  0  0  0  0  0  0  0  0  0
    7.6267   -2.2065    2.6998 H   0  0  0  0  0  0  0  0  0  0  0  0
    6.6950   -4.2594    2.2901 H   0  0  0  0  0  0  0  0  0  0  0  0
    5.6457   -5.9134    0.7526 H   0  0  0  0  0  0  0  0  0  0  0  0
    6.0609   -3.1368   -2.5181 H   0  0  0  0  0  0  0  0  0  0  0  0
    7.1315   -1.4957   -0.9941 H   0  0  0  0  0  0  0  0  0  0  0  0
  1  2  2  0
  1 27  1  0
  1 28  1  0
  2  3  1  0
  2 29  1  0
  3  4  1  0
  3 30  1  0
  3 31  1  0
  4  5  1  0
  5  6  2  0
  5  7  1  0
  7  8  2  0
  7 19  1  0
  8  9  1  0
  8 10  1  0
  9 32  1  0
  9 33  1  0
  9 34  1  0
 10 11  1  0
 10 35  1  0
 11 12  1  0
 11 18  2  0
 12 13  2  0
 12 17  1  0
 13 14  1  0
 13 36  1  0
 14 15  2  0
 14 37  1  0
 15 16  1  0
 15 38  1  0
 16 17  2  0
 16 39  1  0
 18 19  1  0
 19 20  1  0
 19 40  1  1
 20 21  2  0
 20 26  1  0
 21 22  1  0
 21 41  1  0
 22 23  2  0
 22 42  1  0
 23 24  1  0
 23 25  1  0
 25 26  2  0
 25 43  1  0
 26 44  1  0
M  END

