
     RDKit          3D

 50 51  0  0  0  0  0  0  0  0999 V2000
    2.5616    0.1405   -3.1491 C   0  0  0  0  0  0  0  0  0  0  0  0
    2.9611   -0.2800   -1.7447 C   0  0  0  0  0  0  0  0  0  0  0  0
    3.1676   -1.4510   -1.4654 O   0  0  0  0  0  0  0  0  0  0  0  0
    3.0810    0.7195   -0.7931 N   0  0  0  0  0  0  0  0  0  0  0  0
    2.8600    2.1251   -1.0900 C   0  0  0  0  0  0  0  0  0  0  0  0
    1.4160    2.6723   -1.0907 C   0  0  0  0  0  0  0  0  0  0  0  0
    1.2222    3.7974   -1.5220 O   0  0  0  0  0  0  0  0  0  0  0  0
    0.4671    1.8364   -0.5870 N   0  0  0  0  0  0  0  0  0  0  0  0
   -0.9210    2.0637   -0.4328 C   0  0  0  0  0  0  0  0  0  0  0  0
   -1.6920    1.0625    0.1776 C   0  0  0  0  0  0  0  0  0  0  0  0
   -3.0650    1.2095    0.3545 C   0  0  0  0  0  0  0  0  0  0  0  0
   -3.7386    2.3777   -0.0788 C   0  0  0  0  0  0  0  0  0  0  0  0
   -5.1085    2.5278    0.0803 N   0  0  0  0  0  0  0  0  0  0  0  0
   -5.8701    1.5097    0.7686 C   0  0  0  0  0  0  0  0  0  0  0  0
   -5.7473    3.7677   -0.3038 C   0  0  0  0  0  0  0  0  0  0  0  0
   -2.9450    3.3830   -0.6816 C   0  0  0  0  0  0  0  0  0  0  0  0
   -1.5706    3.2331   -0.8586 C   0  0  0  0  0  0  0  0  0  0  0  0
    3.5763    0.3345    0.5412 C   0  0  0  0  0  0  0  0  0  0  0  0
    2.4915    0.0565    1.5654 C   0  0  0  0  0  0  0  0  0  0  0  0
    1.7648   -1.1466    1.5271 C   0  0  0  0  0  0  0  0  0  0  0  0
    0.7545   -1.3967    2.4585 C   0  0  0  0  0  0  0  0  0  0  0  0
    0.4324   -0.4623    3.4573 C   0  0  0  0  0  0  0  0  0  0  0  0
   -0.6833   -0.7209    4.4400 C   0  0  0  0  0  0  0  0  0  0  0  0
    1.1673    0.7323    3.4956 C   0  0  0  0  0  0  0  0  0  0  0  0
    2.1784    0.9875    2.5660 C   0  0  0  0  0  0  0  0  0  0  0  0
    2.4431   -0.7709   -3.7468 H   0  0  0  0  0  0  0  0  0  0  0  0
    3.3341    0.7743   -3.6134 H   0  0  0  0  0  0  0  0  0  0  0  0
    1.6184    0.7076   -3.1573 H   0  0  0  0  0  0  0  0  0  0  0  0
    3.2729    2.4023   -2.0711 H   0  0  0  0  0  0  0  0  0  0  0  0
    3.4137    2.7322   -0.3570 H   0  0  0  0  0  0  0  0  0  0  0  0
    0.8070    0.9514   -0.2224 H   0  0  0  0  0  0  0  0  0  0  0  0
   -1.2070    0.1472    0.5291 H   0  0  0  0  0  0  0  0  0  0  0  0
   -3.6120    0.3996    0.8356 H   0  0  0  0  0  0  0  0  0  0  0  0
   -5.5496    1.3716    1.8204 H   0  0  0  0  0  0  0  0  0  0  0  0
   -5.7916    0.5263    0.2696 H   0  0  0  0  0  0  0  0  0  0  0  0
   -6.9316    1.7901    0.7770 H   0  0  0  0  0  0  0  0  0  0  0  0
   -5.3695    4.6388    0.2670 H   0  0  0  0  0  0  0  0  0  0  0  0
   -6.8278    3.6925   -0.1244 H   0  0  0  0  0  0  0  0  0  0  0  0
   -5.6040    3.9910   -1.3768 H   0  0  0  0  0  0  0  0  0  0  0  0
   -3.4016    4.3103   -1.0261 H   0  0  0  0  0  0  0  0  0  0  0  0
   -0.9884    4.0248   -1.3252 H   0  0  0  0  0  0  0  0  0  0  0  0
    4.2297    1.1436    0.9020 H   0  0  0  0  0  0  0  0  0  0  0  0
    4.1880   -0.5665    0.4007 H   0  0  0  0  0  0  0  0  0  0  0  0
    2.0054   -1.8861    0.7593 H   0  0  0  0  0  0  0  0  0  0  0  0
    0.2092   -2.3443    2.4146 H   0  0  0  0  0  0  0  0  0  0  0  0
   -0.8506   -1.7984    4.5897 H   0  0  0  0  0  0  0  0  0  0  0  0
   -1.6332   -0.2875    4.0802 H   0  0  0  0  0  0  0  0  0  0  0  0
   -0.4719   -0.2673    5.4207 H   0  0  0  0  0  0  0  0  0  0  0  0
    0.9455    1.4765    4.2660 H   0  0  0  0  0  0  0  0  0  0  0  0
    2.7366    1.9269    2.6263 H   0  0  0  0  0  0  0  0  0  0  0  0
  1  2  1  0
  1 26  1  0
  1 27  1  0
  1 28  1  0
  2  3  2  0
  2  4  1  0
  4  5  1  0
  4 18  1  0
  5  6  1  0
  5 29  1  0
  5 30  1  0
  6  7  2  0
  6  8  1  0
  8  9  1  0
  8 31  1  0
  9 10  2  0
  9 17  1  0
 10 11  1  0
 10 32  1  0
 11 12  2  0
 11 33  1  0
 12 13  1  0
 12 16  1  0
 13 14  1  0
 13 15  1  0
 14 34  1  0
 14 35  1  0
 14 36  1  0
 15 37  1  0
 15 38  1  0
 15 39  1  0
 16 17  2  0
 16 40  1  0
 17 41  1  0
 18 19  1  0
 18 42  1  0
 18 43  1  0
 19 20  2  0
 19 25  1  0
 20 21  1  0
 20 44  1  0
 21 22  2  0
 21 45  1  0
 22 23  1  0
 22 24  1  0
 23 46  1  0
 23 47  1  0
 23 48  1  0
 24 25  2  0
 24 49  1  0
 25 50  1  0
M  END

