
     RDKit          3D

 32 32  0  0  0  0  0  0  0  0999 V2000
    4.4003   -3.3583    5.1345 C   0  0  0  0  0  0  0  0  0  0  0  0
    5.0099   -2.4277    4.1364 C   0  0  0  0  0  0  0  0  0  0  0  0
    5.6040   -1.1986    4.4322 C   0  0  0  0  0  0  0  0  0  0  0  0
    6.1309   -0.4502    3.3745 C   0  0  0  0  0  0  0  0  0  0  0  0
    6.0546   -0.9650    2.0961 N   0  0  0  0  0  0  0  0  0  0  0  0
    5.4877   -2.1203    1.7936 C   0  0  0  0  0  0  0  0  0  0  0  0
    5.4286   -2.5647    0.5124 N   0  0  0  0  0  0  0  0  0  0  0  0
    4.7993   -3.8033    0.1009 C   0  0  0  0  0  0  0  0  0  0  0  0
    5.7697   -4.9341   -0.3287 C   0  0  1  0  0  0  0  0  0  0  0  0
    6.5718   -4.4934   -1.5663 C   0  0  0  0  0  0  0  0  0  0  0  0
    6.7298   -5.2897    0.8166 C   0  0  0  0  0  0  0  0  0  0  0  0
    4.8900   -6.1609   -0.6801 C   0  0  0  0  0  0  0  0  0  0  0  0
    5.6643   -7.2983   -1.1664 N   0  0  0  0  0  0  0  0  0  0  0  0
    4.9735   -2.8162    2.8038 N   0  0  0  0  0  0  0  0  0  0  0  0
    4.4783   -2.9461    6.1503 H   0  0  0  0  0  0  0  0  0  0  0  0
    4.8959   -4.3481    5.1239 H   0  0  0  0  0  0  0  0  0  0  0  0
    3.3309   -3.5445    4.9175 H   0  0  0  0  0  0  0  0  0  0  0  0
    5.6553   -0.8357    5.4615 H   0  0  0  0  0  0  0  0  0  0  0  0
    6.6184    0.5169    3.4980 H   0  0  0  0  0  0  0  0  0  0  0  0
    5.8149   -1.9378   -0.1815 H   0  0  0  0  0  0  0  0  0  0  0  0
    4.1061   -3.5885   -0.7328 H   0  0  0  0  0  0  0  0  0  0  0  0
    4.1862   -4.1477    0.9478 H   0  0  0  0  0  0  0  0  0  0  0  0
    7.1781   -3.5989   -1.3500 H   0  0  0  0  0  0  0  0  0  0  0  0
    5.9093   -4.2586   -2.4181 H   0  0  0  0  0  0  0  0  0  0  0  0
    7.2696   -5.2843   -1.8818 H   0  0  0  0  0  0  0  0  0  0  0  0
    7.4150   -4.4568    1.0376 H   0  0  0  0  0  0  0  0  0  0  0  0
    7.3237   -6.1739    0.5434 H   0  0  0  0  0  0  0  0  0  0  0  0
    6.1765   -5.5185    1.7417 H   0  0  0  0  0  0  0  0  0  0  0  0
    4.0974   -5.8316   -1.3881 H   0  0  0  0  0  0  0  0  0  0  0  0
    4.3656   -6.4767    0.2381 H   0  0  0  0  0  0  0  0  0  0  0  0
    5.8833   -7.1959   -2.1567 H   0  0  0  0  0  0  0  0  0  0  0  0
    5.1271   -8.1596   -1.0823 H   0  0  0  0  0  0  0  0  0  0  0  0
  1  2  1  0
  1 15  1  0
  1 16  1  0
  1 17  1  0
  2  3  2  0
  2 14  1  0
  3  4  1  0
  3 18  1  0
  4  5  2  0
  4 19  1  0
  5  6  1  0
  6  7  1  0
  6 14  2  0
  7  8  1  0
  7 20  1  0
  9  8  1  1
  8 21  1  0
  8 22  1  0
  9 10  1  0
  9 11  1  0
  9 12  1  0
 10 23  1  0
 10 24  1  0
 10 25  1  0
 11 26  1  0
 11 27  1  0
 11 28  1  0
 12 13  1  0
 12 29  1  0
 12 30  1  0
 13 31  1  0
 13 32  1  0
M  END

