
     RDKit          3D

 91 95  0  0  0  0  0  0  0  0999 V2000
    1.3995   -3.4607    7.9478 C   0  0  0  0  0  0  0  0  0  0  0  0
    2.1418   -2.7096    6.9655 O   0  0  0  0  0  0  0  0  0  0  0  0
    2.0510   -1.3913    6.8337 C   0  0  0  0  0  0  0  0  0  0  0  0
    1.4685   -0.4831    7.7368 C   0  0  0  0  0  0  0  0  0  0  0  0
    1.1051   -0.8260    9.1917 C   0  0  0  0  0  0  0  0  0  0  0  0
    2.0975   -0.8804    9.9511 O   0  0  0  0  0  0  0  0  0  0  0  0
   -0.2540   -0.9570    9.5916 C   0  0  0  0  0  0  0  0  0  0  0  0
   -0.5977   -0.9758   10.9807 C   0  0  0  0  0  0  0  0  0  0  0  0
   -1.9295   -1.0433   11.3936 C   0  0  0  0  0  0  0  0  0  0  0  0
   -2.9760   -1.1273   10.4856 C   0  0  0  0  0  0  0  0  0  0  0  0
   -2.6470   -1.1807    9.1317 N   0  0  0  0  0  0  0  0  0  0  0  0
   -3.4456   -1.3762    8.0146 C   0  0  0  0  0  0  0  0  0  0  0  0
   -5.3180   -1.5157    8.1336 Br  0  0  0  0  0  0  0  0  0  0  0  0
   -2.6074   -1.4429    6.9178 C   0  0  0  0  0  0  0  0  0  0  0  0
   -2.9698   -1.6393    5.4807 C   0  0  0  0  0  0  0  0  0  0  0  0
   -1.3094   -1.2951    7.3331 N   0  0  0  0  0  0  0  0  0  0  0  0
   -1.3432   -1.1239    8.6567 C   0  0  0  0  0  0  0  0  0  0  0  0
    1.4586    0.8515    7.3514 C   0  0  0  0  0  0  0  0  0  0  0  0
    2.0138    1.3180    6.1319 C   0  0  0  0  0  0  0  0  0  0  0  0
    2.6621    0.4643    5.2638 C   0  0  0  0  0  0  0  0  0  0  0  0
    3.1531    1.0112    3.9467 C   0  0  0  0  0  0  0  0  0  0  0  0
    2.4678    1.7957    3.3171 O   0  0  0  0  0  0  0  0  0  0  0  0
    4.3720    0.5505    3.4596 N   0  0  0  0  0  0  0  0  0  0  0  0
    4.7323    0.9853    2.1049 C   0  0  0  0  0  0  0  0  0  0  0  0
    5.4595    0.2130    4.3274 C   0  0  0  0  0  0  0  0  0  0  0  0
    5.8595    1.0622    5.3611 C   0  0  0  0  0  0  0  0  0  0  0  0
    6.9432    0.7421    6.1838 C   0  0  0  0  0  0  0  0  0  0  0  0
    7.6737   -0.4312    5.9712 C   0  0  0  0  0  0  0  0  0  0  0  0
    8.8562   -0.7914    6.8363 C   0  0  0  0  0  0  0  0  0  0  0  0
    7.2849   -1.2861    4.9233 C   0  0  0  0  0  0  0  0  0  0  0  0
    6.1879   -0.9835    4.1118 C   0  0  0  0  0  0  0  0  0  0  0  0
    5.7303   -1.7885    3.1095 O   0  0  0  0  0  0  0  0  0  0  0  0
    6.4692   -2.9553    2.7476 C   0  0  0  0  0  0  0  0  0  0  0  0
    5.7868   -3.6433    1.5753 C   0  0  0  0  0  0  0  0  0  0  0  0
    4.3998   -4.2177    1.8882 C   0  0  0  0  0  0  0  0  0  0  0  0
    3.7135   -4.9237    0.7118 C   0  0  0  0  0  0  0  0  0  0  0  0
    4.3801   -6.2317    0.2794 C   0  0  0  0  0  0  0  0  0  0  0  0
    3.5960   -6.9307   -0.8374 C   0  0  0  0  0  0  0  0  0  0  0  0
    2.5637   -6.4419   -1.2728 O   0  0  0  0  0  0  0  0  0  0  0  0
    4.0961   -8.1181   -1.3188 N   0  0  0  0  0  0  0  0  0  0  0  0
    5.3351   -8.7670   -0.9023 C   0  0  0  0  0  0  0  0  0  0  0  0
    5.0732  -10.2535   -0.5864 C   0  0  0  0  0  0  0  0  0  0  0  0
    4.4004  -10.9709   -1.6572 N   0  0  0  0  0  0  0  0  0  0  0  0
    5.2515  -11.4028   -2.7504 C   0  0  0  0  0  0  0  0  0  0  0  0
    3.1771  -10.2797   -2.0519 C   0  0  0  0  0  0  0  0  0  0  0  0
    3.3963   -8.8014   -2.4082 C   0  0  0  0  0  0  0  0  0  0  0  0
    2.6610   -0.9282    5.5907 C   0  0  0  0  0  0  0  0  0  0  0  0
    3.1548   -1.8677    4.7742 N   0  0  0  0  0  0  0  0  0  0  0  0
    0.3311   -3.2375    7.8399 H   0  0  0  0  0  0  0  0  0  0  0  0
    1.7546   -3.2113    8.9544 H   0  0  0  0  0  0  0  0  0  0  0  0
    1.6042   -4.5125    7.7130 H   0  0  0  0  0  0  0  0  0  0  0  0
    0.2146   -0.9015   11.7035 H   0  0  0  0  0  0  0  0  0  0  0  0
   -2.1739   -1.0228   12.4582 H   0  0  0  0  0  0  0  0  0  0  0  0
   -4.0318   -1.1837   10.7363 H   0  0  0  0  0  0  0  0  0  0  0  0
   -4.0556   -1.7557    5.3556 H   0  0  0  0  0  0  0  0  0  0  0  0
   -2.4770   -2.5361    5.0692 H   0  0  0  0  0  0  0  0  0  0  0  0
   -2.6416   -0.7818    4.8702 H   0  0  0  0  0  0  0  0  0  0  0  0
    0.9990    1.5759    8.0255 H   0  0  0  0  0  0  0  0  0  0  0  0
    1.9330    2.3734    5.8671 H   0  0  0  0  0  0  0  0  0  0  0  0
    3.8344    0.9903    1.4752 H   0  0  0  0  0  0  0  0  0  0  0  0
    5.4726    0.2888    1.6930 H   0  0  0  0  0  0  0  0  0  0  0  0
    5.1519    2.0055    2.1120 H   0  0  0  0  0  0  0  0  0  0  0  0
    5.3130    1.9944    5.5184 H   0  0  0  0  0  0  0  0  0  0  0  0
    7.2257    1.4218    6.9907 H   0  0  0  0  0  0  0  0  0  0  0  0
    9.0193   -0.0457    7.6273 H   0  0  0  0  0  0  0  0  0  0  0  0
    9.7812   -0.8595    6.2396 H   0  0  0  0  0  0  0  0  0  0  0  0
    8.7119   -1.7708    7.3216 H   0  0  0  0  0  0  0  0  0  0  0  0
    7.8488   -2.2052    4.7611 H   0  0  0  0  0  0  0  0  0  0  0  0
    6.5310   -3.6404    3.6141 H   0  0  0  0  0  0  0  0  0  0  0  0
    7.4994   -2.6619    2.4783 H   0  0  0  0  0  0  0  0  0  0  0  0
    6.4663   -4.4472    1.2440 H   0  0  0  0  0  0  0  0  0  0  0  0
    5.7174   -2.9316    0.7343 H   0  0  0  0  0  0  0  0  0  0  0  0
    3.7442   -3.3972    2.2235 H   0  0  0  0  0  0  0  0  0  0  0  0
    4.4818   -4.9162    2.7433 H   0  0  0  0  0  0  0  0  0  0  0  0
    3.6552   -4.2434   -0.1538 H   0  0  0  0  0  0  0  0  0  0  0  0
    2.6671   -5.1397    0.9753 H   0  0  0  0  0  0  0  0  0  0  0  0
    4.4660   -6.9130    1.1452 H   0  0  0  0  0  0  0  0  0  0  0  0
    5.4131   -6.0553   -0.0678 H   0  0  0  0  0  0  0  0  0  0  0  0
    5.7523   -8.2716   -0.0175 H   0  0  0  0  0  0  0  0  0  0  0  0
    6.0893   -8.6792   -1.7093 H   0  0  0  0  0  0  0  0  0  0  0  0
    4.4393  -10.3020    0.3185 H   0  0  0  0  0  0  0  0  0  0  0  0
    6.0250  -10.7564   -0.3488 H   0  0  0  0  0  0  0  0  0  0  0  0
    6.0840  -12.0066   -2.3538 H   0  0  0  0  0  0  0  0  0  0  0  0
    5.6971  -10.5888   -3.3643 H   0  0  0  0  0  0  0  0  0  0  0  0
    4.6742  -12.0462   -3.4340 H   0  0  0  0  0  0  0  0  0  0  0  0
    2.4612  -10.3332   -1.2115 H   0  0  0  0  0  0  0  0  0  0  0  0
    2.7196  -10.8075   -2.9041 H   0  0  0  0  0  0  0  0  0  0  0  0
    2.4450   -8.2800   -2.5713 H   0  0  0  0  0  0  0  0  0  0  0  0
    3.9924   -8.7131   -3.3369 H   0  0  0  0  0  0  0  0  0  0  0  0
    3.6492   -1.6303    3.9172 H   0  0  0  0  0  0  0  0  0  0  0  0
    3.0984   -2.8344    5.0764 H   0  0  0  0  0  0  0  0  0  0  0  0
  1  2  1  0
  1 49  1  0
  1 50  1  0
  1 51  1  0
  2  3  1  0
  3  4  2  0
  3 47  1  0
  4  5  1  0
  4 18  1  0
  5  6  2  0
  5  7  1  0
  7  8  2  0
  7 17  1  0
  8  9  1  0
  8 52  1  0
  9 10  2  0
  9 53  1  0
 10 11  1  0
 10 54  1  0
 11 12  1  0
 11 17  1  0
 12 13  1  0
 12 14  2  0
 14 15  1  0
 14 16  1  0
 15 55  1  0
 15 56  1  0
 15 57  1  0
 16 17  2  0
 18 19  2  0
 18 58  1  0
 19 20  1  0
 19 59  1  0
 20 21  1  0
 20 47  2  0
 21 22  2  0
 21 23  1  0
 23 24  1  0
 23 25  1  0
 24 60  1  0
 24 61  1  0
 24 62  1  0
 25 26  2  0
 25 31  1  0
 26 27  1  0
 26 63  1  0
 27 28  2  0
 27 64  1  0
 28 29  1  0
 28 30  1  0
 29 65  1  0
 29 66  1  0
 29 67  1  0
 30 31  2  0
 30 68  1  0
 31 32  1  0
 32 33  1  0
 33 34  1  0
 33 69  1  0
 33 70  1  0
 34 35  1  0
 34 71  1  0
 34 72  1  0
 35 36  1  0
 35 73  1  0
 35 74  1  0
 36 37  1  0
 36 75  1  0
 36 76  1  0
 37 38  1  0
 37 77  1  0
 37 78  1  0
 38 39  2  0
 38 40  1  0
 40 41  1  0
 40 46  1  0
 41 42  1  0
 41 79  1  0
 41 80  1  0
 42 43  1  0
 42 81  1  0
 42 82  1  0
 43 44  1  0
 43 45  1  0
 44 83  1  0
 44 84  1  0
 44 85  1  0
 45 46  1  0
 45 86  1  0
 45 87  1  0
 46 88  1  0
 46 89  1  0
 47 48  1  0
 48 90  1  0
 48 91  1  0
M  END

