
     RDKit          3D

 44 45  0  0  0  0  0  0  0  0999 V2000
    1.4021    0.1310    1.9041 C   0  0  0  0  0  0  0  0  0  0  0  0
    2.8116    0.1676    1.3452 C   0  0  0  0  0  0  0  0  0  0  0  0
    3.1929   -1.1598    1.0188 O   0  0  0  0  0  0  0  0  0  0  0  0
    4.4433   -1.3995    0.5409 C   0  0  0  0  0  0  0  0  0  0  0  0
    5.3918   -0.4043    0.2790 C   0  0  0  0  0  0  0  0  0  0  0  0
    6.6730   -0.7309   -0.1965 C   0  0  0  0  0  0  0  0  0  0  0  0
    7.7031    0.3620   -0.4197 C   0  0  0  0  0  0  0  0  0  0  0  0
    7.0948    1.6274   -0.8169 N   0  0  0  0  0  0  0  0  0  0  0  0
    6.9943   -2.0735   -0.4157 C   0  0  0  0  0  0  0  0  0  0  0  0
    6.0499   -3.0739   -0.1605 C   0  0  0  0  0  0  0  0  0  0  0  0
    4.7777   -2.7586    0.3146 C   0  0  0  0  0  0  0  0  0  0  0  0
    3.9009   -3.7664    0.6070 O   0  0  0  0  0  0  0  0  0  0  0  0
    2.7525   -3.8993   -0.2266 C   0  0  0  0  0  0  0  0  0  0  0  0
    1.9160   -5.0532    0.3024 C   0  0  0  0  0  0  0  0  0  0  0  0
    0.6588   -5.3121   -0.5448 C   0  0  0  0  0  0  0  0  0  0  0  0
   -0.1893   -6.4517   -0.0228 C   0  0  0  0  0  0  0  0  0  0  0  0
   -1.2220   -6.2196    0.8997 C   0  0  0  0  0  0  0  0  0  0  0  0
   -1.9834   -7.2749    1.4101 C   0  0  0  0  0  0  0  0  0  0  0  0
   -1.7239   -8.5877    1.0057 C   0  0  0  0  0  0  0  0  0  0  0  0
   -0.6992   -8.8344    0.0870 C   0  0  0  0  0  0  0  0  0  0  0  0
    0.0587   -7.7756   -0.4204 C   0  0  0  0  0  0  0  0  0  0  0  0
    1.0776    1.1456    2.1830 H   0  0  0  0  0  0  0  0  0  0  0  0
    1.3554   -0.5086    2.7987 H   0  0  0  0  0  0  0  0  0  0  0  0
    0.6948   -0.2662    1.1596 H   0  0  0  0  0  0  0  0  0  0  0  0
    3.5164    0.5886    2.0864 H   0  0  0  0  0  0  0  0  0  0  0  0
    2.8609    0.8098    0.4456 H   0  0  0  0  0  0  0  0  0  0  0  0
    5.1631    0.6500    0.4308 H   0  0  0  0  0  0  0  0  0  0  0  0
    8.4689   -0.0223   -1.1266 H   0  0  0  0  0  0  0  0  0  0  0  0
    8.2396    0.5408    0.5311 H   0  0  0  0  0  0  0  0  0  0  0  0
    6.6966    1.5520   -1.7540 H   0  0  0  0  0  0  0  0  0  0  0  0
    7.7956    2.3667   -0.8526 H   0  0  0  0  0  0  0  0  0  0  0  0
    7.9849   -2.3455   -0.7910 H   0  0  0  0  0  0  0  0  0  0  0  0
    6.2844   -4.1286   -0.3216 H   0  0  0  0  0  0  0  0  0  0  0  0
    3.0727   -4.0958   -1.2692 H   0  0  0  0  0  0  0  0  0  0  0  0
    2.1673   -2.9637   -0.2256 H   0  0  0  0  0  0  0  0  0  0  0  0
    1.6298   -4.8327    1.3443 H   0  0  0  0  0  0  0  0  0  0  0  0
    2.5404   -5.9618    0.3377 H   0  0  0  0  0  0  0  0  0  0  0  0
    0.9605   -5.5274   -1.5847 H   0  0  0  0  0  0  0  0  0  0  0  0
    0.0509   -4.3916   -0.5831 H   0  0  0  0  0  0  0  0  0  0  0  0
   -1.4353   -5.1952    1.2197 H   0  0  0  0  0  0  0  0  0  0  0  0
   -2.7852   -7.0702    2.1246 H   0  0  0  0  0  0  0  0  0  0  0  0
   -2.3196   -9.4142    1.4016 H   0  0  0  0  0  0  0  0  0  0  0  0
   -0.4909   -9.8569   -0.2395 H   0  0  0  0  0  0  0  0  0  0  0  0
    0.8555   -7.9788   -1.1425 H   0  0  0  0  0  0  0  0  0  0  0  0
  1  2  1  0
  1 22  1  0
  1 23  1  0
  1 24  1  0
  2  3  1  0
  2 25  1  0
  2 26  1  0
  3  4  1  0
  4  5  2  0
  4 11  1  0
  5  6  1  0
  5 27  1  0
  6  7  1  0
  6  9  2  0
  7  8  1  0
  7 28  1  0
  7 29  1  0
  8 30  1  0
  8 31  1  0
  9 10  1  0
  9 32  1  0
 10 11  2  0
 10 33  1  0
 11 12  1  0
 12 13  1  0
 13 14  1  0
 13 34  1  0
 13 35  1  0
 14 15  1  0
 14 36  1  0
 14 37  1  0
 15 16  1  0
 15 38  1  0
 15 39  1  0
 16 17  2  0
 16 21  1  0
 17 18  1  0
 17 40  1  0
 18 19  2  0
 18 41  1  0
 19 20  1  0
 19 42  1  0
 20 21  2  0
 20 43  1  0
 21 44  1  0
M  END

