
     RDKit          3D

 69 73  0  0  0  0  0  0  0  0999 V2000
    2.2384   -1.0154   -0.1843 C   0  0  0  0  0  0  0  0  0  0  0  0
    3.2658    0.0592    0.2151 C   0  0  2  0  0  0  0  0  0  0  0  0
    4.2536   -0.4339    0.2304 H   0  0  0  0  0  0  0  0  0  0  0  0
    3.0078    0.5458    1.6425 C   0  0  0  0  0  0  0  0  0  0  0  0
    1.9919    1.4734    1.9271 C   0  0  0  0  0  0  0  0  0  0  0  0
    1.7225    1.8757    3.2364 C   0  0  0  0  0  0  0  0  0  0  0  0
    2.4838    1.3439    4.2756 C   0  0  0  0  0  0  0  0  0  0  0  0
    2.2335    1.7298    5.5362 F   0  0  0  0  0  0  0  0  0  0  0  0
    3.5012    0.4258    4.0327 C   0  0  0  0  0  0  0  0  0  0  0  0
    3.7538    0.0336    2.7148 C   0  0  0  0  0  0  0  0  0  0  0  0
    3.3678    1.2055   -0.7818 C   0  0  0  0  0  0  0  0  0  0  0  0
    4.4452    2.1078   -0.7398 C   0  0  0  0  0  0  0  0  0  0  0  0
    4.5955    3.1214   -1.5780 N   0  0  0  0  0  0  0  0  0  0  0  0
    3.6398    3.2860   -2.5179 C   0  0  0  0  0  0  0  0  0  0  0  0
    3.7700    4.3452   -3.3791 N   0  0  0  0  0  0  0  0  0  0  0  0
    2.8438    4.5744   -4.4787 C   0  0  0  0  0  0  0  0  0  0  0  0
    2.4134    6.0419   -4.5205 C   0  0  0  0  0  0  0  0  0  0  0  0
    3.5767    6.9228   -4.5139 N   0  0  0  0  0  0  0  0  0  0  0  0
    3.7218    7.9421   -5.4061 C   0  0  0  0  0  0  0  0  0  0  0  0
    2.7888    8.0637   -6.3771 N   0  0  0  0  0  0  0  0  0  0  0  0
    3.0009    9.0603   -7.2292 C   0  0  0  0  0  0  0  0  0  0  0  0
    4.0106    9.9198   -7.2133 N   0  0  0  0  0  0  0  0  0  0  0  0
    4.8800    9.7195   -6.1948 C   0  0  0  0  0  0  0  0  0  0  0  0
    5.9197   10.6013   -6.1607 N   0  0  0  0  0  0  0  0  0  0  0  0
    6.9836   10.6920   -5.2623 C   0  0  0  0  0  0  0  0  0  0  0  0
    7.1870   10.0720   -3.9998 C   0  0  0  0  0  0  0  0  0  0  0  0
    8.3479   10.4468   -3.4670 N   0  0  0  0  0  0  0  0  0  0  0  0
    8.9006   11.2946   -4.3411 N   0  0  0  0  0  0  0  0  0  0  0  0
   10.1805   11.9206   -4.0604 C   0  0  0  0  0  0  0  0  0  0  0  0
   10.1592   13.1391   -3.0948 C   0  0  1  0  0  0  0  0  0  0  0  0
    9.2101   14.2347   -3.5922 C   0  0  0  0  0  0  0  0  0  0  0  0
    9.8216   12.7152   -1.6669 C   0  0  0  0  0  0  0  0  0  0  0  0
   11.4989   13.6307   -3.0451 O   0  0  0  0  0  0  0  0  0  0  0  0
    8.1183   11.4750   -5.4461 C   0  0  0  0  0  0  0  0  0  0  0  0
    4.7815    8.7625   -5.2718 N   0  0  0  0  0  0  0  0  0  0  0  0
    4.5101    6.6894   -3.4191 C   0  0  0  0  0  0  0  0  0  0  0  0
    4.9339    5.2185   -3.3736 C   0  0  0  0  0  0  0  0  0  0  0  0
    2.5701    2.4833   -2.6611 N   0  0  0  0  0  0  0  0  0  0  0  0
    2.4505    1.4704   -1.8062 C   0  0  0  0  0  0  0  0  0  0  0  0
    1.2107   -0.6192   -0.1716 H   0  0  0  0  0  0  0  0  0  0  0  0
    2.2726   -1.8543    0.5266 H   0  0  0  0  0  0  0  0  0  0  0  0
    2.4421   -1.4109   -1.1922 H   0  0  0  0  0  0  0  0  0  0  0  0
    1.4032    1.8986    1.1102 H   0  0  0  0  0  0  0  0  0  0  0  0
    0.9360    2.5981    3.4639 H   0  0  0  0  0  0  0  0  0  0  0  0
    4.0821    0.0332    4.8696 H   0  0  0  0  0  0  0  0  0  0  0  0
    4.5523   -0.6882    2.5195 H   0  0  0  0  0  0  0  0  0  0  0  0
    5.2281    1.9891    0.0219 H   0  0  0  0  0  0  0  0  0  0  0  0
    1.9753    3.9194   -4.3462 H   0  0  0  0  0  0  0  0  0  0  0  0
    3.3323    4.3107   -5.4377 H   0  0  0  0  0  0  0  0  0  0  0  0
    1.7878    6.2618   -3.6340 H   0  0  0  0  0  0  0  0  0  0  0  0
    1.8263    6.2529   -5.4210 H   0  0  0  0  0  0  0  0  0  0  0  0
    2.2613    9.1843   -8.0319 H   0  0  0  0  0  0  0  0  0  0  0  0
    5.8937   11.2642   -6.9271 H   0  0  0  0  0  0  0  0  0  0  0  0
    6.5327    9.3758   -3.4867 H   0  0  0  0  0  0  0  0  0  0  0  0
   10.6013   12.2479   -5.0245 H   0  0  0  0  0  0  0  0  0  0  0  0
   10.8530   11.1575   -3.6437 H   0  0  0  0  0  0  0  0  0  0  0  0
    8.1634   13.8954   -3.6034 H   0  0  0  0  0  0  0  0  0  0  0  0
    9.4718   14.5513   -4.6177 H   0  0  0  0  0  0  0  0  0  0  0  0
    9.2835   15.1148   -2.9356 H   0  0  0  0  0  0  0  0  0  0  0  0
    8.8427   12.2198   -1.6202 H   0  0  0  0  0  0  0  0  0  0  0  0
    9.8232   13.5958   -1.0067 H   0  0  0  0  0  0  0  0  0  0  0  0
   10.5812   12.0094   -1.2988 H   0  0  0  0  0  0  0  0  0  0  0  0
   11.6975   14.0649   -3.8859 H   0  0  0  0  0  0  0  0  0  0  0  0
    8.4172   12.1225   -6.2675 H   0  0  0  0  0  0  0  0  0  0  0  0
    4.0282    6.9620   -2.4605 H   0  0  0  0  0  0  0  0  0  0  0  0
    5.3858    7.3316   -3.5603 H   0  0  0  0  0  0  0  0  0  0  0  0
    5.5212    5.0136   -2.4714 H   0  0  0  0  0  0  0  0  0  0  0  0
    5.5673    4.9985   -4.2558 H   0  0  0  0  0  0  0  0  0  0  0  0
    1.5728    0.8307   -1.9520 H   0  0  0  0  0  0  0  0  0  0  0  0
  1  2  1  0
  1 40  1  0
  1 41  1  0
  1 42  1  0
  2  3  1  1
  2  4  1  0
  2 11  1  0
  4  5  2  0
  4 10  1  0
  5  6  1  0
  5 43  1  0
  6  7  2  0
  6 44  1  0
  7  8  1  0
  7  9  1  0
  9 10  2  0
  9 45  1  0
 10 46  1  0
 11 12  2  0
 11 39  1  0
 12 13  1  0
 12 47  1  0
 13 14  2  0
 14 15  1  0
 14 38  1  0
 15 16  1  0
 15 37  1  0
 16 17  1  0
 16 48  1  0
 16 49  1  0
 17 18  1  0
 17 50  1  0
 17 51  1  0
 18 19  1  0
 18 36  1  0
 19 20  2  0
 19 35  1  0
 20 21  1  0
 21 22  2  0
 21 52  1  0
 22 23  1  0
 23 24  1  0
 23 35  2  0
 24 25  1  0
 24 53  1  0
 25 26  1  0
 25 34  2  0
 26 27  2  0
 26 54  1  0
 27 28  1  0
 28 29  1  0
 28 34  1  0
 29 30  1  0
 29 55  1  0
 29 56  1  0
 30 31  1  0
 30 32  1  0
 30 33  1  1
 31 57  1  0
 31 58  1  0
 31 59  1  0
 32 60  1  0
 32 61  1  0
 32 62  1  0
 33 63  1  0
 34 64  1  0
 36 37  1  0
 36 65  1  0
 36 66  1  0
 37 67  1  0
 37 68  1  0
 38 39  2  0
 39 69  1  0
M  END

