
     RDKit          3D

 46 50  0  0  0  0  0  0  0  0999 V2000
    2.7750   -0.6473   -0.7072 C   0  0  0  0  0  0  0  0  0  0  0  0
    2.1552   -0.0804    0.4396 O   0  0  0  0  0  0  0  0  0  0  0  0
    2.9695    0.6443    1.2674 C   0  0  0  0  0  0  0  0  0  0  0  0
    2.8801    2.0324    1.2930 C   0  0  0  0  0  0  0  0  0  0  0  0
    3.6423    2.8291    2.1735 C   0  0  0  0  0  0  0  0  0  0  0  0
    3.5112    4.3070    2.1883 C   0  0  0  0  0  0  0  0  0  0  0  0
    3.4521    5.0362    3.3852 C   0  0  0  0  0  0  0  0  0  0  0  0
    3.2897    6.4340    3.3766 C   0  0  0  0  0  0  0  0  0  0  0  0
    3.1875    7.1700    2.2700 N   0  0  0  0  0  0  0  0  0  0  0  0
    3.2561    6.4780    1.1389 C   0  0  0  0  0  0  0  0  0  0  0  0
    3.1995    7.0198   -0.1239 N   0  0  0  0  0  0  0  0  0  0  0  0
    3.0958    8.0091   -0.3097 H   0  0  0  0  0  0  0  0  0  0  0  0
    3.3296    6.0133   -1.0550 C   0  0  0  0  0  0  0  0  0  0  0  0
    3.4649    4.8009   -0.4176 C   0  0  0  0  0  0  0  0  0  0  0  0
    3.4168    5.0646    0.9956 C   0  0  0  0  0  0  0  0  0  0  0  0
    4.5163    2.1397    3.0235 C   0  0  0  0  0  0  0  0  0  0  0  0
    5.2937    2.8213    3.8810 F   0  0  0  0  0  0  0  0  0  0  0  0
    4.6414    0.7500    3.0244 C   0  0  0  0  0  0  0  0  0  0  0  0
    3.8614   -0.0112    2.1496 C   0  0  0  0  0  0  0  0  0  0  0  0
    3.8832   -1.3662    2.0817 O   0  0  0  0  0  0  0  0  0  0  0  0
    4.6111   -2.1159    3.0403 C   0  0  0  0  0  0  0  0  0  0  0  0
    4.2489   -3.5565    2.8505 C   0  0  0  0  0  0  0  0  0  0  0  0
    4.9834   -4.5747    3.2125 N   0  0  0  0  0  0  0  0  0  0  0  0
    4.2242   -5.6913    2.9011 C   0  0  0  0  0  0  0  0  0  0  0  0
    4.5107   -7.0554    3.0670 C   0  0  0  0  0  0  0  0  0  0  0  0
    3.5580   -7.9817    2.6487 C   0  0  0  0  0  0  0  0  0  0  0  0
    2.3361   -7.5715    2.0721 C   0  0  0  0  0  0  0  0  0  0  0  0
    2.0290   -6.2223    1.8966 C   0  0  0  0  0  0  0  0  0  0  0  0
    2.9878   -5.2959    2.3214 C   0  0  0  0  0  0  0  0  0  0  0  0
    3.0356   -3.9147    2.3129 N   0  0  0  0  0  0  0  0  0  0  0  0
    2.3617   -3.2621    1.9303 H   0  0  0  0  0  0  0  0  0  0  0  0
    1.9832   -1.1478   -1.2825 H   0  0  0  0  0  0  0  0  0  0  0  0
    3.5446   -1.3878   -0.4317 H   0  0  0  0  0  0  0  0  0  0  0  0
    3.2365    0.1327   -1.3394 H   0  0  0  0  0  0  0  0  0  0  0  0
    2.1592    2.5025    0.6229 H   0  0  0  0  0  0  0  0  0  0  0  0
    3.5206    4.5201    4.3432 H   0  0  0  0  0  0  0  0  0  0  0  0
    3.2373    6.9733    4.3291 H   0  0  0  0  0  0  0  0  0  0  0  0
    3.3199    6.2367   -2.1202 H   0  0  0  0  0  0  0  0  0  0  0  0
    3.5985    3.8418   -0.9108 H   0  0  0  0  0  0  0  0  0  0  0  0
    5.3551    0.2997    3.7134 H   0  0  0  0  0  0  0  0  0  0  0  0
    4.3437   -1.7855    4.0627 H   0  0  0  0  0  0  0  0  0  0  0  0
    5.7016   -1.9965    2.9215 H   0  0  0  0  0  0  0  0  0  0  0  0
    5.4580   -7.3663    3.5122 H   0  0  0  0  0  0  0  0  0  0  0  0
    3.7562   -9.0499    2.7672 H   0  0  0  0  0  0  0  0  0  0  0  0
    1.6136   -8.3286    1.7571 H   0  0  0  0  0  0  0  0  0  0  0  0
    1.0819   -5.9093    1.4510 H   0  0  0  0  0  0  0  0  0  0  0  0
  1  2  1  0
  1 32  1  0
  1 33  1  0
  1 34  1  0
  2  3  1  0
  3  4  2  0
  3 19  1  0
  4  5  1  0
  4 35  1  0
  5  6  1  0
  5 16  2  0
  6  7  2  0
  6 15  1  0
  7  8  1  0
  7 36  1  0
  8  9  2  0
  8 37  1  0
  9 10  1  0
 10 11  1  0
 10 15  2  0
 11 12  1  0
 11 13  1  0
 13 14  2  0
 13 38  1  0
 14 15  1  0
 14 39  1  0
 16 17  1  0
 16 18  1  0
 18 19  2  0
 18 40  1  0
 19 20  1  0
 20 21  1  0
 21 22  1  0
 21 41  1  0
 21 42  1  0
 22 23  2  0
 22 30  1  0
 23 24  1  0
 24 25  2  0
 24 29  1  0
 25 26  1  0
 25 43  1  0
 26 27  2  0
 26 44  1  0
 27 28  1  0
 27 45  1  0
 28 29  2  0
 28 46  1  0
 29 30  1  0
 30 31  1  0
M  END

