
     RDKit          3D

 61 65  0  0  0  0  0  0  0  0999 V2000
    1.8911   -1.0755   -4.3896 C   0  0  0  0  0  0  0  0  0  0  0  0
    3.0240   -0.7406   -3.4489 C   0  0  0  0  0  0  0  0  0  0  0  0
    3.6976    0.4896   -3.5687 C   0  0  0  0  0  0  0  0  0  0  0  0
    4.7467    0.8287   -2.7185 C   0  0  0  0  0  0  0  0  0  0  0  0
    5.1701   -0.0580   -1.7031 C   0  0  0  0  0  0  0  0  0  0  0  0
    6.2226    0.2058   -0.7807 C   0  0  0  0  0  0  0  0  0  0  0  0
    6.9402    1.4542   -0.8840 N   0  0  0  0  0  0  0  0  0  0  0  0
    6.6361    2.5828   -0.2408 C   0  0  0  0  0  0  0  0  0  0  0  0
    5.5356    2.6848    0.6324 C   0  0  0  0  0  0  0  0  0  0  0  0
    5.2737    3.8907    1.2746 C   0  0  0  0  0  0  0  0  0  0  0  0
    4.2301    4.0405    2.1239 N   0  0  0  0  0  0  0  0  0  0  0  0
    6.1287    5.0327    1.0439 C   0  0  0  0  0  0  0  0  0  0  0  0
    7.2257    4.9504    0.1839 C   0  0  0  0  0  0  0  0  0  0  0  0
    8.1101    6.1583   -0.0490 C   0  0  0  0  0  0  0  0  0  0  0  0
    7.7721    6.8599   -1.2525 O   0  0  0  0  0  0  0  0  0  0  0  0
    8.4058    6.4611   -2.3896 C   0  0  0  0  0  0  0  0  0  0  0  0
    9.1855    5.5349   -2.4395 O   0  0  0  0  0  0  0  0  0  0  0  0
    8.0152    7.2685   -3.4195 N   0  0  0  0  0  0  0  0  0  0  0  0
    8.4160    7.2212   -4.7681 C   0  0  0  0  0  0  0  0  0  0  0  0
    9.3290    6.2753   -5.2599 C   0  0  0  0  0  0  0  0  0  0  0  0
    9.6642    6.3102   -6.6155 C   0  0  0  0  0  0  0  0  0  0  0  0
   10.7988    5.1346   -7.2283 Cl  0  0  0  0  0  0  0  0  0  0  0  0
    9.1258    7.2514   -7.4961 C   0  0  0  0  0  0  0  0  0  0  0  0
    8.2208    8.1812   -6.9795 C   0  0  0  0  0  0  0  0  0  0  0  0
    7.5229    9.3772   -8.0423 Cl  0  0  0  0  0  0  0  0  0  0  0  0
    7.8594    8.1789   -5.6330 C   0  0  0  0  0  0  0  0  0  0  0  0
    7.4858    3.7422   -0.4561 C   0  0  0  0  0  0  0  0  0  0  0  0
    6.6390   -0.7430    0.1894 C   0  0  0  0  0  0  0  0  0  0  0  0
    7.7086   -0.5695    1.1043 C   0  0  0  0  0  0  0  0  0  0  0  0
    8.0342   -1.5586    2.0330 C   0  0  0  0  0  0  0  0  0  0  0  0
    7.2978   -2.7546    2.0774 C   0  0  0  0  0  0  0  0  0  0  0  0
    6.2451   -2.9573    1.1900 C   0  0  0  0  0  0  0  0  0  0  0  0
    5.8815   -1.9809    0.2232 C   0  0  0  0  0  0  0  0  0  0  0  0
    4.8579   -2.2350   -0.6187 N   0  0  0  0  0  0  0  0  0  0  0  0
    4.4974   -1.3357   -1.5631 C   0  0  0  0  0  0  0  0  0  0  0  0
    3.4183   -1.6522   -2.4533 C   0  0  0  0  0  0  0  0  0  0  0  0
    2.7185   -2.9800   -2.3102 C   0  0  0  0  0  0  0  0  0  0  0  0
    1.7097   -0.2587   -5.1049 H   0  0  0  0  0  0  0  0  0  0  0  0
    0.9465   -1.2627   -3.8491 H   0  0  0  0  0  0  0  0  0  0  0  0
    2.0963   -1.9903   -4.9729 H   0  0  0  0  0  0  0  0  0  0  0  0
    3.3911    1.1915   -4.3500 H   0  0  0  0  0  0  0  0  0  0  0  0
    5.2501    1.7896   -2.8481 H   0  0  0  0  0  0  0  0  0  0  0  0
    7.7562    1.4909   -1.4950 H   0  0  0  0  0  0  0  0  0  0  0  0
    4.9076    1.8102    0.7888 H   0  0  0  0  0  0  0  0  0  0  0  0
    3.6069    3.2669    2.3168 H   0  0  0  0  0  0  0  0  0  0  0  0
    4.0488    4.9200    2.5875 H   0  0  0  0  0  0  0  0  0  0  0  0
    5.9061    5.9703    1.5585 H   0  0  0  0  0  0  0  0  0  0  0  0
    9.1657    5.8570   -0.0903 H   0  0  0  0  0  0  0  0  0  0  0  0
    7.9752    6.8910    0.7575 H   0  0  0  0  0  0  0  0  0  0  0  0
    7.3564    7.9968   -3.1671 H   0  0  0  0  0  0  0  0  0  0  0  0
    9.7668    5.5324   -4.5992 H   0  0  0  0  0  0  0  0  0  0  0  0
    9.4021    7.2599   -8.5494 H   0  0  0  0  0  0  0  0  0  0  0  0
    7.1480    8.9203   -5.2647 H   0  0  0  0  0  0  0  0  0  0  0  0
    8.3318    3.6669   -1.1409 H   0  0  0  0  0  0  0  0  0  0  0  0
    8.2951    0.3520    1.0788 H   0  0  0  0  0  0  0  0  0  0  0  0
    8.8669   -1.4005    2.7237 H   0  0  0  0  0  0  0  0  0  0  0  0
    7.5544   -3.5281    2.8063 H   0  0  0  0  0  0  0  0  0  0  0  0
    5.6604   -3.8797    1.1997 H   0  0  0  0  0  0  0  0  0  0  0  0
    3.1639   -3.5470   -1.4843 H   0  0  0  0  0  0  0  0  0  0  0  0
    2.7962   -3.5823   -3.2330 H   0  0  0  0  0  0  0  0  0  0  0  0
    1.6389   -2.8541   -2.1120 H   0  0  0  0  0  0  0  0  0  0  0  0
  1  2  1  0
  1 38  1  0
  1 39  1  0
  1 40  1  0
  2  3  2  0
  2 36  1  0
  3  4  1  0
  3 41  1  0
  4  5  2  0
  4 42  1  0
  5  6  1  0
  5 35  1  0
  6  7  1  0
  6 28  2  0
  7  8  1  0
  7 43  1  0
  8  9  2  0
  8 27  1  0
  9 10  1  0
  9 44  1  0
 10 11  1  0
 10 12  2  0
 11 45  1  0
 11 46  1  0
 12 13  1  0
 12 47  1  0
 13 14  1  0
 13 27  2  0
 14 15  1  0
 14 48  1  0
 14 49  1  0
 15 16  1  0
 16 17  2  0
 16 18  1  0
 18 19  1  0
 18 50  1  0
 19 20  2  0
 19 26  1  0
 20 21  1  0
 20 51  1  0
 21 22  1  0
 21 23  2  0
 23 24  1  0
 23 52  1  0
 24 25  1  0
 24 26  2  0
 26 53  1  0
 27 54  1  0
 28 29  1  0
 28 33  1  0
 29 30  2  0
 29 55  1  0
 30 31  1  0
 30 56  1  0
 31 32  2  0
 31 57  1  0
 32 33  1  0
 32 58  1  0
 33 34  2  0
 34 35  1  0
 35 36  2  0
 36 37  1  0
 37 59  1  0
 37 60  1  0
 37 61  1  0
M  END

