
     RDKit          3D

 70 73  0  0  0  0  0  0  0  0999 V2000
    4.1144    0.4963   -1.4297 C   0  0  0  0  0  0  0  0  0  0  0  0
    3.0909   -0.1112   -0.4601 C   0  0  1  0  0  0  0  0  0  0  0  0
    2.1757   -0.9295   -1.1640 O   0  0  0  0  0  0  0  0  0  0  0  0
    3.7323   -0.8756    0.7048 C   0  0  0  0  0  0  0  0  0  0  0  0
    4.9358   -0.4723    1.3050 C   0  0  0  0  0  0  0  0  0  0  0  0
    5.4735   -1.1667    2.3843 C   0  0  0  0  0  0  0  0  0  0  0  0
    4.8238   -2.3046    2.9182 C   0  0  0  0  0  0  0  0  0  0  0  0
    5.3645   -3.0045    4.0039 N   0  0  0  0  0  0  0  0  0  0  0  0
    4.8914   -4.3695    4.2974 C   0  0  0  0  0  0  0  0  0  0  0  0
    5.9632   -5.1714    5.0501 C   0  0  0  0  0  0  0  0  0  0  0  0
    6.4789   -4.4721    6.2045 N   0  0  0  0  0  0  0  0  0  0  0  0
    5.5634   -4.7198    7.7369 S   0  0  1  0  0  0  0  0  0  0  0  0
    6.2218   -3.6956    8.5880 O   0  0  0  0  0  0  0  0  0  0  0  0
    4.1340   -4.4715    7.3847 O   0  0  0  0  0  0  0  0  0  0  0  0
    5.7659   -6.2999    8.2968 C   0  0  0  0  0  0  0  0  0  0  0  0
    4.7041   -7.2562    8.0310 C   0  0  0  0  0  0  0  0  0  0  0  0
    4.9241   -8.6068    8.1661 C   0  0  0  0  0  0  0  0  0  0  0  0
    6.1907   -9.1070    8.5592 C   0  0  0  0  0  0  0  0  0  0  0  0
    7.2249   -8.1849    8.8489 C   0  0  0  0  0  0  0  0  0  0  0  0
    7.0627   -6.8158    8.7221 C   0  0  0  0  0  0  0  0  0  0  0  0
    8.3793   -5.6805    9.1661 S   0  0  0  0  0  0  0  0  0  0  0  0
    6.9624   -3.1565    5.8858 C   0  0  0  0  0  0  0  0  0  0  0  0
    5.9738   -2.2801    5.0845 C   0  0  2  0  0  0  0  0  0  0  0  0
    6.5179   -1.4162    4.6822 H   0  0  0  0  0  0  0  0  0  0  0  0
    4.7864   -1.6475    6.0084 C   0  0  0  0  0  0  0  0  0  0  0  0
    5.2047   -0.5467    6.7946 N   0  0  0  0  0  0  0  0  0  0  0  0
    5.1862    0.8037    6.2660 C   0  0  0  0  0  0  0  0  0  0  0  0
    4.2603    1.6722    7.1366 C   0  0  0  0  0  0  0  0  0  0  0  0
    4.6897    1.5824    8.5168 N   0  0  0  0  0  0  0  0  0  0  0  0
    4.6725    0.2327    9.0451 C   0  0  2  0  0  0  0  0  0  0  0  0
    5.1323    0.2475   10.5025 C   0  0  1  0  0  0  0  0  0  0  0  0
    4.3907    1.1300   11.2041 F   0  0  0  0  0  0  0  0  0  0  0  0
    4.9802   -0.9543   11.0603 F   0  0  0  0  0  0  0  0  0  0  0  0
    6.4148    0.6106   10.6286 F   0  0  0  0  0  0  0  0  0  0  0  0
    5.5937   -0.6662    8.1897 C   0  0  0  0  0  0  0  0  0  0  0  0
    3.6125   -2.7063    2.3117 C   0  0  0  0  0  0  0  0  0  0  0  0
    3.0836   -2.0004    1.2339 C   0  0  0  0  0  0  0  0  0  0  0  0
    2.2012    1.0211    0.1117 C   0  0  1  0  0  0  0  0  0  0  0  0
    1.6066    1.7208   -0.8609 F   0  0  0  0  0  0  0  0  0  0  0  0
    1.2473    0.5438    0.9176 F   0  0  0  0  0  0  0  0  0  0  0  0
    2.9485    1.8835    0.8310 F   0  0  0  0  0  0  0  0  0  0  0  0
    4.7824   -0.2930   -1.8075 H   0  0  0  0  0  0  0  0  0  0  0  0
    4.7317    1.2721   -0.9573 H   0  0  0  0  0  0  0  0  0  0  0  0
    3.5798    0.9483   -2.2762 H   0  0  0  0  0  0  0  0  0  0  0  0
    2.6795   -1.6057   -1.6365 H   0  0  0  0  0  0  0  0  0  0  0  0
    5.4795    0.3938    0.9251 H   0  0  0  0  0  0  0  0  0  0  0  0
    6.4327   -0.8419    2.7890 H   0  0  0  0  0  0  0  0  0  0  0  0
    4.6656   -4.8609    3.3415 H   0  0  0  0  0  0  0  0  0  0  0  0
    3.9717   -4.3404    4.9067 H   0  0  0  0  0  0  0  0  0  0  0  0
    6.7997   -5.3936    4.3604 H   0  0  0  0  0  0  0  0  0  0  0  0
    5.5383   -6.1370    5.3592 H   0  0  0  0  0  0  0  0  0  0  0  0
    3.7249   -6.8697    7.7507 H   0  0  0  0  0  0  0  0  0  0  0  0
    4.0979   -9.3001    7.9839 H   0  0  0  0  0  0  0  0  0  0  0  0
    6.3679  -10.1779    8.6606 H   0  0  0  0  0  0  0  0  0  0  0  0
    8.1848   -8.5664    9.2096 H   0  0  0  0  0  0  0  0  0  0  0  0
    9.3288   -6.6421    9.2397 H   0  0  0  0  0  0  0  0  0  0  0  0
    7.8692   -3.2493    5.2563 H   0  0  0  0  0  0  0  0  0  0  0  0
    7.2642   -2.6531    6.8125 H   0  0  0  0  0  0  0  0  0  0  0  0
    4.3933   -2.4580    6.6376 H   0  0  0  0  0  0  0  0  0  0  0  0
    4.0217   -1.3043    5.2947 H   0  0  0  0  0  0  0  0  0  0  0  0
    4.8450    0.7872    5.2222 H   0  0  0  0  0  0  0  0  0  0  0  0
    6.2059    1.2258    6.3038 H   0  0  0  0  0  0  0  0  0  0  0  0
    3.2156    1.3285    6.9722 H   0  0  0  0  0  0  0  0  0  0  0  0
    4.3251    2.7172    6.7986 H   0  0  0  0  0  0  0  0  0  0  0  0
    4.1816    2.2252    9.1204 H   0  0  0  0  0  0  0  0  0  0  0  0
    3.6606   -0.2267    9.0547 H   0  0  0  0  0  0  0  0  0  0  0  0
    5.5632   -1.7174    8.5069 H   0  0  0  0  0  0  0  0  0  0  0  0
    6.6252   -0.2935    8.3063 H   0  0  0  0  0  0  0  0  0  0  0  0
    3.0599   -3.5591    2.7035 H   0  0  0  0  0  0  0  0  0  0  0  0
    2.1358   -2.3159    0.7960 H   0  0  0  0  0  0  0  0  0  0  0  0
  1  2  1  0
  1 42  1  0
  1 43  1  0
  1 44  1  0
  2  3  1  6
  2  4  1  0
  2 38  1  0
  3 45  1  0
  4  5  2  0
  4 37  1  0
  5  6  1  0
  5 46  1  0
  6  7  2  0
  6 47  1  0
  7  8  1  0
  7 36  1  0
  8  9  1  0
  8 23  1  0
  9 10  1  0
  9 48  1  0
  9 49  1  0
 10 11  1  0
 10 50  1  0
 10 51  1  0
 11 12  1  0
 11 22  1  0
 12 13  2  0
 12 14  2  0
 12 15  1  1
 15 16  2  0
 15 20  1  0
 16 17  1  0
 16 52  1  0
 17 18  2  0
 17 53  1  0
 18 19  1  0
 18 54  1  0
 19 20  2  0
 19 55  1  0
 20 21  1  0
 21 56  1  0
 22 23  1  0
 22 57  1  0
 22 58  1  0
 23 24  1  6
 23 25  1  0
 25 26  1  0
 25 59  1  0
 25 60  1  0
 26 27  1  0
 26 35  1  0
 27 28  1  0
 27 61  1  0
 27 62  1  0
 28 29  1  0
 28 63  1  0
 28 64  1  0
 29 30  1  0
 29 65  1  0
 30 31  1  0
 30 35  1  0
 30 66  1  6
 31 32  1  6
 31 33  1  0
 31 34  1  0
 35 67  1  0
 35 68  1  0
 36 37  2  0
 36 69  1  0
 37 70  1  0
 38 39  1  6
 38 40  1  0
 38 41  1  0
M  END

