
     RDKit          3D

 35 36  0  0  0  0  0  0  0  0999 V2000
    0.6932   -0.0520    0.0829 C   0  0  0  0  0  0  0  0  0  0  0  0
    2.2038   -0.2887   -0.0463 C   0  0  1  0  0  0  0  0  0  0  0  0
    2.4995   -1.6223   -0.7573 C   0  0  0  0  0  0  0  0  0  0  0  0
    2.1705   -1.5746   -2.1357 O   0  0  0  0  0  0  0  0  0  0  0  0
    2.9517   -0.6263   -2.8299 C   0  0  0  0  0  0  0  0  0  0  0  0
    2.6943    0.7899   -2.3132 C   0  0  0  0  0  0  0  0  0  0  0  0
    2.9045    0.8897   -0.7757 C   0  0  2  0  0  0  0  0  0  0  0  0
    4.3992    0.9995   -0.4628 C   0  0  0  0  0  0  0  0  0  0  0  0
    5.0707    0.0290   -0.1710 O   0  0  0  0  0  0  0  0  0  0  0  0
    5.0025    2.4050   -0.5389 C   0  0  1  0  0  0  0  0  0  0  0  0
    4.7916    3.1555    0.8053 C   0  0  0  0  0  0  0  0  0  0  0  0
    5.7977    2.7073    1.8670 C   0  0  0  0  0  0  0  0  0  0  0  0
    7.1254    2.8631    1.4148 O   0  0  0  0  0  0  0  0  0  0  0  0
    7.4043    2.0569    0.2823 C   0  0  0  0  0  0  0  0  0  0  0  0
    6.5017    2.4147   -0.9029 C   0  0  0  0  0  0  0  0  0  0  0  0
    0.2275   -0.8445    0.6906 H   0  0  0  0  0  0  0  0  0  0  0  0
    0.1995   -0.0641   -0.9011 H   0  0  0  0  0  0  0  0  0  0  0  0
    0.4723    0.9134    0.5669 H   0  0  0  0  0  0  0  0  0  0  0  0
    2.6343   -0.3629    0.9674 H   0  0  0  0  0  0  0  0  0  0  0  0
    1.8893   -2.4287   -0.3207 H   0  0  0  0  0  0  0  0  0  0  0  0
    3.5651   -1.8813   -0.6278 H   0  0  0  0  0  0  0  0  0  0  0  0
    2.6764   -0.7017   -3.8937 H   0  0  0  0  0  0  0  0  0  0  0  0
    4.0290   -0.8786   -2.7440 H   0  0  0  0  0  0  0  0  0  0  0  0
    1.6533    1.0679   -2.5448 H   0  0  0  0  0  0  0  0  0  0  0  0
    3.3369    1.5101   -2.8482 H   0  0  0  0  0  0  0  0  0  0  0  0
    2.4432    1.8360   -0.4447 H   0  0  0  0  0  0  0  0  0  0  0  0
    4.4396    2.9520   -1.3140 H   0  0  0  0  0  0  0  0  0  0  0  0
    3.7614    3.0270    1.1792 H   0  0  0  0  0  0  0  0  0  0  0  0
    4.9341    4.2339    0.6231 H   0  0  0  0  0  0  0  0  0  0  0  0
    5.6088    1.6528    2.1568 H   0  0  0  0  0  0  0  0  0  0  0  0
    5.6958    3.3242    2.7736 H   0  0  0  0  0  0  0  0  0  0  0  0
    7.2847    0.9876    0.5336 H   0  0  0  0  0  0  0  0  0  0  0  0
    8.4600    2.2360    0.0265 H   0  0  0  0  0  0  0  0  0  0  0  0
    6.7005    1.7238   -1.7385 H   0  0  0  0  0  0  0  0  0  0  0  0
    6.7620    3.4297   -1.2486 H   0  0  0  0  0  0  0  0  0  0  0  0
  1  2  1  0
  1 16  1  0
  1 17  1  0
  1 18  1  0
  2  3  1  0
  2  7  1  0
  2 19  1  1
  3  4  1  0
  3 20  1  0
  3 21  1  0
  4  5  1  0
  5  6  1  0
  5 22  1  0
  5 23  1  0
  6  7  1  0
  6 24  1  0
  6 25  1  0
  7  8  1  0
  7 26  1  1
  8  9  2  0
  8 10  1  0
 10 11  1  0
 10 15  1  0
 10 27  1  6
 11 12  1  0
 11 28  1  0
 11 29  1  0
 12 13  1  0
 12 30  1  0
 12 31  1  0
 13 14  1  0
 14 15  1  0
 14 32  1  0
 14 33  1  0
 15 34  1  0
 15 35  1  0
M  END

