
     RDKit          3D

 38 38  0  0  0  0  0  0  0  0999 V2000
    2.2266    0.8884    2.2772 C   0  0  0  0  0  0  0  0  0  0  0  0
    2.0998   -0.6317    2.1717 C   0  0  0  0  0  0  0  0  0  0  0  0
    2.9682   -1.2666    1.0702 C   0  0  0  0  0  0  0  0  0  0  0  0
    4.4066   -1.0949    1.2311 N   0  0  0  0  0  0  0  0  0  0  0  0
    5.0689   -0.0760    0.4233 C   0  0  0  0  0  0  0  0  0  0  0  0
    5.8383   -0.6017   -0.7994 C   0  0  0  0  0  0  0  0  0  0  0  0
    4.9697   -1.2922   -1.8507 C   0  0  0  0  0  0  0  0  0  0  0  0
    5.7865   -1.7702   -2.9604 N   0  0  0  0  0  0  0  0  0  0  0  0
    5.1319   -1.8767    2.1275 C   0  0  0  0  0  0  0  0  0  0  0  0
    6.5125   -1.6598    2.3510 C   0  0  0  0  0  0  0  0  0  0  0  0
    7.2163   -2.4551    3.2585 C   0  0  0  0  0  0  0  0  0  0  0  0
    6.6029   -3.4821    3.9678 C   0  0  0  0  0  0  0  0  0  0  0  0
    5.2349   -3.7137    3.7531 C   0  0  0  0  0  0  0  0  0  0  0  0
    4.6869   -4.7334    4.4702 O   0  0  0  0  0  0  0  0  0  0  0  0
    3.3247   -5.0445    4.3137 C   0  0  0  0  0  0  0  0  0  0  0  0
    4.5077   -2.9268    2.8522 C   0  0  0  0  0  0  0  0  0  0  0  0
    1.5762    1.2869    3.0720 H   0  0  0  0  0  0  0  0  0  0  0  0
    1.9405    1.3862    1.3348 H   0  0  0  0  0  0  0  0  0  0  0  0
    3.2593    1.1886    2.5160 H   0  0  0  0  0  0  0  0  0  0  0  0
    1.0488   -0.9056    1.9668 H   0  0  0  0  0  0  0  0  0  0  0  0
    2.3519   -1.0877    3.1433 H   0  0  0  0  0  0  0  0  0  0  0  0
    2.6882   -0.8272    0.1001 H   0  0  0  0  0  0  0  0  0  0  0  0
    2.7250   -2.3398    0.9841 H   0  0  0  0  0  0  0  0  0  0  0  0
    5.7517    0.5163    1.0554 H   0  0  0  0  0  0  0  0  0  0  0  0
    4.2964    0.6322    0.0867 H   0  0  0  0  0  0  0  0  0  0  0  0
    6.6265   -1.3046   -0.4875 H   0  0  0  0  0  0  0  0  0  0  0  0
    6.3553    0.2587   -1.2655 H   0  0  0  0  0  0  0  0  0  0  0  0
    4.1493   -0.6005   -2.1534 H   0  0  0  0  0  0  0  0  0  0  0  0
    4.4787   -2.1666   -1.3905 H   0  0  0  0  0  0  0  0  0  0  0  0
    6.1750   -0.9822   -3.4807 H   0  0  0  0  0  0  0  0  0  0  0  0
    5.2200   -2.2971   -3.6246 H   0  0  0  0  0  0  0  0  0  0  0  0
    7.0494   -0.8775    1.8188 H   0  0  0  0  0  0  0  0  0  0  0  0
    8.2821   -2.2619    3.4094 H   0  0  0  0  0  0  0  0  0  0  0  0
    7.1444   -4.1087    4.6776 H   0  0  0  0  0  0  0  0  0  0  0  0
    3.1170   -5.8923    4.9812 H   0  0  0  0  0  0  0  0  0  0  0  0
    3.0830   -5.3423    3.2766 H   0  0  0  0  0  0  0  0  0  0  0  0
    2.6694   -4.2006    4.5987 H   0  0  0  0  0  0  0  0  0  0  0  0
    3.4500   -3.1267    2.7118 H   0  0  0  0  0  0  0  0  0  0  0  0
  1  2  1  0
  1 17  1  0
  1 18  1  0
  1 19  1  0
  2  3  1  0
  2 20  1  0
  2 21  1  0
  3  4  1  0
  3 22  1  0
  3 23  1  0
  4  5  1  0
  4  9  1  0
  5  6  1  0
  5 24  1  0
  5 25  1  0
  6  7  1  0
  6 26  1  0
  6 27  1  0
  7  8  1  0
  7 28  1  0
  7 29  1  0
  8 30  1  0
  8 31  1  0
  9 10  2  0
  9 16  1  0
 10 11  1  0
 10 32  1  0
 11 12  2  0
 11 33  1  0
 12 13  1  0
 12 34  1  0
 13 14  1  0
 13 16  2  0
 14 15  1  0
 15 35  1  0
 15 36  1  0
 15 37  1  0
 16 38  1  0
M  END

