
     RDKit          3D

 68 72  0  0  0  0  0  0  0  0999 V2000
    1.6054   -0.1652    1.1280 O   0  0  0  0  0  0  0  0  0  0  0  0
    1.9533   -0.3496   -0.0330 C   0  0  0  0  0  0  0  0  0  0  0  0
    1.4783    0.3734   -1.0778 N   0  0  0  0  0  0  0  0  0  0  0  0
    0.5773    1.4996   -0.9206 C   0  0  0  0  0  0  0  0  0  0  0  0
   -0.8735    1.2034   -1.3754 C   0  0  1  0  0  0  0  0  0  0  0  0
   -0.8363    0.7747   -2.7379 O   0  0  0  0  0  0  0  0  0  0  0  0
   -1.5634    0.1308   -0.5089 C   0  0  0  0  0  0  0  0  0  0  0  0
   -1.8989    0.6054    0.9113 C   0  0  0  0  0  0  0  0  0  0  0  0
   -2.7257    1.8975    0.8867 C   0  0  0  0  0  0  0  0  0  0  0  0
   -2.0417    2.9893    0.0536 C   0  0  0  0  0  0  0  0  0  0  0  0
   -1.7077    2.4945   -1.3609 C   0  0  0  0  0  0  0  0  0  0  0  0
    2.9714   -1.4614   -0.3963 C   0  0  1  0  0  0  0  0  0  0  0  0
    3.2471   -1.2778   -1.7983 O   0  0  0  0  0  0  0  0  0  0  0  0
    3.9611   -2.2460   -2.5257 C   0  0  0  0  0  0  0  0  0  0  0  0
    4.6968   -1.6232   -3.6938 C   0  0  0  0  0  0  0  0  0  0  0  0
    4.8254   -0.2453   -3.8140 C   0  0  0  0  0  0  0  0  0  0  0  0
    5.5387    0.3491   -4.9102 C   0  0  0  0  0  0  0  0  0  0  0  0
    5.7730    1.5105   -5.2110 O   0  0  0  0  0  0  0  0  0  0  0  0
    6.0287   -0.6909   -5.7447 N   0  0  0  0  0  0  0  0  0  0  0  0
    6.7525   -0.5047   -6.8740 N   0  0  0  0  0  0  0  0  0  0  0  0
    6.9736    0.4443   -7.1603 H   0  0  0  0  0  0  0  0  0  0  0  0
    7.0257   -1.7490   -7.3619 C   0  0  0  0  0  0  0  0  0  0  0  0
    7.8005   -1.9831   -8.5861 C   0  0  0  0  0  0  0  0  0  0  0  0
    8.2903   -0.9250   -9.3715 C   0  0  0  0  0  0  0  0  0  0  0  0
    9.0244   -1.1904  -10.5277 C   0  0  0  0  0  0  0  0  0  0  0  0
    9.2758   -2.5122  -10.9098 C   0  0  0  0  0  0  0  0  0  0  0  0
    8.7897   -3.5692  -10.1321 C   0  0  0  0  0  0  0  0  0  0  0  0
    8.0552   -3.3098   -8.9760 C   0  0  0  0  0  0  0  0  0  0  0  0
    6.5084   -2.6929   -6.5950 N   0  0  0  0  0  0  0  0  0  0  0  0
    5.8750   -2.0510   -5.5692 C   0  0  0  0  0  0  0  0  0  0  0  0
    5.2076   -2.5428   -4.5515 N   0  0  0  0  0  0  0  0  0  0  0  0
    4.2728   -1.2776    0.4205 C   0  0  0  0  0  0  0  0  0  0  0  0
    4.1496   -1.6486    1.9054 C   0  0  0  0  0  0  0  0  0  0  0  0
    3.5555   -3.0497    2.0893 C   0  0  0  0  0  0  0  0  0  0  0  0
    2.2075   -3.1828    1.3703 C   0  0  0  0  0  0  0  0  0  0  0  0
    2.3390   -2.8474   -0.1224 C   0  0  0  0  0  0  0  0  0  0  0  0
    1.8744    0.1587   -1.9864 H   0  0  0  0  0  0  0  0  0  0  0  0
    0.9539    2.3362   -1.5312 H   0  0  0  0  0  0  0  0  0  0  0  0
    0.6107    1.8000    0.1348 H   0  0  0  0  0  0  0  0  0  0  0  0
   -0.4711   -0.1206   -2.7500 H   0  0  0  0  0  0  0  0  0  0  0  0
   -0.9322   -0.7743   -0.4705 H   0  0  0  0  0  0  0  0  0  0  0  0
   -2.4901   -0.1512   -1.0388 H   0  0  0  0  0  0  0  0  0  0  0  0
   -0.9643    0.7572    1.4772 H   0  0  0  0  0  0  0  0  0  0  0  0
   -2.4493   -0.1888    1.4431 H   0  0  0  0  0  0  0  0  0  0  0  0
   -2.9058    2.2572    1.9137 H   0  0  0  0  0  0  0  0  0  0  0  0
   -3.7201    1.6841    0.4522 H   0  0  0  0  0  0  0  0  0  0  0  0
   -1.1212    3.3193    0.5673 H   0  0  0  0  0  0  0  0  0  0  0  0
   -2.6866    3.8814   -0.0128 H   0  0  0  0  0  0  0  0  0  0  0  0
   -1.1833    3.2722   -1.9413 H   0  0  0  0  0  0  0  0  0  0  0  0
   -2.6394    2.2748   -1.9092 H   0  0  0  0  0  0  0  0  0  0  0  0
    3.2967   -3.0319   -2.9303 H   0  0  0  0  0  0  0  0  0  0  0  0
    4.7152   -2.7643   -1.9053 H   0  0  0  0  0  0  0  0  0  0  0  0
    4.3862    0.4159   -3.0702 H   0  0  0  0  0  0  0  0  0  0  0  0
    8.1024    0.1147   -9.0916 H   0  0  0  0  0  0  0  0  0  0  0  0
    9.4011   -0.3625  -11.1327 H   0  0  0  0  0  0  0  0  0  0  0  0
    9.8511   -2.7181  -11.8157 H   0  0  0  0  0  0  0  0  0  0  0  0
    8.9846   -4.6023  -10.4295 H   0  0  0  0  0  0  0  0  0  0  0  0
    7.6667   -4.1194   -8.3561 H   0  0  0  0  0  0  0  0  0  0  0  0
    4.6253   -0.2405    0.2992 H   0  0  0  0  0  0  0  0  0  0  0  0
    5.0394   -1.9241   -0.0416 H   0  0  0  0  0  0  0  0  0  0  0  0
    3.5082   -0.9113    2.4095 H   0  0  0  0  0  0  0  0  0  0  0  0
    5.1472   -1.5912    2.3729 H   0  0  0  0  0  0  0  0  0  0  0  0
    3.4357   -3.2722    3.1627 H   0  0  0  0  0  0  0  0  0  0  0  0
    4.2595   -3.8061    1.6921 H   0  0  0  0  0  0  0  0  0  0  0  0
    1.4754   -2.5066    1.8365 H   0  0  0  0  0  0  0  0  0  0  0  0
    1.8162   -4.2091    1.4725 H   0  0  0  0  0  0  0  0  0  0  0  0
    1.3627   -2.9064   -0.6328 H   0  0  0  0  0  0  0  0  0  0  0  0
    2.9854   -3.6085   -0.5913 H   0  0  0  0  0  0  0  0  0  0  0  0
  1  2  2  0
  2  3  1  0
  2 12  1  0
  3  4  1  0
  3 37  1  0
  4  5  1  0
  4 38  1  0
  4 39  1  0
  5  6  1  6
  5  7  1  0
  5 11  1  0
  6 40  1  0
  7  8  1  0
  7 41  1  0
  7 42  1  0
  8  9  1  0
  8 43  1  0
  8 44  1  0
  9 10  1  0
  9 45  1  0
  9 46  1  0
 10 11  1  0
 10 47  1  0
 10 48  1  0
 11 49  1  0
 11 50  1  0
 12 13  1  6
 12 32  1  0
 12 36  1  0
 13 14  1  0
 14 15  1  0
 14 51  1  0
 14 52  1  0
 15 16  2  0
 15 31  1  0
 16 17  1  0
 16 53  1  0
 17 18  2  0
 17 19  1  0
 19 20  1  0
 19 30  1  0
 20 21  1  0
 20 22  1  0
 22 23  1  0
 22 29  2  0
 23 24  2  0
 23 28  1  0
 24 25  1  0
 24 54  1  0
 25 26  2  0
 25 55  1  0
 26 27  1  0
 26 56  1  0
 27 28  2  0
 27 57  1  0
 28 58  1  0
 29 30  1  0
 30 31  2  0
 32 33  1  0
 32 59  1  0
 32 60  1  0
 33 34  1  0
 33 61  1  0
 33 62  1  0
 34 35  1  0
 34 63  1  0
 34 64  1  0
 35 36  1  0
 35 65  1  0
 35 66  1  0
 36 67  1  0
 36 68  1  0
M  END

