
     RDKit          3D

 44 45  0  0  0  0  0  0  0  0999 V2000
    0.2987    1.3626    3.3574 C   0  0  0  0  0  0  0  0  0  0  0  0
    2.0090    0.7878    3.3110 S   0  0  0  0  0  0  0  0  0  0  0  0
    2.9374    2.2833    3.1213 C   0  0  0  0  0  0  0  0  0  0  0  0
    4.4135    2.1716    3.5039 C   0  0  0  0  0  0  0  0  0  0  0  0
    5.1958    3.1999    2.6447 C   0  0  2  0  0  0  0  0  0  0  0  0
    5.0244    4.2118    3.0358 H   0  0  0  0  0  0  0  0  0  0  0  0
    4.6680    3.1151    1.2814 N   0  0  0  0  0  0  0  0  0  0  0  0
    6.7043    2.8026    2.6311 C   0  0  0  0  0  0  0  0  0  0  0  0
    6.9990    1.9356    1.7958 O   0  0  0  0  0  0  0  0  0  0  0  0
    7.5484    3.3832    3.4828 N   0  0  0  0  0  0  0  0  0  0  0  0
    7.1260    4.3860    4.4470 C   0  0  0  0  0  0  0  0  0  0  0  0
    9.1141    3.1531    3.2594 C   0  0  2  0  0  0  0  0  0  0  0  0
    9.5040    1.8558    3.9770 C   0  0  0  0  0  0  0  0  0  0  0  0
    9.7227    2.0716    5.4772 C   0  0  0  0  0  0  0  0  0  0  0  0
   10.8156    3.1211    5.7133 C   0  0  0  0  0  0  0  0  0  0  0  0
   10.5744    4.4061    4.9436 C   0  0  0  0  0  0  0  0  0  0  0  0
   11.0664    5.6114    5.4074 C   0  0  0  0  0  0  0  0  0  0  0  0
   10.9563    6.8218    4.6441 C   0  0  0  0  0  0  0  0  0  0  0  0
   10.3557    6.7414    3.3601 C   0  0  0  0  0  0  0  0  0  0  0  0
    9.8488    5.5524    2.8749 C   0  0  0  0  0  0  0  0  0  0  0  0
    9.9152    4.3290    3.6566 C   0  0  0  0  0  0  0  0  0  0  0  0
   -0.3510    0.4797    3.3286 H   0  0  0  0  0  0  0  0  0  0  0  0
    0.1159    2.0065    2.4866 H   0  0  0  0  0  0  0  0  0  0  0  0
    0.1375    1.9265    4.2864 H   0  0  0  0  0  0  0  0  0  0  0  0
    2.3935    3.1226    3.5776 H   0  0  0  0  0  0  0  0  0  0  0  0
    3.0182    2.4945    1.9986 H   0  0  0  0  0  0  0  0  0  0  0  0
    4.7951    1.1702    3.2444 H   0  0  0  0  0  0  0  0  0  0  0  0
    4.5797    2.3244    4.5789 H   0  0  0  0  0  0  0  0  0  0  0  0
    5.2596    2.4227    0.7984 H   0  0  0  0  0  0  0  0  0  0  0  0
    4.7523    3.9995    0.7826 H   0  0  0  0  0  0  0  0  0  0  0  0
    6.7178    5.2951    3.9704 H   0  0  0  0  0  0  0  0  0  0  0  0
    8.0156    4.7096    4.9998 H   0  0  0  0  0  0  0  0  0  0  0  0
    6.3893    3.9902    5.1673 H   0  0  0  0  0  0  0  0  0  0  0  0
    9.1368    2.9832    2.1734 H   0  0  0  0  0  0  0  0  0  0  0  0
   10.4478    1.5011    3.5261 H   0  0  0  0  0  0  0  0  0  0  0  0
    8.7510    1.0755    3.7820 H   0  0  0  0  0  0  0  0  0  0  0  0
    9.9921    1.1174    5.9636 H   0  0  0  0  0  0  0  0  0  0  0  0
    8.7760    2.4003    5.9463 H   0  0  0  0  0  0  0  0  0  0  0  0
   11.7774    2.6762    5.3861 H   0  0  0  0  0  0  0  0  0  0  0  0
   10.9278    3.3322    6.7904 H   0  0  0  0  0  0  0  0  0  0  0  0
   11.5921    5.6294    6.3693 H   0  0  0  0  0  0  0  0  0  0  0  0
   11.3495    7.7642    5.0270 H   0  0  0  0  0  0  0  0  0  0  0  0
   10.3060    7.6395    2.7333 H   0  0  0  0  0  0  0  0  0  0  0  0
    9.4086    5.5168    1.8719 H   0  0  0  0  0  0  0  0  0  0  0  0
  1  2  1  0
  1 22  1  0
  1 23  1  0
  1 24  1  0
  2  3  1  0
  3  4  1  0
  3 25  1  0
  3 26  1  0
  4  5  1  0
  4 27  1  0
  4 28  1  0
  5  6  1  1
  5  7  1  0
  5  8  1  0
  7 29  1  0
  7 30  1  0
  8  9  2  0
  8 10  1  0
 10 11  1  0
 10 12  1  0
 11 31  1  0
 11 32  1  0
 11 33  1  0
 12 13  1  0
 12 21  1  0
 12 34  1  6
 13 14  1  0
 13 35  1  0
 13 36  1  0
 14 15  1  0
 14 37  1  0
 14 38  1  0
 15 16  1  0
 15 39  1  0
 15 40  1  0
 16 17  1  0
 16 21  2  0
 17 18  2  0
 17 41  1  0
 18 19  1  0
 18 42  1  0
 19 20  2  0
 19 43  1  0
 20 21  1  0
 20 44  1  0
M  END

