
     RDKit          3D

 37 39  0  0  0  0  0  0  0  0999 V2000
    3.1311   -1.4717    0.7410 C   0  0  0  0  0  0  0  0  0  0  0  0
    2.6463   -0.1019    0.2452 C   0  0  1  0  0  0  0  0  0  0  0  0
    2.9796    0.0968   -1.1741 N   0  0  0  0  0  0  0  0  0  0  0  0
    4.2574    0.1990   -1.6674 C   0  0  0  0  0  0  0  0  0  0  0  0
    5.2509    0.1855   -0.9536 O   0  0  0  0  0  0  0  0  0  0  0  0
    4.3724    0.3251   -3.1479 C   0  0  0  0  0  0  0  0  0  0  0  0
    5.5500    0.1984   -3.8332 C   0  0  0  0  0  0  0  0  0  0  0  0
    5.4037    0.3404   -5.2552 C   0  0  0  0  0  0  0  0  0  0  0  0
    6.3906    0.2621   -6.2571 C   0  0  0  0  0  0  0  0  0  0  0  0
    6.0445    0.4326   -7.6030 C   0  0  0  0  0  0  0  0  0  0  0  0
    7.0057    0.4138   -8.6032 N   0  0  0  0  0  0  0  0  0  0  0  0
    4.6843    0.6818   -7.9363 C   0  0  0  0  0  0  0  0  0  0  0  0
    3.6966    0.7603   -6.9640 C   0  0  0  0  0  0  0  0  0  0  0  0
    4.0538    0.5874   -5.6206 C   0  0  0  0  0  0  0  0  0  0  0  0
    3.0093    0.6551   -4.2142 S   0  0  0  0  0  0  0  0  0  0  0  0
    1.1041    0.0408    0.3677 C   0  0  0  0  0  0  0  0  0  0  0  0
    0.7342    1.4982    0.1082 C   0  0  0  0  0  0  0  0  0  0  0  0
    2.0436    2.4549    0.9818 S   0  0  2  0  0  0  0  0  0  0  0  0
    1.5632    2.7538    2.3397 O   0  0  0  0  0  0  0  0  0  0  0  0
    2.5583    3.5157    0.1093 O   0  0  0  0  0  0  0  0  0  0  0  0
    3.2293    1.0510    1.0913 C   0  0  0  0  0  0  0  0  0  0  0  0
    2.6661   -2.2749    0.1470 H   0  0  0  0  0  0  0  0  0  0  0  0
    2.8634   -1.6231    1.7981 H   0  0  0  0  0  0  0  0  0  0  0  0
    4.2222   -1.5465    0.6376 H   0  0  0  0  0  0  0  0  0  0  0  0
    2.2396   -0.0867   -1.8432 H   0  0  0  0  0  0  0  0  0  0  0  0
    6.4911    0.0041   -3.3177 H   0  0  0  0  0  0  0  0  0  0  0  0
    7.4306    0.0733   -5.9775 H   0  0  0  0  0  0  0  0  0  0  0  0
    7.8881   -0.0308   -8.3791 H   0  0  0  0  0  0  0  0  0  0  0  0
    6.6833    0.2099   -9.5416 H   0  0  0  0  0  0  0  0  0  0  0  0
    4.4144    0.8208   -8.9869 H   0  0  0  0  0  0  0  0  0  0  0  0
    2.6607    0.9536   -7.2514 H   0  0  0  0  0  0  0  0  0  0  0  0
    0.8095   -0.2438    1.3897 H   0  0  0  0  0  0  0  0  0  0  0  0
    0.5897   -0.6501   -0.3212 H   0  0  0  0  0  0  0  0  0  0  0  0
   -0.2250    1.8114    0.5403 H   0  0  0  0  0  0  0  0  0  0  0  0
    0.7888    1.7849   -0.9502 H   0  0  0  0  0  0  0  0  0  0  0  0
    3.2681    0.7875    2.1564 H   0  0  0  0  0  0  0  0  0  0  0  0
    4.2125    1.3868    0.7438 H   0  0  0  0  0  0  0  0  0  0  0  0
  1  2  1  0
  1 22  1  0
  1 23  1  0
  1 24  1  0
  2  3  1  6
  2 16  1  0
  2 21  1  0
  3  4  1  0
  3 25  1  0
  4  5  2  0
  4  6  1  0
  6  7  2  0
  6 15  1  0
  7  8  1  0
  7 26  1  0
  8  9  2  0
  8 14  1  0
  9 10  1  0
  9 27  1  0
 10 11  1  0
 10 12  2  0
 11 28  1  0
 11 29  1  0
 12 13  1  0
 12 30  1  0
 13 14  2  0
 13 31  1  0
 14 15  1  0
 16 17  1  0
 16 32  1  0
 16 33  1  0
 18 17  1  6
 17 34  1  0
 17 35  1  0
 18 19  2  0
 18 20  2  0
 18 21  1  0
 21 36  1  0
 21 37  1  0
M  END

