
     RDKit          3D

 47 50  0  0  0  0  0  0  0  0999 V2000
    1.1421    0.8582    0.7918 Cl  0  0  0  0  0  0  0  0  0  0  0  0
    2.8304    0.6310    0.3978 C   0  0  0  0  0  0  0  0  0  0  0  0
    3.6534    1.7413    0.1943 C   0  0  0  0  0  0  0  0  0  0  0  0
    4.9980    1.5457   -0.1186 C   0  0  0  0  0  0  0  0  0  0  0  0
    5.5544    0.2548   -0.2374 C   0  0  0  0  0  0  0  0  0  0  0  0
    6.9727    0.1227   -0.5704 C   0  0  0  0  0  0  0  0  0  0  0  0
    7.6710   -1.0222   -0.7533 C   0  0  0  0  0  0  0  0  0  0  0  0
    9.0817   -1.0583   -1.0840 C   0  0  0  0  0  0  0  0  0  0  0  0
    9.8410    0.0725   -1.2291 N   0  0  0  0  0  0  0  0  0  0  0  0
   11.0645   -0.3220   -1.5317 C   0  0  0  0  0  0  0  0  0  0  0  0
   12.2056    0.5671   -1.7727 C   0  0  0  0  0  0  0  0  0  0  0  0
   12.0220    1.9576   -1.6443 C   0  0  0  0  0  0  0  0  0  0  0  0
   13.0824    2.8344   -1.8644 C   0  0  0  0  0  0  0  0  0  0  0  0
   14.3455    2.3440   -2.2166 C   0  0  0  0  0  0  0  0  0  0  0  0
   14.5386    0.9658   -2.3479 C   0  0  0  0  0  0  0  0  0  0  0  0
   13.4788    0.0842   -2.1285 C   0  0  0  0  0  0  0  0  0  0  0  0
   11.1308   -1.6910   -1.5902 N   0  0  0  0  0  0  0  0  0  0  0  0
   11.9548   -2.2409   -1.7912 H   0  0  0  0  0  0  0  0  0  0  0  0
    9.8778   -2.2003   -1.3076 C   0  0  0  0  0  0  0  0  0  0  0  0
    9.5416   -3.5966   -1.2701 C   0  0  0  0  0  0  0  0  0  0  0  0
   10.3765   -4.6392   -1.5159 C   0  0  0  0  0  0  0  0  0  0  0  0
   10.0491   -6.0636   -1.4762 C   0  0  0  0  0  0  0  0  0  0  0  0
   11.0546   -7.0084   -1.7724 C   0  0  0  0  0  0  0  0  0  0  0  0
   10.8058   -8.3798   -1.7507 C   0  0  0  0  0  0  0  0  0  0  0  0
    9.5262   -8.8380   -1.4271 C   0  0  0  0  0  0  0  0  0  0  0  0
    9.1970  -10.5536   -1.3947 Cl  0  0  0  0  0  0  0  0  0  0  0  0
    8.5041   -7.9284   -1.1278 C   0  0  0  0  0  0  0  0  0  0  0  0
    8.7674   -6.5623   -1.1533 C   0  0  0  0  0  0  0  0  0  0  0  0
    4.6935   -0.8441   -0.0234 C   0  0  0  0  0  0  0  0  0  0  0  0
    3.3493   -0.6653    0.2897 C   0  0  0  0  0  0  0  0  0  0  0  0
    3.2402    2.7476    0.2817 H   0  0  0  0  0  0  0  0  0  0  0  0
    5.6398    2.4163   -0.2775 H   0  0  0  0  0  0  0  0  0  0  0  0
    7.5265    1.0593   -0.6864 H   0  0  0  0  0  0  0  0  0  0  0  0
    7.1733   -1.9911   -0.6566 H   0  0  0  0  0  0  0  0  0  0  0  0
   11.0323    2.3250   -1.3691 H   0  0  0  0  0  0  0  0  0  0  0  0
   12.9240    3.9108   -1.7604 H   0  0  0  0  0  0  0  0  0  0  0  0
   15.1757    3.0334   -2.3886 H   0  0  0  0  0  0  0  0  0  0  0  0
   15.5204    0.5730   -2.6239 H   0  0  0  0  0  0  0  0  0  0  0  0
   13.6589   -0.9883   -2.2425 H   0  0  0  0  0  0  0  0  0  0  0  0
    8.4989   -3.7996   -1.0144 H   0  0  0  0  0  0  0  0  0  0  0  0
   11.4200   -4.4281   -1.7775 H   0  0  0  0  0  0  0  0  0  0  0  0
   12.0586   -6.6569   -2.0263 H   0  0  0  0  0  0  0  0  0  0  0  0
   11.5969   -9.0948   -1.9828 H   0  0  0  0  0  0  0  0  0  0  0  0
    7.5086   -8.2981   -0.8763 H   0  0  0  0  0  0  0  0  0  0  0  0
    7.9551   -5.8726   -0.9149 H   0  0  0  0  0  0  0  0  0  0  0  0
    5.0787   -1.8631   -0.1002 H   0  0  0  0  0  0  0  0  0  0  0  0
    2.6960   -1.5242    0.4532 H   0  0  0  0  0  0  0  0  0  0  0  0
  1  2  1  0
  2  3  2  0
  2 30  1  0
  3  4  1  0
  3 31  1  0
  4  5  2  0
  4 32  1  0
  5  6  1  0
  5 29  1  0
  6  7  2  0
  6 33  1  0
  7  8  1  0
  7 34  1  0
  8  9  1  0
  8 19  2  0
  9 10  2  0
 10 11  1  0
 10 17  1  0
 11 12  2  0
 11 16  1  0
 12 13  1  0
 12 35  1  0
 13 14  2  0
 13 36  1  0
 14 15  1  0
 14 37  1  0
 15 16  2  0
 15 38  1  0
 16 39  1  0
 17 18  1  0
 17 19  1  0
 19 20  1  0
 20 21  2  0
 20 40  1  0
 21 22  1  0
 21 41  1  0
 22 23  2  0
 22 28  1  0
 23 24  1  0
 23 42  1  0
 24 25  2  0
 24 43  1  0
 25 26  1  0
 25 27  1  0
 27 28  2  0
 27 44  1  0
 28 45  1  0
 29 30  2  0
 29 46  1  0
 30 47  1  0
M  END

