
     RDKit          3D

 35 35  0  0  0  0  0  0  0  0999 V2000
    1.1552    0.1762   -0.2016 C   0  0  0  0  0  0  0  0  0  0  0  0
    2.5612    0.1552    0.0412 O   0  0  0  0  0  0  0  0  0  0  0  0
    3.0207   -0.8559    0.8052 C   0  0  0  0  0  0  0  0  0  0  0  0
    2.3058   -1.7100    1.2699 O   0  0  0  0  0  0  0  0  0  0  0  0
    4.5215   -0.7642    0.9867 C   0  0  0  0  0  0  0  0  0  0  0  0
    5.0986   -1.8807    1.8531 C   0  0  0  0  0  0  0  0  0  0  0  0
    6.6150   -1.7751    2.0295 C   0  0  0  0  0  0  0  0  0  0  0  0
    7.1880   -2.8937    2.8973 C   0  0  0  0  0  0  0  0  0  0  0  0
    8.7016   -2.7955    3.0896 C   0  0  0  0  0  0  0  0  0  0  0  0
    9.3161   -1.8839    2.5666 O   0  0  0  0  0  0  0  0  0  0  0  0
    9.3946   -3.8370    3.9291 C   0  0  0  0  0  0  0  0  0  0  0  0
    8.6397   -4.8770    4.5076 C   0  0  0  0  0  0  0  0  0  0  0  0
    9.2356   -5.8614    5.2930 C   0  0  0  0  0  0  0  0  0  0  0  0
   10.6110   -5.8218    5.5159 C   0  0  0  0  0  0  0  0  0  0  0  0
   11.3531   -4.7934    4.9429 C   0  0  0  0  0  0  0  0  0  0  0  0
   12.6780   -4.7856    5.1785 F   0  0  0  0  0  0  0  0  0  0  0  0
   10.8008   -3.7802    4.1447 C   0  0  0  0  0  0  0  0  0  0  0  0
   11.7176   -2.7231    3.5834 C   0  0  0  0  0  0  0  0  0  0  0  0
    0.9655    1.0540   -0.8319 H   0  0  0  0  0  0  0  0  0  0  0  0
    0.5943    0.2569    0.7422 H   0  0  0  0  0  0  0  0  0  0  0  0
    0.8313   -0.7405   -0.7179 H   0  0  0  0  0  0  0  0  0  0  0  0
    4.7462    0.2311    1.4089 H   0  0  0  0  0  0  0  0  0  0  0  0
    4.9789   -0.7567   -0.0184 H   0  0  0  0  0  0  0  0  0  0  0  0
    4.8335   -2.8547    1.4070 H   0  0  0  0  0  0  0  0  0  0  0  0
    4.5993   -1.8659    2.8372 H   0  0  0  0  0  0  0  0  0  0  0  0
    6.8801   -0.8014    2.4748 H   0  0  0  0  0  0  0  0  0  0  0  0
    7.1153   -1.7885    1.0465 H   0  0  0  0  0  0  0  0  0  0  0  0
    6.9500   -3.8795    2.4590 H   0  0  0  0  0  0  0  0  0  0  0  0
    6.7047   -2.8941    3.8908 H   0  0  0  0  0  0  0  0  0  0  0  0
    7.5638   -4.9231    4.3434 H   0  0  0  0  0  0  0  0  0  0  0  0
    8.6311   -6.6584    5.7314 H   0  0  0  0  0  0  0  0  0  0  0  0
   11.1249   -6.5690    6.1237 H   0  0  0  0  0  0  0  0  0  0  0  0
   12.7515   -2.9069    3.8994 H   0  0  0  0  0  0  0  0  0  0  0  0
   11.4120   -1.7184    3.9093 H   0  0  0  0  0  0  0  0  0  0  0  0
   11.6728   -2.7003    2.4852 H   0  0  0  0  0  0  0  0  0  0  0  0
  1  2  1  0
  1 19  1  0
  1 20  1  0
  1 21  1  0
  2  3  1  0
  3  4  2  0
  3  5  1  0
  5  6  1  0
  5 22  1  0
  5 23  1  0
  6  7  1  0
  6 24  1  0
  6 25  1  0
  7  8  1  0
  7 26  1  0
  7 27  1  0
  8  9  1  0
  8 28  1  0
  8 29  1  0
  9 10  2  0
  9 11  1  0
 11 12  2  0
 11 17  1  0
 12 13  1  0
 12 30  1  0
 13 14  2  0
 13 31  1  0
 14 15  1  0
 14 32  1  0
 15 16  1  0
 15 17  2  0
 17 18  1  0
 18 33  1  0
 18 34  1  0
 18 35  1  0
M  END

