
     RDKit          3D

 51 54  0  0  0  0  0  0  0  0999 V2000
    6.6267   -1.3369    0.4391 C   0  0  0  0  0  0  0  0  0  0  0  0
    6.8476    0.0425    0.5953 O   0  0  0  0  0  0  0  0  0  0  0  0
    7.0072    0.8170   -0.5200 C   0  0  0  0  0  0  0  0  0  0  0  0
    6.9314    0.3448   -1.8467 C   0  0  0  0  0  0  0  0  0  0  0  0
    7.1449    1.1858   -2.9263 C   0  0  0  0  0  0  0  0  0  0  0  0
    7.4573    2.5711   -2.7409 C   0  0  0  0  0  0  0  0  0  0  0  0
    7.6949    3.3678   -3.8880 C   0  0  0  0  0  0  0  0  0  0  0  0
    7.6115    3.0045   -5.0969 O   0  0  0  0  0  0  0  0  0  0  0  0
    8.0809    4.7675   -3.6519 N   0  0  0  0  0  0  0  0  0  0  0  0
    8.2750    5.6771   -4.6075 C   0  0  0  0  0  0  0  0  0  0  0  0
    8.8314    7.3006   -4.1889 S   0  0  0  0  0  0  0  0  0  0  0  0
    8.0792    5.3272   -5.8735 N   0  0  0  0  0  0  0  0  0  0  0  0
    8.2335    6.1612   -6.9956 C   0  0  0  0  0  0  0  0  0  0  0  0
    8.8597    5.6560   -8.1443 C   0  0  0  0  0  0  0  0  0  0  0  0
    9.0273    6.4863   -9.2534 C   0  0  0  0  0  0  0  0  0  0  0  0
    8.5948    7.8151   -9.2313 C   0  0  0  0  0  0  0  0  0  0  0  0
    7.9547    8.3281   -8.0927 C   0  0  0  0  0  0  0  0  0  0  0  0
    7.4873    9.7192   -8.0961 C   0  0  0  0  0  0  0  0  0  0  0  0
    7.4513   10.4903   -9.1611 N   0  0  0  0  0  0  0  0  0  0  0  0
    6.9608   11.7025   -8.7303 C   0  0  0  0  0  0  0  0  0  0  0  0
    6.7138   12.8869   -9.4462 C   0  0  0  0  0  0  0  0  0  0  0  0
    6.2133   13.9808   -8.7474 C   0  0  0  0  0  0  0  0  0  0  0  0
    5.9565   13.9139   -7.3587 C   0  0  0  0  0  0  0  0  0  0  0  0
    6.1908   12.7509   -6.6270 C   0  0  0  0  0  0  0  0  0  0  0  0
    6.6931   11.6527   -7.3345 C   0  0  0  0  0  0  0  0  0  0  0  0
    7.0357   10.3694   -6.9612 N   0  0  0  0  0  0  0  0  0  0  0  0
    7.0363   10.0044   -6.0176 H   0  0  0  0  0  0  0  0  0  0  0  0
    7.7446    7.4791   -6.9885 C   0  0  0  0  0  0  0  0  0  0  0  0
    7.4989    3.0400   -1.3843 C   0  0  0  0  0  0  0  0  0  0  0  0
    7.2860    2.1952   -0.3081 C   0  0  0  0  0  0  0  0  0  0  0  0
    7.4020    2.7154    0.9552 O   0  0  0  0  0  0  0  0  0  0  0  0
    6.2355    2.7186    1.7603 C   0  0  0  0  0  0  0  0  0  0  0  0
    6.5528   -1.7614    1.4499 H   0  0  0  0  0  0  0  0  0  0  0  0
    7.4598   -1.8305   -0.0945 H   0  0  0  0  0  0  0  0  0  0  0  0
    5.6878   -1.5501   -0.1054 H   0  0  0  0  0  0  0  0  0  0  0  0
    6.7101   -0.7061   -2.0377 H   0  0  0  0  0  0  0  0  0  0  0  0
    7.0889    0.8007   -3.9446 H   0  0  0  0  0  0  0  0  0  0  0  0
    8.2641    5.0387   -2.6951 H   0  0  0  0  0  0  0  0  0  0  0  0
    7.8477    4.2712   -5.9063 H   0  0  0  0  0  0  0  0  0  0  0  0
    9.2237    4.6268   -8.1516 H   0  0  0  0  0  0  0  0  0  0  0  0
    9.5201    6.0948  -10.1463 H   0  0  0  0  0  0  0  0  0  0  0  0
    8.7311    8.4723  -10.0910 H   0  0  0  0  0  0  0  0  0  0  0  0
    6.9147   12.9308  -10.5184 H   0  0  0  0  0  0  0  0  0  0  0  0
    6.0125   14.9145   -9.2784 H   0  0  0  0  0  0  0  0  0  0  0  0
    5.5634   14.7957   -6.8468 H   0  0  0  0  0  0  0  0  0  0  0  0
    5.9888   12.7052   -5.5545 H   0  0  0  0  0  0  0  0  0  0  0  0
    7.1288    7.8041   -6.1488 H   0  0  0  0  0  0  0  0  0  0  0  0
    7.6906    4.0821   -1.1197 H   0  0  0  0  0  0  0  0  0  0  0  0
    6.5008    3.2247    2.7000 H   0  0  0  0  0  0  0  0  0  0  0  0
    5.8873    1.6983    1.9857 H   0  0  0  0  0  0  0  0  0  0  0  0
    5.4153    3.2800    1.2742 H   0  0  0  0  0  0  0  0  0  0  0  0
  1  2  1  0
  1 33  1  0
  1 34  1  0
  1 35  1  0
  2  3  1  0
  3  4  2  0
  3 30  1  0
  4  5  1  0
  4 36  1  0
  5  6  2  0
  5 37  1  0
  6  7  1  0
  6 29  1  0
  7  8  2  0
  7  9  1  0
  9 10  1  0
  9 38  1  0
 10 11  2  0
 10 12  1  0
 12 13  1  0
 12 39  1  0
 13 14  2  0
 13 28  1  0
 14 15  1  0
 14 40  1  0
 15 16  2  0
 15 41  1  0
 16 17  1  0
 16 42  1  0
 17 18  1  0
 17 28  2  0
 18 19  2  0
 18 26  1  0
 19 20  1  0
 20 21  2  0
 20 25  1  0
 21 22  1  0
 21 43  1  0
 22 23  2  0
 22 44  1  0
 23 24  1  0
 23 45  1  0
 24 25  2  0
 24 46  1  0
 25 26  1  0
 26 27  1  0
 28 47  1  0
 29 30  2  0
 29 48  1  0
 30 31  1  0
 31 32  1  0
 32 49  1  0
 32 50  1  0
 32 51  1  0
M  END

