
     RDKit          3D

 52 54  0  0  0  0  0  0  0  0999 V2000
   -1.1922   -2.2830    1.4997 C   0  0  0  0  0  0  0  0  0  0  0  0
    0.0568   -1.7066    1.1703 O   0  0  0  0  0  0  0  0  0  0  0  0
    0.2625   -1.5489   -0.2224 C   0  0  0  0  0  0  0  0  0  0  0  0
   -0.5771   -1.9839   -1.0083 O   0  0  0  0  0  0  0  0  0  0  0  0
    1.4811   -0.8680   -0.5382 C   0  0  0  0  0  0  0  0  0  0  0  0
    1.8077   -0.5295   -1.8934 C   0  0  0  0  0  0  0  0  0  0  0  0
    2.9745    0.1556   -2.0754 C   0  0  0  0  0  0  0  0  0  0  0  0
    3.5666    0.6778   -3.3470 C   0  0  0  0  0  0  0  0  0  0  0  0
    3.7903    0.4753   -0.5314 S   0  0  0  0  0  0  0  0  0  0  0  0
    2.4804   -0.3454    0.3478 C   0  0  0  0  0  0  0  0  0  0  0  0
    2.6874   -0.8032    1.6924 N   0  0  0  0  0  0  0  0  0  0  0  0
    3.2906   -1.9029    2.1103 C   0  0  0  0  0  0  0  0  0  0  0  0
    4.3933   -2.7564    1.0452 S   0  0  0  0  0  0  0  0  0  0  0  0
    3.0785   -2.3935    3.3396 N   0  0  0  0  0  0  0  0  0  0  0  0
    1.8891   -2.0528    4.1342 C   0  0  0  0  0  0  0  0  0  0  0  0
    1.2259   -3.3370    4.6306 C   0  0  0  0  0  0  0  0  0  0  0  0
    2.1610   -4.2009    5.3487 N   0  0  0  0  0  0  0  0  0  0  0  0
    1.4955   -5.2450    6.0818 C   0  0  0  0  0  0  0  0  0  0  0  0
    1.1024   -6.4530    5.4887 C   0  0  0  0  0  0  0  0  0  0  0  0
    0.4358   -7.4273    6.2379 C   0  0  0  0  0  0  0  0  0  0  0  0
    0.1277   -7.2228    7.5907 C   0  0  0  0  0  0  0  0  0  0  0  0
   -0.5979   -8.2685    8.4019 C   0  0  0  0  0  0  0  0  0  0  0  0
    0.5182   -6.0050    8.1735 C   0  0  0  0  0  0  0  0  0  0  0  0
    1.1959   -5.0348    7.4357 C   0  0  0  0  0  0  0  0  0  0  0  0
    3.3091   -4.5860    4.5206 C   0  0  2  0  0  0  0  0  0  0  0  0
    2.9841   -5.1432    3.6125 H   0  0  0  0  0  0  0  0  0  0  0  0
    4.3225   -5.4321    5.2905 C   0  0  0  0  0  0  0  0  0  0  0  0
    3.9958   -3.2995    4.0410 C   0  0  0  0  0  0  0  0  0  0  0  0
   -1.2412   -2.3378    2.5985 H   0  0  0  0  0  0  0  0  0  0  0  0
   -1.3059   -3.2935    1.0737 H   0  0  0  0  0  0  0  0  0  0  0  0
   -2.0346   -1.6760    1.1284 H   0  0  0  0  0  0  0  0  0  0  0  0
    1.1443   -0.8022   -2.7163 H   0  0  0  0  0  0  0  0  0  0  0  0
    2.9258    0.4032   -4.1986 H   0  0  0  0  0  0  0  0  0  0  0  0
    4.5752    0.2694   -3.5375 H   0  0  0  0  0  0  0  0  0  0  0  0
    3.6627    1.7786   -3.3391 H   0  0  0  0  0  0  0  0  0  0  0  0
    2.1400   -0.3314    2.4065 H   0  0  0  0  0  0  0  0  0  0  0  0
    1.1689   -1.5167    3.5052 H   0  0  0  0  0  0  0  0  0  0  0  0
    2.1919   -1.4190    4.9850 H   0  0  0  0  0  0  0  0  0  0  0  0
    0.7727   -3.8536    3.7571 H   0  0  0  0  0  0  0  0  0  0  0  0
    0.4037   -3.0618    5.3071 H   0  0  0  0  0  0  0  0  0  0  0  0
    1.3162   -6.6408    4.4335 H   0  0  0  0  0  0  0  0  0  0  0  0
    0.1437   -8.3646    5.7561 H   0  0  0  0  0  0  0  0  0  0  0  0
   -0.8135   -9.1669    7.8053 H   0  0  0  0  0  0  0  0  0  0  0  0
   -1.5569   -7.8821    8.7859 H   0  0  0  0  0  0  0  0  0  0  0  0
   -0.0041   -8.5797    9.2775 H   0  0  0  0  0  0  0  0  0  0  0  0
    0.2963   -5.8179    9.2284 H   0  0  0  0  0  0  0  0  0  0  0  0
    1.5099   -4.0976    7.9013 H   0  0  0  0  0  0  0  0  0  0  0  0
    3.8919   -6.3923    5.6022 H   0  0  0  0  0  0  0  0  0  0  0  0
    4.6588   -4.9017    6.1952 H   0  0  0  0  0  0  0  0  0  0  0  0
    5.2003   -5.6448    4.6606 H   0  0  0  0  0  0  0  0  0  0  0  0
    4.8481   -3.5351    3.3929 H   0  0  0  0  0  0  0  0  0  0  0  0
    4.3806   -2.7619    4.9254 H   0  0  0  0  0  0  0  0  0  0  0  0
  1  2  1  0
  1 29  1  0
  1 30  1  0
  1 31  1  0
  2  3  1  0
  3  4  2  0
  3  5  1  0
  5  6  1  0
  5 10  2  0
  6  7  2  0
  6 32  1  0
  7  8  1  0
  7  9  1  0
  8 33  1  0
  8 34  1  0
  8 35  1  0
  9 10  1  0
 10 11  1  0
 11 12  1  0
 11 36  1  0
 12 13  2  0
 12 14  1  0
 14 15  1  0
 14 28  1  0
 15 16  1  0
 15 37  1  0
 15 38  1  0
 16 17  1  0
 16 39  1  0
 16 40  1  0
 17 18  1  0
 17 25  1  0
 18 19  2  0
 18 24  1  0
 19 20  1  0
 19 41  1  0
 20 21  2  0
 20 42  1  0
 21 22  1  0
 21 23  1  0
 22 43  1  0
 22 44  1  0
 22 45  1  0
 23 24  2  0
 23 46  1  0
 24 47  1  0
 25 26  1  6
 25 27  1  0
 25 28  1  0
 27 48  1  0
 27 49  1  0
 27 50  1  0
 28 51  1  0
 28 52  1  0
M  END

