
     RDKit          3D

 38 40  0  0  0  0  0  0  0  0999 V2000
    0.9703   -0.1819    0.3109 C   0  0  0  0  0  0  0  0  0  0  0  0
    2.4514   -0.1332    0.0280 C   0  0  0  0  0  0  0  0  0  0  0  0
    3.2036    1.0303    0.2346 C   0  0  0  0  0  0  0  0  0  0  0  0
    4.5734    1.0405   -0.0149 C   0  0  0  0  0  0  0  0  0  0  0  0
    5.2490   -0.0995   -0.4933 C   0  0  0  0  0  0  0  0  0  0  0  0
    6.6815    0.0258   -0.7604 C   0  0  0  0  0  0  0  0  0  0  0  0
    7.4690    1.1038   -1.0737 C   0  0  0  0  0  0  0  0  0  0  0  0
    8.8282    0.6210   -1.1679 C   0  0  0  0  0  0  0  0  0  0  0  0
    9.9875    1.2600   -1.4550 N   0  0  0  0  0  0  0  0  0  0  0  0
   10.1799    2.4660   -1.7167 N   0  0  0  0  0  0  0  0  0  0  0  0
   11.2802    3.1929   -1.9923 C   0  0  0  0  0  0  0  0  0  0  0  0
   11.1500    4.5891   -2.2487 C   0  0  0  0  0  0  0  0  0  0  0  0
   12.2743    5.3488   -2.5355 C   0  0  0  0  0  0  0  0  0  0  0  0
   13.5530    4.7670   -2.5797 C   0  0  0  0  0  0  0  0  0  0  0  0
   13.6848    3.3925   -2.3280 C   0  0  0  0  0  0  0  0  0  0  0  0
   12.5815    2.6021   -2.0376 C   0  0  0  0  0  0  0  0  0  0  0  0
    8.7419   -0.7431   -0.9043 C   0  0  0  0  0  0  0  0  0  0  0  0
    9.6518   -1.7154   -0.8557 O   0  0  0  0  0  0  0  0  0  0  0  0
    7.4798   -1.1041   -0.6637 O   0  0  0  0  0  0  0  0  0  0  0  0
    4.5016   -1.2888   -0.7177 C   0  0  0  0  0  0  0  0  0  0  0  0
    5.1201   -2.5587   -1.2534 C   0  0  0  0  0  0  0  0  0  0  0  0
    3.1279   -1.2676   -0.4458 C   0  0  0  0  0  0  0  0  0  0  0  0
    0.5731    0.8129    0.5616 H   0  0  0  0  0  0  0  0  0  0  0  0
    0.7464   -0.8540    1.1572 H   0  0  0  0  0  0  0  0  0  0  0  0
    0.4072   -0.5627   -0.5571 H   0  0  0  0  0  0  0  0  0  0  0  0
    2.7169    1.9355    0.6082 H   0  0  0  0  0  0  0  0  0  0  0  0
    5.1445    1.9498    0.1846 H   0  0  0  0  0  0  0  0  0  0  0  0
    7.1424    2.1260   -1.2417 H   0  0  0  0  0  0  0  0  0  0  0  0
   10.1578    5.0424   -2.2150 H   0  0  0  0  0  0  0  0  0  0  0  0
   12.1570    6.4185   -2.7297 H   0  0  0  0  0  0  0  0  0  0  0  0
   14.4309    5.3750   -2.8067 H   0  0  0  0  0  0  0  0  0  0  0  0
   14.6740    2.9266   -2.3588 H   0  0  0  0  0  0  0  0  0  0  0  0
   12.6836    1.5337   -1.8417 H   0  0  0  0  0  0  0  0  0  0  0  0
   10.5196   -1.3293   -1.0462 H   0  0  0  0  0  0  0  0  0  0  0  0
    5.7253   -2.3704   -2.1538 H   0  0  0  0  0  0  0  0  0  0  0  0
    4.3387   -3.2879   -1.5122 H   0  0  0  0  0  0  0  0  0  0  0  0
    5.7949   -3.0262   -0.5198 H   0  0  0  0  0  0  0  0  0  0  0  0
    2.5550   -2.1833   -0.6241 H   0  0  0  0  0  0  0  0  0  0  0  0
  1  2  1  0
  1 23  1  0
  1 24  1  0
  1 25  1  0
  2  3  2  0
  2 22  1  0
  3  4  1  0
  3 26  1  0
  4  5  2  0
  4 27  1  0
  5  6  1  0
  5 20  1  0
  6  7  2  0
  6 19  1  0
  7  8  1  0
  7 28  1  0
  8  9  1  0
  8 17  2  0
  9 10  2  0
 10 11  1  0
 11 12  2  0
 11 16  1  0
 12 13  1  0
 12 29  1  0
 13 14  2  0
 13 30  1  0
 14 15  1  0
 14 31  1  0
 15 16  2  0
 15 32  1  0
 16 33  1  0
 17 18  1  0
 17 19  1  0
 18 34  1  0
 20 21  1  0
 20 22  2  0
 21 35  1  0
 21 36  1  0
 21 37  1  0
 22 38  1  0
M  END

