
     RDKit          3D

 68 72  0  0  0  0  0  0  0  0999 V2000
    6.7284    2.2765    3.4492 C   0  0  0  0  0  0  0  0  0  0  0  0
    6.8344    1.0626    2.1032 S   0  0  0  0  0  0  0  0  0  0  0  0
    6.2812    2.0031    0.7726 C   0  0  0  0  0  0  0  0  0  0  0  0
    5.8953    3.2965    0.8355 N   0  0  0  0  0  0  0  0  0  0  0  0
    5.5425    3.6343   -0.3985 C   0  0  0  0  0  0  0  0  0  0  0  0
    5.6855    2.5931   -1.2811 N   0  0  0  0  0  0  0  0  0  0  0  0
    5.4525    2.3489   -2.6581 C   0  0  0  0  0  0  0  0  0  0  0  0
    5.8120    1.0764   -3.0434 C   0  0  0  0  0  0  0  0  0  0  0  0
    5.8515    0.4609   -4.3385 C   0  0  0  0  0  0  0  0  0  0  0  0
    5.7002    1.1529   -5.5858 C   0  0  0  0  0  0  0  0  0  0  0  0
    5.2628    2.4860   -5.9869 C   0  0  0  0  0  0  0  0  0  0  0  0
    5.0441    3.4235   -5.2248 O   0  0  0  0  0  0  0  0  0  0  0  0
    5.1104    2.7010   -7.3154 O   0  0  0  0  0  0  0  0  0  0  0  0
    6.0362    0.2160   -6.5835 N   0  0  0  0  0  0  0  0  0  0  0  0
    5.6020   -0.3063   -7.7713 C   0  0  0  0  0  0  0  0  0  0  0  0
    5.0054    0.2089   -8.7018 O   0  0  0  0  0  0  0  0  0  0  0  0
    6.1419   -1.7094   -7.4115 C   0  0  2  0  0  0  0  0  0  0  0  0
    7.0602   -1.9644   -7.9684 H   0  0  0  0  0  0  0  0  0  0  0  0
    5.1719   -2.8766   -7.5480 C   0  0  1  0  0  0  0  0  0  0  0  0
    4.1792   -2.5735   -7.1691 H   0  0  0  0  0  0  0  0  0  0  0  0
    5.0158   -3.2822   -9.0122 C   0  0  0  0  0  0  0  0  0  0  0  0
    5.6965   -3.9341   -6.7501 O   0  0  0  0  0  0  0  0  0  0  0  0
    6.5268   -1.0364   -6.0383 C   0  0  2  0  0  0  0  0  0  0  0  0
    7.6228   -1.0179   -5.8986 H   0  0  0  0  0  0  0  0  0  0  0  0
    5.8754   -1.0869   -4.6256 C   0  0  1  0  0  0  0  0  0  0  0  0
    6.7570   -1.9831   -3.7374 C   0  0  0  0  0  0  0  0  0  0  0  0
    4.4256   -1.6478   -4.6665 C   0  0  0  0  0  0  0  0  0  0  0  0
    3.6184   -1.4732   -3.3836 C   0  0  0  0  0  0  0  0  0  0  0  0
    2.4029   -2.2469   -3.4425 O   0  0  0  0  0  0  0  0  0  0  0  0
    1.3360   -1.6581   -3.9871 C   0  0  0  0  0  0  0  0  0  0  0  0
    1.2850   -0.5385   -4.4219 O   0  0  0  0  0  0  0  0  0  0  0  0
    0.3322   -2.5580   -3.9514 O   0  0  0  0  0  0  0  0  0  0  0  0
   -0.9452   -2.2790   -4.4321 C   0  0  0  0  0  0  0  0  0  0  0  0
   -1.5643   -1.0381   -4.2888 C   0  0  0  0  0  0  0  0  0  0  0  0
   -2.8748   -0.8729   -4.7459 C   0  0  0  0  0  0  0  0  0  0  0  0
   -3.5775   -1.9285   -5.3399 C   0  0  0  0  0  0  0  0  0  0  0  0
   -4.9831   -1.7464   -5.8599 C   0  0  0  0  0  0  0  0  0  0  0  0
   -2.9249   -3.1664   -5.4572 C   0  0  0  0  0  0  0  0  0  0  0  0
   -1.6129   -3.3711   -5.0153 C   0  0  0  0  0  0  0  0  0  0  0  0
   -0.9290   -4.7079   -5.1438 C   0  0  0  0  0  0  0  0  0  0  0  0
    6.3933    0.1645   -1.5696 S   0  0  0  0  0  0  0  0  0  0  0  0
    6.1577    1.5340   -0.5839 C   0  0  0  0  0  0  0  0  0  0  0  0
    7.0692    1.7574    4.3539 H   0  0  0  0  0  0  0  0  0  0  0  0
    5.6904    2.6155    3.5590 H   0  0  0  0  0  0  0  0  0  0  0  0
    7.3727    3.1356    3.2228 H   0  0  0  0  0  0  0  0  0  0  0  0
    5.1820    4.6137   -0.7094 H   0  0  0  0  0  0  0  0  0  0  0  0
    5.1083    3.1238   -3.3439 H   0  0  0  0  0  0  0  0  0  0  0  0
    5.0576    1.8924   -7.8678 H   0  0  0  0  0  0  0  0  0  0  0  0
    4.2815   -4.0989   -9.1163 H   0  0  0  0  0  0  0  0  0  0  0  0
    5.9787   -3.6282   -9.4209 H   0  0  0  0  0  0  0  0  0  0  0  0
    4.6635   -2.4281   -9.6112 H   0  0  0  0  0  0  0  0  0  0  0  0
    5.1224   -4.7047   -6.8542 H   0  0  0  0  0  0  0  0  0  0  0  0
    7.7608   -1.5534   -3.5958 H   0  0  0  0  0  0  0  0  0  0  0  0
    6.8736   -2.9572   -4.2388 H   0  0  0  0  0  0  0  0  0  0  0  0
    6.3262   -2.1900   -2.7477 H   0  0  0  0  0  0  0  0  0  0  0  0
    4.4733   -2.7229   -4.8996 H   0  0  0  0  0  0  0  0  0  0  0  0
    3.8645   -1.1485   -5.4715 H   0  0  0  0  0  0  0  0  0  0  0  0
    3.3665   -0.4189   -3.2072 H   0  0  0  0  0  0  0  0  0  0  0  0
    4.1452   -1.8737   -2.5070 H   0  0  0  0  0  0  0  0  0  0  0  0
   -1.0265   -0.2055   -3.8394 H   0  0  0  0  0  0  0  0  0  0  0  0
   -3.3544    0.1035   -4.6350 H   0  0  0  0  0  0  0  0  0  0  0  0
   -5.4368   -0.8183   -5.4814 H   0  0  0  0  0  0  0  0  0  0  0  0
   -5.6345   -2.5863   -5.5689 H   0  0  0  0  0  0  0  0  0  0  0  0
   -4.9974   -1.6947   -6.9626 H   0  0  0  0  0  0  0  0  0  0  0  0
   -3.4561   -4.0085   -5.9120 H   0  0  0  0  0  0  0  0  0  0  0  0
   -1.5856   -5.4406   -5.6344 H   0  0  0  0  0  0  0  0  0  0  0  0
   -0.6387   -5.1066   -4.1580 H   0  0  0  0  0  0  0  0  0  0  0  0
    0.0001   -4.6281   -5.7315 H   0  0  0  0  0  0  0  0  0  0  0  0
  1  2  1  0
  1 43  1  0
  1 44  1  0
  1 45  1  0
  2  3  1  0
  3  4  1  0
  3 42  2  0
  4  5  2  0
  5  6  1  0
  5 46  1  0
  6  7  1  0
  6 42  1  0
  7  8  2  0
  7 47  1  0
  8  9  1  0
  8 41  1  0
  9 10  2  0
  9 25  1  0
 10 11  1  0
 10 14  1  0
 11 12  2  0
 11 13  1  0
 13 48  1  0
 14 15  1  0
 14 23  1  0
 15 16  2  0
 15 17  1  0
 17 18  1  6
 17 19  1  0
 17 23  1  0
 19 20  1  1
 19 21  1  0
 19 22  1  0
 21 49  1  0
 21 50  1  0
 21 51  1  0
 22 52  1  0
 23 24  1  1
 23 25  1  0
 25 26  1  1
 25 27  1  0
 26 53  1  0
 26 54  1  0
 26 55  1  0
 27 28  1  0
 27 56  1  0
 27 57  1  0
 28 29  1  0
 28 58  1  0
 28 59  1  0
 29 30  1  0
 30 31  2  0
 30 32  1  0
 32 33  1  0
 33 34  2  0
 33 39  1  0
 34 35  1  0
 34 60  1  0
 35 36  2  0
 35 61  1  0
 36 37  1  0
 36 38  1  0
 37 62  1  0
 37 63  1  0
 37 64  1  0
 38 39  2  0
 38 65  1  0
 39 40  1  0
 40 66  1  0
 40 67  1  0
 40 68  1  0
 41 42  1  0
M  END

