
     RDKit          3D

 59 63  0  0  0  0  0  0  0  0999 V2000
    0.9208   -0.1255    0.4207 C   0  0  0  0  0  0  0  0  0  0  0  0
    2.4167   -0.1728    0.3483 C   0  0  0  0  0  0  0  0  0  0  0  0
    3.2383   -1.2821    0.3245 C   0  0  0  0  0  0  0  0  0  0  0  0
    2.8860   -2.7338    0.3650 C   0  0  0  0  0  0  0  0  0  0  0  0
    4.5782   -0.8741    0.2664 N   0  0  0  0  0  0  0  0  0  0  0  0
    5.7282   -1.7501    0.1972 C   0  0  0  0  0  0  0  0  0  0  0  0
    6.1212   -2.2198   -1.1988 C   0  0  0  0  0  0  0  0  0  0  0  0
    5.6042   -1.6286   -2.3585 C   0  0  0  0  0  0  0  0  0  0  0  0
    6.0120   -2.0705   -3.6224 C   0  0  0  0  0  0  0  0  0  0  0  0
    6.9414   -3.1060   -3.7422 C   0  0  0  0  0  0  0  0  0  0  0  0
    7.4615   -3.7027   -2.5884 C   0  0  0  0  0  0  0  0  0  0  0  0
    7.0520   -3.2631   -1.3283 C   0  0  0  0  0  0  0  0  0  0  0  0
    4.6223    0.5042    0.2419 C   0  0  0  0  0  0  0  0  0  0  0  0
    5.7114    1.3841    0.1629 C   0  0  0  0  0  0  0  0  0  0  0  0
    5.4464    2.7507    0.1692 C   0  0  0  0  0  0  0  0  0  0  0  0
    4.1220    3.2516    0.2454 C   0  0  0  0  0  0  0  0  0  0  0  0
    3.7930    4.7173    0.2483 C   0  0  0  0  0  0  0  0  0  0  0  0
    2.6846    5.1382   -0.0210 O   0  0  0  0  0  0  0  0  0  0  0  0
    4.8516    5.5497    0.6023 N   0  0  0  0  0  0  0  0  0  0  0  0
    4.7976    6.9356    0.7129 C   0  0  0  0  0  0  0  0  0  0  0  0
    4.0505    7.7187   -0.0560 N   0  0  0  0  0  0  0  0  0  0  0  0
    4.2870    8.9744    0.3656 N   0  0  0  0  0  0  0  0  0  0  0  0
    3.4795   10.0591   -0.1752 C   0  0  0  0  0  0  0  0  0  0  0  0
    2.1187   10.2075    0.4854 C   0  0  0  0  0  0  0  0  0  0  0  0
    1.6975   11.4593    0.9542 C   0  0  0  0  0  0  0  0  0  0  0  0
    0.4355   11.6158    1.5369 C   0  0  0  0  0  0  0  0  0  0  0  0
   -0.4157   10.5153    1.6612 C   0  0  0  0  0  0  0  0  0  0  0  0
    0.0004    9.2614    1.1995 C   0  0  0  0  0  0  0  0  0  0  0  0
    1.2574    9.1040    0.6112 C   0  0  0  0  0  0  0  0  0  0  0  0
    5.1800    9.0268    1.3873 C   0  0  0  0  0  0  0  0  0  0  0  0
    5.5440    7.7152    1.6400 C   0  0  0  0  0  0  0  0  0  0  0  0
    6.6765    7.1165    2.8040 Cl  0  0  0  0  0  0  0  0  0  0  0  0
    3.0430    2.3618    0.2928 C   0  0  0  0  0  0  0  0  0  0  0  0
    3.2811    0.9814    0.2977 C   0  0  0  0  0  0  0  0  0  0  0  0
    0.4727   -1.1298    0.4211 H   0  0  0  0  0  0  0  0  0  0  0  0
    0.4937    0.4270   -0.4337 H   0  0  0  0  0  0  0  0  0  0  0  0
    0.5767    0.3895    1.3344 H   0  0  0  0  0  0  0  0  0  0  0  0
    1.7959   -2.8622    0.3526 H   0  0  0  0  0  0  0  0  0  0  0  0
    3.2649   -3.2263    1.2780 H   0  0  0  0  0  0  0  0  0  0  0  0
    3.2995   -3.2825   -0.4978 H   0  0  0  0  0  0  0  0  0  0  0  0
    5.5467   -2.6276    0.8374 H   0  0  0  0  0  0  0  0  0  0  0  0
    6.5796   -1.2214    0.6572 H   0  0  0  0  0  0  0  0  0  0  0  0
    4.8778   -0.8174   -2.2759 H   0  0  0  0  0  0  0  0  0  0  0  0
    5.5986   -1.5988   -4.5175 H   0  0  0  0  0  0  0  0  0  0  0  0
    7.2586   -3.4501   -4.7299 H   0  0  0  0  0  0  0  0  0  0  0  0
    8.1862   -4.5169   -2.6709 H   0  0  0  0  0  0  0  0  0  0  0  0
    7.4609   -3.7386   -0.4310 H   0  0  0  0  0  0  0  0  0  0  0  0
    6.7379    1.0224    0.0770 H   0  0  0  0  0  0  0  0  0  0  0  0
    6.2874    3.4408    0.0687 H   0  0  0  0  0  0  0  0  0  0  0  0
    5.6409    5.1204    1.0708 H   0  0  0  0  0  0  0  0  0  0  0  0
    3.3659    9.8479   -1.2499 H   0  0  0  0  0  0  0  0  0  0  0  0
    4.0550   10.9909   -0.0760 H   0  0  0  0  0  0  0  0  0  0  0  0
    2.3620   12.3243    0.8632 H   0  0  0  0  0  0  0  0  0  0  0  0
    0.1210   12.5986    1.8978 H   0  0  0  0  0  0  0  0  0  0  0  0
   -1.4015   10.6329    2.1188 H   0  0  0  0  0  0  0  0  0  0  0  0
   -0.6602    8.3959    1.2959 H   0  0  0  0  0  0  0  0  0  0  0  0
    1.5816    8.1210    0.2587 H   0  0  0  0  0  0  0  0  0  0  0  0
    5.4863    9.9566    1.8597 H   0  0  0  0  0  0  0  0  0  0  0  0
    2.0319    2.7724    0.3251 H   0  0  0  0  0  0  0  0  0  0  0  0
  1  2  1  0
  1 35  1  0
  1 36  1  0
  1 37  1  0
  2  3  2  0
  2 34  1  0
  3  4  1  0
  3  5  1  0
  4 38  1  0
  4 39  1  0
  4 40  1  0
  5  6  1  0
  5 13  1  0
  6  7  1  0
  6 41  1  0
  6 42  1  0
  7  8  2  0
  7 12  1  0
  8  9  1  0
  8 43  1  0
  9 10  2  0
  9 44  1  0
 10 11  1  0
 10 45  1  0
 11 12  2  0
 11 46  1  0
 12 47  1  0
 13 14  1  0
 13 34  2  0
 14 15  2  0
 14 48  1  0
 15 16  1  0
 15 49  1  0
 16 17  1  0
 16 33  2  0
 17 18  2  0
 17 19  1  0
 19 20  1  0
 19 50  1  0
 20 21  2  0
 20 31  1  0
 21 22  1  0
 22 23  1  0
 22 30  1  0
 23 24  1  0
 23 51  1  0
 23 52  1  0
 24 25  2  0
 24 29  1  0
 25 26  1  0
 25 53  1  0
 26 27  2  0
 26 54  1  0
 27 28  1  0
 27 55  1  0
 28 29  2  0
 28 56  1  0
 29 57  1  0
 30 31  2  0
 30 58  1  0
 31 32  1  0
 33 34  1  0
 33 59  1  0
M  END

