
     RDKit          3D

 44 45  0  0  0  0  0  0  0  0999 V2000
    1.1062    8.0236    4.1837 C   0  0  0  0  0  0  0  0  0  0  0  0
    1.0683    6.9396    3.2739 O   0  0  0  0  0  0  0  0  0  0  0  0
    2.1915    6.4736    2.6931 C   0  0  0  0  0  0  0  0  0  0  0  0
    3.4713    7.0506    2.9127 C   0  0  0  0  0  0  0  0  0  0  0  0
    4.5958    6.4709    2.2451 C   0  0  0  0  0  0  0  0  0  0  0  0
    4.4003    5.3683    1.3563 C   0  0  0  0  0  0  0  0  0  0  0  0
    5.5653    4.8238    0.5866 C   0  0  0  0  0  0  0  0  0  0  0  0
    6.7671    4.7155    1.3953 N   0  0  0  0  0  0  0  0  0  0  0  0
    7.9950    5.1032    0.9512 C   0  0  0  0  0  0  0  0  0  0  0  0
    8.1955    5.5540   -0.1636 O   0  0  0  0  0  0  0  0  0  0  0  0
    9.1343    5.0147    1.9763 C   0  0  0  0  0  0  0  0  0  0  0  0
    9.0280    3.9143    2.9385 N   0  0  0  0  0  0  0  0  0  0  0  0
    9.1533    2.6321    2.2394 C   0  0  1  0  0  0  0  0  0  0  0  0
   10.4542    2.1263    1.6577 C   0  0  0  0  0  0  0  0  0  0  0  0
    9.7991    1.4000    2.8087 C   0  0  0  0  0  0  0  0  0  0  0  0
    9.8375    4.0314    4.1694 C   0  0  1  0  0  0  0  0  0  0  0  0
    9.9625    5.4592    4.7188 C   0  0  0  0  0  0  0  0  0  0  0  0
    9.2067    3.1731    5.2892 C   0  0  0  0  0  0  0  0  0  0  0  0
    9.8309    2.7843    6.2400 O   0  0  0  0  0  0  0  0  0  0  0  0
    7.8953    2.9628    5.1358 O   0  0  0  0  0  0  0  0  0  0  0  0
    3.1148    4.8022    1.1622 C   0  0  0  0  0  0  0  0  0  0  0  0
    1.9847    5.3583    1.8298 C   0  0  0  0  0  0  0  0  0  0  0  0
    0.0753    8.1756    4.5273 H   0  0  0  0  0  0  0  0  0  0  0  0
    1.4691    8.9408    3.6903 H   0  0  0  0  0  0  0  0  0  0  0  0
    1.7557    7.7954    5.0447 H   0  0  0  0  0  0  0  0  0  0  0  0
    3.5966    7.9362    3.5330 H   0  0  0  0  0  0  0  0  0  0  0  0
    5.5858    6.9146    2.3510 H   0  0  0  0  0  0  0  0  0  0  0  0
    5.8348    5.4841   -0.2618 H   0  0  0  0  0  0  0  0  0  0  0  0
    5.2993    3.8459    0.1452 H   0  0  0  0  0  0  0  0  0  0  0  0
    6.6840    4.3952    2.3535 H   0  0  0  0  0  0  0  0  0  0  0  0
    9.1187    5.9756    2.5088 H   0  0  0  0  0  0  0  0  0  0  0  0
   10.0675    4.9795    1.3854 H   0  0  0  0  0  0  0  0  0  0  0  0
    8.2698    2.4414    1.6221 H   0  0  0  0  0  0  0  0  0  0  0  0
   11.3686    2.6836    1.8836 H   0  0  0  0  0  0  0  0  0  0  0  0
   10.4379    1.6838    0.6580 H   0  0  0  0  0  0  0  0  0  0  0  0
   10.2990    1.4394    3.7790 H   0  0  0  0  0  0  0  0  0  0  0  0
    9.2963    0.4474    2.6203 H   0  0  0  0  0  0  0  0  0  0  0  0
   10.8636    3.6449    4.0305 H   0  0  0  0  0  0  0  0  0  0  0  0
    8.9742    5.9245    4.8619 H   0  0  0  0  0  0  0  0  0  0  0  0
   10.5711    6.1039    4.0690 H   0  0  0  0  0  0  0  0  0  0  0  0
   10.4597    5.4052    5.6974 H   0  0  0  0  0  0  0  0  0  0  0  0
    7.6814    3.3447    4.2573 H   0  0  0  0  0  0  0  0  0  0  0  0
    2.9977    3.9383    0.5056 H   0  0  0  0  0  0  0  0  0  0  0  0
    0.9766    4.9626    1.7132 H   0  0  0  0  0  0  0  0  0  0  0  0
  1  2  1  0
  1 23  1  0
  1 24  1  0
  1 25  1  0
  2  3  1  0
  3  4  2  0
  3 22  1  0
  4  5  1  0
  4 26  1  0
  5  6  2  0
  5 27  1  0
  6  7  1  0
  6 21  1  0
  7  8  1  0
  7 28  1  0
  7 29  1  0
  8  9  1  0
  8 30  1  0
  9 10  2  0
  9 11  1  0
 11 12  1  0
 11 31  1  0
 11 32  1  0
 12 13  1  0
 12 16  1  0
 13 14  1  0
 13 15  1  0
 13 33  1  6
 14 15  1  0
 14 34  1  0
 14 35  1  0
 15 36  1  0
 15 37  1  0
 16 17  1  0
 16 18  1  0
 16 38  1  6
 17 39  1  0
 17 40  1  0
 17 41  1  0
 18 19  2  0
 18 20  1  0
 20 42  1  0
 21 22  2  0
 21 43  1  0
 22 44  1  0
M  END

