
     RDKit          3D

 67 70  0  0  0  0  0  0  0  0999 V2000
    7.0172    3.5226   -5.3514 C   0  0  0  0  0  0  0  0  0  0  0  0
    7.7848    2.8491   -4.2302 C   0  0  0  0  0  0  0  0  0  0  0  0
    7.0036    2.9339   -3.0483 O   0  0  0  0  0  0  0  0  0  0  0  0
    7.4729    2.4078   -1.8896 C   0  0  0  0  0  0  0  0  0  0  0  0
    8.7101    1.7574   -1.7505 C   0  0  0  0  0  0  0  0  0  0  0  0
    9.0954    1.2517   -0.5045 C   0  0  0  0  0  0  0  0  0  0  0  0
    8.2735    1.3730    0.6229 C   0  0  0  0  0  0  0  0  0  0  0  0
    8.7216    0.8454    1.9794 C   0  0  0  0  0  0  0  0  0  0  0  0
    9.2964   -0.5417    1.9567 C   0  0  0  0  0  0  0  0  0  0  0  0
   10.5828   -0.7933    2.0265 N   0  0  0  0  0  0  0  0  0  0  0  0
   10.6965   -2.1684    1.9593 C   0  0  0  0  0  0  0  0  0  0  0  0
   11.8371   -2.9815    2.0024 C   0  0  0  0  0  0  0  0  0  0  0  0
   11.6757   -4.3692    1.9196 C   0  0  0  0  0  0  0  0  0  0  0  0
   12.8458   -5.3161    1.8323 C   0  0  0  0  0  0  0  0  0  0  0  0
   12.8309   -6.2221    1.0089 O   0  0  0  0  0  0  0  0  0  0  0  0
   13.9303   -5.1073    2.6624 N   0  0  0  0  0  0  0  0  0  0  0  0
   15.1249   -5.9264    2.4604 C   0  0  0  0  0  0  0  0  0  0  0  0
   16.3905   -5.0747    2.6031 C   0  0  0  0  0  0  0  0  0  0  0  0
   16.4160   -4.3279    3.9426 C   0  0  0  0  0  0  0  0  0  0  0  0
   15.1197   -3.5344    4.1508 C   0  0  0  0  0  0  0  0  0  0  0  0
   13.8921   -4.4306    3.9579 C   0  0  0  0  0  0  0  0  0  0  0  0
   10.3822   -4.9296    1.7750 C   0  0  0  0  0  0  0  0  0  0  0  0
    9.2355   -4.1414    1.7470 C   0  0  0  0  0  0  0  0  0  0  0  0
    9.4112   -2.7542    1.8389 C   0  0  0  0  0  0  0  0  0  0  0  0
    8.5245   -1.6913    1.8412 N   0  0  0  0  0  0  0  0  0  0  0  0
    7.0797   -1.7977    1.6879 C   0  0  0  0  0  0  0  0  0  0  0  0
    6.6337   -2.0147    0.2355 C   0  0  0  0  0  0  0  0  0  0  0  0
    5.1270   -2.2842    0.0642 C   0  0  1  0  0  0  0  0  0  0  0  0
    4.2550   -1.1091    0.5295 C   0  0  0  0  0  0  0  0  0  0  0  0
    4.8165   -2.6471   -1.3938 C   0  0  0  0  0  0  0  0  0  0  0  0
    7.0401    2.0269    0.4678 C   0  0  0  0  0  0  0  0  0  0  0  0
    6.6406    2.5382   -0.7645 C   0  0  0  0  0  0  0  0  0  0  0  0
    7.5936    3.4775   -6.2883 H   0  0  0  0  0  0  0  0  0  0  0  0
    6.8247    4.5792   -5.1106 H   0  0  0  0  0  0  0  0  0  0  0  0
    6.0487    3.0250   -5.5136 H   0  0  0  0  0  0  0  0  0  0  0  0
    8.7627    3.3428   -4.0733 H   0  0  0  0  0  0  0  0  0  0  0  0
    7.9868    1.7889   -4.4750 H   0  0  0  0  0  0  0  0  0  0  0  0
    9.3819    1.6400   -2.6010 H   0  0  0  0  0  0  0  0  0  0  0  0
   10.0630    0.7515   -0.4084 H   0  0  0  0  0  0  0  0  0  0  0  0
    7.8809    0.9037    2.6899 H   0  0  0  0  0  0  0  0  0  0  0  0
    9.5215    1.4849    2.3841 H   0  0  0  0  0  0  0  0  0  0  0  0
   12.8244   -2.5221    2.0744 H   0  0  0  0  0  0  0  0  0  0  0  0
   15.0484   -6.3917    1.4705 H   0  0  0  0  0  0  0  0  0  0  0  0
   15.1411   -6.7484    3.2052 H   0  0  0  0  0  0  0  0  0  0  0  0
   16.4245   -4.3486    1.7718 H   0  0  0  0  0  0  0  0  0  0  0  0
   17.2785   -5.7208    2.5009 H   0  0  0  0  0  0  0  0  0  0  0  0
   17.2923   -3.6611    4.0002 H   0  0  0  0  0  0  0  0  0  0  0  0
   16.5267   -5.0599    4.7642 H   0  0  0  0  0  0  0  0  0  0  0  0
   15.0726   -2.6995    3.4294 H   0  0  0  0  0  0  0  0  0  0  0  0
   15.0919   -3.0891    5.1593 H   0  0  0  0  0  0  0  0  0  0  0  0
   12.9626   -3.8590    4.0536 H   0  0  0  0  0  0  0  0  0  0  0  0
   13.8798   -5.1997    4.7584 H   0  0  0  0  0  0  0  0  0  0  0  0
   10.3030   -6.0133    1.6707 H   0  0  0  0  0  0  0  0  0  0  0  0
    8.2483   -4.5965    1.6431 H   0  0  0  0  0  0  0  0  0  0  0  0
    6.6297   -0.8860    2.1034 H   0  0  0  0  0  0  0  0  0  0  0  0
    6.7346   -2.6342    2.3197 H   0  0  0  0  0  0  0  0  0  0  0  0
    7.1978   -2.8688   -0.1756 H   0  0  0  0  0  0  0  0  0  0  0  0
    6.9250   -1.1340   -0.3624 H   0  0  0  0  0  0  0  0  0  0  0  0
    4.8717   -3.1624    0.6888 H   0  0  0  0  0  0  0  0  0  0  0  0
    4.5004   -0.1916   -0.0319 H   0  0  0  0  0  0  0  0  0  0  0  0
    4.3820   -0.8897    1.6017 H   0  0  0  0  0  0  0  0  0  0  0  0
    3.1867   -1.3252    0.3680 H   0  0  0  0  0  0  0  0  0  0  0  0
    5.0520   -1.8053   -2.0672 H   0  0  0  0  0  0  0  0  0  0  0  0
    3.7503   -2.8916   -1.5266 H   0  0  0  0  0  0  0  0  0  0  0  0
    5.4053   -3.5163   -1.7286 H   0  0  0  0  0  0  0  0  0  0  0  0
    6.3768    2.1424    1.3304 H   0  0  0  0  0  0  0  0  0  0  0  0
    5.6825    3.0483   -0.8842 H   0  0  0  0  0  0  0  0  0  0  0  0
  1  2  1  0
  1 33  1  0
  1 34  1  0
  1 35  1  0
  2  3  1  0
  2 36  1  0
  2 37  1  0
  3  4  1  0
  4  5  2  0
  4 32  1  0
  5  6  1  0
  5 38  1  0
  6  7  2  0
  6 39  1  0
  7  8  1  0
  7 31  1  0
  8  9  1  0
  8 40  1  0
  8 41  1  0
  9 10  2  0
  9 25  1  0
 10 11  1  0
 11 12  2  0
 11 24  1  0
 12 13  1  0
 12 42  1  0
 13 14  1  0
 13 22  2  0
 14 15  2  0
 14 16  1  0
 16 17  1  0
 16 21  1  0
 17 18  1  0
 17 43  1  0
 17 44  1  0
 18 19  1  0
 18 45  1  0
 18 46  1  0
 19 20  1  0
 19 47  1  0
 19 48  1  0
 20 21  1  0
 20 49  1  0
 20 50  1  0
 21 51  1  0
 21 52  1  0
 22 23  1  0
 22 53  1  0
 23 24  2  0
 23 54  1  0
 24 25  1  0
 25 26  1  0
 26 27  1  0
 26 55  1  0
 26 56  1  0
 27 28  1  0
 27 57  1  0
 27 58  1  0
 28 29  1  0
 28 30  1  0
 28 59  1  1
 29 60  1  0
 29 61  1  0
 29 62  1  0
 30 63  1  0
 30 64  1  0
 30 65  1  0
 31 32  2  0
 31 66  1  0
 32 67  1  0
M  END

