
     RDKit          3D

 52 52  0  0  0  0  0  0  0  0999 V2000
    5.0968    2.1495   -0.6755 C   0  0  0  0  0  0  0  0  0  0  0  0
    4.4618    0.8389   -0.2109 C   0  0  0  0  0  0  0  0  0  0  0  0
    5.4287   -0.0274    0.5810 C   0  0  0  0  0  0  0  0  0  0  0  0
    4.7516   -1.2205    0.9610 O   0  0  0  0  0  0  0  0  0  0  0  0
    5.3462   -2.1480    1.7371 C   0  0  0  0  0  0  0  0  0  0  0  0
    6.6686   -2.0075    2.2220 C   0  0  0  0  0  0  0  0  0  0  0  0
    7.0988   -2.9667    3.1730 C   0  0  0  0  0  0  0  0  0  0  0  0
    8.2225   -2.7949    3.9117 O   0  0  0  0  0  0  0  0  0  0  0  0
    8.9752   -1.5874    3.8331 C   0  0  0  0  0  0  0  0  0  0  0  0
   10.0801   -1.6284    4.8781 C   0  0  0  0  0  0  0  0  0  0  0  0
    9.5760   -1.6670    6.3209 C   0  0  0  0  0  0  0  0  0  0  0  0
    6.2973   -4.0916    3.5294 C   0  0  0  0  0  0  0  0  0  0  0  0
    6.6693   -4.9682    4.7076 C   0  0  1  0  0  0  0  0  0  0  0  0
    5.5749   -5.6870    5.2233 O   0  0  0  0  0  0  0  0  0  0  0  0
    7.8324   -5.9321    4.3167 C   0  0  0  0  0  0  0  0  0  0  0  0
    8.2844   -6.7953    5.4932 C   0  0  0  0  0  0  0  0  0  0  0  0
    5.0773   -4.3504    2.7867 C   0  0  0  0  0  0  0  0  0  0  0  0
    4.8869   -5.7103    2.4540 O   0  0  0  0  0  0  0  0  0  0  0  0
    3.7930   -6.0409    1.6163 C   0  0  0  0  0  0  0  0  0  0  0  0
    3.8160   -7.5363    1.3352 C   0  0  0  0  0  0  0  0  0  0  0  0
    2.6664   -7.9841    0.4316 C   0  0  0  0  0  0  0  0  0  0  0  0
    4.5244   -3.2619    2.0654 C   0  0  0  0  0  0  0  0  0  0  0  0
    4.3767    2.7565   -1.2451 H   0  0  0  0  0  0  0  0  0  0  0  0
    5.9673    1.9698   -1.3285 H   0  0  0  0  0  0  0  0  0  0  0  0
    5.4411    2.7585    0.1771 H   0  0  0  0  0  0  0  0  0  0  0  0
    4.1009    0.2581   -1.0764 H   0  0  0  0  0  0  0  0  0  0  0  0
    3.5784    1.0405    0.4180 H   0  0  0  0  0  0  0  0  0  0  0  0
    5.7842    0.5006    1.4848 H   0  0  0  0  0  0  0  0  0  0  0  0
    6.3159   -0.2808   -0.0286 H   0  0  0  0  0  0  0  0  0  0  0  0
    7.3245   -1.2158    1.8755 H   0  0  0  0  0  0  0  0  0  0  0  0
    8.3028   -0.7257    3.9983 H   0  0  0  0  0  0  0  0  0  0  0  0
    9.4071   -1.4890    2.8206 H   0  0  0  0  0  0  0  0  0  0  0  0
   10.7123   -0.7372    4.7193 H   0  0  0  0  0  0  0  0  0  0  0  0
   10.7219   -2.5029    4.6746 H   0  0  0  0  0  0  0  0  0  0  0  0
    8.9606   -0.7818    6.5537 H   0  0  0  0  0  0  0  0  0  0  0  0
   10.4155   -1.6876    7.0332 H   0  0  0  0  0  0  0  0  0  0  0  0
    8.9585   -2.5599    6.5010 H   0  0  0  0  0  0  0  0  0  0  0  0
    7.0412   -4.3345    5.5334 H   0  0  0  0  0  0  0  0  0  0  0  0
    5.1064   -6.0650    4.4604 H   0  0  0  0  0  0  0  0  0  0  0  0
    8.6703   -5.3341    3.9263 H   0  0  0  0  0  0  0  0  0  0  0  0
    7.4716   -6.5633    3.4866 H   0  0  0  0  0  0  0  0  0  0  0  0
    8.7066   -6.1787    6.3046 H   0  0  0  0  0  0  0  0  0  0  0  0
    9.0584   -7.5150    5.1803 H   0  0  0  0  0  0  0  0  0  0  0  0
    7.4345   -7.3558    5.9094 H   0  0  0  0  0  0  0  0  0  0  0  0
    3.8546   -5.4655    0.6720 H   0  0  0  0  0  0  0  0  0  0  0  0
    2.8418   -5.7515    2.1081 H   0  0  0  0  0  0  0  0  0  0  0  0
    3.7774   -8.0776    2.2962 H   0  0  0  0  0  0  0  0  0  0  0  0
    4.7866   -7.7906    0.8763 H   0  0  0  0  0  0  0  0  0  0  0  0
    1.6855   -7.7614    0.8841 H   0  0  0  0  0  0  0  0  0  0  0  0
    2.7059   -9.0686    0.2453 H   0  0  0  0  0  0  0  0  0  0  0  0
    2.7015   -7.4782   -0.5478 H   0  0  0  0  0  0  0  0  0  0  0  0
    3.4747   -3.2042    1.7563 H   0  0  0  0  0  0  0  0  0  0  0  0
  1  2  1  0
  1 23  1  0
  1 24  1  0
  1 25  1  0
  2  3  1  0
  2 26  1  0
  2 27  1  0
  3  4  1  0
  3 28  1  0
  3 29  1  0
  4  5  1  0
  5  6  2  0
  5 22  1  0
  6  7  1  0
  6 30  1  0
  7  8  1  0
  7 12  2  0
  8  9  1  0
  9 10  1  0
  9 31  1  0
  9 32  1  0
 10 11  1  0
 10 33  1  0
 10 34  1  0
 11 35  1  0
 11 36  1  0
 11 37  1  0
 12 13  1  0
 12 17  1  0
 13 14  1  0
 13 15  1  0
 13 38  1  1
 14 39  1  0
 15 16  1  0
 15 40  1  0
 15 41  1  0
 16 42  1  0
 16 43  1  0
 16 44  1  0
 17 18  1  0
 17 22  2  0
 18 19  1  0
 19 20  1  0
 19 45  1  0
 19 46  1  0
 20 21  1  0
 20 47  1  0
 20 48  1  0
 21 49  1  0
 21 50  1  0
 21 51  1  0
 22 52  1  0
M  END

