
     RDKit          3D

 56 60  0  0  0  0  0  0  0  0999 V2000
    7.4350    1.1695   -4.0829 C   0  0  0  0  0  0  0  0  0  0  0  0
    6.2687    1.0131   -3.1511 C   0  0  0  0  0  0  0  0  0  0  0  0
    6.3134    1.6598   -1.9776 N   0  0  0  0  0  0  0  0  0  0  0  0
    5.1653    1.3076   -1.3147 N   0  0  0  0  0  0  0  0  0  0  0  0
    4.9776    1.5802    0.0807 C   0  0  0  0  0  0  0  0  0  0  0  0
    4.9425    3.0752    0.3830 C   0  0  0  0  0  0  0  0  0  0  0  0
    3.9258    3.7294    0.3481 O   0  0  0  0  0  0  0  0  0  0  0  0
    6.1536    3.7157    0.7586 N   0  0  0  0  0  0  0  0  0  0  0  0
    7.4730    3.2225    0.4674 C   0  0  0  0  0  0  0  0  0  0  0  0
    8.0652    3.9780   -0.7774 C   0  0  0  0  0  0  0  0  0  0  0  0
    7.9511    5.4047   -0.6006 N   0  0  0  0  0  0  0  0  0  0  0  0
    9.1395    6.1746   -0.2259 C   0  0  0  0  0  0  0  0  0  0  0  0
    9.0504    7.6576   -0.4998 C   0  0  0  0  0  0  0  0  0  0  0  0
    9.0245    8.5841    0.5527 C   0  0  0  0  0  0  0  0  0  0  0  0
    8.9617    9.9561    0.2996 C   0  0  0  0  0  0  0  0  0  0  0  0
    8.9204   10.3932   -1.0226 C   0  0  0  0  0  0  0  0  0  0  0  0
    8.8588   11.7007   -1.2737 F   0  0  0  0  0  0  0  0  0  0  0  0
    8.9464    9.4965   -2.0915 C   0  0  0  0  0  0  0  0  0  0  0  0
    9.0162    8.1305   -1.8228 C   0  0  0  0  0  0  0  0  0  0  0  0
    6.6290    5.8870   -0.2946 C   0  0  0  0  0  0  0  0  0  0  0  0
    6.1011    5.1346    0.9775 C   0  0  0  0  0  0  0  0  0  0  0  0
    4.4240    0.3908   -2.0264 C   0  0  0  0  0  0  0  0  0  0  0  0
    3.3448   -0.2145   -1.5364 N   0  0  0  0  0  0  0  0  0  0  0  0
    2.8458   -1.1412   -2.3989 C   0  0  0  0  0  0  0  0  0  0  0  0
    3.3592   -1.4194   -3.6532 C   0  0  0  0  0  0  0  0  0  0  0  0
    4.4877   -0.7257   -4.2112 C   0  0  0  0  0  0  0  0  0  0  0  0
    4.8993   -0.9538   -5.5587 C   0  0  0  0  0  0  0  0  0  0  0  0
    5.6137   -0.1464   -6.4640 C   0  0  0  0  0  0  0  0  0  0  0  0
    5.7637   -0.7113   -7.7525 C   0  0  0  0  0  0  0  0  0  0  0  0
    5.1839   -1.9534   -7.8874 C   0  0  0  0  0  0  0  0  0  0  0  0
    4.4359   -2.4589   -6.3951 S   0  0  0  0  0  0  0  0  0  0  0  0
    5.0869    0.2153   -3.2702 C   0  0  0  0  0  0  0  0  0  0  0  0
    8.3137    1.5184   -3.5193 H   0  0  0  0  0  0  0  0  0  0  0  0
    7.2406    1.8958   -4.8904 H   0  0  0  0  0  0  0  0  0  0  0  0
    7.6872    0.2180   -4.5699 H   0  0  0  0  0  0  0  0  0  0  0  0
    5.7217    1.0618    0.7144 H   0  0  0  0  0  0  0  0  0  0  0  0
    3.9842    1.1818    0.3306 H   0  0  0  0  0  0  0  0  0  0  0  0
    7.4572    2.1660    0.1909 H   0  0  0  0  0  0  0  0  0  0  0  0
    8.1379    3.3807    1.3344 H   0  0  0  0  0  0  0  0  0  0  0  0
    7.4628    3.6298   -1.6292 H   0  0  0  0  0  0  0  0  0  0  0  0
    9.1154    3.7009   -0.9287 H   0  0  0  0  0  0  0  0  0  0  0  0
    9.9856    5.7244   -0.7654 H   0  0  0  0  0  0  0  0  0  0  0  0
    9.3280    5.9949    0.8512 H   0  0  0  0  0  0  0  0  0  0  0  0
    9.0596    8.2371    1.5891 H   0  0  0  0  0  0  0  0  0  0  0  0
    8.9462   10.6883    1.1085 H   0  0  0  0  0  0  0  0  0  0  0  0
    8.9185    9.8786   -3.1133 H   0  0  0  0  0  0  0  0  0  0  0  0
    9.0484    7.4264   -2.6587 H   0  0  0  0  0  0  0  0  0  0  0  0
    5.9510    5.6472   -1.1262 H   0  0  0  0  0  0  0  0  0  0  0  0
    6.6467    6.9711   -0.1349 H   0  0  0  0  0  0  0  0  0  0  0  0
    5.0623    5.4384    1.1487 H   0  0  0  0  0  0  0  0  0  0  0  0
    6.7265    5.4165    1.8410 H   0  0  0  0  0  0  0  0  0  0  0  0
    1.9602   -1.6868   -2.0535 H   0  0  0  0  0  0  0  0  0  0  0  0
    2.8409   -2.1585   -4.2679 H   0  0  0  0  0  0  0  0  0  0  0  0
    5.9330    0.8628   -6.2182 H   0  0  0  0  0  0  0  0  0  0  0  0
    6.2704   -0.2016   -8.5755 H   0  0  0  0  0  0  0  0  0  0  0  0
    5.1376   -2.5904   -8.7681 H   0  0  0  0  0  0  0  0  0  0  0  0
  1  2  1  0
  1 33  1  0
  1 34  1  0
  1 35  1  0
  2  3  2  0
  2 32  1  0
  3  4  1  0
  4  5  1  0
  4 22  1  0
  5  6  1  0
  5 36  1  0
  5 37  1  0
  6  7  2  0
  6  8  1  0
  8  9  1  0
  8 21  1  0
  9 10  1  0
  9 38  1  0
  9 39  1  0
 10 11  1  0
 10 40  1  0
 10 41  1  0
 11 12  1  0
 11 20  1  0
 12 13  1  0
 12 42  1  0
 12 43  1  0
 13 14  2  0
 13 19  1  0
 14 15  1  0
 14 44  1  0
 15 16  2  0
 15 45  1  0
 16 17  1  0
 16 18  1  0
 18 19  2  0
 18 46  1  0
 19 47  1  0
 20 21  1  0
 20 48  1  0
 20 49  1  0
 21 50  1  0
 21 51  1  0
 22 23  1  0
 22 32  2  0
 23 24  2  0
 24 25  1  0
 24 52  1  0
 25 26  2  0
 25 53  1  0
 26 27  1  0
 26 32  1  0
 27 28  2  0
 27 31  1  0
 28 29  1  0
 28 54  1  0
 29 30  2  0
 29 55  1  0
 30 31  1  0
 30 56  1  0
M  END

