
     RDKit          3D

 28 29  0  0  0  0  0  0  0  0999 V2000
    1.9421   -1.9335   -0.9069 C   0  0  0  0  0  0  0  0  0  0  0  0
    2.8793   -0.9697   -0.2383 C   0  0  0  0  0  0  0  0  0  0  0  0
    3.8963   -0.2284   -0.9329 C   0  0  0  0  0  0  0  0  0  0  0  0
    4.6504    0.5935   -0.1381 C   0  0  0  0  0  0  0  0  0  0  0  0
    5.7954    1.5173   -0.4606 C   0  0  1  0  0  0  0  0  0  0  0  0
    6.4610    1.1985   -2.3209 Br  0  0  0  0  0  0  0  0  0  0  0  0
    5.4709    2.9935   -0.3065 C   0  0  0  0  0  0  0  0  0  0  0  0
    4.2804    3.4898   -0.8580 C   0  0  0  0  0  0  0  0  0  0  0  0
    3.9415    4.8382   -0.7599 C   0  0  0  0  0  0  0  0  0  0  0  0
    4.7928    5.7237   -0.0948 C   0  0  0  0  0  0  0  0  0  0  0  0
    5.9771    5.2491    0.4681 C   0  0  0  0  0  0  0  0  0  0  0  0
    6.3240    3.8954    0.3674 C   0  0  0  0  0  0  0  0  0  0  0  0
    7.6134    3.4305    1.0102 C   0  0  1  0  0  0  0  0  0  0  0  0
    8.4466    2.8612    0.1189 F   0  0  0  0  0  0  0  0  0  0  0  0
    8.2839    4.4356    1.5915 F   0  0  0  0  0  0  0  0  0  0  0  0
    7.3837    2.5051    1.9699 F   0  0  0  0  0  0  0  0  0  0  0  0
    4.1317    0.4846    1.5330 S   0  0  0  0  0  0  0  0  0  0  0  0
    2.9006   -0.6722    1.1031 C   0  0  0  0  0  0  0  0  0  0  0  0
    1.8708   -1.3138    2.3365 Cl  0  0  0  0  0  0  0  0  0  0  0  0
    2.4988   -2.7453   -1.4038 H   0  0  0  0  0  0  0  0  0  0  0  0
    1.3409   -1.4298   -1.6821 H   0  0  0  0  0  0  0  0  0  0  0  0
    1.2534   -2.3865   -0.1812 H   0  0  0  0  0  0  0  0  0  0  0  0
    4.0692   -0.3203   -2.0057 H   0  0  0  0  0  0  0  0  0  0  0  0
    6.6629    1.2398    0.1430 H   0  0  0  0  0  0  0  0  0  0  0  0
    3.6142    2.7969   -1.3761 H   0  0  0  0  0  0  0  0  0  0  0  0
    3.0091    5.1972   -1.2023 H   0  0  0  0  0  0  0  0  0  0  0  0
    4.5357    6.7820   -0.0097 H   0  0  0  0  0  0  0  0  0  0  0  0
    6.6440    5.9320    0.9949 H   0  0  0  0  0  0  0  0  0  0  0  0
  1  2  1  0
  1 20  1  0
  1 21  1  0
  1 22  1  0
  2  3  1  0
  2 18  2  0
  3  4  2  0
  3 23  1  0
  4  5  1  0
  4 17  1  0
  5  6  1  0
  5  7  1  0
  5 24  1  1
  7  8  2  0
  7 12  1  0
  8  9  1  0
  8 25  1  0
  9 10  2  0
  9 26  1  0
 10 11  1  0
 10 27  1  0
 11 12  2  0
 11 28  1  0
 12 13  1  0
 13 14  1  6
 13 15  1  0
 13 16  1  0
 17 18  1  0
 18 19  1  0
M  END

