
     RDKit          3D

 40 41  0  0  0  0  0  0  0  0999 V2000
    1.0339   -0.4138   -0.5964 C   0  0  0  0  0  0  0  0  0  0  0  0
    2.5298   -0.2307   -0.3460 C   0  0  0  0  0  0  0  0  0  0  0  0
    3.4484   -0.1192   -1.6064 C   0  0  1  0  0  0  0  0  0  0  0  0
    3.0640    1.0612   -2.3760 N   0  0  0  0  0  0  0  0  0  0  0  0
    2.1932    1.0818   -3.5177 C   0  0  0  0  0  0  0  0  0  0  0  0
    1.7397    2.4537   -3.9041 C   0  0  0  0  0  0  0  0  0  0  0  0
    0.7284    3.2361   -3.2657 C   0  0  0  0  0  0  0  0  0  0  0  0
    0.6589    4.4349   -3.9472 C   0  0  0  0  0  0  0  0  0  0  0  0
    1.5773    4.4132   -4.9695 N   0  0  0  0  0  0  0  0  0  0  0  0
    1.8649    5.5252   -5.8728 C   0  0  0  0  0  0  0  0  0  0  0  0
    2.9225    6.4880   -5.3355 C   0  0  0  0  0  0  0  0  0  0  0  0
    2.2417    3.2168   -4.9484 C   0  0  0  0  0  0  0  0  0  0  0  0
    4.9236   -0.0360   -1.2580 C   0  0  0  0  0  0  0  0  0  0  0  0
    5.7543   -1.0871   -1.5796 C   0  0  0  0  0  0  0  0  0  0  0  0
    7.1553   -1.0515   -1.2854 C   0  0  0  0  0  0  0  0  0  0  0  0
    7.6403    0.1408   -0.6757 C   0  0  0  0  0  0  0  0  0  0  0  0
    9.3763    0.2323   -0.3314 Cl  0  0  0  0  0  0  0  0  0  0  0  0
    6.8429    1.2161   -0.3635 C   0  0  0  0  0  0  0  0  0  0  0  0
    5.4287    1.1843   -0.6753 C   0  0  0  0  0  0  0  0  0  0  0  0
    0.5158   -0.6282    0.3515 H   0  0  0  0  0  0  0  0  0  0  0  0
    0.8305   -1.2600   -1.2745 H   0  0  0  0  0  0  0  0  0  0  0  0
    0.5544    0.4837   -1.0204 H   0  0  0  0  0  0  0  0  0  0  0  0
    2.9342   -1.1014    0.1878 H   0  0  0  0  0  0  0  0  0  0  0  0
    2.7171    0.6387    0.3016 H   0  0  0  0  0  0  0  0  0  0  0  0
    3.2368   -0.9902   -2.2470 H   0  0  0  0  0  0  0  0  0  0  0  0
    3.6325    1.8929   -2.1846 H   0  0  0  0  0  0  0  0  0  0  0  0
    1.3588    0.3875   -3.3201 H   0  0  0  0  0  0  0  0  0  0  0  0
    2.7674    0.6077   -4.3427 H   0  0  0  0  0  0  0  0  0  0  0  0
    0.1112    2.9464   -2.4170 H   0  0  0  0  0  0  0  0  0  0  0  0
    0.0206    5.3015   -3.7883 H   0  0  0  0  0  0  0  0  0  0  0  0
    0.9177    6.0544   -6.0595 H   0  0  0  0  0  0  0  0  0  0  0  0
    2.1832    5.0983   -6.8364 H   0  0  0  0  0  0  0  0  0  0  0  0
    2.6039    6.9364   -4.3819 H   0  0  0  0  0  0  0  0  0  0  0  0
    3.0931    7.3024   -6.0567 H   0  0  0  0  0  0  0  0  0  0  0  0
    3.8811    5.9735   -5.1674 H   0  0  0  0  0  0  0  0  0  0  0  0
    3.0176    2.9899   -5.6777 H   0  0  0  0  0  0  0  0  0  0  0  0
    5.3460   -1.9650   -2.0934 H   0  0  0  0  0  0  0  0  0  0  0  0
    7.8148   -1.8896   -1.4953 H   0  0  0  0  0  0  0  0  0  0  0  0
    7.2848    2.0959    0.1078 H   0  0  0  0  0  0  0  0  0  0  0  0
    4.7654    1.8774   -0.1442 H   0  0  0  0  0  0  0  0  0  0  0  0
  1  2  1  0
  1 20  1  0
  1 21  1  0
  1 22  1  0
  2  3  1  0
  2 23  1  0
  2 24  1  0
  3  4  1  0
  3 13  1  0
  3 25  1  6
  4  5  1  0
  4 26  1  0
  5  6  1  0
  5 27  1  0
  5 28  1  0
  6  7  1  0
  6 12  2  0
  7  8  2  0
  7 29  1  0
  8  9  1  0
  8 30  1  0
  9 10  1  0
  9 12  1  0
 10 11  1  0
 10 31  1  0
 10 32  1  0
 11 33  1  0
 11 34  1  0
 11 35  1  0
 12 36  1  0
 13 14  2  0
 13 19  1  0
 14 15  1  0
 14 37  1  0
 15 16  2  0
 15 38  1  0
 16 17  1  0
 16 18  1  0
 18 19  2  0
 18 39  1  0
 19 40  1  0
M  END

