
     RDKit          3D

 39 40  0  0  0  0  0  0  0  0999 V2000
    0.8526    0.8812    1.2278 C   0  0  0  0  0  0  0  0  0  0  0  0
    2.1251    0.3919    0.8047 O   0  0  0  0  0  0  0  0  0  0  0  0
    2.8910   -0.1834    1.7518 C   0  0  0  0  0  0  0  0  0  0  0  0
    2.5361   -0.3096    2.8992 O   0  0  0  0  0  0  0  0  0  0  0  0
    4.2318   -0.6068    1.1841 C   0  0  0  0  0  0  0  0  0  0  0  0
    5.0219   -1.5369    2.1177 C   0  0  1  0  0  0  0  0  0  0  0  0
    4.9701   -1.0785    3.1182 H   0  0  0  0  0  0  0  0  0  0  0  0
    4.4141   -2.9494    2.2205 C   0  0  0  0  0  0  0  0  0  0  0  0
    4.6802   -3.7734    0.9606 C   0  0  0  0  0  0  0  0  0  0  0  0
    6.1117   -3.8173    0.6795 N   0  0  0  0  0  0  0  0  0  0  0  0
    6.8003   -2.5468    0.5045 C   0  0  1  0  0  0  0  0  0  0  0  0
    7.8830   -2.7704    0.5425 H   0  0  0  0  0  0  0  0  0  0  0  0
    6.5989   -1.8352   -0.8483 C   0  0  0  0  0  0  0  0  0  0  0  0
    5.8554   -2.4063   -1.8906 C   0  0  0  0  0  0  0  0  0  0  0  0
    5.7335   -1.7732   -3.1309 C   0  0  0  0  0  0  0  0  0  0  0  0
    6.3675   -0.5497   -3.3583 C   0  0  0  0  0  0  0  0  0  0  0  0
    6.2047    0.1720   -4.6708 C   0  0  1  0  0  0  0  0  0  0  0  0
    5.8502   -0.6604   -5.6656 F   0  0  0  0  0  0  0  0  0  0  0  0
    5.2544    1.1258   -4.6003 F   0  0  0  0  0  0  0  0  0  0  0  0
    7.3417    0.7884   -5.0449 F   0  0  0  0  0  0  0  0  0  0  0  0
    7.1357    0.0258   -2.3375 C   0  0  0  0  0  0  0  0  0  0  0  0
    7.2467   -0.6122   -1.1043 C   0  0  0  0  0  0  0  0  0  0  0  0
    6.5117   -1.6599    1.7417 C   0  0  0  0  0  0  0  0  0  0  0  0
    0.3757    1.3063    0.3359 H   0  0  0  0  0  0  0  0  0  0  0  0
    0.9666    1.6539    2.0035 H   0  0  0  0  0  0  0  0  0  0  0  0
    0.2359    0.0675    1.6391 H   0  0  0  0  0  0  0  0  0  0  0  0
    4.7977    0.3240    1.0001 H   0  0  0  0  0  0  0  0  0  0  0  0
    4.0619   -1.0339    0.1845 H   0  0  0  0  0  0  0  0  0  0  0  0
    3.3329   -2.8902    2.4207 H   0  0  0  0  0  0  0  0  0  0  0  0
    4.8729   -3.4666    3.0798 H   0  0  0  0  0  0  0  0  0  0  0  0
    4.0727   -3.3662    0.1225 H   0  0  0  0  0  0  0  0  0  0  0  0
    4.3328   -4.8082    1.1147 H   0  0  0  0  0  0  0  0  0  0  0  0
    6.3456   -4.4866   -0.0479 H   0  0  0  0  0  0  0  0  0  0  0  0
    5.3618   -3.3678   -1.7411 H   0  0  0  0  0  0  0  0  0  0  0  0
    5.1482   -2.2381   -3.9264 H   0  0  0  0  0  0  0  0  0  0  0  0
    7.6556    0.9698   -2.5144 H   0  0  0  0  0  0  0  0  0  0  0  0
    7.8649   -0.1523   -0.3291 H   0  0  0  0  0  0  0  0  0  0  0  0
    6.9592   -0.6624    1.6114 H   0  0  0  0  0  0  0  0  0  0  0  0
    7.0332   -2.1301    2.5906 H   0  0  0  0  0  0  0  0  0  0  0  0
  1  2  1  0
  1 24  1  0
  1 25  1  0
  1 26  1  0
  2  3  1  0
  3  4  2  0
  3  5  1  0
  5  6  1  0
  5 27  1  0
  5 28  1  0
  6  7  1  1
  6  8  1  0
  6 23  1  0
  8  9  1  0
  8 29  1  0
  8 30  1  0
  9 10  1  0
  9 31  1  0
  9 32  1  0
 10 11  1  0
 10 33  1  0
 11 12  1  1
 11 13  1  0
 11 23  1  0
 13 14  2  0
 13 22  1  0
 14 15  1  0
 14 34  1  0
 15 16  2  0
 15 35  1  0
 16 17  1  0
 16 21  1  0
 17 18  1  6
 17 19  1  0
 17 20  1  0
 21 22  2  0
 21 36  1  0
 22 37  1  0
 23 38  1  0
 23 39  1  0
M  END

