
     RDKit          3D

 53 53  0  0  0  0  0  0  0  0999 V2000
    2.8391    6.5647    6.1068 C   0  0  0  0  0  0  0  0  0  0  0  0
    3.5345    5.2140    5.9308 C   0  0  0  0  0  0  0  0  0  0  0  0
    4.0573    4.9861    4.5087 C   0  0  0  0  0  0  0  0  0  0  0  0
    4.7457    3.6364    4.3514 C   0  0  0  0  0  0  0  0  0  0  0  0
    5.1526    3.4007    2.9885 O   0  0  0  0  0  0  0  0  0  0  0  0
    6.3510    3.8558    2.6051 C   0  0  0  0  0  0  0  0  0  0  0  0
    7.1264    4.4355    3.3321 O   0  0  0  0  0  0  0  0  0  0  0  0
    6.6148    3.5541    1.1456 C   0  0  0  0  0  0  0  0  0  0  0  0
    8.0393    3.9267    0.7551 C   0  0  1  0  0  0  0  0  0  0  0  0
    8.2838    3.5961   -0.6247 O   0  0  0  0  0  0  0  0  0  0  0  0
    8.6975    2.3303   -0.8861 C   0  0  0  0  0  0  0  0  0  0  0  0
    8.8424    1.4639   -0.0592 O   0  0  0  0  0  0  0  0  0  0  0  0
    8.9122    2.2317   -2.2526 N   0  0  0  0  0  0  0  0  0  0  0  0
    9.3267    1.1528   -3.0163 C   0  0  0  0  0  0  0  0  0  0  0  0
    9.6306   -0.1187   -2.4460 C   0  0  0  0  0  0  0  0  0  0  0  0
   10.0509   -1.1658   -3.3299 C   0  0  0  0  0  0  0  0  0  0  0  0
   10.1543   -0.9207   -4.7206 C   0  0  0  0  0  0  0  0  0  0  0  0
    9.8520    0.3439   -5.2847 C   0  0  0  0  0  0  0  0  0  0  0  0
    9.4303    1.4040   -4.4230 C   0  0  0  0  0  0  0  0  0  0  0  0
    8.2703    5.4393    0.8456 C   0  0  0  0  0  0  0  0  0  0  0  0
    7.4299    6.2596    0.5713 O   0  0  0  0  0  0  0  0  0  0  0  0
    9.5185    5.7094    1.2288 O   0  0  0  0  0  0  0  0  0  0  0  0
    9.8871    7.0968    1.3916 C   0  0  0  0  0  0  0  0  0  0  0  0
    9.4410    7.6555    2.7378 C   0  0  0  0  0  0  0  0  0  0  0  0
    9.9552    6.8747    3.9513 C   0  0  0  0  0  0  0  0  0  0  0  0
    9.5172    7.4868    5.2821 C   0  0  0  0  0  0  0  0  0  0  0  0
    2.4779    6.6998    7.1385 H   0  0  0  0  0  0  0  0  0  0  0  0
    1.9705    6.6587    5.4340 H   0  0  0  0  0  0  0  0  0  0  0  0
    3.5234    7.3991    5.8806 H   0  0  0  0  0  0  0  0  0  0  0  0
    2.8343    4.4017    6.1988 H   0  0  0  0  0  0  0  0  0  0  0  0
    4.3741    5.1365    6.6451 H   0  0  0  0  0  0  0  0  0  0  0  0
    4.7720    5.7830    4.2422 H   0  0  0  0  0  0  0  0  0  0  0  0
    3.2249    5.0477    3.7858 H   0  0  0  0  0  0  0  0  0  0  0  0
    4.0580    2.8103    4.5851 H   0  0  0  0  0  0  0  0  0  0  0  0
    5.6277    3.5655    5.0053 H   0  0  0  0  0  0  0  0  0  0  0  0
    5.9000    4.1289    0.5353 H   0  0  0  0  0  0  0  0  0  0  0  0
    6.4339    2.4847    0.9619 H   0  0  0  0  0  0  0  0  0  0  0  0
    8.7689    3.4001    1.3824 H   0  0  0  0  0  0  0  0  0  0  0  0
    8.7289    3.0941   -2.7597 H   0  0  0  0  0  0  0  0  0  0  0  0
    9.5452   -0.2713   -1.3743 H   0  0  0  0  0  0  0  0  0  0  0  0
   10.2917   -2.1503   -2.9271 H   0  0  0  0  0  0  0  0  0  0  0  0
   10.4773   -1.7311   -5.3799 H   0  0  0  0  0  0  0  0  0  0  0  0
    9.9385    0.5072   -6.3592 H   0  0  0  0  0  0  0  0  0  0  0  0
    9.1862    2.3921   -4.8190 H   0  0  0  0  0  0  0  0  0  0  0  0
    9.4553    7.6776    0.5632 H   0  0  0  0  0  0  0  0  0  0  0  0
   10.9834    7.0963    1.3031 H   0  0  0  0  0  0  0  0  0  0  0  0
    8.3393    7.6989    2.7579 H   0  0  0  0  0  0  0  0  0  0  0  0
    9.7920    8.7031    2.7832 H   0  0  0  0  0  0  0  0  0  0  0  0
   11.0588    6.8199    3.9112 H   0  0  0  0  0  0  0  0  0  0  0  0
    9.5884    5.8376    3.8866 H   0  0  0  0  0  0  0  0  0  0  0  0
    9.8854    8.5208    5.3954 H   0  0  0  0  0  0  0  0  0  0  0  0
    9.8960    6.9034    6.1363 H   0  0  0  0  0  0  0  0  0  0  0  0
    8.4178    7.5158    5.3623 H   0  0  0  0  0  0  0  0  0  0  0  0
  1  2  1  0
  1 27  1  0
  1 28  1  0
  1 29  1  0
  2  3  1  0
  2 30  1  0
  2 31  1  0
  3  4  1  0
  3 32  1  0
  3 33  1  0
  4  5  1  0
  4 34  1  0
  4 35  1  0
  5  6  1  0
  6  7  2  0
  6  8  1  0
  8  9  1  0
  8 36  1  0
  8 37  1  0
  9 10  1  0
  9 20  1  0
  9 38  1  1
 10 11  1  0
 11 12  2  0
 11 13  1  0
 13 14  1  0
 13 39  1  0
 14 15  2  0
 14 19  1  0
 15 16  1  0
 15 40  1  0
 16 17  2  0
 16 41  1  0
 17 18  1  0
 17 42  1  0
 18 19  2  0
 18 43  1  0
 19 44  1  0
 20 21  2  0
 20 22  1  0
 22 23  1  0
 23 24  1  0
 23 45  1  0
 23 46  1  0
 24 25  1  0
 24 47  1  0
 24 48  1  0
 25 26  1  0
 25 49  1  0
 25 50  1  0
 26 51  1  0
 26 52  1  0
 26 53  1  0
M  END

