
     RDKit          3D

 38 40  0  0  0  0  0  0  0  0999 V2000
    5.2281   -3.1068   -4.4343 C   0  0  0  0  0  0  0  0  0  0  0  0
    5.2743   -3.1784   -2.9844 N   0  0  0  0  0  0  0  0  0  0  0  0
    4.8502   -4.2568   -2.3313 N   0  0  0  0  0  0  0  0  0  0  0  0
    5.0579   -4.0165   -1.0074 C   0  0  0  0  0  0  0  0  0  0  0  0
    5.6231   -2.7773   -0.7815 C   0  0  0  0  0  0  0  0  0  0  0  0
    5.9944   -2.0902    0.5153 C   0  0  1  0  0  0  0  0  0  0  0  0
    6.1742   -3.1371    1.4593 O   0  0  0  0  0  0  0  0  0  0  0  0
    7.1524   -1.1340    0.3943 C   0  0  0  0  0  0  0  0  0  0  0  0
    6.9467    0.2726    0.3349 C   0  0  0  0  0  0  0  0  0  0  0  0
    7.9594    1.1478   -0.0204 C   0  0  0  0  0  0  0  0  0  0  0  0
    9.2953    0.7001   -0.3431 C   0  0  0  0  0  0  0  0  0  0  0  0
   10.3458    1.6045   -0.7462 C   0  0  0  0  0  0  0  0  0  0  0  0
   10.1281    3.0140   -0.9031 C   0  0  0  0  0  0  0  0  0  0  0  0
   11.1404    3.8789   -1.2956 C   0  0  0  0  0  0  0  0  0  0  0  0
   12.4395    3.4119   -1.5614 C   0  0  0  0  0  0  0  0  0  0  0  0
   12.6848    2.0348   -1.4152 C   0  0  0  0  0  0  0  0  0  0  0  0
   11.6810    1.1598   -1.0241 C   0  0  0  0  0  0  0  0  0  0  0  0
    9.4903   -0.7266   -0.2248 C   0  0  0  0  0  0  0  0  0  0  0  0
    8.4735   -1.5957    0.1112 C   0  0  0  0  0  0  0  0  0  0  0  0
    5.7750   -2.2366   -2.1108 C   0  0  0  0  0  0  0  0  0  0  0  0
    6.3058   -1.0815   -2.4697 N   0  0  0  0  0  0  0  0  0  0  0  0
    4.7443   -4.0245   -4.7867 H   0  0  0  0  0  0  0  0  0  0  0  0
    6.2432   -3.0500   -4.8570 H   0  0  0  0  0  0  0  0  0  0  0  0
    4.6366   -2.2385   -4.7629 H   0  0  0  0  0  0  0  0  0  0  0  0
    4.7942   -4.7719   -0.2720 H   0  0  0  0  0  0  0  0  0  0  0  0
    5.0951   -1.4892    0.7803 H   0  0  0  0  0  0  0  0  0  0  0  0
    6.6930   -2.7574    2.1823 H   0  0  0  0  0  0  0  0  0  0  0  0
    5.9593    0.6819    0.5813 H   0  0  0  0  0  0  0  0  0  0  0  0
    7.7360    2.2153   -0.0168 H   0  0  0  0  0  0  0  0  0  0  0  0
    9.1392    3.4349   -0.7138 H   0  0  0  0  0  0  0  0  0  0  0  0
   10.9162    4.9456   -1.3979 H   0  0  0  0  0  0  0  0  0  0  0  0
   13.2330    4.0964   -1.8681 H   0  0  0  0  0  0  0  0  0  0  0  0
   13.6869    1.6389   -1.6094 H   0  0  0  0  0  0  0  0  0  0  0  0
   11.9333    0.1031   -0.9216 H   0  0  0  0  0  0  0  0  0  0  0  0
   10.4802   -1.1470   -0.4075 H   0  0  0  0  0  0  0  0  0  0  0  0
    8.6888   -2.6672    0.1738 H   0  0  0  0  0  0  0  0  0  0  0  0
    6.7176   -0.4943   -1.7279 H   0  0  0  0  0  0  0  0  0  0  0  0
    6.4202   -0.8146   -3.4412 H   0  0  0  0  0  0  0  0  0  0  0  0
  1  2  1  0
  1 22  1  0
  1 23  1  0
  1 24  1  0
  2  3  1  0
  2 20  1  0
  3  4  2  0
  4  5  1  0
  4 25  1  0
  5  6  1  0
  5 20  2  0
  6  7  1  0
  6  8  1  0
  6 26  1  1
  7 27  1  0
  8  9  2  0
  8 19  1  0
  9 10  1  0
  9 28  1  0
 10 11  2  0
 10 29  1  0
 11 12  1  0
 11 18  1  0
 12 13  2  0
 12 17  1  0
 13 14  1  0
 13 30  1  0
 14 15  2  0
 14 31  1  0
 15 16  1  0
 15 32  1  0
 16 17  2  0
 16 33  1  0
 17 34  1  0
 18 19  2  0
 18 35  1  0
 19 36  1  0
 20 21  1  0
 21 37  1  0
 21 38  1  0
M  END

