
     RDKit          3D

 55 57  0  0  0  0  0  0  0  0999 V2000
    2.1265   -1.0760   -1.2039 C   0  0  0  0  0  0  0  0  0  0  0  0
    2.8483   -0.1097   -0.4427 O   0  0  0  0  0  0  0  0  0  0  0  0
    3.4240   -0.4355    0.7071 C   0  0  0  0  0  0  0  0  0  0  0  0
    4.1256    0.6051    1.3752 C   0  0  0  0  0  0  0  0  0  0  0  0
    4.7605    0.3787    2.5675 C   0  0  0  0  0  0  0  0  0  0  0  0
    4.7512   -0.9234    3.1934 C   0  0  0  0  0  0  0  0  0  0  0  0
    5.3744   -1.1596    4.3606 N   0  0  0  0  0  0  0  0  0  0  0  0
    5.4592   -2.4896    5.0132 C   0  0  0  0  0  0  0  0  0  0  0  0
    6.9016   -2.8126    5.3855 C   0  0  0  0  0  0  0  0  0  0  0  0
    7.4528   -1.7911    6.2372 N   0  0  0  0  0  0  0  0  0  0  0  0
    8.5635   -2.2507    7.0919 C   0  0  0  0  0  0  0  0  0  0  0  0
    8.5673   -3.4645    7.3316 O   0  0  0  0  0  0  0  0  0  0  0  0
    9.4975   -1.2891    7.5639 C   0  0  0  0  0  0  0  0  0  0  0  0
   10.5376   -1.6659    8.4367 C   0  0  0  0  0  0  0  0  0  0  0  0
   11.5367   -0.8306    9.0084 C   0  0  0  0  0  0  0  0  0  0  0  0
   11.6369    0.5733    8.7803 C   0  0  0  0  0  0  0  0  0  0  0  0
   12.6448    1.3370    9.3702 C   0  0  0  0  0  0  0  0  0  0  0  0
   13.5998    0.7573   10.2106 C   0  0  0  0  0  0  0  0  0  0  0  0
   14.6316    1.4342   10.8363 O   0  0  0  0  0  0  0  0  0  0  0  0
   14.7199    2.8048   10.6115 C   0  0  0  0  0  0  0  0  0  0  0  0
   15.8688    3.3484   11.3528 C   0  0  0  0  0  0  0  0  0  0  0  0
   16.7637    3.8136   11.9210 N   0  0  0  0  0  0  0  0  0  0  0  0
   13.5308   -0.6420   10.4636 C   0  0  0  0  0  0  0  0  0  0  0  0
   14.4948   -1.1330   11.2952 O   0  0  0  0  0  0  0  0  0  0  0  0
   14.4887   -2.5027   11.5976 C   0  0  0  0  0  0  0  0  0  0  0  0
   12.5294   -1.3987    9.8769 C   0  0  0  0  0  0  0  0  0  0  0  0
    7.4508   -0.5065    5.5973 C   0  0  0  0  0  0  0  0  0  0  0  0
    6.0245   -0.1188    5.1885 C   0  0  0  0  0  0  0  0  0  0  0  0
    4.0259   -1.9567    2.4963 C   0  0  0  0  0  0  0  0  0  0  0  0
    3.3865   -1.7216    1.2993 C   0  0  0  0  0  0  0  0  0  0  0  0
    1.7712   -0.5513   -2.0978 H   0  0  0  0  0  0  0  0  0  0  0  0
    1.2646   -1.4591   -0.6358 H   0  0  0  0  0  0  0  0  0  0  0  0
    2.7814   -1.9093   -1.5023 H   0  0  0  0  0  0  0  0  0  0  0  0
    4.1483    1.5896    0.9065 H   0  0  0  0  0  0  0  0  0  0  0  0
    5.2900    1.2062    3.0293 H   0  0  0  0  0  0  0  0  0  0  0  0
    5.0568   -3.2642    4.3562 H   0  0  0  0  0  0  0  0  0  0  0  0
    4.8393   -2.4395    5.9229 H   0  0  0  0  0  0  0  0  0  0  0  0
    7.4869   -2.9534    4.4458 H   0  0  0  0  0  0  0  0  0  0  0  0
    6.9401   -3.7625    5.9346 H   0  0  0  0  0  0  0  0  0  0  0  0
    9.4169   -0.2468    7.2604 H   0  0  0  0  0  0  0  0  0  0  0  0
   10.5729   -2.7270    8.6978 H   0  0  0  0  0  0  0  0  0  0  0  0
   10.9135    1.0723    8.1337 H   0  0  0  0  0  0  0  0  0  0  0  0
   12.6747    2.4082    9.1614 H   0  0  0  0  0  0  0  0  0  0  0  0
   13.8096    3.3458   10.9444 H   0  0  0  0  0  0  0  0  0  0  0  0
   14.8591    3.0479    9.5374 H   0  0  0  0  0  0  0  0  0  0  0  0
   15.3340   -2.6796   12.2778 H   0  0  0  0  0  0  0  0  0  0  0  0
   14.6192   -3.1300   10.6957 H   0  0  0  0  0  0  0  0  0  0  0  0
   13.5540   -2.8143   12.1008 H   0  0  0  0  0  0  0  0  0  0  0  0
   12.4763   -2.4704   10.0703 H   0  0  0  0  0  0  0  0  0  0  0  0
    8.1128   -0.4557    4.7005 H   0  0  0  0  0  0  0  0  0  0  0  0
    7.7933    0.2715    6.2898 H   0  0  0  0  0  0  0  0  0  0  0  0
    6.0239    0.8432    4.6707 H   0  0  0  0  0  0  0  0  0  0  0  0
    5.4047   -0.0208    6.0943 H   0  0  0  0  0  0  0  0  0  0  0  0
    3.9598   -2.9549    2.9177 H   0  0  0  0  0  0  0  0  0  0  0  0
    2.8495   -2.5397    0.8211 H   0  0  0  0  0  0  0  0  0  0  0  0
  1  2  1  0
  1 31  1  0
  1 32  1  0
  1 33  1  0
  2  3  1  0
  3  4  2  0
  3 30  1  0
  4  5  1  0
  4 34  1  0
  5  6  2  0
  5 35  1  0
  6  7  1  0
  6 29  1  0
  7  8  1  0
  7 28  1  0
  8  9  1  0
  8 36  1  0
  8 37  1  0
  9 10  1  0
  9 38  1  0
  9 39  1  0
 10 11  1  0
 10 27  1  0
 11 12  2  0
 11 13  1  0
 13 14  2  0
 13 40  1  0
 14 15  1  0
 14 41  1  0
 15 16  2  0
 15 26  1  0
 16 17  1  0
 16 42  1  0
 17 18  2  0
 17 43  1  0
 18 19  1  0
 18 23  1  0
 19 20  1  0
 20 21  1  0
 20 44  1  0
 20 45  1  0
 21 22  3  0
 23 24  1  0
 23 26  2  0
 24 25  1  0
 25 46  1  0
 25 47  1  0
 25 48  1  0
 26 49  1  0
 27 28  1  0
 27 50  1  0
 27 51  1  0
 28 52  1  0
 28 53  1  0
 29 30  2  0
 29 54  1  0
 30 55  1  0
M  END

