
     RDKit          3D

 27 28  0  0  0  0  0  0  0  0999 V2000
    5.5278   -3.6092    2.2620 N   0  0  0  0  0  0  0  0  0  0  0  0
    5.5575   -3.4395    0.8919 N   0  0  0  0  0  0  0  0  0  0  0  0
    4.6885   -2.6679    0.2587 C   0  0  0  0  0  0  0  0  0  0  0  0
    3.4767   -1.9078    1.2662 S   0  0  0  0  0  0  0  0  0  0  0  0
    4.7317   -2.5383   -1.0578 N   0  0  0  0  0  0  0  0  0  0  0  0
    5.8225   -3.0601   -1.7235 N   0  0  0  0  0  0  0  0  0  0  0  0
    6.8649   -2.0644   -2.0149 C   0  0  0  0  0  0  0  0  0  0  0  0
    7.0184   -1.1419   -1.2216 O   0  0  0  0  0  0  0  0  0  0  0  0
    7.5427   -2.3914   -3.2258 C   0  0  0  0  0  0  0  0  0  0  0  0
    8.6639   -1.7805   -3.8030 C   0  0  0  0  0  0  0  0  0  0  0  0
    8.9048   -2.4509   -4.9558 N   0  0  0  0  0  0  0  0  0  0  0  0
    9.8964   -2.2576   -5.9173 C   0  0  0  0  0  0  0  0  0  0  0  0
    9.8939   -3.1139   -7.0143 C   0  0  0  0  0  0  0  0  0  0  0  0
   10.8564   -2.9245   -7.9429 F   0  0  0  0  0  0  0  0  0  0  0  0
    8.9618   -4.1309   -7.1867 C   0  0  0  0  0  0  0  0  0  0  0  0
    7.9577   -4.3179   -6.2049 C   0  0  0  0  0  0  0  0  0  0  0  0
    7.9220   -3.4717   -5.0736 C   0  0  0  0  0  0  0  0  0  0  0  0
    7.0976   -3.4346   -4.0282 N   0  0  0  0  0  0  0  0  0  0  0  0
    4.7142   -4.1185    2.6010 H   0  0  0  0  0  0  0  0  0  0  0  0
    5.7519   -2.7658    2.7872 H   0  0  0  0  0  0  0  0  0  0  0  0
    6.3020   -3.8602    0.3347 H   0  0  0  0  0  0  0  0  0  0  0  0
    4.1703   -1.8107   -1.4991 H   0  0  0  0  0  0  0  0  0  0  0  0
    5.5865   -3.6069   -2.5582 H   0  0  0  0  0  0  0  0  0  0  0  0
    9.2760   -0.9465   -3.4724 H   0  0  0  0  0  0  0  0  0  0  0  0
   10.6142   -1.4557   -5.7699 H   0  0  0  0  0  0  0  0  0  0  0  0
    9.0231   -4.7631   -8.0727 H   0  0  0  0  0  0  0  0  0  0  0  0
    7.2052   -5.0987   -6.2900 H   0  0  0  0  0  0  0  0  0  0  0  0
  1  2  1  0
  1 19  1  0
  1 20  1  0
  2  3  1  0
  2 21  1  0
  3  4  2  0
  3  5  1  0
  5  6  1  0
  5 22  1  0
  6  7  1  0
  6 23  1  0
  7  8  2  0
  7  9  1  0
  9 10  2  0
  9 18  1  0
 10 11  1  0
 10 24  1  0
 11 12  1  0
 11 17  1  0
 12 13  2  0
 12 25  1  0
 13 14  1  0
 13 15  1  0
 15 16  2  0
 15 26  1  0
 16 17  1  0
 16 27  1  0
 17 18  2  0
M  END

