
     RDKit          3D

 31 31  0  0  0  0  0  0  0  0999 V2000
    1.0371   -0.2650   -0.4874 C   0  0  0  0  0  0  0  0  0  0  0  0
    2.2840   -0.0099   -0.0517 C   0  0  0  0  0  0  0  0  0  0  0  0
    2.9126   -1.0395    0.8740 C   0  0  0  0  0  0  0  0  0  0  0  0
    4.1121   -0.6202    1.7031 C   0  0  0  0  0  0  0  0  0  0  0  0
    2.4449   -2.1557    0.9720 O   0  0  0  0  0  0  0  0  0  0  0  0
    3.0035    1.2464   -0.4059 C   0  0  0  0  0  0  0  0  0  0  0  0
    2.4384    2.5006   -0.1423 C   0  0  0  0  0  0  0  0  0  0  0  0
    3.0980    3.6818   -0.4982 C   0  0  0  0  0  0  0  0  0  0  0  0
    4.3420    3.6259   -1.1389 C   0  0  0  0  0  0  0  0  0  0  0  0
    5.0501    4.7241   -1.5183 O   0  0  0  0  0  0  0  0  0  0  0  0
    4.5383    6.0090   -1.2466 C   0  0  0  0  0  0  0  0  0  0  0  0
    4.9408    2.3749   -1.4264 C   0  0  0  0  0  0  0  0  0  0  0  0
    6.2651    2.3098   -2.1544 C   0  0  0  0  0  0  0  0  0  0  0  0
    6.1478    2.5476   -3.6679 C   0  0  0  0  0  0  0  0  0  0  0  0
    4.2577    1.2181   -1.0493 C   0  0  0  0  0  0  0  0  0  0  0  0
    0.5362   -1.1881   -0.1845 H   0  0  0  0  0  0  0  0  0  0  0  0
    0.5088    0.4264   -1.1486 H   0  0  0  0  0  0  0  0  0  0  0  0
    3.9288    0.3424    2.2064 H   0  0  0  0  0  0  0  0  0  0  0  0
    4.9981   -0.4737    1.0656 H   0  0  0  0  0  0  0  0  0  0  0  0
    4.3236   -1.4049    2.4411 H   0  0  0  0  0  0  0  0  0  0  0  0
    1.4718    2.5598    0.3641 H   0  0  0  0  0  0  0  0  0  0  0  0
    2.6320    4.6399   -0.2679 H   0  0  0  0  0  0  0  0  0  0  0  0
    5.2741    6.7276   -1.6322 H   0  0  0  0  0  0  0  0  0  0  0  0
    4.4072    6.1776   -0.1625 H   0  0  0  0  0  0  0  0  0  0  0  0
    3.5709    6.1817   -1.7517 H   0  0  0  0  0  0  0  0  0  0  0  0
    6.7205    1.3222   -1.9732 H   0  0  0  0  0  0  0  0  0  0  0  0
    6.9488    3.0605   -1.7260 H   0  0  0  0  0  0  0  0  0  0  0  0
    5.4919    1.7977   -4.1387 H   0  0  0  0  0  0  0  0  0  0  0  0
    7.1357    2.4858   -4.1525 H   0  0  0  0  0  0  0  0  0  0  0  0
    5.7296    3.5437   -3.8771 H   0  0  0  0  0  0  0  0  0  0  0  0
    4.7136    0.2521   -1.2874 H   0  0  0  0  0  0  0  0  0  0  0  0
  1  2  2  0
  1 16  1  0
  1 17  1  0
  2  3  1  0
  2  6  1  0
  3  4  1  0
  3  5  2  0
  4 18  1  0
  4 19  1  0
  4 20  1  0
  6  7  2  0
  6 15  1  0
  7  8  1  0
  7 21  1  0
  8  9  2  0
  8 22  1  0
  9 10  1  0
  9 12  1  0
 10 11  1  0
 11 23  1  0
 11 24  1  0
 11 25  1  0
 12 13  1  0
 12 15  2  0
 13 14  1  0
 13 26  1  0
 13 27  1  0
 14 28  1  0
 14 29  1  0
 14 30  1  0
 15 31  1  0
M  END

