
     RDKit          3D

 67 70  0  0  0  0  0  0  0  0999 V2000
    1.0815    0.7964   -0.6813 C   0  0  0  0  0  0  0  0  0  0  0  0
    2.3229    0.3386   -0.2039 O   0  0  0  0  0  0  0  0  0  0  0  0
    2.8226   -0.8379   -0.6759 C   0  0  0  0  0  0  0  0  0  0  0  0
    4.0696   -1.2275   -0.1655 C   0  0  0  0  0  0  0  0  0  0  0  0
    4.6819   -2.4127   -0.5719 C   0  0  0  0  0  0  0  0  0  0  0  0
    6.0337   -2.8089   -0.0341 C   0  0  0  0  0  0  0  0  0  0  0  0
    4.0173   -3.2389   -1.5116 C   0  0  0  0  0  0  0  0  0  0  0  0
    4.6497   -4.3960   -2.0041 N   0  0  0  0  0  0  0  0  0  0  0  0
    4.6744   -5.5235   -1.4384 C   0  0  0  0  0  0  0  0  0  0  0  0
    5.4263   -6.5896   -1.8970 N   0  0  0  0  0  0  0  0  0  0  0  0
    6.4773   -6.3716   -2.7195 N   0  0  0  0  0  0  0  0  0  0  0  0
    7.0911   -7.3585   -3.2705 C   0  0  0  0  0  0  0  0  0  0  0  0
    6.8153   -8.8112   -3.2354 C   0  0  0  0  0  0  0  0  0  0  0  0
    5.5187   -9.3655   -3.2370 C   0  0  0  0  0  0  0  0  0  0  0  0
    5.3288  -10.7456   -3.2320 C   0  0  0  0  0  0  0  0  0  0  0  0
    6.4293  -11.6175   -3.2255 C   0  0  0  0  0  0  0  0  0  0  0  0
    6.2147  -13.0706   -3.2085 C   0  0  0  0  0  0  0  0  0  0  0  0
    4.9710  -13.6442   -3.2329 N   0  0  0  0  0  0  0  0  0  0  0  0
    5.2276  -14.9298   -3.2061 C   0  0  0  0  0  0  0  0  0  0  0  0
    6.5754  -15.1434   -3.1728 N   0  0  0  0  0  0  0  0  0  0  0  0
    7.2938  -16.3657   -3.1126 C   0  0  0  0  0  0  0  0  0  0  0  0
    6.6976  -17.5642   -3.5285 C   0  0  0  0  0  0  0  0  0  0  0  0
    7.4111  -18.7577   -3.4472 C   0  0  0  0  0  0  0  0  0  0  0  0
    8.7193  -18.7567   -2.9591 C   0  0  0  0  0  0  0  0  0  0  0  0
    9.3286  -20.0034   -2.8858 O   0  0  0  0  0  0  0  0  0  0  0  0
   10.6650  -20.1549   -3.0251 C   0  0  1  0  0  0  0  0  0  0  0  0
   11.1358  -19.5317   -4.1115 F   0  0  0  0  0  0  0  0  0  0  0  0
   11.3483  -19.6825   -1.9673 F   0  0  0  0  0  0  0  0  0  0  0  0
   10.9133  -21.4518   -3.1297 F   0  0  0  0  0  0  0  0  0  0  0  0
    9.3243  -17.5652   -2.5482 C   0  0  0  0  0  0  0  0  0  0  0  0
    8.6080  -16.3711   -2.6301 C   0  0  0  0  0  0  0  0  0  0  0  0
    7.2086  -13.9515   -3.1692 N   0  0  0  0  0  0  0  0  0  0  0  0
    7.7267  -11.0751   -3.2464 C   0  0  0  0  0  0  0  0  0  0  0  0
    7.9122   -9.6974   -3.2616 C   0  0  0  0  0  0  0  0  0  0  0  0
    3.6456   -5.9002    0.0425 S   0  0  0  0  0  0  0  0  0  0  0  0
    4.7572   -6.9212    1.0875 C   0  0  0  0  0  0  0  0  0  0  0  0
    4.7326   -8.4396    0.8601 C   0  0  0  0  0  0  0  0  0  0  0  0
    5.4866   -9.1704    1.4381 O   0  0  0  0  0  0  0  0  0  0  0  0
    3.8256   -8.8920   -0.0239 O   0  0  0  0  0  0  0  0  0  0  0  0
    2.7775   -2.8464   -2.0530 C   0  0  0  0  0  0  0  0  0  0  0  0
    2.1002   -3.7120   -3.0861 C   0  0  0  0  0  0  0  0  0  0  0  0
    2.1850   -1.6488   -1.6217 C   0  0  0  0  0  0  0  0  0  0  0  0
    0.8786    1.7479   -0.1706 H   0  0  0  0  0  0  0  0  0  0  0  0
    0.2628    0.0888   -0.4532 H   0  0  0  0  0  0  0  0  0  0  0  0
    1.0966    0.9749   -1.7725 H   0  0  0  0  0  0  0  0  0  0  0  0
    4.5582   -0.5699    0.5571 H   0  0  0  0  0  0  0  0  0  0  0  0
    6.4990   -1.9812    0.5203 H   0  0  0  0  0  0  0  0  0  0  0  0
    6.7107   -3.1143   -0.8480 H   0  0  0  0  0  0  0  0  0  0  0  0
    5.9576   -3.6685    0.6547 H   0  0  0  0  0  0  0  0  0  0  0  0
    5.1577   -7.5361   -1.6301 H   0  0  0  0  0  0  0  0  0  0  0  0
    7.9827   -7.0566   -3.8354 H   0  0  0  0  0  0  0  0  0  0  0  0
    4.6418   -8.7163   -3.2834 H   0  0  0  0  0  0  0  0  0  0  0  0
    4.3226  -11.1672   -3.2350 H   0  0  0  0  0  0  0  0  0  0  0  0
    4.4949  -15.7345   -3.1888 H   0  0  0  0  0  0  0  0  0  0  0  0
    5.6869  -17.5738   -3.9390 H   0  0  0  0  0  0  0  0  0  0  0  0
    6.9682  -19.7003   -3.7724 H   0  0  0  0  0  0  0  0  0  0  0  0
   10.3397  -17.5591   -2.1542 H   0  0  0  0  0  0  0  0  0  0  0  0
    9.0595  -15.4307   -2.3154 H   0  0  0  0  0  0  0  0  0  0  0  0
    8.5852  -11.7490   -3.2554 H   0  0  0  0  0  0  0  0  0  0  0  0
    8.9264   -9.2896   -3.2857 H   0  0  0  0  0  0  0  0  0  0  0  0
    4.4462   -6.7343    2.1276 H   0  0  0  0  0  0  0  0  0  0  0  0
    5.7970   -6.5751    1.0022 H   0  0  0  0  0  0  0  0  0  0  0  0
    3.2667   -8.1379   -0.3068 H   0  0  0  0  0  0  0  0  0  0  0  0
    2.8013   -3.9841   -3.8917 H   0  0  0  0  0  0  0  0  0  0  0  0
    1.2339   -3.2013   -3.5315 H   0  0  0  0  0  0  0  0  0  0  0  0
    1.7396   -4.6604   -2.6505 H   0  0  0  0  0  0  0  0  0  0  0  0
    1.2224   -1.3631   -2.0474 H   0  0  0  0  0  0  0  0  0  0  0  0
  1  2  1  0
  1 43  1  0
  1 44  1  0
  1 45  1  0
  2  3  1  0
  3  4  2  0
  3 42  1  0
  4  5  1  0
  4 46  1  0
  5  6  1  0
  5  7  2  0
  6 47  1  0
  6 48  1  0
  6 49  1  0
  7  8  1  0
  7 40  1  0
  8  9  2  0
  9 10  1  0
  9 35  1  0
 10 11  1  0
 10 50  1  0
 11 12  2  0
 12 13  1  0
 12 51  1  0
 13 14  2  0
 13 34  1  0
 14 15  1  0
 14 52  1  0
 15 16  2  0
 15 53  1  0
 16 17  1  0
 16 33  1  0
 17 18  1  0
 17 32  2  0
 18 19  2  0
 19 20  1  0
 19 54  1  0
 20 21  1  0
 20 32  1  0
 21 22  2  0
 21 31  1  0
 22 23  1  0
 22 55  1  0
 23 24  2  0
 23 56  1  0
 24 25  1  0
 24 30  1  0
 25 26  1  0
 26 27  1  6
 26 28  1  0
 26 29  1  0
 30 31  2  0
 30 57  1  0
 31 58  1  0
 33 34  2  0
 33 59  1  0
 34 60  1  0
 35 36  1  0
 36 37  1  0
 36 61  1  0
 36 62  1  0
 37 38  2  0
 37 39  1  0
 39 63  1  0
 40 41  1  0
 40 42  2  0
 41 64  1  0
 41 65  1  0
 41 66  1  0
 42 67  1  0
M  END

