
     RDKit          3D

 52 53  0  0  0  0  0  0  0  0999 V2000
    0.9679    0.2087    0.1871 C   0  0  0  0  0  0  0  0  0  0  0  0
    2.4763   -0.0316   -0.0367 C   0  0  1  0  0  0  0  0  0  0  0  0
    2.7151   -0.1872   -1.5524 C   0  0  0  0  0  0  0  0  0  0  0  0
    3.2134    1.2420    0.4361 C   0  0  0  0  0  0  0  0  0  0  0  0
    2.9611   -1.2448    0.8501 C   0  0  1  0  0  0  0  0  0  0  0  0
    2.0629   -2.5102    0.8656 C   0  0  0  0  0  0  0  0  0  0  0  0
    2.3059   -3.5175   -0.2666 C   0  0  0  0  0  0  0  0  0  0  0  0
    3.7809   -3.9255   -0.3247 C   0  0  0  0  0  0  0  0  0  0  0  0
    4.6834   -2.6934   -0.4475 C   0  0  0  0  0  0  0  0  0  0  0  0
    4.4594   -1.6506    0.6780 C   0  0  2  0  0  0  0  0  0  0  0  0
    4.9755   -2.0698    1.9895 N   0  0  0  0  0  0  0  0  0  0  0  0
    6.4133   -2.3016    2.1491 C   0  0  1  0  0  0  0  0  0  0  0  0
    7.2173   -0.9900    2.0472 C   0  0  0  0  0  0  0  0  0  0  0  0
    6.8777   -0.0160    3.1810 C   0  0  0  0  0  0  0  0  0  0  0  0
    7.1000   -0.6383    4.5837 C   0  0  2  0  0  0  0  0  0  0  0  0
    8.5976   -0.7312    4.8918 C   0  0  0  0  0  0  0  0  0  0  0  0
    9.1186    0.3587    5.5322 N   0  0  0  0  0  0  0  0  0  0  0  0
    9.2998   -1.6770    4.5703 O   0  0  0  0  0  0  0  0  0  0  0  0
    6.3838   -2.0002    4.6958 C   0  0  0  0  0  0  0  0  0  0  0  0
    6.6766   -2.9463    3.5214 C   0  0  0  0  0  0  0  0  0  0  0  0
    0.6626    1.1629   -0.2724 H   0  0  0  0  0  0  0  0  0  0  0  0
    0.7218    0.2628    1.2606 H   0  0  0  0  0  0  0  0  0  0  0  0
    0.3464   -0.5803   -0.2633 H   0  0  0  0  0  0  0  0  0  0  0  0
    2.3045    0.6861   -2.0864 H   0  0  0  0  0  0  0  0  0  0  0  0
    2.2233   -1.0811   -1.9639 H   0  0  0  0  0  0  0  0  0  0  0  0
    3.7855   -0.2410   -1.8026 H   0  0  0  0  0  0  0  0  0  0  0  0
    2.8837    2.1184   -0.1455 H   0  0  0  0  0  0  0  0  0  0  0  0
    4.3048    1.1642    0.3158 H   0  0  0  0  0  0  0  0  0  0  0  0
    3.0086    1.4495    1.4991 H   0  0  0  0  0  0  0  0  0  0  0  0
    2.9118   -0.8431    1.8751 H   0  0  0  0  0  0  0  0  0  0  0  0
    1.0007   -2.2292    0.9075 H   0  0  0  0  0  0  0  0  0  0  0  0
    2.2517   -3.0348    1.8208 H   0  0  0  0  0  0  0  0  0  0  0  0
    2.0053   -3.0883   -1.2378 H   0  0  0  0  0  0  0  0  0  0  0  0
    1.6664   -4.4038   -0.1145 H   0  0  0  0  0  0  0  0  0  0  0  0
    3.9641   -4.6156   -1.1654 H   0  0  0  0  0  0  0  0  0  0  0  0
    4.0380   -4.4900    0.5912 H   0  0  0  0  0  0  0  0  0  0  0  0
    4.5029   -2.2171   -1.4240 H   0  0  0  0  0  0  0  0  0  0  0  0
    5.7437   -2.9958   -0.4566 H   0  0  0  0  0  0  0  0  0  0  0  0
    5.0261   -0.7492    0.4023 H   0  0  0  0  0  0  0  0  0  0  0  0
    4.4652   -2.8850    2.3239 H   0  0  0  0  0  0  0  0  0  0  0  0
    6.8112   -2.9950    1.3774 H   0  0  0  0  0  0  0  0  0  0  0  0
    7.0469   -0.5010    1.0738 H   0  0  0  0  0  0  0  0  0  0  0  0
    8.2882   -1.2474    2.0795 H   0  0  0  0  0  0  0  0  0  0  0  0
    5.8171    0.2708    3.1016 H   0  0  0  0  0  0  0  0  0  0  0  0
    7.4720    0.9083    3.0835 H   0  0  0  0  0  0  0  0  0  0  0  0
    6.6532    0.0442    5.3279 H   0  0  0  0  0  0  0  0  0  0  0  0
    8.5523    1.1457    5.8164 H   0  0  0  0  0  0  0  0  0  0  0  0
   10.1150    0.3769    5.7162 H   0  0  0  0  0  0  0  0  0  0  0  0
    5.3008   -1.8008    4.7385 H   0  0  0  0  0  0  0  0  0  0  0  0
    6.6581   -2.4900    5.6446 H   0  0  0  0  0  0  0  0  0  0  0  0
    6.0648   -3.8614    3.6224 H   0  0  0  0  0  0  0  0  0  0  0  0
    7.7299   -3.2562    3.5649 H   0  0  0  0  0  0  0  0  0  0  0  0
  2  1  1  6
  1 21  1  0
  1 22  1  0
  1 23  1  0
  2  3  1  0
  2  4  1  0
  2  5  1  0
  3 24  1  0
  3 25  1  0
  3 26  1  0
  4 27  1  0
  4 28  1  0
  4 29  1  0
  5  6  1  0
  5 10  1  0
  5 30  1  1
  6  7  1  0
  6 31  1  0
  6 32  1  0
  7  8  1  0
  7 33  1  0
  7 34  1  0
  8  9  1  0
  8 35  1  0
  8 36  1  0
  9 10  1  0
  9 37  1  0
  9 38  1  0
 10 11  1  0
 10 39  1  6
 11 12  1  0
 11 40  1  0
 12 13  1  0
 12 20  1  0
 12 41  1  6
 13 14  1  0
 13 42  1  0
 13 43  1  0
 14 15  1  0
 14 44  1  0
 14 45  1  0
 15 16  1  0
 15 19  1  0
 15 46  1  1
 16 17  1  0
 16 18  2  0
 17 47  1  0
 17 48  1  0
 19 20  1  0
 19 49  1  0
 19 50  1  0
 20 51  1  0
 20 52  1  0
M  END

