
     RDKit          3D

 45 47  0  0  0  0  0  0  0  0999 V2000
    0.8532   -0.1505   -1.6408 N   0  0  0  0  0  0  0  0  0  0  0  0
    1.8572    0.3070   -0.6854 C   0  0  0  0  0  0  0  0  0  0  0  0
    2.5297    1.6043   -1.1719 C   0  0  1  0  0  0  0  0  0  0  0  0
    1.5359    2.7680   -1.3552 C   0  0  0  0  0  0  0  0  0  0  0  0
    1.0629    3.3671   -0.0228 C   0  0  0  0  0  0  0  0  0  0  0  0
    2.2449    3.7889    0.8602 C   0  0  0  0  0  0  0  0  0  0  0  0
    3.2345    2.6321    1.0675 C   0  0  0  0  0  0  0  0  0  0  0  0
    3.7137    2.0121   -0.2566 C   0  0  2  0  0  0  0  0  0  0  0  0
    4.6292    2.9317   -0.9343 N   0  0  0  0  0  0  0  0  0  0  0  0
    5.6070    2.4998   -1.7786 C   0  0  0  0  0  0  0  0  0  0  0  0
    5.8220    1.3157   -1.9938 O   0  0  0  0  0  0  0  0  0  0  0  0
    6.4060    3.6075   -2.4661 C   0  0  0  0  0  0  0  0  0  0  0  0
    7.7812    3.1140   -2.9080 C   0  0  0  0  0  0  0  0  0  0  0  0
    8.4594    4.0496   -3.8488 C   0  0  0  0  0  0  0  0  0  0  0  0
    7.9440    5.0022   -4.5669 N   0  0  0  0  0  0  0  0  0  0  0  0
    9.0374    5.4865   -5.2508 C   0  0  0  0  0  0  0  0  0  0  0  0
    8.9740    6.5823   -6.2018 C   0  0  0  0  0  0  0  0  0  0  0  0
    9.9362    7.1990   -6.9648 C   0  0  0  0  0  0  0  0  0  0  0  0
    9.2602    8.2146   -7.7078 C   0  0  0  0  0  0  0  0  0  0  0  0
    7.9439    8.1364   -7.3395 C   0  0  0  0  0  0  0  0  0  0  0  0
    7.7619    7.1534   -6.4302 O   0  0  0  0  0  0  0  0  0  0  0  0
   10.1651    4.8703   -4.9683 N   0  0  0  0  0  0  0  0  0  0  0  0
    9.7815    3.9166   -4.0351 O   0  0  0  0  0  0  0  0  0  0  0  0
    0.3483   -0.9568   -1.2747 H   0  0  0  0  0  0  0  0  0  0  0  0
    1.3033   -0.4619   -2.5029 H   0  0  0  0  0  0  0  0  0  0  0  0
    2.6576   -0.4374   -0.4832 H   0  0  0  0  0  0  0  0  0  0  0  0
    1.3477    0.4743    0.2790 H   0  0  0  0  0  0  0  0  0  0  0  0
    2.9723    1.3649   -2.1549 H   0  0  0  0  0  0  0  0  0  0  0  0
    0.6773    2.4079   -1.9413 H   0  0  0  0  0  0  0  0  0  0  0  0
    2.0224    3.5601   -1.9528 H   0  0  0  0  0  0  0  0  0  0  0  0
    0.4488    2.6284    0.5222 H   0  0  0  0  0  0  0  0  0  0  0  0
    0.4012    4.2291   -0.2111 H   0  0  0  0  0  0  0  0  0  0  0  0
    1.8907    4.1563    1.8378 H   0  0  0  0  0  0  0  0  0  0  0  0
    2.7595    4.6505    0.3923 H   0  0  0  0  0  0  0  0  0  0  0  0
    2.7446    1.8428    1.6618 H   0  0  0  0  0  0  0  0  0  0  0  0
    4.1091    2.9608    1.6535 H   0  0  0  0  0  0  0  0  0  0  0  0
    4.3084    1.1099   -0.0475 H   0  0  0  0  0  0  0  0  0  0  0  0
    4.4812    3.9286   -0.8355 H   0  0  0  0  0  0  0  0  0  0  0  0
    6.4926    4.4924   -1.8145 H   0  0  0  0  0  0  0  0  0  0  0  0
    5.8375    3.9373   -3.3524 H   0  0  0  0  0  0  0  0  0  0  0  0
    7.6615    2.1309   -3.3948 H   0  0  0  0  0  0  0  0  0  0  0  0
    8.4438    2.9343   -2.0463 H   0  0  0  0  0  0  0  0  0  0  0  0
   10.9933    6.9453   -6.9814 H   0  0  0  0  0  0  0  0  0  0  0  0
    9.6941    8.9112   -8.4218 H   0  0  0  0  0  0  0  0  0  0  0  0
    7.0546    8.6910   -7.6276 H   0  0  0  0  0  0  0  0  0  0  0  0
  1  2  1  0
  1 24  1  0
  1 25  1  0
  2  3  1  0
  2 26  1  0
  2 27  1  0
  3  4  1  0
  3  8  1  0
  3 28  1  6
  4  5  1  0
  4 29  1  0
  4 30  1  0
  5  6  1  0
  5 31  1  0
  5 32  1  0
  6  7  1  0
  6 33  1  0
  6 34  1  0
  7  8  1  0
  7 35  1  0
  7 36  1  0
  8  9  1  0
  8 37  1  1
  9 10  1  0
  9 38  1  0
 10 11  2  0
 10 12  1  0
 12 13  1  0
 12 39  1  0
 12 40  1  0
 13 14  1  0
 13 41  1  0
 13 42  1  0
 14 15  2  0
 14 23  1  0
 15 16  1  0
 16 17  1  0
 16 22  2  0
 17 18  2  0
 17 21  1  0
 18 19  1  0
 18 43  1  0
 19 20  2  0
 19 44  1  0
 20 21  1  0
 20 45  1  0
 22 23  1  0
M  END

