
     RDKit          3D

 43 45  0  0  0  0  0  0  0  0999 V2000
    1.0305    0.3443    1.8706 O   0  0  0  0  0  0  0  0  0  0  0  0
    1.9926    0.0791    1.2056 C   0  0  0  0  0  0  0  0  0  0  0  0
    2.1037    0.5100   -0.0656 O   0  0  0  0  0  0  0  0  0  0  0  0
    3.1380   -0.8081    1.7266 C   0  0  0  0  0  0  0  0  0  0  0  0
    4.4579   -0.6726    1.0062 C   0  0  0  0  0  0  0  0  0  0  0  0
    5.4009    0.2920    1.3977 C   0  0  0  0  0  0  0  0  0  0  0  0
    6.6053    0.4472    0.7136 C   0  0  0  0  0  0  0  0  0  0  0  0
    6.8879   -0.3599   -0.3989 C   0  0  0  0  0  0  0  0  0  0  0  0
    8.1182   -0.1972   -1.1062 N   0  0  0  0  0  0  0  0  0  0  0  0
    8.6811    1.0563   -1.4222 C   0  0  0  0  0  0  0  0  0  0  0  0
    8.2456    2.1237   -1.0742 O   0  0  0  0  0  0  0  0  0  0  0  0
    9.8890    0.7968   -2.2996 C   0  0  0  0  0  0  0  0  0  0  0  0
   10.2355   -0.6819   -2.0928 C   0  0  2  0  0  0  0  0  0  0  0  0
   10.7473   -1.3522   -3.2785 N   0  0  0  0  0  0  0  0  0  0  0  0
   11.8125   -0.6360   -3.9917 C   0  0  0  0  0  0  0  0  0  0  0  0
   13.1907   -0.7145   -3.3133 C   0  0  0  0  0  0  0  0  0  0  0  0
   13.5988   -2.1767   -3.0906 C   0  0  0  0  0  0  0  0  0  0  0  0
   12.4811   -2.9478   -2.3768 C   0  0  0  0  0  0  0  0  0  0  0  0
   11.1310   -2.7629   -3.0912 C   0  0  0  0  0  0  0  0  0  0  0  0
    8.9071   -1.2686   -1.5698 C   0  0  0  0  0  0  0  0  0  0  0  0
    8.5833   -2.4279   -1.4978 O   0  0  0  0  0  0  0  0  0  0  0  0
    5.9578   -1.3236   -0.8097 C   0  0  0  0  0  0  0  0  0  0  0  0
    4.7613   -1.4764   -0.1057 C   0  0  0  0  0  0  0  0  0  0  0  0
    2.9644    0.2496   -0.4329 H   0  0  0  0  0  0  0  0  0  0  0  0
    2.7671   -1.8451    1.6577 H   0  0  0  0  0  0  0  0  0  0  0  0
    3.2322   -0.5843    2.7986 H   0  0  0  0  0  0  0  0  0  0  0  0
    5.1930    0.9315    2.2599 H   0  0  0  0  0  0  0  0  0  0  0  0
    7.3202    1.2039    1.0330 H   0  0  0  0  0  0  0  0  0  0  0  0
   10.6896    1.5101   -2.0648 H   0  0  0  0  0  0  0  0  0  0  0  0
    9.5702    0.9672   -3.3416 H   0  0  0  0  0  0  0  0  0  0  0  0
   10.9209   -0.7527   -1.2137 H   0  0  0  0  0  0  0  0  0  0  0  0
   11.5197    0.4109   -4.1564 H   0  0  0  0  0  0  0  0  0  0  0  0
   11.8854   -1.0915   -4.9961 H   0  0  0  0  0  0  0  0  0  0  0  0
   13.1623   -0.1820   -2.3448 H   0  0  0  0  0  0  0  0  0  0  0  0
   13.9371   -0.1880   -3.9324 H   0  0  0  0  0  0  0  0  0  0  0  0
   14.5436   -2.2383   -2.5252 H   0  0  0  0  0  0  0  0  0  0  0  0
   13.7927   -2.6476   -4.0724 H   0  0  0  0  0  0  0  0  0  0  0  0
   12.4011   -2.6020   -1.3298 H   0  0  0  0  0  0  0  0  0  0  0  0
   12.7199   -4.0234   -2.3229 H   0  0  0  0  0  0  0  0  0  0  0  0
   10.3286   -3.2834   -2.5570 H   0  0  0  0  0  0  0  0  0  0  0  0
   11.1916   -3.2134   -4.0985 H   0  0  0  0  0  0  0  0  0  0  0  0
    6.1761   -1.9655   -1.6615 H   0  0  0  0  0  0  0  0  0  0  0  0
    4.0545   -2.2478   -0.4256 H   0  0  0  0  0  0  0  0  0  0  0  0
  1  2  2  0
  2  3  1  0
  2  4  1  0
  3 24  1  0
  4  5  1  0
  4 25  1  0
  4 26  1  0
  5  6  2  0
  5 23  1  0
  6  7  1  0
  6 27  1  0
  7  8  2  0
  7 28  1  0
  8  9  1  0
  8 22  1  0
  9 10  1  0
  9 20  1  0
 10 11  2  0
 10 12  1  0
 12 13  1  0
 12 29  1  0
 12 30  1  0
 13 14  1  0
 13 20  1  0
 13 31  1  1
 14 15  1  0
 14 19  1  0
 15 16  1  0
 15 32  1  0
 15 33  1  0
 16 17  1  0
 16 34  1  0
 16 35  1  0
 17 18  1  0
 17 36  1  0
 17 37  1  0
 18 19  1  0
 18 38  1  0
 18 39  1  0
 19 40  1  0
 19 41  1  0
 20 21  2  0
 22 23  2  0
 22 42  1  0
 23 43  1  0
M  END

