
     RDKit          3D

 57 59  0  0  0  0  0  0  0  0999 V2000
    2.6308   -4.3491    1.9498 C   0  0  0  0  0  0  0  0  0  0  0  0
    2.2211   -3.4633    0.7727 C   0  0  0  0  0  0  0  0  0  0  0  0
    2.8535   -2.0635    0.7663 C   0  0  0  0  0  0  0  0  0  0  0  0
    4.3192   -2.0524    0.6800 N   0  0  0  0  0  0  0  0  0  0  0  0
    4.8972   -2.2817   -0.6446 C   0  0  0  0  0  0  0  0  0  0  0  0
    4.8208   -1.0827   -1.6057 C   0  0  0  0  0  0  0  0  0  0  0  0
    5.6107    0.1507   -1.1693 C   0  0  0  0  0  0  0  0  0  0  0  0
    5.0266   -1.8563    1.8431 C   0  0  0  0  0  0  0  0  0  0  0  0
    4.4654   -1.7026    2.9196 O   0  0  0  0  0  0  0  0  0  0  0  0
    6.5612   -1.8783    1.7879 C   0  0  1  0  0  0  0  0  0  0  0  0
    7.2103   -1.0851    2.9196 C   0  0  0  0  0  0  0  0  0  0  0  0
    8.5191   -1.8073    3.1995 C   0  0  0  0  0  0  0  0  0  0  0  0
    9.4630   -1.3421    3.7976 O   0  0  0  0  0  0  0  0  0  0  0  0
    8.4161   -3.1011    2.6621 N   0  0  0  0  0  0  0  0  0  0  0  0
    9.3483   -4.1477    2.7691 C   0  0  0  0  0  0  0  0  0  0  0  0
   10.6563   -3.9125    3.2574 C   0  0  0  0  0  0  0  0  0  0  0  0
   11.5812   -5.0033    3.3432 C   0  0  0  0  0  0  0  0  0  0  0  0
   11.1724   -6.2990    2.9498 C   0  0  0  0  0  0  0  0  0  0  0  0
   12.0690   -7.3577    3.0452 N   0  0  0  0  0  0  0  0  0  0  0  0
   11.7230   -8.7543    2.7968 C   0  0  0  0  0  0  0  0  0  0  0  0
   12.9306   -9.5419    3.3165 C   0  0  0  0  0  0  0  0  0  0  0  0
   14.0966   -8.5713    3.0883 C   0  0  0  0  0  0  0  0  0  0  0  0
   13.4747   -7.2084    3.4106 C   0  0  0  0  0  0  0  0  0  0  0  0
    9.8649   -6.5417    2.4637 C   0  0  0  0  0  0  0  0  0  0  0  0
    8.9424   -5.4515    2.3625 C   0  0  0  0  0  0  0  0  0  0  0  0
    7.1162   -3.3024    2.0157 C   0  0  0  0  0  0  0  0  0  0  0  0
    2.0957   -5.3118    1.9216 H   0  0  0  0  0  0  0  0  0  0  0  0
    2.4172   -3.8622    2.9134 H   0  0  0  0  0  0  0  0  0  0  0  0
    3.7095   -4.5719    1.9305 H   0  0  0  0  0  0  0  0  0  0  0  0
    1.1260   -3.3192    0.7784 H   0  0  0  0  0  0  0  0  0  0  0  0
    2.4437   -3.9805   -0.1787 H   0  0  0  0  0  0  0  0  0  0  0  0
    2.5841   -1.5301    1.6871 H   0  0  0  0  0  0  0  0  0  0  0  0
    2.4531   -1.4872   -0.0838 H   0  0  0  0  0  0  0  0  0  0  0  0
    4.3677   -3.1348   -1.1021 H   0  0  0  0  0  0  0  0  0  0  0  0
    5.9404   -2.6073   -0.5391 H   0  0  0  0  0  0  0  0  0  0  0  0
    3.7631   -0.8083   -1.7611 H   0  0  0  0  0  0  0  0  0  0  0  0
    5.1833   -1.4308   -2.5889 H   0  0  0  0  0  0  0  0  0  0  0  0
    5.2738    0.5207   -0.1877 H   0  0  0  0  0  0  0  0  0  0  0  0
    5.4866    0.9732   -1.8910 H   0  0  0  0  0  0  0  0  0  0  0  0
    6.6904   -0.0617   -1.0973 H   0  0  0  0  0  0  0  0  0  0  0  0
    6.9362   -1.5020    0.8273 H   0  0  0  0  0  0  0  0  0  0  0  0
    6.5754   -1.1296    3.8204 H   0  0  0  0  0  0  0  0  0  0  0  0
    7.4005   -0.0270    2.6926 H   0  0  0  0  0  0  0  0  0  0  0  0
   10.9491   -2.9165    3.5681 H   0  0  0  0  0  0  0  0  0  0  0  0
   12.5656   -4.8275    3.7730 H   0  0  0  0  0  0  0  0  0  0  0  0
   11.5691   -8.9162    1.7121 H   0  0  0  0  0  0  0  0  0  0  0  0
   10.7777   -9.0095    3.2994 H   0  0  0  0  0  0  0  0  0  0  0  0
   13.0540  -10.5063    2.8026 H   0  0  0  0  0  0  0  0  0  0  0  0
   12.8112   -9.7494    4.3930 H   0  0  0  0  0  0  0  0  0  0  0  0
   14.4178   -8.6005    2.0337 H   0  0  0  0  0  0  0  0  0  0  0  0
   14.9767   -8.7876    3.7109 H   0  0  0  0  0  0  0  0  0  0  0  0
   13.9258   -6.3710    2.8570 H   0  0  0  0  0  0  0  0  0  0  0  0
   13.5589   -6.9678    4.4882 H   0  0  0  0  0  0  0  0  0  0  0  0
    9.5641   -7.5281    2.1150 H   0  0  0  0  0  0  0  0  0  0  0  0
    7.9248   -5.6556    2.0395 H   0  0  0  0  0  0  0  0  0  0  0  0
    6.4458   -3.8840    2.6730 H   0  0  0  0  0  0  0  0  0  0  0  0
    7.2460   -3.8654    1.0804 H   0  0  0  0  0  0  0  0  0  0  0  0
  1  2  1  0
  1 27  1  0
  1 28  1  0
  1 29  1  0
  2  3  1  0
  2 30  1  0
  2 31  1  0
  3  4  1  0
  3 32  1  0
  3 33  1  0
  4  5  1  0
  4  8  1  0
  5  6  1  0
  5 34  1  0
  5 35  1  0
  6  7  1  0
  6 36  1  0
  6 37  1  0
  7 38  1  0
  7 39  1  0
  7 40  1  0
  8  9  2  0
  8 10  1  0
 10 11  1  0
 10 26  1  0
 10 41  1  6
 11 12  1  0
 11 42  1  0
 11 43  1  0
 12 13  2  0
 12 14  1  0
 14 15  1  0
 14 26  1  0
 15 16  2  0
 15 25  1  0
 16 17  1  0
 16 44  1  0
 17 18  2  0
 17 45  1  0
 18 19  1  0
 18 24  1  0
 19 20  1  0
 19 23  1  0
 20 21  1  0
 20 46  1  0
 20 47  1  0
 21 22  1  0
 21 48  1  0
 21 49  1  0
 22 23  1  0
 22 50  1  0
 22 51  1  0
 23 52  1  0
 23 53  1  0
 24 25  2  0
 24 54  1  0
 25 55  1  0
 26 56  1  0
 26 57  1  0
M  END

