
     RDKit          3D

 48 49  0  0  0  0  0  0  0  0999 V2000
    0.9547    1.4727   -6.1722 C   0  0  0  0  0  0  0  0  0  0  0  0
    2.3222    1.7800   -6.2585 O   0  0  0  0  0  0  0  0  0  0  0  0
    2.8777    2.2607   -5.0655 C   0  0  0  0  0  0  0  0  0  0  0  0
    4.3522    2.5765   -5.3073 C   0  0  1  0  0  0  0  0  0  0  0  0
    4.5552    3.6496   -6.3697 C   0  0  0  0  0  0  0  0  0  0  0  0
    4.8688    2.9649   -4.0321 O   0  0  0  0  0  0  0  0  0  0  0  0
    6.2686    2.9710   -3.8951 C   0  0  0  0  0  0  0  0  0  0  0  0
    6.5354    3.2373   -2.4130 C   0  0  1  0  0  0  0  0  0  0  0  0
    5.8250    2.3321   -1.6134 O   0  0  0  0  0  0  0  0  0  0  0  0
    8.0182    3.0444   -2.0076 C   0  0  0  0  0  0  0  0  0  0  0  0
    8.9117    4.0188   -2.5821 N   0  0  0  0  0  0  0  0  0  0  0  0
    8.9390    5.3553   -1.9866 C   0  0  0  0  0  0  0  0  0  0  0  0
    8.7234    6.5340   -2.9658 C   0  0  0  0  0  0  0  0  0  0  0  0
    9.9126    6.9050   -3.8043 C   0  0  0  0  0  0  0  0  0  0  0  0
   10.4701    8.1753   -3.7316 C   0  0  0  0  0  0  0  0  0  0  0  0
   11.5911    8.5599   -4.4925 C   0  0  0  0  0  0  0  0  0  0  0  0
   12.1641    7.5831   -5.3926 C   0  0  0  0  0  0  0  0  0  0  0  0
   11.6288    6.3144   -5.4716 C   0  0  0  0  0  0  0  0  0  0  0  0
   10.5154    5.9004   -4.6825 C   0  0  0  0  0  0  0  0  0  0  0  0
    9.8720    4.5671   -4.8867 C   0  0  0  0  0  0  0  0  0  0  0  0
    9.8095    3.6204   -3.6676 C   0  0  0  0  0  0  0  0  0  0  0  0
    0.6294    1.1124   -7.1587 H   0  0  0  0  0  0  0  0  0  0  0  0
    0.3477    2.3597   -5.9009 H   0  0  0  0  0  0  0  0  0  0  0  0
    0.7554    0.6802   -5.4229 H   0  0  0  0  0  0  0  0  0  0  0  0
    2.7983    1.5100   -4.2515 H   0  0  0  0  0  0  0  0  0  0  0  0
    2.3589    3.1787   -4.7158 H   0  0  0  0  0  0  0  0  0  0  0  0
    4.8502    1.6395   -5.6278 H   0  0  0  0  0  0  0  0  0  0  0  0
    4.1186    4.6047   -6.0360 H   0  0  0  0  0  0  0  0  0  0  0  0
    4.0528    3.3397   -7.2969 H   0  0  0  0  0  0  0  0  0  0  0  0
    5.6199    3.8125   -6.5965 H   0  0  0  0  0  0  0  0  0  0  0  0
    6.7474    3.7457   -4.5230 H   0  0  0  0  0  0  0  0  0  0  0  0
    6.6924    1.9872   -4.1855 H   0  0  0  0  0  0  0  0  0  0  0  0
    6.2395    4.2828   -2.1929 H   0  0  0  0  0  0  0  0  0  0  0  0
    4.9604    2.2280   -2.0425 H   0  0  0  0  0  0  0  0  0  0  0  0
    8.3361    2.0322   -2.2874 H   0  0  0  0  0  0  0  0  0  0  0  0
    8.0476    3.1337   -0.9102 H   0  0  0  0  0  0  0  0  0  0  0  0
    9.9285    5.4596   -1.5088 H   0  0  0  0  0  0  0  0  0  0  0  0
    8.1797    5.3566   -1.1916 H   0  0  0  0  0  0  0  0  0  0  0  0
    8.4405    7.3836   -2.3238 H   0  0  0  0  0  0  0  0  0  0  0  0
    7.8140    6.3026   -3.5596 H   0  0  0  0  0  0  0  0  0  0  0  0
   10.0136    8.9084   -3.0537 H   0  0  0  0  0  0  0  0  0  0  0  0
   12.0001    9.5680   -4.4176 H   0  0  0  0  0  0  0  0  0  0  0  0
   13.0259    7.8479   -6.0116 H   0  0  0  0  0  0  0  0  0  0  0  0
   12.0743    5.5925   -6.1682 H   0  0  0  0  0  0  0  0  0  0  0  0
   10.4495    3.9936   -5.6311 H   0  0  0  0  0  0  0  0  0  0  0  0
    8.8365    4.6059   -5.3085 H   0  0  0  0  0  0  0  0  0  0  0  0
   10.8151    3.5521   -3.2126 H   0  0  0  0  0  0  0  0  0  0  0  0
    9.5046    2.6048   -3.9641 H   0  0  0  0  0  0  0  0  0  0  0  0
  1  2  1  0
  1 22  1  0
  1 23  1  0
  1 24  1  0
  2  3  1  0
  3  4  1  0
  3 25  1  0
  3 26  1  0
  4  5  1  0
  4  6  1  0
  4 27  1  6
  5 28  1  0
  5 29  1  0
  5 30  1  0
  6  7  1  0
  7  8  1  0
  7 31  1  0
  7 32  1  0
  8  9  1  0
  8 10  1  0
  8 33  1  1
  9 34  1  0
 10 11  1  0
 10 35  1  0
 10 36  1  0
 11 12  1  0
 11 21  1  0
 12 13  1  0
 12 37  1  0
 12 38  1  0
 13 14  1  0
 13 39  1  0
 13 40  1  0
 14 15  2  0
 14 19  1  0
 15 16  1  0
 15 41  1  0
 16 17  2  0
 16 42  1  0
 17 18  1  0
 17 43  1  0
 18 19  2  0
 18 44  1  0
 19 20  1  0
 20 21  1  0
 20 45  1  0
 20 46  1  0
 21 47  1  0
 21 48  1  0
M  END

