
     RDKit          3D

 62 64  0  0  0  0  0  0  0  0999 V2000
    5.2252   -2.8271    1.2998 C   0  0  0  0  0  0  0  0  0  0  0  0
    6.0410   -1.6569    1.3411 O   0  0  0  0  0  0  0  0  0  0  0  0
    5.4063   -0.4789    1.1547 C   0  0  0  0  0  0  0  0  0  0  0  0
    4.2138   -0.4039    0.9735 O   0  0  0  0  0  0  0  0  0  0  0  0
    6.3738    0.6839    1.1945 C   0  0  0  0  0  0  0  0  0  0  0  0
    6.7092    1.2831   -0.2105 C   0  0  1  0  0  0  0  0  0  0  0  0
    7.1103    0.1372   -1.1715 C   0  0  0  0  0  0  0  0  0  0  0  0
    5.4428    1.9753   -0.7617 C   0  0  0  0  0  0  0  0  0  0  0  0
    5.7079    2.7087   -2.0722 C   0  0  0  0  0  0  0  0  0  0  0  0
    6.7499    3.7937   -1.8312 C   0  0  0  0  0  0  0  0  0  0  0  0
    8.1022    3.3362   -1.2228 C   0  0  2  0  0  0  0  0  0  0  0  0
    8.7651    4.6611   -0.7465 C   0  0  0  0  0  0  0  0  0  0  0  0
    9.0580    2.6837   -2.2334 C   0  0  0  0  0  0  0  0  0  0  0  0
    8.8728    2.7057   -3.6213 C   0  0  0  0  0  0  0  0  0  0  0  0
    9.8080    2.1362   -4.4920 C   0  0  0  0  0  0  0  0  0  0  0  0
   10.9679    1.5190   -4.0095 C   0  0  0  0  0  0  0  0  0  0  0  0
   11.9817    0.8956   -4.9607 C   0  0  2  0  0  0  0  0  0  0  0  0
   12.1233   -0.6207   -4.7417 C   0  0  0  0  0  0  0  0  0  0  0  0
   13.3480    1.5993   -4.8903 C   0  0  0  0  0  0  0  0  0  0  0  0
   11.1529    1.4971   -2.6180 C   0  0  0  0  0  0  0  0  0  0  0  0
   10.2311    2.0701   -1.7359 C   0  0  0  0  0  0  0  0  0  0  0  0
   10.4614    2.0395   -0.2434 C   0  0  0  0  0  0  0  0  0  0  0  0
    9.1669    1.6450    0.4778 C   0  0  1  0  0  0  0  0  0  0  0  0
    9.3237    1.6431    1.9232 O   0  0  0  0  0  0  0  0  0  0  0  0
    9.5644    2.7673    2.6232 C   0  0  0  0  0  0  0  0  0  0  0  0
    9.6614    2.4616    4.0999 C   0  0  0  0  0  0  0  0  0  0  0  0
    9.6777    3.8664    2.1377 O   0  0  0  0  0  0  0  0  0  0  0  0
    7.8602    2.3533   -0.0019 C   0  0  2  0  0  0  0  0  0  0  0  0
    5.8978   -3.6766    1.4720 H   0  0  0  0  0  0  0  0  0  0  0  0
    4.7287   -2.9256    0.3222 H   0  0  0  0  0  0  0  0  0  0  0  0
    4.4483   -2.7911    2.0786 H   0  0  0  0  0  0  0  0  0  0  0  0
    7.2882    0.3502    1.7004 H   0  0  0  0  0  0  0  0  0  0  0  0
    5.9103    1.4705    1.8109 H   0  0  0  0  0  0  0  0  0  0  0  0
    7.5762    0.5086   -2.0932 H   0  0  0  0  0  0  0  0  0  0  0  0
    6.2172   -0.4394   -1.4608 H   0  0  0  0  0  0  0  0  0  0  0  0
    7.8078   -0.5768   -0.7103 H   0  0  0  0  0  0  0  0  0  0  0  0
    5.0821    2.7066   -0.0154 H   0  0  0  0  0  0  0  0  0  0  0  0
    4.6388    1.2319   -0.8675 H   0  0  0  0  0  0  0  0  0  0  0  0
    4.7759    3.1686   -2.4419 H   0  0  0  0  0  0  0  0  0  0  0  0
    6.0336    2.0044   -2.8551 H   0  0  0  0  0  0  0  0  0  0  0  0
    6.3111    4.5151   -1.1203 H   0  0  0  0  0  0  0  0  0  0  0  0
    6.9447    4.3761   -2.7454 H   0  0  0  0  0  0  0  0  0  0  0  0
    8.8118    5.3591   -1.5976 H   0  0  0  0  0  0  0  0  0  0  0  0
    9.7783    4.5424   -0.3542 H   0  0  0  0  0  0  0  0  0  0  0  0
    8.1681    5.1291    0.0509 H   0  0  0  0  0  0  0  0  0  0  0  0
    7.9850    3.1724   -4.0498 H   0  0  0  0  0  0  0  0  0  0  0  0
    9.6255    2.1724   -5.5703 H   0  0  0  0  0  0  0  0  0  0  0  0
   11.5892    1.0443   -5.9818 H   0  0  0  0  0  0  0  0  0  0  0  0
   12.5277   -0.8469   -3.7411 H   0  0  0  0  0  0  0  0  0  0  0  0
   12.8099   -1.0611   -5.4835 H   0  0  0  0  0  0  0  0  0  0  0  0
   11.1513   -1.1307   -4.8317 H   0  0  0  0  0  0  0  0  0  0  0  0
   13.8132    1.4788   -3.8979 H   0  0  0  0  0  0  0  0  0  0  0  0
   13.2523    2.6790   -5.0843 H   0  0  0  0  0  0  0  0  0  0  0  0
   14.0435    1.1787   -5.6353 H   0  0  0  0  0  0  0  0  0  0  0  0
   12.0445    1.0213   -2.1982 H   0  0  0  0  0  0  0  0  0  0  0  0
   10.8163    3.0148    0.1165 H   0  0  0  0  0  0  0  0  0  0  0  0
   11.2430    1.3058    0.0084 H   0  0  0  0  0  0  0  0  0  0  0  0
    9.0477    0.5739    0.2879 H   0  0  0  0  0  0  0  0  0  0  0  0
   10.3997    1.6651    4.2766 H   0  0  0  0  0  0  0  0  0  0  0  0
    8.6909    2.0921    4.4669 H   0  0  0  0  0  0  0  0  0  0  0  0
    9.9421    3.3708    4.6450 H   0  0  0  0  0  0  0  0  0  0  0  0
    7.5174    2.9987    0.8214 H   0  0  0  0  0  0  0  0  0  0  0  0
  1  2  1  0
  1 29  1  0
  1 30  1  0
  1 31  1  0
  2  3  1  0
  3  4  2  0
  3  5  1  0
  6  5  1  1
  5 32  1  0
  5 33  1  0
  6  7  1  0
  6  8  1  0
  6 28  1  0
  7 34  1  0
  7 35  1  0
  7 36  1  0
  8  9  1  0
  8 37  1  0
  8 38  1  0
  9 10  1  0
  9 39  1  0
  9 40  1  0
 10 11  1  0
 10 41  1  0
 10 42  1  0
 11 12  1  1
 11 13  1  0
 11 28  1  0
 12 43  1  0
 12 44  1  0
 12 45  1  0
 13 14  2  0
 13 21  1  0
 14 15  1  0
 14 46  1  0
 15 16  2  0
 15 47  1  0
 16 17  1  0
 16 20  1  0
 17 18  1  0
 17 19  1  0
 17 48  1  6
 18 49  1  0
 18 50  1  0
 18 51  1  0
 19 52  1  0
 19 53  1  0
 19 54  1  0
 20 21  2  0
 20 55  1  0
 21 22  1  0
 22 23  1  0
 22 56  1  0
 22 57  1  0
 23 24  1  0
 23 28  1  0
 23 58  1  6
 24 25  1  0
 25 26  1  0
 25 27  2  0
 26 59  1  0
 26 60  1  0
 26 61  1  0
 28 62  1  1
M  END

