
     RDKit          3D

 75 81  0  0  0  0  0  0  0  0999 V2000
    2.4553    2.0118    1.2641 O   0  0  0  0  0  0  0  0  0  0  0  0
    2.9602    1.0577    0.6913 C   0  0  0  0  0  0  0  0  0  0  0  0
    3.0991    1.0904   -0.8454 C   0  0  0  0  0  0  0  0  0  0  0  0
    2.2151    2.0930   -1.4180 N   0  0  0  0  0  0  0  0  0  0  0  0
    1.0143    1.8244   -1.9591 C   0  0  0  0  0  0  0  0  0  0  0  0
    0.5310    0.4297   -2.0541 C   0  0  0  0  0  0  0  0  0  0  0  0
    0.7050   -0.3047   -3.2395 C   0  0  0  0  0  0  0  0  0  0  0  0
    0.3360   -1.6469   -3.2992 C   0  0  0  0  0  0  0  0  0  0  0  0
   -0.2198   -2.3264   -2.1676 C   0  0  0  0  0  0  0  0  0  0  0  0
   -0.5459   -3.6227   -2.2704 N   0  0  0  0  0  0  0  0  0  0  0  0
   -1.0690   -4.2800   -1.1955 C   0  0  0  0  0  0  0  0  0  0  0  0
   -1.3986   -5.7029   -1.3794 C   0  0  0  0  0  0  0  0  0  0  0  0
   -1.1564   -6.3218   -2.6307 C   0  0  0  0  0  0  0  0  0  0  0  0
   -1.4548   -7.6657   -2.8407 C   0  0  0  0  0  0  0  0  0  0  0  0
   -2.0060   -8.4546   -1.8226 C   0  0  0  0  0  0  0  0  0  0  0  0
   -2.2431   -7.8402   -0.5931 C   0  0  0  0  0  0  0  0  0  0  0  0
   -2.7746   -8.5741    0.4085 F   0  0  0  0  0  0  0  0  0  0  0  0
   -1.9559   -6.5045   -0.3545 C   0  0  0  0  0  0  0  0  0  0  0  0
   -1.2756   -3.6093    0.0290 C   0  0  0  0  0  0  0  0  0  0  0  0
   -0.9503   -2.2672    0.1661 C   0  0  0  0  0  0  0  0  0  0  0  0
   -0.3962   -1.5617   -0.9486 C   0  0  0  0  0  0  0  0  0  0  0  0
   -0.0100   -0.2079   -0.9103 C   0  0  0  0  0  0  0  0  0  0  0  0
    0.4203    3.0652   -2.4307 C   0  0  0  0  0  0  0  0  0  0  0  0
   -0.9110    3.0773   -3.1346 C   0  0  1  0  0  0  0  0  0  0  0  0
   -2.0794    2.5326   -2.2543 C   0  0  0  0  0  0  0  0  0  0  0  0
   -2.6420    3.5775   -1.2861 C   0  0  0  0  0  0  0  0  0  0  0  0
   -3.1203    4.8254   -2.0344 C   0  0  0  0  0  0  0  0  0  0  0  0
   -1.9813    5.4291   -2.8634 C   0  0  0  0  0  0  0  0  0  0  0  0
   -1.3434    4.3970   -3.8101 C   0  0  0  0  0  0  0  0  0  0  0  0
    1.3812    4.0900   -2.1543 C   0  0  0  0  0  0  0  0  0  0  0  0
    1.4610    5.4820   -2.3991 C   0  0  0  0  0  0  0  0  0  0  0  0
    2.5770    6.1973   -1.9572 C   0  0  0  0  0  0  0  0  0  0  0  0
    3.6168    5.5571   -1.2740 C   0  0  0  0  0  0  0  0  0  0  0  0
    3.5782    4.1683   -1.0274 C   0  0  0  0  0  0  0  0  0  0  0  0
    2.4788    3.4703   -1.4847 C   0  0  0  0  0  0  0  0  0  0  0  0
    3.4492   -0.0380    1.3327 N   0  0  0  0  0  0  0  0  0  0  0  0
    3.3821   -0.0967    2.7968 C   0  0  0  0  0  0  0  0  0  0  0  0
    2.7332   -1.4082    3.2353 C   0  0  0  0  0  0  0  0  0  0  0  0
    3.4028   -2.5188    2.6740 O   0  0  0  0  0  0  0  0  0  0  0  0
    3.3634   -2.4901    1.2630 C   0  0  0  0  0  0  0  0  0  0  0  0
    4.0460   -1.2284    0.7232 C   0  0  0  0  0  0  0  0  0  0  0  0
    2.8337    0.1362   -1.3111 H   0  0  0  0  0  0  0  0  0  0  0  0
    4.1380    1.3328   -1.1202 H   0  0  0  0  0  0  0  0  0  0  0  0
    1.1362    0.1738   -4.1241 H   0  0  0  0  0  0  0  0  0  0  0  0
    0.4602   -2.2240   -4.2169 H   0  0  0  0  0  0  0  0  0  0  0  0
   -0.7289   -5.7055   -3.4208 H   0  0  0  0  0  0  0  0  0  0  0  0
   -1.2567   -8.1157   -3.8178 H   0  0  0  0  0  0  0  0  0  0  0  0
   -2.2496   -9.5091   -1.9612 H   0  0  0  0  0  0  0  0  0  0  0  0
   -2.1767   -6.1106    0.6378 H   0  0  0  0  0  0  0  0  0  0  0  0
   -1.6984   -4.1412    0.8828 H   0  0  0  0  0  0  0  0  0  0  0  0
   -1.1223   -1.7436    1.1100 H   0  0  0  0  0  0  0  0  0  0  0  0
   -0.1385    0.3526    0.0205 H   0  0  0  0  0  0  0  0  0  0  0  0
   -0.7814    2.3258   -3.9348 H   0  0  0  0  0  0  0  0  0  0  0  0
   -1.7674    1.6251   -1.7234 H   0  0  0  0  0  0  0  0  0  0  0  0
   -2.8785    2.2214   -2.9481 H   0  0  0  0  0  0  0  0  0  0  0  0
   -1.8722    3.8615   -0.5448 H   0  0  0  0  0  0  0  0  0  0  0  0
   -3.4700    3.1297   -0.7126 H   0  0  0  0  0  0  0  0  0  0  0  0
   -3.5157    5.5766   -1.3309 H   0  0  0  0  0  0  0  0  0  0  0  0
   -3.9581    4.5502   -2.7011 H   0  0  0  0  0  0  0  0  0  0  0  0
   -1.2298    5.8356   -2.1658 H   0  0  0  0  0  0  0  0  0  0  0  0
   -2.3446    6.2860   -3.4555 H   0  0  0  0  0  0  0  0  0  0  0  0
   -0.5064    4.8395   -4.3747 H   0  0  0  0  0  0  0  0  0  0  0  0
   -2.0969    4.1259   -4.5689 H   0  0  0  0  0  0  0  0  0  0  0  0
    0.6686    6.0044   -2.9288 H   0  0  0  0  0  0  0  0  0  0  0  0
    2.6349    7.2708   -2.1453 H   0  0  0  0  0  0  0  0  0  0  0  0
    4.4745    6.1354   -0.9248 H   0  0  0  0  0  0  0  0  0  0  0  0
    4.3848    3.6792   -0.4819 H   0  0  0  0  0  0  0  0  0  0  0  0
    2.8151    0.7743    3.1478 H   0  0  0  0  0  0  0  0  0  0  0  0
    4.4080   -0.0406    3.2051 H   0  0  0  0  0  0  0  0  0  0  0  0
    1.6647   -1.4116    2.9407 H   0  0  0  0  0  0  0  0  0  0  0  0
    2.7916   -1.5124    4.3293 H   0  0  0  0  0  0  0  0  0  0  0  0
    2.3182   -2.5301    0.8984 H   0  0  0  0  0  0  0  0  0  0  0  0
    3.8908   -3.3859    0.9027 H   0  0  0  0  0  0  0  0  0  0  0  0
    3.9597   -1.2013   -0.3695 H   0  0  0  0  0  0  0  0  0  0  0  0
    5.1221   -1.2610    0.9766 H   0  0  0  0  0  0  0  0  0  0  0  0
  1  2  2  0
  2  3  1  0
  2 36  1  0
  3  4  1  0
  3 42  1  0
  3 43  1  0
  4  5  1  0
  4 35  1  0
  5  6  1  0
  5 23  2  0
  6  7  2  0
  6 22  1  0
  7  8  1  0
  7 44  1  0
  8  9  2  0
  8 45  1  0
  9 10  1  0
  9 21  1  0
 10 11  2  0
 11 12  1  0
 11 19  1  0
 12 13  2  0
 12 18  1  0
 13 14  1  0
 13 46  1  0
 14 15  2  0
 14 47  1  0
 15 16  1  0
 15 48  1  0
 16 17  1  0
 16 18  2  0
 18 49  1  0
 19 20  2  0
 19 50  1  0
 20 21  1  0
 20 51  1  0
 21 22  2  0
 22 52  1  0
 23 24  1  0
 23 30  1  0
 24 25  1  0
 24 29  1  0
 24 53  1  6
 25 26  1  0
 25 54  1  0
 25 55  1  0
 26 27  1  0
 26 56  1  0
 26 57  1  0
 27 28  1  0
 27 58  1  0
 27 59  1  0
 28 29  1  0
 28 60  1  0
 28 61  1  0
 29 62  1  0
 29 63  1  0
 30 31  2  0
 30 35  1  0
 31 32  1  0
 31 64  1  0
 32 33  2  0
 32 65  1  0
 33 34  1  0
 33 66  1  0
 34 35  2  0
 34 67  1  0
 36 37  1  0
 36 41  1  0
 37 38  1  0
 37 68  1  0
 37 69  1  0
 38 39  1  0
 38 70  1  0
 38 71  1  0
 39 40  1  0
 40 41  1  0
 40 72  1  0
 40 73  1  0
 41 74  1  0
 41 75  1  0
M  END

