
     RDKit          3D

 36 38  0  0  0  0  0  0  0  0999 V2000
    0.6826   -0.5769    1.3053 C   0  0  0  0  0  0  0  0  0  0  0  0
    2.0940   -0.6692    1.1641 O   0  0  0  0  0  0  0  0  0  0  0  0
    2.8567    0.1481    1.9104 C   0  0  0  0  0  0  0  0  0  0  0  0
    4.2561    0.0507    1.7515 C   0  0  0  0  0  0  0  0  0  0  0  0
    5.0530    0.8940    2.5068 C   0  0  0  0  0  0  0  0  0  0  0  0
    4.4654    1.8071    3.4143 C   0  0  0  0  0  0  0  0  0  0  0  0
    5.2684    2.7423    4.2242 C   0  0  0  0  0  0  0  0  0  0  0  0
    5.2925    4.1447    4.2297 C   0  0  0  0  0  0  0  0  0  0  0  0
    4.5307    5.0430    3.2811 C   0  0  1  0  0  0  0  0  0  0  0  0
    3.9946    6.3114    3.9483 C   0  0  0  0  0  0  0  0  0  0  0  0
    5.3223    5.3642    2.1374 O   0  0  0  0  0  0  0  0  0  0  0  0
    6.2571    4.5661    5.1775 C   0  0  0  0  0  0  0  0  0  0  0  0
    6.8194    3.4263    5.7530 C   0  0  0  0  0  0  0  0  0  0  0  0
    7.8030    3.1982    6.7502 C   0  0  0  0  0  0  0  0  0  0  0  0
    8.1276    1.9165    7.1251 C   0  0  0  0  0  0  0  0  0  0  0  0
    7.4600    0.8120    6.5121 C   0  0  0  0  0  0  0  0  0  0  0  0
    6.5118    1.0237    5.5503 C   0  0  0  0  0  0  0  0  0  0  0  0
    6.1981    2.3068    5.1559 N   0  0  0  0  0  0  0  0  0  0  0  0
    3.0657    1.7948    3.4857 C   0  0  0  0  0  0  0  0  0  0  0  0
    2.2830    0.9966    2.7508 N   0  0  0  0  0  0  0  0  0  0  0  0
    0.2618   -1.3178    0.6128 H   0  0  0  0  0  0  0  0  0  0  0  0
    0.3196    0.4308    1.0489 H   0  0  0  0  0  0  0  0  0  0  0  0
    0.3676   -0.8000    2.3368 H   0  0  0  0  0  0  0  0  0  0  0  0
    4.6703   -0.6623    1.0371 H   0  0  0  0  0  0  0  0  0  0  0  0
    6.1395    0.8660    2.3904 H   0  0  0  0  0  0  0  0  0  0  0  0
    3.6775    4.4796    2.8728 H   0  0  0  0  0  0  0  0  0  0  0  0
    4.8160    6.9265    4.3522 H   0  0  0  0  0  0  0  0  0  0  0  0
    3.3112    6.0732    4.7789 H   0  0  0  0  0  0  0  0  0  0  0  0
    3.4548    6.9190    3.2065 H   0  0  0  0  0  0  0  0  0  0  0  0
    6.1853    5.6596    2.4585 H   0  0  0  0  0  0  0  0  0  0  0  0
    6.5269    5.5882    5.4353 H   0  0  0  0  0  0  0  0  0  0  0  0
    8.2859    4.0647    7.2068 H   0  0  0  0  0  0  0  0  0  0  0  0
    8.8851    1.7367    7.8905 H   0  0  0  0  0  0  0  0  0  0  0  0
    7.6925   -0.2129    6.8059 H   0  0  0  0  0  0  0  0  0  0  0  0
    5.9629    0.2209    5.0587 H   0  0  0  0  0  0  0  0  0  0  0  0
    2.5543    2.4699    4.1814 H   0  0  0  0  0  0  0  0  0  0  0  0
  1  2  1  0
  1 21  1  0
  1 22  1  0
  1 23  1  0
  2  3  1  0
  3  4  2  0
  3 20  1  0
  4  5  1  0
  4 24  1  0
  5  6  2  0
  5 25  1  0
  6  7  1  0
  6 19  1  0
  7  8  2  0
  7 18  1  0
  8  9  1  0
  8 12  1  0
  9 10  1  0
  9 11  1  0
  9 26  1  6
 10 27  1  0
 10 28  1  0
 10 29  1  0
 11 30  1  0
 12 13  2  0
 12 31  1  0
 13 14  1  0
 13 18  1  0
 14 15  2  0
 14 32  1  0
 15 16  1  0
 15 33  1  0
 16 17  2  0
 16 34  1  0
 17 18  1  0
 17 35  1  0
 19 20  2  0
 19 36  1  0
M  END

