
     RDKit          3D

 51 51  0  0  0  0  0  0  0  0999 V2000
    1.3815    0.4674   -0.8734 C   0  0  0  0  0  0  0  0  0  0  0  0
    2.5998   -0.0830   -0.1481 C   0  0  0  0  0  0  0  0  0  0  0  0
    3.6279   -0.5377   -1.0331 N   0  0  0  0  0  0  0  0  0  0  0  0
    4.9789   -0.9567   -0.6363 C   0  0  1  0  0  0  0  0  0  0  0  0
    5.0993   -1.3227    0.8116 C   0  0  0  0  0  0  0  0  0  0  0  0
    5.6482   -0.4170    1.7210 C   0  0  0  0  0  0  0  0  0  0  0  0
    5.7912   -0.6087    3.0278 N   0  0  0  0  0  0  0  0  0  0  0  0
    5.3559   -1.8363    3.5062 C   0  0  0  0  0  0  0  0  0  0  0  0
    4.7960   -2.8237    2.6941 C   0  0  0  0  0  0  0  0  0  0  0  0
    4.4260   -3.9813    3.3321 O   0  0  0  0  0  0  0  0  0  0  0  0
    3.8807   -5.0438    2.5892 C   0  0  0  0  0  0  0  0  0  0  0  0
    3.5913   -6.1901    3.5425 C   0  0  0  0  0  0  0  0  0  0  0  0
    4.6276   -2.6177    1.3107 C   0  0  0  0  0  0  0  0  0  0  0  0
    5.4870   -1.9964   -1.7013 C   0  0  1  0  0  0  0  0  0  0  0  0
    4.7614   -1.7863   -2.9261 O   0  0  0  0  0  0  0  0  0  0  0  0
    4.0404   -2.9035   -3.4366 C   0  0  0  0  0  0  0  0  0  0  0  0
    3.4154   -2.5184   -4.7643 C   0  0  0  0  0  0  0  0  0  0  0  0
    7.0216   -1.9428   -1.9795 C   0  0  1  0  0  0  0  0  0  0  0  0
    7.8265   -2.2372   -0.6989 C   0  0  0  0  0  0  0  0  0  0  0  0
    7.3575   -3.0316   -3.0205 C   0  0  0  0  0  0  0  0  0  0  0  0
    7.4284   -0.5738   -2.5581 C   0  0  0  0  0  0  0  0  0  0  0  0
    0.6304    0.7891   -0.1382 H   0  0  0  0  0  0  0  0  0  0  0  0
    0.9111   -0.2927   -1.5173 H   0  0  0  0  0  0  0  0  0  0  0  0
    1.6380    1.3412   -1.4928 H   0  0  0  0  0  0  0  0  0  0  0  0
    2.3611   -0.9393    0.5092 H   0  0  0  0  0  0  0  0  0  0  0  0
    3.0574    0.6429    0.5447 H   0  0  0  0  0  0  0  0  0  0  0  0
    3.4777   -0.5593   -2.0477 H   0  0  0  0  0  0  0  0  0  0  0  0
    5.5512   -0.0234   -0.8173 H   0  0  0  0  0  0  0  0  0  0  0  0
    6.0126    0.5526    1.3374 H   0  0  0  0  0  0  0  0  0  0  0  0
    5.4671   -2.0356    4.5750 H   0  0  0  0  0  0  0  0  0  0  0  0
    4.5857   -5.3671    1.7977 H   0  0  0  0  0  0  0  0  0  0  0  0
    2.9501   -4.7245    2.0777 H   0  0  0  0  0  0  0  0  0  0  0  0
    4.5155   -6.5199    4.0419 H   0  0  0  0  0  0  0  0  0  0  0  0
    3.1613   -7.0474    3.0002 H   0  0  0  0  0  0  0  0  0  0  0  0
    2.8793   -5.8756    4.3213 H   0  0  0  0  0  0  0  0  0  0  0  0
    4.2022   -3.3768    0.6593 H   0  0  0  0  0  0  0  0  0  0  0  0
    5.2449   -2.9981   -1.3122 H   0  0  0  0  0  0  0  0  0  0  0  0
    3.2604   -3.2212   -2.7140 H   0  0  0  0  0  0  0  0  0  0  0  0
    4.7186   -3.7636   -3.5690 H   0  0  0  0  0  0  0  0  0  0  0  0
    2.7164   -1.6740   -4.6507 H   0  0  0  0  0  0  0  0  0  0  0  0
    2.8559   -3.3689   -5.1835 H   0  0  0  0  0  0  0  0  0  0  0  0
    4.1907   -2.2221   -5.4872 H   0  0  0  0  0  0  0  0  0  0  0  0
    7.5154   -3.1866   -0.2366 H   0  0  0  0  0  0  0  0  0  0  0  0
    7.7084   -1.4566    0.0631 H   0  0  0  0  0  0  0  0  0  0  0  0
    8.8970   -2.3150   -0.9499 H   0  0  0  0  0  0  0  0  0  0  0  0
    7.0634   -4.0332   -2.6657 H   0  0  0  0  0  0  0  0  0  0  0  0
    8.4436   -3.0546   -3.2003 H   0  0  0  0  0  0  0  0  0  0  0  0
    6.8658   -2.8433   -3.9866 H   0  0  0  0  0  0  0  0  0  0  0  0
    7.3396    0.2385   -1.8186 H   0  0  0  0  0  0  0  0  0  0  0  0
    6.8185   -0.3156   -3.4375 H   0  0  0  0  0  0  0  0  0  0  0  0
    8.4838   -0.5956   -2.8718 H   0  0  0  0  0  0  0  0  0  0  0  0
  1  2  1  0
  1 22  1  0
  1 23  1  0
  1 24  1  0
  2  3  1  0
  2 25  1  0
  2 26  1  0
  3  4  1  0
  3 27  1  0
  4  5  1  0
  4 14  1  0
  4 28  1  1
  5  6  2  0
  5 13  1  0
  6  7  1  0
  6 29  1  0
  7  8  2  0
  8  9  1  0
  8 30  1  0
  9 10  1  0
  9 13  2  0
 10 11  1  0
 11 12  1  0
 11 31  1  0
 11 32  1  0
 12 33  1  0
 12 34  1  0
 12 35  1  0
 13 36  1  0
 14 15  1  0
 14 18  1  0
 14 37  1  1
 15 16  1  0
 16 17  1  0
 16 38  1  0
 16 39  1  0
 17 40  1  0
 17 41  1  0
 17 42  1  0
 18 19  1  1
 18 20  1  0
 18 21  1  0
 19 43  1  0
 19 44  1  0
 19 45  1  0
 20 46  1  0
 20 47  1  0
 20 48  1  0
 21 49  1  0
 21 50  1  0
 21 51  1  0
M  END

