
     RDKit          3D

 50 53  0  0  0  0  0  0  0  0999 V2000
    1.2635   -0.3433   -1.4441 C   0  0  0  0  0  0  0  0  0  0  0  0
    2.6672   -0.2308   -1.3064 O   0  0  0  0  0  0  0  0  0  0  0  0
    3.1853    0.9107   -0.8160 C   0  0  0  0  0  0  0  0  0  0  0  0
    2.4440    2.0197   -0.4293 C   0  0  0  0  0  0  0  0  0  0  0  0
    3.0536    3.2172    0.0627 C   0  0  0  0  0  0  0  0  0  0  0  0
    2.3145    4.3845    0.4709 C   0  0  0  0  0  0  0  0  0  0  0  0
    0.8639    4.5033    0.4717 C   0  0  0  0  0  0  0  0  0  0  0  0
   -0.0331    3.5559    0.0440 N   0  0  0  0  0  0  0  0  0  0  0  0
   -1.2244    4.0508    0.2009 N   0  0  0  0  0  0  0  0  0  0  0  0
   -1.0458    5.2563    0.7058 N   0  0  0  0  0  0  0  0  0  0  0  0
   -1.8245    5.8705    0.9260 H   0  0  0  0  0  0  0  0  0  0  0  0
    0.2145    5.5999    0.8981 N   0  0  0  0  0  0  0  0  0  0  0  0
    3.0677    5.4642    0.9819 C   0  0  0  0  0  0  0  0  0  0  0  0
    4.3857    5.5086    0.9885 N   0  0  0  0  0  0  0  0  0  0  0  0
    5.1210    4.5059    0.4808 C   0  0  0  0  0  0  0  0  0  0  0  0
    6.5439    4.6780    0.1918 C   0  0  0  0  0  0  0  0  0  0  0  0
    7.1804    3.7540   -0.3995 O   0  0  0  0  0  0  0  0  0  0  0  0
    7.3277    5.8955    0.5478 C   0  0  0  0  0  0  0  0  0  0  0  0
    8.6020    6.0287   -0.0461 C   0  0  0  0  0  0  0  0  0  0  0  0
    9.3997    7.1316    0.2527 C   0  0  0  0  0  0  0  0  0  0  0  0
    8.9605    8.1100    1.1444 C   0  0  0  0  0  0  0  0  0  0  0  0
    7.6962    7.9815    1.7448 C   0  0  0  0  0  0  0  0  0  0  0  0
    7.3396    8.9735    2.6078 O   0  0  0  0  0  0  0  0  0  0  0  0
    6.0793    8.9290    3.2623 C   0  0  0  0  0  0  0  0  0  0  0  0
    5.9851   10.1933    4.0987 C   0  0  0  0  0  0  0  0  0  0  0  0
    6.0510   11.3533    3.3070 O   0  0  0  0  0  0  0  0  0  0  0  0
    6.8832    6.8810    1.4550 C   0  0  0  0  0  0  0  0  0  0  0  0
    4.4712    3.2581    0.1409 C   0  0  0  0  0  0  0  0  0  0  0  0
    5.2138    2.0813   -0.1494 C   0  0  0  0  0  0  0  0  0  0  0  0
    4.6077    0.9404   -0.6878 C   0  0  0  0  0  0  0  0  0  0  0  0
    5.2649   -0.1735   -1.0328 O   0  0  0  0  0  0  0  0  0  0  0  0
    6.6831   -0.1787   -1.0104 C   0  0  0  0  0  0  0  0  0  0  0  0
    1.0733   -1.3444   -1.8521 H   0  0  0  0  0  0  0  0  0  0  0  0
    0.8610    0.4151   -2.1377 H   0  0  0  0  0  0  0  0  0  0  0  0
    0.7498   -0.2422   -0.4724 H   0  0  0  0  0  0  0  0  0  0  0  0
    1.3605    2.0136   -0.5252 H   0  0  0  0  0  0  0  0  0  0  0  0
    2.5376    6.3189    1.4140 H   0  0  0  0  0  0  0  0  0  0  0  0
    8.9403    5.2636   -0.7447 H   0  0  0  0  0  0  0  0  0  0  0  0
   10.3809    7.2345   -0.2183 H   0  0  0  0  0  0  0  0  0  0  0  0
    9.5754    8.9775    1.3930 H   0  0  0  0  0  0  0  0  0  0  0  0
    5.9983    8.0275    3.8980 H   0  0  0  0  0  0  0  0  0  0  0  0
    5.2646    8.9051    2.5161 H   0  0  0  0  0  0  0  0  0  0  0  0
    6.7825   10.1707    4.8702 H   0  0  0  0  0  0  0  0  0  0  0  0
    5.0171   10.2031    4.6259 H   0  0  0  0  0  0  0  0  0  0  0  0
    6.8475   11.2680    2.7634 H   0  0  0  0  0  0  0  0  0  0  0  0
    5.8982    6.7730    1.8992 H   0  0  0  0  0  0  0  0  0  0  0  0
    6.2677    2.0583    0.1197 H   0  0  0  0  0  0  0  0  0  0  0  0
    6.9938   -1.1353   -1.4491 H   0  0  0  0  0  0  0  0  0  0  0  0
    7.0661   -0.1136    0.0228 H   0  0  0  0  0  0  0  0  0  0  0  0
    7.0986    0.6559   -1.5991 H   0  0  0  0  0  0  0  0  0  0  0  0
  1  2  1  0
  1 33  1  0
  1 34  1  0
  1 35  1  0
  2  3  1  0
  3  4  2  0
  3 30  1  0
  4  5  1  0
  4 36  1  0
  5  6  2  0
  5 28  1  0
  6  7  1  0
  6 13  1  0
  7  8  1  0
  7 12  2  0
  8  9  2  0
  9 10  1  0
 10 11  1  0
 10 12  1  0
 13 14  2  0
 13 37  1  0
 14 15  1  0
 15 16  1  0
 15 28  2  0
 16 17  2  0
 16 18  1  0
 18 19  2  0
 18 27  1  0
 19 20  1  0
 19 38  1  0
 20 21  2  0
 20 39  1  0
 21 22  1  0
 21 40  1  0
 22 23  1  0
 22 27  2  0
 23 24  1  0
 24 25  1  0
 24 41  1  0
 24 42  1  0
 25 26  1  0
 25 43  1  0
 25 44  1  0
 26 45  1  0
 27 46  1  0
 28 29  1  0
 29 30  2  0
 29 47  1  0
 30 31  1  0
 31 32  1  0
 32 48  1  0
 32 49  1  0
 32 50  1  0
M  END

