
     RDKit          3D

 46 47  0  0  0  0  0  0  0  0999 V2000
    0.6311    1.6287    0.0945 C   0  0  0  0  0  0  0  0  0  0  0  0
    1.3288    0.5119    0.6070 O   0  0  0  0  0  0  0  0  0  0  0  0
    2.3147    0.7149    1.5214 C   0  0  0  0  0  0  0  0  0  0  0  0
    2.6972    1.9660    2.0015 C   0  0  0  0  0  0  0  0  0  0  0  0
    3.6990    2.0985    2.9818 C   0  0  0  0  0  0  0  0  0  0  0  0
    4.0338    3.4855    3.4412 C   0  0  0  0  0  0  0  0  0  0  0  0
    5.1016    3.6618    4.5069 C   0  0  0  0  0  0  0  0  0  0  0  0
    3.4612    4.4522    2.9716 O   0  0  0  0  0  0  0  0  0  0  0  0
    4.3233    0.9473    3.4814 C   0  0  0  0  0  0  0  0  0  0  0  0
    3.9600   -0.3086    2.9933 C   0  0  0  0  0  0  0  0  0  0  0  0
    2.9713   -0.4456    2.0153 C   0  0  0  0  0  0  0  0  0  0  0  0
    2.6417   -1.7060    1.6354 O   0  0  0  0  0  0  0  0  0  0  0  0
    2.4988   -2.0311    0.2720 C   0  0  0  0  0  0  0  0  0  0  0  0
    2.8262   -3.5078    0.0757 C   0  0  0  0  0  0  0  0  0  0  0  0
    3.1968   -4.2178    0.9965 O   0  0  0  0  0  0  0  0  0  0  0  0
    2.6849   -4.0738   -1.2723 C   0  0  0  0  0  0  0  0  0  0  0  0
    2.9892   -5.4150   -1.3963 N   0  0  0  0  0  0  0  0  0  0  0  0
    3.2841   -5.9568   -0.5889 H   0  0  0  0  0  0  0  0  0  0  0  0
    2.8397   -5.8449   -2.6636 C   0  0  0  0  0  0  0  0  0  0  0  0
    3.1225   -7.2785   -2.9951 C   0  0  0  0  0  0  0  0  0  0  0  0
    2.4132   -4.7327   -3.4327 C   0  0  0  0  0  0  0  0  0  0  0  0
    2.1157   -4.7045   -4.8848 C   0  0  0  0  0  0  0  0  0  0  0  0
    2.2714   -5.9793   -5.7035 C   0  0  0  0  0  0  0  0  0  0  0  0
    1.7475   -3.6873   -5.4520 O   0  0  0  0  0  0  0  0  0  0  0  0
    2.3166   -3.6071   -2.5366 C   0  0  0  0  0  0  0  0  0  0  0  0
    1.9095   -2.2033   -2.8851 C   0  0  0  0  0  0  0  0  0  0  0  0
   -0.1110    1.2346   -0.6124 H   0  0  0  0  0  0  0  0  0  0  0  0
    1.3045    2.3229   -0.4386 H   0  0  0  0  0  0  0  0  0  0  0  0
    0.1096    2.1838    0.8935 H   0  0  0  0  0  0  0  0  0  0  0  0
    2.2254    2.8833    1.6504 H   0  0  0  0  0  0  0  0  0  0  0  0
    4.8246    3.1355    5.4345 H   0  0  0  0  0  0  0  0  0  0  0  0
    5.2167    4.7328    4.7159 H   0  0  0  0  0  0  0  0  0  0  0  0
    6.0667    3.2481    4.1726 H   0  0  0  0  0  0  0  0  0  0  0  0
    5.1007    1.0163    4.2439 H   0  0  0  0  0  0  0  0  0  0  0  0
    4.4333   -1.2232    3.3556 H   0  0  0  0  0  0  0  0  0  0  0  0
    3.1771   -1.4289   -0.3600 H   0  0  0  0  0  0  0  0  0  0  0  0
    1.4761   -1.8273   -0.0845 H   0  0  0  0  0  0  0  0  0  0  0  0
    3.4367   -7.8203   -2.0905 H   0  0  0  0  0  0  0  0  0  0  0  0
    3.9265   -7.3801   -3.7397 H   0  0  0  0  0  0  0  0  0  0  0  0
    2.2369   -7.7920   -3.3997 H   0  0  0  0  0  0  0  0  0  0  0  0
    3.3049   -6.3579   -5.6698 H   0  0  0  0  0  0  0  0  0  0  0  0
    2.0068   -5.7468   -6.7428 H   0  0  0  0  0  0  0  0  0  0  0  0
    1.6125   -6.7801   -5.3336 H   0  0  0  0  0  0  0  0  0  0  0  0
    1.6501   -2.1379   -3.9457 H   0  0  0  0  0  0  0  0  0  0  0  0
    2.7251   -1.4891   -2.6825 H   0  0  0  0  0  0  0  0  0  0  0  0
    1.0414   -1.8771   -2.2895 H   0  0  0  0  0  0  0  0  0  0  0  0
  1  2  1  0
  1 27  1  0
  1 28  1  0
  1 29  1  0
  2  3  1  0
  3  4  2  0
  3 11  1  0
  4  5  1  0
  4 30  1  0
  5  6  1  0
  5  9  2  0
  6  7  1  0
  6  8  2  0
  7 31  1  0
  7 32  1  0
  7 33  1  0
  9 10  1  0
  9 34  1  0
 10 11  2  0
 10 35  1  0
 11 12  1  0
 12 13  1  0
 13 14  1  0
 13 36  1  0
 13 37  1  0
 14 15  2  0
 14 16  1  0
 16 17  1  0
 16 25  2  0
 17 18  1  0
 17 19  1  0
 19 20  1  0
 19 21  2  0
 20 38  1  0
 20 39  1  0
 20 40  1  0
 21 22  1  0
 21 25  1  0
 22 23  1  0
 22 24  2  0
 23 41  1  0
 23 42  1  0
 23 43  1  0
 25 26  1  0
 26 44  1  0
 26 45  1  0
 26 46  1  0
M  END

