
     RDKit          3D

 42 43  0  0  0  0  0  0  0  0999 V2000
    5.1616   -1.1587    0.3353 C   0  0  0  0  0  0  0  0  0  0  0  0
    4.1931   -0.2118    0.8279 N   0  0  0  0  0  0  0  0  0  0  0  0
    3.3713   -0.5691    1.9501 C   0  0  0  0  0  0  0  0  0  0  0  0
    4.0351    1.1205    0.1944 C   0  0  0  0  0  0  0  0  0  0  0  0
    4.8322    1.4093   -1.0305 C   0  0  0  0  0  0  0  0  0  0  0  0
    6.2027    1.4805   -0.9814 N   0  0  0  0  0  0  0  0  0  0  0  0
    6.5871    0.9437   -2.1416 C   0  0  0  0  0  0  0  0  0  0  0  0
    8.0500    0.9282   -2.5718 C   0  0  1  0  0  0  0  0  0  0  0  0
    8.3806   -0.3911   -3.2906 C   0  0  0  0  0  0  0  0  0  0  0  0
    8.3205    2.1359   -3.4949 C   0  0  0  0  0  0  0  0  0  0  0  0
    8.8018    1.0597   -1.3067 N   0  0  0  0  0  0  0  0  0  0  0  0
   10.1360    1.0387   -1.1722 C   0  0  0  0  0  0  0  0  0  0  0  0
   10.8984    0.9002   -2.1541 O   0  0  0  0  0  0  0  0  0  0  0  0
   10.7359    1.1890    0.1959 C   0  0  0  0  0  0  0  0  0  0  0  0
   12.1587    1.3314    0.2868 C   0  0  0  0  0  0  0  0  0  0  0  0
   12.9319    1.3081   -0.7897 O   0  0  0  0  0  0  0  0  0  0  0  0
   12.7733    1.4998    1.5459 C   0  0  0  0  0  0  0  0  0  0  0  0
   12.0147    1.5016    2.7068 C   0  0  0  0  0  0  0  0  0  0  0  0
   10.6237    1.3351    2.6552 C   0  0  0  0  0  0  0  0  0  0  0  0
   10.0284    1.1815    1.4132 C   0  0  0  0  0  0  0  0  0  0  0  0
    8.6834    1.0143    1.4020 F   0  0  0  0  0  0  0  0  0  0  0  0
    5.6371    0.4283   -2.9135 N   0  0  0  0  0  0  0  0  0  0  0  0
    4.4498    0.6422   -2.1563 O   0  0  0  0  0  0  0  0  0  0  0  0
    5.0766   -2.1131    0.8684 H   0  0  0  0  0  0  0  0  0  0  0  0
    6.1629   -0.7188    0.4618 H   0  0  0  0  0  0  0  0  0  0  0  0
    5.0113   -1.2813   -0.7459 H   0  0  0  0  0  0  0  0  0  0  0  0
    2.7080   -1.4073    1.6692 H   0  0  0  0  0  0  0  0  0  0  0  0
    2.7632    0.2852    2.2702 H   0  0  0  0  0  0  0  0  0  0  0  0
    4.0030   -0.9194    2.7832 H   0  0  0  0  0  0  0  0  0  0  0  0
    4.2806    1.8434    0.9904 H   0  0  0  0  0  0  0  0  0  0  0  0
    2.9514    1.2145    0.0102 H   0  0  0  0  0  0  0  0  0  0  0  0
    7.7141   -0.5096   -4.1558 H   0  0  0  0  0  0  0  0  0  0  0  0
    8.2179   -1.2484   -2.6194 H   0  0  0  0  0  0  0  0  0  0  0  0
    9.4264   -0.3955   -3.6224 H   0  0  0  0  0  0  0  0  0  0  0  0
    7.7028    2.0532   -4.4012 H   0  0  0  0  0  0  0  0  0  0  0  0
    9.3816    2.1681   -3.7786 H   0  0  0  0  0  0  0  0  0  0  0  0
    8.0554    3.0722   -2.9810 H   0  0  0  0  0  0  0  0  0  0  0  0
    8.2100    1.3064   -0.5142 H   0  0  0  0  0  0  0  0  0  0  0  0
   12.3114    1.1279   -1.5664 H   0  0  0  0  0  0  0  0  0  0  0  0
   13.8581    1.6155    1.5669 H   0  0  0  0  0  0  0  0  0  0  0  0
   12.5056    1.6285    3.6751 H   0  0  0  0  0  0  0  0  0  0  0  0
   10.0016    1.3222    3.5509 H   0  0  0  0  0  0  0  0  0  0  0  0
  1  2  1  0
  1 24  1  0
  1 25  1  0
  1 26  1  0
  2  3  1  0
  2  4  1  0
  3 27  1  0
  3 28  1  0
  3 29  1  0
  4  5  1  0
  4 30  1  0
  4 31  1  0
  5  6  2  0
  5 23  1  0
  6  7  1  0
  7  8  1  0
  7 22  2  0
  8  9  1  0
  8 10  1  0
  8 11  1  1
  9 32  1  0
  9 33  1  0
  9 34  1  0
 10 35  1  0
 10 36  1  0
 10 37  1  0
 11 12  1  0
 11 38  1  0
 12 13  2  0
 12 14  1  0
 14 15  2  0
 14 20  1  0
 15 16  1  0
 15 17  1  0
 16 39  1  0
 17 18  2  0
 17 40  1  0
 18 19  1  0
 18 41  1  0
 19 20  2  0
 19 42  1  0
 20 21  1  0
 22 23  1  0
M  END

