
     RDKit          3D

 38 39  0  0  0  0  0  0  0  0999 V2000
    0.9286   -0.7551    0.2553 C   0  0  0  0  0  0  0  0  0  0  0  0
    2.3962   -0.3312    0.1972 C   0  0  0  0  0  0  0  0  0  0  0  0
    2.8838   -0.0332   -1.2205 C   0  0  0  0  0  0  0  0  0  0  0  0
    4.2792    0.3779   -1.2354 N   0  0  0  0  0  0  0  0  0  0  0  0
    4.8627    0.6120   -2.5586 C   0  0  1  0  0  0  0  0  0  0  0  0
    4.4374    1.9757   -3.1564 C   0  0  0  0  0  0  0  0  0  0  0  0
    5.0496    3.2215   -2.5461 C   0  0  0  0  0  0  0  0  0  0  0  0
    4.9627    3.5030   -1.1697 C   0  0  0  0  0  0  0  0  0  0  0  0
    5.5305    4.6825   -0.6934 C   0  0  0  0  0  0  0  0  0  0  0  0
    6.1599    5.5487   -1.5904 C   0  0  0  0  0  0  0  0  0  0  0  0
    6.2053    5.1953   -2.9464 C   0  0  0  0  0  0  0  0  0  0  0  0
    6.8669    6.0753   -3.9777 C   0  0  0  0  0  0  0  0  0  0  0  0
    5.6613    4.0552   -3.3975 N   0  0  0  0  0  0  0  0  0  0  0  0
    6.3718    0.4677   -2.4822 C   0  0  1  0  0  0  0  0  0  0  0  0
    7.0027   -0.9054   -2.5118 C   0  0  0  0  0  0  0  0  0  0  0  0
    7.1581    0.0292   -3.6865 C   0  0  0  0  0  0  0  0  0  0  0  0
    0.6122   -0.9656    1.2890 H   0  0  0  0  0  0  0  0  0  0  0  0
    0.7468   -1.6659   -0.3395 H   0  0  0  0  0  0  0  0  0  0  0  0
    0.2669    0.0339   -0.1396 H   0  0  0  0  0  0  0  0  0  0  0  0
    3.0276   -1.1277    0.6337 H   0  0  0  0  0  0  0  0  0  0  0  0
    2.5607    0.5629    0.8225 H   0  0  0  0  0  0  0  0  0  0  0  0
    2.2664    0.7767   -1.6482 H   0  0  0  0  0  0  0  0  0  0  0  0
    2.6984   -0.9237   -1.8671 H   0  0  0  0  0  0  0  0  0  0  0  0
    4.8412   -0.3209   -0.7508 H   0  0  0  0  0  0  0  0  0  0  0  0
    4.4988   -0.1581   -3.2782 H   0  0  0  0  0  0  0  0  0  0  0  0
    3.3371    2.0518   -3.1017 H   0  0  0  0  0  0  0  0  0  0  0  0
    4.6975    1.9900   -4.2245 H   0  0  0  0  0  0  0  0  0  0  0  0
    4.4787    2.7846   -0.5072 H   0  0  0  0  0  0  0  0  0  0  0  0
    5.4828    4.9287    0.3713 H   0  0  0  0  0  0  0  0  0  0  0  0
    6.6105    6.4832   -1.2476 H   0  0  0  0  0  0  0  0  0  0  0  0
    7.3030    6.9808   -3.5314 H   0  0  0  0  0  0  0  0  0  0  0  0
    6.1364    6.3771   -4.7457 H   0  0  0  0  0  0  0  0  0  0  0  0
    7.6619    5.5190   -4.5000 H   0  0  0  0  0  0  0  0  0  0  0  0
    6.8542    1.2049   -1.8317 H   0  0  0  0  0  0  0  0  0  0  0  0
    6.3435   -1.7708   -2.6370 H   0  0  0  0  0  0  0  0  0  0  0  0
    7.8719   -1.0946   -1.8755 H   0  0  0  0  0  0  0  0  0  0  0  0
    6.6047   -0.2066   -4.6008 H   0  0  0  0  0  0  0  0  0  0  0  0
    8.1331    0.4909   -3.8640 H   0  0  0  0  0  0  0  0  0  0  0  0
  1  2  1  0
  1 17  1  0
  1 18  1  0
  1 19  1  0
  2  3  1  0
  2 20  1  0
  2 21  1  0
  3  4  1  0
  3 22  1  0
  3 23  1  0
  4  5  1  0
  4 24  1  0
  5  6  1  0
  5 14  1  0
  5 25  1  6
  6  7  1  0
  6 26  1  0
  6 27  1  0
  7  8  2  0
  7 13  1  0
  8  9  1  0
  8 28  1  0
  9 10  2  0
  9 29  1  0
 10 11  1  0
 10 30  1  0
 11 12  1  0
 11 13  2  0
 12 31  1  0
 12 32  1  0
 12 33  1  0
 14 15  1  0
 14 16  1  0
 14 34  1  1
 15 16  1  0
 15 35  1  0
 15 36  1  0
 16 37  1  0
 16 38  1  0
M  END

