
     RDKit          3D

 67 75  0  0  0  0  0  0  0  0999 V2000
    5.7412    2.3049    3.4580 C   0  0  0  0  0  0  0  0  0  0  0  0
    5.3186    1.0751    3.9718 C   0  0  0  0  0  0  0  0  0  0  0  0
    4.5114    0.2284    3.2090 C   0  0  0  0  0  0  0  0  0  0  0  0
    4.1355    0.6008    1.9087 C   0  0  0  0  0  0  0  0  0  0  0  0
    3.3066   -0.2441    1.1260 N   0  0  0  0  0  0  0  0  0  0  0  0
    2.1796    0.1779    0.4364 C   0  0  0  0  0  0  0  0  0  0  0  0
    1.5998   -0.8895   -0.2068 C   0  0  0  0  0  0  0  0  0  0  0  0
    2.4016   -2.0414    0.0811 C   0  0  0  0  0  0  0  0  0  0  0  0
    2.3133   -3.4195   -0.3171 C   0  0  0  0  0  0  0  0  0  0  0  0
    1.2682   -3.9188   -1.1248 C   0  0  0  0  0  0  0  0  0  0  0  0
    1.2374   -5.2614   -1.4747 C   0  0  0  0  0  0  0  0  0  0  0  0
    0.3138   -6.0698   -2.2513 C   0  0  0  0  0  0  0  0  0  0  0  0
   -0.8650   -5.7811   -2.9511 C   0  0  0  0  0  0  0  0  0  0  0  0
   -1.5228   -6.8071   -3.6308 C   0  0  0  0  0  0  0  0  0  0  0  0
   -1.0046   -8.1142   -3.6205 C   0  0  0  0  0  0  0  0  0  0  0  0
    0.1684   -8.4282   -2.9296 C   0  0  0  0  0  0  0  0  0  0  0  0
    0.8175   -7.3985   -2.2380 C   0  0  0  0  0  0  0  0  0  0  0  0
    2.0024   -7.4351   -1.4931 N   0  0  0  0  0  0  0  0  0  0  0  0
    2.7962   -8.5849   -1.2549 C   0  0  0  0  0  0  0  0  0  0  0  0
    4.1575   -8.5942   -1.5978 C   0  0  0  0  0  0  0  0  0  0  0  0
    4.9378   -9.7245   -1.3566 C   0  0  0  0  0  0  0  0  0  0  0  0
    4.3836  -10.8853   -0.7844 C   0  0  0  0  0  0  0  0  0  0  0  0
    5.2149  -12.0837   -0.4867 C   0  0  0  0  0  0  0  0  0  0  0  0
    5.2370  -12.5914    0.8064 C   0  0  0  0  0  0  0  0  0  0  0  0
    5.9634  -13.6606    1.2078 N   0  0  0  0  0  0  0  0  0  0  0  0
    6.7116  -14.2661    0.3156 C   0  0  0  0  0  0  0  0  0  0  0  0
    6.7901  -13.8748   -1.0512 C   0  0  0  0  0  0  0  0  0  0  0  0
    7.5982  -14.5749   -1.9876 C   0  0  0  0  0  0  0  0  0  0  0  0
    7.6264  -14.1923   -3.3113 C   0  0  0  0  0  0  0  0  0  0  0  0
    6.8349  -13.0996   -3.7467 C   0  0  0  0  0  0  0  0  0  0  0  0
    6.0451  -12.3973   -2.8588 C   0  0  0  0  0  0  0  0  0  0  0  0
    6.0088  -12.7526   -1.4797 C   0  0  0  0  0  0  0  0  0  0  0  0
    3.0180  -10.8634   -0.4485 C   0  0  0  0  0  0  0  0  0  0  0  0
    2.2351   -9.7301   -0.6707 C   0  0  0  0  0  0  0  0  0  0  0  0
    2.2725   -6.1416   -1.0208 C   0  0  0  0  0  0  0  0  0  0  0  0
    3.3048   -5.6875   -0.2183 C   0  0  0  0  0  0  0  0  0  0  0  0
    3.3451   -4.3170    0.1445 C   0  0  0  0  0  0  0  0  0  0  0  0
    4.4100   -3.8104    0.9630 C   0  0  0  0  0  0  0  0  0  0  0  0
    4.4826   -2.4912    1.3437 C   0  0  0  0  0  0  0  0  0  0  0  0
    3.4582   -1.6109    0.9099 C   0  0  0  0  0  0  0  0  0  0  0  0
    4.5647    1.8327    1.3906 C   0  0  0  0  0  0  0  0  0  0  0  0
    5.3556    2.6816    2.1680 C   0  0  0  0  0  0  0  0  0  0  0  0
    6.3669    2.9674    4.0607 H   0  0  0  0  0  0  0  0  0  0  0  0
    5.6055    0.7760    4.9832 H   0  0  0  0  0  0  0  0  0  0  0  0
    4.1527   -0.7146    3.6248 H   0  0  0  0  0  0  0  0  0  0  0  0
    1.8630    1.2168    0.4958 H   0  0  0  0  0  0  0  0  0  0  0  0
    0.6940   -0.8459   -0.8075 H   0  0  0  0  0  0  0  0  0  0  0  0
    0.4799   -3.2441   -1.4661 H   0  0  0  0  0  0  0  0  0  0  0  0
   -1.2619   -4.7629   -2.9670 H   0  0  0  0  0  0  0  0  0  0  0  0
   -2.4436   -6.5949   -4.1790 H   0  0  0  0  0  0  0  0  0  0  0  0
   -1.5271   -8.9045   -4.1658 H   0  0  0  0  0  0  0  0  0  0  0  0
    0.5643   -9.4448   -2.9363 H   0  0  0  0  0  0  0  0  0  0  0  0
    4.6014   -7.7089   -2.0571 H   0  0  0  0  0  0  0  0  0  0  0  0
    6.0000   -9.7029   -1.6108 H   0  0  0  0  0  0  0  0  0  0  0  0
    4.6466  -12.0970    1.5857 H   0  0  0  0  0  0  0  0  0  0  0  0
    7.3032  -15.1276    0.6542 H   0  0  0  0  0  0  0  0  0  0  0  0
    8.1913  -15.4251   -1.6391 H   0  0  0  0  0  0  0  0  0  0  0  0
    8.2473  -14.7330   -4.0297 H   0  0  0  0  0  0  0  0  0  0  0  0
    6.8461  -12.8144   -4.8019 H   0  0  0  0  0  0  0  0  0  0  0  0
    5.4316  -11.5694   -3.2159 H   0  0  0  0  0  0  0  0  0  0  0  0
    2.5617  -11.7512   -0.0045 H   0  0  0  0  0  0  0  0  0  0  0  0
    1.1815   -9.7272   -0.3850 H   0  0  0  0  0  0  0  0  0  0  0  0
    4.0835   -6.3609    0.1436 H   0  0  0  0  0  0  0  0  0  0  0  0
    5.1879   -4.5077    1.2850 H   0  0  0  0  0  0  0  0  0  0  0  0
    5.3133   -2.1345    1.9542 H   0  0  0  0  0  0  0  0  0  0  0  0
    4.2876    2.1131    0.3724 H   0  0  0  0  0  0  0  0  0  0  0  0
    5.6836    3.6388    1.7550 H   0  0  0  0  0  0  0  0  0  0  0  0
  1  2  2  0
  1 42  1  0
  1 43  1  0
  2  3  1  0
  2 44  1  0
  3  4  2  0
  3 45  1  0
  4  5  1  0
  4 41  1  0
  5  6  1  0
  5 40  1  0
  6  7  2  0
  6 46  1  0
  7  8  1  0
  7 47  1  0
  8  9  1  0
  8 40  2  0
  9 10  2  0
  9 37  1  0
 10 11  1  0
 10 48  1  0
 11 12  1  0
 11 35  2  0
 12 13  2  0
 12 17  1  0
 13 14  1  0
 13 49  1  0
 14 15  2  0
 14 50  1  0
 15 16  1  0
 15 51  1  0
 16 17  2  0
 16 52  1  0
 17 18  1  0
 18 19  1  0
 18 35  1  0
 19 20  2  0
 19 34  1  0
 20 21  1  0
 20 53  1  0
 21 22  2  0
 21 54  1  0
 22 23  1  0
 22 33  1  0
 23 24  2  0
 23 32  1  0
 24 25  1  0
 24 55  1  0
 25 26  2  0
 26 27  1  0
 26 56  1  0
 27 28  1  0
 27 32  2  0
 28 29  2  0
 28 57  1  0
 29 30  1  0
 29 58  1  0
 30 31  2  0
 30 59  1  0
 31 32  1  0
 31 60  1  0
 33 34  2  0
 33 61  1  0
 34 62  1  0
 35 36  1  0
 36 37  2  0
 36 63  1  0
 37 38  1  0
 38 39  2  0
 38 64  1  0
 39 40  1  0
 39 65  1  0
 41 42  2  0
 41 66  1  0
 42 67  1  0
M  END

