
     RDKit          3D

 90100  0  0  0  0  0  0  0  0999 V2000
    6.7959    5.2620    1.1242 C   0  0  0  0  0  0  0  0  0  0  0  0
    5.8142    5.0119    2.0881 C   0  0  0  0  0  0  0  0  0  0  0  0
    5.2856    3.7278    2.2377 C   0  0  0  0  0  0  0  0  0  0  0  0
    5.7319    2.6720    1.4243 C   0  0  0  0  0  0  0  0  0  0  0  0
    5.1662    1.3003    1.5858 C   0  0  0  0  0  0  0  0  0  0  0  0
    4.2185    1.1297    2.5341 N   0  0  0  0  0  0  0  0  0  0  0  0
    3.7381   -0.1293    2.6369 C   0  0  0  0  0  0  0  0  0  0  0  0
    2.6861   -0.3768    3.6664 C   0  0  0  0  0  0  0  0  0  0  0  0
    2.2356    0.6681    4.4912 C   0  0  0  0  0  0  0  0  0  0  0  0
    1.2514    0.4382    5.4553 C   0  0  0  0  0  0  0  0  0  0  0  0
    0.7012   -0.8380    5.6104 C   0  0  0  0  0  0  0  0  0  0  0  0
    1.1441   -1.8848    4.7925 C   0  0  0  0  0  0  0  0  0  0  0  0
    2.1275   -1.6567    3.8296 C   0  0  0  0  0  0  0  0  0  0  0  0
    4.1307   -1.1529    1.8947 N   0  0  0  0  0  0  0  0  0  0  0  0
    5.0918   -0.8976    0.9634 C   0  0  0  0  0  0  0  0  0  0  0  0
    5.5626   -1.9822    0.1249 C   0  0  0  0  0  0  0  0  0  0  0  0
    5.0388   -3.2992    0.2472 C   0  0  0  0  0  0  0  0  0  0  0  0
    5.4964   -4.3332   -0.5502 C   0  0  0  0  0  0  0  0  0  0  0  0
    6.4975   -4.1327   -1.5385 C   0  0  0  0  0  0  0  0  0  0  0  0
    6.9825   -5.2278   -2.3894 C   0  0  0  0  0  0  0  0  0  0  0  0
    7.5929   -4.9801   -3.6466 C   0  0  0  0  0  0  0  0  0  0  0  0
    8.0883   -6.0125   -4.4319 C   0  0  0  0  0  0  0  0  0  0  0  0
    7.9928   -7.3383   -3.9855 C   0  0  0  0  0  0  0  0  0  0  0  0
    7.2880   -7.6450   -2.8094 C   0  0  0  0  0  0  0  0  0  0  0  0
    6.8273   -6.5889   -2.0214 C   0  0  0  0  0  0  0  0  0  0  0  0
    6.9842   -9.1169   -2.4752 C   0  0  2  0  0  0  0  0  0  0  0  0
    5.7095   -9.2591   -1.6326 C   0  0  0  0  0  0  0  0  0  0  0  0
    4.4153   -8.8496   -1.9478 C   0  0  0  0  0  0  0  0  0  0  0  0
    3.3870   -9.0851   -1.0263 C   0  0  0  0  0  0  0  0  0  0  0  0
    3.6551   -9.7218    0.1937 C   0  0  0  0  0  0  0  0  0  0  0  0
    4.9528  -10.1315    0.5125 C   0  0  0  0  0  0  0  0  0  0  0  0
    5.9808   -9.8967   -0.4082 C   0  0  0  0  0  0  0  0  0  0  0  0
    7.4158  -10.2034   -0.3441 C   0  0  0  0  0  0  0  0  0  0  0  0
    8.1687  -10.8168    0.6617 C   0  0  0  0  0  0  0  0  0  0  0  0
    9.5448  -10.9817    0.4753 C   0  0  0  0  0  0  0  0  0  0  0  0
   10.1582  -10.5358   -0.7009 C   0  0  0  0  0  0  0  0  0  0  0  0
    9.4046   -9.9202   -1.7103 C   0  0  0  0  0  0  0  0  0  0  0  0
    8.0331   -9.7572   -1.5319 C   0  0  0  0  0  0  0  0  0  0  0  0
    6.8600   -9.9033   -3.7935 C   0  0  0  0  0  0  0  0  0  0  0  0
    6.0114  -11.0088   -3.9331 C   0  0  0  0  0  0  0  0  0  0  0  0
    5.8711  -11.6707   -5.1557 C   0  0  0  0  0  0  0  0  0  0  0  0
    6.5670  -11.2268   -6.2849 C   0  0  0  0  0  0  0  0  0  0  0  0
    7.4433  -10.1515   -6.1695 C   0  0  0  0  0  0  0  0  0  0  0  0
    7.6161   -9.5225   -4.9246 C   0  0  0  0  0  0  0  0  0  0  0  0
    8.5311   -8.4446   -4.7573 N   0  0  0  0  0  0  0  0  0  0  0  0
    9.8574   -8.5313   -5.1062 C   0  0  0  0  0  0  0  0  0  0  0  0
   10.4041   -9.7223   -5.6883 C   0  0  0  0  0  0  0  0  0  0  0  0
   11.7370   -9.7820   -6.0538 C   0  0  0  0  0  0  0  0  0  0  0  0
   12.5930   -8.6883   -5.8384 C   0  0  0  0  0  0  0  0  0  0  0  0
   12.0903   -7.5355   -5.2132 C   0  0  0  0  0  0  0  0  0  0  0  0
   10.7599   -7.4497   -4.8420 C   0  0  0  0  0  0  0  0  0  0  0  0
    7.0130   -2.8144   -1.6604 C   0  0  0  0  0  0  0  0  0  0  0  0
    6.5709   -1.7780   -0.8578 C   0  0  0  0  0  0  0  0  0  0  0  0
    5.6262    0.3442    0.7943 N   0  0  0  0  0  0  0  0  0  0  0  0
    6.7190    2.9329    0.4578 C   0  0  0  0  0  0  0  0  0  0  0  0
    7.2460    4.2160    0.3092 C   0  0  0  0  0  0  0  0  0  0  0  0
    7.2092    6.2677    1.0073 H   0  0  0  0  0  0  0  0  0  0  0  0
    5.4573    5.8237    2.7283 H   0  0  0  0  0  0  0  0  0  0  0  0
    4.5194    3.5161    2.9839 H   0  0  0  0  0  0  0  0  0  0  0  0
    2.6740    1.6573    4.3574 H   0  0  0  0  0  0  0  0  0  0  0  0
    0.9110    1.2611    6.0902 H   0  0  0  0  0  0  0  0  0  0  0  0
   -0.0696   -1.0174    6.3651 H   0  0  0  0  0  0  0  0  0  0  0  0
    0.7184   -2.8857    4.9079 H   0  0  0  0  0  0  0  0  0  0  0  0
    2.4833   -2.4611    3.1848 H   0  0  0  0  0  0  0  0  0  0  0  0
    4.2566   -3.4759    0.9858 H   0  0  0  0  0  0  0  0  0  0  0  0
    5.0404   -5.3188   -0.4287 H   0  0  0  0  0  0  0  0  0  0  0  0
    7.6523   -3.9596   -4.0257 H   0  0  0  0  0  0  0  0  0  0  0  0
    8.5284   -5.7918   -5.4065 H   0  0  0  0  0  0  0  0  0  0  0  0
    6.3177   -6.8250   -1.0889 H   0  0  0  0  0  0  0  0  0  0  0  0
    4.2015   -8.3438   -2.8924 H   0  0  0  0  0  0  0  0  0  0  0  0
    2.3692   -8.7623   -1.2573 H   0  0  0  0  0  0  0  0  0  0  0  0
    2.8428   -9.8927    0.9042 H   0  0  0  0  0  0  0  0  0  0  0  0
    5.1583  -10.6211    1.4674 H   0  0  0  0  0  0  0  0  0  0  0  0
    7.6920  -11.1584    1.5836 H   0  0  0  0  0  0  0  0  0  0  0  0
   10.1454  -11.4566    1.2548 H   0  0  0  0  0  0  0  0  0  0  0  0
   11.2354  -10.6629   -0.8337 H   0  0  0  0  0  0  0  0  0  0  0  0
    9.9054   -9.5726   -2.6140 H   0  0  0  0  0  0  0  0  0  0  0  0
    5.4361  -11.3471   -3.0709 H   0  0  0  0  0  0  0  0  0  0  0  0
    5.1912  -12.5221   -5.2320 H   0  0  0  0  0  0  0  0  0  0  0  0
    6.4194  -11.7082   -7.2538 H   0  0  0  0  0  0  0  0  0  0  0  0
    7.9746   -9.7728   -7.0439 H   0  0  0  0  0  0  0  0  0  0  0  0
    9.7790  -10.6021   -5.8162 H   0  0  0  0  0  0  0  0  0  0  0  0
   12.1280  -10.7018   -6.4936 H   0  0  0  0  0  0  0  0  0  0  0  0
   13.6439   -8.7459   -6.1273 H   0  0  0  0  0  0  0  0  0  0  0  0
   12.7552   -6.6956   -5.0026 H   0  0  0  0  0  0  0  0  0  0  0  0
   10.4008   -6.5606   -4.3325 H   0  0  0  0  0  0  0  0  0  0  0  0
    7.8081   -2.6068   -2.3812 H   0  0  0  0  0  0  0  0  0  0  0  0
    6.9959   -0.7792   -0.9600 H   0  0  0  0  0  0  0  0  0  0  0  0
    7.0586    2.1076   -0.1692 H   0  0  0  0  0  0  0  0  0  0  0  0
    8.0134    4.4042   -0.4470 H   0  0  0  0  0  0  0  0  0  0  0  0
  1  2  2  0
  1 56  1  0
  1 57  1  0
  2  3  1  0
  2 58  1  0
  3  4  2  0
  3 59  1  0
  4  5  1  0
  4 55  1  0
  5  6  2  0
  5 54  1  0
  6  7  1  0
  7  8  1  0
  7 14  2  0
  8  9  2  0
  8 13  1  0
  9 10  1  0
  9 60  1  0
 10 11  2  0
 10 61  1  0
 11 12  1  0
 11 62  1  0
 12 13  2  0
 12 63  1  0
 13 64  1  0
 14 15  1  0
 15 16  1  0
 15 54  2  0
 16 17  2  0
 16 53  1  0
 17 18  1  0
 17 65  1  0
 18 19  2  0
 18 66  1  0
 19 20  1  0
 19 52  1  0
 20 21  2  0
 20 25  1  0
 21 22  1  0
 21 67  1  0
 22 23  2  0
 22 68  1  0
 23 24  1  0
 23 45  1  0
 24 25  2  0
 26 24  1  6
 25 69  1  0
 26 27  1  0
 26 38  1  0
 26 39  1  0
 27 28  2  0
 27 32  1  0
 28 29  1  0
 28 70  1  0
 29 30  2  0
 29 71  1  0
 30 31  1  0
 30 72  1  0
 31 32  2  0
 31 73  1  0
 32 33  1  0
 33 34  2  0
 33 38  1  0
 34 35  1  0
 34 74  1  0
 35 36  2  0
 35 75  1  0
 36 37  1  0
 36 76  1  0
 37 38  2  0
 37 77  1  0
 39 40  1  0
 39 44  2  0
 40 41  2  0
 40 78  1  0
 41 42  1  0
 41 79  1  0
 42 43  2  0
 42 80  1  0
 43 44  1  0
 43 81  1  0
 44 45  1  0
 45 46  1  0
 46 47  2  0
 46 51  1  0
 47 48  1  0
 47 82  1  0
 48 49  2  0
 48 83  1  0
 49 50  1  0
 49 84  1  0
 50 51  2  0
 50 85  1  0
 51 86  1  0
 52 53  2  0
 52 87  1  0
 53 88  1  0
 55 56  2  0
 55 89  1  0
 56 90  1  0
M  END

