
     RDKit          3D

 36 37  0  0  0  0  0  0  0  0999 V2000
    1.2071    0.7542    0.3926 C   0  0  0  0  0  0  0  0  0  0  0  0
    2.6643    0.3915    0.1286 C   0  0  1  0  0  0  0  0  0  0  0  0
    2.7966   -1.0442   -0.4832 C   0  0  0  0  0  0  0  0  0  0  0  0
    4.2064   -1.5464   -0.8198 C   0  0  0  0  0  0  0  0  0  0  0  0
    4.8461   -0.8775   -2.0506 C   0  0  0  0  0  0  0  0  0  0  0  0
    5.4353    0.5288   -1.8438 C   0  0  0  0  0  0  0  0  0  0  0  0
    4.7810    1.3694   -0.7117 C   0  0  0  0  0  0  0  0  0  0  0  0
    3.3399    1.3438   -0.7364 N   0  0  0  0  0  0  0  0  0  0  0  0
    2.6330    2.0570   -1.7933 C   0  0  0  0  0  0  0  0  0  0  0  0
    2.4764    1.3216   -2.9401 N   0  0  0  0  0  0  0  0  0  0  0  0
    1.8836    2.0104   -3.9526 C   0  0  0  0  0  0  0  0  0  0  0  0
    1.4410    3.3183   -3.8933 C   0  0  0  0  0  0  0  0  0  0  0  0
    0.8237    3.9953   -5.0822 C   0  0  0  0  0  0  0  0  0  0  0  0
   -0.4587    4.5503   -4.8106 O   0  0  0  0  0  0  0  0  0  0  0  0
    1.5818    4.0552   -2.6483 C   0  0  0  0  0  0  0  0  0  0  0  0
    2.2138    3.3552   -1.6083 C   0  0  0  0  0  0  0  0  0  0  0  0
    2.5092    4.1507   -0.0522 Cl  0  0  0  0  0  0  0  0  0  0  0  0
    0.7957    0.0484    1.1297 H   0  0  0  0  0  0  0  0  0  0  0  0
    0.6096    0.6889   -0.5264 H   0  0  0  0  0  0  0  0  0  0  0  0
    1.1217    1.7720    0.7955 H   0  0  0  0  0  0  0  0  0  0  0  0
    3.2312    0.3911    1.0764 H   0  0  0  0  0  0  0  0  0  0  0  0
    2.1702   -1.0744   -1.3869 H   0  0  0  0  0  0  0  0  0  0  0  0
    2.3370   -1.7051    0.2695 H   0  0  0  0  0  0  0  0  0  0  0  0
    4.1128   -2.6241   -1.0324 H   0  0  0  0  0  0  0  0  0  0  0  0
    4.8666   -1.4800    0.0651 H   0  0  0  0  0  0  0  0  0  0  0  0
    4.0765   -0.8076   -2.8338 H   0  0  0  0  0  0  0  0  0  0  0  0
    5.6464   -1.5283   -2.4376 H   0  0  0  0  0  0  0  0  0  0  0  0
    5.3654    1.0930   -2.7824 H   0  0  0  0  0  0  0  0  0  0  0  0
    6.5016    0.4754   -1.5678 H   0  0  0  0  0  0  0  0  0  0  0  0
    5.0913    2.4190   -0.8160 H   0  0  0  0  0  0  0  0  0  0  0  0
    5.1116    0.9991    0.2687 H   0  0  0  0  0  0  0  0  0  0  0  0
    1.7656    1.4510   -4.8894 H   0  0  0  0  0  0  0  0  0  0  0  0
    0.7904    3.2879   -5.9364 H   0  0  0  0  0  0  0  0  0  0  0  0
    1.4408    4.8560   -5.4007 H   0  0  0  0  0  0  0  0  0  0  0  0
   -0.9597    3.8728   -4.3361 H   0  0  0  0  0  0  0  0  0  0  0  0
    1.2161    5.0707   -2.5252 H   0  0  0  0  0  0  0  0  0  0  0  0
  1  2  1  0
  1 18  1  0
  1 19  1  0
  1 20  1  0
  2  3  1  0
  2  8  1  0
  2 21  1  1
  3  4  1  0
  3 22  1  0
  3 23  1  0
  4  5  1  0
  4 24  1  0
  4 25  1  0
  5  6  1  0
  5 26  1  0
  5 27  1  0
  6  7  1  0
  6 28  1  0
  6 29  1  0
  7  8  1  0
  7 30  1  0
  7 31  1  0
  8  9  1  0
  9 10  2  0
  9 16  1  0
 10 11  1  0
 11 12  2  0
 11 32  1  0
 12 13  1  0
 12 15  1  0
 13 14  1  0
 13 33  1  0
 13 34  1  0
 14 35  1  0
 15 16  2  0
 15 36  1  0
 16 17  1  0
M  END

