
     RDKit          3D

 39 40  0  0  0  0  0  0  0  0999 V2000
    7.9479    1.2558   -4.9004 N   0  0  0  0  0  0  0  0  0  0  0  0
    6.8953    0.5010   -4.2286 C   0  0  0  0  0  0  0  0  0  0  0  0
    5.6453    1.3308   -3.9790 C   0  0  0  0  0  0  0  0  0  0  0  0
    5.5070    2.5881   -4.5836 C   0  0  0  0  0  0  0  0  0  0  0  0
    4.3727    3.3792   -4.3822 C   0  0  0  0  0  0  0  0  0  0  0  0
    3.3355    2.9285   -3.5647 C   0  0  0  0  0  0  0  0  0  0  0  0
    3.4392    1.6765   -2.9560 C   0  0  0  0  0  0  0  0  0  0  0  0
    4.5777    0.8901   -3.1642 C   0  0  0  0  0  0  0  0  0  0  0  0
    4.5974   -0.6980   -2.3027 S   0  0  1  0  0  0  0  0  0  0  0  0
    5.8710   -0.8727   -1.5958 O   0  0  0  0  0  0  0  0  0  0  0  0
    3.3272   -0.7984   -1.5769 O   0  0  0  0  0  0  0  0  0  0  0  0
    4.6268   -1.7867   -3.6085 N   0  0  0  0  0  0  0  0  0  0  0  0
    5.3637   -3.0428   -3.4855 C   0  0  0  0  0  0  0  0  0  0  0  0
    4.5895   -4.1815   -2.8315 C   0  0  0  0  0  0  0  0  0  0  0  0
    4.2559   -3.7752   -1.5285 O   0  0  0  0  0  0  0  0  0  0  0  0
    3.3929   -4.5064   -0.7707 C   0  0  0  0  0  0  0  0  0  0  0  0
    2.9006   -3.8694    0.3807 C   0  0  0  0  0  0  0  0  0  0  0  0
    2.0312   -4.5500    1.2287 C   0  0  0  0  0  0  0  0  0  0  0  0
    1.6358   -5.8643    0.9413 C   0  0  0  0  0  0  0  0  0  0  0  0
    2.1214   -6.4871   -0.2085 C   0  0  0  0  0  0  0  0  0  0  0  0
    2.9998   -5.8181   -1.0715 C   0  0  0  0  0  0  0  0  0  0  0  0
    8.6539    0.6188   -5.2654 H   0  0  0  0  0  0  0  0  0  0  0  0
    8.4283    1.8634   -4.2352 H   0  0  0  0  0  0  0  0  0  0  0  0
    7.2042    0.0471   -3.2706 H   0  0  0  0  0  0  0  0  0  0  0  0
    6.6055   -0.3442   -4.8772 H   0  0  0  0  0  0  0  0  0  0  0  0
    6.3213    2.9265   -5.2261 H   0  0  0  0  0  0  0  0  0  0  0  0
    4.3022    4.3552   -4.8699 H   0  0  0  0  0  0  0  0  0  0  0  0
    2.4477    3.5432   -3.3985 H   0  0  0  0  0  0  0  0  0  0  0  0
    2.6466    1.2934   -2.3123 H   0  0  0  0  0  0  0  0  0  0  0  0
    3.6847   -1.8782   -3.9895 H   0  0  0  0  0  0  0  0  0  0  0  0
    6.2707   -2.8333   -2.9004 H   0  0  0  0  0  0  0  0  0  0  0  0
    5.6805   -3.3599   -4.4938 H   0  0  0  0  0  0  0  0  0  0  0  0
    5.2189   -5.0932   -2.8271 H   0  0  0  0  0  0  0  0  0  0  0  0
    3.6747   -4.4154   -3.4130 H   0  0  0  0  0  0  0  0  0  0  0  0
    3.2064   -2.8381    0.5649 H   0  0  0  0  0  0  0  0  0  0  0  0
    1.6506   -4.0474    2.1218 H   0  0  0  0  0  0  0  0  0  0  0  0
    0.9520   -6.3939    1.6087 H   0  0  0  0  0  0  0  0  0  0  0  0
    1.8199   -7.5111   -0.4457 H   0  0  0  0  0  0  0  0  0  0  0  0
    3.3745   -6.3274   -1.9605 H   0  0  0  0  0  0  0  0  0  0  0  0
  1  2  1  0
  1 22  1  0
  1 23  1  0
  2  3  1  0
  2 24  1  0
  2 25  1  0
  3  4  2  0
  3  8  1  0
  4  5  1  0
  4 26  1  0
  5  6  2  0
  5 27  1  0
  6  7  1  0
  6 28  1  0
  7  8  2  0
  7 29  1  0
  8  9  1  0
  9 10  2  0
  9 11  2  0
  9 12  1  6
 12 13  1  0
 12 30  1  0
 13 14  1  0
 13 31  1  0
 13 32  1  0
 14 15  1  0
 14 33  1  0
 14 34  1  0
 15 16  1  0
 16 17  2  0
 16 21  1  0
 17 18  1  0
 17 35  1  0
 18 19  2  0
 18 36  1  0
 19 20  1  0
 19 37  1  0
 20 21  2  0
 20 38  1  0
 21 39  1  0
M  END

