
     RDKit          3D

 74 77  0  0  0  0  0  0  0  0999 V2000
    5.5269    5.6888   -6.7472 C   0  0  0  0  0  0  0  0  0  0  0  0
    5.9150    4.6746   -5.8003 N   0  0  0  0  0  0  0  0  0  0  0  0
    5.1754    3.6053   -5.4597 C   0  0  0  0  0  0  0  0  0  0  0  0
    5.5339    2.6417   -4.5491 C   0  0  0  0  0  0  0  0  0  0  0  0
    6.8066    2.7082   -3.8443 C   0  0  0  0  0  0  0  0  0  0  0  0
    7.6382    3.6173   -4.0127 O   0  0  0  0  0  0  0  0  0  0  0  0
    7.0764    1.6962   -2.9517 N   0  0  0  0  0  0  0  0  0  0  0  0
    8.2745    1.6931   -2.1399 C   0  0  0  0  0  0  0  0  0  0  0  0
    9.5080    1.2348   -2.9180 C   0  0  0  0  0  0  0  0  0  0  0  0
   10.5949    1.2076   -2.0078 O   0  0  0  0  0  0  0  0  0  0  0  0
   11.8445    0.9138   -2.4435 C   0  0  0  0  0  0  0  0  0  0  0  0
   12.1525    0.6006   -3.7759 C   0  0  0  0  0  0  0  0  0  0  0  0
   13.4726    0.3062   -4.1310 C   0  0  0  0  0  0  0  0  0  0  0  0
   14.4935    0.3252   -3.1763 C   0  0  0  0  0  0  0  0  0  0  0  0
   15.9369    0.0947   -3.5916 C   0  0  0  0  0  0  0  0  0  0  0  0
   16.6356   -0.9625   -2.8724 N   0  0  0  0  0  0  0  0  0  0  0  0
   16.2427   -2.3365   -2.9244 C   0  0  1  0  0  0  0  0  0  0  0  0
   15.4067   -2.9030   -1.7218 C   0  0  0  0  0  0  0  0  0  0  0  0
   14.6452   -3.7966   -2.7488 C   0  0  2  0  0  0  0  0  0  0  0  0
   15.2340   -5.1979   -2.8246 C   0  0  0  0  0  0  0  0  0  0  0  0
   16.3855   -5.4043   -3.1079 O   0  0  0  0  0  0  0  0  0  0  0  0
   14.4054   -6.2199   -2.5368 O   0  0  0  0  0  0  0  0  0  0  0  0
   15.1694   -2.8752   -3.8909 C   0  0  0  0  0  0  0  0  0  0  0  0
   17.8804   -0.6396   -2.1003 C   0  0  1  0  0  0  0  0  0  0  0  0
   19.0141   -0.4533   -3.1258 C   0  0  0  0  0  0  0  0  0  0  0  0
   17.6776    0.4710   -1.0907 C   0  0  0  0  0  0  0  0  0  0  0  0
   18.0512    1.7843   -1.3560 C   0  0  0  0  0  0  0  0  0  0  0  0
   17.8751    2.8336   -0.3965 C   0  0  0  0  0  0  0  0  0  0  0  0
   17.2991    2.4446    0.8306 C   0  0  0  0  0  0  0  0  0  0  0  0
   16.9169    1.1497    1.1331 C   0  0  0  0  0  0  0  0  0  0  0  0
   17.0532    0.0997    0.1500 C   0  0  0  0  0  0  0  0  0  0  0  0
   16.2681    1.1548    2.4900 C   0  0  0  0  0  0  0  0  0  0  0  0
   16.6602    2.5617    2.9958 C   0  0  0  0  0  0  0  0  0  0  0  0
   17.0471    3.3306    1.8462 O   0  0  0  0  0  0  0  0  0  0  0  0
   14.1746    0.6542   -1.8430 C   0  0  0  0  0  0  0  0  0  0  0  0
   12.8625    0.9437   -1.4595 C   0  0  0  0  0  0  0  0  0  0  0  0
   12.5170    1.3084   -0.0404 C   0  0  0  0  0  0  0  0  0  0  0  0
    6.2410    5.7604   -7.5870 H   0  0  0  0  0  0  0  0  0  0  0  0
    5.4624    6.6865   -6.2771 H   0  0  0  0  0  0  0  0  0  0  0  0
    4.5376    5.4506   -7.1669 H   0  0  0  0  0  0  0  0  0  0  0  0
    6.8112    4.7276   -5.3021 H   0  0  0  0  0  0  0  0  0  0  0  0
    4.2070    3.5233   -5.9686 H   0  0  0  0  0  0  0  0  0  0  0  0
    4.8393    1.8225   -4.3579 H   0  0  0  0  0  0  0  0  0  0  0  0
    6.3892    0.9665   -2.8178 H   0  0  0  0  0  0  0  0  0  0  0  0
    8.1216    1.0285   -1.2758 H   0  0  0  0  0  0  0  0  0  0  0  0
    8.4648    2.7082   -1.7579 H   0  0  0  0  0  0  0  0  0  0  0  0
    9.6994    1.9434   -3.7410 H   0  0  0  0  0  0  0  0  0  0  0  0
    9.3393    0.2300   -3.3504 H   0  0  0  0  0  0  0  0  0  0  0  0
   11.3778    0.5954   -4.5422 H   0  0  0  0  0  0  0  0  0  0  0  0
   13.6989    0.0774   -5.1771 H   0  0  0  0  0  0  0  0  0  0  0  0
   16.5227    1.0101   -3.4294 H   0  0  0  0  0  0  0  0  0  0  0  0
   15.9711   -0.1645   -4.6651 H   0  0  0  0  0  0  0  0  0  0  0  0
   17.1592   -2.9424   -3.0048 H   0  0  0  0  0  0  0  0  0  0  0  0
   14.7605   -2.1285   -1.2920 H   0  0  0  0  0  0  0  0  0  0  0  0
   15.9777   -3.4022   -0.9289 H   0  0  0  0  0  0  0  0  0  0  0  0
   13.5521   -3.8070   -2.6243 H   0  0  0  0  0  0  0  0  0  0  0  0
   13.5185   -5.8937   -2.3291 H   0  0  0  0  0  0  0  0  0  0  0  0
   14.4152   -2.1292   -4.1593 H   0  0  0  0  0  0  0  0  0  0  0  0
   15.5502   -3.3765   -4.7915 H   0  0  0  0  0  0  0  0  0  0  0  0
   18.0947   -1.5664   -1.5453 H   0  0  0  0  0  0  0  0  0  0  0  0
   18.8551    0.4268   -3.7640 H   0  0  0  0  0  0  0  0  0  0  0  0
   19.1234   -1.3380   -3.7732 H   0  0  0  0  0  0  0  0  0  0  0  0
   19.9501   -0.3049   -2.5723 H   0  0  0  0  0  0  0  0  0  0  0  0
   18.5106    2.0412   -2.3142 H   0  0  0  0  0  0  0  0  0  0  0  0
   18.2006    3.8557   -0.5793 H   0  0  0  0  0  0  0  0  0  0  0  0
   16.9753   -0.9524    0.4401 H   0  0  0  0  0  0  0  0  0  0  0  0
   16.6365    0.3651    3.1716 H   0  0  0  0  0  0  0  0  0  0  0  0
   15.1633    1.0231    2.4398 H   0  0  0  0  0  0  0  0  0  0  0  0
   17.5236    2.5067    3.6853 H   0  0  0  0  0  0  0  0  0  0  0  0
   15.8459    3.0975    3.5090 H   0  0  0  0  0  0  0  0  0  0  0  0
   14.9688    0.6821   -1.0896 H   0  0  0  0  0  0  0  0  0  0  0  0
   13.4053    1.2671    0.6037 H   0  0  0  0  0  0  0  0  0  0  0  0
   11.7473    0.6334    0.3686 H   0  0  0  0  0  0  0  0  0  0  0  0
   12.0941    2.3251    0.0119 H   0  0  0  0  0  0  0  0  0  0  0  0
  1  2  1  0
  1 38  1  0
  1 39  1  0
  1 40  1  0
  2  3  1  0
  2 41  1  0
  3  4  2  0
  3 42  1  0
  4  5  1  0
  4 43  1  0
  5  6  2  0
  5  7  1  0
  7  8  1  0
  7 44  1  0
  8  9  1  0
  8 45  1  0
  8 46  1  0
  9 10  1  0
  9 47  1  0
  9 48  1  0
 10 11  1  0
 11 12  2  0
 11 36  1  0
 12 13  1  0
 12 49  1  0
 13 14  2  0
 13 50  1  0
 14 15  1  0
 14 35  1  0
 15 16  1  0
 15 51  1  0
 15 52  1  0
 16 17  1  0
 16 24  1  0
 17 18  1  0
 17 23  1  0
 17 53  1  1
 18 19  1  0
 18 54  1  0
 18 55  1  0
 19 20  1  0
 19 23  1  0
 19 56  1  6
 20 21  2  0
 20 22  1  0
 22 57  1  0
 23 58  1  0
 23 59  1  0
 24 25  1  0
 24 26  1  0
 24 60  1  1
 25 61  1  0
 25 62  1  0
 25 63  1  0
 26 27  2  0
 26 31  1  0
 27 28  1  0
 27 64  1  0
 28 29  2  0
 28 65  1  0
 29 30  1  0
 29 34  1  0
 30 31  2  0
 30 32  1  0
 31 66  1  0
 32 33  1  0
 32 67  1  0
 32 68  1  0
 33 34  1  0
 33 69  1  0
 33 70  1  0
 35 36  2  0
 35 71  1  0
 36 37  1  0
 37 72  1  0
 37 73  1  0
 37 74  1  0
M  END

