
     RDKit          3D

 36 37  0  0  0  0  0  0  0  0999 V2000
    2.1909    0.1942    3.4051 C   0  0  0  0  0  0  0  0  0  0  0  0
    3.4263    0.7198    2.7165 C   0  0  0  0  0  0  0  0  0  0  0  0
    4.4478   -0.1346    2.2801 C   0  0  0  0  0  0  0  0  0  0  0  0
    5.5847    0.3628    1.6380 C   0  0  0  0  0  0  0  0  0  0  0  0
    5.7437    1.7339    1.4082 C   0  0  0  0  0  0  0  0  0  0  0  0
    6.9550    2.3090    0.7195 C   0  0  0  0  0  0  0  0  0  0  0  0
    7.8508    1.2685    0.3618 O   0  0  0  0  0  0  0  0  0  0  0  0
    9.0060    1.5352   -0.2732 C   0  0  0  0  0  0  0  0  0  0  0  0
    9.4047    2.8558   -0.6249 C   0  0  0  0  0  0  0  0  0  0  0  0
   10.6399    2.9363   -1.2851 C   0  0  0  0  0  0  0  0  0  0  0  0
   11.0804    4.1447   -1.6515 F   0  0  0  0  0  0  0  0  0  0  0  0
   11.4530    1.8288   -1.5963 C   0  0  0  0  0  0  0  0  0  0  0  0
   11.0584    0.4868   -1.2447 C   0  0  0  0  0  0  0  0  0  0  0  0
   11.8566   -0.6231   -1.5252 C   0  0  0  0  0  0  0  0  0  0  0  0
   12.5500   -1.6137   -1.7639 C   0  0  0  0  0  0  0  0  0  0  0  0
   13.3841   -2.7667   -2.0849 C   0  0  0  0  0  0  0  0  0  0  0  0
   14.0308   -3.3573   -0.9028 N   0  0  0  0  0  0  0  0  0  0  0  0
    9.7900    0.3853   -0.5641 C   0  0  0  0  0  0  0  0  0  0  0  0
    4.7161    2.5851    1.8487 C   0  0  0  0  0  0  0  0  0  0  0  0
    4.8623    4.3174    1.5876 Cl  0  0  0  0  0  0  0  0  0  0  0  0
    3.5793    2.0971    2.4896 C   0  0  0  0  0  0  0  0  0  0  0  0
    2.2486   -0.8927    3.5609 H   0  0  0  0  0  0  0  0  0  0  0  0
    1.2848    0.4015    2.8114 H   0  0  0  0  0  0  0  0  0  0  0  0
    2.0471    0.6704    4.3889 H   0  0  0  0  0  0  0  0  0  0  0  0
    4.3563   -1.2114    2.4440 H   0  0  0  0  0  0  0  0  0  0  0  0
    6.3677   -0.3196    1.3064 H   0  0  0  0  0  0  0  0  0  0  0  0
    7.4697    3.0294    1.3808 H   0  0  0  0  0  0  0  0  0  0  0  0
    6.6552    2.8679   -0.1854 H   0  0  0  0  0  0  0  0  0  0  0  0
    8.8279    3.7523   -0.4183 H   0  0  0  0  0  0  0  0  0  0  0  0
   12.3969    2.0112   -2.1120 H   0  0  0  0  0  0  0  0  0  0  0  0
   14.0961   -2.4536   -2.8820 H   0  0  0  0  0  0  0  0  0  0  0  0
   12.7571   -3.5562   -2.5442 H   0  0  0  0  0  0  0  0  0  0  0  0
   14.6450   -2.6643   -0.4720 H   0  0  0  0  0  0  0  0  0  0  0  0
   14.6300   -4.1314   -1.1978 H   0  0  0  0  0  0  0  0  0  0  0  0
    9.4073   -0.5863   -0.2523 H   0  0  0  0  0  0  0  0  0  0  0  0
    2.8105    2.8023    2.8122 H   0  0  0  0  0  0  0  0  0  0  0  0
  1  2  1  0
  1 22  1  0
  1 23  1  0
  1 24  1  0
  2  3  2  0
  2 21  1  0
  3  4  1  0
  3 25  1  0
  4  5  2  0
  4 26  1  0
  5  6  1  0
  5 19  1  0
  6  7  1  0
  6 27  1  0
  6 28  1  0
  7  8  1  0
  8  9  2  0
  8 18  1  0
  9 10  1  0
  9 29  1  0
 10 11  1  0
 10 12  2  0
 12 13  1  0
 12 30  1  0
 13 14  1  0
 13 18  2  0
 14 15  3  0
 15 16  1  0
 16 17  1  0
 16 31  1  0
 16 32  1  0
 17 33  1  0
 17 34  1  0
 18 35  1  0
 19 20  1  0
 19 21  2  0
 21 36  1  0
M  END

