
     RDKit          3D

 34 36  0  0  0  0  0  0  0  0999 V2000
    5.2727   -1.0771   -0.8122 C   0  0  0  0  0  0  0  0  0  0  0  0
    4.0794   -0.2615   -0.6685 N   0  0  0  0  0  0  0  0  0  0  0  0
    3.9827    1.0860   -0.9437 C   0  0  0  0  0  0  0  0  0  0  0  0
    2.6817    1.4349   -0.6655 C   0  0  0  0  0  0  0  0  0  0  0  0
    1.9868    0.3409   -0.2253 N   0  0  0  0  0  0  0  0  0  0  0  0
    2.8372   -0.6662   -0.2368 C   0  0  0  0  0  0  0  0  0  0  0  0
    2.5890   -2.0999    0.1948 C   0  0  1  0  0  0  0  0  0  0  0  0
    3.3445   -2.4449    1.3997 N   0  0  0  0  0  0  0  0  0  0  0  0
    3.1284   -1.9477    2.6751 C   0  0  0  0  0  0  0  0  0  0  0  0
    2.2124   -0.9079    2.9487 C   0  0  0  0  0  0  0  0  0  0  0  0
    2.0440   -0.4218    4.2446 C   0  0  0  0  0  0  0  0  0  0  0  0
    2.7700   -0.9508    5.3150 C   0  0  0  0  0  0  0  0  0  0  0  0
    3.6817   -1.9807    5.0716 C   0  0  0  0  0  0  0  0  0  0  0  0
    3.8548   -2.4628    3.7759 C   0  0  0  0  0  0  0  0  0  0  0  0
    5.1331   -3.8700    3.4880 Br  0  0  0  0  0  0  0  0  0  0  0  0
    1.1240   -2.5063    0.2452 C   0  0  0  0  0  0  0  0  0  0  0  0
    0.0031   -1.9361   -0.3087 C   0  0  0  0  0  0  0  0  0  0  0  0
   -1.1750   -2.7245   -0.1241 C   0  0  0  0  0  0  0  0  0  0  0  0
   -0.9367   -3.8851    0.5648 C   0  0  0  0  0  0  0  0  0  0  0  0
    0.7294   -4.0327    1.0035 S   0  0  0  0  0  0  0  0  0  0  0  0
    6.1236   -0.4277   -1.0559 H   0  0  0  0  0  0  0  0  0  0  0  0
    5.1579   -1.8148   -1.6234 H   0  0  0  0  0  0  0  0  0  0  0  0
    5.4866   -1.6099    0.1249 H   0  0  0  0  0  0  0  0  0  0  0  0
    4.8336    1.6600   -1.3029 H   0  0  0  0  0  0  0  0  0  0  0  0
    2.2151    2.4148   -0.7560 H   0  0  0  0  0  0  0  0  0  0  0  0
    3.0550   -2.7301   -0.5847 H   0  0  0  0  0  0  0  0  0  0  0  0
    3.8641   -3.3140    1.3650 H   0  0  0  0  0  0  0  0  0  0  0  0
    1.6368   -0.4742    2.1316 H   0  0  0  0  0  0  0  0  0  0  0  0
    1.3263    0.3846    4.4150 H   0  0  0  0  0  0  0  0  0  0  0  0
    2.6338   -0.5705    6.3296 H   0  0  0  0  0  0  0  0  0  0  0  0
    4.2650   -2.4142    5.8860 H   0  0  0  0  0  0  0  0  0  0  0  0
    0.0292   -0.9688   -0.8056 H   0  0  0  0  0  0  0  0  0  0  0  0
   -2.1634   -2.4297   -0.4812 H   0  0  0  0  0  0  0  0  0  0  0  0
   -1.6480   -4.6551    0.8605 H   0  0  0  0  0  0  0  0  0  0  0  0
  1  2  1  0
  1 21  1  0
  1 22  1  0
  1 23  1  0
  2  3  1  0
  2  6  1  0
  3  4  2  0
  3 24  1  0
  4  5  1  0
  4 25  1  0
  5  6  2  0
  6  7  1  0
  7  8  1  0
  7 16  1  0
  7 26  1  6
  8  9  1  0
  8 27  1  0
  9 10  2  0
  9 14  1  0
 10 11  1  0
 10 28  1  0
 11 12  2  0
 11 29  1  0
 12 13  1  0
 12 30  1  0
 13 14  2  0
 13 31  1  0
 14 15  1  0
 16 17  2  0
 16 20  1  0
 17 18  1  0
 17 32  1  0
 18 19  2  0
 18 33  1  0
 19 20  1  0
 19 34  1  0
M  END

