
     RDKit          3D

 42 44  0  0  0  0  0  0  0  0999 V2000
    1.2538    1.9735    0.9733 C   0  0  0  0  0  0  0  0  0  0  0  0
    1.5889    0.4905    1.1108 C   0  0  1  0  0  0  0  0  0  0  0  0
    2.0363   -0.0365   -0.1808 N   0  0  0  0  0  0  0  0  0  0  0  0
    2.6225    0.2005    2.2479 C   0  0  1  0  0  0  0  0  0  0  0  0
    2.8159   -1.3205    2.3824 C   0  0  0  0  0  0  0  0  0  0  0  0
    3.8749   -2.0132    1.7718 C   0  0  0  0  0  0  0  0  0  0  0  0
    3.9992   -3.4015    1.8867 C   0  0  0  0  0  0  0  0  0  0  0  0
    3.0507   -4.1084    2.6202 C   0  0  0  0  0  0  0  0  0  0  0  0
    3.1662   -5.4404    2.7364 F   0  0  0  0  0  0  0  0  0  0  0  0
    1.9866   -3.4589    3.2412 C   0  0  0  0  0  0  0  0  0  0  0  0
    1.8803   -2.0720    3.1152 C   0  0  0  0  0  0  0  0  0  0  0  0
    3.8391    1.0060    2.2247 N   0  0  0  0  0  0  0  0  0  0  0  0
    4.6703    1.1290    1.0406 C   0  0  0  0  0  0  0  0  0  0  0  0
    5.1121    2.5471    0.7434 C   0  0  0  0  0  0  0  0  0  0  0  0
    4.5588    3.7493    1.1157 C   0  0  0  0  0  0  0  0  0  0  0  0
    5.2537    4.8841    0.5893 C   0  0  0  0  0  0  0  0  0  0  0  0
    6.3328    4.5353   -0.1791 C   0  0  0  0  0  0  0  0  0  0  0  0
    6.5158    2.8138   -0.2610 S   0  0  0  0  0  0  0  0  0  0  0  0
    4.4512    1.3824    3.4709 C   0  0  1  0  0  0  0  0  0  0  0  0
    4.4010    0.5100    4.7010 C   0  0  0  0  0  0  0  0  0  0  0  0
    5.7051    0.6950    3.9720 C   0  0  0  0  0  0  0  0  0  0  0  0
    0.3988    2.1088    0.2895 H   0  0  0  0  0  0  0  0  0  0  0  0
    2.1034    2.5414    0.5716 H   0  0  0  0  0  0  0  0  0  0  0  0
    0.9736    2.4068    1.9459 H   0  0  0  0  0  0  0  0  0  0  0  0
    0.6643   -0.0198    1.4578 H   0  0  0  0  0  0  0  0  0  0  0  0
    2.0744   -1.0558   -0.1614 H   0  0  0  0  0  0  0  0  0  0  0  0
    1.3772    0.2200   -0.9156 H   0  0  0  0  0  0  0  0  0  0  0  0
    2.0936    0.5133    3.1622 H   0  0  0  0  0  0  0  0  0  0  0  0
    4.6235   -1.4680    1.1975 H   0  0  0  0  0  0  0  0  0  0  0  0
    4.8234   -3.9414    1.4158 H   0  0  0  0  0  0  0  0  0  0  0  0
    1.2644   -4.0404    3.8179 H   0  0  0  0  0  0  0  0  0  0  0  0
    1.0505   -1.5597    3.6118 H   0  0  0  0  0  0  0  0  0  0  0  0
    4.0928    0.7449    0.1845 H   0  0  0  0  0  0  0  0  0  0  0  0
    5.5898    0.5085    1.1154 H   0  0  0  0  0  0  0  0  0  0  0  0
    3.6800    3.8174    1.7567 H   0  0  0  0  0  0  0  0  0  0  0  0
    4.9615    5.9185    0.7798 H   0  0  0  0  0  0  0  0  0  0  0  0
    7.0344    5.1865   -0.6986 H   0  0  0  0  0  0  0  0  0  0  0  0
    4.4248    2.4606    3.6851 H   0  0  0  0  0  0  0  0  0  0  0  0
    3.9255   -0.4705    4.6324 H   0  0  0  0  0  0  0  0  0  0  0  0
    4.2590    1.0092    5.6640 H   0  0  0  0  0  0  0  0  0  0  0  0
    6.0716   -0.1589    3.3955 H   0  0  0  0  0  0  0  0  0  0  0  0
    6.4900    1.3092    4.4221 H   0  0  0  0  0  0  0  0  0  0  0  0
  1  2  1  0
  1 22  1  0
  1 23  1  0
  1 24  1  0
  2  3  1  0
  2  4  1  0
  2 25  1  1
  3 26  1  0
  3 27  1  0
  4  5  1  0
  4 12  1  0
  4 28  1  1
  5  6  2  0
  5 11  1  0
  6  7  1  0
  6 29  1  0
  7  8  2  0
  7 30  1  0
  8  9  1  0
  8 10  1  0
 10 11  2  0
 10 31  1  0
 11 32  1  0
 12 13  1  0
 12 19  1  0
 13 14  1  0
 13 33  1  0
 13 34  1  0
 14 15  2  0
 14 18  1  0
 15 16  1  0
 15 35  1  0
 16 17  2  0
 16 36  1  0
 17 18  1  0
 17 37  1  0
 19 20  1  0
 19 21  1  0
 19 38  1  1
 20 21  1  0
 20 39  1  0
 20 40  1  0
 21 41  1  0
 21 42  1  0
M  END

