
     RDKit          3D

102110  0  0  0  0  0  0  0  0999 V2000
    0.8660   -4.5418   -1.4386 C   0  0  0  0  0  0  0  0  0  0  0  0
    1.2100   -4.7426    0.0418 C   0  0  0  0  0  0  0  0  0  0  0  0
    2.2158   -3.8217    0.5625 N   0  0  0  0  0  0  0  0  0  0  0  0
    1.8043   -2.5121    1.0781 C   0  0  0  0  0  0  0  0  0  0  0  0
    0.3606   -2.4103    1.5592 C   0  0  0  0  0  0  0  0  0  0  0  0
    3.5579   -4.0274    0.2910 C   0  0  0  0  0  0  0  0  0  0  0  0
    4.0318   -5.2558   -0.2680 C   0  0  0  0  0  0  0  0  0  0  0  0
    5.3772   -5.4684   -0.5019 C   0  0  0  0  0  0  0  0  0  0  0  0
    6.3502   -4.4816   -0.2149 C   0  0  0  0  0  0  0  0  0  0  0  0
    7.7486   -4.6134   -0.4289 C   0  0  0  0  0  0  0  0  0  0  0  0
    8.6515   -3.6041   -0.1305 C   0  0  0  0  0  0  0  0  0  0  0  0
   10.0912   -3.7461   -0.3953 C   0  0  0  0  0  0  0  0  0  0  0  0
   10.5580   -4.6859   -1.3506 C   0  0  0  0  0  0  0  0  0  0  0  0
   11.9094   -4.8815   -1.5907 C   0  0  0  0  0  0  0  0  0  0  0  0
   12.8983   -4.1271   -0.9126 C   0  0  0  0  0  0  0  0  0  0  0  0
   14.3325   -4.3219   -1.1807 C   0  0  0  0  0  0  0  0  0  0  0  0
   15.1672   -3.2107   -1.5445 C   0  0  0  0  0  0  0  0  0  0  0  0
   14.6309   -1.9096   -1.7431 C   0  0  0  0  0  0  0  0  0  0  0  0
   15.4430   -0.8092   -1.9956 C   0  0  0  0  0  0  0  0  0  0  0  0
   16.8351   -0.9698   -2.0576 C   0  0  0  0  0  0  0  0  0  0  0  0
   17.3897   -2.2397   -1.9346 C   0  0  0  0  0  0  0  0  0  0  0  0
   16.5867   -3.3958   -1.7435 C   0  0  0  0  0  0  0  0  0  0  0  0
   17.1606   -4.7140   -1.7197 C   0  0  0  0  0  0  0  0  0  0  0  0
   18.5914   -4.9167   -1.9841 C   0  0  0  0  0  0  0  0  0  0  0  0
   19.4201   -5.6253   -1.0783 C   0  0  0  0  0  0  0  0  0  0  0  0
   20.7718   -5.8068   -1.3209 C   0  0  0  0  0  0  0  0  0  0  0  0
   21.4014   -5.3287   -2.5035 C   0  0  0  0  0  0  0  0  0  0  0  0
   22.8233   -5.5915   -2.7516 C   0  0  0  0  0  0  0  0  0  0  0  0
   23.5255   -6.5669   -2.0433 C   0  0  0  0  0  0  0  0  0  0  0  0
   24.9059   -6.8192   -2.2465 C   0  0  0  0  0  0  0  0  0  0  0  0
   25.6773   -7.7894   -1.5618 C   0  0  0  0  0  0  0  0  0  0  0  0
   27.0245   -7.9699   -1.8219 C   0  0  0  0  0  0  0  0  0  0  0  0
   27.7017   -7.1905   -2.8082 C   0  0  0  0  0  0  0  0  0  0  0  0
   29.0397   -7.3973   -3.1012 N   0  0  0  0  0  0  0  0  0  0  0  0
   29.7261   -6.5797   -4.0957 C   0  0  0  0  0  0  0  0  0  0  0  0
   30.2193   -5.2152   -3.5987 C   0  0  0  0  0  0  0  0  0  0  0  0
   29.8266   -8.3897   -2.3782 C   0  0  0  0  0  0  0  0  0  0  0  0
   30.3666   -7.9361   -1.0161 C   0  0  0  0  0  0  0  0  0  0  0  0
   26.9391   -6.2087   -3.4901 C   0  0  0  0  0  0  0  0  0  0  0  0
   25.5877   -6.0431   -3.2132 C   0  0  0  0  0  0  0  0  0  0  0  0
   24.9134   -5.0954   -3.9120 O   0  0  0  0  0  0  0  0  0  0  0  0
   23.5543   -4.8126   -3.7623 C   0  0  0  0  0  0  0  0  0  0  0  0
   23.1236   -3.9442   -4.4847 O   0  0  0  0  0  0  0  0  0  0  0  0
   20.5684   -4.6171   -3.4077 C   0  0  0  0  0  0  0  0  0  0  0  0
   19.2207   -4.4119   -3.1500 C   0  0  0  0  0  0  0  0  0  0  0  0
   16.3079   -5.8348   -1.4292 C   0  0  0  0  0  0  0  0  0  0  0  0
   16.7883   -7.1703   -1.4939 C   0  0  0  0  0  0  0  0  0  0  0  0
   16.0033   -8.2546   -1.1158 C   0  0  0  0  0  0  0  0  0  0  0  0
   14.6975   -8.0396   -0.6500 C   0  0  0  0  0  0  0  0  0  0  0  0
   14.1708   -6.7526   -0.6394 C   0  0  0  0  0  0  0  0  0  0  0  0
   14.9187   -5.6298   -1.0872 C   0  0  0  0  0  0  0  0  0  0  0  0
   12.4339   -3.1722    0.0243 C   0  0  0  0  0  0  0  0  0  0  0  0
   11.0814   -2.9906    0.2814 C   0  0  0  0  0  0  0  0  0  0  0  0
    8.1305   -2.3548    0.4530 C   0  0  0  0  0  0  0  0  0  0  0  0
    8.7617   -1.3842    0.7937 O   0  0  0  0  0  0  0  0  0  0  0  0
    6.7502   -2.2752    0.6277 O   0  0  0  0  0  0  0  0  0  0  0  0
    5.8750   -3.2662    0.3256 C   0  0  0  0  0  0  0  0  0  0  0  0
    4.5259   -3.0297    0.5673 C   0  0  0  0  0  0  0  0  0  0  0  0
    0.1051   -5.2718   -1.7598 H   0  0  0  0  0  0  0  0  0  0  0  0
    1.7526   -4.6698   -2.0785 H   0  0  0  0  0  0  0  0  0  0  0  0
    0.4633   -3.5325   -1.6211 H   0  0  0  0  0  0  0  0  0  0  0  0
    1.5475   -5.7750    0.2165 H   0  0  0  0  0  0  0  0  0  0  0  0
    0.3013   -4.6386    0.6480 H   0  0  0  0  0  0  0  0  0  0  0  0
    1.9893   -1.7255    0.3185 H   0  0  0  0  0  0  0  0  0  0  0  0
    2.4581   -2.2661    1.9304 H   0  0  0  0  0  0  0  0  0  0  0  0
   -0.3743   -2.5264    0.7482 H   0  0  0  0  0  0  0  0  0  0  0  0
    0.2090   -1.4101    1.9934 H   0  0  0  0  0  0  0  0  0  0  0  0
    0.1349   -3.1495    2.3438 H   0  0  0  0  0  0  0  0  0  0  0  0
    3.3346   -6.0525   -0.5187 H   0  0  0  0  0  0  0  0  0  0  0  0
    5.7031   -6.4222   -0.9260 H   0  0  0  0  0  0  0  0  0  0  0  0
    8.1125   -5.5647   -0.8231 H   0  0  0  0  0  0  0  0  0  0  0  0
    9.8411   -5.2506   -1.9497 H   0  0  0  0  0  0  0  0  0  0  0  0
   12.2152   -5.5954   -2.3589 H   0  0  0  0  0  0  0  0  0  0  0  0
   13.5515   -1.7707   -1.7006 H   0  0  0  0  0  0  0  0  0  0  0  0
   14.9924    0.1764   -2.1338 H   0  0  0  0  0  0  0  0  0  0  0  0
   17.4864   -0.1063   -2.2114 H   0  0  0  0  0  0  0  0  0  0  0  0
   18.4720   -2.3511   -1.9821 H   0  0  0  0  0  0  0  0  0  0  0  0
   18.9957   -5.9901   -0.1399 H   0  0  0  0  0  0  0  0  0  0  0  0
   21.3662   -6.3035   -0.5527 H   0  0  0  0  0  0  0  0  0  0  0  0
   23.0034   -7.1917   -1.3166 H   0  0  0  0  0  0  0  0  0  0  0  0
   25.1913   -8.4081   -0.8022 H   0  0  0  0  0  0  0  0  0  0  0  0
   27.5623   -8.7258   -1.2530 H   0  0  0  0  0  0  0  0  0  0  0  0
   29.0647   -6.4414   -4.9666 H   0  0  0  0  0  0  0  0  0  0  0  0
   30.5835   -7.1648   -4.4644 H   0  0  0  0  0  0  0  0  0  0  0  0
   29.3903   -4.6032   -3.2120 H   0  0  0  0  0  0  0  0  0  0  0  0
   30.6949   -4.6594   -4.4233 H   0  0  0  0  0  0  0  0  0  0  0  0
   30.9615   -5.3252   -2.7929 H   0  0  0  0  0  0  0  0  0  0  0  0
   30.6702   -8.6735   -3.0272 H   0  0  0  0  0  0  0  0  0  0  0  0
   29.2283   -9.3074   -2.2545 H   0  0  0  0  0  0  0  0  0  0  0  0
   31.0488   -7.0784   -1.1202 H   0  0  0  0  0  0  0  0  0  0  0  0
   30.9246   -8.7560   -0.5346 H   0  0  0  0  0  0  0  0  0  0  0  0
   29.5518   -7.6360   -0.3396 H   0  0  0  0  0  0  0  0  0  0  0  0
   27.3694   -5.5575   -4.2476 H   0  0  0  0  0  0  0  0  0  0  0  0
   21.0026   -4.2313   -4.3270 H   0  0  0  0  0  0  0  0  0  0  0  0
   18.6187   -3.8858   -3.8947 H   0  0  0  0  0  0  0  0  0  0  0  0
   17.7995   -7.3487   -1.8566 H   0  0  0  0  0  0  0  0  0  0  0  0
   16.4109   -9.2665   -1.1742 H   0  0  0  0  0  0  0  0  0  0  0  0
   14.0878   -8.8782   -0.3054 H   0  0  0  0  0  0  0  0  0  0  0  0
   13.1572   -6.5984   -0.2719 H   0  0  0  0  0  0  0  0  0  0  0  0
   13.1604   -2.5886    0.5942 H   0  0  0  0  0  0  0  0  0  0  0  0
   10.7723   -2.2571    1.0226 H   0  0  0  0  0  0  0  0  0  0  0  0
    4.2645   -2.0554    0.9715 H   0  0  0  0  0  0  0  0  0  0  0  0
  1  2  1  0
  1 59  1  0
  1 60  1  0
  1 61  1  0
  2  3  1  0
  2 62  1  0
  2 63  1  0
  3  4  1  0
  3  6  1  0
  4  5  1  0
  4 64  1  0
  4 65  1  0
  5 66  1  0
  5 67  1  0
  5 68  1  0
  6  7  2  0
  6 58  1  0
  7  8  1  0
  7 69  1  0
  8  9  2  0
  8 70  1  0
  9 10  1  0
  9 57  1  0
 10 11  2  0
 10 71  1  0
 11 12  1  0
 11 54  1  0
 12 13  2  0
 12 53  1  0
 13 14  1  0
 13 72  1  0
 14 15  2  0
 14 73  1  0
 15 16  1  0
 15 52  1  0
 16 17  1  0
 16 51  2  0
 17 18  2  0
 17 22  1  0
 18 19  1  0
 18 74  1  0
 19 20  2  0
 19 75  1  0
 20 21  1  0
 20 76  1  0
 21 22  2  0
 21 77  1  0
 22 23  1  0
 23 24  1  0
 23 46  2  0
 24 25  2  0
 24 45  1  0
 25 26  1  0
 25 78  1  0
 26 27  2  0
 26 79  1  0
 27 28  1  0
 27 44  1  0
 28 29  2  0
 28 42  1  0
 29 30  1  0
 29 80  1  0
 30 31  2  0
 30 40  1  0
 31 32  1  0
 31 81  1  0
 32 33  2  0
 32 82  1  0
 33 34  1  0
 33 39  1  0
 34 35  1  0
 34 37  1  0
 35 36  1  0
 35 83  1  0
 35 84  1  0
 36 85  1  0
 36 86  1  0
 36 87  1  0
 37 38  1  0
 37 88  1  0
 37 89  1  0
 38 90  1  0
 38 91  1  0
 38 92  1  0
 39 40  2  0
 39 93  1  0
 40 41  1  0
 41 42  1  0
 42 43  2  0
 44 45  2  0
 44 94  1  0
 45 95  1  0
 46 47  1  0
 46 51  1  0
 47 48  2  0
 47 96  1  0
 48 49  1  0
 48 97  1  0
 49 50  2  0
 49 98  1  0
 50 51  1  0
 50 99  1  0
 52 53  2  0
 52100  1  0
 53101  1  0
 54 55  2  0
 54 56  1  0
 56 57  1  0
 57 58  2  0
 58102  1  0
M  END

