
     RDKit          3D

 34 35  0  0  0  0  0  0  0  0999 V2000
    1.0432    0.0261    0.5637 C   0  0  0  0  0  0  0  0  0  0  0  0
    2.5083    0.0361    0.2012 C   0  0  0  0  0  0  0  0  0  0  0  0
    3.2811   -1.1337    0.2395 C   0  0  0  0  0  0  0  0  0  0  0  0
    4.6379   -1.1192   -0.0937 C   0  0  0  0  0  0  0  0  0  0  0  0
    5.2585    0.0771   -0.4738 C   0  0  0  0  0  0  0  0  0  0  0  0
    6.7440    0.1015   -0.7861 C   0  0  1  0  0  0  0  0  0  0  0  0
    7.2034   -1.1011   -1.4506 N   0  0  0  0  0  0  0  0  0  0  0  0
    7.7506   -0.7553   -2.5522 C   0  0  0  0  0  0  0  0  0  0  0  0
    8.3600   -1.6653   -3.5669 C   0  0  0  0  0  0  0  0  0  0  0  0
    9.8957   -1.5149   -3.7099 C   0  0  1  0  0  0  0  0  0  0  0  0
   10.6295   -1.9037   -2.4213 C   0  0  0  0  0  0  0  0  0  0  0  0
   10.3931   -2.3373   -4.9039 C   0  0  0  0  0  0  0  0  0  0  0  0
    7.7057    0.7469   -2.7338 C   0  0  0  0  0  0  0  0  0  0  0  0
    8.1167    1.4241   -3.6333 O   0  0  0  0  0  0  0  0  0  0  0  0
    7.0811    1.2194   -1.6273 O   0  0  0  0  0  0  0  0  0  0  0  0
    4.4983    1.2540   -0.5168 C   0  0  0  0  0  0  0  0  0  0  0  0
    3.1434    1.2280   -0.1854 C   0  0  0  0  0  0  0  0  0  0  0  0
    0.6850   -0.9919    0.7761 H   0  0  0  0  0  0  0  0  0  0  0  0
    0.4258    0.4389   -0.2512 H   0  0  0  0  0  0  0  0  0  0  0  0
    0.8489    0.6434    1.4571 H   0  0  0  0  0  0  0  0  0  0  0  0
    2.8124   -2.0783    0.5297 H   0  0  0  0  0  0  0  0  0  0  0  0
    5.2191   -2.0428   -0.0707 H   0  0  0  0  0  0  0  0  0  0  0  0
    7.3267    0.2213    0.1471 H   0  0  0  0  0  0  0  0  0  0  0  0
    7.8963   -1.4334   -4.5414 H   0  0  0  0  0  0  0  0  0  0  0  0
    8.0995   -2.7031   -3.3052 H   0  0  0  0  0  0  0  0  0  0  0  0
   10.0995   -0.4510   -3.9223 H   0  0  0  0  0  0  0  0  0  0  0  0
   10.4581   -2.9653   -2.1730 H   0  0  0  0  0  0  0  0  0  0  0  0
   10.2976   -1.3057   -1.5579 H   0  0  0  0  0  0  0  0  0  0  0  0
   11.7160   -1.7569   -2.5297 H   0  0  0  0  0  0  0  0  0  0  0  0
   10.1896   -3.4122   -4.7582 H   0  0  0  0  0  0  0  0  0  0  0  0
   11.4801   -2.2196   -5.0388 H   0  0  0  0  0  0  0  0  0  0  0  0
    9.9033   -2.0267   -5.8408 H   0  0  0  0  0  0  0  0  0  0  0  0
    4.9701    2.1901   -0.8202 H   0  0  0  0  0  0  0  0  0  0  0  0
    2.5655    2.1560   -0.2303 H   0  0  0  0  0  0  0  0  0  0  0  0
  1  2  1  0
  1 18  1  0
  1 19  1  0
  1 20  1  0
  2  3  2  0
  2 17  1  0
  3  4  1  0
  3 21  1  0
  4  5  2  0
  4 22  1  0
  5  6  1  0
  5 16  1  0
  6  7  1  0
  6 15  1  0
  6 23  1  1
  7  8  2  0
  8  9  1  0
  8 13  1  0
  9 10  1  0
  9 24  1  0
  9 25  1  0
 10 11  1  0
 10 12  1  0
 10 26  1  6
 11 27  1  0
 11 28  1  0
 11 29  1  0
 12 30  1  0
 12 31  1  0
 12 32  1  0
 13 14  2  0
 13 15  1  0
 16 17  2  0
 16 33  1  0
 17 34  1  0
M  END

