
     RDKit          3D

 59 62  0  0  0  0  0  0  0  0999 V2000
    2.1094    4.1647   -3.8335 C   0  0  0  0  0  0  0  0  0  0  0  0
    2.3139    4.5639   -2.3705 C   0  0  0  0  0  0  0  0  0  0  0  0
    3.1348    3.6337   -1.6018 N   0  0  0  0  0  0  0  0  0  0  0  0
    2.3990    2.3750   -1.2840 C   0  0  0  0  0  0  0  0  0  0  0  0
    3.1442    1.0739   -0.7952 C   0  0  0  0  0  0  0  0  0  0  0  0
    3.7206    1.1537    0.6770 C   0  0  1  0  0  0  0  0  0  0  0  0
    5.3028    1.0852    0.8829 C   0  0  0  0  0  0  0  0  0  0  0  0
    5.7871    2.5960    0.8855 C   0  0  0  0  0  0  0  0  0  0  0  0
    4.5199    3.1517    0.2154 C   0  0  2  0  0  0  0  0  0  0  0  0
    3.9233    4.3264   -0.5353 C   0  0  0  0  0  0  0  0  0  0  0  0
    3.4683    2.5353    1.0350 N   0  0  0  0  0  0  0  0  0  0  0  0
    3.1764    3.0497    2.2896 C   0  0  0  0  0  0  0  0  0  0  0  0
    3.5819    4.1472    2.6582 O   0  0  0  0  0  0  0  0  0  0  0  0
    2.3770    2.2530    3.0747 N   0  0  0  0  0  0  0  0  0  0  0  0
    1.8900    2.7182    4.3850 C   0  0  1  0  0  0  0  0  0  0  0  0
    0.6491    3.6207    4.2308 C   0  0  0  0  0  0  0  0  0  0  0  0
    1.6713    1.5683    5.2968 C   0  0  0  0  0  0  0  0  0  0  0  0
    0.6135    0.6829    4.9130 O   0  0  0  0  0  0  0  0  0  0  0  0
    0.5576   -0.3040    5.8107 C   0  0  0  0  0  0  0  0  0  0  0  0
   -0.3553   -1.3738    5.7949 C   0  0  0  0  0  0  0  0  0  0  0  0
   -0.2642   -2.3303    6.8375 C   0  0  0  0  0  0  0  0  0  0  0  0
    0.7353   -2.1570    7.8341 C   0  0  0  0  0  0  0  0  0  0  0  0
    0.8983   -3.0068    8.8637 O   0  0  0  0  0  0  0  0  0  0  0  0
    0.0639   -4.1410    9.0222 C   0  0  0  0  0  0  0  0  0  0  0  0
    1.6670   -1.0639    7.8461 C   0  0  0  0  0  0  0  0  0  0  0  0
    1.5772   -0.1112    6.8110 C   0  0  0  0  0  0  0  0  0  0  0  0
    2.2719    1.0830    6.4544 C   0  0  0  0  0  0  0  0  0  0  0  0
    3.4221    1.6831    7.2002 C   0  0  0  0  0  0  0  0  0  0  0  0
    1.5681    4.9584   -4.3737 H   0  0  0  0  0  0  0  0  0  0  0  0
    1.5208    3.2404   -3.9430 H   0  0  0  0  0  0  0  0  0  0  0  0
    3.0813    4.0061   -4.3271 H   0  0  0  0  0  0  0  0  0  0  0  0
    1.3233    4.7385   -1.8893 H   0  0  0  0  0  0  0  0  0  0  0  0
    2.8262    5.5398   -2.3535 H   0  0  0  0  0  0  0  0  0  0  0  0
    1.9254    2.0796   -2.2325 H   0  0  0  0  0  0  0  0  0  0  0  0
    1.5686    2.5669   -0.5728 H   0  0  0  0  0  0  0  0  0  0  0  0
    3.9252    0.7897   -1.5202 H   0  0  0  0  0  0  0  0  0  0  0  0
    2.3873    0.2718   -0.8428 H   0  0  0  0  0  0  0  0  0  0  0  0
    3.2160    0.4336    1.3368 H   0  0  0  0  0  0  0  0  0  0  0  0
    5.7933    0.5100    0.0806 H   0  0  0  0  0  0  0  0  0  0  0  0
    5.5281    0.5826    1.8354 H   0  0  0  0  0  0  0  0  0  0  0  0
    6.6994    2.7330    0.2858 H   0  0  0  0  0  0  0  0  0  0  0  0
    5.9592    2.9859    1.8989 H   0  0  0  0  0  0  0  0  0  0  0  0
    4.5963    2.5254   -0.6747 H   0  0  0  0  0  0  0  0  0  0  0  0
    4.6835    4.9527   -1.0316 H   0  0  0  0  0  0  0  0  0  0  0  0
    3.3159    4.9759    0.1227 H   0  0  0  0  0  0  0  0  0  0  0  0
    1.8722    1.4840    2.6512 H   0  0  0  0  0  0  0  0  0  0  0  0
    2.7041    3.3270    4.8040 H   0  0  0  0  0  0  0  0  0  0  0  0
   -0.1978    3.0513    3.8164 H   0  0  0  0  0  0  0  0  0  0  0  0
    0.8807    4.4606    3.5584 H   0  0  0  0  0  0  0  0  0  0  0  0
    0.3424    4.0262    5.2077 H   0  0  0  0  0  0  0  0  0  0  0  0
   -1.1047   -1.4521    5.0068 H   0  0  0  0  0  0  0  0  0  0  0  0
   -0.9509   -3.1737    6.8657 H   0  0  0  0  0  0  0  0  0  0  0  0
    0.4069   -4.6519    9.9304 H   0  0  0  0  0  0  0  0  0  0  0  0
    0.1534   -4.8198    8.1582 H   0  0  0  0  0  0  0  0  0  0  0  0
   -0.9900   -3.8405    9.1404 H   0  0  0  0  0  0  0  0  0  0  0  0
    2.4002   -1.0140    8.6510 H   0  0  0  0  0  0  0  0  0  0  0  0
    4.2883    0.9982    7.2294 H   0  0  0  0  0  0  0  0  0  0  0  0
    3.1549    1.9041    8.2488 H   0  0  0  0  0  0  0  0  0  0  0  0
    3.7606    2.6225    6.7396 H   0  0  0  0  0  0  0  0  0  0  0  0
  1  2  1  0
  1 29  1  0
  1 30  1  0
  1 31  1  0
  2  3  1  0
  2 32  1  0
  2 33  1  0
  3  4  1  0
  3 10  1  0
  4  5  1  0
  4 34  1  0
  4 35  1  0
  5  6  1  0
  5 36  1  0
  5 37  1  0
  6  7  1  0
  6 11  1  0
  6 38  1  1
  7  8  1  0
  7 39  1  0
  7 40  1  0
  8  9  1  0
  8 41  1  0
  8 42  1  0
  9 10  1  0
  9 11  1  0
  9 43  1  6
 10 44  1  0
 10 45  1  0
 11 12  1  0
 12 13  2  0
 12 14  1  0
 14 15  1  0
 14 46  1  0
 15 16  1  0
 15 17  1  0
 15 47  1  1
 16 48  1  0
 16 49  1  0
 16 50  1  0
 17 18  1  0
 17 27  2  0
 18 19  1  0
 19 20  2  0
 19 26  1  0
 20 21  1  0
 20 51  1  0
 21 22  2  0
 21 52  1  0
 22 23  1  0
 22 25  1  0
 23 24  1  0
 24 53  1  0
 24 54  1  0
 24 55  1  0
 25 26  2  0
 25 56  1  0
 26 27  1  0
 27 28  1  0
 28 57  1  0
 28 58  1  0
 28 59  1  0
M  END

