
     RDKit          3D

 53 53  0  0  0  0  0  0  0  0999 V2000
    1.3260    3.0803   -3.1089 C   0  0  0  0  0  0  0  0  0  0  0  0
    2.4028    2.7634   -2.0668 C   0  0  0  0  0  0  0  0  0  0  0  0
    2.6228    1.2566   -1.8121 C   0  0  1  0  0  0  0  0  0  0  0  0
    2.9488    0.5088   -3.1143 C   0  0  0  0  0  0  0  0  0  0  0  0
    3.7435    0.9767   -0.7684 C   0  0  1  0  0  0  0  0  0  0  0  0
    3.7984    1.9713    0.2940 N   0  0  0  0  0  0  0  0  0  0  0  0
    4.4058    1.8077    1.4979 C   0  0  0  0  0  0  0  0  0  0  0  0
    4.5227    2.7145    2.3072 O   0  0  0  0  0  0  0  0  0  0  0  0
    4.9554    0.4078    1.7824 C   0  0  2  0  0  0  0  0  0  0  0  0
    6.5100    0.3405    1.5967 C   0  0  1  0  0  0  0  0  0  0  0  0
    6.9814    0.6568    0.1733 C   0  0  0  0  0  0  0  0  0  0  0  0
    7.2216    1.1939    2.6676 C   0  0  0  0  0  0  0  0  0  0  0  0
    8.7385    1.0005    2.7304 C   0  0  0  0  0  0  0  0  0  0  0  0
    4.1947   -0.6364    1.0753 N   0  0  0  0  0  0  0  0  0  0  0  0
    3.8328   -1.9069    1.7652 C   0  0  1  0  0  0  0  0  0  0  0  0
    4.9868   -2.5023    2.5886 C   0  0  0  0  0  0  0  0  0  0  0  0
    4.6700   -3.8820    3.1736 C   0  0  0  0  0  0  0  0  0  0  0  0
    2.4893   -1.7763    2.5198 C   0  0  0  0  0  0  0  0  0  0  0  0
    2.4451   -0.8605    3.7462 C   0  0  0  0  0  0  0  0  0  0  0  0
    3.5867   -0.4263   -0.1368 C   0  0  0  0  0  0  0  0  0  0  0  0
    2.9280   -1.2922   -0.6962 O   0  0  0  0  0  0  0  0  0  0  0  0
    1.1364    4.1643   -3.1534 H   0  0  0  0  0  0  0  0  0  0  0  0
    0.3726    2.5855   -2.8587 H   0  0  0  0  0  0  0  0  0  0  0  0
    1.6140    2.7562   -4.1201 H   0  0  0  0  0  0  0  0  0  0  0  0
    2.0991    3.2553   -1.1270 H   0  0  0  0  0  0  0  0  0  0  0  0
    3.3572    3.2313   -2.3749 H   0  0  0  0  0  0  0  0  0  0  0  0
    1.6845    0.8428   -1.4053 H   0  0  0  0  0  0  0  0  0  0  0  0
    3.8262    0.9573   -3.6135 H   0  0  0  0  0  0  0  0  0  0  0  0
    2.1064    0.5476   -3.8201 H   0  0  0  0  0  0  0  0  0  0  0  0
    3.1589   -0.5479   -2.9095 H   0  0  0  0  0  0  0  0  0  0  0  0
    4.7000    0.9755   -1.3252 H   0  0  0  0  0  0  0  0  0  0  0  0
    3.5202    2.9255    0.0905 H   0  0  0  0  0  0  0  0  0  0  0  0
    4.7745    0.2685    2.8547 H   0  0  0  0  0  0  0  0  0  0  0  0
    6.7753   -0.7096    1.7972 H   0  0  0  0  0  0  0  0  0  0  0  0
    6.7735    1.7031   -0.1070 H   0  0  0  0  0  0  0  0  0  0  0  0
    6.5055   -0.0052   -0.5654 H   0  0  0  0  0  0  0  0  0  0  0  0
    8.0667    0.5038    0.0803 H   0  0  0  0  0  0  0  0  0  0  0  0
    6.7912    0.9414    3.6525 H   0  0  0  0  0  0  0  0  0  0  0  0
    6.9806    2.2578    2.5131 H   0  0  0  0  0  0  0  0  0  0  0  0
    9.0088   -0.0603    2.8704 H   0  0  0  0  0  0  0  0  0  0  0  0
    9.1662    1.5642    3.5746 H   0  0  0  0  0  0  0  0  0  0  0  0
    9.2448    1.3536    1.8181 H   0  0  0  0  0  0  0  0  0  0  0  0
    3.6377   -2.6058    0.9403 H   0  0  0  0  0  0  0  0  0  0  0  0
    5.2906   -1.8278    3.4069 H   0  0  0  0  0  0  0  0  0  0  0  0
    5.8621   -2.5965    1.9256 H   0  0  0  0  0  0  0  0  0  0  0  0
    3.8892   -3.8400    3.9486 H   0  0  0  0  0  0  0  0  0  0  0  0
    5.5676   -4.3188    3.6387 H   0  0  0  0  0  0  0  0  0  0  0  0
    4.3273   -4.5804    2.3921 H   0  0  0  0  0  0  0  0  0  0  0  0
    2.1793   -2.7923    2.8168 H   0  0  0  0  0  0  0  0  0  0  0  0
    1.7363   -1.4496    1.7847 H   0  0  0  0  0  0  0  0  0  0  0  0
    3.1831   -1.1485    4.5131 H   0  0  0  0  0  0  0  0  0  0  0  0
    1.4523   -0.9104    4.2214 H   0  0  0  0  0  0  0  0  0  0  0  0
    2.6214    0.1960    3.4906 H   0  0  0  0  0  0  0  0  0  0  0  0
  1  2  1  0
  1 22  1  0
  1 23  1  0
  1 24  1  0
  2  3  1  0
  2 25  1  0
  2 26  1  0
  3  4  1  0
  3  5  1  0
  3 27  1  1
  4 28  1  0
  4 29  1  0
  4 30  1  0
  5  6  1  0
  5 20  1  0
  5 31  1  6
  6  7  1  0
  6 32  1  0
  7  8  2  0
  7  9  1  0
  9 10  1  0
  9 14  1  0
  9 33  1  1
 10 11  1  0
 10 12  1  0
 10 34  1  1
 11 35  1  0
 11 36  1  0
 11 37  1  0
 12 13  1  0
 12 38  1  0
 12 39  1  0
 13 40  1  0
 13 41  1  0
 13 42  1  0
 14 15  1  0
 14 20  1  0
 15 16  1  0
 15 18  1  0
 15 43  1  6
 16 17  1  0
 16 44  1  0
 16 45  1  0
 17 46  1  0
 17 47  1  0
 17 48  1  0
 18 19  1  0
 18 49  1  0
 18 50  1  0
 19 51  1  0
 19 52  1  0
 19 53  1  0
 20 21  2  0
M  END

