
     RDKit          3D

 32 33  0  0  0  0  0  0  0  0999 V2000
    2.1527   -0.9071    1.0205 C   0  0  0  0  0  0  0  0  0  0  0  0
    2.1599   -0.2987   -0.2484 O   0  0  0  0  0  0  0  0  0  0  0  0
    2.9300   -0.8307   -1.2342 C   0  0  0  0  0  0  0  0  0  0  0  0
    2.9016   -0.1755   -2.4850 C   0  0  0  0  0  0  0  0  0  0  0  0
    3.6491   -0.6355   -3.5494 C   0  0  0  0  0  0  0  0  0  0  0  0
    4.4880   -1.8040   -3.4461 C   0  0  0  0  0  0  0  0  0  0  0  0
    5.2629   -2.3152   -4.5030 C   0  0  0  0  0  0  0  0  0  0  0  0
    6.0512   -3.3393   -4.4175 O   0  0  0  0  0  0  0  0  0  0  0  0
    5.3051   -1.6851   -5.9019 C   0  0  0  0  0  0  0  0  0  0  0  0
    5.5300   -2.7574   -6.9603 C   0  0  1  0  0  0  0  0  0  0  0  0
    4.3703   -3.7225   -7.2337 C   0  0  0  0  0  0  0  0  0  0  0  0
    4.6264   -4.1102   -8.6945 C   0  0  0  0  0  0  0  0  0  0  0  0
    5.1592   -2.7970   -9.2780 C   0  0  0  0  0  0  0  0  0  0  0  0
    5.7954   -2.1138   -8.1971 O   0  0  0  0  0  0  0  0  0  0  0  0
    4.4881   -2.4268   -2.1537 C   0  0  0  0  0  0  0  0  0  0  0  0
    5.2513   -3.5183   -1.9751 F   0  0  0  0  0  0  0  0  0  0  0  0
    3.7432   -1.9733   -1.0830 C   0  0  0  0  0  0  0  0  0  0  0  0
    1.4715   -0.3179    1.6494 H   0  0  0  0  0  0  0  0  0  0  0  0
    3.1563   -0.9066    1.4846 H   0  0  0  0  0  0  0  0  0  0  0  0
    1.7857   -1.9492    0.9768 H   0  0  0  0  0  0  0  0  0  0  0  0
    2.2743    0.7122   -2.5866 H   0  0  0  0  0  0  0  0  0  0  0  0
    3.6049   -0.0883   -4.4911 H   0  0  0  0  0  0  0  0  0  0  0  0
    6.1542   -0.9789   -5.9365 H   0  0  0  0  0  0  0  0  0  0  0  0
    4.3876   -1.1161   -6.1069 H   0  0  0  0  0  0  0  0  0  0  0  0
    6.4258   -3.3437   -6.6451 H   0  0  0  0  0  0  0  0  0  0  0  0
    3.4080   -3.1908   -7.1349 H   0  0  0  0  0  0  0  0  0  0  0  0
    4.3645   -4.5731   -6.5389 H   0  0  0  0  0  0  0  0  0  0  0  0
    3.7306   -4.4758   -9.2175 H   0  0  0  0  0  0  0  0  0  0  0  0
    5.3960   -4.8970   -8.7524 H   0  0  0  0  0  0  0  0  0  0  0  0
    4.3409   -2.1634   -9.6694 H   0  0  0  0  0  0  0  0  0  0  0  0
    5.8912   -2.9374  -10.0903 H   0  0  0  0  0  0  0  0  0  0  0  0
    3.8156   -2.5257   -0.1469 H   0  0  0  0  0  0  0  0  0  0  0  0
  1  2  1  0
  1 18  1  0
  1 19  1  0
  1 20  1  0
  2  3  1  0
  3  4  2  0
  3 17  1  0
  4  5  1  0
  4 21  1  0
  5  6  2  0
  5 22  1  0
  6  7  1  0
  6 15  1  0
  7  8  2  0
  7  9  1  0
  9 10  1  0
  9 23  1  0
  9 24  1  0
 10 11  1  0
 10 14  1  0
 10 25  1  1
 11 12  1  0
 11 26  1  0
 11 27  1  0
 12 13  1  0
 12 28  1  0
 12 29  1  0
 13 14  1  0
 13 30  1  0
 13 31  1  0
 15 16  1  0
 15 17  2  0
 17 32  1  0
M  END

