
     RDKit          3D

 49 50  0  0  0  0  0  0  0  0999 V2000
    2.8047    1.7272    2.9623 C   0  0  0  0  0  0  0  0  0  0  0  0
    2.7920    0.5033    2.0462 C   0  0  0  0  0  0  0  0  0  0  0  0
    3.4138    0.7569    0.6543 C   0  0  0  0  0  0  0  0  0  0  0  0
    4.8866    1.0456    0.6696 C   0  0  0  0  0  0  0  0  0  0  0  0
    5.4165    2.2515    0.7525 N   0  0  0  0  0  0  0  0  0  0  0  0
    6.7748    2.0652    0.7897 C   0  0  0  0  0  0  0  0  0  0  0  0
    7.0835    0.7266    0.7400 C   0  0  0  0  0  0  0  0  0  0  0  0
    5.8644    0.0662    0.6635 N   0  0  0  0  0  0  0  0  0  0  0  0
    5.6817   -1.3656    0.5182 C   0  0  0  0  0  0  0  0  0  0  0  0
    5.7116   -1.8278   -0.9392 C   0  0  0  0  0  0  0  0  0  0  0  0
    5.5654   -3.2221   -0.9462 O   0  0  0  0  0  0  0  0  0  0  0  0
    5.5557   -3.8062   -2.2330 C   0  0  0  0  0  0  0  0  0  0  0  0
    5.4204   -5.3168   -2.1017 C   0  0  0  0  0  0  0  0  0  0  0  0
    4.1605   -5.8133   -1.3675 C   0  0  1  0  0  0  0  0  0  0  0  0
    2.8626   -5.4090   -2.0784 C   0  0  0  0  0  0  0  0  0  0  0  0
    4.2252   -7.3327   -1.1687 C   0  0  0  0  0  0  0  0  0  0  0  0
    8.4646    0.1562    0.7783 C   0  0  0  0  0  0  0  0  0  0  0  0
    9.4227    1.2916    1.2291 C   0  0  0  0  0  0  0  0  0  0  0  0
    9.1721    2.5881    0.6115 N   0  0  0  0  0  0  0  0  0  0  0  0
    7.8363    3.1260    0.8942 C   0  0  0  0  0  0  0  0  0  0  0  0
    2.3854    1.4863    3.9523 H   0  0  0  0  0  0  0  0  0  0  0  0
    2.2054    2.5474    2.5337 H   0  0  0  0  0  0  0  0  0  0  0  0
    3.8254    2.1140    3.1039 H   0  0  0  0  0  0  0  0  0  0  0  0
    1.7525    0.1600    1.9011 H   0  0  0  0  0  0  0  0  0  0  0  0
    3.3203   -0.3346    2.5360 H   0  0  0  0  0  0  0  0  0  0  0  0
    2.9259    1.6310    0.1954 H   0  0  0  0  0  0  0  0  0  0  0  0
    3.1981   -0.1032   -0.0012 H   0  0  0  0  0  0  0  0  0  0  0  0
    4.7270   -1.6652    0.9725 H   0  0  0  0  0  0  0  0  0  0  0  0
    6.4759   -1.8889    1.0719 H   0  0  0  0  0  0  0  0  0  0  0  0
    6.6670   -1.5214   -1.4142 H   0  0  0  0  0  0  0  0  0  0  0  0
    4.8978   -1.3341   -1.5105 H   0  0  0  0  0  0  0  0  0  0  0  0
    6.4953   -3.5603   -2.7703 H   0  0  0  0  0  0  0  0  0  0  0  0
    4.7269   -3.3812   -2.8360 H   0  0  0  0  0  0  0  0  0  0  0  0
    6.3133   -5.6937   -1.5732 H   0  0  0  0  0  0  0  0  0  0  0  0
    5.4538   -5.7502   -3.1185 H   0  0  0  0  0  0  0  0  0  0  0  0
    4.1630   -5.3374   -0.3712 H   0  0  0  0  0  0  0  0  0  0  0  0
    2.8227   -5.8222   -3.1017 H   0  0  0  0  0  0  0  0  0  0  0  0
    2.7524   -4.3159   -2.1531 H   0  0  0  0  0  0  0  0  0  0  0  0
    1.9821   -5.7881   -1.5347 H   0  0  0  0  0  0  0  0  0  0  0  0
    4.2306   -7.8601   -2.1387 H   0  0  0  0  0  0  0  0  0  0  0  0
    3.3571   -7.6995   -0.5974 H   0  0  0  0  0  0  0  0  0  0  0  0
    5.1355   -7.6310   -0.6235 H   0  0  0  0  0  0  0  0  0  0  0  0
    8.7737   -0.2285   -0.2137 H   0  0  0  0  0  0  0  0  0  0  0  0
    8.5451   -0.6983    1.4753 H   0  0  0  0  0  0  0  0  0  0  0  0
   10.4667    0.9978    1.0326 H   0  0  0  0  0  0  0  0  0  0  0  0
    9.3290    1.4162    2.3224 H   0  0  0  0  0  0  0  0  0  0  0  0
    9.2991    2.5140   -0.3977 H   0  0  0  0  0  0  0  0  0  0  0  0
    7.6289    3.9583    0.2020 H   0  0  0  0  0  0  0  0  0  0  0  0
    7.8335    3.5707    1.9083 H   0  0  0  0  0  0  0  0  0  0  0  0
  1  2  1  0
  1 21  1  0
  1 22  1  0
  1 23  1  0
  2  3  1  0
  2 24  1  0
  2 25  1  0
  3  4  1  0
  3 26  1  0
  3 27  1  0
  4  5  2  0
  4  8  1  0
  5  6  1  0
  6  7  2  0
  6 20  1  0
  7  8  1  0
  7 17  1  0
  8  9  1  0
  9 10  1  0
  9 28  1  0
  9 29  1  0
 10 11  1  0
 10 30  1  0
 10 31  1  0
 11 12  1  0
 12 13  1  0
 12 32  1  0
 12 33  1  0
 13 14  1  0
 13 34  1  0
 13 35  1  0
 14 15  1  0
 14 16  1  0
 14 36  1  1
 15 37  1  0
 15 38  1  0
 15 39  1  0
 16 40  1  0
 16 41  1  0
 16 42  1  0
 17 18  1  0
 17 43  1  0
 17 44  1  0
 18 19  1  0
 18 45  1  0
 18 46  1  0
 19 20  1  0
 19 47  1  0
 20 48  1  0
 20 49  1  0
M  END

