
     RDKit          3D

 42 43  0  0  0  0  0  0  0  0999 V2000
    2.1196   -0.3726   -1.3169 C   0  0  0  0  0  0  0  0  0  0  0  0
    2.7426    0.1842   -0.1451 N   0  0  0  0  0  0  0  0  0  0  0  0
    2.6412    1.6406    0.1168 C   0  0  0  0  0  0  0  0  0  0  0  0
    1.7596    2.4248   -0.8166 C   0  0  0  0  0  0  0  0  0  0  0  0
    0.3641    2.4727   -0.5623 C   0  0  0  0  0  0  0  0  0  0  0  0
   -0.4442    3.2311   -1.4590 C   0  0  0  0  0  0  0  0  0  0  0  0
    0.1023    3.8758   -2.5443 C   0  0  0  0  0  0  0  0  0  0  0  0
    1.5138    3.8163   -2.8396 C   0  0  0  0  0  0  0  0  0  0  0  0
    2.0095    4.5150   -4.0047 C   0  0  0  0  0  0  0  0  0  0  0  0
    1.3403    5.2325   -4.7382 O   0  0  0  0  0  0  0  0  0  0  0  0
    3.3575    4.3506   -4.3128 O   0  0  0  0  0  0  0  0  0  0  0  0
    2.3223    3.0763   -1.9058 C   0  0  0  0  0  0  0  0  0  0  0  0
    3.4008   -0.6211    0.8827 C   0  0  1  0  0  0  0  0  0  0  0  0
    3.7769    0.1195    1.5990 H   0  0  0  0  0  0  0  0  0  0  0  0
    2.3899   -1.5276    1.6419 C   0  0  0  0  0  0  0  0  0  0  0  0
    2.0843   -2.8709    0.9702 C   0  0  0  0  0  0  0  0  0  0  0  0
    3.3675   -3.6379    0.6302 C   0  0  0  0  0  0  0  0  0  0  0  0
    4.3283   -2.8105   -0.2326 C   0  0  0  0  0  0  0  0  0  0  0  0
    4.6364   -1.4520    0.4210 C   0  0  1  0  0  0  0  0  0  0  0  0
    5.1676   -1.6623    1.3647 H   0  0  0  0  0  0  0  0  0  0  0  0
    5.6247   -0.6224   -0.3917 C   0  0  1  0  0  0  0  0  0  0  0  0
    5.9029    0.5426    0.2260 F   0  0  0  0  0  0  0  0  0  0  0  0
    6.7762   -1.2791   -0.5626 F   0  0  0  0  0  0  0  0  0  0  0  0
    5.1417   -0.3192   -1.6126 F   0  0  0  0  0  0  0  0  0  0  0  0
    2.3485    0.2722   -2.1736 H   0  0  0  0  0  0  0  0  0  0  0  0
    1.0269   -0.3127   -1.1821 H   0  0  0  0  0  0  0  0  0  0  0  0
    2.4343   -1.4015   -1.4888 H   0  0  0  0  0  0  0  0  0  0  0  0
    3.6894    1.9877    0.1050 H   0  0  0  0  0  0  0  0  0  0  0  0
    2.3120    1.7193    1.1679 H   0  0  0  0  0  0  0  0  0  0  0  0
   -0.0691    2.0024    0.3228 H   0  0  0  0  0  0  0  0  0  0  0  0
   -1.5195    3.3099   -1.2722 H   0  0  0  0  0  0  0  0  0  0  0  0
   -0.5173    4.4640   -3.2237 H   0  0  0  0  0  0  0  0  0  0  0  0
    3.7091    3.6184   -3.7936 H   0  0  0  0  0  0  0  0  0  0  0  0
    3.4121    3.0567   -2.0169 H   0  0  0  0  0  0  0  0  0  0  0  0
    1.4702   -0.9553    1.8383 H   0  0  0  0  0  0  0  0  0  0  0  0
    2.8504   -1.7160    2.6258 H   0  0  0  0  0  0  0  0  0  0  0  0
    1.4748   -2.7260    0.0632 H   0  0  0  0  0  0  0  0  0  0  0  0
    1.4584   -3.4660    1.6540 H   0  0  0  0  0  0  0  0  0  0  0  0
    3.1250   -4.5802    0.1154 H   0  0  0  0  0  0  0  0  0  0  0  0
    3.8792   -3.9207    1.5676 H   0  0  0  0  0  0  0  0  0  0  0  0
    3.9208   -2.6717   -1.2465 H   0  0  0  0  0  0  0  0  0  0  0  0
    5.2787   -3.3486   -0.3657 H   0  0  0  0  0  0  0  0  0  0  0  0
  1  2  1  0
  1 25  1  0
  1 26  1  0
  1 27  1  0
  2  3  1  0
  2 13  1  0
  3  4  1  0
  3 28  1  0
  3 29  1  0
  4  5  2  0
  4 12  1  0
  5  6  1  0
  5 30  1  0
  6  7  2  0
  6 31  1  0
  7  8  1  0
  7 32  1  0
  8  9  1  0
  8 12  2  0
  9 10  2  0
  9 11  1  0
 11 33  1  0
 12 34  1  0
 13 14  1  1
 13 15  1  0
 13 19  1  0
 15 16  1  0
 15 35  1  0
 15 36  1  0
 16 17  1  0
 16 37  1  0
 16 38  1  0
 17 18  1  0
 17 39  1  0
 17 40  1  0
 18 19  1  0
 18 41  1  0
 18 42  1  0
 19 20  1  1
 19 21  1  0
 21 22  1  1
 21 23  1  0
 21 24  1  0
M  END

