
     RDKit          3D

 34 35  0  0  0  0  0  0  0  0999 V2000
    0.7216   -1.1218   -1.9987 C   0  0  0  0  0  0  0  0  0  0  0  0
    2.1670   -1.0608   -2.0892 N   0  0  0  0  0  0  0  0  0  0  0  0
    2.8188   -0.4923   -0.9234 C   0  0  0  0  0  0  0  0  0  0  0  0
    4.3297   -0.5136   -1.0368 C   0  0  0  0  0  0  0  0  0  0  0  0
    5.1140    0.5253   -0.5276 C   0  0  0  0  0  0  0  0  0  0  0  0
    6.5111    0.4847   -0.5962 C   0  0  0  0  0  0  0  0  0  0  0  0
    7.1630   -0.6045   -1.1896 C   0  0  0  0  0  0  0  0  0  0  0  0
    8.5066   -0.7282   -1.3034 O   0  0  0  0  0  0  0  0  0  0  0  0
    9.3506    0.2744   -0.7752 C   0  0  0  0  0  0  0  0  0  0  0  0
   10.7819   -0.1603   -1.0784 C   0  0  0  0  0  0  0  0  0  0  0  0
   11.7473    0.7904   -0.5626 N   0  0  0  0  0  0  0  0  0  0  0  0
   12.6765    0.5967    0.4147 C   0  0  0  0  0  0  0  0  0  0  0  0
   13.3494    1.7971    0.5678 C   0  0  0  0  0  0  0  0  0  0  0  0
   12.7384    2.6595   -0.3739 C   0  0  0  0  0  0  0  0  0  0  0  0
   11.7734    2.0419   -1.0500 N   0  0  0  0  0  0  0  0  0  0  0  0
    6.3701   -1.6497   -1.7134 C   0  0  0  0  0  0  0  0  0  0  0  0
    7.1560   -3.0162   -2.4665 Cl  0  0  0  0  0  0  0  0  0  0  0  0
    4.9820   -1.6038   -1.6359 C   0  0  0  0  0  0  0  0  0  0  0  0
    0.3035   -1.5277   -2.9329 H   0  0  0  0  0  0  0  0  0  0  0  0
    0.2285   -0.1431   -1.8007 H   0  0  0  0  0  0  0  0  0  0  0  0
    0.4254   -1.8029   -1.1825 H   0  0  0  0  0  0  0  0  0  0  0  0
    2.4535   -0.5536   -2.9259 H   0  0  0  0  0  0  0  0  0  0  0  0
    2.5105   -1.0947   -0.0465 H   0  0  0  0  0  0  0  0  0  0  0  0
    2.4908    0.5480   -0.6948 H   0  0  0  0  0  0  0  0  0  0  0  0
    4.6328    1.3924   -0.0665 H   0  0  0  0  0  0  0  0  0  0  0  0
    7.0895    1.3159   -0.1920 H   0  0  0  0  0  0  0  0  0  0  0  0
    9.2056    0.3779    0.3166 H   0  0  0  0  0  0  0  0  0  0  0  0
    9.1559    1.2555   -1.2415 H   0  0  0  0  0  0  0  0  0  0  0  0
   10.9096   -0.2632   -2.1671 H   0  0  0  0  0  0  0  0  0  0  0  0
   10.9798   -1.1395   -0.6198 H   0  0  0  0  0  0  0  0  0  0  0  0
   12.7888   -0.3649    0.9119 H   0  0  0  0  0  0  0  0  0  0  0  0
   14.1633    2.0155    1.2550 H   0  0  0  0  0  0  0  0  0  0  0  0
   12.9678    3.7039   -0.5863 H   0  0  0  0  0  0  0  0  0  0  0  0
    4.3902   -2.4183   -2.0556 H   0  0  0  0  0  0  0  0  0  0  0  0
  1  2  1  0
  1 19  1  0
  1 20  1  0
  1 21  1  0
  2  3  1  0
  2 22  1  0
  3  4  1  0
  3 23  1  0
  3 24  1  0
  4  5  2  0
  4 18  1  0
  5  6  1  0
  5 25  1  0
  6  7  2  0
  6 26  1  0
  7  8  1  0
  7 16  1  0
  8  9  1  0
  9 10  1  0
  9 27  1  0
  9 28  1  0
 10 11  1  0
 10 29  1  0
 10 30  1  0
 11 12  1  0
 11 15  1  0
 12 13  2  0
 12 31  1  0
 13 14  1  0
 13 32  1  0
 14 15  2  0
 14 33  1  0
 16 17  1  0
 16 18  2  0
 18 34  1  0
M  END

