
     RDKit          3D

 56 59  0  0  0  0  0  0  0  0999 V2000
    1.4058    0.4434   -2.9732 C   0  0  0  0  0  0  0  0  0  0  0  0
    2.4837    1.2253   -2.1975 C   0  0  1  0  0  0  0  0  0  0  0  0
    3.6454    1.4710   -3.1810 C   0  0  0  0  0  0  0  0  0  0  0  0
    2.0313    2.6048   -1.6740 C   0  0  0  0  0  0  0  0  0  0  0  0
    2.9893    0.3778   -1.0176 N   0  0  0  0  0  0  0  0  0  0  0  0
    2.2416   -0.3226   -0.1301 C   0  0  0  0  0  0  0  0  0  0  0  0
    2.8887   -1.3406    0.6733 C   0  0  0  0  0  0  0  0  0  0  0  0
    2.2002   -2.1373    1.5557 C   0  0  0  0  0  0  0  0  0  0  0  0
    0.8118   -1.9732    1.7410 C   0  0  0  0  0  0  0  0  0  0  0  0
    0.1417   -0.9742    1.0319 C   0  0  0  0  0  0  0  0  0  0  0  0
    0.8250   -0.1683    0.1398 C   0  0  0  0  0  0  0  0  0  0  0  0
    0.1181    0.8114   -0.4183 F   0  0  0  0  0  0  0  0  0  0  0  0
    4.4403    0.3053   -0.8522 C   0  0  0  0  0  0  0  0  0  0  0  0
    5.0764    1.2075    0.0281 C   0  0  0  0  0  0  0  0  0  0  0  0
    6.4717    1.0623    0.1443 C   0  0  0  0  0  0  0  0  0  0  0  0
    7.1678    0.0932   -0.5567 C   0  0  0  0  0  0  0  0  0  0  0  0
    6.5507   -0.8522   -1.4627 C   0  0  0  0  0  0  0  0  0  0  0  0
    7.3074   -1.8645   -2.1633 C   0  0  0  0  0  0  0  0  0  0  0  0
    8.6790   -2.1222   -1.8297 C   0  0  0  0  0  0  0  0  0  0  0  0
    9.4414   -3.0667   -2.4895 C   0  0  0  0  0  0  0  0  0  0  0  0
    8.9327   -3.8509   -3.5595 C   0  0  0  0  0  0  0  0  0  0  0  0
    9.7488   -4.8467   -4.2641 C   0  0  0  0  0  0  0  0  0  0  0  0
   10.9359   -5.3799   -3.6985 C   0  0  0  0  0  0  0  0  0  0  0  0
   11.7097   -6.3245   -4.3693 C   0  0  0  0  0  0  0  0  0  0  0  0
   11.3361   -6.7879   -5.6372 C   0  0  0  0  0  0  0  0  0  0  0  0
   10.1676   -6.2786   -6.2172 C   0  0  0  0  0  0  0  0  0  0  0  0
    9.3939   -5.3313   -5.5497 C   0  0  0  0  0  0  0  0  0  0  0  0
    7.5735   -3.5999   -3.8965 C   0  0  0  0  0  0  0  0  0  0  0  0
    6.7967   -2.6666   -3.2368 C   0  0  0  0  0  0  0  0  0  0  0  0
    5.1376   -0.6625   -1.5510 C   0  0  0  0  0  0  0  0  0  0  0  0
    4.3669   -1.4782   -2.3279 F   0  0  0  0  0  0  0  0  0  0  0  0
    1.1734    0.9975   -3.8939 H   0  0  0  0  0  0  0  0  0  0  0  0
    0.4639    0.3076   -2.4355 H   0  0  0  0  0  0  0  0  0  0  0  0
    1.8039   -0.5393   -3.2654 H   0  0  0  0  0  0  0  0  0  0  0  0
    3.2478    2.0897   -3.9987 H   0  0  0  0  0  0  0  0  0  0  0  0
    4.0203    0.5362   -3.6138 H   0  0  0  0  0  0  0  0  0  0  0  0
    4.4799    2.0120   -2.7196 H   0  0  0  0  0  0  0  0  0  0  0  0
    1.6703    3.1994   -2.5263 H   0  0  0  0  0  0  0  0  0  0  0  0
    2.8876    3.1355   -1.2331 H   0  0  0  0  0  0  0  0  0  0  0  0
    1.2274    2.5565   -0.9339 H   0  0  0  0  0  0  0  0  0  0  0  0
    3.9543   -1.4875    0.5308 H   0  0  0  0  0  0  0  0  0  0  0  0
    2.7381   -2.9090    2.1078 H   0  0  0  0  0  0  0  0  0  0  0  0
    0.2639   -2.6074    2.4395 H   0  0  0  0  0  0  0  0  0  0  0  0
   -0.9226   -0.7821    1.1745 H   0  0  0  0  0  0  0  0  0  0  0  0
    4.5131    1.9590    0.5792 H   0  0  0  0  0  0  0  0  0  0  0  0
    7.0238    1.7378    0.8035 H   0  0  0  0  0  0  0  0  0  0  0  0
    8.2492    0.0541   -0.4346 H   0  0  0  0  0  0  0  0  0  0  0  0
    9.1542   -1.5727   -1.0159 H   0  0  0  0  0  0  0  0  0  0  0  0
   10.4822   -3.1884   -2.1810 H   0  0  0  0  0  0  0  0  0  0  0  0
   11.2440   -5.0651   -2.6995 H   0  0  0  0  0  0  0  0  0  0  0  0
   12.6139   -6.7129   -3.8910 H   0  0  0  0  0  0  0  0  0  0  0  0
   11.9429   -7.5297   -6.1620 H   0  0  0  0  0  0  0  0  0  0  0  0
    9.8595   -6.6175   -7.2109 H   0  0  0  0  0  0  0  0  0  0  0  0
    8.5059   -4.9361   -6.0466 H   0  0  0  0  0  0  0  0  0  0  0  0
    7.1028   -4.1800   -4.6936 H   0  0  0  0  0  0  0  0  0  0  0  0
    5.7665   -2.5444   -3.5625 H   0  0  0  0  0  0  0  0  0  0  0  0
  1  2  1  0
  1 32  1  0
  1 33  1  0
  1 34  1  0
  2  3  1  0
  2  4  1  0
  2  5  1  1
  3 35  1  0
  3 36  1  0
  3 37  1  0
  4 38  1  0
  4 39  1  0
  4 40  1  0
  5  6  1  0
  5 13  1  0
  6  7  2  0
  6 11  1  0
  7  8  1  0
  7 41  1  0
  8  9  2  0
  8 42  1  0
  9 10  1  0
  9 43  1  0
 10 11  2  0
 10 44  1  0
 11 12  1  0
 13 14  2  0
 13 30  1  0
 14 15  1  0
 14 45  1  0
 15 16  2  0
 15 46  1  0
 16 17  1  0
 16 47  1  0
 17 18  1  0
 17 30  2  0
 18 19  2  0
 18 29  1  0
 19 20  1  0
 19 48  1  0
 20 21  2  0
 20 49  1  0
 21 22  1  0
 21 28  1  0
 22 23  2  0
 22 27  1  0
 23 24  1  0
 23 50  1  0
 24 25  2  0
 24 51  1  0
 25 26  1  0
 25 52  1  0
 26 27  2  0
 26 53  1  0
 27 54  1  0
 28 29  2  0
 28 55  1  0
 29 56  1  0
 30 31  1  0
M  END

