
     RDKit          3D

 52 57  0  0  0  0  0  0  0  0999 V2000
    1.0166   -0.0337   -0.2721 C   0  0  0  0  0  0  0  0  0  0  0  0
    0.2367   -1.1454   -0.2732 C   0  0  0  0  0  0  0  0  0  0  0  0
   -1.1902   -1.1092   -0.4641 C   0  0  0  0  0  0  0  0  0  0  0  0
   -1.9353   -0.0239   -0.6550 N   0  0  0  0  0  0  0  0  0  0  0  0
   -3.2263   -0.4042   -0.8129 C   0  0  0  0  0  0  0  0  0  0  0  0
   -4.2943    0.5832   -1.0355 C   0  0  0  0  0  0  0  0  0  0  0  0
   -5.5070    0.2612   -1.6758 C   0  0  0  0  0  0  0  0  0  0  0  0
   -6.4970    1.2284   -1.8642 C   0  0  0  0  0  0  0  0  0  0  0  0
   -6.2951    2.5406   -1.4276 C   0  0  0  0  0  0  0  0  0  0  0  0
   -5.0867    2.8785   -0.8075 C   0  0  0  0  0  0  0  0  0  0  0  0
   -4.0982    1.9144   -0.6152 C   0  0  0  0  0  0  0  0  0  0  0  0
   -3.3164   -1.8100   -0.6963 C   0  0  0  0  0  0  0  0  0  0  0  0
   -4.3449   -2.7859   -0.6902 C   0  0  0  0  0  0  0  0  0  0  0  0
   -4.0340   -4.1143   -0.5174 C   0  0  0  0  0  0  0  0  0  0  0  0
   -2.6712   -4.5105   -0.3419 C   0  0  0  0  0  0  0  0  0  0  0  0
   -1.6781   -3.5740   -0.3215 C   0  0  0  0  0  0  0  0  0  0  0  0
   -1.9919   -2.2413   -0.4824 N   0  0  0  0  0  0  0  0  0  0  0  0
    2.4435   -0.0699   -0.0811 C   0  0  0  0  0  0  0  0  0  0  0  0
    3.1885   -1.1551    0.1101 N   0  0  0  0  0  0  0  0  0  0  0  0
    4.4795   -0.7749    0.2683 C   0  0  0  0  0  0  0  0  0  0  0  0
    5.5473   -1.7624    0.4917 C   0  0  0  0  0  0  0  0  0  0  0  0
    5.3506   -3.0939    0.0726 C   0  0  0  0  0  0  0  0  0  0  0  0
    6.3388   -4.0582    0.2657 C   0  0  0  0  0  0  0  0  0  0  0  0
    7.5474   -3.7202    0.8854 C   0  0  0  0  0  0  0  0  0  0  0  0
    7.7498   -2.4078    1.3209 C   0  0  0  0  0  0  0  0  0  0  0  0
    6.7601   -1.4403    1.1316 C   0  0  0  0  0  0  0  0  0  0  0  0
    4.5698    0.6309    0.1507 C   0  0  0  0  0  0  0  0  0  0  0  0
    5.5982    1.6067    0.1440 C   0  0  0  0  0  0  0  0  0  0  0  0
    5.2874    2.9351   -0.0297 C   0  0  0  0  0  0  0  0  0  0  0  0
    3.9247    3.3312   -0.2057 C   0  0  0  0  0  0  0  0  0  0  0  0
    2.9316    2.3948   -0.2254 C   0  0  0  0  0  0  0  0  0  0  0  0
    3.2453    1.0622   -0.0633 N   0  0  0  0  0  0  0  0  0  0  0  0
    0.5301    0.9321   -0.4255 H   0  0  0  0  0  0  0  0  0  0  0  0
    0.7232   -2.1112   -0.1198 H   0  0  0  0  0  0  0  0  0  0  0  0
   -5.6688   -0.7453   -2.0651 H   0  0  0  0  0  0  0  0  0  0  0  0
   -7.4283    0.9559   -2.3680 H   0  0  0  0  0  0  0  0  0  0  0  0
   -7.0703    3.2967   -1.5761 H   0  0  0  0  0  0  0  0  0  0  0  0
   -4.9151    3.9037   -0.4682 H   0  0  0  0  0  0  0  0  0  0  0  0
   -3.1538    2.1721   -0.1333 H   0  0  0  0  0  0  0  0  0  0  0  0
   -5.3790   -2.4640   -0.8087 H   0  0  0  0  0  0  0  0  0  0  0  0
   -4.8230   -4.8686   -0.5070 H   0  0  0  0  0  0  0  0  0  0  0  0
   -2.4089   -5.5616   -0.2122 H   0  0  0  0  0  0  0  0  0  0  0  0
   -0.6258   -3.8155   -0.1762 H   0  0  0  0  0  0  0  0  0  0  0  0
    4.4060   -3.3516   -0.4089 H   0  0  0  0  0  0  0  0  0  0  0  0
    6.1667   -5.0836   -0.0727 H   0  0  0  0  0  0  0  0  0  0  0  0
    8.3223   -4.4765    1.0344 H   0  0  0  0  0  0  0  0  0  0  0  0
    8.6812   -2.1351    1.8243 H   0  0  0  0  0  0  0  0  0  0  0  0
    6.9225   -0.4335    1.5201 H   0  0  0  0  0  0  0  0  0  0  0  0
    6.6324    1.2850    0.2628 H   0  0  0  0  0  0  0  0  0  0  0  0
    6.0765    3.6893   -0.0404 H   0  0  0  0  0  0  0  0  0  0  0  0
    3.6625    4.3822   -0.3363 H   0  0  0  0  0  0  0  0  0  0  0  0
    1.8793    2.6362   -0.3711 H   0  0  0  0  0  0  0  0  0  0  0  0
  1  2  2  0
  1 18  1  0
  1 33  1  0
  2  3  1  0
  2 34  1  0
  3  4  2  0
  3 17  1  0
  4  5  1  0
  5  6  1  0
  5 12  2  0
  6  7  2  0
  6 11  1  0
  7  8  1  0
  7 35  1  0
  8  9  2  0
  8 36  1  0
  9 10  1  0
  9 37  1  0
 10 11  2  0
 10 38  1  0
 11 39  1  0
 12 13  1  0
 12 17  1  0
 13 14  2  0
 13 40  1  0
 14 15  1  0
 14 41  1  0
 15 16  2  0
 15 42  1  0
 16 17  1  0
 16 43  1  0
 18 19  2  0
 18 32  1  0
 19 20  1  0
 20 21  1  0
 20 27  2  0
 21 22  2  0
 21 26  1  0
 22 23  1  0
 22 44  1  0
 23 24  2  0
 23 45  1  0
 24 25  1  0
 24 46  1  0
 25 26  2  0
 25 47  1  0
 26 48  1  0
 27 28  1  0
 27 32  1  0
 28 29  2  0
 28 49  1  0
 29 30  1  0
 29 50  1  0
 30 31  2  0
 30 51  1  0
 31 32  1  0
 31 52  1  0
M  END

