
     RDKit          3D

 56 58  0  0  0  0  0  0  0  0999 V2000
    7.0377   -0.1804   -3.4819 C   0  0  0  0  0  0  0  0  0  0  0  0
    6.5519   -0.4032   -2.0611 C   0  0  0  0  0  0  0  0  0  0  0  0
    7.2661   -0.1950   -1.1044 O   0  0  0  0  0  0  0  0  0  0  0  0
    5.1003   -0.8108   -1.8874 C   0  0  0  0  0  0  0  0  0  0  0  0
    4.1903    0.1658   -1.4352 C   0  0  0  0  0  0  0  0  0  0  0  0
    4.6414    1.5638   -1.0816 C   0  0  0  0  0  0  0  0  0  0  0  0
    2.8453   -0.1936   -1.3224 C   0  0  0  0  0  0  0  0  0  0  0  0
    2.3830   -1.4830   -1.6112 C   0  0  0  0  0  0  0  0  0  0  0  0
    0.9047   -1.7719   -1.5026 C   0  0  0  0  0  0  0  0  0  0  0  0
    3.3130   -2.4707   -2.0055 C   0  0  0  0  0  0  0  0  0  0  0  0
    2.8216   -3.8763   -2.3221 C   0  0  0  0  0  0  0  0  0  0  0  0
    2.1248   -4.5676   -1.2435 N   0  0  0  0  0  0  0  0  0  0  0  0
    1.1265   -5.5764   -1.6281 C   0  0  0  0  0  0  0  0  0  0  0  0
    0.7541   -6.2762   -0.3068 C   0  0  0  0  0  0  0  0  0  0  0  0
    1.9680   -6.0014    0.5525 C   0  0  0  0  0  0  0  0  0  0  0  0
    2.3675   -6.5642    1.7517 C   0  0  0  0  0  0  0  0  0  0  0  0
    3.5409   -6.0838    2.3652 C   0  0  0  0  0  0  0  0  0  0  0  0
    4.0678   -6.7868    3.9247 S   0  0  1  0  0  0  0  0  0  0  0  0
    3.4704   -8.1208    4.0279 O   0  0  0  0  0  0  0  0  0  0  0  0
    5.5110   -6.5710    4.0461 O   0  0  0  0  0  0  0  0  0  0  0  0
    3.3575   -5.8667    5.1558 N   0  0  0  0  0  0  0  0  0  0  0  0
    3.8991   -4.5362    5.3874 C   0  0  0  0  0  0  0  0  0  0  0  0
    1.9265   -6.0245    5.3620 C   0  0  0  0  0  0  0  0  0  0  0  0
    4.2942   -5.0657    1.7709 C   0  0  0  0  0  0  0  0  0  0  0  0
    3.8927   -4.4939    0.5587 C   0  0  0  0  0  0  0  0  0  0  0  0
    2.7218   -4.9669   -0.0548 C   0  0  0  0  0  0  0  0  0  0  0  0
    4.6789   -2.1289   -2.1593 C   0  0  0  0  0  0  0  0  0  0  0  0
    5.7011   -3.1654   -2.5916 C   0  0  0  0  0  0  0  0  0  0  0  0
    6.7629   -1.0118   -4.1479 H   0  0  0  0  0  0  0  0  0  0  0  0
    8.1252   -0.0236   -3.4862 H   0  0  0  0  0  0  0  0  0  0  0  0
    6.5410    0.7204   -3.8831 H   0  0  0  0  0  0  0  0  0  0  0  0
    5.1536    2.0583   -1.9240 H   0  0  0  0  0  0  0  0  0  0  0  0
    5.3577    1.5449   -0.2461 H   0  0  0  0  0  0  0  0  0  0  0  0
    3.7872    2.1936   -0.7947 H   0  0  0  0  0  0  0  0  0  0  0  0
    2.1242    0.5634   -1.0003 H   0  0  0  0  0  0  0  0  0  0  0  0
    0.3381   -0.8478   -1.3184 H   0  0  0  0  0  0  0  0  0  0  0  0
    0.6881   -2.4818   -0.6904 H   0  0  0  0  0  0  0  0  0  0  0  0
    0.5106   -2.2251   -2.4282 H   0  0  0  0  0  0  0  0  0  0  0  0
    3.6476   -4.5033   -2.7015 H   0  0  0  0  0  0  0  0  0  0  0  0
    2.0970   -3.8063   -3.1512 H   0  0  0  0  0  0  0  0  0  0  0  0
    1.5715   -6.3013   -2.3420 H   0  0  0  0  0  0  0  0  0  0  0  0
    0.2667   -5.1034   -2.1287 H   0  0  0  0  0  0  0  0  0  0  0  0
    0.5394   -7.3466   -0.4415 H   0  0  0  0  0  0  0  0  0  0  0  0
   -0.1444   -5.8156    0.1421 H   0  0  0  0  0  0  0  0  0  0  0  0
    1.8127   -7.3855    2.2096 H   0  0  0  0  0  0  0  0  0  0  0  0
    4.9920   -4.5653    5.2976 H   0  0  0  0  0  0  0  0  0  0  0  0
    3.6467   -4.2277    6.4146 H   0  0  0  0  0  0  0  0  0  0  0  0
    3.4943   -3.7751    4.6893 H   0  0  0  0  0  0  0  0  0  0  0  0
    1.6547   -7.0806    5.2435 H   0  0  0  0  0  0  0  0  0  0  0  0
    1.3170   -5.4084    4.6692 H   0  0  0  0  0  0  0  0  0  0  0  0
    1.6832   -5.7207    6.3929 H   0  0  0  0  0  0  0  0  0  0  0  0
    5.2186   -4.7367    2.2490 H   0  0  0  0  0  0  0  0  0  0  0  0
    4.4865   -3.6974    0.1132 H   0  0  0  0  0  0  0  0  0  0  0  0
    5.5761   -3.4573   -3.6483 H   0  0  0  0  0  0  0  0  0  0  0  0
    5.6248   -4.0869   -1.9952 H   0  0  0  0  0  0  0  0  0  0  0  0
    6.7302   -2.8037   -2.4681 H   0  0  0  0  0  0  0  0  0  0  0  0
  1  2  1  0
  1 29  1  0
  1 30  1  0
  1 31  1  0
  2  3  2  0
  2  4  1  0
  4  5  2  0
  4 27  1  0
  5  6  1  0
  5  7  1  0
  6 32  1  0
  6 33  1  0
  6 34  1  0
  7  8  2  0
  7 35  1  0
  8  9  1  0
  8 10  1  0
  9 36  1  0
  9 37  1  0
  9 38  1  0
 10 11  1  0
 10 27  2  0
 11 12  1  0
 11 39  1  0
 11 40  1  0
 12 13  1  0
 12 26  1  0
 13 14  1  0
 13 41  1  0
 13 42  1  0
 14 15  1  0
 14 43  1  0
 14 44  1  0
 15 16  1  0
 15 26  2  0
 16 17  2  0
 16 45  1  0
 17 18  1  0
 17 24  1  0
 18 19  2  0
 18 20  2  0
 18 21  1  1
 21 22  1  0
 21 23  1  0
 22 46  1  0
 22 47  1  0
 22 48  1  0
 23 49  1  0
 23 50  1  0
 23 51  1  0
 24 25  2  0
 24 52  1  0
 25 26  1  0
 25 53  1  0
 27 28  1  0
 28 54  1  0
 28 55  1  0
 28 56  1  0
M  END

