
     RDKit          3D

 52 55  0  0  0  0  0  0  0  0999 V2000
    6.7897    1.9884   -0.9657 C   0  0  0  0  0  0  0  0  0  0  0  0
    5.6559    1.0061   -1.0904 C   0  0  0  0  0  0  0  0  0  0  0  0
    4.4723    1.3168   -1.7799 C   0  0  0  0  0  0  0  0  0  0  0  0
    3.4793    0.3329   -1.8394 C   0  0  0  0  0  0  0  0  0  0  0  0
    2.1699    0.5525   -2.5452 C   0  0  0  0  0  0  0  0  0  0  0  0
    3.6561   -0.8620   -1.2601 N   0  0  0  0  0  0  0  0  0  0  0  0
    4.8147   -1.0683   -0.6304 C   0  0  0  0  0  0  0  0  0  0  0  0
    5.0671   -2.2767   -0.0153 N   0  0  0  0  0  0  0  0  0  0  0  0
    4.3215   -3.4510    0.0990 C   0  0  0  0  0  0  0  0  0  0  0  0
    4.9092   -4.5194    0.8108 C   0  0  0  0  0  0  0  0  0  0  0  0
    4.2368   -5.7284    0.9631 C   0  0  0  0  0  0  0  0  0  0  0  0
    2.9597   -5.9041    0.4237 C   0  0  0  0  0  0  0  0  0  0  0  0
    2.3591   -4.8449   -0.2757 C   0  0  0  0  0  0  0  0  0  0  0  0
    0.9935   -4.9327   -0.9064 C   0  0  0  0  0  0  0  0  0  0  0  0
    0.6346   -4.1822   -1.7952 O   0  0  0  0  0  0  0  0  0  0  0  0
    0.1702   -5.9173   -0.3872 N   0  0  0  0  0  0  0  0  0  0  0  0
   -1.1037   -6.2214   -0.8532 C   0  0  0  0  0  0  0  0  0  0  0  0
   -1.8178   -5.7610   -1.9458 C   0  0  0  0  0  0  0  0  0  0  0  0
   -3.0172   -6.5271   -1.9364 C   0  0  0  0  0  0  0  0  0  0  0  0
   -4.1638   -6.4441   -2.8963 C   0  0  0  0  0  0  0  0  0  0  0  0
   -3.0428   -7.3828   -0.9247 N   0  0  0  0  0  0  0  0  0  0  0  0
   -1.8783   -7.1873   -0.2453 N   0  0  0  0  0  0  0  0  0  0  0  0
   -1.5937   -7.9825    0.8928 C   0  0  0  0  0  0  0  0  0  0  0  0
   -1.9054   -9.3509    0.8650 C   0  0  0  0  0  0  0  0  0  0  0  0
   -1.6391  -10.1452    1.9796 C   0  0  0  0  0  0  0  0  0  0  0  0
   -1.0525   -9.5927    3.1246 C   0  0  0  0  0  0  0  0  0  0  0  0
   -0.7540   -8.2287    3.1553 C   0  0  0  0  0  0  0  0  0  0  0  0
   -1.0350   -7.4177    2.0508 C   0  0  0  0  0  0  0  0  0  0  0  0
    3.0397   -3.6318   -0.4481 C   0  0  0  0  0  0  0  0  0  0  0  0
    5.8242   -0.1853   -0.5168 N   0  0  0  0  0  0  0  0  0  0  0  0
    6.5505    2.9567   -1.4268 H   0  0  0  0  0  0  0  0  0  0  0  0
    7.6946    1.5804   -1.4445 H   0  0  0  0  0  0  0  0  0  0  0  0
    7.0363    2.1460    0.0961 H   0  0  0  0  0  0  0  0  0  0  0  0
    4.3320    2.2909   -2.2505 H   0  0  0  0  0  0  0  0  0  0  0  0
    2.1105    1.5480   -3.0067 H   0  0  0  0  0  0  0  0  0  0  0  0
    1.3361    0.4361   -1.8344 H   0  0  0  0  0  0  0  0  0  0  0  0
    2.0283   -0.2154   -3.3221 H   0  0  0  0  0  0  0  0  0  0  0  0
    5.9827   -2.2851    0.4207 H   0  0  0  0  0  0  0  0  0  0  0  0
    5.9084   -4.3956    1.2391 H   0  0  0  0  0  0  0  0  0  0  0  0
    4.7190   -6.5477    1.5021 H   0  0  0  0  0  0  0  0  0  0  0  0
    2.4694   -6.8752    0.5242 H   0  0  0  0  0  0  0  0  0  0  0  0
    0.5143   -6.4606    0.3950 H   0  0  0  0  0  0  0  0  0  0  0  0
   -1.4953   -4.9926   -2.6386 H   0  0  0  0  0  0  0  0  0  0  0  0
   -3.8341   -6.6322   -3.9314 H   0  0  0  0  0  0  0  0  0  0  0  0
   -4.6283   -5.4443   -2.8793 H   0  0  0  0  0  0  0  0  0  0  0  0
   -4.9282   -7.1876   -2.6311 H   0  0  0  0  0  0  0  0  0  0  0  0
   -2.3656   -9.7641   -0.0329 H   0  0  0  0  0  0  0  0  0  0  0  0
   -1.8866  -11.2094    1.9517 H   0  0  0  0  0  0  0  0  0  0  0  0
   -0.8403  -10.2217    3.9923 H   0  0  0  0  0  0  0  0  0  0  0  0
   -0.3201   -7.7807    4.0529 H   0  0  0  0  0  0  0  0  0  0  0  0
   -0.8573   -6.3417    2.1056 H   0  0  0  0  0  0  0  0  0  0  0  0
    2.5692   -2.8308   -1.0113 H   0  0  0  0  0  0  0  0  0  0  0  0
  1  2  1  0
  1 31  1  0
  1 32  1  0
  1 33  1  0
  2  3  2  0
  2 30  1  0
  3  4  1  0
  3 34  1  0
  4  5  1  0
  4  6  2  0
  5 35  1  0
  5 36  1  0
  5 37  1  0
  6  7  1  0
  7  8  1  0
  7 30  2  0
  8  9  1  0
  8 38  1  0
  9 10  2  0
  9 29  1  0
 10 11  1  0
 10 39  1  0
 11 12  2  0
 11 40  1  0
 12 13  1  0
 12 41  1  0
 13 14  1  0
 13 29  2  0
 14 15  2  0
 14 16  1  0
 16 17  1  0
 16 42  1  0
 17 18  2  0
 17 22  1  0
 18 19  1  0
 18 43  1  0
 19 20  1  0
 19 21  2  0
 20 44  1  0
 20 45  1  0
 20 46  1  0
 21 22  1  0
 22 23  1  0
 23 24  2  0
 23 28  1  0
 24 25  1  0
 24 47  1  0
 25 26  2  0
 25 48  1  0
 26 27  1  0
 26 49  1  0
 27 28  2  0
 27 50  1  0
 28 51  1  0
 29 52  1  0
M  END

