
     RDKit          3D

 24 26  0  0  0  0  0  0  0  0999 V2000
    0.8793    0.0492   -0.0770 O   0  0  0  0  0  0  0  0  0  0  0  0
    2.0924    0.0494    0.0552 C   0  0  0  0  0  0  0  0  0  0  0  0
    2.7775    1.3614    0.1556 C   0  0  0  0  0  0  0  0  0  0  0  0
    2.2058    2.6019    0.0439 C   0  0  0  0  0  0  0  0  0  0  0  0
    3.2587    3.5556    0.2478 C   0  0  0  0  0  0  0  0  0  0  0  0
    3.3582    4.9610    0.2666 C   0  0  0  0  0  0  0  0  0  0  0  0
    4.6028    5.5314    0.5125 C   0  0  0  0  0  0  0  0  0  0  0  0
    5.7455    4.7318    0.7394 C   0  0  0  0  0  0  0  0  0  0  0  0
    5.6751    3.3392    0.7261 C   0  0  0  0  0  0  0  0  0  0  0  0
    4.4205    2.7844    0.4777 C   0  0  0  0  0  0  0  0  0  0  0  0
    4.1245    1.4587    0.4198 O   0  0  0  0  0  0  0  0  0  0  0  0
    2.8755   -1.2204    0.1276 C   0  0  0  0  0  0  0  0  0  0  0  0
    4.2832   -1.3669   -0.1454 C   0  0  0  0  0  0  0  0  0  0  0  0
    4.7188   -2.6556   -0.0382 C   0  0  0  0  0  0  0  0  0  0  0  0
    6.3178   -3.2457   -0.2997 Cl  0  0  0  0  0  0  0  0  0  0  0  0
    3.4390   -3.7520    0.4153 S   0  0  0  0  0  0  0  0  0  0  0  0
    2.2965   -2.4425    0.4403 C   0  0  0  0  0  0  0  0  0  0  0  0
    0.6733   -2.7992    0.8686 Cl  0  0  0  0  0  0  0  0  0  0  0  0
    1.1525    2.7803   -0.1568 H   0  0  0  0  0  0  0  0  0  0  0  0
    2.4788    5.5852    0.0929 H   0  0  0  0  0  0  0  0  0  0  0  0
    4.7040    6.6191    0.5321 H   0  0  0  0  0  0  0  0  0  0  0  0
    6.7064    5.2160    0.9299 H   0  0  0  0  0  0  0  0  0  0  0  0
    6.5499    2.7108    0.9012 H   0  0  0  0  0  0  0  0  0  0  0  0
    4.9365   -0.5424   -0.4171 H   0  0  0  0  0  0  0  0  0  0  0  0
  1  2  2  0
  2  3  1  0
  2 12  1  0
  3  4  2  0
  3 11  1  0
  4  5  1  0
  4 19  1  0
  5  6  2  0
  5 10  1  0
  6  7  1  0
  6 20  1  0
  7  8  2  0
  7 21  1  0
  8  9  1  0
  8 22  1  0
  9 10  2  0
  9 23  1  0
 10 11  1  0
 12 13  1  0
 12 17  2  0
 13 14  2  0
 13 24  1  0
 14 15  1  0
 14 16  1  0
 16 17  1  0
 17 18  1  0
M  END

