
     RDKit          3D

 35 36  0  0  0  0  0  0  0  0999 V2000
    1.0379   -0.6184    1.4802 C   0  0  0  0  0  0  0  0  0  0  0  0
    2.4884   -0.5888    1.6087 N   0  0  0  0  0  0  0  0  0  0  0  0
    3.1067   -1.6447    2.3883 C   0  0  0  0  0  0  0  0  0  0  0  0
    2.9889   -3.0306    1.7038 C   0  0  0  0  0  0  0  0  0  0  0  0
    3.5272   -4.1067    2.5370 C   0  0  0  0  0  0  0  0  0  0  0  0
    3.9483   -4.9429    3.2197 N   0  0  0  0  0  0  0  0  0  0  0  0
    3.1671    0.3882    0.9123 C   0  0  0  0  0  0  0  0  0  0  0  0
    2.5912    1.1437    0.1464 O   0  0  0  0  0  0  0  0  0  0  0  0
    4.6800    0.5366    1.1319 C   0  0  0  0  0  0  0  0  0  0  0  0
    4.9634    0.9785    2.4512 O   0  0  0  0  0  0  0  0  0  0  0  0
    5.8484    0.2436    3.1980 C   0  0  0  0  0  0  0  0  0  0  0  0
    6.2880   -0.8550    2.8306 O   0  0  0  0  0  0  0  0  0  0  0  0
    6.1776    0.8614    4.4610 C   0  0  0  0  0  0  0  0  0  0  0  0
    5.7228    2.0590    4.9080 N   0  0  0  0  0  0  0  0  0  0  0  0
    6.3302    2.2044    6.1676 N   0  0  0  0  0  0  0  0  0  0  0  0
    6.1345    3.0431    6.6995 H   0  0  0  0  0  0  0  0  0  0  0  0
    7.1215    1.1693    6.5117 C   0  0  0  0  0  0  0  0  0  0  0  0
    7.9027    0.9081    7.6727 C   0  0  0  0  0  0  0  0  0  0  0  0
    8.6332   -0.3020    7.7332 C   0  0  0  0  0  0  0  0  0  0  0  0
    8.5825   -1.2069    6.6829 C   0  0  0  0  0  0  0  0  0  0  0  0
    7.7867   -0.9344    5.5046 C   0  0  0  0  0  0  0  0  0  0  0  0
    7.0665    0.2511    5.4335 C   0  0  0  0  0  0  0  0  0  0  0  0
    0.5879   -0.9137    2.4417 H   0  0  0  0  0  0  0  0  0  0  0  0
    0.6946   -1.3231    0.7012 H   0  0  0  0  0  0  0  0  0  0  0  0
    0.6869    0.3811    1.1965 H   0  0  0  0  0  0  0  0  0  0  0  0
    2.6247   -1.6944    3.3804 H   0  0  0  0  0  0  0  0  0  0  0  0
    4.1700   -1.4409    2.5560 H   0  0  0  0  0  0  0  0  0  0  0  0
    3.5307   -3.0196    0.7435 H   0  0  0  0  0  0  0  0  0  0  0  0
    1.9372   -3.2693    1.4761 H   0  0  0  0  0  0  0  0  0  0  0  0
    4.9963    1.3181    0.4267 H   0  0  0  0  0  0  0  0  0  0  0  0
    5.2294   -0.3938    0.9209 H   0  0  0  0  0  0  0  0  0  0  0  0
    7.9368    1.6205    8.5000 H   0  0  0  0  0  0  0  0  0  0  0  0
    9.2369   -0.5176    8.6166 H   0  0  0  0  0  0  0  0  0  0  0  0
    9.1458   -2.1408    6.7325 H   0  0  0  0  0  0  0  0  0  0  0  0
    7.7424   -1.6405    4.6738 H   0  0  0  0  0  0  0  0  0  0  0  0
  1  2  1  0
  1 23  1  0
  1 24  1  0
  1 25  1  0
  2  3  1  0
  2  7  1  0
  3  4  1  0
  3 26  1  0
  3 27  1  0
  4  5  1  0
  4 28  1  0
  4 29  1  0
  5  6  3  0
  7  8  2  0
  7  9  1  0
  9 10  1  0
  9 30  1  0
  9 31  1  0
 10 11  1  0
 11 12  2  0
 11 13  1  0
 13 14  2  0
 13 22  1  0
 14 15  1  0
 15 16  1  0
 15 17  1  0
 17 18  1  0
 17 22  2  0
 18 19  2  0
 18 32  1  0
 19 20  1  0
 19 33  1  0
 20 21  2  0
 20 34  1  0
 21 22  1  0
 21 35  1  0
M  END

