
     RDKit          3D

 75 79  0  0  0  0  0  0  0  0999 V2000
    2.7273    6.4386   -1.7923 C   0  0  0  0  0  0  0  0  0  0  0  0
    3.9359    5.8933   -1.3280 O   0  0  0  0  0  0  0  0  0  0  0  0
    4.6593    6.7355   -0.4656 C   0  0  0  0  0  0  0  0  0  0  0  0
    5.9539    6.0766    0.0129 C   0  0  0  0  0  0  0  0  0  0  0  0
    6.7180    6.6829    0.7467 O   0  0  0  0  0  0  0  0  0  0  0  0
    6.1470    4.8119   -0.4354 N   0  0  0  0  0  0  0  0  0  0  0  0
    7.3232    4.0227   -0.0807 C   0  0  1  0  0  0  0  0  0  0  0  0
    7.6294    4.3767    0.9154 H   0  0  0  0  0  0  0  0  0  0  0  0
    6.9756    2.5285   -0.0217 C   0  0  0  0  0  0  0  0  0  0  0  0
    6.7309    1.9318   -1.4131 C   0  0  0  0  0  0  0  0  0  0  0  0
    7.9112    2.1847   -2.3720 C   0  0  1  0  0  0  0  0  0  0  0  0
    8.7884    1.6440   -1.9798 H   0  0  0  0  0  0  0  0  0  0  0  0
    7.6506    1.6200   -3.6863 N   0  0  0  0  0  0  0  0  0  0  0  0
    8.1253    0.4022   -4.0712 C   0  0  0  0  0  0  0  0  0  0  0  0
    8.8227   -0.3078   -3.3496 O   0  0  0  0  0  0  0  0  0  0  0  0
    7.7340    0.0036   -5.4540 C   0  0  0  0  0  0  0  0  0  0  0  0
    8.0915   -1.1781   -6.0999 C   0  0  0  0  0  0  0  0  0  0  0  0
    8.9226   -2.3216   -5.6235 C   0  0  0  0  0  0  0  0  0  0  0  0
    7.5415   -1.1883   -7.3643 N   0  0  0  0  0  0  0  0  0  0  0  0
    7.6688   -1.9336   -8.0380 H   0  0  0  0  0  0  0  0  0  0  0  0
    6.8237   -0.0314   -7.5770 C   0  0  0  0  0  0  0  0  0  0  0  0
    6.0916    0.4820   -8.6572 C   0  0  0  0  0  0  0  0  0  0  0  0
    5.8539   -0.2952   -9.9054 C   0  0  0  0  0  0  0  0  0  0  0  0
    5.3979   -1.6194   -9.7543 C   0  0  0  0  0  0  0  0  0  0  0  0
    5.0289   -2.4113  -10.8392 C   0  0  0  0  0  0  0  0  0  0  0  0
    4.4913   -3.7988  -10.6148 C   0  0  1  0  0  0  0  0  0  0  0  0
    4.9962   -4.3528   -9.4938 F   0  0  0  0  0  0  0  0  0  0  0  0
    3.1510   -3.8091  -10.4823 F   0  0  0  0  0  0  0  0  0  0  0  0
    4.7871   -4.6194  -11.6388 F   0  0  0  0  0  0  0  0  0  0  0  0
    5.1037   -1.8741  -12.1323 C   0  0  0  0  0  0  0  0  0  0  0  0
    5.5663   -0.5795  -12.3114 C   0  0  0  0  0  0  0  0  0  0  0  0
    5.9641    0.2249  -11.2229 C   0  0  0  0  0  0  0  0  0  0  0  0
    6.4191    1.4414  -11.5711 O   0  0  0  0  0  0  0  0  0  0  0  0
    7.4380    2.1498  -10.8552 C   0  0  0  0  0  0  0  0  0  0  0  0
    8.2562    2.9348  -11.8442 C   0  0  1  0  0  0  0  0  0  0  0  0
    9.6892    3.2754  -11.5176 C   0  0  0  0  0  0  0  0  0  0  0  0
    9.3788    2.2768  -12.6033 C   0  0  0  0  0  0  0  0  0  0  0  0
    5.5341    1.6941   -8.5185 N   0  0  0  0  0  0  0  0  0  0  0  0
    5.6785    2.3521   -7.3595 C   0  0  0  0  0  0  0  0  0  0  0  0
    6.3388    1.9454   -6.2783 N   0  0  0  0  0  0  0  0  0  0  0  0
    6.9273    0.7424   -6.3887 C   0  0  0  0  0  0  0  0  0  0  0  0
    8.2573    3.6889   -2.4607 C   0  0  2  0  0  0  0  0  0  0  0  0
    7.3743    4.2071   -2.8849 H   0  0  0  0  0  0  0  0  0  0  0  0
    9.4545    3.9630   -3.3753 C   0  0  0  0  0  0  0  0  0  0  0  0
    8.4959    4.2576   -1.0511 C   0  0  0  0  0  0  0  0  0  0  0  0
    2.2557    5.6973   -2.4534 H   0  0  0  0  0  0  0  0  0  0  0  0
    2.8910    7.3724   -2.3662 H   0  0  0  0  0  0  0  0  0  0  0  0
    2.0317    6.6655   -0.9600 H   0  0  0  0  0  0  0  0  0  0  0  0
    4.0715    7.0028    0.4359 H   0  0  0  0  0  0  0  0  0  0  0  0
    4.9372    7.6881   -0.9598 H   0  0  0  0  0  0  0  0  0  0  0  0
    5.4334    4.4377   -1.0521 H   0  0  0  0  0  0  0  0  0  0  0  0
    6.1009    2.3702    0.6304 H   0  0  0  0  0  0  0  0  0  0  0  0
    7.8216    2.0011    0.4511 H   0  0  0  0  0  0  0  0  0  0  0  0
    5.8123    2.3542   -1.8626 H   0  0  0  0  0  0  0  0  0  0  0  0
    6.5604    0.8462   -1.3371 H   0  0  0  0  0  0  0  0  0  0  0  0
    7.0506    2.1260   -4.3412 H   0  0  0  0  0  0  0  0  0  0  0  0
    9.2516   -2.1214   -4.5974 H   0  0  0  0  0  0  0  0  0  0  0  0
    9.8073   -2.4591   -6.2687 H   0  0  0  0  0  0  0  0  0  0  0  0
    8.3456   -3.2618   -5.6467 H   0  0  0  0  0  0  0  0  0  0  0  0
    5.2896   -2.0244   -8.7463 H   0  0  0  0  0  0  0  0  0  0  0  0
    4.8193   -2.4787  -12.9956 H   0  0  0  0  0  0  0  0  0  0  0  0
    5.6607   -0.1468  -13.3088 H   0  0  0  0  0  0  0  0  0  0  0  0
    8.0776    1.4348  -10.3085 H   0  0  0  0  0  0  0  0  0  0  0  0
    6.9583    2.8108  -10.1188 H   0  0  0  0  0  0  0  0  0  0  0  0
    7.6816    3.6968  -12.3820 H   0  0  0  0  0  0  0  0  0  0  0  0
   10.1084    2.9015  -10.5780 H   0  0  0  0  0  0  0  0  0  0  0  0
   10.0598    4.2635  -11.8034 H   0  0  0  0  0  0  0  0  0  0  0  0
    9.5810    1.2201  -12.4020 H   0  0  0  0  0  0  0  0  0  0  0  0
    9.5390    2.5700  -13.6444 H   0  0  0  0  0  0  0  0  0  0  0  0
    5.1951    3.3340   -7.3000 H   0  0  0  0  0  0  0  0  0  0  0  0
    9.2761    3.5979   -4.3975 H   0  0  0  0  0  0  0  0  0  0  0  0
   10.3617    3.4634   -2.9952 H   0  0  0  0  0  0  0  0  0  0  0  0
    9.6659    5.0429   -3.4307 H   0  0  0  0  0  0  0  0  0  0  0  0
    8.7042    5.3380   -1.1063 H   0  0  0  0  0  0  0  0  0  0  0  0
    9.3993    3.7860   -0.6229 H   0  0  0  0  0  0  0  0  0  0  0  0
  1  2  1  0
  1 46  1  0
  1 47  1  0
  1 48  1  0
  2  3  1  0
  3  4  1  0
  3 49  1  0
  3 50  1  0
  4  5  2  0
  4  6  1  0
  6  7  1  0
  6 51  1  0
  7  8  1  1
  7  9  1  0
  7 45  1  0
  9 10  1  0
  9 52  1  0
  9 53  1  0
 10 11  1  0
 10 54  1  0
 10 55  1  0
 11 12  1  1
 11 13  1  0
 11 42  1  0
 13 14  1  0
 13 56  1  0
 14 15  2  0
 14 16  1  0
 16 17  2  0
 16 41  1  0
 17 18  1  0
 17 19  1  0
 18 57  1  0
 18 58  1  0
 18 59  1  0
 19 20  1  0
 19 21  1  0
 21 22  1  0
 21 41  2  0
 22 23  1  0
 22 38  2  0
 23 24  2  0
 23 32  1  0
 24 25  1  0
 24 60  1  0
 25 26  1  0
 25 30  2  0
 26 27  1  1
 26 28  1  0
 26 29  1  0
 30 31  1  0
 30 61  1  0
 31 32  2  0
 31 62  1  0
 32 33  1  0
 33 34  1  0
 34 35  1  0
 34 63  1  0
 34 64  1  0
 35 36  1  0
 35 37  1  0
 35 65  1  6
 36 37  1  0
 36 66  1  0
 36 67  1  0
 37 68  1  0
 37 69  1  0
 38 39  1  0
 39 40  2  0
 39 70  1  0
 40 41  1  0
 42 43  1  6
 42 44  1  0
 42 45  1  0
 44 71  1  0
 44 72  1  0
 44 73  1  0
 45 74  1  0
 45 75  1  0
M  END

