
     RDKit          3D

 52 55  0  0  0  0  0  0  0  0999 V2000
    2.0431   -0.0409    1.3983 O   0  0  0  0  0  0  0  0  0  0  0  0
    2.7588   -0.1780    0.4161 C   0  0  0  0  0  0  0  0  0  0  0  0
    2.7029   -1.4549   -0.4259 C   0  0  0  0  0  0  0  0  0  0  0  0
    1.7059   -2.4718    0.1313 C   0  0  0  0  0  0  0  0  0  0  0  0
    1.6614   -3.8033   -0.6450 C   0  0  1  0  0  0  0  0  0  0  0  0
    0.8403   -4.8803    0.0983 C   0  0  0  0  0  0  0  0  0  0  0  0
   -0.6667   -4.6510   -0.0360 C   0  0  0  0  0  0  0  0  0  0  0  0
   -1.0649   -4.5746   -1.3921 O   0  0  0  0  0  0  0  0  0  0  0  0
   -0.4242   -3.5239   -2.0873 C   0  0  0  0  0  0  0  0  0  0  0  0
    1.0986   -3.6816   -2.0797 C   0  0  0  0  0  0  0  0  0  0  0  0
    3.6451    0.8042    0.0280 N   0  0  0  0  0  0  0  0  0  0  0  0
    4.5317    0.7632   -1.1303 C   0  0  0  0  0  0  0  0  0  0  0  0
    4.2902    1.9641   -2.0591 C   0  0  0  0  0  0  0  0  0  0  0  0
    4.3654    3.3081   -1.3127 C   0  0  2  0  0  0  0  0  0  0  0  0
    5.7674    3.6887   -0.9859 C   0  0  0  0  0  0  0  0  0  0  0  0
    6.8810    3.0042   -1.2074 N   0  0  0  0  0  0  0  0  0  0  0  0
    7.9237    3.7805   -0.7934 C   0  0  0  0  0  0  0  0  0  0  0  0
    9.3163    3.5407   -0.8128 C   0  0  0  0  0  0  0  0  0  0  0  0
   10.1587    4.5713   -0.3000 C   0  0  0  0  0  0  0  0  0  0  0  0
    9.6595    5.8049    0.2088 C   0  0  0  0  0  0  0  0  0  0  0  0
    8.2715    6.0764    0.2362 C   0  0  0  0  0  0  0  0  0  0  0  0
    7.4277    5.0525   -0.2717 C   0  0  0  0  0  0  0  0  0  0  0  0
    6.0793    4.9646   -0.4144 N   0  0  0  0  0  0  0  0  0  0  0  0
    5.4091    5.6834   -0.1706 H   0  0  0  0  0  0  0  0  0  0  0  0
    3.4380    3.2591   -0.0649 C   0  0  0  0  0  0  0  0  0  0  0  0
    3.7326    2.0337    0.8073 C   0  0  0  0  0  0  0  0  0  0  0  0
    3.7125   -1.9008   -0.4739 H   0  0  0  0  0  0  0  0  0  0  0  0
    2.4484   -1.1838   -1.4648 H   0  0  0  0  0  0  0  0  0  0  0  0
    0.7115   -2.0012    0.1818 H   0  0  0  0  0  0  0  0  0  0  0  0
    1.9739   -2.6778    1.1800 H   0  0  0  0  0  0  0  0  0  0  0  0
    2.7022   -4.1682   -0.7192 H   0  0  0  0  0  0  0  0  0  0  0  0
    1.1193   -4.9148    1.1654 H   0  0  0  0  0  0  0  0  0  0  0  0
    1.0743   -5.8702   -0.3298 H   0  0  0  0  0  0  0  0  0  0  0  0
   -0.9697   -3.7285    0.5024 H   0  0  0  0  0  0  0  0  0  0  0  0
   -1.2294   -5.4870    0.4079 H   0  0  0  0  0  0  0  0  0  0  0  0
   -0.7148   -2.5449   -1.6501 H   0  0  0  0  0  0  0  0  0  0  0  0
   -0.8121   -3.5475   -3.1178 H   0  0  0  0  0  0  0  0  0  0  0  0
    1.5609   -2.8429   -2.6273 H   0  0  0  0  0  0  0  0  0  0  0  0
    1.3500   -4.5985   -2.6399 H   0  0  0  0  0  0  0  0  0  0  0  0
    4.3863   -0.1703   -1.6848 H   0  0  0  0  0  0  0  0  0  0  0  0
    5.5820    0.7882   -0.7913 H   0  0  0  0  0  0  0  0  0  0  0  0
    3.2887    1.8722   -2.5118 H   0  0  0  0  0  0  0  0  0  0  0  0
    5.0328    1.9422   -2.8701 H   0  0  0  0  0  0  0  0  0  0  0  0
    3.9499    4.0968   -1.9810 H   0  0  0  0  0  0  0  0  0  0  0  0
    9.7223    2.6094   -1.2062 H   0  0  0  0  0  0  0  0  0  0  0  0
   11.2396    4.4088   -0.2944 H   0  0  0  0  0  0  0  0  0  0  0  0
   10.3654    6.5470    0.5862 H   0  0  0  0  0  0  0  0  0  0  0  0
    7.8722    7.0122    0.6293 H   0  0  0  0  0  0  0  0  0  0  0  0
    2.3881    3.2266   -0.4042 H   0  0  0  0  0  0  0  0  0  0  0  0
    3.5476    4.1722    0.5445 H   0  0  0  0  0  0  0  0  0  0  0  0
    3.0183    1.9517    1.6352 H   0  0  0  0  0  0  0  0  0  0  0  0
    4.7512    2.1204    1.2311 H   0  0  0  0  0  0  0  0  0  0  0  0
  1  2  2  0
  2  3  1  0
  2 11  1  0
  3  4  1  0
  3 27  1  0
  3 28  1  0
  4  5  1  0
  4 29  1  0
  4 30  1  0
  5  6  1  0
  5 10  1  0
  5 31  1  6
  6  7  1  0
  6 32  1  0
  6 33  1  0
  7  8  1  0
  7 34  1  0
  7 35  1  0
  8  9  1  0
  9 10  1  0
  9 36  1  0
  9 37  1  0
 10 38  1  0
 10 39  1  0
 11 12  1  0
 11 26  1  0
 12 13  1  0
 12 40  1  0
 12 41  1  0
 13 14  1  0
 13 42  1  0
 13 43  1  0
 14 15  1  0
 14 25  1  0
 14 44  1  6
 15 16  2  0
 15 23  1  0
 16 17  1  0
 17 18  2  0
 17 22  1  0
 18 19  1  0
 18 45  1  0
 19 20  2  0
 19 46  1  0
 20 21  1  0
 20 47  1  0
 21 22  2  0
 21 48  1  0
 22 23  1  0
 23 24  1  0
 25 26  1  0
 25 49  1  0
 25 50  1  0
 26 51  1  0
 26 52  1  0
M  END

