
     RDKit          3D

 52 54  0  0  0  0  0  0  0  0999 V2000
    1.3423   -0.0628    0.4629 C   0  0  0  0  0  0  0  0  0  0  0  0
    2.8113    0.0048    0.1463 C   0  0  0  0  0  0  0  0  0  0  0  0
    3.4362    1.2174   -0.0743 C   0  0  0  0  0  0  0  0  0  0  0  0
    4.8479    1.2235   -0.3656 C   0  0  0  0  0  0  0  0  0  0  0  0
    5.4951    2.2888   -0.5564 O   0  0  0  0  0  0  0  0  0  0  0  0
    5.4715   -0.0501   -0.4267 C   0  0  0  0  0  0  0  0  0  0  0  0
    6.8853    0.0165   -0.7208 C   0  0  0  0  0  0  0  0  0  0  0  0
    7.4688    1.1122   -0.9020 O   0  0  0  0  0  0  0  0  0  0  0  0
    7.5599   -1.1525   -0.7939 N   0  0  0  0  0  0  0  0  0  0  0  0
    8.9067   -1.1649   -1.0661 N   0  0  0  0  0  0  0  0  0  0  0  0
    9.5477   -2.3469   -1.1922 C   0  0  0  0  0  0  0  0  0  0  0  0
    8.9824   -3.4254   -1.0709 O   0  0  0  0  0  0  0  0  0  0  0  0
   11.0493   -2.2474   -1.4840 C   0  0  1  0  0  0  0  0  0  0  0  0
   11.4129   -3.0866   -2.7061 C   0  0  0  0  0  0  0  0  0  0  0  0
   11.3856   -0.8736   -1.6491 O   0  0  0  0  0  0  0  0  0  0  0  0
   12.6485   -0.4100   -1.4032 C   0  0  0  0  0  0  0  0  0  0  0  0
   13.7226   -1.2029   -0.9749 C   0  0  0  0  0  0  0  0  0  0  0  0
   14.9724   -0.6174   -0.7375 C   0  0  0  0  0  0  0  0  0  0  0  0
   15.1408    0.7481   -0.9322 C   0  0  0  0  0  0  0  0  0  0  0  0
   16.3410    1.3065   -0.7050 F   0  0  0  0  0  0  0  0  0  0  0  0
   14.0834    1.5498   -1.3630 C   0  0  0  0  0  0  0  0  0  0  0  0
   12.8402    0.9683   -1.5984 C   0  0  0  0  0  0  0  0  0  0  0  0
    4.8477   -1.2440   -0.2387 N   0  0  0  0  0  0  0  0  0  0  0  0
    3.5162   -1.1566    0.0792 N   0  0  0  0  0  0  0  0  0  0  0  0
    2.9121   -2.4500    0.2606 C   0  0  0  0  0  0  0  0  0  0  0  0
    2.3830   -3.0981   -0.8575 C   0  0  0  0  0  0  0  0  0  0  0  0
    1.8134   -4.3679   -0.7350 C   0  0  0  0  0  0  0  0  0  0  0  0
    1.7855   -4.9973    0.5102 C   0  0  0  0  0  0  0  0  0  0  0  0
    2.3304   -4.3601    1.6274 C   0  0  0  0  0  0  0  0  0  0  0  0
    2.9018   -3.0868    1.5157 C   0  0  0  0  0  0  0  0  0  0  0  0
    3.4985   -2.4278    2.7445 C   0  0  1  0  0  0  0  0  0  0  0  0
    2.9030   -1.2426    3.0087 F   0  0  0  0  0  0  0  0  0  0  0  0
    3.3398   -3.1915    3.8381 F   0  0  0  0  0  0  0  0  0  0  0  0
    4.8066   -2.1891    2.6093 F   0  0  0  0  0  0  0  0  0  0  0  0
    0.9173    0.9486    0.4785 H   0  0  0  0  0  0  0  0  0  0  0  0
    1.1760   -0.5281    1.4448 H   0  0  0  0  0  0  0  0  0  0  0  0
    0.7993   -0.6602   -0.2852 H   0  0  0  0  0  0  0  0  0  0  0  0
    2.8858    2.1535   -0.0170 H   0  0  0  0  0  0  0  0  0  0  0  0
    7.1201   -2.0593   -0.6511 H   0  0  0  0  0  0  0  0  0  0  0  0
    9.3557   -0.2617   -1.1841 H   0  0  0  0  0  0  0  0  0  0  0  0
   11.5474   -2.6522   -0.5843 H   0  0  0  0  0  0  0  0  0  0  0  0
   10.9389   -2.6643   -3.6053 H   0  0  0  0  0  0  0  0  0  0  0  0
   11.0453   -4.1121   -2.5617 H   0  0  0  0  0  0  0  0  0  0  0  0
   12.5007   -3.1113   -2.8635 H   0  0  0  0  0  0  0  0  0  0  0  0
   13.6092   -2.2760   -0.8222 H   0  0  0  0  0  0  0  0  0  0  0  0
   15.8191   -1.2201   -0.4032 H   0  0  0  0  0  0  0  0  0  0  0  0
   14.2446    2.6198   -1.5077 H   0  0  0  0  0  0  0  0  0  0  0  0
   11.9956    1.5730   -1.9346 H   0  0  0  0  0  0  0  0  0  0  0  0
    2.4312   -2.5956   -1.8255 H   0  0  0  0  0  0  0  0  0  0  0  0
    1.3981   -4.8646   -1.6149 H   0  0  0  0  0  0  0  0  0  0  0  0
    1.3440   -5.9908    0.6160 H   0  0  0  0  0  0  0  0  0  0  0  0
    2.3173   -4.8526    2.6000 H   0  0  0  0  0  0  0  0  0  0  0  0
  1  2  1  0
  1 35  1  0
  1 36  1  0
  1 37  1  0
  2  3  2  0
  2 24  1  0
  3  4  1  0
  3 38  1  0
  4  5  2  0
  4  6  1  0
  6  7  1  0
  6 23  2  0
  7  8  2  0
  7  9  1  0
  9 10  1  0
  9 39  1  0
 10 11  1  0
 10 40  1  0
 11 12  2  0
 11 13  1  0
 13 14  1  0
 13 15  1  0
 13 41  1  1
 14 42  1  0
 14 43  1  0
 14 44  1  0
 15 16  1  0
 16 17  2  0
 16 22  1  0
 17 18  1  0
 17 45  1  0
 18 19  2  0
 18 46  1  0
 19 20  1  0
 19 21  1  0
 21 22  2  0
 21 47  1  0
 22 48  1  0
 23 24  1  0
 24 25  1  0
 25 26  2  0
 25 30  1  0
 26 27  1  0
 26 49  1  0
 27 28  2  0
 27 50  1  0
 28 29  1  0
 28 51  1  0
 29 30  2  0
 29 52  1  0
 30 31  1  0
 31 32  1  1
 31 33  1  0
 31 34  1  0
M  END

