
     RDKit          3D

 79 80  0  0  0  0  0  0  0  0999 V2000
    9.1019    6.0689    2.1161 C   0  0  0  0  0  0  0  0  0  0  0  0
    8.4769    6.4056    0.8981 O   0  0  0  0  0  0  0  0  0  0  0  0
    9.2206    6.6813   -0.2005 C   0  0  0  0  0  0  0  0  0  0  0  0
   10.6411    6.7097   -0.1681 C   0  0  0  0  0  0  0  0  0  0  0  0
   11.3539    7.0391   -1.2989 C   0  0  0  0  0  0  0  0  0  0  0  0
   10.7036    7.3747   -2.5135 C   0  0  0  0  0  0  0  0  0  0  0  0
   11.4425    7.7228   -3.6793 C   0  0  0  0  0  0  0  0  0  0  0  0
   10.8005    8.0539   -4.8515 C   0  0  0  0  0  0  0  0  0  0  0  0
    9.3838    8.0509   -4.8976 C   0  0  0  0  0  0  0  0  0  0  0  0
    8.6366    7.7178   -3.7875 C   0  0  0  0  0  0  0  0  0  0  0  0
    9.2670    7.3628   -2.5565 C   0  0  0  0  0  0  0  0  0  0  0  0
    8.5372    6.9825   -1.3827 C   0  0  0  0  0  0  0  0  0  0  0  0
    7.0375    6.9437   -1.4150 C   0  0  0  0  0  0  0  0  0  0  0  0
    6.3366    7.8383   -1.8326 O   0  0  0  0  0  0  0  0  0  0  0  0
    6.5523    5.7734   -0.9658 O   0  0  0  0  0  0  0  0  0  0  0  0
    5.1249    5.6334   -0.8870 C   0  0  0  0  0  0  0  0  0  0  0  0
    4.5708    6.2028    0.4143 C   0  0  0  0  0  0  0  0  0  0  0  0
    3.0601    5.9797    0.5466 C   0  0  0  0  0  0  0  0  0  0  0  0
    2.4515    6.4666    1.8692 C   0  0  0  0  0  0  0  0  0  0  0  0
    2.4989    7.9829    2.0901 C   0  0  0  0  0  0  0  0  0  0  0  0
    1.7944    8.4317    3.3741 C   0  0  0  0  0  0  0  0  0  0  0  0
    1.8290    9.9445    3.6103 C   0  0  0  0  0  0  0  0  0  0  0  0
    1.0928   10.3876    4.8782 C   0  0  0  0  0  0  0  0  0  0  0  0
    1.1164   11.8998    5.1193 C   0  0  0  0  0  0  0  0  0  0  0  0
    0.3566   12.3369    6.3753 C   0  0  0  0  0  0  0  0  0  0  0  0
    0.3681   13.8490    6.6182 C   0  0  0  0  0  0  0  0  0  0  0  0
   -0.4063   14.2810    7.8670 C   0  0  0  0  0  0  0  0  0  0  0  0
   -0.4064   15.7932    8.1088 C   0  0  0  0  0  0  0  0  0  0  0  0
   -1.1889   16.2217    9.3545 C   0  0  0  0  0  0  0  0  0  0  0  0
   -1.1905   17.7365    9.5854 C   0  0  0  0  0  0  0  0  0  0  0  0
   -2.0319   18.2301   10.7780 C   0  0  1  0  0  0  0  0  0  0  0  0
   -1.5048   17.7206   12.1264 C   0  0  0  0  0  0  0  0  0  0  0  0
   -2.1247   19.7617   10.7781 C   0  0  0  0  0  0  0  0  0  0  0  0
    8.2936    5.8712    2.8328 H   0  0  0  0  0  0  0  0  0  0  0  0
    9.7260    6.8939    2.5040 H   0  0  0  0  0  0  0  0  0  0  0  0
    9.7247    5.1613    2.0243 H   0  0  0  0  0  0  0  0  0  0  0  0
   11.1736    6.4745    0.7529 H   0  0  0  0  0  0  0  0  0  0  0  0
   12.4467    7.0527   -1.2644 H   0  0  0  0  0  0  0  0  0  0  0  0
   12.5347    7.7224   -3.6239 H   0  0  0  0  0  0  0  0  0  0  0  0
   11.3755    8.3208   -5.7415 H   0  0  0  0  0  0  0  0  0  0  0  0
    8.8743    8.3216   -5.8262 H   0  0  0  0  0  0  0  0  0  0  0  0
    7.5489    7.7450   -3.8377 H   0  0  0  0  0  0  0  0  0  0  0  0
    4.9445    4.5499   -0.9529 H   0  0  0  0  0  0  0  0  0  0  0  0
    4.6625    6.1272   -1.7552 H   0  0  0  0  0  0  0  0  0  0  0  0
    4.8060    7.2783    0.4483 H   0  0  0  0  0  0  0  0  0  0  0  0
    5.1001    5.7314    1.2609 H   0  0  0  0  0  0  0  0  0  0  0  0
    2.8458    4.9009    0.4372 H   0  0  0  0  0  0  0  0  0  0  0  0
    2.5425    6.4762   -0.2951 H   0  0  0  0  0  0  0  0  0  0  0  0
    2.9582    5.9589    2.7113 H   0  0  0  0  0  0  0  0  0  0  0  0
    1.3981    6.1368    1.9125 H   0  0  0  0  0  0  0  0  0  0  0  0
    2.0350    8.4902    1.2234 H   0  0  0  0  0  0  0  0  0  0  0  0
    3.5474    8.3294    2.1131 H   0  0  0  0  0  0  0  0  0  0  0  0
    2.2509    7.9169    4.2402 H   0  0  0  0  0  0  0  0  0  0  0  0
    0.7419    8.0923    3.3481 H   0  0  0  0  0  0  0  0  0  0  0  0
    1.3902   10.4600    2.7357 H   0  0  0  0  0  0  0  0  0  0  0  0
    2.8805   10.2837    3.6592 H   0  0  0  0  0  0  0  0  0  0  0  0
    1.5302    9.8718    5.7536 H   0  0  0  0  0  0  0  0  0  0  0  0
    0.0424   10.0448    4.8258 H   0  0  0  0  0  0  0  0  0  0  0  0
    0.6909   12.4159    4.2383 H   0  0  0  0  0  0  0  0  0  0  0  0
    2.1655   12.2433    5.1877 H   0  0  0  0  0  0  0  0  0  0  0  0
    0.7828   11.8226    7.2570 H   0  0  0  0  0  0  0  0  0  0  0  0
   -0.6908   11.9882    6.3054 H   0  0  0  0  0  0  0  0  0  0  0  0
   -0.0514   14.3633    5.7334 H   0  0  0  0  0  0  0  0  0  0  0  0
    1.4144   14.1988    6.6976 H   0  0  0  0  0  0  0  0  0  0  0  0
    0.0155   13.7697    8.7525 H   0  0  0  0  0  0  0  0  0  0  0  0
   -1.4507   13.9254    7.7878 H   0  0  0  0  0  0  0  0  0  0  0  0
   -0.8245   16.3041    7.2214 H   0  0  0  0  0  0  0  0  0  0  0  0
    0.6372   16.1498    8.1932 H   0  0  0  0  0  0  0  0  0  0  0  0
   -0.7685   15.7040   10.2349 H   0  0  0  0  0  0  0  0  0  0  0  0
   -2.2330   15.8664    9.2672 H   0  0  0  0  0  0  0  0  0  0  0  0
   -1.5620   18.2303    8.6687 H   0  0  0  0  0  0  0  0  0  0  0  0
   -0.1489   18.0894    9.7122 H   0  0  0  0  0  0  0  0  0  0  0  0
   -3.0569   17.8328   10.6456 H   0  0  0  0  0  0  0  0  0  0  0  0
   -0.4726   18.0710   12.3021 H   0  0  0  0  0  0  0  0  0  0  0  0
   -1.4983   16.6211   12.1832 H   0  0  0  0  0  0  0  0  0  0  0  0
   -2.1256   18.0890   12.9594 H   0  0  0  0  0  0  0  0  0  0  0  0
   -1.1269   20.2175   10.9018 H   0  0  0  0  0  0  0  0  0  0  0  0
   -2.7600   20.1272   11.6013 H   0  0  0  0  0  0  0  0  0  0  0  0
   -2.5475   20.1412    9.8335 H   0  0  0  0  0  0  0  0  0  0  0  0
  1  2  1  0
  1 34  1  0
  1 35  1  0
  1 36  1  0
  2  3  1  0
  3  4  2  0
  3 12  1  0
  4  5  1  0
  4 37  1  0
  5  6  2  0
  5 38  1  0
  6  7  1  0
  6 11  1  0
  7  8  2  0
  7 39  1  0
  8  9  1  0
  8 40  1  0
  9 10  2  0
  9 41  1  0
 10 11  1  0
 10 42  1  0
 11 12  2  0
 12 13  1  0
 13 14  2  0
 13 15  1  0
 15 16  1  0
 16 17  1  0
 16 43  1  0
 16 44  1  0
 17 18  1  0
 17 45  1  0
 17 46  1  0
 18 19  1  0
 18 47  1  0
 18 48  1  0
 19 20  1  0
 19 49  1  0
 19 50  1  0
 20 21  1  0
 20 51  1  0
 20 52  1  0
 21 22  1  0
 21 53  1  0
 21 54  1  0
 22 23  1  0
 22 55  1  0
 22 56  1  0
 23 24  1  0
 23 57  1  0
 23 58  1  0
 24 25  1  0
 24 59  1  0
 24 60  1  0
 25 26  1  0
 25 61  1  0
 25 62  1  0
 26 27  1  0
 26 63  1  0
 26 64  1  0
 27 28  1  0
 27 65  1  0
 27 66  1  0
 28 29  1  0
 28 67  1  0
 28 68  1  0
 29 30  1  0
 29 69  1  0
 29 70  1  0
 30 31  1  0
 30 71  1  0
 30 72  1  0
 31 32  1  0
 31 33  1  0
 31 73  1  6
 32 74  1  0
 32 75  1  0
 32 76  1  0
 33 77  1  0
 33 78  1  0
 33 79  1  0
M  END

