
     RDKit          3D

 42 44  0  0  0  0  0  0  0  0999 V2000
    2.5457   -0.1737   -1.4408 C   0  0  0  0  0  0  0  0  0  0  0  0
    2.6086    0.2024    0.0342 C   0  0  2  0  0  0  0  0  0  0  0  0
    1.5979    0.3103    0.4489 H   0  0  0  0  0  0  0  0  0  0  0  0
    3.2722    1.4809    0.1260 O   0  0  0  0  0  0  0  0  0  0  0  0
    3.0848    2.2015    1.2392 C   0  0  0  0  0  0  0  0  0  0  0  0
    2.4047    1.8290    2.1665 O   0  0  0  0  0  0  0  0  0  0  0  0
    3.7987    3.5268    1.2439 C   0  0  0  0  0  0  0  0  0  0  0  0
    3.6305    4.2599    2.4360 C   0  0  0  0  0  0  0  0  0  0  0  0
    4.2131    5.5006    2.6164 C   0  0  0  0  0  0  0  0  0  0  0  0
    4.0454    6.1804    3.7498 F   0  0  0  0  0  0  0  0  0  0  0  0
    4.9923    6.0532    1.5930 C   0  0  0  0  0  0  0  0  0  0  0  0
    5.5530    7.2460    1.7669 F   0  0  0  0  0  0  0  0  0  0  0  0
    5.1774    5.3591    0.4054 C   0  0  0  0  0  0  0  0  0  0  0  0
    4.5870    4.1011    0.2220 C   0  0  0  0  0  0  0  0  0  0  0  0
    4.9018    3.3517   -1.3254 Cl  0  0  0  0  0  0  0  0  0  0  0  0
    3.2231   -0.9266    0.8900 C   0  0  0  0  0  0  0  0  0  0  0  0
    2.4503   -1.7722    1.3130 O   0  0  0  0  0  0  0  0  0  0  0  0
    4.5734   -0.9832    1.1176 N   0  0  0  0  0  0  0  0  0  0  0  0
    5.0907   -2.0814    1.9317 C   0  0  0  0  0  0  0  0  0  0  0  0
    5.7814   -3.1144    1.0406 C   0  0  0  0  0  0  0  0  0  0  0  0
    6.7493   -2.4672    0.0689 C   0  0  0  0  0  0  0  0  0  0  0  0
    7.7419   -3.2269   -0.5715 C   0  0  0  0  0  0  0  0  0  0  0  0
    8.6281   -2.6442   -1.4770 C   0  0  0  0  0  0  0  0  0  0  0  0
    8.5323   -1.2769   -1.7593 C   0  0  0  0  0  0  0  0  0  0  0  0
    7.5502   -0.5117   -1.1313 C   0  0  0  0  0  0  0  0  0  0  0  0
    6.6551   -1.0930   -0.2197 C   0  0  0  0  0  0  0  0  0  0  0  0
    5.6187   -0.2098    0.4601 C   0  0  0  0  0  0  0  0  0  0  0  0
    3.5493   -0.3017   -1.8739 H   0  0  0  0  0  0  0  0  0  0  0  0
    2.0181    0.6070   -2.0086 H   0  0  0  0  0  0  0  0  0  0  0  0
    1.9969   -1.1205   -1.5457 H   0  0  0  0  0  0  0  0  0  0  0  0
    3.0209    3.8264    3.2300 H   0  0  0  0  0  0  0  0  0  0  0  0
    5.7866    5.8056   -0.3807 H   0  0  0  0  0  0  0  0  0  0  0  0
    4.2515   -2.5257    2.4783 H   0  0  0  0  0  0  0  0  0  0  0  0
    5.8077   -1.6621    2.6603 H   0  0  0  0  0  0  0  0  0  0  0  0
    5.0087   -3.6699    0.4792 H   0  0  0  0  0  0  0  0  0  0  0  0
    6.3077   -3.8582    1.6618 H   0  0  0  0  0  0  0  0  0  0  0  0
    7.8177   -4.2957   -0.3492 H   0  0  0  0  0  0  0  0  0  0  0  0
    9.3941   -3.2544   -1.9623 H   0  0  0  0  0  0  0  0  0  0  0  0
    9.2197   -0.8103   -2.4694 H   0  0  0  0  0  0  0  0  0  0  0  0
    7.4689    0.5576   -1.3510 H   0  0  0  0  0  0  0  0  0  0  0  0
    5.1845    0.4803   -0.2687 H   0  0  0  0  0  0  0  0  0  0  0  0
    6.1292    0.4248    1.2127 H   0  0  0  0  0  0  0  0  0  0  0  0
  1  2  1  0
  1 28  1  0
  1 29  1  0
  1 30  1  0
  2  3  1  1
  2  4  1  0
  2 16  1  0
  4  5  1  0
  5  6  2  0
  5  7  1  0
  7  8  2  0
  7 14  1  0
  8  9  1  0
  8 31  1  0
  9 10  1  0
  9 11  2  0
 11 12  1  0
 11 13  1  0
 13 14  2  0
 13 32  1  0
 14 15  1  0
 16 17  2  0
 16 18  1  0
 18 19  1  0
 18 27  1  0
 19 20  1  0
 19 33  1  0
 19 34  1  0
 20 21  1  0
 20 35  1  0
 20 36  1  0
 21 22  2  0
 21 26  1  0
 22 23  1  0
 22 37  1  0
 23 24  2  0
 23 38  1  0
 24 25  1  0
 24 39  1  0
 25 26  2  0
 25 40  1  0
 26 27  1  0
 27 41  1  0
 27 42  1  0
M  END

