
     RDKit          3D

 86 89  0  0  0  0  0  0  0  0999 V2000
   -0.3554   -5.6731   -5.7635 C   0  0  0  0  0  0  0  0  0  0  0  0
    0.9875   -5.5445   -5.0430 C   0  0  0  0  0  0  0  0  0  0  0  0
    1.8787   -4.4302   -5.6005 C   0  0  0  0  0  0  0  0  0  0  0  0
    3.2238   -4.2928   -4.8807 C   0  0  0  0  0  0  0  0  0  0  0  0
    4.1109   -3.1779   -5.4464 C   0  0  0  0  0  0  0  0  0  0  0  0
    5.4405   -2.9659   -4.7077 C   0  0  0  0  0  0  0  0  0  0  0  0
    6.4295   -4.1311   -4.8132 C   0  0  0  0  0  0  0  0  0  0  0  0
    7.7792   -3.8498   -4.1234 C   0  0  0  0  0  0  0  0  0  0  0  0
    8.7620   -4.9919   -4.2953 C   0  0  0  0  0  0  0  0  0  0  0  0
    9.6276   -4.9595   -5.4004 C   0  0  0  0  0  0  0  0  0  0  0  0
   10.4750   -6.0218   -5.7395 C   0  0  0  0  0  0  0  0  0  0  0  0
   11.3652   -5.9523   -6.9617 C   0  0  0  0  0  0  0  0  0  0  0  0
   10.7117   -6.5380   -8.2234 C   0  0  0  0  0  0  0  0  0  0  0  0
   10.4347   -7.1705   -4.9346 C   0  0  0  0  0  0  0  0  0  0  0  0
    9.5971   -7.2271   -3.8249 C   0  0  0  0  0  0  0  0  0  0  0  0
    8.7674   -6.1451   -3.4739 C   0  0  0  0  0  0  0  0  0  0  0  0
    7.9487   -6.3119   -2.2532 C   0  0  0  0  0  0  0  0  0  0  0  0
    7.2937   -7.4131   -1.9255 N   0  0  0  0  0  0  0  0  0  0  0  0
    6.7940   -7.2026   -0.6724 C   0  0  0  0  0  0  0  0  0  0  0  0
    7.1434   -5.9480   -0.1976 C   0  0  0  0  0  0  0  0  0  0  0  0
    6.9444   -5.3312    1.1239 C   0  0  0  0  0  0  0  0  0  0  0  0
    7.1694   -6.1200    2.2466 C   0  0  0  0  0  0  0  0  0  0  0  0
    7.0316   -5.6064    3.5537 C   0  0  0  0  0  0  0  0  0  0  0  0
    6.6933   -4.2858    3.7514 C   0  0  0  0  0  0  0  0  0  0  0  0
    6.4356   -3.4374    2.6414 C   0  0  0  0  0  0  0  0  0  0  0  0
    6.0598   -2.0670    2.7851 C   0  0  0  0  0  0  0  0  0  0  0  0
    5.9655   -1.3526    4.3851 Cl  0  0  0  0  0  0  0  0  0  0  0  0
    5.7577   -1.2720    1.7011 C   0  0  0  0  0  0  0  0  0  0  0  0
    5.7944   -1.7993    0.3841 C   0  0  0  0  0  0  0  0  0  0  0  0
    5.3767   -0.9452   -0.7947 C   0  0  0  0  0  0  0  0  0  0  0  0
    3.8988   -1.1176   -1.2127 C   0  0  0  0  0  0  0  0  0  0  0  0
    2.8476   -0.6642   -0.1876 C   0  0  0  0  0  0  0  0  0  0  0  0
    2.8114    0.8388    0.1319 C   0  0  0  0  0  0  0  0  0  0  0  0
    2.4210    1.7430   -1.0426 C   0  0  0  0  0  0  0  0  0  0  0  0
    2.3123    3.2248   -0.6678 C   0  0  0  0  0  0  0  0  0  0  0  0
    1.9170    4.1253   -1.8390 C   0  0  0  0  0  0  0  0  0  0  0  0
    6.1825   -3.1177    0.2098 C   0  0  0  0  0  0  0  0  0  0  0  0
    6.5298   -3.9602    1.3021 C   0  0  0  0  0  0  0  0  0  0  0  0
    7.8691   -5.3881   -1.2379 N   0  0  0  0  0  0  0  0  0  0  0  0
    8.3897   -4.5211   -1.1861 H   0  0  0  0  0  0  0  0  0  0  0  0
   -0.9684   -6.4834   -5.3375 H   0  0  0  0  0  0  0  0  0  0  0  0
   -0.2160   -5.8905   -6.8360 H   0  0  0  0  0  0  0  0  0  0  0  0
   -0.9403   -4.7406   -5.6913 H   0  0  0  0  0  0  0  0  0  0  0  0
    1.5307   -6.5053   -5.0998 H   0  0  0  0  0  0  0  0  0  0  0  0
    0.8126   -5.3645   -3.9665 H   0  0  0  0  0  0  0  0  0  0  0  0
    1.3350   -3.4680   -5.5478 H   0  0  0  0  0  0  0  0  0  0  0  0
    2.0583   -4.6119   -6.6769 H   0  0  0  0  0  0  0  0  0  0  0  0
    3.7558   -5.2593   -4.9288 H   0  0  0  0  0  0  0  0  0  0  0  0
    3.0438   -4.1028   -3.8057 H   0  0  0  0  0  0  0  0  0  0  0  0
    3.5430   -2.2302   -5.4287 H   0  0  0  0  0  0  0  0  0  0  0  0
    4.3175   -3.3819   -6.5138 H   0  0  0  0  0  0  0  0  0  0  0  0
    5.2325   -2.7570   -3.6418 H   0  0  0  0  0  0  0  0  0  0  0  0
    5.9241   -2.0540   -5.1028 H   0  0  0  0  0  0  0  0  0  0  0  0
    6.6158   -4.3598   -5.8777 H   0  0  0  0  0  0  0  0  0  0  0  0
    5.9955   -5.0474   -4.3789 H   0  0  0  0  0  0  0  0  0  0  0  0
    7.5899   -3.6292   -3.0626 H   0  0  0  0  0  0  0  0  0  0  0  0
    8.2171   -2.9323   -4.5518 H   0  0  0  0  0  0  0  0  0  0  0  0
    9.6294   -4.0637   -6.0305 H   0  0  0  0  0  0  0  0  0  0  0  0
   12.3055   -6.4920   -6.7574 H   0  0  0  0  0  0  0  0  0  0  0  0
   11.6451   -4.9024   -7.1508 H   0  0  0  0  0  0  0  0  0  0  0  0
   10.4455   -7.5972   -8.0781 H   0  0  0  0  0  0  0  0  0  0  0  0
   11.3927   -6.4745   -9.0876 H   0  0  0  0  0  0  0  0  0  0  0  0
    9.7865   -5.9972   -8.4795 H   0  0  0  0  0  0  0  0  0  0  0  0
   11.0770   -8.0240   -5.1707 H   0  0  0  0  0  0  0  0  0  0  0  0
    9.5748   -8.1183   -3.1948 H   0  0  0  0  0  0  0  0  0  0  0  0
    6.1847   -7.9478   -0.1617 H   0  0  0  0  0  0  0  0  0  0  0  0
    7.4922   -7.1537    2.1064 H   0  0  0  0  0  0  0  0  0  0  0  0
    7.2220   -6.2573    4.4104 H   0  0  0  0  0  0  0  0  0  0  0  0
    6.6136   -3.8745    4.7578 H   0  0  0  0  0  0  0  0  0  0  0  0
    5.4776   -0.2304    1.8673 H   0  0  0  0  0  0  0  0  0  0  0  0
    6.0066   -1.2022   -1.6620 H   0  0  0  0  0  0  0  0  0  0  0  0
    5.5818    0.1148   -0.5715 H   0  0  0  0  0  0  0  0  0  0  0  0
    3.7273   -2.1837   -1.4412 H   0  0  0  0  0  0  0  0  0  0  0  0
    3.7480   -0.5807   -2.1652 H   0  0  0  0  0  0  0  0  0  0  0  0
    2.9931   -1.2262    0.7511 H   0  0  0  0  0  0  0  0  0  0  0  0
    1.8530   -0.9662   -0.5620 H   0  0  0  0  0  0  0  0  0  0  0  0
    3.7875    1.1680    0.5328 H   0  0  0  0  0  0  0  0  0  0  0  0
    2.0915    0.9982    0.9545 H   0  0  0  0  0  0  0  0  0  0  0  0
    1.4542    1.4004   -1.4575 H   0  0  0  0  0  0  0  0  0  0  0  0
    3.1526    1.6365   -1.8641 H   0  0  0  0  0  0  0  0  0  0  0  0
    3.2777    3.5648   -0.2501 H   0  0  0  0  0  0  0  0  0  0  0  0
    1.5775    3.3388    0.1500 H   0  0  0  0  0  0  0  0  0  0  0  0
    2.6527    4.0644   -2.6587 H   0  0  0  0  0  0  0  0  0  0  0  0
    1.8476    5.1815   -1.5332 H   0  0  0  0  0  0  0  0  0  0  0  0
    0.9376    3.8347   -2.2549 H   0  0  0  0  0  0  0  0  0  0  0  0
    6.1965   -3.5328   -0.7992 H   0  0  0  0  0  0  0  0  0  0  0  0
  1  2  1  0
  1 41  1  0
  1 42  1  0
  1 43  1  0
  2  3  1  0
  2 44  1  0
  2 45  1  0
  3  4  1  0
  3 46  1  0
  3 47  1  0
  4  5  1  0
  4 48  1  0
  4 49  1  0
  5  6  1  0
  5 50  1  0
  5 51  1  0
  6  7  1  0
  6 52  1  0
  6 53  1  0
  7  8  1  0
  7 54  1  0
  7 55  1  0
  8  9  1  0
  8 56  1  0
  8 57  1  0
  9 10  2  0
  9 16  1  0
 10 11  1  0
 10 58  1  0
 11 12  1  0
 11 14  2  0
 12 13  1  0
 12 59  1  0
 12 60  1  0
 13 61  1  0
 13 62  1  0
 13 63  1  0
 14 15  1  0
 14 64  1  0
 15 16  2  0
 15 65  1  0
 16 17  1  0
 17 18  2  0
 17 39  1  0
 18 19  1  0
 19 20  2  0
 19 66  1  0
 20 21  1  0
 20 39  1  0
 21 22  2  0
 21 38  1  0
 22 23  1  0
 22 67  1  0
 23 24  2  0
 23 68  1  0
 24 25  1  0
 24 69  1  0
 25 26  1  0
 25 38  2  0
 26 27  1  0
 26 28  2  0
 28 29  1  0
 28 70  1  0
 29 30  1  0
 29 37  2  0
 30 31  1  0
 30 71  1  0
 30 72  1  0
 31 32  1  0
 31 73  1  0
 31 74  1  0
 32 33  1  0
 32 75  1  0
 32 76  1  0
 33 34  1  0
 33 77  1  0
 33 78  1  0
 34 35  1  0
 34 79  1  0
 34 80  1  0
 35 36  1  0
 35 81  1  0
 35 82  1  0
 36 83  1  0
 36 84  1  0
 36 85  1  0
 37 38  1  0
 37 86  1  0
 39 40  1  0
M  END

