
     RDKit          3D

 51 54  0  0  0  0  0  0  0  0999 V2000
    7.8868   -6.3905    6.7485 C   0  0  0  0  0  0  0  0  0  0  0  0
    6.4145   -6.0687    6.6640 C   0  0  0  0  0  0  0  0  0  0  0  0
    5.4400   -7.0762    6.7405 C   0  0  0  0  0  0  0  0  0  0  0  0
    4.0796   -6.7636    6.6842 C   0  0  0  0  0  0  0  0  0  0  0  0
    3.6596   -5.4396    6.5500 C   0  0  0  0  0  0  0  0  0  0  0  0
    4.6278   -4.4329    6.4536 C   0  0  0  0  0  0  0  0  0  0  0  0
    4.2407   -3.0691    6.3061 N   0  0  0  0  0  0  0  0  0  0  0  0
    4.9550   -2.0720    6.9018 N   0  0  0  0  0  0  0  0  0  0  0  0
    4.4015   -0.9680    6.5715 N   0  0  0  0  0  0  0  0  0  0  0  0
    3.3320   -1.1693    5.7690 N   0  0  0  0  0  0  0  0  0  0  0  0
    3.2327   -2.4789    5.6019 C   0  0  0  0  0  0  0  0  0  0  0  0
    2.0559   -3.3237    4.6115 S   0  0  0  0  0  0  0  0  0  0  0  0
    1.2112   -1.8320    3.9616 C   0  0  0  0  0  0  0  0  0  0  0  0
    0.0634   -2.3324    3.0760 C   0  0  0  0  0  0  0  0  0  0  0  0
   -0.0350   -3.5339    2.8712 O   0  0  0  0  0  0  0  0  0  0  0  0
   -0.7955   -1.3798    2.5941 N   0  0  0  0  0  0  0  0  0  0  0  0
   -0.4411    0.0434    2.5809 C   0  0  0  0  0  0  0  0  0  0  0  0
    0.0656    0.4498    1.1919 C   0  0  0  0  0  0  0  0  0  0  0  0
   -0.9741    0.1102    0.1184 C   0  0  0  0  0  0  0  0  0  0  0  0
   -1.4982   -1.3349    0.2124 C   0  0  2  0  0  0  0  0  0  0  0  0
   -2.6636   -1.5602   -0.7666 C   0  0  0  0  0  0  0  0  0  0  0  0
   -3.3264   -2.9320   -0.6111 C   0  0  0  0  0  0  0  0  0  0  0  0
   -3.7700   -3.1620    0.8376 C   0  0  0  0  0  0  0  0  0  0  0  0
   -2.5789   -3.0465    1.7960 C   0  0  0  0  0  0  0  0  0  0  0  0
   -1.9197   -1.6661    1.6669 C   0  0  1  0  0  0  0  0  0  0  0  0
    5.9913   -4.7408    6.5123 C   0  0  0  0  0  0  0  0  0  0  0  0
    8.0679   -7.4732    6.6830 H   0  0  0  0  0  0  0  0  0  0  0  0
    8.3143   -6.0366    7.7021 H   0  0  0  0  0  0  0  0  0  0  0  0
    8.4528   -5.8998    5.9406 H   0  0  0  0  0  0  0  0  0  0  0  0
    5.7515   -8.1186    6.8481 H   0  0  0  0  0  0  0  0  0  0  0  0
    3.3335   -7.5587    6.7540 H   0  0  0  0  0  0  0  0  0  0  0  0
    2.5969   -5.1944    6.5310 H   0  0  0  0  0  0  0  0  0  0  0  0
    1.9401   -1.2285    3.4017 H   0  0  0  0  0  0  0  0  0  0  0  0
    0.8650   -1.2177    4.8040 H   0  0  0  0  0  0  0  0  0  0  0  0
    0.3003    0.2670    3.3561 H   0  0  0  0  0  0  0  0  0  0  0  0
   -1.3453    0.6243    2.8355 H   0  0  0  0  0  0  0  0  0  0  0  0
    1.0119   -0.0826    0.9896 H   0  0  0  0  0  0  0  0  0  0  0  0
    0.2975    1.5280    1.1789 H   0  0  0  0  0  0  0  0  0  0  0  0
   -0.5637    0.2958   -0.8884 H   0  0  0  0  0  0  0  0  0  0  0  0
   -1.8341    0.7969    0.2305 H   0  0  0  0  0  0  0  0  0  0  0  0
   -0.6792   -2.0323   -0.0477 H   0  0  0  0  0  0  0  0  0  0  0  0
   -2.3043   -1.4141   -1.7996 H   0  0  0  0  0  0  0  0  0  0  0  0
   -3.4240   -0.7751   -0.5943 H   0  0  0  0  0  0  0  0  0  0  0  0
   -2.6123   -3.7240   -0.9008 H   0  0  0  0  0  0  0  0  0  0  0  0
   -4.1838   -3.0167   -1.2997 H   0  0  0  0  0  0  0  0  0  0  0  0
   -4.2325   -4.1567    0.9462 H   0  0  0  0  0  0  0  0  0  0  0  0
   -4.5514   -2.4255    1.1041 H   0  0  0  0  0  0  0  0  0  0  0  0
   -1.8489   -3.8337    1.5734 H   0  0  0  0  0  0  0  0  0  0  0  0
   -2.8959   -3.2050    2.8394 H   0  0  0  0  0  0  0  0  0  0  0  0
   -2.6944   -0.9244    1.9451 H   0  0  0  0  0  0  0  0  0  0  0  0
    6.7178   -3.9295    6.4440 H   0  0  0  0  0  0  0  0  0  0  0  0
  1  2  1  0
  1 27  1  0
  1 28  1  0
  1 29  1  0
  2  3  2  0
  2 26  1  0
  3  4  1  0
  3 30  1  0
  4  5  2  0
  4 31  1  0
  5  6  1  0
  5 32  1  0
  6  7  1  0
  6 26  2  0
  7  8  1  0
  7 11  1  0
  8  9  2  0
  9 10  1  0
 10 11  2  0
 11 12  1  0
 12 13  1  0
 13 14  1  0
 13 33  1  0
 13 34  1  0
 14 15  2  0
 14 16  1  0
 16 17  1  0
 16 25  1  0
 17 18  1  0
 17 35  1  0
 17 36  1  0
 18 19  1  0
 18 37  1  0
 18 38  1  0
 19 20  1  0
 19 39  1  0
 19 40  1  0
 20 21  1  0
 20 25  1  0
 20 41  1  6
 21 22  1  0
 21 42  1  0
 21 43  1  0
 22 23  1  0
 22 44  1  0
 22 45  1  0
 23 24  1  0
 23 46  1  0
 23 47  1  0
 24 25  1  0
 24 48  1  0
 24 49  1  0
 25 50  1  1
 26 51  1  0
M  END

