
     RDKit          3D

 56 59  0  0  0  0  0  0  0  0999 V2000
    5.2902    2.9850   -0.1692 C   0  0  0  0  0  0  0  0  0  0  0  0
    4.4243    2.8731    1.0859 C   0  0  2  0  0  0  0  0  0  0  0  0
    3.3262    3.9333    1.1205 C   0  0  0  0  0  0  0  0  0  0  0  0
    5.2628    2.8049    2.3959 C   0  0  0  0  0  0  0  0  0  0  0  0
    5.0539    1.4053    2.8634 C   0  0  0  0  0  0  0  0  0  0  0  0
    5.5781    0.7005    3.9864 C   0  0  0  0  0  0  0  0  0  0  0  0
    5.1333   -0.6423    4.1423 C   0  0  0  0  0  0  0  0  0  0  0  0
    5.5718   -1.4580    5.1802 N   0  0  0  0  0  0  0  0  0  0  0  0
    6.4552   -1.1825    6.2299 C   0  0  0  0  0  0  0  0  0  0  0  0
    6.9835   -0.1034    6.4243 O   0  0  0  0  0  0  0  0  0  0  0  0
    6.6695   -2.2784    7.0395 N   0  0  0  0  0  0  0  0  0  0  0  0
    7.5494   -2.2126    8.1899 C   0  0  0  0  0  0  0  0  0  0  0  0
    6.8214   -2.0839    9.5569 C   0  0  1  0  0  0  0  0  0  0  0  0
    5.9362   -3.2346    9.8553 N   0  0  0  0  0  0  0  0  0  0  0  0
    6.4947   -4.5582    9.6266 C   0  0  0  0  0  0  0  0  0  0  0  0
    5.6874   -5.6179   10.3752 C   0  0  0  0  0  0  0  0  0  0  0  0
    4.3275   -5.5762   10.0069 O   0  0  0  0  0  0  0  0  0  0  0  0
    3.7742   -4.3013   10.2639 C   0  0  0  0  0  0  0  0  0  0  0  0
    4.5186   -3.1927    9.5211 C   0  0  0  0  0  0  0  0  0  0  0  0
    7.8586   -1.9567   10.7038 C   0  0  0  0  0  0  0  0  0  0  0  0
    7.0995   -1.5444   11.9669 C   0  0  0  0  0  0  0  0  0  0  0  0
    5.7601   -0.3925   11.4166 S   0  0  0  0  0  0  0  0  0  0  0  0
    6.0750   -0.7377    9.6357 C   0  0  0  0  0  0  0  0  0  0  0  0
    4.2073   -1.2691    3.2483 C   0  0  0  0  0  0  0  0  0  0  0  0
    3.6771   -0.5565    2.1344 C   0  0  0  0  0  0  0  0  0  0  0  0
    4.1369    0.7678    1.9933 C   0  0  0  0  0  0  0  0  0  0  0  0
    3.7395    1.5709    0.9957 O   0  0  0  0  0  0  0  0  0  0  0  0
    5.8035    3.9589   -0.1909 H   0  0  0  0  0  0  0  0  0  0  0  0
    4.6741    2.8924   -1.0766 H   0  0  0  0  0  0  0  0  0  0  0  0
    6.0516    2.1903   -0.1806 H   0  0  0  0  0  0  0  0  0  0  0  0
    3.7726    4.9389    1.1659 H   0  0  0  0  0  0  0  0  0  0  0  0
    2.6872    3.7978    2.0062 H   0  0  0  0  0  0  0  0  0  0  0  0
    2.6947    3.8712    0.2210 H   0  0  0  0  0  0  0  0  0  0  0  0
    4.9177    3.5670    3.1291 H   0  0  0  0  0  0  0  0  0  0  0  0
    6.3280    3.0498    2.2002 H   0  0  0  0  0  0  0  0  0  0  0  0
    6.2751    1.1384    4.6926 H   0  0  0  0  0  0  0  0  0  0  0  0
    5.1763   -2.3924    5.1605 H   0  0  0  0  0  0  0  0  0  0  0  0
    6.2237   -3.1633    6.8314 H   0  0  0  0  0  0  0  0  0  0  0  0
    8.2051   -1.3434    8.0438 H   0  0  0  0  0  0  0  0  0  0  0  0
    8.1908   -3.1076    8.1965 H   0  0  0  0  0  0  0  0  0  0  0  0
    7.5395   -4.6005    9.9711 H   0  0  0  0  0  0  0  0  0  0  0  0
    6.4978   -4.8421    8.5463 H   0  0  0  0  0  0  0  0  0  0  0  0
    5.7984   -5.4552   11.4673 H   0  0  0  0  0  0  0  0  0  0  0  0
    6.0595   -6.6255   10.1327 H   0  0  0  0  0  0  0  0  0  0  0  0
    3.8018   -4.0834   11.3509 H   0  0  0  0  0  0  0  0  0  0  0  0
    2.7223   -4.3355    9.9415 H   0  0  0  0  0  0  0  0  0  0  0  0
    4.0836   -2.2369    9.8398 H   0  0  0  0  0  0  0  0  0  0  0  0
    4.3301   -3.3097    8.4289 H   0  0  0  0  0  0  0  0  0  0  0  0
    8.5951   -1.1828   10.4330 H   0  0  0  0  0  0  0  0  0  0  0  0
    8.4181   -2.8919   10.8654 H   0  0  0  0  0  0  0  0  0  0  0  0
    7.7475   -1.0333   12.6936 H   0  0  0  0  0  0  0  0  0  0  0  0
    6.6363   -2.4147   12.4517 H   0  0  0  0  0  0  0  0  0  0  0  0
    6.7097    0.0478    9.2040 H   0  0  0  0  0  0  0  0  0  0  0  0
    5.1280   -0.7194    9.0824 H   0  0  0  0  0  0  0  0  0  0  0  0
    3.9106   -2.3055    3.4298 H   0  0  0  0  0  0  0  0  0  0  0  0
    2.9791   -0.9970    1.4245 H   0  0  0  0  0  0  0  0  0  0  0  0
  2  1  1  6
  1 28  1  0
  1 29  1  0
  1 30  1  0
  2  3  1  0
  2  4  1  0
  2 27  1  0
  3 31  1  0
  3 32  1  0
  3 33  1  0
  4  5  1  0
  4 34  1  0
  4 35  1  0
  5  6  2  0
  5 26  1  0
  6  7  1  0
  6 36  1  0
  7  8  1  0
  7 24  2  0
  8  9  1  0
  8 37  1  0
  9 10  2  0
  9 11  1  0
 11 12  1  0
 11 38  1  0
 13 12  1  6
 12 39  1  0
 12 40  1  0
 13 14  1  0
 13 20  1  0
 13 23  1  0
 14 15  1  0
 14 19  1  0
 15 16  1  0
 15 41  1  0
 15 42  1  0
 16 17  1  0
 16 43  1  0
 16 44  1  0
 17 18  1  0
 18 19  1  0
 18 45  1  0
 18 46  1  0
 19 47  1  0
 19 48  1  0
 20 21  1  0
 20 49  1  0
 20 50  1  0
 21 22  1  0
 21 51  1  0
 21 52  1  0
 22 23  1  0
 23 53  1  0
 23 54  1  0
 24 25  1  0
 24 55  1  0
 25 26  2  0
 25 56  1  0
 26 27  1  0
M  END

