
     RDKit          3D

 46 49  0  0  0  0  0  0  0  0999 V2000
    1.9738    1.1751   -0.7903 C   0  0  0  0  0  0  0  0  0  0  0  0
    1.7384   -0.1833   -0.4971 O   0  0  0  0  0  0  0  0  0  0  0  0
    2.4574   -1.1353   -1.1464 C   0  0  0  0  0  0  0  0  0  0  0  0
    3.4653   -0.8712   -2.0754 C   0  0  0  0  0  0  0  0  0  0  0  0
    4.1667   -1.9291   -2.7094 C   0  0  0  0  0  0  0  0  0  0  0  0
    5.1914   -1.5251   -3.6618 C   0  0  0  0  0  0  0  0  0  0  0  0
    6.1464   -2.1689   -4.4028 C   0  0  0  0  0  0  0  0  0  0  0  0
    6.5392   -3.6143   -4.3710 C   0  0  0  0  0  0  0  0  0  0  0  0
    5.9663   -4.5788   -3.9299 O   0  0  0  0  0  0  0  0  0  0  0  0
    7.7568   -3.7476   -4.9596 O   0  0  0  0  0  0  0  0  0  0  0  0
    8.2711   -2.4951   -5.4063 C   0  0  0  0  0  0  0  0  0  0  0  0
    7.1249   -1.5068   -5.2774 C   0  0  0  0  0  0  0  0  0  0  0  0
    7.1717   -0.3108   -5.9160 C   0  0  0  0  0  0  0  0  0  0  0  0
    6.1804    0.7629   -6.0888 C   0  0  0  0  0  0  0  0  0  0  0  0
    6.6491    2.0797   -6.2675 C   0  0  0  0  0  0  0  0  0  0  0  0
    5.7872    3.1681   -6.4934 C   0  0  0  0  0  0  0  0  0  0  0  0
    4.4340    2.8908   -6.5586 C   0  0  0  0  0  0  0  0  0  0  0  0
    3.9502    1.5857   -6.4083 C   0  0  0  0  0  0  0  0  0  0  0  0
    4.7827    0.5111   -6.1751 C   0  0  0  0  0  0  0  0  0  0  0  0
    2.5867    1.5992   -6.5160 O   0  0  0  0  0  0  0  0  0  0  0  0
    2.2307    2.9206   -6.9086 C   0  0  0  0  0  0  0  0  0  0  0  0
    3.3859    3.7429   -6.7563 O   0  0  0  0  0  0  0  0  0  0  0  0
    3.8189   -3.2563   -2.3929 C   0  0  0  0  0  0  0  0  0  0  0  0
    2.8135   -3.5212   -1.4603 C   0  0  0  0  0  0  0  0  0  0  0  0
    2.4584   -4.7837   -1.1199 O   0  0  0  0  0  0  0  0  0  0  0  0
    2.1126   -2.4713   -0.8334 C   0  0  0  0  0  0  0  0  0  0  0  0
    1.0951   -2.7611    0.0164 O   0  0  0  0  0  0  0  0  0  0  0  0
    1.3436   -2.5748    1.4028 C   0  0  0  0  0  0  0  0  0  0  0  0
    1.2723    1.7538   -0.1744 H   0  0  0  0  0  0  0  0  0  0  0  0
    1.7870    1.4022   -1.8553 H   0  0  0  0  0  0  0  0  0  0  0  0
    3.0059    1.4797   -0.5384 H   0  0  0  0  0  0  0  0  0  0  0  0
    3.7266    0.1564   -2.3253 H   0  0  0  0  0  0  0  0  0  0  0  0
    5.2097   -0.4402   -3.7961 H   0  0  0  0  0  0  0  0  0  0  0  0
    8.6273   -2.6113   -6.4414 H   0  0  0  0  0  0  0  0  0  0  0  0
    9.1338   -2.2206   -4.7713 H   0  0  0  0  0  0  0  0  0  0  0  0
    8.1232   -0.1002   -6.4216 H   0  0  0  0  0  0  0  0  0  0  0  0
    7.7256    2.2633   -6.2278 H   0  0  0  0  0  0  0  0  0  0  0  0
    6.1652    4.1835   -6.6201 H   0  0  0  0  0  0  0  0  0  0  0  0
    4.3759   -0.4957   -6.0874 H   0  0  0  0  0  0  0  0  0  0  0  0
    1.4201    3.2961   -6.2632 H   0  0  0  0  0  0  0  0  0  0  0  0
    1.9096    2.9230   -7.9691 H   0  0  0  0  0  0  0  0  0  0  0  0
    4.3483   -4.0802   -2.8711 H   0  0  0  0  0  0  0  0  0  0  0  0
    3.0036   -5.4049   -1.6216 H   0  0  0  0  0  0  0  0  0  0  0  0
    0.4308   -2.8832    1.9313 H   0  0  0  0  0  0  0  0  0  0  0  0
    1.5579   -1.5191    1.6376 H   0  0  0  0  0  0  0  0  0  0  0  0
    2.1842   -3.2045    1.7443 H   0  0  0  0  0  0  0  0  0  0  0  0
  1  2  1  0
  1 29  1  0
  1 30  1  0
  1 31  1  0
  2  3  1  0
  3  4  2  0
  3 26  1  0
  4  5  1  0
  4 32  1  0
  5  6  1  0
  5 23  2  0
  6  7  2  0
  6 33  1  0
  7  8  1  0
  7 12  1  0
  8  9  2  0
  8 10  1  0
 10 11  1  0
 11 12  1  0
 11 34  1  0
 11 35  1  0
 12 13  2  0
 13 14  1  0
 13 36  1  0
 14 15  2  0
 14 19  1  0
 15 16  1  0
 15 37  1  0
 16 17  2  0
 16 38  1  0
 17 18  1  0
 17 22  1  0
 18 19  2  0
 18 20  1  0
 19 39  1  0
 20 21  1  0
 21 22  1  0
 21 40  1  0
 21 41  1  0
 23 24  1  0
 23 42  1  0
 24 25  1  0
 24 26  2  0
 25 43  1  0
 26 27  1  0
 27 28  1  0
 28 44  1  0
 28 45  1  0
 28 46  1  0
M  END

