
     RDKit          3D

 53 55  0  0  0  0  0  0  0  0999 V2000
    0.8032   -0.4971    1.0332 C   0  0  0  0  0  0  0  0  0  0  0  0
    1.8967    0.1898    0.2108 C   0  0  1  0  0  0  0  0  0  0  0  0
    1.3613    1.1947   -0.6262 O   0  0  0  0  0  0  0  0  0  0  0  0
    3.0085    0.7540    1.1020 C   0  0  2  0  0  0  0  0  0  0  0  0
    4.2706    1.3231    0.4007 C   0  0  0  0  0  0  0  0  0  0  0  0
    4.4962    2.0735   -0.5028 O   0  0  0  0  0  0  0  0  0  0  0  0
    5.1222    0.5670    1.2338 N   0  0  0  0  0  0  0  0  0  0  0  0
    6.1864   -0.3022    0.9221 C   0  0  0  0  0  0  0  0  0  0  0  0
    7.5105   -0.0037    0.5374 C   0  0  0  0  0  0  0  0  0  0  0  0
    8.3316   -0.9139    0.2479 O   0  0  0  0  0  0  0  0  0  0  0  0
    7.8609    1.3148    0.5178 O   0  0  0  0  0  0  0  0  0  0  0  0
    9.1746    1.6305    0.1442 C   0  0  0  0  0  0  0  0  0  0  0  0
   10.0597    1.5090    1.2500 O   0  0  0  0  0  0  0  0  0  0  0  0
   10.2767    2.6077    2.0240 C   0  0  0  0  0  0  0  0  0  0  0  0
    9.8125    3.6907    1.7788 O   0  0  0  0  0  0  0  0  0  0  0  0
   11.1885    2.2757    3.2114 C   0  0  1  0  0  0  0  0  0  0  0  0
   12.5439    1.7703    2.6707 C   0  0  0  0  0  0  0  0  0  0  0  0
   11.3885    3.5458    4.0497 C   0  0  0  0  0  0  0  0  0  0  0  0
   10.5199    1.1717    4.0587 C   0  0  0  0  0  0  0  0  0  0  0  0
    5.7338   -1.6279    1.1136 C   0  0  0  0  0  0  0  0  0  0  0  0
    6.7754   -2.9353    0.6454 S   0  0  0  0  0  0  0  0  0  0  0  0
    7.6823   -3.4022    2.1588 C   0  0  1  0  0  0  0  0  0  0  0  0
    6.8694   -4.1094    3.2774 C   0  0  0  0  0  0  0  0  0  0  0  0
    7.9474   -5.1048    3.3720 N   0  0  0  0  0  0  0  0  0  0  0  0
    8.5207   -4.6979    2.0776 C   0  0  0  0  0  0  0  0  0  0  0  0
    4.2503   -1.6755    1.4308 C   0  0  0  0  0  0  0  0  0  0  0  0
    4.0061   -0.1909    1.8448 C   0  0  2  0  0  0  0  0  0  0  0  0
    3.9852   -0.1013    2.9431 H   0  0  0  0  0  0  0  0  0  0  0  0
    0.0125   -0.8702    0.3651 H   0  0  0  0  0  0  0  0  0  0  0  0
    0.3446    0.2157    1.7399 H   0  0  0  0  0  0  0  0  0  0  0  0
    1.1964   -1.3454    1.6168 H   0  0  0  0  0  0  0  0  0  0  0  0
    2.3327   -0.5466   -0.4853 H   0  0  0  0  0  0  0  0  0  0  0  0
    1.1409    1.9655   -0.0853 H   0  0  0  0  0  0  0  0  0  0  0  0
    2.5630    1.4913    1.7954 H   0  0  0  0  0  0  0  0  0  0  0  0
    9.1523    2.6702   -0.2013 H   0  0  0  0  0  0  0  0  0  0  0  0
    9.5464    0.9285   -0.6114 H   0  0  0  0  0  0  0  0  0  0  0  0
   13.0362    2.5365    2.0504 H   0  0  0  0  0  0  0  0  0  0  0  0
   12.4175    0.8636    2.0618 H   0  0  0  0  0  0  0  0  0  0  0  0
   13.2169    1.5342    3.5107 H   0  0  0  0  0  0  0  0  0  0  0  0
   11.8483    4.3482    3.4541 H   0  0  0  0  0  0  0  0  0  0  0  0
   12.0429    3.3312    4.9094 H   0  0  0  0  0  0  0  0  0  0  0  0
   10.4293    3.9279    4.4294 H   0  0  0  0  0  0  0  0  0  0  0  0
   10.3651    0.2571    3.4684 H   0  0  0  0  0  0  0  0  0  0  0  0
    9.5422    1.5027    4.4444 H   0  0  0  0  0  0  0  0  0  0  0  0
   11.1580    0.9258    4.9228 H   0  0  0  0  0  0  0  0  0  0  0  0
    8.2326   -2.5113    2.4857 H   0  0  0  0  0  0  0  0  0  0  0  0
    5.8970   -4.5023    2.9174 H   0  0  0  0  0  0  0  0  0  0  0  0
    6.6893   -3.5166    4.1888 H   0  0  0  0  0  0  0  0  0  0  0  0
    7.6622   -6.0788    3.4582 H   0  0  0  0  0  0  0  0  0  0  0  0
    8.2253   -5.3295    1.2152 H   0  0  0  0  0  0  0  0  0  0  0  0
    9.6161   -4.5782    2.0620 H   0  0  0  0  0  0  0  0  0  0  0  0
    3.9839   -2.3579    2.2546 H   0  0  0  0  0  0  0  0  0  0  0  0
    3.6385   -1.9770    0.5577 H   0  0  0  0  0  0  0  0  0  0  0  0
  1  2  1  0
  1 29  1  0
  1 30  1  0
  1 31  1  0
  2  3  1  0
  2  4  1  0
  2 32  1  6
  3 33  1  0
  4  5  1  0
  4 27  1  0
  4 34  1  1
  5  6  2  0
  5  7  1  0
  7  8  1  0
  7 27  1  0
  8  9  1  0
  8 20  2  0
  9 10  2  0
  9 11  1  0
 11 12  1  0
 12 13  1  0
 12 35  1  0
 12 36  1  0
 13 14  1  0
 14 15  2  0
 16 14  1  6
 16 17  1  0
 16 18  1  0
 16 19  1  0
 17 37  1  0
 17 38  1  0
 17 39  1  0
 18 40  1  0
 18 41  1  0
 18 42  1  0
 19 43  1  0
 19 44  1  0
 19 45  1  0
 20 21  1  0
 20 26  1  0
 21 22  1  0
 22 23  1  0
 22 25  1  0
 22 46  1  6
 23 24  1  0
 23 47  1  0
 23 48  1  0
 24 25  1  0
 24 49  1  0
 25 50  1  0
 25 51  1  0
 26 27  1  0
 26 52  1  0
 26 53  1  0
 27 28  1  1
M  END

