
     RDKit          3D

 46 48  0  0  0  0  0  0  0  0999 V2000
    4.8728    1.1589   -1.0610 O   0  0  0  0  0  0  0  0  0  0  0  0
    3.9177    0.6949   -0.4566 C   0  0  0  0  0  0  0  0  0  0  0  0
    2.9896    1.4771    0.1704 N   0  0  0  0  0  0  0  0  0  0  0  0
    3.0635    2.9311    0.1558 C   0  0  2  0  0  0  0  0  0  0  0  0
    2.4351    3.5243    1.4210 C   0  0  0  0  0  0  0  0  0  0  0  0
    2.4961    5.0543    1.3917 C   0  0  0  0  0  0  0  0  0  0  0  0
    1.9061    5.5975    0.1739 N   0  0  0  0  0  0  0  0  0  0  0  0
    0.8657    6.5073    0.2921 C   0  0  0  0  0  0  0  0  0  0  0  0
    0.3217    6.7387    1.3634 O   0  0  0  0  0  0  0  0  0  0  0  0
    0.4624    7.1284   -0.8790 N   0  0  0  0  0  0  0  0  0  0  0  0
   -0.5618    8.1581   -0.8481 C   0  0  0  0  0  0  0  0  0  0  0  0
   -1.4894    8.0961   -2.0422 C   0  0  0  0  0  0  0  0  0  0  0  0
   -2.0848    6.8966   -2.4583 C   0  0  0  0  0  0  0  0  0  0  0  0
   -2.9557    6.9101   -3.5466 C   0  0  0  0  0  0  0  0  0  0  0  0
   -3.2036    8.1285   -4.1903 C   0  0  0  0  0  0  0  0  0  0  0  0
   -2.6408    9.2775   -3.8142 N   0  0  0  0  0  0  0  0  0  0  0  0
   -1.8078    9.2518   -2.7713 C   0  0  0  0  0  0  0  0  0  0  0  0
    2.4644    5.0770   -1.0664 C   0  0  0  0  0  0  0  0  0  0  0  0
    2.4163    3.5420   -1.0989 C   0  0  0  0  0  0  0  0  0  0  0  0
    3.6976   -0.7974   -0.3660 C   0  0  0  0  0  0  0  0  0  0  0  0
    2.9311   -1.4227    0.6268 C   0  0  0  0  0  0  0  0  0  0  0  0
    2.8165   -2.8169    0.6111 C   0  0  0  0  0  0  0  0  0  0  0  0
    3.3988   -3.5936   -0.3039 N   0  0  0  0  0  0  0  0  0  0  0  0
    4.1399   -2.9962   -1.2423 C   0  0  0  0  0  0  0  0  0  0  0  0
    4.3271   -1.6140   -1.3133 C   0  0  0  0  0  0  0  0  0  0  0  0
    2.1345    1.0501    0.5065 H   0  0  0  0  0  0  0  0  0  0  0  0
    4.1378    3.1781    0.1341 H   0  0  0  0  0  0  0  0  0  0  0  0
    2.9576    3.1463    2.3150 H   0  0  0  0  0  0  0  0  0  0  0  0
    1.3783    3.2085    1.4959 H   0  0  0  0  0  0  0  0  0  0  0  0
    3.5547    5.3755    1.4568 H   0  0  0  0  0  0  0  0  0  0  0  0
    1.9559    5.4871    2.2415 H   0  0  0  0  0  0  0  0  0  0  0  0
    1.1058    7.1607   -1.6593 H   0  0  0  0  0  0  0  0  0  0  0  0
   -0.1187    9.1695   -0.7821 H   0  0  0  0  0  0  0  0  0  0  0  0
   -1.1183    8.0060    0.0894 H   0  0  0  0  0  0  0  0  0  0  0  0
   -1.8594    5.9656   -1.9313 H   0  0  0  0  0  0  0  0  0  0  0  0
   -3.4391    5.9939   -3.8943 H   0  0  0  0  0  0  0  0  0  0  0  0
   -3.8842    8.1717   -5.0491 H   0  0  0  0  0  0  0  0  0  0  0  0
   -1.3547   10.2108   -2.4868 H   0  0  0  0  0  0  0  0  0  0  0  0
    3.5141    5.4142   -1.1802 H   0  0  0  0  0  0  0  0  0  0  0  0
    1.9048    5.4617   -1.9279 H   0  0  0  0  0  0  0  0  0  0  0  0
    2.9363    3.1729   -1.9965 H   0  0  0  0  0  0  0  0  0  0  0  0
    1.3633    3.2147   -1.1591 H   0  0  0  0  0  0  0  0  0  0  0  0
    2.4493   -0.8537    1.4255 H   0  0  0  0  0  0  0  0  0  0  0  0
    2.2267   -3.3251    1.3833 H   0  0  0  0  0  0  0  0  0  0  0  0
    4.6152   -3.6527   -1.9807 H   0  0  0  0  0  0  0  0  0  0  0  0
    4.9519   -1.1581   -2.0833 H   0  0  0  0  0  0  0  0  0  0  0  0
  1  2  2  0
  2  3  1  0
  2 20  1  0
  3  4  1  0
  3 26  1  0
  4  5  1  0
  4 19  1  0
  4 27  1  6
  5  6  1  0
  5 28  1  0
  5 29  1  0
  6  7  1  0
  6 30  1  0
  6 31  1  0
  7  8  1  0
  7 18  1  0
  8  9  2  0
  8 10  1  0
 10 11  1  0
 10 32  1  0
 11 12  1  0
 11 33  1  0
 11 34  1  0
 12 13  2  0
 12 17  1  0
 13 14  1  0
 13 35  1  0
 14 15  2  0
 14 36  1  0
 15 16  1  0
 15 37  1  0
 16 17  2  0
 17 38  1  0
 18 19  1  0
 18 39  1  0
 18 40  1  0
 19 41  1  0
 19 42  1  0
 20 21  2  0
 20 25  1  0
 21 22  1  0
 21 43  1  0
 22 23  2  0
 22 44  1  0
 23 24  1  0
 24 25  2  0
 24 45  1  0
 25 46  1  0
M  END

