
     RDKit          3D

 53 55  0  0  0  0  0  0  0  0999 V2000
    1.2703   -0.6721    1.0997 C   0  0  0  0  0  0  0  0  0  0  0  0
    2.6165   -0.2934    0.5516 C   0  0  0  0  0  0  0  0  0  0  0  0
    3.0540    1.0112    0.5390 C   0  0  0  0  0  0  0  0  0  0  0  0
    4.3434    1.3763    0.0176 C   0  0  0  0  0  0  0  0  0  0  0  0
    4.7782    2.6587   -0.0056 N   0  0  0  0  0  0  0  0  0  0  0  0
    6.1216    3.0616   -0.4856 C   0  0  0  0  0  0  0  0  0  0  0  0
    6.2514    4.5242   -0.0621 C   0  0  0  0  0  0  0  0  0  0  0  0
    4.8086    5.0408   -0.1152 C   0  0  2  0  0  0  0  0  0  0  0  0
    4.5403    6.1731    0.6144 O   0  0  0  0  0  0  0  0  0  0  0  0
    4.4903    7.3817   -0.1366 C   0  0  0  0  0  0  0  0  0  0  0  0
    4.3723    8.5466    0.5778 C   0  0  0  0  0  0  0  0  0  0  0  0
    4.3231    9.7867   -0.1791 C   0  0  0  0  0  0  0  0  0  0  0  0
    4.4147    9.6575   -1.5846 C   0  0  0  0  0  0  0  0  0  0  0  0
    4.4425   10.8921   -2.4295 C   0  0  1  0  0  0  0  0  0  0  0  0
    3.4848   11.7830   -2.0790 F   0  0  0  0  0  0  0  0  0  0  0  0
    5.6171   11.5642   -2.3290 F   0  0  0  0  0  0  0  0  0  0  0  0
    4.2684   10.6454   -3.7482 F   0  0  0  0  0  0  0  0  0  0  0  0
    4.5306    8.4159   -2.1853 C   0  0  0  0  0  0  0  0  0  0  0  0
    4.5720    7.2322   -1.4575 N   0  0  0  0  0  0  0  0  0  0  0  0
    3.9884    3.8565    0.3325 C   0  0  0  0  0  0  0  0  0  0  0  0
    2.9082    3.8068    0.8403 O   0  0  0  0  0  0  0  0  0  0  0  0
    5.1808    0.3271   -0.4965 C   0  0  0  0  0  0  0  0  0  0  0  0
    4.7564   -0.9808   -0.4939 C   0  0  0  0  0  0  0  0  0  0  0  0
    3.4769   -1.3177    0.0221 C   0  0  0  0  0  0  0  0  0  0  0  0
    2.9959   -2.5502    0.0501 O   0  0  0  0  0  0  0  0  0  0  0  0
    3.7374   -3.6789   -0.4572 C   0  0  0  0  0  0  0  0  0  0  0  0
    2.8976   -4.9469   -0.2356 C   0  0  1  0  0  0  0  0  0  0  0  0
    1.5691   -4.8806   -1.0008 C   0  0  0  0  0  0  0  0  0  0  0  0
    3.7292   -6.1550   -0.6695 C   0  0  0  0  0  0  0  0  0  0  0  0
    2.6706   -5.1033    1.1571 O   0  0  0  0  0  0  0  0  0  0  0  0
    0.7355    0.2123    1.4678 H   0  0  0  0  0  0  0  0  0  0  0  0
    1.3714   -1.3908    1.9285 H   0  0  0  0  0  0  0  0  0  0  0  0
    0.6536   -1.1591    0.3276 H   0  0  0  0  0  0  0  0  0  0  0  0
    2.4203    1.8008    0.9325 H   0  0  0  0  0  0  0  0  0  0  0  0
    6.1611    2.9458   -1.5817 H   0  0  0  0  0  0  0  0  0  0  0  0
    6.8906    2.4146   -0.0408 H   0  0  0  0  0  0  0  0  0  0  0  0
    6.9114    5.0956   -0.7252 H   0  0  0  0  0  0  0  0  0  0  0  0
    6.6297    4.6069    0.9694 H   0  0  0  0  0  0  0  0  0  0  0  0
    4.5482    5.2364   -1.1826 H   0  0  0  0  0  0  0  0  0  0  0  0
    4.3160    8.5220    1.6648 H   0  0  0  0  0  0  0  0  0  0  0  0
    4.2147   10.7531    0.3059 H   0  0  0  0  0  0  0  0  0  0  0  0
    4.5952    8.3223   -3.2693 H   0  0  0  0  0  0  0  0  0  0  0  0
    6.1600    0.5615   -0.9069 H   0  0  0  0  0  0  0  0  0  0  0  0
    5.4094   -1.7536   -0.8957 H   0  0  0  0  0  0  0  0  0  0  0  0
    4.6799   -3.7605    0.1056 H   0  0  0  0  0  0  0  0  0  0  0  0
    3.9533   -3.5136   -1.5250 H   0  0  0  0  0  0  0  0  0  0  0  0
    1.7280   -4.8086   -2.0882 H   0  0  0  0  0  0  0  0  0  0  0  0
    0.9723   -4.0092   -0.6880 H   0  0  0  0  0  0  0  0  0  0  0  0
    0.9843   -5.7885   -0.7946 H   0  0  0  0  0  0  0  0  0  0  0  0
    3.9919   -6.1048   -1.7371 H   0  0  0  0  0  0  0  0  0  0  0  0
    3.1516   -7.0739   -0.4952 H   0  0  0  0  0  0  0  0  0  0  0  0
    4.6529   -6.2213   -0.0748 H   0  0  0  0  0  0  0  0  0  0  0  0
    2.0642   -4.4080    1.4463 H   0  0  0  0  0  0  0  0  0  0  0  0
  1  2  1  0
  1 31  1  0
  1 32  1  0
  1 33  1  0
  2  3  2  0
  2 24  1  0
  3  4  1  0
  3 34  1  0
  4  5  1  0
  4 22  2  0
  5  6  1  0
  5 20  1  0
  6  7  1  0
  6 35  1  0
  6 36  1  0
  7  8  1  0
  7 37  1  0
  7 38  1  0
  8  9  1  0
  8 20  1  0
  8 39  1  6
  9 10  1  0
 10 11  2  0
 10 19  1  0
 11 12  1  0
 11 40  1  0
 12 13  2  0
 12 41  1  0
 13 14  1  0
 13 18  1  0
 14 15  1  1
 14 16  1  0
 14 17  1  0
 18 19  2  0
 18 42  1  0
 20 21  2  0
 22 23  1  0
 22 43  1  0
 23 24  2  0
 23 44  1  0
 24 25  1  0
 25 26  1  0
 26 27  1  0
 26 45  1  0
 26 46  1  0
 27 28  1  0
 27 29  1  0
 27 30  1  1
 28 47  1  0
 28 48  1  0
 28 49  1  0
 29 50  1  0
 29 51  1  0
 29 52  1  0
 30 53  1  0
M  END

