
     RDKit          3D

 44 45  0  0  0  0  0  0  0  0999 V2000
   13.4682    5.1627    6.0394 C   0  0  0  0  0  0  0  0  0  0  0  0
   12.6876    5.8633    4.9514 C   0  0  0  0  0  0  0  0  0  0  0  0
   12.5855    7.1502    5.2264 O   0  0  0  0  0  0  0  0  0  0  0  0
   12.1157    5.2979    3.7923 C   0  0  0  0  0  0  0  0  0  0  0  0
   12.1555    3.9476    3.3272 C   0  0  0  0  0  0  0  0  0  0  0  0
   12.8320    2.7193    3.8394 C   0  0  0  0  0  0  0  0  0  0  0  0
   11.4099    3.9030    2.1812 N   0  0  0  0  0  0  0  0  0  0  0  0
   11.3590    3.0934    1.5771 H   0  0  0  0  0  0  0  0  0  0  0  0
   10.9189    5.1559    1.8459 C   0  0  0  0  0  0  0  0  0  0  0  0
   10.1640    5.4225    0.5981 C   0  0  0  0  0  0  0  0  0  0  0  0
   10.2751    6.4922    0.0072 O   0  0  0  0  0  0  0  0  0  0  0  0
    9.3661    4.4039    0.0916 N   0  0  0  0  0  0  0  0  0  0  0  0
    8.7596    3.3605    0.9074 C   0  0  0  0  0  0  0  0  0  0  0  0
    8.8243    4.5977   -1.2693 C   0  0  2  0  0  0  0  0  0  0  0  0
    9.5357    5.2843   -1.7505 H   0  0  0  0  0  0  0  0  0  0  0  0
    7.4715    5.3164   -1.2519 C   0  0  0  0  0  0  0  0  0  0  0  0
    8.8627    3.2790   -2.0405 C   0  0  0  0  0  0  0  0  0  0  0  0
   10.1089    2.6690   -2.2720 C   0  0  0  0  0  0  0  0  0  0  0  0
   10.2054    1.4670   -2.9734 C   0  0  0  0  0  0  0  0  0  0  0  0
    9.0503    0.8462   -3.4640 C   0  0  0  0  0  0  0  0  0  0  0  0
    7.8073    1.4415   -3.2453 C   0  0  0  0  0  0  0  0  0  0  0  0
    7.7152    2.6476   -2.5392 C   0  0  0  0  0  0  0  0  0  0  0  0
   11.3376    6.0516    2.8172 C   0  0  0  0  0  0  0  0  0  0  0  0
   11.0364    7.5161    2.8842 C   0  0  0  0  0  0  0  0  0  0  0  0
   14.4973    5.5607    6.1030 H   0  0  0  0  0  0  0  0  0  0  0  0
   13.5124    4.0857    5.8536 H   0  0  0  0  0  0  0  0  0  0  0  0
   12.9968    5.3372    7.0234 H   0  0  0  0  0  0  0  0  0  0  0  0
   13.9174    2.8652    3.9784 H   0  0  0  0  0  0  0  0  0  0  0  0
   12.7063    1.8859    3.1300 H   0  0  0  0  0  0  0  0  0  0  0  0
   12.4240    2.3771    4.8084 H   0  0  0  0  0  0  0  0  0  0  0  0
    8.8974    3.5765    1.9735 H   0  0  0  0  0  0  0  0  0  0  0  0
    9.1661    2.3566    0.6892 H   0  0  0  0  0  0  0  0  0  0  0  0
    7.6753    3.3144    0.7162 H   0  0  0  0  0  0  0  0  0  0  0  0
    7.1138    5.4985   -2.2770 H   0  0  0  0  0  0  0  0  0  0  0  0
    7.5933    6.2893   -0.7555 H   0  0  0  0  0  0  0  0  0  0  0  0
    6.6916    4.7481   -0.7201 H   0  0  0  0  0  0  0  0  0  0  0  0
   11.0154    3.1527   -1.8960 H   0  0  0  0  0  0  0  0  0  0  0  0
   11.1856    1.0145   -3.1461 H   0  0  0  0  0  0  0  0  0  0  0  0
    9.1223   -0.0939   -4.0168 H   0  0  0  0  0  0  0  0  0  0  0  0
    6.8984    0.9680   -3.6259 H   0  0  0  0  0  0  0  0  0  0  0  0
    6.7319    3.0948   -2.3826 H   0  0  0  0  0  0  0  0  0  0  0  0
   10.4906    7.8426    1.9898 H   0  0  0  0  0  0  0  0  0  0  0  0
   11.9664    8.1061    2.9431 H   0  0  0  0  0  0  0  0  0  0  0  0
   10.4459    7.7671    3.7818 H   0  0  0  0  0  0  0  0  0  0  0  0
  1  2  1  0
  1 25  1  0
  1 26  1  0
  1 27  1  0
  2  3  2  0
  2  4  1  0
  4  5  2  0
  4 23  1  0
  5  6  1  0
  5  7  1  0
  6 28  1  0
  6 29  1  0
  6 30  1  0
  7  8  1  0
  7  9  1  0
  9 10  1  0
  9 23  2  0
 10 11  2  0
 10 12  1  0
 12 13  1  0
 12 14  1  0
 13 31  1  0
 13 32  1  0
 13 33  1  0
 14 15  1  6
 14 16  1  0
 14 17  1  0
 16 34  1  0
 16 35  1  0
 16 36  1  0
 17 18  2  0
 17 22  1  0
 18 19  1  0
 18 37  1  0
 19 20  2  0
 19 38  1  0
 20 21  1  0
 20 39  1  0
 21 22  2  0
 21 40  1  0
 22 41  1  0
 23 24  1  0
 24 42  1  0
 24 43  1  0
 24 44  1  0
M  END

