
     RDKit          3D

 67 72  0  0  0  0  0  0  0  0999 V2000
   -0.4203   -3.1625   -6.9864 C   0  0  0  0  0  0  0  0  0  0  0  0
    0.6284   -2.5779   -6.2456 O   0  0  0  0  0  0  0  0  0  0  0  0
    1.8016   -3.2365   -6.1268 C   0  0  0  0  0  0  0  0  0  0  0  0
    2.0946   -4.4868   -6.6970 C   0  0  0  0  0  0  0  0  0  0  0  0
    3.3457   -5.0974   -6.5168 C   0  0  0  0  0  0  0  0  0  0  0  0
    4.3057   -4.4452   -5.7557 C   0  0  0  0  0  0  0  0  0  0  0  0
    4.0302   -3.1944   -5.1803 C   0  0  0  0  0  0  0  0  0  0  0  0
    2.7947   -2.5867   -5.3590 C   0  0  0  0  0  0  0  0  0  0  0  0
    2.5148   -1.4042   -4.8231 F   0  0  0  0  0  0  0  0  0  0  0  0
    5.2314   -2.7286   -4.4320 C   0  0  0  0  0  0  0  0  0  0  0  0
    5.4064   -1.6834   -3.8248 O   0  0  0  0  0  0  0  0  0  0  0  0
    6.1645   -3.7363   -4.5656 N   0  0  0  0  0  0  0  0  0  0  0  0
    7.4566   -3.7093   -3.9193 C   0  0  0  0  0  0  0  0  0  0  0  0
    8.4521   -2.6418   -4.4694 C   0  0  1  0  0  0  0  0  0  0  0  0
    8.4825   -2.6557   -5.9397 C   0  0  0  0  0  0  0  0  0  0  0  0
    8.5133   -2.6870   -7.1546 C   0  0  0  0  0  0  0  0  0  0  0  0
    8.5570   -2.7203   -8.5842 C   0  0  0  0  0  0  0  0  0  0  0  0
    7.9089   -1.7345   -9.3581 C   0  0  0  0  0  0  0  0  0  0  0  0
    7.9618   -1.7860  -10.7457 C   0  0  0  0  0  0  0  0  0  0  0  0
    8.6585   -2.7963  -11.4396 C   0  0  0  0  0  0  0  0  0  0  0  0
    8.6727   -2.7927  -12.9314 C   0  0  0  0  0  0  0  0  0  0  0  0
    9.6793   -3.4191  -13.6827 C   0  0  0  0  0  0  0  0  0  0  0  0
    9.6181   -3.3004  -15.0743 C   0  0  0  0  0  0  0  0  0  0  0  0
    8.5837   -2.6022  -15.6805 C   0  0  0  0  0  0  0  0  0  0  0  0
    7.5904   -2.0190  -14.8489 C   0  0  0  0  0  0  0  0  0  0  0  0
    6.4884   -1.3513  -15.3633 N   0  0  0  0  0  0  0  0  0  0  0  0
    6.3833   -1.0116  -16.7748 C   0  0  0  0  0  0  0  0  0  0  0  0
    4.9152   -0.8816  -17.1855 C   0  0  0  0  0  0  0  0  0  0  0  0
    4.2086    0.0093  -16.3546 O   0  0  0  0  0  0  0  0  0  0  0  0
    4.2470   -0.4199  -15.0078 C   0  0  0  0  0  0  0  0  0  0  0  0
    5.6760   -0.5098  -14.4871 C   0  0  0  0  0  0  0  0  0  0  0  0
    7.6756   -2.1115  -13.5166 N   0  0  0  0  0  0  0  0  0  0  0  0
    9.2896   -3.7665  -10.6405 C   0  0  0  0  0  0  0  0  0  0  0  0
    9.9571   -4.7868  -11.2104 F   0  0  0  0  0  0  0  0  0  0  0  0
    9.2511   -3.7459   -9.2518 C   0  0  0  0  0  0  0  0  0  0  0  0
    8.2341   -1.3119   -3.9184 N   0  0  0  0  0  0  0  0  0  0  0  0
    9.2710   -0.8675   -3.1447 C   0  0  0  0  0  0  0  0  0  0  0  0
    9.3606    0.1453   -2.4976 O   0  0  0  0  0  0  0  0  0  0  0  0
   10.2745   -1.8704   -3.2316 N   0  0  0  0  0  0  0  0  0  0  0  0
    9.8819   -2.9816   -3.9230 C   0  0  0  0  0  0  0  0  0  0  0  0
   10.4726   -4.0208   -4.0806 O   0  0  0  0  0  0  0  0  0  0  0  0
    5.7122   -4.8496   -5.3913 C   0  0  0  0  0  0  0  0  0  0  0  0
   -1.2635   -2.4611   -6.9369 H   0  0  0  0  0  0  0  0  0  0  0  0
   -0.7341   -4.1314   -6.5579 H   0  0  0  0  0  0  0  0  0  0  0  0
   -0.1412   -3.3128   -8.0449 H   0  0  0  0  0  0  0  0  0  0  0  0
    1.3375   -4.9973   -7.2923 H   0  0  0  0  0  0  0  0  0  0  0  0
    3.5439   -6.0698   -6.9739 H   0  0  0  0  0  0  0  0  0  0  0  0
    7.9283   -4.6934   -4.0501 H   0  0  0  0  0  0  0  0  0  0  0  0
    7.3365   -3.5203   -2.8390 H   0  0  0  0  0  0  0  0  0  0  0  0
    7.3682   -0.9295   -8.8577 H   0  0  0  0  0  0  0  0  0  0  0  0
    7.4587   -1.0262  -11.3439 H   0  0  0  0  0  0  0  0  0  0  0  0
   10.4914   -3.9582  -13.2022 H   0  0  0  0  0  0  0  0  0  0  0  0
   10.3968   -3.7540  -15.6933 H   0  0  0  0  0  0  0  0  0  0  0  0
    8.5565   -2.5086  -16.7646 H   0  0  0  0  0  0  0  0  0  0  0  0
    6.8371   -1.7981  -17.3921 H   0  0  0  0  0  0  0  0  0  0  0  0
    6.9143   -0.0617  -16.9954 H   0  0  0  0  0  0  0  0  0  0  0  0
    4.4428   -1.8862  -17.1604 H   0  0  0  0  0  0  0  0  0  0  0  0
    4.8476   -0.4943  -18.2136 H   0  0  0  0  0  0  0  0  0  0  0  0
    3.7524   -1.4086  -14.9088 H   0  0  0  0  0  0  0  0  0  0  0  0
    3.6755    0.3130  -14.4185 H   0  0  0  0  0  0  0  0  0  0  0  0
    5.6917   -0.9380  -13.4783 H   0  0  0  0  0  0  0  0  0  0  0  0
    6.1076    0.5110  -14.4284 H   0  0  0  0  0  0  0  0  0  0  0  0
    9.7640   -4.5341   -8.6993 H   0  0  0  0  0  0  0  0  0  0  0  0
    7.2823   -0.9562   -3.8102 H   0  0  0  0  0  0  0  0  0  0  0  0
   11.1614   -1.7854   -2.7464 H   0  0  0  0  0  0  0  0  0  0  0  0
    5.7410   -5.8009   -4.8279 H   0  0  0  0  0  0  0  0  0  0  0  0
    6.3558   -4.9692   -6.2816 H   0  0  0  0  0  0  0  0  0  0  0  0
  1  2  1  0
  1 43  1  0
  1 44  1  0
  1 45  1  0
  2  3  1  0
  3  4  2  0
  3  8  1  0
  4  5  1  0
  4 46  1  0
  5  6  2  0
  5 47  1  0
  6  7  1  0
  6 42  1  0
  7  8  2  0
  7 10  1  0
  8  9  1  0
 10 11  2  0
 10 12  1  0
 12 13  1  0
 12 42  1  0
 13 14  1  0
 13 48  1  0
 13 49  1  0
 14 15  1  6
 14 36  1  0
 14 40  1  0
 15 16  3  0
 16 17  1  0
 17 18  2  0
 17 35  1  0
 18 19  1  0
 18 50  1  0
 19 20  2  0
 19 51  1  0
 20 21  1  0
 20 33  1  0
 21 22  2  0
 21 32  1  0
 22 23  1  0
 22 52  1  0
 23 24  2  0
 23 53  1  0
 24 25  1  0
 24 54  1  0
 25 26  1  0
 25 32  2  0
 26 27  1  0
 26 31  1  0
 27 28  1  0
 27 55  1  0
 27 56  1  0
 28 29  1  0
 28 57  1  0
 28 58  1  0
 29 30  1  0
 30 31  1  0
 30 59  1  0
 30 60  1  0
 31 61  1  0
 31 62  1  0
 33 34  1  0
 33 35  2  0
 35 63  1  0
 36 37  1  0
 36 64  1  0
 37 38  2  0
 37 39  1  0
 39 40  1  0
 39 65  1  0
 40 41  2  0
 42 66  1  0
 42 67  1  0
M  END

