
     RDKit          3D

 79 83  0  0  0  0  0  0  0  0999 V2000
    3.4986   -0.4934    1.1341 C   0  0  0  0  0  0  0  0  0  0  0  0
    4.5496    0.2304    0.2895 C   0  0  0  0  0  0  0  0  0  0  0  0
    5.1130   -0.6806   -0.8014 C   0  0  0  0  0  0  0  0  0  0  0  0
    6.3906    0.2106   -1.7696 S   0  0  0  0  0  0  0  0  0  0  0  0
    6.7052   -0.8801   -3.0705 C   0  0  0  0  0  0  0  0  0  0  0  0
    7.6748   -0.6255   -3.9821 N   0  0  0  0  0  0  0  0  0  0  0  0
    7.5728   -1.6741   -4.7873 C   0  0  0  0  0  0  0  0  0  0  0  0
    6.5447   -2.5064   -4.3599 N   0  0  0  0  0  0  0  0  0  0  0  0
    5.9966   -2.0095   -3.2547 N   0  0  0  0  0  0  0  0  0  0  0  0
    6.2075   -3.7919   -4.9656 C   0  0  2  0  0  0  0  0  0  0  0  0
    6.7985   -4.9478   -4.1426 C   0  0  0  0  0  0  0  0  0  0  0  0
    7.8871   -4.7728   -3.2831 C   0  0  0  0  0  0  0  0  0  0  0  0
    8.4008   -5.8776   -2.5921 C   0  0  0  0  0  0  0  0  0  0  0  0
    9.8841   -5.6313   -1.4180 Br  0  0  0  0  0  0  0  0  0  0  0  0
    7.8501   -7.1545   -2.7253 C   0  0  0  0  0  0  0  0  0  0  0  0
    8.3192   -8.2029   -1.9917 O   0  0  0  0  0  0  0  0  0  0  0  0
    9.0567   -9.1965   -2.6916 C   0  0  0  0  0  0  0  0  0  0  0  0
    9.4776  -10.2811   -1.7319 C   0  0  0  0  0  0  0  0  0  0  0  0
    9.1660  -10.2206   -0.3674 C   0  0  0  0  0  0  0  0  0  0  0  0
    9.5556  -11.2269    0.5185 C   0  0  0  0  0  0  0  0  0  0  0  0
   10.2747  -12.3217    0.0349 C   0  0  0  0  0  0  0  0  0  0  0  0
   10.7710  -13.5935    1.1286 Cl  0  0  0  0  0  0  0  0  0  0  0  0
   10.6056  -12.4177   -1.3185 C   0  0  0  0  0  0  0  0  0  0  0  0
   10.2025  -11.3969   -2.1812 C   0  0  0  0  0  0  0  0  0  0  0  0
   10.6231  -11.5293   -3.8798 Cl  0  0  0  0  0  0  0  0  0  0  0  0
    6.7441   -7.3179   -3.6016 C   0  0  0  0  0  0  0  0  0  0  0  0
    6.2530   -8.5757   -3.6954 O   0  0  0  0  0  0  0  0  0  0  0  0
    5.1380   -8.8269   -4.5488 C   0  0  0  0  0  0  0  0  0  0  0  0
    4.8271  -10.3093   -4.4917 C   0  0  0  0  0  0  0  0  0  0  0  0
    6.2275   -6.2216   -4.2948 C   0  0  0  0  0  0  0  0  0  0  0  0
    6.6936   -3.7951   -6.4174 C   0  0  0  0  0  0  0  0  0  0  0  0
    5.8371   -4.5598   -7.3037 C   0  0  0  0  0  0  0  0  0  0  0  0
    4.9631   -5.3490   -6.8848 O   0  0  0  0  0  0  0  0  0  0  0  0
    6.0242   -4.3288   -8.6758 N   0  0  0  0  0  0  0  0  0  0  0  0
    5.3990   -4.9263   -9.7725 C   0  0  0  0  0  0  0  0  0  0  0  0
    4.6354   -6.1054   -9.6489 C   0  0  0  0  0  0  0  0  0  0  0  0
    4.0624   -6.6773  -10.7800 C   0  0  0  0  0  0  0  0  0  0  0  0
    4.2321   -6.0987  -12.0387 C   0  0  0  0  0  0  0  0  0  0  0  0
    4.9830   -4.9224  -12.1861 C   0  0  0  0  0  0  0  0  0  0  0  0
    5.1407   -4.3238  -13.5677 C   0  0  0  0  0  0  0  0  0  0  0  0
    5.5697   -4.3228  -11.0518 C   0  0  0  0  0  0  0  0  0  0  0  0
    6.3829   -3.0532  -11.1639 C   0  0  0  0  0  0  0  0  0  0  0  0
    7.8653   -3.0982   -6.7445 C   0  0  0  0  0  0  0  0  0  0  0  0
    8.8892   -3.4053   -7.7879 C   0  0  0  0  0  0  0  0  0  0  0  0
    8.2822   -2.0048   -5.8666 N   0  0  0  0  0  0  0  0  0  0  0  0
    3.0972    0.1746    1.9110 H   0  0  0  0  0  0  0  0  0  0  0  0
    3.9253   -1.3755    1.6381 H   0  0  0  0  0  0  0  0  0  0  0  0
    2.6529   -0.8360    0.5164 H   0  0  0  0  0  0  0  0  0  0  0  0
    5.3694    0.5855    0.9372 H   0  0  0  0  0  0  0  0  0  0  0  0
    4.1057    1.1282   -0.1735 H   0  0  0  0  0  0  0  0  0  0  0  0
    4.3436   -1.0179   -1.5101 H   0  0  0  0  0  0  0  0  0  0  0  0
    5.5956   -1.5781   -0.3854 H   0  0  0  0  0  0  0  0  0  0  0  0
    5.1133   -3.8881   -4.9505 H   0  0  0  0  0  0  0  0  0  0  0  0
    8.3536   -3.8003   -3.1295 H   0  0  0  0  0  0  0  0  0  0  0  0
    9.9503   -8.7430   -3.1602 H   0  0  0  0  0  0  0  0  0  0  0  0
    8.4463   -9.6301   -3.5011 H   0  0  0  0  0  0  0  0  0  0  0  0
    8.6048   -9.3585   -0.0064 H   0  0  0  0  0  0  0  0  0  0  0  0
    9.3049  -11.1653    1.5785 H   0  0  0  0  0  0  0  0  0  0  0  0
   11.1668  -13.2711   -1.6981 H   0  0  0  0  0  0  0  0  0  0  0  0
    5.3736   -8.5064   -5.5791 H   0  0  0  0  0  0  0  0  0  0  0  0
    4.2732   -8.2280   -4.2097 H   0  0  0  0  0  0  0  0  0  0  0  0
    5.6788  -10.9047   -4.8552 H   0  0  0  0  0  0  0  0  0  0  0  0
    3.9537  -10.5346   -5.1231 H   0  0  0  0  0  0  0  0  0  0  0  0
    4.6024  -10.6224   -3.4606 H   0  0  0  0  0  0  0  0  0  0  0  0
    5.4060   -6.3270   -5.0023 H   0  0  0  0  0  0  0  0  0  0  0  0
    6.5752   -3.5062   -8.8796 H   0  0  0  0  0  0  0  0  0  0  0  0
    4.4969   -6.5341   -8.6601 H   0  0  0  0  0  0  0  0  0  0  0  0
    3.4712   -7.5915  -10.6759 H   0  0  0  0  0  0  0  0  0  0  0  0
    3.7781   -6.5591  -12.9201 H   0  0  0  0  0  0  0  0  0  0  0  0
    4.6237   -4.9398  -14.3178 H   0  0  0  0  0  0  0  0  0  0  0  0
    6.1983   -4.2517  -13.8733 H   0  0  0  0  0  0  0  0  0  0  0  0
    4.7184   -3.3064  -13.6309 H   0  0  0  0  0  0  0  0  0  0  0  0
    6.3781   -2.6430  -12.1804 H   0  0  0  0  0  0  0  0  0  0  0  0
    7.4426   -3.2129  -10.8903 H   0  0  0  0  0  0  0  0  0  0  0  0
    5.9965   -2.2607  -10.4970 H   0  0  0  0  0  0  0  0  0  0  0  0
    8.6241   -4.3109   -8.3468 H   0  0  0  0  0  0  0  0  0  0  0  0
    9.8819   -3.5832   -7.3231 H   0  0  0  0  0  0  0  0  0  0  0  0
    9.0402   -2.5864   -8.5235 H   0  0  0  0  0  0  0  0  0  0  0  0
    8.9183   -1.2998   -6.2243 H   0  0  0  0  0  0  0  0  0  0  0  0
  1  2  1  0
  1 46  1  0
  1 47  1  0
  1 48  1  0
  2  3  1  0
  2 49  1  0
  2 50  1  0
  3  4  1  0
  3 51  1  0
  3 52  1  0
  4  5  1  0
  5  6  1  0
  5  9  2  0
  6  7  2  0
  7  8  1  0
  7 45  1  0
  8  9  1  0
  8 10  1  0
 10 11  1  0
 10 31  1  0
 10 53  1  6
 11 12  2  0
 11 30  1  0
 12 13  1  0
 12 54  1  0
 13 14  1  0
 13 15  2  0
 15 16  1  0
 15 26  1  0
 16 17  1  0
 17 18  1  0
 17 55  1  0
 17 56  1  0
 18 19  2  0
 18 24  1  0
 19 20  1  0
 19 57  1  0
 20 21  2  0
 20 58  1  0
 21 22  1  0
 21 23  1  0
 23 24  2  0
 23 59  1  0
 24 25  1  0
 26 27  1  0
 26 30  2  0
 27 28  1  0
 28 29  1  0
 28 60  1  0
 28 61  1  0
 29 62  1  0
 29 63  1  0
 29 64  1  0
 30 65  1  0
 31 32  1  0
 31 43  2  0
 32 33  2  0
 32 34  1  0
 34 35  1  0
 34 66  1  0
 35 36  2  0
 35 41  1  0
 36 37  1  0
 36 67  1  0
 37 38  2  0
 37 68  1  0
 38 39  1  0
 38 69  1  0
 39 40  1  0
 39 41  2  0
 40 70  1  0
 40 71  1  0
 40 72  1  0
 41 42  1  0
 42 73  1  0
 42 74  1  0
 42 75  1  0
 43 44  1  0
 43 45  1  0
 44 76  1  0
 44 77  1  0
 44 78  1  0
 45 79  1  0
M  END

