
     RDKit          3D

 42 45  0  0  0  0  0  0  0  0999 V2000
    7.4098    3.1732   -5.2677 F   0  0  0  0  0  0  0  0  0  0  0  0
    7.3082    2.4311   -4.1542 C   0  0  0  0  0  0  0  0  0  0  0  0
    7.5873    1.0706   -4.2128 C   0  0  0  0  0  0  0  0  0  0  0  0
    7.4796    0.3050   -3.0458 C   0  0  0  0  0  0  0  0  0  0  0  0
    7.0941    0.8830   -1.8276 C   0  0  0  0  0  0  0  0  0  0  0  0
    6.9309    0.0846   -0.5316 C   0  0  2  0  0  0  0  0  0  0  0  0
    5.8510    0.0998   -0.2879 H   0  0  0  0  0  0  0  0  0  0  0  0
    7.5687    0.8038    0.5792 N   0  0  0  0  0  0  0  0  0  0  0  0
    9.0244    0.8748    0.5695 C   0  0  0  0  0  0  0  0  0  0  0  0
    9.5127    1.8983    1.5380 C   0  0  0  0  0  0  0  0  0  0  0  0
   10.1367    1.7136    2.6586 N   0  0  0  0  0  0  0  0  0  0  0  0
   10.3499    2.9601    3.2133 N   0  0  0  0  0  0  0  0  0  0  0  0
    9.8314    3.8191    2.3834 C   0  0  0  0  0  0  0  0  0  0  0  0
    9.7982    5.2567    2.5098 C   0  0  0  0  0  0  0  0  0  0  0  0
   10.2732    6.0925    3.4922 C   0  0  0  0  0  0  0  0  0  0  0  0
    9.9508    7.4173    3.0673 C   0  0  0  0  0  0  0  0  0  0  0  0
    9.3082    7.2847    1.8658 C   0  0  0  0  0  0  0  0  0  0  0  0
    9.2107    5.9802    1.5198 O   0  0  0  0  0  0  0  0  0  0  0  0
    9.2824    3.2187    1.2986 O   0  0  0  0  0  0  0  0  0  0  0  0
    7.3277   -1.3979   -0.6207 C   0  0  1  0  0  0  0  0  0  0  0  0
    7.1418   -2.2561    0.6631 C   0  0  0  0  0  0  0  0  0  0  0  0
    6.6401   -3.4230   -0.2235 C   0  0  0  0  0  0  0  0  0  0  0  0
    6.4071   -2.4070   -1.3684 C   0  0  0  0  0  0  0  0  0  0  0  0
    6.8269    2.2647   -1.8072 C   0  0  0  0  0  0  0  0  0  0  0  0
    6.9294    3.0424   -2.9594 C   0  0  0  0  0  0  0  0  0  0  0  0
    7.8872    0.6239   -5.1628 H   0  0  0  0  0  0  0  0  0  0  0  0
    7.7023   -0.7606   -3.1053 H   0  0  0  0  0  0  0  0  0  0  0  0
    7.2398    0.4429    1.4726 H   0  0  0  0  0  0  0  0  0  0  0  0
    9.3485    1.1648   -0.4434 H   0  0  0  0  0  0  0  0  0  0  0  0
    9.5418   -0.0694    0.8258 H   0  0  0  0  0  0  0  0  0  0  0  0
   10.7868    5.7792    4.3976 H   0  0  0  0  0  0  0  0  0  0  0  0
   10.1684    8.3481    3.5865 H   0  0  0  0  0  0  0  0  0  0  0  0
    8.8795    7.9971    1.1659 H   0  0  0  0  0  0  0  0  0  0  0  0
    8.3654   -1.4909   -0.9843 H   0  0  0  0  0  0  0  0  0  0  0  0
    6.3340   -1.8580    1.3004 H   0  0  0  0  0  0  0  0  0  0  0  0
    8.0252   -2.4322    1.2965 H   0  0  0  0  0  0  0  0  0  0  0  0
    5.7716   -3.9959    0.1354 H   0  0  0  0  0  0  0  0  0  0  0  0
    7.4471   -4.1329   -0.4634 H   0  0  0  0  0  0  0  0  0  0  0  0
    5.3645   -2.0492   -1.3987 H   0  0  0  0  0  0  0  0  0  0  0  0
    6.6923   -2.7132   -2.3867 H   0  0  0  0  0  0  0  0  0  0  0  0
    6.5558    2.7320   -0.8584 H   0  0  0  0  0  0  0  0  0  0  0  0
    6.7245    4.1149   -2.9469 H   0  0  0  0  0  0  0  0  0  0  0  0
  1  2  1  0
  2  3  2  0
  2 25  1  0
  3  4  1  0
  3 26  1  0
  4  5  2  0
  4 27  1  0
  5  6  1  0
  5 24  1  0
  6  7  1  1
  6  8  1  0
  6 20  1  0
  8  9  1  0
  8 28  1  0
  9 10  1  0
  9 29  1  0
  9 30  1  0
 10 11  2  0
 10 19  1  0
 11 12  1  0
 12 13  2  0
 13 14  1  0
 13 19  1  0
 14 15  2  0
 14 18  1  0
 15 16  1  0
 15 31  1  0
 16 17  2  0
 16 32  1  0
 17 18  1  0
 17 33  1  0
 20 21  1  0
 20 23  1  0
 20 34  1  6
 21 22  1  0
 21 35  1  0
 21 36  1  0
 22 23  1  0
 22 37  1  0
 22 38  1  0
 23 39  1  0
 23 40  1  0
 24 25  2  0
 24 41  1  0
 25 42  1  0
M  END

