
     RDKit          3D

 79 84  0  0  0  0  0  0  0  0999 V2000
    8.4050   -4.3260    1.1766 C   0  0  0  0  0  0  0  0  0  0  0  0
    7.7876   -5.1896    0.2430 O   0  0  0  0  0  0  0  0  0  0  0  0
    7.9555   -4.8474   -1.1177 C   0  0  2  0  0  0  0  0  0  0  0  0
    7.1422   -3.6111   -1.5327 C   0  0  0  0  0  0  0  0  0  0  0  0
    5.7169   -3.9262   -1.4847 N   0  0  0  0  0  0  0  0  0  0  0  0
    5.0104   -3.5070   -0.3890 C   0  0  0  0  0  0  0  0  0  0  0  0
    5.5169   -2.7693    0.4484 O   0  0  0  0  0  0  0  0  0  0  0  0
    3.5280   -3.9663   -0.1625 C   0  0  1  0  0  0  0  0  0  0  0  0
    3.5399   -5.4031    0.3699 C   0  0  1  0  0  0  0  0  0  0  0  0
    2.2628   -6.1497    0.6639 C   0  0  0  0  0  0  0  0  0  0  0  0
    3.1638   -6.6139   -0.4479 C   0  0  0  0  0  0  0  0  0  0  0  0
    2.8672   -3.0278    0.8680 C   0  0  0  0  0  0  0  0  0  0  0  0
    2.6284   -1.6164    0.3273 C   0  0  0  0  0  0  0  0  0  0  0  0
    1.8399   -1.7119   -0.9911 C   0  0  1  0  0  0  0  0  0  0  0  0
    0.8570   -2.1628   -0.7909 H   0  0  0  0  0  0  0  0  0  0  0  0
    1.5977   -0.4437   -1.6396 N   0  0  0  0  0  0  0  0  0  0  0  0
    2.6601    0.5515   -1.7462 C   0  0  0  0  0  0  0  0  0  0  0  0
    2.4716    1.5149   -2.9160 C   0  0  0  0  0  0  0  0  0  0  0  0
    1.0761    2.1695   -2.8983 C   0  0  2  0  0  0  0  0  0  0  0  0
    0.8975    3.1253   -1.7163 C   0  0  0  0  0  0  0  0  0  0  0  0
    1.7816    4.2408   -1.6097 C   0  0  0  0  0  0  0  0  0  0  0  0
    1.6164    5.1305   -0.5129 C   0  0  0  0  0  0  0  0  0  0  0  0
    0.6547    4.8907    0.4374 C   0  0  0  0  0  0  0  0  0  0  0  0
    0.5461    5.7817    1.4797 F   0  0  0  0  0  0  0  0  0  0  0  0
   -0.2368    3.7740    0.4041 C   0  0  0  0  0  0  0  0  0  0  0  0
   -1.2022    3.3581    1.3972 C   0  0  0  0  0  0  0  0  0  0  0  0
   -1.8625    2.3201    1.3093 O   0  0  0  0  0  0  0  0  0  0  0  0
   -1.3915    4.1605    2.4961 O   0  0  0  0  0  0  0  0  0  0  0  0
   -0.0740    2.9305   -0.7569 C   0  0  0  0  0  0  0  0  0  0  0  0
    0.0548    1.0232   -3.0096 C   0  0  0  0  0  0  0  0  0  0  0  0
    0.2191   -0.0929   -1.9713 C   0  0  0  0  0  0  0  0  0  0  0  0
    2.5839   -2.6825   -1.9642 C   0  0  0  0  0  0  0  0  0  0  0  0
    2.7460   -3.9375   -1.3699 O   0  0  0  0  0  0  0  0  0  0  0  0
    5.3260   -4.8989   -2.4976 C   0  0  0  0  0  0  0  0  0  0  0  0
    6.2712   -6.0872   -2.5567 C   0  0  0  0  0  0  0  0  0  0  0  0
    5.8907   -7.2251   -3.2838 C   0  0  0  0  0  0  0  0  0  0  0  0
    6.7404   -8.3260   -3.3759 C   0  0  0  0  0  0  0  0  0  0  0  0
    6.3389   -9.5548   -4.1553 C   0  0  1  0  0  0  0  0  0  0  0  0
    5.1257   -9.4272   -4.7191 F   0  0  0  0  0  0  0  0  0  0  0  0
    7.2156   -9.8155   -5.1422 F   0  0  0  0  0  0  0  0  0  0  0  0
    6.3038  -10.6456   -3.3685 F   0  0  0  0  0  0  0  0  0  0  0  0
    7.9886   -8.3042   -2.7358 C   0  0  0  0  0  0  0  0  0  0  0  0
    8.3677   -7.1760   -2.0171 C   0  0  0  0  0  0  0  0  0  0  0  0
    7.5256   -6.0567   -1.9292 C   0  0  0  0  0  0  0  0  0  0  0  0
    8.3616   -4.8267    2.1545 H   0  0  0  0  0  0  0  0  0  0  0  0
    7.8794   -3.3587    1.2576 H   0  0  0  0  0  0  0  0  0  0  0  0
    9.4678   -4.1456    0.9211 H   0  0  0  0  0  0  0  0  0  0  0  0
    9.0270   -4.6380   -1.3198 H   0  0  0  0  0  0  0  0  0  0  0  0
    7.4142   -3.3244   -2.5632 H   0  0  0  0  0  0  0  0  0  0  0  0
    7.3389   -2.7614   -0.8708 H   0  0  0  0  0  0  0  0  0  0  0  0
    4.3527   -5.5501    1.0881 H   0  0  0  0  0  0  0  0  0  0  0  0
    1.3189   -5.6846    0.3657 H   0  0  0  0  0  0  0  0  0  0  0  0
    2.2067   -6.7310    1.5881 H   0  0  0  0  0  0  0  0  0  0  0  0
    2.7929   -6.4575   -1.4630 H   0  0  0  0  0  0  0  0  0  0  0  0
    3.7579   -7.5216   -0.3146 H   0  0  0  0  0  0  0  0  0  0  0  0
    3.5021   -2.9722    1.7601 H   0  0  0  0  0  0  0  0  0  0  0  0
    1.9093   -3.4837    1.1590 H   0  0  0  0  0  0  0  0  0  0  0  0
    3.5952   -1.1178    0.1733 H   0  0  0  0  0  0  0  0  0  0  0  0
    2.0551   -1.0178    1.0517 H   0  0  0  0  0  0  0  0  0  0  0  0
    3.6229    0.0226   -1.7903 H   0  0  0  0  0  0  0  0  0  0  0  0
    2.6422    1.1076   -0.7929 H   0  0  0  0  0  0  0  0  0  0  0  0
    2.6290    0.9727   -3.8652 H   0  0  0  0  0  0  0  0  0  0  0  0
    3.2666    2.2675   -2.8424 H   0  0  0  0  0  0  0  0  0  0  0  0
    0.9901    2.7550   -3.8300 H   0  0  0  0  0  0  0  0  0  0  0  0
    2.5259    4.4592   -2.3766 H   0  0  0  0  0  0  0  0  0  0  0  0
    2.2427    6.0188   -0.4043 H   0  0  0  0  0  0  0  0  0  0  0  0
   -0.8184    4.9372    2.4182 H   0  0  0  0  0  0  0  0  0  0  0  0
   -0.8118    2.1334   -0.8081 H   0  0  0  0  0  0  0  0  0  0  0  0
    0.1449    0.5734   -4.0128 H   0  0  0  0  0  0  0  0  0  0  0  0
   -0.9747    1.3958   -2.9261 H   0  0  0  0  0  0  0  0  0  0  0  0
   -0.2800   -1.0215   -2.2933 H   0  0  0  0  0  0  0  0  0  0  0  0
   -0.2385    0.1816   -1.0055 H   0  0  0  0  0  0  0  0  0  0  0  0
    3.5563   -2.2374   -2.2488 H   0  0  0  0  0  0  0  0  0  0  0  0
    1.9891   -2.8356   -2.8768 H   0  0  0  0  0  0  0  0  0  0  0  0
    5.3287   -4.3972   -3.4862 H   0  0  0  0  0  0  0  0  0  0  0  0
    4.3029   -5.2364   -2.3233 H   0  0  0  0  0  0  0  0  0  0  0  0
    4.9179   -7.2551   -3.7792 H   0  0  0  0  0  0  0  0  0  0  0  0
    8.6550   -9.1667   -2.8022 H   0  0  0  0  0  0  0  0  0  0  0  0
    9.3362   -7.1540   -1.5111 H   0  0  0  0  0  0  0  0  0  0  0  0
  1  2  1  0
  1 45  1  0
  1 46  1  0
  1 47  1  0
  2  3  1  0
  3  4  1  0
  3 44  1  0
  3 48  1  1
  4  5  1  0
  4 49  1  0
  4 50  1  0
  5  6  1  0
  5 34  1  0
  6  7  2  0
  8  6  1  6
  8  9  1  0
  8 12  1  0
  8 33  1  0
  9 10  1  0
  9 11  1  0
  9 51  1  1
 10 11  1  0
 10 52  1  0
 10 53  1  0
 11 54  1  0
 11 55  1  0
 12 13  1  0
 12 56  1  0
 12 57  1  0
 13 14  1  0
 13 58  1  0
 13 59  1  0
 14 15  1  1
 14 16  1  0
 14 32  1  0
 16 17  1  0
 16 31  1  0
 17 18  1  0
 17 60  1  0
 17 61  1  0
 18 19  1  0
 18 62  1  0
 18 63  1  0
 19 20  1  0
 19 30  1  0
 19 64  1  6
 20 21  2  0
 20 29  1  0
 21 22  1  0
 21 65  1  0
 22 23  2  0
 22 66  1  0
 23 24  1  0
 23 25  1  0
 25 26  1  0
 25 29  2  0
 26 27  2  0
 26 28  1  0
 28 67  1  0
 29 68  1  0
 30 31  1  0
 30 69  1  0
 30 70  1  0
 31 71  1  0
 31 72  1  0
 32 33  1  0
 32 73  1  0
 32 74  1  0
 34 35  1  0
 34 75  1  0
 34 76  1  0
 35 36  1  0
 35 44  2  0
 36 37  2  0
 36 77  1  0
 37 38  1  0
 37 42  1  0
 38 39  1  6
 38 40  1  0
 38 41  1  0
 42 43  2  0
 42 78  1  0
 43 44  1  0
 43 79  1  0
M  END

