
     RDKit          3D

128140  0  0  0  0  0  0  0  0999 V2000
   -1.2230   -4.6285    0.0783 C   0  0  0  0  0  0  0  0  0  0  0  0
   -1.1511   -3.3446   -0.7482 C   0  0  0  0  0  0  0  0  0  0  0  0
   -0.0541   -2.3218   -0.3324 C   0  0  2  0  0  0  0  0  0  0  0  0
   -0.1473   -1.0922   -1.2819 C   0  0  0  0  0  0  0  0  0  0  0  0
    0.8539    0.0346   -1.0281 C   0  0  0  0  0  0  0  0  0  0  0  0
    1.3420   -2.9468   -0.3422 C   0  0  0  0  0  0  0  0  0  0  0  0
    2.0381   -3.5073   -1.4060 C   0  0  0  0  0  0  0  0  0  0  0  0
    3.3357   -4.0397   -1.2193 C   0  0  0  0  0  0  0  0  0  0  0  0
    4.0289   -4.6147   -2.3736 C   0  0  0  0  0  0  0  0  0  0  0  0
    5.2668   -5.1625   -2.3996 C   0  0  0  0  0  0  0  0  0  0  0  0
    5.9561   -5.7326   -3.5563 C   0  0  0  0  0  0  0  0  0  0  0  0
    5.4015   -5.7938   -4.8530 C   0  0  0  0  0  0  0  0  0  0  0  0
    6.1097   -6.3483   -5.9114 C   0  0  0  0  0  0  0  0  0  0  0  0
    7.4106   -6.8750   -5.7453 C   0  0  0  0  0  0  0  0  0  0  0  0
    8.1000   -7.4451   -6.9021 C   0  0  0  0  0  0  0  0  0  0  0  0
    9.3382   -7.9920   -6.9282 C   0  0  0  0  0  0  0  0  0  0  0  0
   10.0314   -8.5671   -8.0824 C   0  0  0  0  0  0  0  0  0  0  0  0
    9.4680   -8.6216   -9.3798 C   0  0  0  0  0  0  0  0  0  0  0  0
   10.1590   -9.1814  -10.4509 C   0  0  0  0  0  0  0  0  0  0  0  0
   11.4427   -9.7040  -10.2434 C   0  0  0  0  0  0  0  0  0  0  0  0
   12.0251   -9.6598   -8.9596 C   0  0  0  0  0  0  0  0  0  0  0  0
   11.3291   -9.0992   -7.8958 C   0  0  0  0  0  0  0  0  0  0  0  0
   13.4214  -10.2846   -8.9694 C   0  0  1  0  0  0  0  0  0  0  0  0
   14.5183   -9.2616   -8.5539 C   0  0  0  0  0  0  0  0  0  0  0  0
   14.5899   -7.9778   -9.3804 C   0  0  0  0  0  0  0  0  0  0  0  0
   13.5147  -11.5142   -8.0198 C   0  0  0  0  0  0  0  0  0  0  0  0
   12.5135  -12.6410   -8.2734 C   0  0  0  0  0  0  0  0  0  0  0  0
   13.5504  -10.6900  -10.4381 C   0  0  0  0  0  0  0  0  0  0  0  0
   14.6149  -11.3166  -11.0785 C   0  0  0  0  0  0  0  0  0  0  0  0
   14.5253  -11.6039  -12.4506 C   0  0  0  0  0  0  0  0  0  0  0  0
   15.6334  -12.2562  -13.0930 N   0  0  0  0  0  0  0  0  0  0  0  0
   16.5807  -11.4582  -13.7825 C   0  0  0  0  0  0  0  0  0  0  0  0
   16.3005  -10.1253  -14.1371 C   0  0  0  0  0  0  0  0  0  0  0  0
   17.2402   -9.3443  -14.8158 C   0  0  0  0  0  0  0  0  0  0  0  0
   18.4744   -9.8794  -15.1836 C   0  0  0  0  0  0  0  0  0  0  0  0
   18.7658  -11.2038  -14.8462 C   0  0  0  0  0  0  0  0  0  0  0  0
   17.8465  -11.9792  -14.1331 C   0  0  0  0  0  0  0  0  0  0  0  0
   18.3489  -13.5838  -13.5557 S   0  0  0  0  0  0  0  0  0  0  0  0
   16.7672  -14.3951  -13.5351 C   0  0  0  0  0  0  0  0  0  0  0  0
   16.7210  -15.7810  -13.7138 C   0  0  0  0  0  0  0  0  0  0  0  0
   15.5240  -16.4833  -13.5507 C   0  0  0  0  0  0  0  0  0  0  0  0
   14.3657  -15.7779  -13.2252 C   0  0  0  0  0  0  0  0  0  0  0  0
   14.3961  -14.3878  -13.0829 C   0  0  0  0  0  0  0  0  0  0  0  0
   15.5944  -13.6658  -13.2362 C   0  0  0  0  0  0  0  0  0  0  0  0
   13.3682  -11.2579  -13.1685 C   0  0  0  0  0  0  0  0  0  0  0  0
   12.2965  -10.6269  -12.5312 C   0  0  0  0  0  0  0  0  0  0  0  0
   12.3888  -10.3439  -11.1632 C   0  0  0  0  0  0  0  0  0  0  0  0
    7.9652   -6.8138   -4.4486 C   0  0  0  0  0  0  0  0  0  0  0  0
    7.2570   -6.2593   -3.3902 C   0  0  0  0  0  0  0  0  0  0  0  0
    3.8990   -3.9854    0.0781 C   0  0  0  0  0  0  0  0  0  0  0  0
    3.2080   -3.4256    1.1492 C   0  0  0  0  0  0  0  0  0  0  0  0
    1.9244   -2.9028    0.9416 C   0  0  0  0  0  0  0  0  0  0  0  0
    0.9783   -2.2629    1.8615 C   0  0  0  0  0  0  0  0  0  0  0  0
    1.0706   -1.9800    3.2295 C   0  0  0  0  0  0  0  0  0  0  0  0
   -0.0011   -1.3490    3.8669 C   0  0  0  0  0  0  0  0  0  0  0  0
   -1.1581   -1.0028    3.1488 C   0  0  0  0  0  0  0  0  0  0  0  0
   -2.2662   -0.3506    3.7914 N   0  0  0  0  0  0  0  0  0  0  0  0
   -2.2271    1.0589    3.9353 C   0  0  0  0  0  0  0  0  0  0  0  0
   -1.0287    1.7808    3.7820 C   0  0  0  0  0  0  0  0  0  0  0  0
   -0.9980    3.1708    3.9251 C   0  0  0  0  0  0  0  0  0  0  0  0
   -2.1560    3.8763    4.2512 C   0  0  0  0  0  0  0  0  0  0  0  0
   -3.3531    3.1741    4.4141 C   0  0  0  0  0  0  0  0  0  0  0  0
   -3.3997    1.7883    4.2347 C   0  0  0  0  0  0  0  0  0  0  0  0
   -4.9815    0.9774    4.2550 S   0  0  0  0  0  0  0  0  0  0  0  0
   -4.4796   -0.6277    4.8311 C   0  0  0  0  0  0  0  0  0  0  0  0
   -5.3991   -1.4035    5.5434 C   0  0  0  0  0  0  0  0  0  0  0  0
   -5.1081   -2.7282    5.8798 C   0  0  0  0  0  0  0  0  0  0  0  0
   -3.8741   -3.2633    5.5117 C   0  0  0  0  0  0  0  0  0  0  0  0
   -2.9341   -2.4821    4.8338 C   0  0  0  0  0  0  0  0  0  0  0  0
   -3.2139   -1.1489    4.4801 C   0  0  0  0  0  0  0  0  0  0  0  0
   -1.2477   -1.2899    1.7768 C   0  0  0  0  0  0  0  0  0  0  0  0
   -0.1832   -1.9166    1.1363 C   0  0  0  0  0  0  0  0  0  0  0  0
   -2.0222   -5.2851   -0.3010 H   0  0  0  0  0  0  0  0  0  0  0  0
   -1.4415   -4.4194    1.1372 H   0  0  0  0  0  0  0  0  0  0  0  0
   -0.2790   -5.1936    0.0349 H   0  0  0  0  0  0  0  0  0  0  0  0
   -2.1258   -2.8272   -0.7114 H   0  0  0  0  0  0  0  0  0  0  0  0
   -0.9879   -3.5986   -1.8103 H   0  0  0  0  0  0  0  0  0  0  0  0
   -1.1749   -0.6935   -1.2172 H   0  0  0  0  0  0  0  0  0  0  0  0
   -0.0345   -1.4593   -2.3171 H   0  0  0  0  0  0  0  0  0  0  0  0
    0.7343    0.4681   -0.0229 H   0  0  0  0  0  0  0  0  0  0  0  0
    0.7094    0.8471   -1.7578 H   0  0  0  0  0  0  0  0  0  0  0  0
    1.8935   -0.3159   -1.1216 H   0  0  0  0  0  0  0  0  0  0  0  0
    1.5913   -3.5422   -2.4041 H   0  0  0  0  0  0  0  0  0  0  0  0
    3.4545   -4.5802   -3.3052 H   0  0  0  0  0  0  0  0  0  0  0  0
    5.8439   -5.1975   -1.4698 H   0  0  0  0  0  0  0  0  0  0  0  0
    4.3991   -5.4021   -5.0383 H   0  0  0  0  0  0  0  0  0  0  0  0
    5.6499   -6.3796   -6.9033 H   0  0  0  0  0  0  0  0  0  0  0  0
    7.5226   -7.4106   -7.8317 H   0  0  0  0  0  0  0  0  0  0  0  0
    9.9128   -8.0260   -5.9967 H   0  0  0  0  0  0  0  0  0  0  0  0
    8.4680   -8.2187   -9.5521 H   0  0  0  0  0  0  0  0  0  0  0  0
    9.6968   -9.2097  -11.4411 H   0  0  0  0  0  0  0  0  0  0  0  0
   11.7760   -9.0642   -6.8977 H   0  0  0  0  0  0  0  0  0  0  0  0
   15.4930   -9.7790   -8.5908 H   0  0  0  0  0  0  0  0  0  0  0  0
   14.3552   -9.0076   -7.4917 H   0  0  0  0  0  0  0  0  0  0  0  0
   14.8081   -8.1870  -10.4393 H   0  0  0  0  0  0  0  0  0  0  0  0
   15.3891   -7.3212   -9.0014 H   0  0  0  0  0  0  0  0  0  0  0  0
   13.6458   -7.4127   -9.3368 H   0  0  0  0  0  0  0  0  0  0  0  0
   13.4020  -11.1470   -6.9846 H   0  0  0  0  0  0  0  0  0  0  0  0
   14.5423  -11.9129   -8.0846 H   0  0  0  0  0  0  0  0  0  0  0  0
   11.4739  -12.2906   -8.1797 H   0  0  0  0  0  0  0  0  0  0  0  0
   12.6582  -13.4535   -7.5438 H   0  0  0  0  0  0  0  0  0  0  0  0
   12.6330  -13.0745   -9.2787 H   0  0  0  0  0  0  0  0  0  0  0  0
   15.5254  -11.5953  -10.5427 H   0  0  0  0  0  0  0  0  0  0  0  0
   15.3383   -9.6890  -13.8728 H   0  0  0  0  0  0  0  0  0  0  0  0
   16.9907   -8.3098  -15.0644 H   0  0  0  0  0  0  0  0  0  0  0  0
   19.2075   -9.2767  -15.7242 H   0  0  0  0  0  0  0  0  0  0  0  0
   19.7278  -11.6455  -15.1179 H   0  0  0  0  0  0  0  0  0  0  0  0
   17.6440  -16.3104  -13.9633 H   0  0  0  0  0  0  0  0  0  0  0  0
   15.5031  -17.5684  -13.6739 H   0  0  0  0  0  0  0  0  0  0  0  0
   13.4185  -16.3053  -13.0877 H   0  0  0  0  0  0  0  0  0  0  0  0
   13.4759  -13.8578  -12.8411 H   0  0  0  0  0  0  0  0  0  0  0  0
   13.3163  -11.4890  -14.2349 H   0  0  0  0  0  0  0  0  0  0  0  0
   11.4015  -10.3623  -13.0999 H   0  0  0  0  0  0  0  0  0  0  0  0
    8.9675   -7.2057   -4.2633 H   0  0  0  0  0  0  0  0  0  0  0  0
    7.7168   -6.2280   -2.3983 H   0  0  0  0  0  0  0  0  0  0  0  0
    4.8989   -4.3883    0.2505 H   0  0  0  0  0  0  0  0  0  0  0  0
    3.6702   -3.3974    2.1394 H   0  0  0  0  0  0  0  0  0  0  0  0
    1.9655   -2.2447    3.7982 H   0  0  0  0  0  0  0  0  0  0  0  0
    0.0507   -1.1180    4.9332 H   0  0  0  0  0  0  0  0  0  0  0  0
   -0.1086    1.2508    3.5397 H   0  0  0  0  0  0  0  0  0  0  0  0
   -0.0507    3.6981    3.7876 H   0  0  0  0  0  0  0  0  0  0  0  0
   -2.1350    4.9613    4.3749 H   0  0  0  0  0  0  0  0  0  0  0  0
   -4.2760    3.7035    4.6641 H   0  0  0  0  0  0  0  0  0  0  0  0
   -6.3610   -0.9617    5.8154 H   0  0  0  0  0  0  0  0  0  0  0  0
   -5.8415   -3.3310    6.4199 H   0  0  0  0  0  0  0  0  0  0  0  0
   -3.6249   -4.2981    5.7596 H   0  0  0  0  0  0  0  0  0  0  0  0
   -1.9719   -2.9185    4.5693 H   0  0  0  0  0  0  0  0  0  0  0  0
   -2.1582   -1.0112    1.2409 H   0  0  0  0  0  0  0  0  0  0  0  0
  1  2  1  0
  1 73  1  0
  1 74  1  0
  1 75  1  0
  3  2  1  6
  2 76  1  0
  2 77  1  0
  3  4  1  0
  3  6  1  0
  3 72  1  0
  4  5  1  0
  4 78  1  0
  4 79  1  0
  5 80  1  0
  5 81  1  0
  5 82  1  0
  6  7  2  0
  6 52  1  0
  7  8  1  0
  7 83  1  0
  8  9  1  0
  8 50  2  0
  9 10  2  0
  9 84  1  0
 10 11  1  0
 10 85  1  0
 11 12  2  0
 11 49  1  0
 12 13  1  0
 12 86  1  0
 13 14  2  0
 13 87  1  0
 14 15  1  0
 14 48  1  0
 15 16  2  0
 15 88  1  0
 16 17  1  0
 16 89  1  0
 17 18  2  0
 17 22  1  0
 18 19  1  0
 18 90  1  0
 19 20  2  0
 19 91  1  0
 20 21  1  0
 20 47  1  0
 21 22  2  0
 21 23  1  0
 22 92  1  0
 23 24  1  1
 23 26  1  0
 23 28  1  0
 24 25  1  0
 24 93  1  0
 24 94  1  0
 25 95  1  0
 25 96  1  0
 25 97  1  0
 26 27  1  0
 26 98  1  0
 26 99  1  0
 27100  1  0
 27101  1  0
 27102  1  0
 28 29  1  0
 28 47  2  0
 29 30  2  0
 29103  1  0
 30 31  1  0
 30 45  1  0
 31 32  1  0
 31 44  1  0
 32 33  2  0
 32 37  1  0
 33 34  1  0
 33104  1  0
 34 35  2  0
 34105  1  0
 35 36  1  0
 35106  1  0
 36 37  2  0
 36107  1  0
 37 38  1  0
 38 39  1  0
 39 40  2  0
 39 44  1  0
 40 41  1  0
 40108  1  0
 41 42  2  0
 41109  1  0
 42 43  1  0
 42110  1  0
 43 44  2  0
 43111  1  0
 45 46  2  0
 45112  1  0
 46 47  1  0
 46113  1  0
 48 49  2  0
 48114  1  0
 49115  1  0
 50 51  1  0
 50116  1  0
 51 52  2  0
 51117  1  0
 52 53  1  0
 53 54  2  0
 53 72  1  0
 54 55  1  0
 54118  1  0
 55 56  2  0
 55119  1  0
 56 57  1  0
 56 71  1  0
 57 58  1  0
 57 70  1  0
 58 59  2  0
 58 63  1  0
 59 60  1  0
 59120  1  0
 60 61  2  0
 60121  1  0
 61 62  1  0
 61122  1  0
 62 63  2  0
 62123  1  0
 63 64  1  0
 64 65  1  0
 65 66  2  0
 65 70  1  0
 66 67  1  0
 66124  1  0
 67 68  2  0
 67125  1  0
 68 69  1  0
 68126  1  0
 69 70  2  0
 69127  1  0
 71 72  2  0
 71128  1  0
M  END

