
     RDKit          3D

 41 42  0  0  0  0  0  0  0  0999 V2000
    6.5917    2.1091   -1.0289 C   0  0  0  0  0  0  0  0  0  0  0  0
    6.1791    0.7254   -0.5281 C   0  0  0  0  0  0  0  0  0  0  0  0
    5.1136    0.1132   -1.3158 N   0  0  0  0  0  0  0  0  0  0  0  0
    3.7661    0.2968   -1.1120 C   0  0  0  0  0  0  0  0  0  0  0  0
    3.0764   -0.3647   -2.1101 C   0  0  0  0  0  0  0  0  0  0  0  0
    4.0482   -0.9694   -2.9632 C   0  0  0  0  0  0  0  0  0  0  0  0
    3.7882   -1.8338   -4.1596 C   0  0  0  0  0  0  0  0  0  0  0  0
    3.8083   -3.2441   -3.8088 N   0  0  0  0  0  0  0  0  0  0  0  0
    3.8331   -4.3288   -4.6667 C   0  0  0  0  0  0  0  0  0  0  0  0
    3.8447   -4.1194   -6.0638 C   0  0  0  0  0  0  0  0  0  0  0  0
    3.8443   -5.2228   -6.9655 C   0  0  0  0  0  0  0  0  0  0  0  0
    3.8028   -5.1156   -8.4159 C   0  0  0  0  0  0  0  0  0  0  0  0
    3.9880   -6.0862   -9.1751 O   0  0  0  0  0  0  0  0  0  0  0  0
    3.5807   -3.8149   -8.9322 N   0  0  0  0  0  0  0  0  0  0  0  0
    3.4351   -3.6922  -10.3681 C   0  0  0  0  0  0  0  0  0  0  0  0
    3.9310   -6.5206   -6.3626 C   0  0  0  0  0  0  0  0  0  0  0  0
    3.9198   -6.7082   -4.9854 C   0  0  0  0  0  0  0  0  0  0  0  0
    3.8523   -5.6299   -4.0721 C   0  0  0  0  0  0  0  0  0  0  0  0
    3.8278   -5.8471   -2.5837 C   0  0  0  0  0  0  0  0  0  0  0  0
    5.2951   -0.6525   -2.4374 C   0  0  0  0  0  0  0  0  0  0  0  0
    7.3966    2.5164   -0.3971 H   0  0  0  0  0  0  0  0  0  0  0  0
    5.7440    2.8110   -0.9996 H   0  0  0  0  0  0  0  0  0  0  0  0
    6.9603    2.0624   -2.0653 H   0  0  0  0  0  0  0  0  0  0  0  0
    5.8324    0.7802    0.5156 H   0  0  0  0  0  0  0  0  0  0  0  0
    7.0401    0.0390   -0.5384 H   0  0  0  0  0  0  0  0  0  0  0  0
    3.4039    0.8841   -0.2705 H   0  0  0  0  0  0  0  0  0  0  0  0
    1.9942   -0.4126   -2.2193 H   0  0  0  0  0  0  0  0  0  0  0  0
    4.5400   -1.6582   -4.9472 H   0  0  0  0  0  0  0  0  0  0  0  0
    2.8088   -1.5885   -4.6107 H   0  0  0  0  0  0  0  0  0  0  0  0
    3.7728   -3.4438   -2.8134 H   0  0  0  0  0  0  0  0  0  0  0  0
    3.9155   -3.1068   -6.4598 H   0  0  0  0  0  0  0  0  0  0  0  0
    2.8925   -3.2789   -8.4070 H   0  0  0  0  0  0  0  0  0  0  0  0
    4.3002   -4.1568  -10.8610 H   0  0  0  0  0  0  0  0  0  0  0  0
    3.3963   -2.6266  -10.6462 H   0  0  0  0  0  0  0  0  0  0  0  0
    2.5349   -4.1969  -10.7730 H   0  0  0  0  0  0  0  0  0  0  0  0
    4.0094   -7.3695   -7.0457 H   0  0  0  0  0  0  0  0  0  0  0  0
    3.9696   -7.7277   -4.5912 H   0  0  0  0  0  0  0  0  0  0  0  0
    3.7941   -6.9236   -2.3607 H   0  0  0  0  0  0  0  0  0  0  0  0
    2.9426   -5.4034   -2.0858 H   0  0  0  0  0  0  0  0  0  0  0  0
    4.7218   -5.4498   -2.0620 H   0  0  0  0  0  0  0  0  0  0  0  0
    6.2932   -0.9121   -2.7864 H   0  0  0  0  0  0  0  0  0  0  0  0
  1  2  1  0
  1 21  1  0
  1 22  1  0
  1 23  1  0
  2  3  1  0
  2 24  1  0
  2 25  1  0
  3  4  1  0
  3 20  1  0
  4  5  2  0
  4 26  1  0
  5  6  1  0
  5 27  1  0
  6  7  1  0
  6 20  2  0
  7  8  1  0
  7 28  1  0
  7 29  1  0
  8  9  1  0
  8 30  1  0
  9 10  2  0
  9 18  1  0
 10 11  1  0
 10 31  1  0
 11 12  1  0
 11 16  2  0
 12 13  2  0
 12 14  1  0
 14 15  1  0
 14 32  1  0
 15 33  1  0
 15 34  1  0
 15 35  1  0
 16 17  1  0
 16 36  1  0
 17 18  2  0
 17 37  1  0
 18 19  1  0
 19 38  1  0
 19 39  1  0
 19 40  1  0
 20 41  1  0
M  END

