
     RDKit          3D

 36 38  0  0  0  0  0  0  0  0999 V2000
    1.0153    0.0878    0.3609 C   0  0  0  0  0  0  0  0  0  0  0  0
    2.5036    0.0662    0.1358 C   0  0  0  0  0  0  0  0  0  0  0  0
    3.1691    1.0995   -0.5502 C   0  0  0  0  0  0  0  0  0  0  0  0
    4.5422    1.0163   -0.7509 C   0  0  0  0  0  0  0  0  0  0  0  0
    5.2407   -0.0994   -0.2574 C   0  0  0  0  0  0  0  0  0  0  0  0
    6.6948   -0.2202   -0.4353 C   0  0  0  0  0  0  0  0  0  0  0  0
    7.4351    0.8572   -0.5164 N   0  0  0  0  0  0  0  0  0  0  0  0
    8.7534    0.4486   -0.6937 O   0  0  0  0  0  0  0  0  0  0  0  0
    8.8074   -0.8888   -0.7150 C   0  0  0  0  0  0  0  0  0  0  0  0
    9.9848   -1.5551   -0.8929 N   0  0  0  0  0  0  0  0  0  0  0  0
   11.2773   -1.0205   -0.9884 C   0  0  0  0  0  0  0  0  0  0  0  0
   11.4965    0.1672   -0.8468 O   0  0  0  0  0  0  0  0  0  0  0  0
   12.3507   -2.0254   -1.2613 C   0  0  0  0  0  0  0  0  0  0  0  0
   12.1223   -3.3329   -1.7287 C   0  0  0  0  0  0  0  0  0  0  0  0
   13.1852   -4.2045   -1.9675 C   0  0  0  0  0  0  0  0  0  0  0  0
   14.4945   -3.7671   -1.7438 C   0  0  0  0  0  0  0  0  0  0  0  0
   15.9483   -4.9524   -2.0648 Br  0  0  0  0  0  0  0  0  0  0  0  0
   14.7472   -2.4658   -1.2945 C   0  0  0  0  0  0  0  0  0  0  0  0
   13.6781   -1.6041   -1.0623 C   0  0  0  0  0  0  0  0  0  0  0  0
    7.5042   -1.4230   -0.5651 C   0  0  0  0  0  0  0  0  0  0  0  0
    7.1320   -2.7647   -0.6236 C   0  0  0  0  0  0  0  0  0  0  0  0
    7.9798   -3.7427   -0.7799 O   0  0  0  0  0  0  0  0  0  0  0  0
    4.4873   -1.0631    0.4391 C   0  0  0  0  0  0  0  0  0  0  0  0
    3.1726   -0.9885    0.6229 N   0  0  0  0  0  0  0  0  0  0  0  0
    0.5467    0.9927   -0.0507 H   0  0  0  0  0  0  0  0  0  0  0  0
    0.7948    0.0307    1.4390 H   0  0  0  0  0  0  0  0  0  0  0  0
    0.5485   -0.7960   -0.1036 H   0  0  0  0  0  0  0  0  0  0  0  0
    2.6066    1.9555   -0.9296 H   0  0  0  0  0  0  0  0  0  0  0  0
    5.0852    1.7976   -1.2864 H   0  0  0  0  0  0  0  0  0  0  0  0
    9.8997   -2.5661   -0.8825 H   0  0  0  0  0  0  0  0  0  0  0  0
   11.1127   -3.6911   -1.9469 H   0  0  0  0  0  0  0  0  0  0  0  0
   12.9979   -5.2147   -2.3347 H   0  0  0  0  0  0  0  0  0  0  0  0
   15.7730   -2.1322   -1.1299 H   0  0  0  0  0  0  0  0  0  0  0  0
   13.8502   -0.5822   -0.7196 H   0  0  0  0  0  0  0  0  0  0  0  0
    6.0755   -3.0826   -0.5752 H   0  0  0  0  0  0  0  0  0  0  0  0
    4.9900   -1.9208    0.9018 H   0  0  0  0  0  0  0  0  0  0  0  0
  1  2  1  0
  1 25  1  0
  1 26  1  0
  1 27  1  0
  2  3  2  0
  2 24  1  0
  3  4  1  0
  3 28  1  0
  4  5  2  0
  4 29  1  0
  5  6  1  0
  5 23  1  0
  6  7  2  0
  6 20  1  0
  7  8  1  0
  8  9  1  0
  9 10  1  0
  9 20  2  0
 10 11  1  0
 10 30  1  0
 11 12  2  0
 11 13  1  0
 13 14  2  0
 13 19  1  0
 14 15  1  0
 14 31  1  0
 15 16  2  0
 15 32  1  0
 16 17  1  0
 16 18  1  0
 18 19  2  0
 18 33  1  0
 19 34  1  0
 20 21  1  0
 21 22  2  0
 21 35  1  0
 23 24  2  0
 23 36  1  0
M  END

