
     RDKit          3D

 47 49  0  0  0  0  0  0  0  0999 V2000
    1.1652   -0.9768   -0.0159 C   0  0  0  0  0  0  0  0  0  0  0  0
    1.9959    0.1669    0.2544 N   0  0  0  0  0  0  0  0  0  0  0  0
    1.8567    1.3822   -0.5038 C   0  0  0  0  0  0  0  0  0  0  0  0
    3.0263    0.0722    1.2567 C   0  0  0  0  0  0  0  0  0  0  0  0
    2.7590    0.4232    2.5847 C   0  0  0  0  0  0  0  0  0  0  0  0
    3.7473    0.3351    3.5545 C   0  0  0  0  0  0  0  0  0  0  0  0
    5.0868   -0.1305    3.1887 C   0  0  0  0  0  0  0  0  0  0  0  0
    6.1697   -0.2275    4.2309 C   0  0  1  0  0  0  0  0  0  0  0  0
    6.5949    1.1122    4.8879 C   0  0  0  0  0  0  0  0  0  0  0  0
    7.2806    0.6864    6.1862 C   0  0  0  0  0  0  0  0  0  0  0  0
    6.3486   -0.4127    6.7336 C   0  0  2  0  0  0  0  0  0  0  0  0
    6.9906   -1.3148    7.6963 N   0  0  0  0  0  0  0  0  0  0  0  0
    7.7180   -0.6884    8.7993 C   0  0  0  0  0  0  0  0  0  0  0  0
    6.8102   -0.1877    9.9314 C   0  0  0  0  0  0  0  0  0  0  0  0
    5.9971   -1.2993   10.4149 N   0  0  0  0  0  0  0  0  0  0  0  0
    5.1979   -1.9010    9.3519 C   0  0  0  0  0  0  0  0  0  0  0  0
    6.1286   -2.3729    8.2248 C   0  0  0  0  0  0  0  0  0  0  0  0
    5.8528   -1.1504    5.4587 C   0  0  0  0  0  0  0  0  0  0  0  0
    5.3145   -0.4737    1.8569 C   0  0  0  0  0  0  0  0  0  0  0  0
    4.3439   -0.3979    0.8474 C   0  0  0  0  0  0  0  0  0  0  0  0
    0.4781   -0.8100   -0.8562 H   0  0  0  0  0  0  0  0  0  0  0  0
    0.6042   -1.2190    0.9032 H   0  0  0  0  0  0  0  0  0  0  0  0
    1.8235   -1.8396   -0.2075 H   0  0  0  0  0  0  0  0  0  0  0  0
    1.6194    2.2002    0.1979 H   0  0  0  0  0  0  0  0  0  0  0  0
    1.0889    1.3065   -1.2855 H   0  0  0  0  0  0  0  0  0  0  0  0
    2.8397    1.6287   -0.9375 H   0  0  0  0  0  0  0  0  0  0  0  0
    1.7580    0.7731    2.8630 H   0  0  0  0  0  0  0  0  0  0  0  0
    3.5159    0.6172    4.5829 H   0  0  0  0  0  0  0  0  0  0  0  0
    7.0689   -0.6349    3.7377 H   0  0  0  0  0  0  0  0  0  0  0  0
    5.7015    1.7207    5.1118 H   0  0  0  0  0  0  0  0  0  0  0  0
    7.2373    1.7156    4.2271 H   0  0  0  0  0  0  0  0  0  0  0  0
    7.4356    1.5207    6.8889 H   0  0  0  0  0  0  0  0  0  0  0  0
    8.2673    0.2401    5.9681 H   0  0  0  0  0  0  0  0  0  0  0  0
    5.4733    0.1127    7.1789 H   0  0  0  0  0  0  0  0  0  0  0  0
    8.3437    0.1318    8.4204 H   0  0  0  0  0  0  0  0  0  0  0  0
    8.3987   -1.4470    9.2273 H   0  0  0  0  0  0  0  0  0  0  0  0
    6.1993    0.6691    9.5629 H   0  0  0  0  0  0  0  0  0  0  0  0
    7.4304    0.1940   10.7605 H   0  0  0  0  0  0  0  0  0  0  0  0
    5.4029   -1.0016   11.1860 H   0  0  0  0  0  0  0  0  0  0  0  0
    4.4374   -1.2016    8.9341 H   0  0  0  0  0  0  0  0  0  0  0  0
    4.6468   -2.7661    9.7588 H   0  0  0  0  0  0  0  0  0  0  0  0
    5.5399   -2.8156    7.4083 H   0  0  0  0  0  0  0  0  0  0  0  0
    6.7765   -3.1697    8.6339 H   0  0  0  0  0  0  0  0  0  0  0  0
    4.7763   -1.3730    5.5100 H   0  0  0  0  0  0  0  0  0  0  0  0
    6.3834   -2.1099    5.3594 H   0  0  0  0  0  0  0  0  0  0  0  0
    6.3140   -0.8265    1.5758 H   0  0  0  0  0  0  0  0  0  0  0  0
    4.5637   -0.6803   -0.1822 H   0  0  0  0  0  0  0  0  0  0  0  0
  1  2  1  0
  1 21  1  0
  1 22  1  0
  1 23  1  0
  2  3  1  0
  2  4  1  0
  3 24  1  0
  3 25  1  0
  3 26  1  0
  4  5  2  0
  4 20  1  0
  5  6  1  0
  5 27  1  0
  6  7  2  0
  6 28  1  0
  7  8  1  0
  7 19  1  0
  8  9  1  0
  8 18  1  0
  8 29  1  6
  9 10  1  0
  9 30  1  0
  9 31  1  0
 10 11  1  0
 10 32  1  0
 10 33  1  0
 11 12  1  0
 11 18  1  0
 11 34  1  1
 12 13  1  0
 12 17  1  0
 13 14  1  0
 13 35  1  0
 13 36  1  0
 14 15  1  0
 14 37  1  0
 14 38  1  0
 15 16  1  0
 15 39  1  0
 16 17  1  0
 16 40  1  0
 16 41  1  0
 17 42  1  0
 17 43  1  0
 18 44  1  0
 18 45  1  0
 19 20  2  0
 19 46  1  0
 20 47  1  0
M  END

