
     RDKit          3D

 53 56  0  0  0  0  0  0  0  0999 V2000
    1.3967    0.3808    0.4150 C   0  0  0  0  0  0  0  0  0  0  0  0
    2.8797    0.7316    0.2259 C   0  0  1  0  0  0  0  0  0  0  0  0
    3.3994    1.2848    1.5646 C   0  0  0  0  0  0  0  0  0  0  0  0
    3.7387   -0.4426   -0.3576 C   0  0  1  0  0  0  0  0  0  0  0  0
    3.0957   -0.6787   -1.7394 C   0  0  0  0  0  0  0  0  0  0  0  0
    2.7615    0.7617   -2.2178 C   0  0  0  0  0  0  0  0  0  0  0  0
    3.1707    1.6753   -1.0111 C   0  0  1  0  0  0  0  0  0  0  0  0
    2.5994    3.0868   -0.9559 C   0  0  0  0  0  0  0  0  0  0  0  0
    2.2626    3.8459   -2.5888 S   0  0  1  0  0  0  0  0  0  0  0  0
    3.4040    3.5912   -3.4679 O   0  0  0  0  0  0  0  0  0  0  0  0
    0.9168    3.4116   -2.9817 O   0  0  0  0  0  0  0  0  0  0  0  0
    2.1538    5.4993   -2.3180 N   0  0  0  0  0  0  0  0  0  0  0  0
    0.8455    6.0976   -2.0650 C   0  0  0  0  0  0  0  0  0  0  0  0
    0.7388    6.8518   -0.7395 C   0  0  0  0  0  0  0  0  0  0  0  0
   -0.3436    7.2000   -0.3041 O   0  0  0  0  0  0  0  0  0  0  0  0
    1.9169    7.1452   -0.1112 N   0  0  0  0  0  0  0  0  0  0  0  0
    3.2641    6.7724   -0.5252 C   0  0  2  0  0  0  0  0  0  0  0  0
    4.2691    7.8936   -0.2316 C   0  0  0  0  0  0  0  0  0  0  0  0
    5.6784    7.4960   -0.6849 C   0  0  0  0  0  0  0  0  0  0  0  0
    5.6915    7.0882   -2.1637 C   0  0  0  0  0  0  0  0  0  0  0  0
    4.6777    5.9751   -2.4667 C   0  0  0  0  0  0  0  0  0  0  0  0
    3.2752    6.4097   -2.0221 C   0  0  1  0  0  0  0  0  0  0  0  0
    4.7073    1.6544   -0.9791 C   0  0  0  0  0  0  0  0  0  0  0  0
    5.4474    2.5975   -1.1148 O   0  0  0  0  0  0  0  0  0  0  0  0
    5.1078    0.2215   -0.6099 C   0  0  0  0  0  0  0  0  0  0  0  0
    1.2965   -0.4276    1.1580 H   0  0  0  0  0  0  0  0  0  0  0  0
    0.8952    0.0514   -0.5041 H   0  0  0  0  0  0  0  0  0  0  0  0
    0.8352    1.2456    0.8036 H   0  0  0  0  0  0  0  0  0  0  0  0
    3.3145    0.5179    2.3515 H   0  0  0  0  0  0  0  0  0  0  0  0
    2.7953    2.1481    1.8882 H   0  0  0  0  0  0  0  0  0  0  0  0
    4.4478    1.6155    1.5370 H   0  0  0  0  0  0  0  0  0  0  0  0
    3.7849   -1.3362    0.2829 H   0  0  0  0  0  0  0  0  0  0  0  0
    2.1932   -1.3021   -1.6656 H   0  0  0  0  0  0  0  0  0  0  0  0
    3.7855   -1.1975   -2.4220 H   0  0  0  0  0  0  0  0  0  0  0  0
    1.6933    0.8964   -2.4369 H   0  0  0  0  0  0  0  0  0  0  0  0
    3.3007    1.0567   -3.1270 H   0  0  0  0  0  0  0  0  0  0  0  0
    3.3067    3.7561   -0.4476 H   0  0  0  0  0  0  0  0  0  0  0  0
    1.6258    3.1271   -0.4473 H   0  0  0  0  0  0  0  0  0  0  0  0
    0.0652    5.3279   -2.0849 H   0  0  0  0  0  0  0  0  0  0  0  0
    0.5935    6.8167   -2.8678 H   0  0  0  0  0  0  0  0  0  0  0  0
    1.8046    7.6316    0.7748 H   0  0  0  0  0  0  0  0  0  0  0  0
    3.5915    5.8747    0.0376 H   0  0  0  0  0  0  0  0  0  0  0  0
    4.2572    8.1276    0.8474 H   0  0  0  0  0  0  0  0  0  0  0  0
    3.9404    8.8076   -0.7576 H   0  0  0  0  0  0  0  0  0  0  0  0
    6.0339    6.6493   -0.0706 H   0  0  0  0  0  0  0  0  0  0  0  0
    6.3797    8.3271   -0.5059 H   0  0  0  0  0  0  0  0  0  0  0  0
    6.6988    6.7513   -2.4565 H   0  0  0  0  0  0  0  0  0  0  0  0
    5.4663    7.9731   -2.7870 H   0  0  0  0  0  0  0  0  0  0  0  0
    4.9793    5.0467   -1.9571 H   0  0  0  0  0  0  0  0  0  0  0  0
    4.6618    5.7382   -3.5387 H   0  0  0  0  0  0  0  0  0  0  0  0
    3.0324    7.3379   -2.5765 H   0  0  0  0  0  0  0  0  0  0  0  0
    5.7658    0.2508    0.2721 H   0  0  0  0  0  0  0  0  0  0  0  0
    5.6843   -0.2473   -1.4232 H   0  0  0  0  0  0  0  0  0  0  0  0
  2  1  1  1
  1 26  1  0
  1 27  1  0
  1 28  1  0
  2  3  1  0
  2  4  1  0
  2  7  1  0
  3 29  1  0
  3 30  1  0
  3 31  1  0
  4  5  1  0
  4 25  1  0
  4 32  1  1
  5  6  1  0
  5 33  1  0
  5 34  1  0
  6  7  1  0
  6 35  1  0
  6 36  1  0
  7  8  1  1
  7 23  1  0
  9  8  1  1
  8 37  1  0
  8 38  1  0
  9 10  2  0
  9 11  2  0
  9 12  1  0
 12 13  1  0
 12 22  1  0
 13 14  1  0
 13 39  1  0
 13 40  1  0
 14 15  2  0
 14 16  1  0
 16 17  1  0
 16 41  1  0
 17 18  1  0
 17 22  1  0
 17 42  1  1
 18 19  1  0
 18 43  1  0
 18 44  1  0
 19 20  1  0
 19 45  1  0
 19 46  1  0
 20 21  1  0
 20 47  1  0
 20 48  1  0
 21 22  1  0
 21 49  1  0
 21 50  1  0
 22 51  1  6
 23 24  2  0
 23 25  1  0
 25 52  1  0
 25 53  1  0
M  END

