
     RDKit          3D

 39 41  0  0  0  0  0  0  0  0999 V2000
    3.5077    1.5386    3.2921 O   0  0  0  0  0  0  0  0  0  0  0  0
    3.6607    0.9367    2.2331 C   0  0  0  0  0  0  0  0  0  0  0  0
    3.4254    1.4778    0.9879 N   0  0  0  0  0  0  0  0  0  0  0  0
    2.9748    2.7672    0.6478 C   0  0  0  0  0  0  0  0  0  0  0  0
    2.7472    3.1245   -0.9626 S   0  0  0  0  0  0  0  0  0  0  0  0
    2.7874    3.5949    1.6959 N   0  0  0  0  0  0  0  0  0  0  0  0
    2.2352    4.9111    1.6136 C   0  0  0  0  0  0  0  0  0  0  0  0
    0.9273    5.0771    2.0844 C   0  0  0  0  0  0  0  0  0  0  0  0
    0.2682    6.3027    2.0117 C   0  0  0  0  0  0  0  0  0  0  0  0
    0.9408    7.3805    1.4303 C   0  0  0  0  0  0  0  0  0  0  0  0
    2.2487    7.2427    0.9759 C   0  0  0  0  0  0  0  0  0  0  0  0
    2.9595    6.0182    1.0800 C   0  0  0  0  0  0  0  0  0  0  0  0
    4.2758    5.9520    0.6732 N   0  0  0  0  0  0  0  0  0  0  0  0
    5.2755    4.9926    1.1566 C   0  0  0  0  0  0  0  0  0  0  0  0
    6.6142    5.6877    0.8764 C   0  0  0  0  0  0  0  0  0  0  0  0
    6.3080    6.5142   -0.3772 C   0  0  0  0  0  0  0  0  0  0  0  0
    4.8974    7.0333   -0.0887 C   0  0  0  0  0  0  0  0  0  0  0  0
    4.1237   -0.4608    2.2146 C   0  0  0  0  0  0  0  0  0  0  0  0
    4.4510   -1.3078    3.2430 C   0  0  0  0  0  0  0  0  0  0  0  0
    4.8316   -2.5423    2.6345 C   0  0  0  0  0  0  0  0  0  0  0  0
    4.7071   -2.3539    1.2837 C   0  0  0  0  0  0  0  0  0  0  0  0
    4.2798   -1.0987    1.0179 O   0  0  0  0  0  0  0  0  0  0  0  0
    3.5703    0.8858    0.1747 H   0  0  0  0  0  0  0  0  0  0  0  0
    2.9173    3.1666    2.6193 H   0  0  0  0  0  0  0  0  0  0  0  0
    0.4176    4.1990    2.4891 H   0  0  0  0  0  0  0  0  0  0  0  0
   -0.7552    6.4057    2.3779 H   0  0  0  0  0  0  0  0  0  0  0  0
    0.4466    8.3514    1.3367 H   0  0  0  0  0  0  0  0  0  0  0  0
    2.7467    8.1123    0.5492 H   0  0  0  0  0  0  0  0  0  0  0  0
    5.2202    4.0395    0.6025 H   0  0  0  0  0  0  0  0  0  0  0  0
    5.1328    4.7696    2.2258 H   0  0  0  0  0  0  0  0  0  0  0  0
    7.4386    4.9710    0.7429 H   0  0  0  0  0  0  0  0  0  0  0  0
    6.8820    6.3550    1.7130 H   0  0  0  0  0  0  0  0  0  0  0  0
    6.2962    5.8644   -1.2677 H   0  0  0  0  0  0  0  0  0  0  0  0
    7.0277    7.3263   -0.5591 H   0  0  0  0  0  0  0  0  0  0  0  0
    4.3235    7.2509   -1.0051 H   0  0  0  0  0  0  0  0  0  0  0  0
    4.9463    7.9736    0.4990 H   0  0  0  0  0  0  0  0  0  0  0  0
    4.4160   -1.0575    4.3004 H   0  0  0  0  0  0  0  0  0  0  0  0
    5.1556   -3.4538    3.1321 H   0  0  0  0  0  0  0  0  0  0  0  0
    4.8786   -2.9947    0.4223 H   0  0  0  0  0  0  0  0  0  0  0  0
  1  2  2  0
  2  3  1  0
  2 18  1  0
  3  4  1  0
  3 23  1  0
  4  5  2  0
  4  6  1  0
  6  7  1  0
  6 24  1  0
  7  8  2  0
  7 12  1  0
  8  9  1  0
  8 25  1  0
  9 10  2  0
  9 26  1  0
 10 11  1  0
 10 27  1  0
 11 12  2  0
 11 28  1  0
 12 13  1  0
 13 14  1  0
 13 17  1  0
 14 15  1  0
 14 29  1  0
 14 30  1  0
 15 16  1  0
 15 31  1  0
 15 32  1  0
 16 17  1  0
 16 33  1  0
 16 34  1  0
 17 35  1  0
 17 36  1  0
 18 19  2  0
 18 22  1  0
 19 20  1  0
 19 37  1  0
 20 21  2  0
 20 38  1  0
 21 22  1  0
 21 39  1  0
M  END

