
     RDKit          3D

 81 82  0  0  0  0  0  0  0  0999 V2000
    2.2794    2.4441   -0.1240 C   0  0  0  0  0  0  0  0  0  0  0  0
    2.0150    3.5090   -1.1962 C   0  0  1  0  0  0  0  0  0  0  0  0
    2.6080    4.8630   -0.7805 C   0  0  0  0  0  0  0  0  0  0  0  0
    2.5263    3.0220   -2.5655 C   0  0  0  0  0  0  0  0  0  0  0  0
    2.0872    3.8982   -3.7395 C   0  0  0  0  0  0  0  0  0  0  0  0
    2.5742    3.4277   -5.0539 N   0  0  0  0  0  0  0  0  0  0  0  0
    1.6886    2.6316   -5.9239 C   0  0  0  0  0  0  0  0  0  0  0  0
    2.2300    1.2461   -6.3602 C   0  0  1  0  0  0  0  0  0  0  0  0
    1.6113    0.9578   -7.2393 H   0  0  0  0  0  0  0  0  0  0  0  0
    3.5907    1.2786   -6.7141 O   0  0  0  0  0  0  0  0  0  0  0  0
    2.0267    0.1224   -5.3145 C   0  0  2  0  0  0  0  0  0  0  0  0
    2.4131    0.4733   -4.3477 H   0  0  0  0  0  0  0  0  0  0  0  0
    2.7644   -1.1574   -5.7480 C   0  0  0  0  0  0  0  0  0  0  0  0
    2.6609   -2.3631   -4.8329 C   0  0  0  0  0  0  0  0  0  0  0  0
    2.5257   -2.2588   -3.4382 C   0  0  0  0  0  0  0  0  0  0  0  0
    2.4889   -3.4017   -2.6316 C   0  0  0  0  0  0  0  0  0  0  0  0
    2.5888   -4.6747   -3.1986 C   0  0  0  0  0  0  0  0  0  0  0  0
    2.7227   -4.7953   -4.5859 C   0  0  0  0  0  0  0  0  0  0  0  0
    2.7529   -3.6517   -5.3893 C   0  0  0  0  0  0  0  0  0  0  0  0
    0.5985   -0.1302   -5.1433 N   0  0  0  0  0  0  0  0  0  0  0  0
   -0.0695   -0.0244   -3.9630 C   0  0  0  0  0  0  0  0  0  0  0  0
    0.4198    0.4406   -2.9402 O   0  0  0  0  0  0  0  0  0  0  0  0
   -1.5149   -0.5903   -4.0466 C   0  0  1  0  0  0  0  0  0  0  0  0
   -1.8931   -0.3260   -5.0467 H   0  0  0  0  0  0  0  0  0  0  0  0
   -1.4456   -2.0505   -4.0304 N   0  0  0  0  0  0  0  0  0  0  0  0
   -1.2352   -2.7756   -5.1486 C   0  0  0  0  0  0  0  0  0  0  0  0
   -1.0550   -2.2816   -6.2589 O   0  0  0  0  0  0  0  0  0  0  0  0
   -1.1562   -4.2924   -5.0272 C   0  0  0  0  0  0  0  0  0  0  0  0
   -1.9153   -5.0944   -3.4002 Br  0  0  0  0  0  0  0  0  0  0  0  0
   -2.5328   -0.0409   -3.0051 C   0  0  1  0  0  0  0  0  0  0  0  0
   -2.5408    1.4980   -3.0864 C   0  0  0  0  0  0  0  0  0  0  0  0
   -3.9343   -0.5643   -3.3820 C   0  0  0  0  0  0  0  0  0  0  0  0
   -2.1940   -0.4836   -1.5671 C   0  0  0  0  0  0  0  0  0  0  0  0
    3.6177    4.4957   -5.8460 S   0  0  1  0  0  0  0  0  0  0  0  0
    3.7936    3.9485   -7.2084 O   0  0  0  0  0  0  0  0  0  0  0  0
    3.1824    5.8897   -5.7070 O   0  0  0  0  0  0  0  0  0  0  0  0
    5.1660    4.3249   -4.9513 C   0  0  0  0  0  0  0  0  0  0  0  0
    5.7656    3.0642   -4.8419 C   0  0  0  0  0  0  0  0  0  0  0  0
    6.9942    2.9639   -4.1872 C   0  0  0  0  0  0  0  0  0  0  0  0
    7.6080    4.1059   -3.6571 C   0  0  0  0  0  0  0  0  0  0  0  0
    6.9974    5.3570   -3.7812 C   0  0  0  0  0  0  0  0  0  0  0  0
    5.7667    5.4751   -4.4347 C   0  0  0  0  0  0  0  0  0  0  0  0
    1.8869    2.7564    0.8577 H   0  0  0  0  0  0  0  0  0  0  0  0
    3.3624    2.2645   -0.0064 H   0  0  0  0  0  0  0  0  0  0  0  0
    1.8062    1.4867   -0.3923 H   0  0  0  0  0  0  0  0  0  0  0  0
    0.9172    3.6299   -1.2768 H   0  0  0  0  0  0  0  0  0  0  0  0
    3.7075    4.8025   -0.7023 H   0  0  0  0  0  0  0  0  0  0  0  0
    2.2230    5.1781    0.2031 H   0  0  0  0  0  0  0  0  0  0  0  0
    2.3692    5.6668   -1.4949 H   0  0  0  0  0  0  0  0  0  0  0  0
    2.1473    2.0027   -2.7293 H   0  0  0  0  0  0  0  0  0  0  0  0
    3.6295    2.9669   -2.5501 H   0  0  0  0  0  0  0  0  0  0  0  0
    2.4314    4.9338   -3.6052 H   0  0  0  0  0  0  0  0  0  0  0  0
    0.9851    3.9581   -3.7771 H   0  0  0  0  0  0  0  0  0  0  0  0
    1.4472    3.2039   -6.8334 H   0  0  0  0  0  0  0  0  0  0  0  0
    0.7413    2.4870   -5.3856 H   0  0  0  0  0  0  0  0  0  0  0  0
    3.7695    2.1237   -7.1708 H   0  0  0  0  0  0  0  0  0  0  0  0
    3.8240   -0.8903   -5.8836 H   0  0  0  0  0  0  0  0  0  0  0  0
    2.4088   -1.4446   -6.7533 H   0  0  0  0  0  0  0  0  0  0  0  0
    2.4315   -1.2788   -2.9668 H   0  0  0  0  0  0  0  0  0  0  0  0
    2.3796   -3.2922   -1.5492 H   0  0  0  0  0  0  0  0  0  0  0  0
    2.5607   -5.5657   -2.5663 H   0  0  0  0  0  0  0  0  0  0  0  0
    2.8051   -5.7840   -5.0457 H   0  0  0  0  0  0  0  0  0  0  0  0
    2.8542   -3.7583   -6.4734 H   0  0  0  0  0  0  0  0  0  0  0  0
    0.1259   -0.6578   -5.8816 H   0  0  0  0  0  0  0  0  0  0  0  0
   -1.5073   -2.5379   -3.1418 H   0  0  0  0  0  0  0  0  0  0  0  0
   -0.0984   -4.5888   -5.0544 H   0  0  0  0  0  0  0  0  0  0  0  0
   -1.6785   -4.7320   -5.8843 H   0  0  0  0  0  0  0  0  0  0  0  0
   -2.7503    1.8423   -4.1135 H   0  0  0  0  0  0  0  0  0  0  0  0
   -1.5800    1.9229   -2.7651 H   0  0  0  0  0  0  0  0  0  0  0  0
   -3.3301    1.9063   -2.4355 H   0  0  0  0  0  0  0  0  0  0  0  0
   -4.2293   -0.2341   -4.3917 H   0  0  0  0  0  0  0  0  0  0  0  0
   -4.6852   -0.1834   -2.6718 H   0  0  0  0  0  0  0  0  0  0  0  0
   -3.9811   -1.6638   -3.3610 H   0  0  0  0  0  0  0  0  0  0  0  0
   -1.1845   -0.1621   -1.2809 H   0  0  0  0  0  0  0  0  0  0  0  0
   -2.2643   -1.5781   -1.4430 H   0  0  0  0  0  0  0  0  0  0  0  0
   -2.9182   -0.0458   -0.8616 H   0  0  0  0  0  0  0  0  0  0  0  0
    5.2702    2.1852   -5.2602 H   0  0  0  0  0  0  0  0  0  0  0  0
    7.4761    1.9880   -4.0905 H   0  0  0  0  0  0  0  0  0  0  0  0
    8.5694    4.0180   -3.1448 H   0  0  0  0  0  0  0  0  0  0  0  0
    7.4788    6.2472   -3.3693 H   0  0  0  0  0  0  0  0  0  0  0  0
    5.2689    6.4394   -4.5477 H   0  0  0  0  0  0  0  0  0  0  0  0
  1  2  1  0
  1 43  1  0
  1 44  1  0
  1 45  1  0
  2  3  1  0
  2  4  1  0
  2 46  1  6
  3 47  1  0
  3 48  1  0
  3 49  1  0
  4  5  1  0
  4 50  1  0
  4 51  1  0
  5  6  1  0
  5 52  1  0
  5 53  1  0
  6  7  1  0
 34  6  1  1
  7  8  1  0
  7 54  1  0
  7 55  1  0
  8  9  1  6
  8 10  1  0
  8 11  1  0
 10 56  1  0
 11 12  1  1
 11 13  1  0
 11 20  1  0
 13 14  1  0
 13 57  1  0
 13 58  1  0
 14 15  2  0
 14 19  1  0
 15 16  1  0
 15 59  1  0
 16 17  2  0
 16 60  1  0
 17 18  1  0
 17 61  1  0
 18 19  2  0
 18 62  1  0
 19 63  1  0
 20 21  1  0
 20 64  1  0
 21 22  2  0
 21 23  1  0
 23 24  1  6
 23 25  1  0
 23 30  1  0
 25 26  1  0
 25 65  1  0
 26 27  2  0
 26 28  1  0
 28 29  1  0
 28 66  1  0
 28 67  1  0
 30 31  1  1
 30 32  1  0
 30 33  1  0
 31 68  1  0
 31 69  1  0
 31 70  1  0
 32 71  1  0
 32 72  1  0
 32 73  1  0
 33 74  1  0
 33 75  1  0
 33 76  1  0
 34 35  2  0
 34 36  2  0
 34 37  1  0
 37 38  2  0
 37 42  1  0
 38 39  1  0
 38 77  1  0
 39 40  2  0
 39 78  1  0
 40 41  1  0
 40 79  1  0
 41 42  2  0
 41 80  1  0
 42 81  1  0
M  END

