
     RDKit          3D

 46 49  0  0  0  0  0  0  0  0999 V2000
    6.1097   -0.9702    1.5226 O   0  0  0  0  0  0  0  0  0  0  0  0
    5.0175   -0.6869    1.0117 C   0  0  0  0  0  0  0  0  0  0  0  0
    3.8713   -0.6127    2.0195 N   0  0  0  0  0  0  0  0  0  0  0  0
    3.1985   -1.6402    2.5133 C   0  0  0  0  0  0  0  0  0  0  0  0
    3.3304   -2.9635    1.9653 C   0  0  0  0  0  0  0  0  0  0  0  0
    2.6197   -4.0081    2.4889 C   0  0  0  0  0  0  0  0  0  0  0  0
    1.7288   -3.8375    3.5973 C   0  0  0  0  0  0  0  0  0  0  0  0
    1.5649   -2.5162    4.1432 C   0  0  0  0  0  0  0  0  0  0  0  0
    2.2852   -1.4722    3.6081 C   0  0  0  0  0  0  0  0  0  0  0  0
    0.6039   -2.2743    5.2839 C   0  0  0  0  0  0  0  0  0  0  0  0
   -0.5278   -3.2966    5.2532 C   0  0  0  0  0  0  0  0  0  0  0  0
    0.0639   -4.6953    5.2354 C   0  0  0  0  0  0  0  0  0  0  0  0
    0.9828   -4.8999    4.0912 N   0  0  0  0  0  0  0  0  0  0  0  0
    1.3286   -6.2587    3.7914 C   0  0  0  0  0  0  0  0  0  0  0  0
    2.4779   -6.5981    3.6260 O   0  0  0  0  0  0  0  0  0  0  0  0
    0.2029   -7.2353    3.6638 C   0  0  0  0  0  0  0  0  0  0  0  0
    0.4508   -8.5893    3.9378 C   0  0  0  0  0  0  0  0  0  0  0  0
   -0.5695   -9.5125    3.7281 C   0  0  0  0  0  0  0  0  0  0  0  0
   -1.7951   -9.0511    3.2316 C   0  0  0  0  0  0  0  0  0  0  0  0
   -2.0330   -7.7706    2.9352 N   0  0  0  0  0  0  0  0  0  0  0  0
   -1.0581   -6.8889    3.1460 C   0  0  0  0  0  0  0  0  0  0  0  0
    4.6671   -0.3788   -0.3248 C   0  0  0  0  0  0  0  0  0  0  0  0
    5.7066   -0.4035   -1.3204 C   0  0  0  0  0  0  0  0  0  0  0  0
    5.4348   -0.1131   -2.6431 C   0  0  0  0  0  0  0  0  0  0  0  0
    4.1328    0.2232   -3.0787 C   0  0  0  0  0  0  0  0  0  0  0  0
    3.1262    0.2535   -2.1063 C   0  0  0  0  0  0  0  0  0  0  0  0
    1.8696    0.5796   -2.4934 F   0  0  0  0  0  0  0  0  0  0  0  0
    3.3453   -0.0282   -0.7729 C   0  0  0  0  0  0  0  0  0  0  0  0
    3.7669    0.2742    2.5095 H   0  0  0  0  0  0  0  0  0  0  0  0
    4.0065   -3.1213    1.1281 H   0  0  0  0  0  0  0  0  0  0  0  0
    2.7527   -4.9947    2.0539 H   0  0  0  0  0  0  0  0  0  0  0  0
    2.1550   -0.4699    4.0240 H   0  0  0  0  0  0  0  0  0  0  0  0
    0.2176   -1.2456    5.2332 H   0  0  0  0  0  0  0  0  0  0  0  0
    1.1447   -2.3580    6.2444 H   0  0  0  0  0  0  0  0  0  0  0  0
   -1.1615   -3.1440    4.3631 H   0  0  0  0  0  0  0  0  0  0  0  0
   -1.1767   -3.1974    6.1364 H   0  0  0  0  0  0  0  0  0  0  0  0
   -0.7206   -5.4582    5.1911 H   0  0  0  0  0  0  0  0  0  0  0  0
    0.6311   -4.8725    6.1679 H   0  0  0  0  0  0  0  0  0  0  0  0
    1.4341   -8.8930    4.3037 H   0  0  0  0  0  0  0  0  0  0  0  0
   -0.4230  -10.5739    3.9387 H   0  0  0  0  0  0  0  0  0  0  0  0
   -2.6200   -9.7524    3.0607 H   0  0  0  0  0  0  0  0  0  0  0  0
   -1.2731   -5.8497    2.8692 H   0  0  0  0  0  0  0  0  0  0  0  0
    6.7163   -0.6581   -0.9962 H   0  0  0  0  0  0  0  0  0  0  0  0
    6.2474   -0.1419   -3.3748 H   0  0  0  0  0  0  0  0  0  0  0  0
    3.8997    0.4556   -4.1174 H   0  0  0  0  0  0  0  0  0  0  0  0
    2.4977    0.0314   -0.0913 H   0  0  0  0  0  0  0  0  0  0  0  0
  1  2  2  0
  2  3  1  0
  2 22  1  0
  3  4  1  0
  3 29  1  0
  4  5  2  0
  4  9  1  0
  5  6  1  0
  5 30  1  0
  6  7  2  0
  6 31  1  0
  7  8  1  0
  7 13  1  0
  8  9  2  0
  8 10  1  0
  9 32  1  0
 10 11  1  0
 10 33  1  0
 10 34  1  0
 11 12  1  0
 11 35  1  0
 11 36  1  0
 12 13  1  0
 12 37  1  0
 12 38  1  0
 13 14  1  0
 14 15  2  0
 14 16  1  0
 16 17  2  0
 16 21  1  0
 17 18  1  0
 17 39  1  0
 18 19  2  0
 18 40  1  0
 19 20  1  0
 19 41  1  0
 20 21  2  0
 21 42  1  0
 22 23  2  0
 22 28  1  0
 23 24  1  0
 23 43  1  0
 24 25  2  0
 24 44  1  0
 25 26  1  0
 25 45  1  0
 26 27  1  0
 26 28  2  0
 28 46  1  0
M  END

