
     RDKit          3D

 48 49  0  0  0  0  0  0  0  0999 V2000
    0.9533    1.3239    0.0974 C   0  0  0  0  0  0  0  0  0  0  0  0
    2.3064    0.7111    0.4110 C   0  0  0  0  0  0  0  0  0  0  0  0
    2.5422   -0.3613   -0.4943 O   0  0  0  0  0  0  0  0  0  0  0  0
    3.7797   -0.9760   -0.3733 C   0  0  0  0  0  0  0  0  0  0  0  0
    4.8697   -0.5579   -1.2285 C   0  0  0  0  0  0  0  0  0  0  0  0
    6.1191   -1.1253   -1.0791 C   0  0  0  0  0  0  0  0  0  0  0  0
    6.3788   -2.1276   -0.1049 C   0  0  0  0  0  0  0  0  0  0  0  0
    7.7203   -2.7033    0.0830 C   0  0  0  0  0  0  0  0  0  0  0  0
    7.9729   -4.0717   -0.5178 N   0  0  0  0  0  0  0  0  0  0  0  0
    7.0147   -4.7152   -1.3800 C   0  0  0  0  0  0  0  0  0  0  0  0
    7.6648   -5.2976   -2.6485 C   0  0  0  0  0  0  0  0  0  0  0  0
    8.9032   -6.1609   -2.3443 C   0  0  2  0  0  0  0  0  0  0  0  0
    8.4710   -7.5385   -1.7801 C   0  0  1  0  0  0  0  0  0  0  0  0
    7.6194   -8.2063   -2.6756 O   0  0  0  0  0  0  0  0  0  0  0  0
    9.6422   -8.4560   -1.4014 C   0  0  1  0  0  0  0  0  0  0  0  0
   10.5254   -8.5614   -2.4150 F   0  0  0  0  0  0  0  0  0  0  0  0
   10.3087   -7.9831   -0.3268 F   0  0  0  0  0  0  0  0  0  0  0  0
    9.2203   -9.6828   -1.1007 F   0  0  0  0  0  0  0  0  0  0  0  0
    9.8725   -5.3278   -1.4865 C   0  0  0  0  0  0  0  0  0  0  0  0
    9.2044   -4.7641   -0.2212 C   0  0  0  0  0  0  0  0  0  0  0  0
    5.2736   -2.5462    0.7619 C   0  0  0  0  0  0  0  0  0  0  0  0
    4.0221   -1.9522    0.6116 C   0  0  0  0  0  0  0  0  0  0  0  0
    3.0234   -2.3236    1.4930 O   0  0  0  0  0  0  0  0  0  0  0  0
    1.9059   -2.9716    0.9197 C   0  0  0  0  0  0  0  0  0  0  0  0
    0.7422    2.1688    0.7726 H   0  0  0  0  0  0  0  0  0  0  0  0
    0.1497    0.5793    0.2144 H   0  0  0  0  0  0  0  0  0  0  0  0
    0.9255    1.6910   -0.9409 H   0  0  0  0  0  0  0  0  0  0  0  0
    2.3373    0.3394    1.4525 H   0  0  0  0  0  0  0  0  0  0  0  0
    3.1083    1.4690    0.3106 H   0  0  0  0  0  0  0  0  0  0  0  0
    4.6776    0.2106   -1.9795 H   0  0  0  0  0  0  0  0  0  0  0  0
    6.9364   -0.7832   -1.7264 H   0  0  0  0  0  0  0  0  0  0  0  0
    8.0192   -2.8488    1.1425 H   0  0  0  0  0  0  0  0  0  0  0  0
    8.5240   -2.0923   -0.3737 H   0  0  0  0  0  0  0  0  0  0  0  0
    6.2323   -3.9773   -1.5974 H   0  0  0  0  0  0  0  0  0  0  0  0
    6.5380   -5.5198   -0.7863 H   0  0  0  0  0  0  0  0  0  0  0  0
    7.9580   -4.4651   -3.3076 H   0  0  0  0  0  0  0  0  0  0  0  0
    6.9051   -5.8839   -3.1819 H   0  0  0  0  0  0  0  0  0  0  0  0
    9.4152   -6.3785   -3.2980 H   0  0  0  0  0  0  0  0  0  0  0  0
    7.8888   -7.4208   -0.8515 H   0  0  0  0  0  0  0  0  0  0  0  0
    8.0937   -8.3619   -3.5059 H   0  0  0  0  0  0  0  0  0  0  0  0
   10.2217   -4.4808   -2.0989 H   0  0  0  0  0  0  0  0  0  0  0  0
   10.7666   -5.8895   -1.1890 H   0  0  0  0  0  0  0  0  0  0  0  0
    9.8707   -4.0711    0.3133 H   0  0  0  0  0  0  0  0  0  0  0  0
    8.9695   -5.5869    0.4812 H   0  0  0  0  0  0  0  0  0  0  0  0
    5.4042   -3.2772    1.5618 H   0  0  0  0  0  0  0  0  0  0  0  0
    1.2230   -3.2283    1.7446 H   0  0  0  0  0  0  0  0  0  0  0  0
    2.2049   -3.9079    0.4085 H   0  0  0  0  0  0  0  0  0  0  0  0
    1.3792   -2.3269    0.1971 H   0  0  0  0  0  0  0  0  0  0  0  0
  1  2  1  0
  1 25  1  0
  1 26  1  0
  1 27  1  0
  2  3  1  0
  2 28  1  0
  2 29  1  0
  3  4  1  0
  4  5  2  0
  4 22  1  0
  5  6  1  0
  5 30  1  0
  6  7  2  0
  6 31  1  0
  7  8  1  0
  7 21  1  0
  8  9  1  0
  8 32  1  0
  8 33  1  0
  9 10  1  0
  9 20  1  0
 10 11  1  0
 10 34  1  0
 10 35  1  0
 11 12  1  0
 11 36  1  0
 11 37  1  0
 12 13  1  0
 12 19  1  0
 12 38  1  6
 13 14  1  0
 13 15  1  0
 13 39  1  1
 14 40  1  0
 15 16  1  6
 15 17  1  0
 15 18  1  0
 19 20  1  0
 19 41  1  0
 19 42  1  0
 20 43  1  0
 20 44  1  0
 21 22  2  0
 21 45  1  0
 22 23  1  0
 23 24  1  0
 24 46  1  0
 24 47  1  0
 24 48  1  0
M  END

