
     RDKit          3D

 38 40  0  0  0  0  0  0  0  0999 V2000
    1.7056    0.3334    0.6551 O   0  0  0  0  0  0  0  0  0  0  0  0
    2.8786    0.1247    0.2924 C   0  0  0  0  0  0  0  0  0  0  0  0
    3.9268    0.7190    1.0393 N   0  0  0  0  0  0  0  0  0  0  0  0
    3.6311    1.8875    1.8151 C   0  0  0  0  0  0  0  0  0  0  0  0
    2.7696    1.5410    3.0385 C   0  0  0  0  0  0  0  0  0  0  0  0
    3.6307    0.3158    4.0750 S   0  0  0  0  0  0  0  0  0  0  0  0
    2.5498   -0.0714    5.3622 C   0  0  0  0  0  0  0  0  0  0  0  0
    3.0816   -0.9335    6.3633 C   0  0  0  0  0  0  0  0  0  0  0  0
    2.2913   -1.3119    7.4371 C   0  0  0  0  0  0  0  0  0  0  0  0
    0.9686   -0.8504    7.5278 C   0  0  0  0  0  0  0  0  0  0  0  0
    0.4342   -0.0074    6.5366 C   0  0  0  0  0  0  0  0  0  0  0  0
    1.2094    0.3852    5.4568 C   0  0  0  0  0  0  0  0  0  0  0  0
    3.3360   -0.6739   -0.8277 C   0  0  0  0  0  0  0  0  0  0  0  0
    4.6939   -0.6216   -1.0131 N   0  0  0  0  0  0  0  0  0  0  0  0
    5.1760   -1.3498   -2.0526 N   0  0  0  0  0  0  0  0  0  0  0  0
    6.1811   -1.3020   -2.1854 H   0  0  0  0  0  0  0  0  0  0  0  0
    4.5091   -2.1449   -2.9525 C   0  0  0  0  0  0  0  0  0  0  0  0
    5.1190   -2.7447   -3.8364 O   0  0  0  0  0  0  0  0  0  0  0  0
    3.0438   -2.1928   -2.7436 C   0  0  0  0  0  0  0  0  0  0  0  0
    2.2651   -2.9692   -3.6069 C   0  0  0  0  0  0  0  0  0  0  0  0
    0.8806   -3.0372   -3.4479 C   0  0  0  0  0  0  0  0  0  0  0  0
    0.2876   -2.3067   -2.4039 C   0  0  0  0  0  0  0  0  0  0  0  0
    1.0439   -1.5287   -1.5355 C   0  0  0  0  0  0  0  0  0  0  0  0
    2.4594   -1.4470   -1.6753 C   0  0  0  0  0  0  0  0  0  0  0  0
    4.8122    0.6689    0.5349 H   0  0  0  0  0  0  0  0  0  0  0  0
    3.0383    2.6490    1.2674 H   0  0  0  0  0  0  0  0  0  0  0  0
    4.5714    2.3732    2.1216 H   0  0  0  0  0  0  0  0  0  0  0  0
    1.8586    1.0561    2.6503 H   0  0  0  0  0  0  0  0  0  0  0  0
    2.5375    2.4105    3.6727 H   0  0  0  0  0  0  0  0  0  0  0  0
    4.1103   -1.2889    6.2760 H   0  0  0  0  0  0  0  0  0  0  0  0
    2.6969   -1.9703    8.2068 H   0  0  0  0  0  0  0  0  0  0  0  0
    0.3457   -1.1540    8.3713 H   0  0  0  0  0  0  0  0  0  0  0  0
   -0.5994    0.3343    6.6120 H   0  0  0  0  0  0  0  0  0  0  0  0
    0.7866    1.0226    4.6823 H   0  0  0  0  0  0  0  0  0  0  0  0
    2.7826   -3.5118   -4.4010 H   0  0  0  0  0  0  0  0  0  0  0  0
    0.2699   -3.6422   -4.1218 H   0  0  0  0  0  0  0  0  0  0  0  0
   -0.7980   -2.3453   -2.2687 H   0  0  0  0  0  0  0  0  0  0  0  0
    0.5694   -0.9629   -0.7372 H   0  0  0  0  0  0  0  0  0  0  0  0
  1  2  2  0
  2  3  1  0
  2 13  1  0
  3  4  1  0
  3 25  1  0
  4  5  1  0
  4 26  1  0
  4 27  1  0
  5  6  1  0
  5 28  1  0
  5 29  1  0
  6  7  1  0
  7  8  2  0
  7 12  1  0
  8  9  1  0
  8 30  1  0
  9 10  2  0
  9 31  1  0
 10 11  1  0
 10 32  1  0
 11 12  2  0
 11 33  1  0
 12 34  1  0
 13 14  2  0
 13 24  1  0
 14 15  1  0
 15 16  1  0
 15 17  1  0
 17 18  2  0
 17 19  1  0
 19 20  1  0
 19 24  2  0
 20 21  2  0
 20 35  1  0
 21 22  1  0
 21 36  1  0
 22 23  2  0
 22 37  1  0
 23 24  1  0
 23 38  1  0
M  END

