
     RDKit          3D

 84 85  0  0  0  0  0  0  0  0999 V2000
    5.0311    7.0503   -1.1396 C   0  0  0  0  0  0  0  0  0  0  0  0
    5.6877    7.8529   -2.2716 C   0  0  1  0  0  0  0  0  0  0  0  0
    7.1222    8.2567   -1.9018 C   0  0  0  0  0  0  0  0  0  0  0  0
    5.6013    7.1813   -3.6616 C   0  0  0  0  0  0  0  0  0  0  0  0
    6.4529    5.9357   -3.9586 C   0  0  0  0  0  0  0  0  0  0  0  0
    6.0432    4.6538   -3.3639 N   0  0  0  0  0  0  0  0  0  0  0  0
    5.1164    3.7927   -4.0747 C   0  0  0  0  0  0  0  0  0  0  0  0
    3.7144    3.6277   -3.4445 C   0  0  1  0  0  0  0  0  0  0  0  0
    3.3020    2.3440   -3.7460 F   0  0  0  0  0  0  0  0  0  0  0  0
    3.7836    3.7024   -2.0794 F   0  0  0  0  0  0  0  0  0  0  0  0
    2.6399    4.5928   -3.9751 C   0  0  1  0  0  0  0  0  0  0  0  0
    2.4595    4.3328   -5.3497 O   0  0  0  0  0  0  0  0  0  0  0  0
    1.2781    4.6682   -3.2283 C   0  0  1  0  0  0  0  0  0  0  0  0
    0.4056    3.3885   -3.2199 C   0  0  0  0  0  0  0  0  0  0  0  0
    0.6692    2.3287   -2.1191 C   0  0  1  0  0  0  0  0  0  0  0  0
   -0.2022    2.5445   -0.8575 C   0  0  0  0  0  0  0  0  0  0  0  0
   -1.6805    2.1859   -1.0709 C   0  0  0  0  0  0  0  0  0  0  0  0
   -1.8489    0.7613   -1.6146 C   0  0  0  0  0  0  0  0  0  0  0  0
   -1.0129    0.5440   -2.8829 C   0  0  0  0  0  0  0  0  0  0  0  0
    0.4626    0.8891   -2.6398 C   0  0  0  0  0  0  0  0  0  0  0  0
    1.4347    5.2841   -1.9227 N   0  0  0  0  0  0  0  0  0  0  0  0
    0.7370    6.3954   -1.5518 C   0  0  0  0  0  0  0  0  0  0  0  0
   -0.0249    7.0197   -2.2628 O   0  0  0  0  0  0  0  0  0  0  0  0
    1.0278    6.7128   -0.2667 O   0  0  0  0  0  0  0  0  0  0  0  0
    0.3634    7.8634    0.2920 C   0  0  0  0  0  0  0  0  0  0  0  0
   -0.9241    7.4975    0.9929 C   0  0  0  0  0  0  0  0  0  0  0  0
   -0.9385    7.2634    2.3759 C   0  0  0  0  0  0  0  0  0  0  0  0
   -2.1232    6.9110    3.0287 C   0  0  0  0  0  0  0  0  0  0  0  0
   -3.3104    6.7867    2.3014 C   0  0  0  0  0  0  0  0  0  0  0  0
   -3.3068    7.0167    0.9214 C   0  0  0  0  0  0  0  0  0  0  0  0
   -2.1225    7.3706    0.2702 C   0  0  0  0  0  0  0  0  0  0  0  0
    6.8092    4.1499   -2.3293 C   0  0  0  0  0  0  0  0  0  0  0  0
    7.6514    4.7974   -1.7358 O   0  0  0  0  0  0  0  0  0  0  0  0
    6.5083    2.8627   -2.0848 O   0  0  0  0  0  0  0  0  0  0  0  0
    7.0687    2.1263   -0.9454 C   0  0  1  0  0  0  0  0  0  0  0  0
    6.6863    2.8250    0.3631 C   0  0  0  0  0  0  0  0  0  0  0  0
    6.3780    0.7654   -1.0540 C   0  0  0  0  0  0  0  0  0  0  0  0
    8.5851    1.9844   -1.1063 C   0  0  0  0  0  0  0  0  0  0  0  0
    4.9847    7.6564   -0.2198 H   0  0  0  0  0  0  0  0  0  0  0  0
    5.6054    6.1432   -0.9025 H   0  0  0  0  0  0  0  0  0  0  0  0
    4.0001    6.7543   -1.3892 H   0  0  0  0  0  0  0  0  0  0  0  0
    5.1026    8.7857   -2.3799 H   0  0  0  0  0  0  0  0  0  0  0  0
    7.7446    7.3704   -1.7032 H   0  0  0  0  0  0  0  0  0  0  0  0
    7.1273    8.8763   -0.9903 H   0  0  0  0  0  0  0  0  0  0  0  0
    7.5983    8.8453   -2.7043 H   0  0  0  0  0  0  0  0  0  0  0  0
    5.9149    7.9321   -4.4094 H   0  0  0  0  0  0  0  0  0  0  0  0
    4.5436    6.9703   -3.8959 H   0  0  0  0  0  0  0  0  0  0  0  0
    7.4903    6.1147   -3.6471 H   0  0  0  0  0  0  0  0  0  0  0  0
    6.4666    5.7899   -5.0524 H   0  0  0  0  0  0  0  0  0  0  0  0
    5.5252    2.7770   -4.1555 H   0  0  0  0  0  0  0  0  0  0  0  0
    4.9637    4.1810   -5.0911 H   0  0  0  0  0  0  0  0  0  0  0  0
    3.0689    5.6032   -3.9052 H   0  0  0  0  0  0  0  0  0  0  0  0
    2.1921    3.4070   -5.4427 H   0  0  0  0  0  0  0  0  0  0  0  0
    0.7269    5.4096   -3.8240 H   0  0  0  0  0  0  0  0  0  0  0  0
    0.4884    2.9266   -4.2191 H   0  0  0  0  0  0  0  0  0  0  0  0
   -0.6405    3.7280   -3.1604 H   0  0  0  0  0  0  0  0  0  0  0  0
    1.7217    2.4043   -1.8106 H   0  0  0  0  0  0  0  0  0  0  0  0
   -0.1136    3.5829   -0.5010 H   0  0  0  0  0  0  0  0  0  0  0  0
    0.2012    1.9066   -0.0498 H   0  0  0  0  0  0  0  0  0  0  0  0
   -2.1429    2.9002   -1.7760 H   0  0  0  0  0  0  0  0  0  0  0  0
   -2.2310    2.3035   -0.1226 H   0  0  0  0  0  0  0  0  0  0  0  0
   -2.9132    0.5480   -1.8120 H   0  0  0  0  0  0  0  0  0  0  0  0
   -1.5254    0.0378   -0.8428 H   0  0  0  0  0  0  0  0  0  0  0  0
   -1.4161    1.1709   -3.6996 H   0  0  0  0  0  0  0  0  0  0  0  0
   -1.1035   -0.5001   -3.2278 H   0  0  0  0  0  0  0  0  0  0  0  0
    1.0571    0.7360   -3.5559 H   0  0  0  0  0  0  0  0  0  0  0  0
    0.8691    0.1856   -1.8902 H   0  0  0  0  0  0  0  0  0  0  0  0
    2.0244    4.8471   -1.2249 H   0  0  0  0  0  0  0  0  0  0  0  0
    0.1796    8.5883   -0.5130 H   0  0  0  0  0  0  0  0  0  0  0  0
    1.0851    8.2846    1.0054 H   0  0  0  0  0  0  0  0  0  0  0  0
   -0.0115    7.3618    2.9486 H   0  0  0  0  0  0  0  0  0  0  0  0
   -2.1196    6.7351    4.1076 H   0  0  0  0  0  0  0  0  0  0  0  0
   -4.2388    6.5134    2.8097 H   0  0  0  0  0  0  0  0  0  0  0  0
   -4.2336    6.9233    0.3492 H   0  0  0  0  0  0  0  0  0  0  0  0
   -2.1122    7.5424   -0.8086 H   0  0  0  0  0  0  0  0  0  0  0  0
    5.5963    2.9727    0.4096 H   0  0  0  0  0  0  0  0  0  0  0  0
    7.1806    3.8007    0.4518 H   0  0  0  0  0  0  0  0  0  0  0  0
    6.9862    2.1991    1.2180 H   0  0  0  0  0  0  0  0  0  0  0  0
    5.2852    0.8839   -1.0064 H   0  0  0  0  0  0  0  0  0  0  0  0
    6.6982    0.1088   -0.2310 H   0  0  0  0  0  0  0  0  0  0  0  0
    6.6301    0.2762   -2.0072 H   0  0  0  0  0  0  0  0  0  0  0  0
    9.0809    2.9615   -1.0505 H   0  0  0  0  0  0  0  0  0  0  0  0
    8.8259    1.5190   -2.0750 H   0  0  0  0  0  0  0  0  0  0  0  0
    8.9829    1.3368   -0.3092 H   0  0  0  0  0  0  0  0  0  0  0  0
  1  2  1  0
  1 39  1  0
  1 40  1  0
  1 41  1  0
  2  3  1  0
  2  4  1  0
  2 42  1  6
  3 43  1  0
  3 44  1  0
  3 45  1  0
  4  5  1  0
  4 46  1  0
  4 47  1  0
  5  6  1  0
  5 48  1  0
  5 49  1  0
  6  7  1  0
  6 32  1  0
  7  8  1  0
  7 50  1  0
  7 51  1  0
  8  9  1  1
  8 10  1  0
  8 11  1  0
 11 12  1  0
 11 13  1  0
 11 52  1  6
 12 53  1  0
 13 14  1  0
 13 21  1  0
 13 54  1  6
 14 15  1  0
 14 55  1  0
 14 56  1  0
 15 16  1  0
 15 20  1  0
 15 57  1  1
 16 17  1  0
 16 58  1  0
 16 59  1  0
 17 18  1  0
 17 60  1  0
 17 61  1  0
 18 19  1  0
 18 62  1  0
 18 63  1  0
 19 20  1  0
 19 64  1  0
 19 65  1  0
 20 66  1  0
 20 67  1  0
 21 22  1  0
 21 68  1  0
 22 23  2  0
 22 24  1  0
 24 25  1  0
 25 26  1  0
 25 69  1  0
 25 70  1  0
 26 27  2  0
 26 31  1  0
 27 28  1  0
 27 71  1  0
 28 29  2  0
 28 72  1  0
 29 30  1  0
 29 73  1  0
 30 31  2  0
 30 74  1  0
 31 75  1  0
 32 33  2  0
 32 34  1  0
 35 34  1  6
 35 36  1  0
 35 37  1  0
 35 38  1  0
 36 76  1  0
 36 77  1  0
 36 78  1  0
 37 79  1  0
 37 80  1  0
 37 81  1  0
 38 82  1  0
 38 83  1  0
 38 84  1  0
M  END

