
     RDKit          3D

 40 41  0  0  0  0  0  0  0  0999 V2000
    0.9613   -1.5352   -2.9901 C   0  0  0  0  0  0  0  0  0  0  0  0
    2.4820   -1.5809   -2.8918 C   0  0  0  0  0  0  0  0  0  0  0  0
    3.0469   -0.5353   -1.4780 S   0  0  0  0  0  0  0  0  0  0  0  0
    4.8241   -0.7486   -1.5931 C   0  0  0  0  0  0  0  0  0  0  0  0
    5.5962    0.1125   -2.3887 C   0  0  0  0  0  0  0  0  0  0  0  0
    6.9823   -0.0397   -2.4510 C   0  0  0  0  0  0  0  0  0  0  0  0
    7.6395   -1.0480   -1.7271 C   0  0  0  0  0  0  0  0  0  0  0  0
    9.1667   -1.1245   -1.7281 C   0  0  1  0  0  0  0  0  0  0  0  0
    9.7706   -0.3806   -0.6051 N   0  0  0  0  0  0  0  0  0  0  0  0
    9.2888   -0.6058    0.6981 N   0  0  0  0  0  0  0  0  0  0  0  0
    9.7112   -2.5454   -1.8584 C   0  0  0  0  0  0  0  0  0  0  0  0
   10.7433   -2.9818   -1.1166 C   0  0  0  0  0  0  0  0  0  0  0  0
   11.3593   -4.3520   -1.2367 C   0  0  0  0  0  0  0  0  0  0  0  0
   10.5223   -5.3077   -2.0955 C   0  0  0  0  0  0  0  0  0  0  0  0
    9.9921   -4.5886   -3.3387 C   0  0  0  0  0  0  0  0  0  0  0  0
    9.0957   -3.4085   -2.9445 C   0  0  0  0  0  0  0  0  0  0  0  0
    6.8585   -1.9014   -0.9287 C   0  0  0  0  0  0  0  0  0  0  0  0
    5.4699   -1.7531   -0.8581 C   0  0  0  0  0  0  0  0  0  0  0  0
    0.6148   -2.1580   -3.8306 H   0  0  0  0  0  0  0  0  0  0  0  0
    0.6013   -0.5077   -3.1579 H   0  0  0  0  0  0  0  0  0  0  0  0
    0.4888   -1.9142   -2.0700 H   0  0  0  0  0  0  0  0  0  0  0  0
    2.9498   -1.2029   -3.8143 H   0  0  0  0  0  0  0  0  0  0  0  0
    2.8373   -2.6105   -2.7287 H   0  0  0  0  0  0  0  0  0  0  0  0
    5.1008    0.9036   -2.9565 H   0  0  0  0  0  0  0  0  0  0  0  0
    7.5689    0.6420   -3.0750 H   0  0  0  0  0  0  0  0  0  0  0  0
    9.5059   -0.5816   -2.6302 H   0  0  0  0  0  0  0  0  0  0  0  0
    9.7348    0.6188   -0.7877 H   0  0  0  0  0  0  0  0  0  0  0  0
    9.6707   -1.4844    1.0455 H   0  0  0  0  0  0  0  0  0  0  0  0
    8.2663   -0.6828    0.7312 H   0  0  0  0  0  0  0  0  0  0  0  0
   11.2020   -2.2847   -0.4085 H   0  0  0  0  0  0  0  0  0  0  0  0
   11.5191   -4.7773   -0.2295 H   0  0  0  0  0  0  0  0  0  0  0  0
   12.3758   -4.2484   -1.6655 H   0  0  0  0  0  0  0  0  0  0  0  0
    9.6666   -5.6807   -1.5036 H   0  0  0  0  0  0  0  0  0  0  0  0
   11.1175   -6.1924   -2.3755 H   0  0  0  0  0  0  0  0  0  0  0  0
    9.4358   -5.2851   -3.9874 H   0  0  0  0  0  0  0  0  0  0  0  0
   10.8458   -4.2179   -3.9345 H   0  0  0  0  0  0  0  0  0  0  0  0
    8.1086   -3.7817   -2.6155 H   0  0  0  0  0  0  0  0  0  0  0  0
    8.8786   -2.7812   -3.8282 H   0  0  0  0  0  0  0  0  0  0  0  0
    7.3417   -2.7049   -0.3665 H   0  0  0  0  0  0  0  0  0  0  0  0
    4.8750   -2.4207   -0.2303 H   0  0  0  0  0  0  0  0  0  0  0  0
  1  2  1  0
  1 19  1  0
  1 20  1  0
  1 21  1  0
  2  3  1  0
  2 22  1  0
  2 23  1  0
  3  4  1  0
  4  5  2  0
  4 18  1  0
  5  6  1  0
  5 24  1  0
  6  7  2  0
  6 25  1  0
  7  8  1  0
  7 17  1  0
  8  9  1  0
  8 11  1  0
  8 26  1  6
  9 10  1  0
  9 27  1  0
 10 28  1  0
 10 29  1  0
 11 12  2  0
 11 16  1  0
 12 13  1  0
 12 30  1  0
 13 14  1  0
 13 31  1  0
 13 32  1  0
 14 15  1  0
 14 33  1  0
 14 34  1  0
 15 16  1  0
 15 35  1  0
 15 36  1  0
 16 37  1  0
 16 38  1  0
 17 18  2  0
 17 39  1  0
 18 40  1  0
M  END

