
     RDKit          3D

 34 34  0  0  0  0  0  0  0  0999 V2000
    1.3892   -0.8648    0.3583 C   0  0  0  0  0  0  0  0  0  0  0  0
    2.3462   -0.2423   -0.5317 N   0  0  0  0  0  0  0  0  0  0  0  0
    3.1881    0.7676   -0.1068 C   0  0  0  0  0  0  0  0  0  0  0  0
    2.9143    1.3634    1.0846 N   0  0  0  0  0  0  0  0  0  0  0  0
    3.7350    2.3800    1.4395 C   0  0  0  0  0  0  0  0  0  0  0  0
    4.7613    2.8721    0.7803 N   0  0  0  0  0  0  0  0  0  0  0  0
    4.9782    2.3567   -0.4729 C   0  0  0  0  0  0  0  0  0  0  0  0
    6.3662    2.4863   -0.9108 N   0  0  0  0  0  0  0  0  0  0  0  0
    7.4021    1.6810   -0.3715 C   0  0  0  0  0  0  0  0  0  0  0  0
    7.3268    0.1759   -0.8978 C   0  0  0  0  0  0  0  0  0  0  0  0
    7.2027    0.0900   -2.2701 O   0  0  0  0  0  0  0  0  0  0  0  0
    6.6905    3.5073   -1.8613 C   0  0  0  0  0  0  0  0  0  0  0  0
    6.9769    4.8412   -1.1395 C   0  0  1  0  0  0  0  0  0  0  0  0
    8.1267    4.7251   -0.4270 F   0  0  0  0  0  0  0  0  0  0  0  0
    7.1564    5.7945   -2.0816 F   0  0  0  0  0  0  0  0  0  0  0  0
    4.2507    1.1823   -0.9051 C   0  0  0  0  0  0  0  0  0  0  0  0
    4.4742    0.6365   -2.1795 O   0  0  0  0  0  0  0  0  0  0  0  0
    3.6457    1.1810   -3.2114 C   0  0  0  0  0  0  0  0  0  0  0  0
    0.6003   -1.3568   -0.2321 H   0  0  0  0  0  0  0  0  0  0  0  0
    0.9374   -0.0909    0.9910 H   0  0  0  0  0  0  0  0  0  0  0  0
    1.8416   -1.6185    1.0331 H   0  0  0  0  0  0  0  0  0  0  0  0
    2.7376   -0.8287   -1.2591 H   0  0  0  0  0  0  0  0  0  0  0  0
    3.5165    2.8430    2.4114 H   0  0  0  0  0  0  0  0  0  0  0  0
    7.2705    1.6317    0.7223 H   0  0  0  0  0  0  0  0  0  0  0  0
    8.3829    2.1035   -0.6259 H   0  0  0  0  0  0  0  0  0  0  0  0
    6.4995   -0.3140   -0.3620 H   0  0  0  0  0  0  0  0  0  0  0  0
    8.2816   -0.2768   -0.5844 H   0  0  0  0  0  0  0  0  0  0  0  0
    6.2467    0.1917   -2.4674 H   0  0  0  0  0  0  0  0  0  0  0  0
    5.8308    3.6685   -2.5225 H   0  0  0  0  0  0  0  0  0  0  0  0
    7.5865    3.2408   -2.4436 H   0  0  0  0  0  0  0  0  0  0  0  0
    6.1614    5.1284   -0.4583 H   0  0  0  0  0  0  0  0  0  0  0  0
    3.9439    0.7110   -4.1602 H   0  0  0  0  0  0  0  0  0  0  0  0
    3.7721    2.2748   -3.2842 H   0  0  0  0  0  0  0  0  0  0  0  0
    2.5845    0.9626   -3.0099 H   0  0  0  0  0  0  0  0  0  0  0  0
  1  2  1  0
  1 19  1  0
  1 20  1  0
  1 21  1  0
  2  3  1  0
  2 22  1  0
  3  4  2  0
  3 16  1  0
  4  5  1  0
  5  6  2  0
  5 23  1  0
  6  7  1  0
  7  8  1  0
  7 16  2  0
  8  9  1  0
  8 12  1  0
  9 10  1  0
  9 24  1  0
  9 25  1  0
 10 11  1  0
 10 26  1  0
 10 27  1  0
 11 28  1  0
 12 13  1  0
 12 29  1  0
 12 30  1  0
 13 14  1  0
 13 15  1  0
 13 31  1  1
 16 17  1  0
 17 18  1  0
 18 32  1  0
 18 33  1  0
 18 34  1  0
M  END

