
     RDKit          3D

 67 70  0  0  0  0  0  0  0  0999 V2000
   14.2068   -3.2998    3.8370 C   0  0  0  0  0  0  0  0  0  0  0  0
   13.4349   -2.3997    2.8907 C   0  0  0  0  0  0  0  0  0  0  0  0
   12.3973   -1.7749    3.6271 O   0  0  0  0  0  0  0  0  0  0  0  0
   11.5369   -0.9307    2.9985 C   0  0  0  0  0  0  0  0  0  0  0  0
   11.6136   -0.5802    1.6409 C   0  0  0  0  0  0  0  0  0  0  0  0
   10.6697    0.2945    1.0924 C   0  0  0  0  0  0  0  0  0  0  0  0
    9.6371    0.8377    1.8690 C   0  0  0  0  0  0  0  0  0  0  0  0
    8.6179    1.8014    1.2824 C   0  0  2  0  0  0  0  0  0  0  0  0
    7.8088    1.9359    2.0135 H   0  0  0  0  0  0  0  0  0  0  0  0
    8.0919    1.4489   -0.1209 C   0  0  0  0  0  0  0  0  0  0  0  0
    8.8622    2.3872   -1.0421 C   0  0  0  0  0  0  0  0  0  0  0  0
    8.8587    2.2294   -2.4569 C   0  0  0  0  0  0  0  0  0  0  0  0
    8.0732    1.1777   -3.0437 C   0  0  0  0  0  0  0  0  0  0  0  0
    8.0161    0.9588   -4.4117 C   0  0  0  0  0  0  0  0  0  0  0  0
    8.7302    1.7638   -5.3152 C   0  0  0  0  0  0  0  0  0  0  0  0
    8.6835    1.5445   -6.8055 C   0  0  0  0  0  0  0  0  0  0  0  0
    9.5051    2.8041   -4.7532 C   0  0  0  0  0  0  0  0  0  0  0  0
    9.5932    3.0634   -3.3907 C   0  0  0  0  0  0  0  0  0  0  0  0
   10.4640    4.2071   -2.9300 C   0  0  0  0  0  0  0  0  0  0  0  0
    9.4930    3.3659   -0.3471 N   0  0  0  0  0  0  0  0  0  0  0  0
    9.2155    3.1313    1.0103 N   0  0  0  0  0  0  0  0  0  0  0  0
    9.5069    3.9911    1.9694 C   0  0  0  0  0  0  0  0  0  0  0  0
    9.2996    3.8361    3.1858 O   0  0  0  0  0  0  0  0  0  0  0  0
   10.1969    5.2822    1.4201 C   0  0  0  0  0  0  0  0  0  0  0  0
   10.1390    6.3508    2.3902 N   0  0  0  0  0  0  0  0  0  0  0  0
    8.9672    7.1922    2.4011 C   0  0  0  0  0  0  0  0  0  0  0  0
   10.8748    6.2115    3.6363 C   0  0  0  0  0  0  0  0  0  0  0  0
   12.3082    5.7458    3.5057 C   0  0  0  0  0  0  0  0  0  0  0  0
   13.3263    6.6723    3.2331 C   0  0  0  0  0  0  0  0  0  0  0  0
   14.6533    6.2503    3.1247 C   0  0  0  0  0  0  0  0  0  0  0  0
   14.9725    4.8995    3.2946 C   0  0  0  0  0  0  0  0  0  0  0  0
   13.9636    3.9735    3.5733 C   0  0  0  0  0  0  0  0  0  0  0  0
   12.6344    4.3924    3.6799 C   0  0  0  0  0  0  0  0  0  0  0  0
    9.5807    0.4846    3.2278 C   0  0  0  0  0  0  0  0  0  0  0  0
   10.5104   -0.3869    3.7886 C   0  0  0  0  0  0  0  0  0  0  0  0
   15.0253   -3.8054    3.3015 H   0  0  0  0  0  0  0  0  0  0  0  0
   13.5457   -4.0670    4.2683 H   0  0  0  0  0  0  0  0  0  0  0  0
   14.6387   -2.7155    4.6640 H   0  0  0  0  0  0  0  0  0  0  0  0
   13.0081   -2.9852    2.0543 H   0  0  0  0  0  0  0  0  0  0  0  0
   14.1017   -1.6352    2.4475 H   0  0  0  0  0  0  0  0  0  0  0  0
   12.3964   -0.9845    0.9988 H   0  0  0  0  0  0  0  0  0  0  0  0
   10.7472    0.5540    0.0336 H   0  0  0  0  0  0  0  0  0  0  0  0
    7.0026    1.6295   -0.1878 H   0  0  0  0  0  0  0  0  0  0  0  0
    8.2465    0.3850   -0.3514 H   0  0  0  0  0  0  0  0  0  0  0  0
    7.4867    0.5238   -2.3964 H   0  0  0  0  0  0  0  0  0  0  0  0
    7.3965    0.1399   -4.7928 H   0  0  0  0  0  0  0  0  0  0  0  0
    8.0302    0.6966   -7.0655 H   0  0  0  0  0  0  0  0  0  0  0  0
    9.6827    1.3296   -7.2278 H   0  0  0  0  0  0  0  0  0  0  0  0
    8.3013    2.4302   -7.3462 H   0  0  0  0  0  0  0  0  0  0  0  0
   10.0764    3.4487   -5.4314 H   0  0  0  0  0  0  0  0  0  0  0  0
   10.9739    4.6720   -3.7886 H   0  0  0  0  0  0  0  0  0  0  0  0
   11.2226    3.8775   -2.2037 H   0  0  0  0  0  0  0  0  0  0  0  0
    9.8773    4.9832   -2.4128 H   0  0  0  0  0  0  0  0  0  0  0  0
    9.7114    5.5834    0.4869 H   0  0  0  0  0  0  0  0  0  0  0  0
   11.2460    5.0460    1.1958 H   0  0  0  0  0  0  0  0  0  0  0  0
    8.6666    7.4333    1.3750 H   0  0  0  0  0  0  0  0  0  0  0  0
    9.1590    8.1093    2.9725 H   0  0  0  0  0  0  0  0  0  0  0  0
    8.1451    6.6353    2.8879 H   0  0  0  0  0  0  0  0  0  0  0  0
   10.2770    5.4379    4.1713 H   0  0  0  0  0  0  0  0  0  0  0  0
   10.8024    7.1641    4.1802 H   0  0  0  0  0  0  0  0  0  0  0  0
   13.0835    7.7318    3.1095 H   0  0  0  0  0  0  0  0  0  0  0  0
   15.4395    6.9778    2.9095 H   0  0  0  0  0  0  0  0  0  0  0  0
   16.0107    4.5693    3.2111 H   0  0  0  0  0  0  0  0  0  0  0  0
   14.2075    2.9175    3.7082 H   0  0  0  0  0  0  0  0  0  0  0  0
   11.8420    3.6700    3.8895 H   0  0  0  0  0  0  0  0  0  0  0  0
    8.7941    0.9080    3.8573 H   0  0  0  0  0  0  0  0  0  0  0  0
   10.4625   -0.6682    4.8428 H   0  0  0  0  0  0  0  0  0  0  0  0
  1  2  1  0
  1 36  1  0
  1 37  1  0
  1 38  1  0
  2  3  1  0
  2 39  1  0
  2 40  1  0
  3  4  1  0
  4  5  2  0
  4 35  1  0
  5  6  1  0
  5 41  1  0
  6  7  2  0
  6 42  1  0
  7  8  1  0
  7 34  1  0
  8  9  1  1
  8 10  1  0
  8 21  1  0
 10 11  1  0
 10 43  1  0
 10 44  1  0
 11 12  1  0
 11 20  2  0
 12 13  2  0
 12 18  1  0
 13 14  1  0
 13 45  1  0
 14 15  2  0
 14 46  1  0
 15 16  1  0
 15 17  1  0
 16 47  1  0
 16 48  1  0
 16 49  1  0
 17 18  2  0
 17 50  1  0
 18 19  1  0
 19 51  1  0
 19 52  1  0
 19 53  1  0
 20 21  1  0
 21 22  1  0
 22 23  2  0
 22 24  1  0
 24 25  1  0
 24 54  1  0
 24 55  1  0
 25 26  1  0
 25 27  1  0
 26 56  1  0
 26 57  1  0
 26 58  1  0
 27 28  1  0
 27 59  1  0
 27 60  1  0
 28 29  2  0
 28 33  1  0
 29 30  1  0
 29 61  1  0
 30 31  2  0
 30 62  1  0
 31 32  1  0
 31 63  1  0
 32 33  2  0
 32 64  1  0
 33 65  1  0
 34 35  2  0
 34 66  1  0
 35 67  1  0
M  END

