
     RDKit          3D

 38 40  0  0  0  0  0  0  0  0999 V2000
    1.1195   -0.2759    0.0586 C   0  0  0  0  0  0  0  0  0  0  0  0
    2.6201   -0.1409    0.0246 C   0  0  0  0  0  0  0  0  0  0  0  0
    3.2542    1.1171    0.1032 C   0  0  0  0  0  0  0  0  0  0  0  0
    4.6641    1.1488    0.0595 C   0  0  0  0  0  0  0  0  0  0  0  0
    5.4305    2.4444    0.1330 C   0  0  0  0  0  0  0  0  0  0  0  0
    5.3734    0.0319   -0.0535 N   0  0  0  0  0  0  0  0  0  0  0  0
    4.6812   -1.1383   -0.1191 C   0  0  0  0  0  0  0  0  0  0  0  0
    5.4340   -2.3280   -0.2349 C   0  0  0  0  0  0  0  0  0  0  0  0
    6.0959   -3.3742   -0.3365 C   0  0  0  0  0  0  0  0  0  0  0  0
    6.8354   -4.5440   -0.4473 C   0  0  0  0  0  0  0  0  0  0  0  0
    8.2738   -4.5195   -0.5250 C   0  0  0  0  0  0  0  0  0  0  0  0
    8.9981   -5.6825   -0.6279 C   0  0  0  0  0  0  0  0  0  0  0  0
    8.3707   -6.9736   -0.6779 C   0  0  0  0  0  0  0  0  0  0  0  0
    9.1435   -8.1963   -0.7950 C   0  0  0  0  0  0  0  0  0  0  0  0
   10.5622   -8.2111   -0.6141 C   0  0  0  0  0  0  0  0  0  0  0  0
   11.2966   -9.3832   -0.7247 C   0  0  0  0  0  0  0  0  0  0  0  0
   10.6625  -10.5997   -1.0255 C   0  0  0  0  0  0  0  0  0  0  0  0
    9.2705  -10.6170   -1.2116 C   0  0  0  0  0  0  0  0  0  0  0  0
    8.5271   -9.4508   -1.0982 C   0  0  0  0  0  0  0  0  0  0  0  0
    6.9362   -6.9875   -0.6060 C   0  0  0  0  0  0  0  0  0  0  0  0
    6.1973   -5.8350   -0.4897 C   0  0  0  0  0  0  0  0  0  0  0  0
    3.3261   -1.2606   -0.0821 N   0  0  0  0  0  0  0  0  0  0  0  0
    0.6181    0.6947    0.1800 H   0  0  0  0  0  0  0  0  0  0  0  0
    0.8201   -0.9407    0.8844 H   0  0  0  0  0  0  0  0  0  0  0  0
    0.7633   -0.7470   -0.8718 H   0  0  0  0  0  0  0  0  0  0  0  0
    2.6726    2.0364    0.1949 H   0  0  0  0  0  0  0  0  0  0  0  0
    4.7670    3.3129    0.2509 H   0  0  0  0  0  0  0  0  0  0  0  0
    6.0330    2.5774   -0.7800 H   0  0  0  0  0  0  0  0  0  0  0  0
    6.1376    2.4158    0.9772 H   0  0  0  0  0  0  0  0  0  0  0  0
    8.7805   -3.5528   -0.5052 H   0  0  0  0  0  0  0  0  0  0  0  0
   10.0833   -5.6078   -0.7018 H   0  0  0  0  0  0  0  0  0  0  0  0
   11.0856   -7.2898   -0.3575 H   0  0  0  0  0  0  0  0  0  0  0  0
   12.3785   -9.3566   -0.5700 H   0  0  0  0  0  0  0  0  0  0  0  0
   11.2443  -11.5203   -1.1139 H   0  0  0  0  0  0  0  0  0  0  0  0
    8.7651  -11.5555   -1.4541 H   0  0  0  0  0  0  0  0  0  0  0  0
    7.4519   -9.4985   -1.2720 H   0  0  0  0  0  0  0  0  0  0  0  0
    6.4057   -7.9400   -0.6151 H   0  0  0  0  0  0  0  0  0  0  0  0
    5.1087   -5.8809   -0.4220 H   0  0  0  0  0  0  0  0  0  0  0  0
  1  2  1  0
  1 23  1  0
  1 24  1  0
  1 25  1  0
  2  3  2  0
  2 22  1  0
  3  4  1  0
  3 26  1  0
  4  5  1  0
  4  6  2  0
  5 27  1  0
  5 28  1  0
  5 29  1  0
  6  7  1  0
  7  8  1  0
  7 22  2  0
  8  9  3  0
  9 10  1  0
 10 11  2  0
 10 21  1  0
 11 12  1  0
 11 30  1  0
 12 13  2  0
 12 31  1  0
 13 14  1  0
 13 20  1  0
 14 15  2  0
 14 19  1  0
 15 16  1  0
 15 32  1  0
 16 17  2  0
 16 33  1  0
 17 18  1  0
 17 34  1  0
 18 19  2  0
 18 35  1  0
 19 36  1  0
 20 21  2  0
 20 37  1  0
 21 38  1  0
M  END

