
     RDKit          3D

 75 83  0  0  0  0  0  0  0  0999 V2000
    1.0001    0.1144   -0.5212 C   0  0  0  0  0  0  0  0  0  0  0  0
    2.1105    0.6683   -0.0182 C   0  0  0  0  0  0  0  0  0  0  0  0
    3.4221    1.7244   -0.9117 Si  0  0  1  0  0  4  0  0  0  0  0  0
    2.7471    2.0223   -2.7118 C   0  0  0  0  0  0  0  0  0  0  0  0
    1.4377    2.5671   -2.9149 C   0  0  0  0  0  0  0  0  0  0  0  0
    0.5852    3.0130   -1.8456 C   0  0  0  0  0  0  0  0  0  0  0  0
   -0.6592    3.5508   -2.0678 C   0  0  0  0  0  0  0  0  0  0  0  0
   -1.1719    3.6860   -3.3888 C   0  0  0  0  0  0  0  0  0  0  0  0
   -0.4055    3.2779   -4.4487 C   0  0  0  0  0  0  0  0  0  0  0  0
    0.9010    2.7224   -4.2532 C   0  0  0  0  0  0  0  0  0  0  0  0
    1.6715    2.3308   -5.3518 C   0  0  0  0  0  0  0  0  0  0  0  0
    2.9584    1.8100   -5.1976 C   0  0  0  0  0  0  0  0  0  0  0  0
    3.7291    1.4386   -6.3467 C   0  0  0  0  0  0  0  0  0  0  0  0
    5.0017    0.9487   -6.2164 C   0  0  0  0  0  0  0  0  0  0  0  0
    5.5671    0.8054   -4.9180 C   0  0  0  0  0  0  0  0  0  0  0  0
    4.8558    1.1412   -3.7922 C   0  0  0  0  0  0  0  0  0  0  0  0
    3.5156    1.6572   -3.8640 C   0  0  0  0  0  0  0  0  0  0  0  0
    3.3415    3.4604    0.0998 C   0  0  0  0  0  0  0  0  0  0  0  0
    3.3519    3.4054    1.5389 C   0  0  0  0  0  0  0  0  0  0  0  0
    3.8111    2.2636    2.2494 C   0  0  0  0  0  0  0  0  0  0  0  0
    3.8049    2.2167    3.6408 C   0  0  0  0  0  0  0  0  0  0  0  0
    3.3233    3.2996    4.3968 C   0  0  0  0  0  0  0  0  0  0  0  0
    2.8873    4.4453    3.7479 C   0  0  0  0  0  0  0  0  0  0  0  0
    2.9192    4.5349    2.3315 C   0  0  0  0  0  0  0  0  0  0  0  0
    2.5609    5.7322    1.6914 C   0  0  0  0  0  0  0  0  0  0  0  0
    2.6914    5.8782    0.2998 C   0  0  0  0  0  0  0  0  0  0  0  0
    2.4352    7.1324   -0.3128 C   0  0  0  0  0  0  0  0  0  0  0  0
    2.6443    7.3158   -1.6715 C   0  0  0  0  0  0  0  0  0  0  0  0
    3.1179    6.2446   -2.4491 C   0  0  0  0  0  0  0  0  0  0  0  0
    3.3398    4.9955   -1.8781 C   0  0  0  0  0  0  0  0  0  0  0  0
    3.1192    4.7502   -0.4971 C   0  0  0  0  0  0  0  0  0  0  0  0
    5.0901    0.9881   -0.5698 C   0  0  0  0  0  0  0  0  0  0  0  0
    5.2028   -0.4516   -0.4071 C   0  0  0  0  0  0  0  0  0  0  0  0
    4.3080   -1.3847   -0.9875 C   0  0  0  0  0  0  0  0  0  0  0  0
    4.4033   -2.7581   -0.7561 C   0  0  0  0  0  0  0  0  0  0  0  0
    5.4268   -3.2651    0.0606 C   0  0  0  0  0  0  0  0  0  0  0  0
    6.3596   -2.3921    0.6067 C   0  0  0  0  0  0  0  0  0  0  0  0
    6.2972   -0.9894    0.3779 C   0  0  0  0  0  0  0  0  0  0  0  0
    7.2845   -0.1099    0.8796 C   0  0  0  0  0  0  0  0  0  0  0  0
    7.3242    1.2568    0.5243 C   0  0  0  0  0  0  0  0  0  0  0  0
    8.4059    2.1003    0.9033 C   0  0  0  0  0  0  0  0  0  0  0  0
    8.4795    3.4292    0.5020 C   0  0  0  0  0  0  0  0  0  0  0  0
    7.4702    3.9568   -0.3185 C   0  0  0  0  0  0  0  0  0  0  0  0
    6.3890    3.1554   -0.6940 C   0  0  0  0  0  0  0  0  0  0  0  0
    6.2404    1.8143   -0.2629 C   0  0  0  0  0  0  0  0  0  0  0  0
    0.3716   -0.5555    0.0776 H   0  0  0  0  0  0  0  0  0  0  0  0
    0.6750    0.2789   -1.5530 H   0  0  0  0  0  0  0  0  0  0  0  0
    2.3549    0.4011    1.0177 H   0  0  0  0  0  0  0  0  0  0  0  0
    0.9172    2.9051   -0.8165 H   0  0  0  0  0  0  0  0  0  0  0  0
   -1.2678    3.8700   -1.2176 H   0  0  0  0  0  0  0  0  0  0  0  0
   -2.1669    4.1084   -3.5496 H   0  0  0  0  0  0  0  0  0  0  0  0
   -0.7769    3.3699   -5.4731 H   0  0  0  0  0  0  0  0  0  0  0  0
    1.2589    2.4429   -6.3589 H   0  0  0  0  0  0  0  0  0  0  0  0
    3.2743    1.5600   -7.3337 H   0  0  0  0  0  0  0  0  0  0  0  0
    5.5823    0.6690   -7.0992 H   0  0  0  0  0  0  0  0  0  0  0  0
    6.5828    0.4169   -4.8103 H   0  0  0  0  0  0  0  0  0  0  0  0
    5.3156    1.0100   -2.8144 H   0  0  0  0  0  0  0  0  0  0  0  0
    4.2289    1.4272    1.6928 H   0  0  0  0  0  0  0  0  0  0  0  0
    4.1866    1.3261    4.1435 H   0  0  0  0  0  0  0  0  0  0  0  0
    3.3092    3.2463    5.4874 H   0  0  0  0  0  0  0  0  0  0  0  0
    2.5294    5.3040    4.3215 H   0  0  0  0  0  0  0  0  0  0  0  0
    2.2253    6.5825    2.2911 H   0  0  0  0  0  0  0  0  0  0  0  0
    2.0860    7.9601    0.3095 H   0  0  0  0  0  0  0  0  0  0  0  0
    2.4560    8.2883   -2.1311 H   0  0  0  0  0  0  0  0  0  0  0  0
    3.3109    6.3867   -3.5142 H   0  0  0  0  0  0  0  0  0  0  0  0
    3.7095    4.1923   -2.5089 H   0  0  0  0  0  0  0  0  0  0  0  0
    3.5242   -1.0273   -1.6567 H   0  0  0  0  0  0  0  0  0  0  0  0
    3.6857   -3.4362   -1.2258 H   0  0  0  0  0  0  0  0  0  0  0  0
    5.5034   -4.3397    0.2472 H   0  0  0  0  0  0  0  0  0  0  0  0
    7.1823   -2.7779    1.2163 H   0  0  0  0  0  0  0  0  0  0  0  0
    8.0982   -0.5210    1.4843 H   0  0  0  0  0  0  0  0  0  0  0  0
    9.2042    1.6680    1.5143 H   0  0  0  0  0  0  0  0  0  0  0  0
    9.3288    4.0488    0.8024 H   0  0  0  0  0  0  0  0  0  0  0  0
    7.5372    4.9852   -0.6837 H   0  0  0  0  0  0  0  0  0  0  0  0
    5.6532    3.5712   -1.3824 H   0  0  0  0  0  0  0  0  0  0  0  0
  1  2  2  0
  1 46  1  0
  1 47  1  0
  3  2  1  1
  2 48  1  0
  3  4  1  0
  3 18  1  0
  3 32  1  0
  4  5  1  0
  4 17  2  0
  5  6  2  0
  5 10  1  0
  6  7  1  0
  6 49  1  0
  7  8  2  0
  7 50  1  0
  8  9  1  0
  8 51  1  0
  9 10  2  0
  9 52  1  0
 10 11  1  0
 11 12  2  0
 11 53  1  0
 12 13  1  0
 12 17  1  0
 13 14  2  0
 13 54  1  0
 14 15  1  0
 14 55  1  0
 15 16  2  0
 15 56  1  0
 16 17  1  0
 16 57  1  0
 18 19  1  0
 18 31  2  0
 19 20  2  0
 19 24  1  0
 20 21  1  0
 20 58  1  0
 21 22  2  0
 21 59  1  0
 22 23  1  0
 22 60  1  0
 23 24  2  0
 23 61  1  0
 24 25  1  0
 25 26  2  0
 25 62  1  0
 26 27  1  0
 26 31  1  0
 27 28  2  0
 27 63  1  0
 28 29  1  0
 28 64  1  0
 29 30  2  0
 29 65  1  0
 30 31  1  0
 30 66  1  0
 32 33  1  0
 32 45  2  0
 33 34  2  0
 33 38  1  0
 34 35  1  0
 34 67  1  0
 35 36  2  0
 35 68  1  0
 36 37  1  0
 36 69  1  0
 37 38  2  0
 37 70  1  0
 38 39  1  0
 39 40  2  0
 39 71  1  0
 40 41  1  0
 40 45  1  0
 41 42  2  0
 41 72  1  0
 42 43  1  0
 42 73  1  0
 43 44  2  0
 43 74  1  0
 44 45  1  0
 44 75  1  0
M  END

