
     RDKit          3D

 69 72  0  0  0  0  0  0  0  0999 V2000
    4.0265   -1.5905    1.1571 C   0  0  0  0  0  0  0  0  0  0  0  0
    2.9401   -0.6687    0.5882 C   0  0  1  0  0  0  0  0  0  0  0  0
    2.4985   -1.1772   -0.7887 C   0  0  0  0  0  0  0  0  0  0  0  0
    1.7375   -0.7951    1.4024 O   0  0  0  0  0  0  0  0  0  0  0  0
    1.7783   -0.3070    2.7127 C   0  0  0  0  0  0  0  0  0  0  0  0
    0.3522    0.0997    3.0939 C   0  0  0  0  0  0  0  0  0  0  0  0
    0.2354    0.7713    4.4636 C   0  0  0  0  0  0  0  0  0  0  0  0
    0.7540    2.1283    4.5242 N   0  0  0  0  0  0  0  0  0  0  0  0
    0.4618    3.1750    3.5507 C   0  0  0  0  0  0  0  0  0  0  0  0
    0.7771    4.4841    4.2785 C   0  0  0  0  0  0  0  0  0  0  0  0
    1.8965    4.0687    5.2484 C   0  0  0  0  0  0  0  0  0  0  0  0
    1.5199    2.6381    5.6493 C   0  0  0  0  0  0  0  0  0  0  0  0
    3.3538    0.8068    0.5324 C   0  0  0  0  0  0  0  0  0  0  0  0
    2.3691    1.7855    0.3038 C   0  0  0  0  0  0  0  0  0  0  0  0
    2.6641    3.1411    0.3668 C   0  0  0  0  0  0  0  0  0  0  0  0
    3.9683    3.5966    0.6729 C   0  0  0  0  0  0  0  0  0  0  0  0
    4.2264    4.9509    0.7917 N   0  0  0  0  0  0  0  0  0  0  0  0
    3.3791    5.9074    1.4010 C   0  0  0  0  0  0  0  0  0  0  0  0
    2.1925    5.6450    1.7210 O   0  0  0  0  0  0  0  0  0  0  0  0
    4.0177    7.1573    1.6215 C   0  0  0  0  0  0  0  0  0  0  0  0
    5.3280    7.4442    1.3752 N   0  0  0  0  0  0  0  0  0  0  0  0
    5.5013    8.7247    1.7026 C   0  0  0  0  0  0  0  0  0  0  0  0
    4.3087    9.3150    2.1757 C   0  0  0  0  0  0  0  0  0  0  0  0
    4.0376   10.6142    2.6236 C   0  0  0  0  0  0  0  0  0  0  0  0
    3.8058   11.7038    2.9891 N   0  0  0  0  0  0  0  0  0  0  0  0
    3.3690    8.2674    2.1654 N   0  0  0  0  0  0  0  0  0  0  0  0
    2.3653    8.3852    2.1362 H   0  0  0  0  0  0  0  0  0  0  0  0
    4.9986    2.6263    0.8167 C   0  0  0  0  0  0  0  0  0  0  0  0
    6.4274    3.0155    1.0353 C   0  0  0  0  0  0  0  0  0  0  0  0
    6.8076    3.7939    2.0674 C   0  0  0  0  0  0  0  0  0  0  0  0
    8.2087    4.2996    2.2921 C   0  0  0  0  0  0  0  0  0  0  0  0
    9.1142    4.0844    1.0738 C   0  0  0  0  0  0  0  0  0  0  0  0
    8.8916    2.6949    0.4707 C   0  0  0  0  0  0  0  0  0  0  0  0
    7.4387    2.5222    0.0131 C   0  0  0  0  0  0  0  0  0  0  0  0
    4.6589    1.2612    0.7449 C   0  0  0  0  0  0  0  0  0  0  0  0
    3.6213   -2.6086    1.2599 H   0  0  0  0  0  0  0  0  0  0  0  0
    4.3830   -1.2557    2.1431 H   0  0  0  0  0  0  0  0  0  0  0  0
    4.8979   -1.6380    0.4881 H   0  0  0  0  0  0  0  0  0  0  0  0
    2.1336   -2.2138   -0.7155 H   0  0  0  0  0  0  0  0  0  0  0  0
    3.3409   -1.1433   -1.4948 H   0  0  0  0  0  0  0  0  0  0  0  0
    1.6879   -0.5532   -1.1912 H   0  0  0  0  0  0  0  0  0  0  0  0
    2.4558    0.5637    2.7926 H   0  0  0  0  0  0  0  0  0  0  0  0
    2.1493   -1.0722    3.4273 H   0  0  0  0  0  0  0  0  0  0  0  0
   -0.2898   -0.7941    3.1058 H   0  0  0  0  0  0  0  0  0  0  0  0
   -0.0534    0.7540    2.3080 H   0  0  0  0  0  0  0  0  0  0  0  0
    0.7384    0.1862    5.2475 H   0  0  0  0  0  0  0  0  0  0  0  0
   -0.8291    0.8478    4.7537 H   0  0  0  0  0  0  0  0  0  0  0  0
   -0.5628    3.0571    3.1719 H   0  0  0  0  0  0  0  0  0  0  0  0
    1.1500    3.0294    2.6992 H   0  0  0  0  0  0  0  0  0  0  0  0
   -0.1104    4.8372    4.8292 H   0  0  0  0  0  0  0  0  0  0  0  0
    1.1041    5.2453    3.5597 H   0  0  0  0  0  0  0  0  0  0  0  0
    1.9878    4.7287    6.1198 H   0  0  0  0  0  0  0  0  0  0  0  0
    2.8630    4.0669    4.7244 H   0  0  0  0  0  0  0  0  0  0  0  0
    0.8549    2.5984    6.5339 H   0  0  0  0  0  0  0  0  0  0  0  0
    2.3584    1.9549    5.8552 H   0  0  0  0  0  0  0  0  0  0  0  0
    1.3445    1.4760    0.0802 H   0  0  0  0  0  0  0  0  0  0  0  0
    1.8921    3.8893    0.1969 H   0  0  0  0  0  0  0  0  0  0  0  0
    5.1975    5.2510    0.7664 H   0  0  0  0  0  0  0  0  0  0  0  0
    6.4650    9.2269    1.6108 H   0  0  0  0  0  0  0  0  0  0  0  0
    6.0526    4.1200    2.7907 H   0  0  0  0  0  0  0  0  0  0  0  0
    8.6406    3.8026    3.1837 H   0  0  0  0  0  0  0  0  0  0  0  0
    8.1587    5.3721    2.5488 H   0  0  0  0  0  0  0  0  0  0  0  0
   10.1713    4.2276    1.3519 H   0  0  0  0  0  0  0  0  0  0  0  0
    8.8833    4.8495    0.3115 H   0  0  0  0  0  0  0  0  0  0  0  0
    9.1298    1.9273    1.2300 H   0  0  0  0  0  0  0  0  0  0  0  0
    9.5762    2.5207   -0.3759 H   0  0  0  0  0  0  0  0  0  0  0  0
    7.2373    1.4638   -0.2265 H   0  0  0  0  0  0  0  0  0  0  0  0
    7.2698    3.0651   -0.9367 H   0  0  0  0  0  0  0  0  0  0  0  0
    5.4647    0.5406    0.8988 H   0  0  0  0  0  0  0  0  0  0  0  0
  1  2  1  0
  1 36  1  0
  1 37  1  0
  1 38  1  0
  2  3  1  0
  2  4  1  1
  2 13  1  0
  3 39  1  0
  3 40  1  0
  3 41  1  0
  4  5  1  0
  5  6  1  0
  5 42  1  0
  5 43  1  0
  6  7  1  0
  6 44  1  0
  6 45  1  0
  7  8  1  0
  7 46  1  0
  7 47  1  0
  8  9  1  0
  8 12  1  0
  9 10  1  0
  9 48  1  0
  9 49  1  0
 10 11  1  0
 10 50  1  0
 10 51  1  0
 11 12  1  0
 11 52  1  0
 11 53  1  0
 12 54  1  0
 12 55  1  0
 13 14  2  0
 13 35  1  0
 14 15  1  0
 14 56  1  0
 15 16  2  0
 15 57  1  0
 16 17  1  0
 16 28  1  0
 17 18  1  0
 17 58  1  0
 18 19  2  0
 18 20  1  0
 20 21  2  0
 20 26  1  0
 21 22  1  0
 22 23  2  0
 22 59  1  0
 23 24  1  0
 23 26  1  0
 24 25  3  0
 26 27  1  0
 28 29  1  0
 28 35  2  0
 29 30  2  0
 29 34  1  0
 30 31  1  0
 30 60  1  0
 31 32  1  0
 31 61  1  0
 31 62  1  0
 32 33  1  0
 32 63  1  0
 32 64  1  0
 33 34  1  0
 33 65  1  0
 33 66  1  0
 34 67  1  0
 34 68  1  0
 35 69  1  0
M  END

