
     RDKit          3D

 71 72  0  0  0  0  0  0  0  0999 V2000
    8.6839   -1.9942    3.9388 C   0  0  0  0  0  0  0  0  0  0  0  0
    8.4081   -2.2658    2.5056 C   0  0  0  0  0  0  0  0  0  0  0  0
    9.2561   -2.1262    1.4222 C   0  0  0  0  0  0  0  0  0  0  0  0
   10.6802   -1.6339    1.5765 C   0  0  0  0  0  0  0  0  0  0  0  0
    8.7582   -2.4868    0.1244 C   0  0  0  0  0  0  0  0  0  0  0  0
    9.6165   -2.4237   -0.9939 C   0  0  0  0  0  0  0  0  0  0  0  0
    9.2203   -2.7767   -2.2103 N   0  0  0  0  0  0  0  0  0  0  0  0
   10.0319   -2.7597   -3.4092 C   0  0  0  0  0  0  0  0  0  0  0  0
    7.3485   -2.9356   -0.1323 C   0  0  0  0  0  0  0  0  0  0  0  0
    6.2971   -2.0006   -0.1321 C   0  0  0  0  0  0  0  0  0  0  0  0
    5.0205   -2.3847   -0.3953 N   0  0  0  0  0  0  0  0  0  0  0  0
    4.7742   -3.6474   -0.6699 C   0  0  0  0  0  0  0  0  0  0  0  0
    5.7455   -4.7058   -0.7342 C   0  0  0  0  0  0  0  0  0  0  0  0
    5.4237   -6.0720   -1.0696 C   0  0  0  0  0  0  0  0  0  0  0  0
    6.4305   -7.0829   -1.2382 C   0  0  0  0  0  0  0  0  0  0  0  0
    6.1205   -8.4006   -1.5347 C   0  0  0  0  0  0  0  0  0  0  0  0
    4.7864   -8.8301   -1.6901 C   0  0  0  0  0  0  0  0  0  0  0  0
    4.4489  -10.1674   -1.9519 N   0  0  0  0  0  0  0  0  0  0  0  0
    5.2615  -11.2397   -2.1424 C   0  0  0  0  0  0  0  0  0  0  0  0
    6.4881  -11.2344   -2.1860 O   0  0  0  0  0  0  0  0  0  0  0  0
    4.5017  -12.5645   -2.3508 C   0  0  0  0  0  0  0  0  0  0  0  0
    3.0674  -12.5075   -2.1271 N   0  0  0  0  0  0  0  0  0  0  0  0
    2.4848  -13.0478   -0.8788 C   0  0  1  0  0  0  0  0  0  0  0  0
    3.1051  -12.3368    0.3359 C   0  0  0  0  0  0  0  0  0  0  0  0
    0.9820  -12.7281   -0.9361 C   0  0  0  0  0  0  0  0  0  0  0  0
    2.6902  -14.5745   -0.7624 C   0  0  0  0  0  0  0  0  0  0  0  0
    3.7547   -7.8400   -1.5735 C   0  0  0  0  0  0  0  0  0  0  0  0
    2.3117   -8.2315   -1.6504 C   0  0  0  0  0  0  0  0  0  0  0  0
    1.8990   -9.2607   -1.1072 O   0  0  0  0  0  0  0  0  0  0  0  0
    1.4324   -7.3951   -2.3112 N   0  0  0  0  0  0  0  0  0  0  0  0
    1.7972   -6.4562   -3.3572 C   0  0  0  0  0  0  0  0  0  0  0  0
    0.0113   -7.6702   -2.2019 C   0  0  0  0  0  0  0  0  0  0  0  0
    4.0888   -6.5224   -1.2656 C   0  0  0  0  0  0  0  0  0  0  0  0
    7.0898   -4.2713   -0.4484 C   0  0  0  0  0  0  0  0  0  0  0  0
    8.5099   -2.9125    4.5280 H   0  0  0  0  0  0  0  0  0  0  0  0
    7.9530   -1.2604    4.3237 H   0  0  0  0  0  0  0  0  0  0  0  0
    9.6951   -1.6279    4.1550 H   0  0  0  0  0  0  0  0  0  0  0  0
    7.4012   -2.6255    2.2845 H   0  0  0  0  0  0  0  0  0  0  0  0
   10.9070   -1.3535    2.6112 H   0  0  0  0  0  0  0  0  0  0  0  0
   10.8697   -0.7462    0.9530 H   0  0  0  0  0  0  0  0  0  0  0  0
   11.4086   -2.4077    1.2849 H   0  0  0  0  0  0  0  0  0  0  0  0
   10.6526   -2.0898   -0.9087 H   0  0  0  0  0  0  0  0  0  0  0  0
    8.2620   -3.1374   -2.2683 H   0  0  0  0  0  0  0  0  0  0  0  0
   11.0387   -2.3874   -3.1774 H   0  0  0  0  0  0  0  0  0  0  0  0
    9.5758   -2.1060   -4.1692 H   0  0  0  0  0  0  0  0  0  0  0  0
   10.1128   -3.7742   -3.8295 H   0  0  0  0  0  0  0  0  0  0  0  0
    6.4698   -0.9412    0.0796 H   0  0  0  0  0  0  0  0  0  0  0  0
    3.7214   -3.8830   -0.8662 H   0  0  0  0  0  0  0  0  0  0  0  0
    7.4863   -6.8273   -1.1364 H   0  0  0  0  0  0  0  0  0  0  0  0
    6.9087   -9.1417   -1.6533 H   0  0  0  0  0  0  0  0  0  0  0  0
    3.4571  -10.4129   -1.9002 H   0  0  0  0  0  0  0  0  0  0  0  0
    5.0271  -13.3125   -1.7290 H   0  0  0  0  0  0  0  0  0  0  0  0
    4.7079  -12.8642   -3.3927 H   0  0  0  0  0  0  0  0  0  0  0  0
    2.5572  -12.8753   -2.9253 H   0  0  0  0  0  0  0  0  0  0  0  0
    2.9235  -11.2540    0.2822 H   0  0  0  0  0  0  0  0  0  0  0  0
    4.1914  -12.5084    0.4001 H   0  0  0  0  0  0  0  0  0  0  0  0
    2.6567  -12.7217    1.2656 H   0  0  0  0  0  0  0  0  0  0  0  0
    0.8331  -11.6416   -1.0178 H   0  0  0  0  0  0  0  0  0  0  0  0
    0.4670  -13.0952   -0.0341 H   0  0  0  0  0  0  0  0  0  0  0  0
    0.5098  -13.2144   -1.8081 H   0  0  0  0  0  0  0  0  0  0  0  0
    3.7595  -14.8391   -0.7309 H   0  0  0  0  0  0  0  0  0  0  0  0
    2.2374  -15.0968   -1.6224 H   0  0  0  0  0  0  0  0  0  0  0  0
    2.2253  -14.9711    0.1549 H   0  0  0  0  0  0  0  0  0  0  0  0
    2.8759   -6.4811   -3.5432 H   0  0  0  0  0  0  0  0  0  0  0  0
    1.5114   -5.4207   -3.0969 H   0  0  0  0  0  0  0  0  0  0  0  0
    1.2750   -6.7205   -4.2960 H   0  0  0  0  0  0  0  0  0  0  0  0
   -0.1770   -8.2657   -1.3015 H   0  0  0  0  0  0  0  0  0  0  0  0
   -0.3664   -8.2372   -3.0746 H   0  0  0  0  0  0  0  0  0  0  0  0
   -0.5483   -6.7213   -2.1445 H   0  0  0  0  0  0  0  0  0  0  0  0
    3.2644   -5.8207   -1.1352 H   0  0  0  0  0  0  0  0  0  0  0  0
    7.9015   -4.9992   -0.4095 H   0  0  0  0  0  0  0  0  0  0  0  0
  1  2  1  0
  1 35  1  0
  1 36  1  0
  1 37  1  0
  2  3  2  0
  2 38  1  0
  3  4  1  0
  3  5  1  0
  4 39  1  0
  4 40  1  0
  4 41  1  0
  5  6  2  0
  5  9  1  0
  6  7  1  0
  6 42  1  0
  7  8  1  0
  7 43  1  0
  8 44  1  0
  8 45  1  0
  8 46  1  0
  9 10  2  0
  9 34  1  0
 10 11  1  0
 10 47  1  0
 11 12  2  0
 12 13  1  0
 12 48  1  0
 13 14  1  0
 13 34  2  0
 14 15  2  0
 14 33  1  0
 15 16  1  0
 15 49  1  0
 16 17  2  0
 16 50  1  0
 17 18  1  0
 17 27  1  0
 18 19  1  0
 18 51  1  0
 19 20  2  0
 19 21  1  0
 21 22  1  0
 21 52  1  0
 21 53  1  0
 23 22  1  6
 22 54  1  0
 23 24  1  0
 23 25  1  0
 23 26  1  0
 24 55  1  0
 24 56  1  0
 24 57  1  0
 25 58  1  0
 25 59  1  0
 25 60  1  0
 26 61  1  0
 26 62  1  0
 26 63  1  0
 27 28  1  0
 27 33  2  0
 28 29  2  0
 28 30  1  0
 30 31  1  0
 30 32  1  0
 31 64  1  0
 31 65  1  0
 31 66  1  0
 32 67  1  0
 32 68  1  0
 32 69  1  0
 33 70  1  0
 34 71  1  0
M  END

