
     RDKit          3D

 38 39  0  0  0  0  0  0  0  0999 V2000
    0.9811    2.4266    0.2413 C   0  0  0  0  0  0  0  0  0  0  0  0
    2.3617    2.1564    0.1164 O   0  0  0  0  0  0  0  0  0  0  0  0
    2.7265    1.5119   -1.0816 C   0  0  0  0  0  0  0  0  0  0  0  0
    4.2115    1.1437   -0.9818 C   0  0  1  0  0  0  0  0  0  0  0  0
    4.4203    0.0237    0.1020 C   0  0  0  0  0  0  0  0  0  0  0  0
    3.9113   -1.2458   -0.3491 N   0  0  0  0  0  0  0  0  0  0  0  0
    4.9152   -2.2404   -0.6722 C   0  0  0  0  0  0  0  0  0  0  0  0
    5.9402   -1.8141   -1.2280 O   0  0  0  0  0  0  0  0  0  0  0  0
    4.6388   -3.6136   -0.3493 C   0  0  0  0  0  0  0  0  0  0  0  0
    3.5349   -4.0369    0.4829 C   0  0  0  0  0  0  0  0  0  0  0  0
    3.3235   -5.3642    0.7054 C   0  0  0  0  0  0  0  0  0  0  0  0
    4.1364   -6.3177    0.1305 N   0  0  0  0  0  0  0  0  0  0  0  0
    3.9785   -7.3050    0.2883 H   0  0  0  0  0  0  0  0  0  0  0  0
    5.2691   -6.0221   -0.6851 C   0  0  0  0  0  0  0  0  0  0  0  0
    5.9327   -6.9688   -1.1197 O   0  0  0  0  0  0  0  0  0  0  0  0
    5.4866   -4.6277   -0.8931 C   0  0  0  0  0  0  0  0  0  0  0  0
    4.8992    0.8337   -2.3267 C   0  0  0  0  0  0  0  0  0  0  0  0
    6.3453    1.3202   -2.1287 C   0  0  0  0  0  0  0  0  0  0  0  0
    6.2073    2.5307   -1.1916 C   0  0  0  0  0  0  0  0  0  0  0  0
    4.9558    2.3186   -0.5252 N   0  0  0  0  0  0  0  0  0  0  0  0
    0.8253    2.9156    1.2126 H   0  0  0  0  0  0  0  0  0  0  0  0
    0.3835    1.4972    0.2081 H   0  0  0  0  0  0  0  0  0  0  0  0
    0.6237    3.1007   -0.5605 H   0  0  0  0  0  0  0  0  0  0  0  0
    2.5494    2.1754   -1.9522 H   0  0  0  0  0  0  0  0  0  0  0  0
    2.1664    0.5758   -1.2470 H   0  0  0  0  0  0  0  0  0  0  0  0
    3.9081    0.3653    1.0158 H   0  0  0  0  0  0  0  0  0  0  0  0
    5.4962   -0.0508    0.3227 H   0  0  0  0  0  0  0  0  0  0  0  0
    3.1517   -1.5997    0.2179 H   0  0  0  0  0  0  0  0  0  0  0  0
    2.8723   -3.3308    0.9873 H   0  0  0  0  0  0  0  0  0  0  0  0
    2.5204   -5.7334    1.3466 H   0  0  0  0  0  0  0  0  0  0  0  0
    6.3357   -4.3477   -1.5125 H   0  0  0  0  0  0  0  0  0  0  0  0
    4.3983    1.3934   -3.1350 H   0  0  0  0  0  0  0  0  0  0  0  0
    4.8689   -0.2369   -2.5431 H   0  0  0  0  0  0  0  0  0  0  0  0
    6.8443    1.5887   -3.0686 H   0  0  0  0  0  0  0  0  0  0  0  0
    6.9228    0.5187   -1.6491 H   0  0  0  0  0  0  0  0  0  0  0  0
    6.1344    3.4998   -1.7287 H   0  0  0  0  0  0  0  0  0  0  0  0
    7.0101    2.6680   -0.4460 H   0  0  0  0  0  0  0  0  0  0  0  0
    4.5761    2.9115    0.2134 H   0  0  0  0  0  0  0  0  0  0  0  0
  1  2  1  0
  1 21  1  0
  1 22  1  0
  1 23  1  0
  2  3  1  0
  4  3  1  6
  3 24  1  0
  3 25  1  0
  4  5  1  0
  4 17  1  0
  4 20  1  0
  5  6  1  0
  5 26  1  0
  5 27  1  0
  6  7  1  0
  6 28  1  0
  7  8  2  0
  7  9  1  0
  9 10  1  0
  9 16  2  0
 10 11  2  0
 10 29  1  0
 11 12  1  0
 11 30  1  0
 12 13  1  0
 12 14  1  0
 14 15  2  0
 14 16  1  0
 16 31  1  0
 17 18  1  0
 17 32  1  0
 17 33  1  0
 18 19  1  0
 18 34  1  0
 18 35  1  0
 19 20  1  0
 19 36  1  0
 19 37  1  0
 20 38  1  0
M  END

