
     RDKit          3D

 44 44  0  0  0  0  0  0  0  0999 V2000
    3.9083    1.0769   -2.7758 C   0  0  0  0  0  0  0  0  0  0  0  0
    3.4755   -0.2323   -3.0757 O   0  0  0  0  0  0  0  0  0  0  0  0
    3.0152   -1.0500   -1.9966 C   0  0  1  0  0  0  0  0  0  0  0  0
    2.0482   -0.3277   -1.0539 C   0  0  0  0  0  0  0  0  0  0  0  0
    2.3196   -2.2387   -2.6746 C   0  0  0  0  0  0  0  0  0  0  0  0
    4.2148   -1.6096   -1.1801 C   0  0  0  0  0  0  0  0  0  0  0  0
    4.0702   -2.0299   -0.0388 O   0  0  0  0  0  0  0  0  0  0  0  0
    5.3915   -1.6369   -1.8566 N   0  0  0  0  0  0  0  0  0  0  0  0
    6.6234   -2.1292   -1.2833 C   0  0  0  0  0  0  0  0  0  0  0  0
    7.1404   -3.4599   -1.8889 C   0  0  1  0  0  0  0  0  0  0  0  0
    7.4487   -3.1979   -3.3776 C   0  0  0  0  0  0  0  0  0  0  0  0
    7.2885   -2.1348   -3.9225 O   0  0  0  0  0  0  0  0  0  0  0  0
    7.9307   -4.2386   -4.0898 O   0  0  0  0  0  0  0  0  0  0  0  0
    8.4507   -3.8758   -1.1581 C   0  0  0  0  0  0  0  0  0  0  0  0
    8.2186   -4.3339    0.2905 C   0  0  0  0  0  0  0  0  0  0  0  0
    7.1731   -5.4616    0.4152 C   0  0  2  0  0  0  0  0  0  0  0  0
    7.7112   -6.8201   -0.0585 C   0  0  0  0  0  0  0  0  0  0  0  0
    5.8718   -5.0501   -0.3038 C   0  0  0  0  0  0  0  0  0  0  0  0
    6.0997   -4.6066   -1.7564 C   0  0  0  0  0  0  0  0  0  0  0  0
    4.3636    1.4774   -3.6935 H   0  0  0  0  0  0  0  0  0  0  0  0
    4.6692    1.1002   -1.9725 H   0  0  0  0  0  0  0  0  0  0  0  0
    3.0746    1.7407   -2.4855 H   0  0  0  0  0  0  0  0  0  0  0  0
    1.1882    0.0606   -1.6211 H   0  0  0  0  0  0  0  0  0  0  0  0
    2.5293    0.5049   -0.5206 H   0  0  0  0  0  0  0  0  0  0  0  0
    1.6910   -1.0324   -0.2921 H   0  0  0  0  0  0  0  0  0  0  0  0
    1.4311   -1.8862   -3.2201 H   0  0  0  0  0  0  0  0  0  0  0  0
    2.0139   -2.9838   -1.9264 H   0  0  0  0  0  0  0  0  0  0  0  0
    2.9995   -2.7135   -3.3978 H   0  0  0  0  0  0  0  0  0  0  0  0
    5.4086   -1.2841   -2.8087 H   0  0  0  0  0  0  0  0  0  0  0  0
    6.4424   -2.2483   -0.2083 H   0  0  0  0  0  0  0  0  0  0  0  0
    7.4119   -1.3714   -1.4145 H   0  0  0  0  0  0  0  0  0  0  0  0
    8.0009   -5.0283   -3.5350 H   0  0  0  0  0  0  0  0  0  0  0  0
    9.1652   -3.0356   -1.1794 H   0  0  0  0  0  0  0  0  0  0  0  0
    8.9400   -4.6917   -1.7183 H   0  0  0  0  0  0  0  0  0  0  0  0
    7.8919   -3.4749    0.8991 H   0  0  0  0  0  0  0  0  0  0  0  0
    9.1805   -4.6592    0.7220 H   0  0  0  0  0  0  0  0  0  0  0  0
    6.9363   -5.5706    1.4880 H   0  0  0  0  0  0  0  0  0  0  0  0
    7.9821   -6.8261   -1.1272 H   0  0  0  0  0  0  0  0  0  0  0  0
    6.9602   -7.6132    0.0882 H   0  0  0  0  0  0  0  0  0  0  0  0
    8.6137   -7.1072    0.5054 H   0  0  0  0  0  0  0  0  0  0  0  0
    5.3809   -4.2310    0.2457 H   0  0  0  0  0  0  0  0  0  0  0  0
    5.1578   -5.8912   -0.2952 H   0  0  0  0  0  0  0  0  0  0  0  0
    5.1471   -4.2890   -2.2085 H   0  0  0  0  0  0  0  0  0  0  0  0
    6.4357   -5.4746   -2.3518 H   0  0  0  0  0  0  0  0  0  0  0  0
  1  2  1  0
  1 20  1  0
  1 21  1  0
  1 22  1  0
  3  2  1  6
  3  4  1  0
  3  5  1  0
  3  6  1  0
  4 23  1  0
  4 24  1  0
  4 25  1  0
  5 26  1  0
  5 27  1  0
  5 28  1  0
  6  7  2  0
  6  8  1  0
  8  9  1  0
  8 29  1  0
  9 10  1  0
  9 30  1  0
  9 31  1  0
 10 11  1  6
 10 14  1  0
 10 19  1  0
 11 12  2  0
 11 13  1  0
 13 32  1  0
 14 15  1  0
 14 33  1  0
 14 34  1  0
 15 16  1  0
 15 35  1  0
 15 36  1  0
 16 17  1  0
 16 18  1  0
 16 37  1  1
 17 38  1  0
 17 39  1  0
 17 40  1  0
 18 19  1  0
 18 41  1  0
 18 42  1  0
 19 43  1  0
 19 44  1  0
M  END

