
     RDKit          3D

 32 32  0  0  0  0  0  0  0  0999 V2000
    1.0358   -1.1038   -1.0062 C   0  0  0  0  0  0  0  0  0  0  0  0
    2.5246   -0.8248   -0.7313 C   0  0  1  0  0  0  0  0  0  0  0  0
    3.3383   -2.1156   -0.9244 C   0  0  0  0  0  0  0  0  0  0  0  0
    3.0075    0.2307   -1.5507 O   0  0  0  0  0  0  0  0  0  0  0  0
    2.5876   -0.3067    0.7240 C   0  0  0  0  0  0  0  0  0  0  0  0
    3.9112    0.0631    1.1978 N   0  0  0  0  0  0  0  0  0  0  0  0
    4.7077    1.1309    0.6370 C   0  0  0  0  0  0  0  0  0  0  0  0
    5.9864    1.1636    1.4788 C   0  0  0  0  0  0  0  0  0  0  0  0
    6.0974   -0.2710    2.0336 C   0  0  1  0  0  0  0  0  0  0  0  0
    6.5251   -0.9162    1.2401 H   0  0  0  0  0  0  0  0  0  0  0  0
    6.9454   -0.4246    3.3064 C   0  0  0  0  0  0  0  0  0  0  0  0
    8.3500   -0.0793    3.1870 N   0  0  0  0  0  0  0  0  0  0  0  0
    4.6305   -0.6849    2.2058 C   0  0  0  0  0  0  0  0  0  0  0  0
    0.9319   -1.4799   -2.0349 H   0  0  0  0  0  0  0  0  0  0  0  0
    0.4471   -0.1762   -0.9129 H   0  0  0  0  0  0  0  0  0  0  0  0
    0.6504   -1.8754   -0.3020 H   0  0  0  0  0  0  0  0  0  0  0  0
    3.1978   -2.4345   -1.9799 H   0  0  0  0  0  0  0  0  0  0  0  0
    2.9896   -2.9057   -0.2075 H   0  0  0  0  0  0  0  0  0  0  0  0
    4.4218   -1.9549   -0.7799 H   0  0  0  0  0  0  0  0  0  0  0  0
    3.1384   -0.1640   -2.4732 H   0  0  0  0  0  0  0  0  0  0  0  0
    2.2043   -1.1028    1.4004 H   0  0  0  0  0  0  0  0  0  0  0  0
    1.9598    0.5967    0.7963 H   0  0  0  0  0  0  0  0  0  0  0  0
    4.1132    2.0586    0.6072 H   0  0  0  0  0  0  0  0  0  0  0  0
    4.8596    0.8606   -0.4283 H   0  0  0  0  0  0  0  0  0  0  0  0
    5.8914    1.8878    2.3062 H   0  0  0  0  0  0  0  0  0  0  0  0
    6.8552    1.4588    0.8695 H   0  0  0  0  0  0  0  0  0  0  0  0
    6.5001    0.1946    4.1077 H   0  0  0  0  0  0  0  0  0  0  0  0
    6.8739   -1.4690    3.6574 H   0  0  0  0  0  0  0  0  0  0  0  0
    8.4742    0.8913    2.9009 H   0  0  0  0  0  0  0  0  0  0  0  0
    8.8143   -0.6582    2.4872 H   0  0  0  0  0  0  0  0  0  0  0  0
    4.2274   -0.3831    3.1961 H   0  0  0  0  0  0  0  0  0  0  0  0
    4.4012   -1.7618    2.0770 H   0  0  0  0  0  0  0  0  0  0  0  0
  1  2  1  0
  1 14  1  0
  1 15  1  0
  1 16  1  0
  2  3  1  0
  2  4  1  6
  2  5  1  0
  3 17  1  0
  3 18  1  0
  3 19  1  0
  4 20  1  0
  5  6  1  0
  5 21  1  0
  5 22  1  0
  6  7  1  0
  6 13  1  0
  7  8  1  0
  7 23  1  0
  7 24  1  0
  8  9  1  0
  8 25  1  0
  8 26  1  0
  9 10  1  6
  9 11  1  0
  9 13  1  0
 11 12  1  0
 11 27  1  0
 11 28  1  0
 12 29  1  0
 12 30  1  0
 13 31  1  0
 13 32  1  0
M  END

