
     RDKit          3D

 28 29  0  0  0  0  0  0  0  0999 V2000
    1.8996    0.0808    0.1494 N   0  0  0  0  0  0  0  0  0  0  0  0
    3.2847   -0.3310    0.3191 C   0  0  0  0  0  0  0  0  0  0  0  0
    3.7863    0.0331    1.6974 C   0  0  1  0  0  0  0  0  0  0  0  0
    5.2299    0.1794    1.9971 C   0  0  0  0  0  0  0  0  0  0  0  0
    4.3839    1.4559    1.9223 C   0  0  2  0  0  0  0  0  0  0  0  0
    4.0387    2.2729    3.0869 C   0  0  0  0  0  0  0  0  0  0  0  0
    3.9249    1.7180    4.3980 C   0  0  0  0  0  0  0  0  0  0  0  0
    3.5371    2.5145    5.5183 C   0  0  0  0  0  0  0  0  0  0  0  0
    3.2903    3.9000    5.3138 C   0  0  0  0  0  0  0  0  0  0  0  0
    3.4091    4.4561    4.0181 C   0  0  0  0  0  0  0  0  0  0  0  0
    3.1497    5.8022    3.9305 O   0  0  0  0  0  0  0  0  0  0  0  0
    3.6477    6.5315    2.8825 C   0  0  1  0  0  0  0  0  0  0  0  0
    2.8669    6.3825    1.7824 F   0  0  0  0  0  0  0  0  0  0  0  0
    3.5973    7.8189    3.2426 F   0  0  0  0  0  0  0  0  0  0  0  0
    3.7663    3.6712    2.8787 C   0  0  0  0  0  0  0  0  0  0  0  0
    1.5440   -0.2025   -0.7630 H   0  0  0  0  0  0  0  0  0  0  0  0
    1.8211    1.0975    0.1946 H   0  0  0  0  0  0  0  0  0  0  0  0
    3.9952    0.0785   -0.4348 H   0  0  0  0  0  0  0  0  0  0  0  0
    3.3327   -1.4311    0.2129 H   0  0  0  0  0  0  0  0  0  0  0  0
    3.1359   -0.3070    2.5096 H   0  0  0  0  0  0  0  0  0  0  0  0
    5.9500    0.0417    1.1837 H   0  0  0  0  0  0  0  0  0  0  0  0
    5.5984   -0.1170    2.9822 H   0  0  0  0  0  0  0  0  0  0  0  0
    4.5136    2.0281    0.9981 H   0  0  0  0  0  0  0  0  0  0  0  0
    4.1417    0.6592    4.5539 H   0  0  0  0  0  0  0  0  0  0  0  0
    3.4442    2.0737    6.5103 H   0  0  0  0  0  0  0  0  0  0  0  0
    3.0296    4.5648    6.1390 H   0  0  0  0  0  0  0  0  0  0  0  0
    4.6810    6.2440    2.6199 H   0  0  0  0  0  0  0  0  0  0  0  0
    3.6831    4.0704    1.8689 H   0  0  0  0  0  0  0  0  0  0  0  0
  1  2  1  0
  1 16  1  0
  1 17  1  0
  2  3  1  0
  2 18  1  0
  2 19  1  0
  3  4  1  0
  3  5  1  0
  3 20  1  1
  4  5  1  0
  4 21  1  0
  4 22  1  0
  5  6  1  0
  5 23  1  6
  6  7  2  0
  6 15  1  0
  7  8  1  0
  7 24  1  0
  8  9  2  0
  8 25  1  0
  9 10  1  0
  9 26  1  0
 10 11  1  0
 10 15  2  0
 11 12  1  0
 12 13  1  0
 12 14  1  0
 12 27  1  6
 15 28  1  0
M  END

