
     RDKit          3D

 52 53  0  0  0  0  0  0  0  0999 V2000
    0.7593    0.5036    1.0006 C   0  0  0  0  0  0  0  0  0  0  0  0
    1.8969    1.2815    1.4507 N   0  0  0  0  0  0  0  0  0  0  0  0
    2.3652    0.8519    2.7532 C   0  0  0  0  0  0  0  0  0  0  0  0
    2.9517    1.3759    0.4526 C   0  0  0  0  0  0  0  0  0  0  0  0
    3.8422    2.6217    0.6409 C   0  0  0  0  0  0  0  0  0  0  0  0
    4.9299    2.7228   -0.3994 C   0  0  0  0  0  0  0  0  0  0  0  0
    4.7699    3.4645   -1.5881 C   0  0  0  0  0  0  0  0  0  0  0  0
    3.5433    4.1775   -1.8281 C   0  0  0  0  0  0  0  0  0  0  0  0
    2.5594    4.7566   -2.0413 N   0  0  0  0  0  0  0  0  0  0  0  0
    5.7873    3.5343   -2.5627 C   0  0  0  0  0  0  0  0  0  0  0  0
    6.9780    2.8517   -2.3504 C   0  0  0  0  0  0  0  0  0  0  0  0
    7.1678    2.1022   -1.1840 C   0  0  0  0  0  0  0  0  0  0  0  0
    6.1531    2.0324   -0.2192 C   0  0  0  0  0  0  0  0  0  0  0  0
    6.2607    1.3221    0.9323 O   0  0  0  0  0  0  0  0  0  0  0  0
    7.4544    0.6152    1.2293 C   0  0  0  0  0  0  0  0  0  0  0  0
    7.2438   -0.0992    2.5609 C   0  0  0  0  0  0  0  0  0  0  0  0
    8.4385   -0.8177    2.9840 N   0  0  0  0  0  0  0  0  0  0  0  0
    9.4050    0.0289    3.6615 C   0  0  0  0  0  0  0  0  0  0  0  0
    8.1508   -2.0395    3.7284 C   0  0  0  0  0  0  0  0  0  0  0  0
    7.5038   -3.1266    2.8906 C   0  0  0  0  0  0  0  0  0  0  0  0
    8.0176   -3.4467    1.6230 C   0  0  0  0  0  0  0  0  0  0  0  0
    7.4552   -4.4755    0.8650 C   0  0  0  0  0  0  0  0  0  0  0  0
    6.3680   -5.2037    1.3620 C   0  0  0  0  0  0  0  0  0  0  0  0
    5.8472   -4.8921    2.6201 C   0  0  0  0  0  0  0  0  0  0  0  0
    6.4112   -3.8582    3.3759 C   0  0  0  0  0  0  0  0  0  0  0  0
   -0.0467    0.5470    1.7510 H   0  0  0  0  0  0  0  0  0  0  0  0
    0.9967   -0.5730    0.8283 H   0  0  0  0  0  0  0  0  0  0  0  0
    0.3630    0.9156    0.0593 H   0  0  0  0  0  0  0  0  0  0  0  0
    1.5460    0.9124    3.4877 H   0  0  0  0  0  0  0  0  0  0  0  0
    3.1769    1.5016    3.1129 H   0  0  0  0  0  0  0  0  0  0  0  0
    2.7471   -0.1969    2.7577 H   0  0  0  0  0  0  0  0  0  0  0  0
    2.4752    1.4444   -0.5381 H   0  0  0  0  0  0  0  0  0  0  0  0
    3.5914    0.4640    0.4331 H   0  0  0  0  0  0  0  0  0  0  0  0
    4.3114    2.5922    1.6344 H   0  0  0  0  0  0  0  0  0  0  0  0
    3.1926    3.5081    0.6050 H   0  0  0  0  0  0  0  0  0  0  0  0
    5.6276    4.1218   -3.4678 H   0  0  0  0  0  0  0  0  0  0  0  0
    7.7752    2.8970   -3.0959 H   0  0  0  0  0  0  0  0  0  0  0  0
    8.1082    1.5719   -1.0364 H   0  0  0  0  0  0  0  0  0  0  0  0
    8.3061    1.3182    1.2801 H   0  0  0  0  0  0  0  0  0  0  0  0
    7.6764   -0.1281    0.4434 H   0  0  0  0  0  0  0  0  0  0  0  0
    6.4186   -0.8142    2.4270 H   0  0  0  0  0  0  0  0  0  0  0  0
    6.9049    0.6390    3.3201 H   0  0  0  0  0  0  0  0  0  0  0  0
    9.6566    0.9041    3.0436 H   0  0  0  0  0  0  0  0  0  0  0  0
   10.3388   -0.5276    3.8383 H   0  0  0  0  0  0  0  0  0  0  0  0
    9.0423    0.4080    4.6443 H   0  0  0  0  0  0  0  0  0  0  0  0
    7.5227   -1.8459    4.6274 H   0  0  0  0  0  0  0  0  0  0  0  0
    9.1142   -2.4188    4.1121 H   0  0  0  0  0  0  0  0  0  0  0  0
    8.8621   -2.8710    1.2364 H   0  0  0  0  0  0  0  0  0  0  0  0
    7.8673   -4.7132   -0.1195 H   0  0  0  0  0  0  0  0  0  0  0  0
    5.9274   -6.0084    0.7679 H   0  0  0  0  0  0  0  0  0  0  0  0
    4.9944   -5.4506    3.0147 H   0  0  0  0  0  0  0  0  0  0  0  0
    5.9942   -3.6152    4.3579 H   0  0  0  0  0  0  0  0  0  0  0  0
  1  2  1  0
  1 26  1  0
  1 27  1  0
  1 28  1  0
  2  3  1  0
  2  4  1  0
  3 29  1  0
  3 30  1  0
  3 31  1  0
  4  5  1  0
  4 32  1  0
  4 33  1  0
  5  6  1  0
  5 34  1  0
  5 35  1  0
  6  7  2  0
  6 13  1  0
  7  8  1  0
  7 10  1  0
  8  9  3  0
 10 11  2  0
 10 36  1  0
 11 12  1  0
 11 37  1  0
 12 13  2  0
 12 38  1  0
 13 14  1  0
 14 15  1  0
 15 16  1  0
 15 39  1  0
 15 40  1  0
 16 17  1  0
 16 41  1  0
 16 42  1  0
 17 18  1  0
 17 19  1  0
 18 43  1  0
 18 44  1  0
 18 45  1  0
 19 20  1  0
 19 46  1  0
 19 47  1  0
 20 21  2  0
 20 25  1  0
 21 22  1  0
 21 48  1  0
 22 23  2  0
 22 49  1  0
 23 24  1  0
 23 50  1  0
 24 25  2  0
 24 51  1  0
 25 52  1  0
M  END

