
     RDKit          3D

 34 35  0  0  0  0  0  0  0  0999 V2000
    0.7908    0.4014    0.2681 C   0  0  0  0  0  0  0  0  0  0  0  0
    2.3036    0.3486    0.0904 C   0  0  0  0  0  0  0  0  0  0  0  0
    2.9741    0.9827    1.2220 N   0  0  0  0  0  0  0  0  0  0  0  0
    4.4198    0.8581    1.2861 C   0  0  1  0  0  0  0  0  0  0  0  0
    5.1322    1.3952    0.0088 C   0  0  0  0  0  0  0  0  0  0  0  0
    4.7662    2.7816   -0.4244 C   0  0  0  0  0  0  0  0  0  0  0  0
    3.7648    3.0814   -1.2421 N   0  0  0  0  0  0  0  0  0  0  0  0
    3.8269    4.4320   -1.3380 C   0  0  0  0  0  0  0  0  0  0  0  0
    4.8014    4.9922   -0.6420 N   0  0  0  0  0  0  0  0  0  0  0  0
    5.4003    3.9315   -0.0588 N   0  0  0  0  0  0  0  0  0  0  0  0
    6.5593    4.1461    0.7845 C   0  0  0  0  0  0  0  0  0  0  0  0
    4.9582    1.5401    2.5380 C   0  0  0  0  0  0  0  0  0  0  0  0
    4.2289    2.5142    3.2360 C   0  0  0  0  0  0  0  0  0  0  0  0
    4.7884    3.0985    4.3735 C   0  0  0  0  0  0  0  0  0  0  0  0
    6.0623    2.6889    4.7688 C   0  0  0  0  0  0  0  0  0  0  0  0
    6.8250    3.3650    6.1834 Cl  0  0  0  0  0  0  0  0  0  0  0  0
    6.7292    1.7197    4.0067 C   0  0  0  0  0  0  0  0  0  0  0  0
    6.1872    1.1674    2.9247 N   0  0  0  0  0  0  0  0  0  0  0  0
    0.2789   -0.0453   -0.5982 H   0  0  0  0  0  0  0  0  0  0  0  0
    0.4521    1.4441    0.3709 H   0  0  0  0  0  0  0  0  0  0  0  0
    0.4671   -0.1531    1.1666 H   0  0  0  0  0  0  0  0  0  0  0  0
    2.5746    0.8982   -0.8237 H   0  0  0  0  0  0  0  0  0  0  0  0
    2.6257   -0.7089   -0.0502 H   0  0  0  0  0  0  0  0  0  0  0  0
    2.5792    0.6195    2.0900 H   0  0  0  0  0  0  0  0  0  0  0  0
    4.7576   -0.1999    1.3595 H   0  0  0  0  0  0  0  0  0  0  0  0
    4.8978    0.7267   -0.8314 H   0  0  0  0  0  0  0  0  0  0  0  0
    6.2137    1.3076    0.1884 H   0  0  0  0  0  0  0  0  0  0  0  0
    3.1399    5.0247   -1.9422 H   0  0  0  0  0  0  0  0  0  0  0  0
    7.2994    4.7495    0.2397 H   0  0  0  0  0  0  0  0  0  0  0  0
    7.0025    3.1820    1.0594 H   0  0  0  0  0  0  0  0  0  0  0  0
    6.2719    4.6801    1.7025 H   0  0  0  0  0  0  0  0  0  0  0  0
    3.2400    2.8024    2.8777 H   0  0  0  0  0  0  0  0  0  0  0  0
    4.2510    3.8583    4.9447 H   0  0  0  0  0  0  0  0  0  0  0  0
    7.7332    1.3920    4.2983 H   0  0  0  0  0  0  0  0  0  0  0  0
  1  2  1  0
  1 19  1  0
  1 20  1  0
  1 21  1  0
  2  3  1  0
  2 22  1  0
  2 23  1  0
  3  4  1  0
  3 24  1  0
  4  5  1  0
  4 12  1  0
  4 25  1  1
  5  6  1  0
  5 26  1  0
  5 27  1  0
  6  7  2  0
  6 10  1  0
  7  8  1  0
  8  9  2  0
  8 28  1  0
  9 10  1  0
 10 11  1  0
 11 29  1  0
 11 30  1  0
 11 31  1  0
 12 13  2  0
 12 18  1  0
 13 14  1  0
 13 32  1  0
 14 15  2  0
 14 33  1  0
 15 16  1  0
 15 17  1  0
 17 18  2  0
 17 34  1  0
M  END

