
     RDKit          3D

 63 68  0  0  0  0  0  0  0  0999 V2000
    1.3913   -5.2510    7.3642 C   0  0  0  0  0  0  0  0  0  0  0  0
    2.0499   -4.1896    6.7098 O   0  0  0  0  0  0  0  0  0  0  0  0
    2.7654   -4.4425    5.5870 C   0  0  0  0  0  0  0  0  0  0  0  0
    3.4039   -3.3377    4.9940 C   0  0  0  0  0  0  0  0  0  0  0  0
    4.1597   -3.5040    3.8412 C   0  0  0  0  0  0  0  0  0  0  0  0
    4.3184   -4.7654    3.2308 C   0  0  0  0  0  0  0  0  0  0  0  0
    5.1612   -4.8723    1.9670 C   0  0  1  0  0  0  0  0  0  0  0  0
    4.8659   -4.0202    1.3292 H   0  0  0  0  0  0  0  0  0  0  0  0
    6.6705   -4.6658    2.2245 C   0  0  0  0  0  0  0  0  0  0  0  0
    7.3369   -5.9456    2.7536 C   0  0  0  0  0  0  0  0  0  0  0  0
    8.4003   -5.6698    3.4233 O   0  0  0  0  0  0  0  0  0  0  0  0
    6.8347   -7.2076    2.4755 C   0  0  0  0  0  0  0  0  0  0  0  0
    5.6473   -7.3598    1.7094 C   0  0  0  0  0  0  0  0  0  0  0  0
    4.9576   -6.1500    1.1382 C   0  0  0  0  0  0  0  0  0  0  0  0
    5.0900   -8.5632    1.3149 N   0  0  0  0  0  0  0  0  0  0  0  0
    5.4508   -9.8969    1.4415 C   0  0  0  0  0  0  0  0  0  0  0  0
    4.4458  -10.8724    1.2250 C   0  0  0  0  0  0  0  0  0  0  0  0
    4.7231  -12.2300    1.3042 C   0  0  0  0  0  0  0  0  0  0  0  0
    6.0143  -12.6687    1.6329 C   0  0  0  0  0  0  0  0  0  0  0  0
    7.0112  -11.7204    1.8605 C   0  0  0  0  0  0  0  0  0  0  0  0
    6.7651  -10.3473    1.7384 C   0  0  0  0  0  0  0  0  0  0  0  0
    7.8153   -9.4094    1.9272 N   0  0  0  0  0  0  0  0  0  0  0  0
    9.0588   -9.4843    1.3058 C   0  0  0  0  0  0  0  0  0  0  0  0
   10.0288   -8.8864    1.7452 O   0  0  0  0  0  0  0  0  0  0  0  0
    9.1895  -10.2842    0.0351 C   0  0  0  0  0  0  0  0  0  0  0  0
    8.2113  -10.2919   -0.9718 C   0  0  0  0  0  0  0  0  0  0  0  0
    8.4458  -10.9581   -2.1766 C   0  0  0  0  0  0  0  0  0  0  0  0
    9.6522  -11.6345   -2.3838 C   0  0  0  0  0  0  0  0  0  0  0  0
   10.6350  -11.6224   -1.3886 C   0  0  0  0  0  0  0  0  0  0  0  0
   10.4111  -10.9377   -0.1933 C   0  0  0  0  0  0  0  0  0  0  0  0
    7.6501   -8.3879    2.9808 C   0  0  2  0  0  0  0  0  0  0  0  0
    8.6738   -8.0218    3.1692 H   0  0  0  0  0  0  0  0  0  0  0  0
    7.1312   -8.9851    4.2559 C   0  0  0  0  0  0  0  0  0  0  0  0
    6.1403   -8.6344    5.1335 C   0  0  0  0  0  0  0  0  0  0  0  0
    6.2056   -9.5768    6.2135 C   0  0  0  0  0  0  0  0  0  0  0  0
    7.2299  -10.4263    5.9093 C   0  0  0  0  0  0  0  0  0  0  0  0
    7.7995  -10.0734    4.7297 O   0  0  0  0  0  0  0  0  0  0  0  0
    3.6682   -5.8512    3.8291 C   0  0  0  0  0  0  0  0  0  0  0  0
    2.8996   -5.7044    4.9914 C   0  0  0  0  0  0  0  0  0  0  0  0
    0.8906   -4.8165    8.2397 H   0  0  0  0  0  0  0  0  0  0  0  0
    2.1005   -6.0264    7.7059 H   0  0  0  0  0  0  0  0  0  0  0  0
    0.6316   -5.7254    6.7169 H   0  0  0  0  0  0  0  0  0  0  0  0
    3.2847   -2.3574    5.4597 H   0  0  0  0  0  0  0  0  0  0  0  0
    4.6382   -2.6260    3.3962 H   0  0  0  0  0  0  0  0  0  0  0  0
    6.8455   -3.8511    2.9412 H   0  0  0  0  0  0  0  0  0  0  0  0
    7.1949   -4.3922    1.2922 H   0  0  0  0  0  0  0  0  0  0  0  0
    3.8754   -6.3451    1.0219 H   0  0  0  0  0  0  0  0  0  0  0  0
    5.3318   -5.9532    0.1113 H   0  0  0  0  0  0  0  0  0  0  0  0
    4.1612   -8.4515    0.9210 H   0  0  0  0  0  0  0  0  0  0  0  0
    3.4313  -10.5359    0.9886 H   0  0  0  0  0  0  0  0  0  0  0  0
    3.9234  -12.9528    1.1239 H   0  0  0  0  0  0  0  0  0  0  0  0
    6.2374  -13.7336    1.7208 H   0  0  0  0  0  0  0  0  0  0  0  0
    8.0200  -12.0363    2.1314 H   0  0  0  0  0  0  0  0  0  0  0  0
    7.2690   -9.7632   -0.8213 H   0  0  0  0  0  0  0  0  0  0  0  0
    7.6814  -10.9495   -2.9578 H   0  0  0  0  0  0  0  0  0  0  0  0
    9.8293  -12.1636   -3.3239 H   0  0  0  0  0  0  0  0  0  0  0  0
   11.5843  -12.1400   -1.5494 H   0  0  0  0  0  0  0  0  0  0  0  0
   11.1822  -10.8912    0.5782 H   0  0  0  0  0  0  0  0  0  0  0  0
    5.4614   -7.7935    5.0251 H   0  0  0  0  0  0  0  0  0  0  0  0
    5.5731   -9.6154    7.0979 H   0  0  0  0  0  0  0  0  0  0  0  0
    7.6566  -11.2933    6.4069 H   0  0  0  0  0  0  0  0  0  0  0  0
    3.7605   -6.8482    3.3955 H   0  0  0  0  0  0  0  0  0  0  0  0
    2.4152   -6.5823    5.4193 H   0  0  0  0  0  0  0  0  0  0  0  0
  1  2  1  0
  1 40  1  0
  1 41  1  0
  1 42  1  0
  2  3  1  0
  3  4  2  0
  3 39  1  0
  4  5  1  0
  4 43  1  0
  5  6  2  0
  5 44  1  0
  6  7  1  0
  6 38  1  0
  7  8  1  6
  7  9  1  0
  7 14  1  0
  9 10  1  0
  9 45  1  0
  9 46  1  0
 10 11  2  0
 10 12  1  0
 12 13  2  0
 12 31  1  0
 13 14  1  0
 13 15  1  0
 14 47  1  0
 14 48  1  0
 15 16  1  0
 15 49  1  0
 16 17  1  0
 16 21  2  0
 17 18  2  0
 17 50  1  0
 18 19  1  0
 18 51  1  0
 19 20  2  0
 19 52  1  0
 20 21  1  0
 20 53  1  0
 21 22  1  0
 22 23  1  0
 22 31  1  0
 23 24  2  0
 23 25  1  0
 25 26  2  0
 25 30  1  0
 26 27  1  0
 26 54  1  0
 27 28  2  0
 27 55  1  0
 28 29  1  0
 28 56  1  0
 29 30  2  0
 29 57  1  0
 30 58  1  0
 31 32  1  1
 31 33  1  0
 33 34  2  0
 33 37  1  0
 34 35  1  0
 34 59  1  0
 35 36  2  0
 35 60  1  0
 36 37  1  0
 36 61  1  0
 38 39  2  0
 38 62  1  0
 39 63  1  0
M  END

