
     RDKit          3D

 35 36  0  0  0  0  0  0  0  0999 V2000
   -0.2866   -1.8232   -2.3197 O   0  0  0  0  0  0  0  0  0  0  0  0
    0.5019   -2.1796   -1.3383 C   0  0  0  0  0  0  0  0  0  0  0  0
   -0.1814   -2.6223   -0.3042 O   0  0  0  0  0  0  0  0  0  0  0  0
    1.9028   -2.0834   -1.4140 C   0  0  0  0  0  0  0  0  0  0  0  0
    2.5625   -1.5962   -2.6007 C   0  0  0  0  0  0  0  0  0  0  0  0
    3.9424   -1.5228   -2.6414 C   0  0  0  0  0  0  0  0  0  0  0  0
    4.7159   -0.8609   -4.1266 S   0  0  1  0  0  0  0  0  0  0  0  0
    6.0500   -1.4539   -4.2304 O   0  0  0  0  0  0  0  0  0  0  0  0
    3.7316   -0.9321   -5.2062 O   0  0  0  0  0  0  0  0  0  0  0  0
    4.9551    0.7770   -3.8592 N   0  0  0  0  0  0  0  0  0  0  0  0
    5.9762    1.2554   -2.9339 C   0  0  0  0  0  0  0  0  0  0  0  0
    6.3046    2.7168   -3.2029 C   0  0  1  0  0  0  0  0  0  0  0  0
    5.2514    3.8009   -2.8269 C   0  0  0  0  0  0  0  0  0  0  0  0
    6.3804    4.6564   -2.1828 C   0  0  2  0  0  0  0  0  0  0  0  0
    6.8004    5.7727   -2.9273 O   0  0  0  0  0  0  0  0  0  0  0  0
    7.3117    3.4124   -2.2460 C   0  0  0  0  0  0  0  0  0  0  0  0
    4.7570   -1.9282   -1.5665 C   0  0  0  0  0  0  0  0  0  0  0  0
    4.1225   -2.4081   -0.3933 C   0  0  0  0  0  0  0  0  0  0  0  0
    2.7512   -2.4831   -0.3130 C   0  0  0  0  0  0  0  0  0  0  0  0
    2.1017   -2.9461    0.8106 O   0  0  0  0  0  0  0  0  0  0  0  0
    0.4655   -2.8734    0.3953 H   0  0  0  0  0  0  0  0  0  0  0  0
    1.9886   -1.3064   -3.4805 H   0  0  0  0  0  0  0  0  0  0  0  0
    4.0706    1.2824   -3.8618 H   0  0  0  0  0  0  0  0  0  0  0  0
    6.8716    0.6358   -3.0937 H   0  0  0  0  0  0  0  0  0  0  0  0
    5.6732    1.1332   -1.8730 H   0  0  0  0  0  0  0  0  0  0  0  0
    6.6128    2.8109   -4.2571 H   0  0  0  0  0  0  0  0  0  0  0  0
    4.5230    3.4411   -2.0806 H   0  0  0  0  0  0  0  0  0  0  0  0
    4.7007    4.2909   -3.6456 H   0  0  0  0  0  0  0  0  0  0  0  0
    6.1672    5.0396   -1.1733 H   0  0  0  0  0  0  0  0  0  0  0  0
    7.0050    5.4884   -3.8287 H   0  0  0  0  0  0  0  0  0  0  0  0
    7.3940    2.8977   -1.2747 H   0  0  0  0  0  0  0  0  0  0  0  0
    8.3280    3.6015   -2.6258 H   0  0  0  0  0  0  0  0  0  0  0  0
    5.8420   -1.9115   -1.6533 H   0  0  0  0  0  0  0  0  0  0  0  0
    4.7259   -2.7350    0.4594 H   0  0  0  0  0  0  0  0  0  0  0  0
    2.7303   -3.2223    1.4910 H   0  0  0  0  0  0  0  0  0  0  0  0
  1  2  2  0
  2  3  1  0
  2  4  1  0
  3 21  1  0
  4  5  2  0
  4 19  1  0
  5  6  1  0
  5 22  1  0
  6  7  1  0
  6 17  2  0
  7  8  2  0
  7  9  2  0
  7 10  1  1
 10 11  1  0
 10 23  1  0
 11 12  1  0
 11 24  1  0
 11 25  1  0
 12 13  1  0
 12 16  1  0
 12 26  1  6
 13 14  1  0
 13 27  1  0
 13 28  1  0
 14 15  1  0
 14 16  1  0
 14 29  1  1
 15 30  1  0
 16 31  1  0
 16 32  1  0
 17 18  1  0
 17 33  1  0
 18 19  2  0
 18 34  1  0
 19 20  1  0
 20 35  1  0
M  END

