
     RDKit          3D

 42 45  0  0  0  0  0  0  0  0999 V2000
    0.1065    1.4386   -1.5927 O   0  0  0  0  0  0  0  0  0  0  0  0
    0.8403    0.6879   -2.2119 C   0  0  0  0  0  0  0  0  0  0  0  0
    2.2274    0.5902   -1.5931 N   0  0  0  0  0  0  0  0  0  0  0  0
    2.8076    1.7528   -1.2784 C   0  0  0  0  0  0  0  0  0  0  0  0
    4.1336    1.9560   -1.2877 N   0  0  0  0  0  0  0  0  0  0  0  0
    4.4923    3.1430   -0.8255 N   0  0  0  0  0  0  0  0  0  0  0  0
    3.4552    3.9083   -0.4775 C   0  0  0  0  0  0  0  0  0  0  0  0
    3.6046    5.1416    0.0185 N   0  0  0  0  0  0  0  0  0  0  0  0
    4.8949    5.7680    0.3442 C   0  0  0  0  0  0  0  0  0  0  0  0
    5.0201    7.1455   -0.2687 C   0  0  0  0  0  0  0  0  0  0  0  0
    4.8454    8.2583    0.5363 C   0  0  0  0  0  0  0  0  0  0  0  0
    4.9232    9.5707    0.0108 C   0  0  0  0  0  0  0  0  0  0  0  0
    5.1743    9.7577   -1.3299 C   0  0  0  0  0  0  0  0  0  0  0  0
    5.3670    8.6473   -2.1992 C   0  0  0  0  0  0  0  0  0  0  0  0
    5.6377    8.8311   -3.5840 C   0  0  0  0  0  0  0  0  0  0  0  0
    5.8330    7.7510   -4.4176 C   0  0  0  0  0  0  0  0  0  0  0  0
    5.7696    6.4358   -3.8970 C   0  0  0  0  0  0  0  0  0  0  0  0
    5.5071    6.2201   -2.5589 C   0  0  0  0  0  0  0  0  0  0  0  0
    5.2935    7.3126   -1.6695 C   0  0  0  0  0  0  0  0  0  0  0  0
    1.8718    3.1480   -0.7251 S   0  0  0  0  0  0  0  0  0  0  0  0
    0.5765   -0.0708   -3.3997 C   0  0  0  0  0  0  0  0  0  0  0  0
    1.5694   -0.7483   -4.2200 C   0  0  0  0  0  0  0  0  0  0  0  0
    3.2434   -0.1439   -4.2957 Cl  0  0  0  0  0  0  0  0  0  0  0  0
    1.2634   -1.7678   -5.0981 C   0  0  0  0  0  0  0  0  0  0  0  0
   -0.0653   -2.1986   -5.2547 C   0  0  0  0  0  0  0  0  0  0  0  0
   -1.0879   -1.4887   -4.5915 C   0  0  0  0  0  0  0  0  0  0  0  0
   -0.7940   -0.4499   -3.7305 C   0  0  0  0  0  0  0  0  0  0  0  0
   -2.1660    0.4107   -3.0559 Cl  0  0  0  0  0  0  0  0  0  0  0  0
    2.8842   -0.0895   -1.9740 H   0  0  0  0  0  0  0  0  0  0  0  0
    2.7718    5.7074    0.1537 H   0  0  0  0  0  0  0  0  0  0  0  0
    5.6765    5.0760    0.0078 H   0  0  0  0  0  0  0  0  0  0  0  0
    4.9688    5.8432    1.4414 H   0  0  0  0  0  0  0  0  0  0  0  0
    4.6491    8.1236    1.6042 H   0  0  0  0  0  0  0  0  0  0  0  0
    4.7835   10.4274    0.6739 H   0  0  0  0  0  0  0  0  0  0  0  0
    5.2338   10.7666   -1.7467 H   0  0  0  0  0  0  0  0  0  0  0  0
    5.6903    9.8502   -3.9760 H   0  0  0  0  0  0  0  0  0  0  0  0
    6.0401    7.9053   -5.4792 H   0  0  0  0  0  0  0  0  0  0  0  0
    5.9318    5.5825   -4.5599 H   0  0  0  0  0  0  0  0  0  0  0  0
    5.4716    5.1944   -2.1880 H   0  0  0  0  0  0  0  0  0  0  0  0
    2.0661   -2.2090   -5.6921 H   0  0  0  0  0  0  0  0  0  0  0  0
   -0.3051   -3.0357   -5.9111 H   0  0  0  0  0  0  0  0  0  0  0  0
   -2.1364   -1.7301   -4.7733 H   0  0  0  0  0  0  0  0  0  0  0  0
  1  2  2  0
  2  3  1  0
  2 21  1  0
  3  4  1  0
  3 29  1  0
  4  5  2  0
  4 20  1  0
  5  6  1  0
  6  7  2  0
  7  8  1  0
  7 20  1  0
  8  9  1  0
  8 30  1  0
  9 10  1  0
  9 31  1  0
  9 32  1  0
 10 11  2  0
 10 19  1  0
 11 12  1  0
 11 33  1  0
 12 13  2  0
 12 34  1  0
 13 14  1  0
 13 35  1  0
 14 15  1  0
 14 19  2  0
 15 16  2  0
 15 36  1  0
 16 17  1  0
 16 37  1  0
 17 18  2  0
 17 38  1  0
 18 19  1  0
 18 39  1  0
 21 22  2  0
 21 27  1  0
 22 23  1  0
 22 24  1  0
 24 25  2  0
 24 40  1  0
 25 26  1  0
 25 41  1  0
 26 27  2  0
 26 42  1  0
 27 28  1  0
M  END

