
     RDKit          3D

 44 45  0  0  0  0  0  0  0  0999 V2000
    0.9993   -2.4465    2.3845 C   0  0  0  0  0  0  0  0  0  0  0  0
    2.5227   -2.4354    2.4476 C   0  0  0  0  0  0  0  0  0  0  0  0
    3.1759   -2.0269    1.1341 C   0  0  0  0  0  0  0  0  0  0  0  0
    2.5059   -1.7473    0.1597 O   0  0  0  0  0  0  0  0  0  0  0  0
    4.6821   -1.9723    1.0571 C   0  0  0  0  0  0  0  0  0  0  0  0
    5.5193   -2.3042    2.1355 C   0  0  0  0  0  0  0  0  0  0  0  0
    6.9080   -2.2392    2.0041 C   0  0  0  0  0  0  0  0  0  0  0  0
    7.4610   -1.8405    0.7837 C   0  0  0  0  0  0  0  0  0  0  0  0
    9.2564   -1.8009    0.5974 S   0  0  1  0  0  0  0  0  0  0  0  0
    9.5596   -0.7961   -0.4221 O   0  0  0  0  0  0  0  0  0  0  0  0
    9.8240   -1.7398    1.9452 O   0  0  0  0  0  0  0  0  0  0  0  0
    9.7020   -3.2849   -0.0441 N   0  0  0  0  0  0  0  0  0  0  0  0
    9.4827   -3.5379   -1.4681 C   0  0  0  0  0  0  0  0  0  0  0  0
   10.5355   -4.5205   -2.0025 C   0  0  2  0  0  0  0  0  0  0  0  0
   10.2915   -4.8323   -3.4805 C   0  0  0  0  0  0  0  0  0  0  0  0
   10.5620   -5.7874   -1.1346 C   0  0  0  0  0  0  0  0  0  0  0  0
   10.7577   -5.4732    0.3563 C   0  0  2  0  0  0  0  0  0  0  0  0
   10.7311   -6.7320    1.2255 C   0  0  0  0  0  0  0  0  0  0  0  0
    9.7009   -4.4612    0.8251 C   0  0  0  0  0  0  0  0  0  0  0  0
    6.6445   -1.4851   -0.2978 C   0  0  0  0  0  0  0  0  0  0  0  0
    5.2611   -1.5595   -0.1562 C   0  0  0  0  0  0  0  0  0  0  0  0
    0.5718   -2.7453    3.3535 H   0  0  0  0  0  0  0  0  0  0  0  0
    0.6407   -3.1461    1.6151 H   0  0  0  0  0  0  0  0  0  0  0  0
    0.6078   -1.4523    2.1232 H   0  0  0  0  0  0  0  0  0  0  0  0
    2.9138   -3.4291    2.7318 H   0  0  0  0  0  0  0  0  0  0  0  0
    2.8812   -1.7492    3.2363 H   0  0  0  0  0  0  0  0  0  0  0  0
    5.0968   -2.6109    3.0936 H   0  0  0  0  0  0  0  0  0  0  0  0
    7.5647   -2.4722    2.8437 H   0  0  0  0  0  0  0  0  0  0  0  0
    9.5530   -2.5810   -2.0014 H   0  0  0  0  0  0  0  0  0  0  0  0
    8.4680   -3.9572   -1.6417 H   0  0  0  0  0  0  0  0  0  0  0  0
   11.5154   -4.0197   -1.9032 H   0  0  0  0  0  0  0  0  0  0  0  0
    9.3177   -5.3297   -3.6288 H   0  0  0  0  0  0  0  0  0  0  0  0
   11.0700   -5.5040   -3.8756 H   0  0  0  0  0  0  0  0  0  0  0  0
   10.2969   -3.9161   -4.0929 H   0  0  0  0  0  0  0  0  0  0  0  0
   11.3596   -6.4657   -1.4834 H   0  0  0  0  0  0  0  0  0  0  0  0
    9.6087   -6.3360   -1.2666 H   0  0  0  0  0  0  0  0  0  0  0  0
   11.7407   -4.9824    0.4740 H   0  0  0  0  0  0  0  0  0  0  0  0
    9.7613   -7.2523    1.1457 H   0  0  0  0  0  0  0  0  0  0  0  0
   10.8975   -6.4927    2.2883 H   0  0  0  0  0  0  0  0  0  0  0  0
   11.5144   -7.4418    0.9157 H   0  0  0  0  0  0  0  0  0  0  0  0
    9.9206   -4.1323    1.8492 H   0  0  0  0  0  0  0  0  0  0  0  0
    8.7018   -4.9481    0.8253 H   0  0  0  0  0  0  0  0  0  0  0  0
    7.0964   -1.1341   -1.2271 H   0  0  0  0  0  0  0  0  0  0  0  0
    4.5948   -1.2907   -0.9780 H   0  0  0  0  0  0  0  0  0  0  0  0
  1  2  1  0
  1 22  1  0
  1 23  1  0
  1 24  1  0
  2  3  1  0
  2 25  1  0
  2 26  1  0
  3  4  2  0
  3  5  1  0
  5  6  2  0
  5 21  1  0
  6  7  1  0
  6 27  1  0
  7  8  2  0
  7 28  1  0
  9  8  1  1
  8 20  1  0
  9 10  2  0
  9 11  2  0
  9 12  1  0
 12 13  1  0
 12 19  1  0
 13 14  1  0
 13 29  1  0
 13 30  1  0
 14 15  1  0
 14 16  1  0
 14 31  1  6
 15 32  1  0
 15 33  1  0
 15 34  1  0
 16 17  1  0
 16 35  1  0
 16 36  1  0
 17 18  1  0
 17 19  1  0
 17 37  1  6
 18 38  1  0
 18 39  1  0
 18 40  1  0
 19 41  1  0
 19 42  1  0
 20 21  2  0
 20 43  1  0
 21 44  1  0
M  END

