
     RDKit          3D

 53 55  0  0  0  0  0  0  0  0999 V2000
    0.8006   -4.0869   -1.5248 C   0  0  0  0  0  0  0  0  0  0  0  0
    2.3252   -4.1556   -1.4263 C   0  0  0  0  0  0  0  0  0  0  0  0
    2.8712   -3.7126   -0.0652 C   0  0  0  0  0  0  0  0  0  0  0  0
    4.3978   -3.7739    0.0414 C   0  0  0  0  0  0  0  0  0  0  0  0
    4.9400   -3.3402    1.4068 C   0  0  0  0  0  0  0  0  0  0  0  0
    6.4669   -3.3946    1.5081 C   0  0  0  0  0  0  0  0  0  0  0  0
    7.0003   -2.9824    2.8980 C   0  0  0  0  0  0  0  0  0  0  0  0
    8.5000   -3.0036    3.0030 C   0  0  0  0  0  0  0  0  0  0  0  0
    9.1939   -4.0807    3.5642 C   0  0  0  0  0  0  0  0  0  0  0  0
   10.5961   -4.1138    3.6176 C   0  0  0  0  0  0  0  0  0  0  0  0
   11.3734   -3.0368    3.0976 C   0  0  0  0  0  0  0  0  0  0  0  0
   12.7747   -3.0074    3.1449 C   0  0  0  0  0  0  0  0  0  0  0  0
   13.3795   -4.0398    3.7501 F   0  0  0  0  0  0  0  0  0  0  0  0
   13.6016   -1.9324    2.6259 C   0  0  0  0  0  0  0  0  0  0  0  0
   15.0536   -1.9573    2.6061 C   0  0  0  0  0  0  0  0  0  0  0  0
   15.7992   -3.1768    2.6343 C   0  0  0  0  0  0  0  0  0  0  0  0
   17.1811   -3.1602    2.5652 C   0  0  0  0  0  0  0  0  0  0  0  0
   17.8532   -4.3135    2.5755 F   0  0  0  0  0  0  0  0  0  0  0  0
   17.9168   -1.9657    2.4888 C   0  0  0  0  0  0  0  0  0  0  0  0
   19.2897   -1.9836    2.5138 O   0  0  0  0  0  0  0  0  0  0  0  0
   19.9428   -1.5902    1.3669 C   0  0  1  0  0  0  0  0  0  0  0  0
   21.2430   -1.5283    1.6699 F   0  0  0  0  0  0  0  0  0  0  0  0
   19.7781   -2.5128    0.3912 F   0  0  0  0  0  0  0  0  0  0  0  0
   17.1762   -0.7659    2.4757 C   0  0  0  0  0  0  0  0  0  0  0  0
   17.8641    0.3886    2.4172 F   0  0  0  0  0  0  0  0  0  0  0  0
   15.7991   -0.7410    2.5293 C   0  0  0  0  0  0  0  0  0  0  0  0
   12.8636   -0.8463    2.1073 C   0  0  0  0  0  0  0  0  0  0  0  0
   11.4707   -0.8235    2.0531 C   0  0  0  0  0  0  0  0  0  0  0  0
   10.6774   -1.9117    2.5321 C   0  0  0  0  0  0  0  0  0  0  0  0
    9.2768   -1.9168    2.4907 C   0  0  0  0  0  0  0  0  0  0  0  0
    0.4432   -4.4109   -2.5153 H   0  0  0  0  0  0  0  0  0  0  0  0
    0.4340   -3.0598   -1.3587 H   0  0  0  0  0  0  0  0  0  0  0  0
    0.3204   -4.7327   -0.7705 H   0  0  0  0  0  0  0  0  0  0  0  0
    2.7750   -3.5296   -2.2185 H   0  0  0  0  0  0  0  0  0  0  0  0
    2.6626   -5.1875   -1.6336 H   0  0  0  0  0  0  0  0  0  0  0  0
    2.4243   -4.3407    0.7282 H   0  0  0  0  0  0  0  0  0  0  0  0
    2.5316   -2.6809    0.1447 H   0  0  0  0  0  0  0  0  0  0  0  0
    4.8447   -3.1402   -0.7471 H   0  0  0  0  0  0  0  0  0  0  0  0
    4.7381   -4.8037   -0.1746 H   0  0  0  0  0  0  0  0  0  0  0  0
    4.4992   -3.9790    2.1946 H   0  0  0  0  0  0  0  0  0  0  0  0
    4.5958   -2.3128    1.6281 H   0  0  0  0  0  0  0  0  0  0  0  0
    6.9134   -2.7410    0.7373 H   0  0  0  0  0  0  0  0  0  0  0  0
    6.8218   -4.4152    1.2795 H   0  0  0  0  0  0  0  0  0  0  0  0
    6.5680   -3.6531    3.6595 H   0  0  0  0  0  0  0  0  0  0  0  0
    6.6298   -1.9665    3.1283 H   0  0  0  0  0  0  0  0  0  0  0  0
    8.6318   -4.9238    3.9756 H   0  0  0  0  0  0  0  0  0  0  0  0
   11.1051   -4.9706    4.0613 H   0  0  0  0  0  0  0  0  0  0  0  0
   15.3095   -4.1464    2.6786 H   0  0  0  0  0  0  0  0  0  0  0  0
   19.5965   -0.6134    0.9869 H   0  0  0  0  0  0  0  0  0  0  0  0
   15.3153    0.2353    2.5538 H   0  0  0  0  0  0  0  0  0  0  0  0
   13.4066    0.0002    1.6846 H   0  0  0  0  0  0  0  0  0  0  0  0
   10.9682    0.0415    1.6129 H   0  0  0  0  0  0  0  0  0  0  0  0
    8.7627   -1.0500    2.0646 H   0  0  0  0  0  0  0  0  0  0  0  0
  1  2  1  0
  1 31  1  0
  1 32  1  0
  1 33  1  0
  2  3  1  0
  2 34  1  0
  2 35  1  0
  3  4  1  0
  3 36  1  0
  3 37  1  0
  4  5  1  0
  4 38  1  0
  4 39  1  0
  5  6  1  0
  5 40  1  0
  5 41  1  0
  6  7  1  0
  6 42  1  0
  6 43  1  0
  7  8  1  0
  7 44  1  0
  7 45  1  0
  8  9  2  0
  8 30  1  0
  9 10  1  0
  9 46  1  0
 10 11  2  0
 10 47  1  0
 11 12  1  0
 11 29  1  0
 12 13  1  0
 12 14  2  0
 14 15  1  0
 14 27  1  0
 15 16  2  0
 15 26  1  0
 16 17  1  0
 16 48  1  0
 17 18  1  0
 17 19  2  0
 19 20  1  0
 19 24  1  0
 20 21  1  0
 21 22  1  0
 21 23  1  0
 21 49  1  6
 24 25  1  0
 24 26  2  0
 26 50  1  0
 27 28  2  0
 27 51  1  0
 28 29  1  0
 28 52  1  0
 29 30  2  0
 30 53  1  0
M  END

