
     RDKit          3D

 55 58  0  0  0  0  0  0  0  0999 V2000
    5.6722   16.1196   -8.1286 N   0  0  0  0  0  0  0  0  0  0  0  0
    5.2959   16.2111   -6.8484 C   0  0  0  0  0  0  0  0  0  0  0  0
    4.6652   17.3497   -6.4821 N   0  0  0  0  0  0  0  0  0  0  0  0
    4.2968   17.4608   -5.2237 C   0  0  0  0  0  0  0  0  0  0  0  0
    4.5187   16.4542   -4.2378 C   0  0  0  0  0  0  0  0  0  0  0  0
    3.9944   16.6609   -2.8429 C   0  0  2  0  0  0  0  0  0  0  0  0
    3.8470   17.7406   -2.6965 H   0  0  0  0  0  0  0  0  0  0  0  0
    4.9222   16.0945   -1.7286 C   0  0  0  0  0  0  0  0  0  0  0  0
    4.3546   14.7934   -1.4457 N   0  0  0  0  0  0  0  0  0  0  0  0
    3.0477   14.6317   -1.8351 C   0  0  0  0  0  0  0  0  0  0  0  0
    2.3359   13.6848   -1.5978 O   0  0  0  0  0  0  0  0  0  0  0  0
    2.6570   15.8978   -2.6082 C   0  0  0  0  0  0  0  0  0  0  0  0
    5.1957   15.2782   -4.6444 C   0  0  0  0  0  0  0  0  0  0  0  0
    5.5982   15.1018   -5.9591 C   0  0  0  0  0  0  0  0  0  0  0  0
    6.2700   13.8891   -6.4821 C   0  0  0  0  0  0  0  0  0  0  0  0
    5.6063   12.6323   -6.5438 C   0  0  0  0  0  0  0  0  0  0  0  0
    6.2275   11.5201   -7.0695 C   0  0  0  0  0  0  0  0  0  0  0  0
    7.5855   11.5464   -7.5655 C   0  0  0  0  0  0  0  0  0  0  0  0
    8.1330   10.2970   -8.0941 C   0  0  0  0  0  0  0  0  0  0  0  0
    7.4379    9.2848   -8.2255 O   0  0  0  0  0  0  0  0  0  0  0  0
    9.5027   10.2559   -8.4115 N   0  0  0  0  0  0  0  0  0  0  0  0
   10.0357    9.2169   -9.2725 C   0  0  2  0  0  0  0  0  0  0  0  0
    9.3534    8.3615   -9.1573 H   0  0  0  0  0  0  0  0  0  0  0  0
   11.4169    8.7986   -8.7243 C   0  0  0  0  0  0  0  0  0  0  0  0
   11.3384    8.4168   -7.3773 O   0  0  0  0  0  0  0  0  0  0  0  0
   10.1127    9.5800  -10.7529 C   0  0  0  0  0  0  0  0  0  0  0  0
   10.2363    8.5578  -11.7088 C   0  0  0  0  0  0  0  0  0  0  0  0
   10.3551    8.8516  -13.0688 C   0  0  0  0  0  0  0  0  0  0  0  0
   10.3518   10.1816  -13.5023 C   0  0  0  0  0  0  0  0  0  0  0  0
   10.2232   11.2076  -12.5633 C   0  0  0  0  0  0  0  0  0  0  0  0
   10.1040   10.9085  -11.2018 C   0  0  0  0  0  0  0  0  0  0  0  0
    8.2138   12.8203   -7.4862 C   0  0  0  0  0  0  0  0  0  0  0  0
    9.4929   12.9731   -7.9470 F   0  0  0  0  0  0  0  0  0  0  0  0
    7.6162   13.9539   -6.9809 C   0  0  0  0  0  0  0  0  0  0  0  0
    5.4689   16.8894   -8.7599 H   0  0  0  0  0  0  0  0  0  0  0  0
    6.1583   15.2797   -8.4426 H   0  0  0  0  0  0  0  0  0  0  0  0
    3.7745   18.3826   -4.9410 H   0  0  0  0  0  0  0  0  0  0  0  0
    4.8964   16.7602   -0.8455 H   0  0  0  0  0  0  0  0  0  0  0  0
    5.9718   16.0238   -2.0549 H   0  0  0  0  0  0  0  0  0  0  0  0
    4.7833   14.1238   -0.8151 H   0  0  0  0  0  0  0  0  0  0  0  0
    1.9673   16.4846   -1.9800 H   0  0  0  0  0  0  0  0  0  0  0  0
    2.1162   15.6321   -3.5268 H   0  0  0  0  0  0  0  0  0  0  0  0
    5.3963   14.4817   -3.9262 H   0  0  0  0  0  0  0  0  0  0  0  0
    4.5781   12.5474   -6.1801 H   0  0  0  0  0  0  0  0  0  0  0  0
    5.7129   10.5607   -7.1271 H   0  0  0  0  0  0  0  0  0  0  0  0
    9.9977   11.1391   -8.3976 H   0  0  0  0  0  0  0  0  0  0  0  0
   12.1283    9.6412   -8.8794 H   0  0  0  0  0  0  0  0  0  0  0  0
   11.8075    7.9451   -9.3020 H   0  0  0  0  0  0  0  0  0  0  0  0
   10.6954    9.0262   -6.9782 H   0  0  0  0  0  0  0  0  0  0  0  0
   10.2281    7.5139  -11.3806 H   0  0  0  0  0  0  0  0  0  0  0  0
   10.4435    8.0386  -13.7946 H   0  0  0  0  0  0  0  0  0  0  0  0
   10.4421   10.4149  -14.5665 H   0  0  0  0  0  0  0  0  0  0  0  0
   10.2112   12.2510  -12.8907 H   0  0  0  0  0  0  0  0  0  0  0  0
    9.9834   11.7210  -10.4820 H   0  0  0  0  0  0  0  0  0  0  0  0
    8.2135   14.8673   -6.9354 H   0  0  0  0  0  0  0  0  0  0  0  0
  1  2  1  0
  1 35  1  0
  1 36  1  0
  2  3  2  0
  2 14  1  0
  3  4  1  0
  4  5  2  0
  4 37  1  0
  5  6  1  0
  5 13  1  0
  6  7  1  1
  6  8  1  0
  6 12  1  0
  8  9  1  0
  8 38  1  0
  8 39  1  0
  9 10  1  0
  9 40  1  0
 10 11  2  0
 10 12  1  0
 12 41  1  0
 12 42  1  0
 13 14  2  0
 13 43  1  0
 14 15  1  0
 15 16  2  0
 15 34  1  0
 16 17  1  0
 16 44  1  0
 17 18  2  0
 17 45  1  0
 18 19  1  0
 18 32  1  0
 19 20  2  0
 19 21  1  0
 21 22  1  0
 21 46  1  0
 22 23  1  6
 22 24  1  0
 22 26  1  0
 24 25  1  0
 24 47  1  0
 24 48  1  0
 25 49  1  0
 26 27  2  0
 26 31  1  0
 27 28  1  0
 27 50  1  0
 28 29  2  0
 28 51  1  0
 29 30  1  0
 29 52  1  0
 30 31  2  0
 30 53  1  0
 31 54  1  0
 32 33  1  0
 32 34  2  0
 34 55  1  0
M  END

