
     RDKit          3D

 53 54  0  0  0  0  0  0  0  0999 V2000
    4.3789    3.8938    6.0256 C   0  0  0  0  0  0  0  0  0  0  0  0
    3.7154    3.3217    4.9200 O   0  0  0  0  0  0  0  0  0  0  0  0
    2.8043    4.0582    4.2255 C   0  0  0  0  0  0  0  0  0  0  0  0
    2.4406    5.3684    4.5660 C   0  0  0  0  0  0  0  0  0  0  0  0
    1.5001    6.0572    3.7900 C   0  0  0  0  0  0  0  0  0  0  0  0
    0.9269    5.4493    2.6751 C   0  0  0  0  0  0  0  0  0  0  0  0
    1.2977    4.1394    2.3433 C   0  0  0  0  0  0  0  0  0  0  0  0
    2.2265    3.4183    3.1005 C   0  0  0  0  0  0  0  0  0  0  0  0
    2.6171    2.0015    2.7417 C   0  0  0  0  0  0  0  0  0  0  0  0
    2.0631    0.9222    3.6897 C   0  0  0  0  0  0  0  0  0  0  0  0
    0.6141    0.8131    3.6918 N   0  0  0  0  0  0  0  0  0  0  0  0
   -0.0350   -0.3333    3.3405 C   0  0  0  0  0  0  0  0  0  0  0  0
    0.5258   -1.3448    2.9549 O   0  0  0  0  0  0  0  0  0  0  0  0
   -1.5621   -0.3400    3.4878 C   0  0  0  0  0  0  0  0  0  0  0  0
   -2.2143    0.8889    3.9491 N   0  0  0  0  0  0  0  0  0  0  0  0
   -3.0401    1.6586    2.9654 C   0  0  1  0  0  0  0  0  0  0  0  0
   -2.1268    2.4137    1.9994 C   0  0  0  0  0  0  0  0  0  0  0  0
   -4.1035    0.7873    2.2877 C   0  0  0  0  0  0  0  0  0  0  0  0
   -5.2098    0.3497    3.0389 C   0  0  0  0  0  0  0  0  0  0  0  0
   -6.1923   -0.4565    2.4626 C   0  0  0  0  0  0  0  0  0  0  0  0
   -6.0919   -0.8422    1.1214 C   0  0  0  0  0  0  0  0  0  0  0  0
   -5.0020   -0.4119    0.3634 C   0  0  0  0  0  0  0  0  0  0  0  0
   -4.0177    0.3978    0.9423 C   0  0  0  0  0  0  0  0  0  0  0  0
   -2.7464    0.8860    5.5757 S   0  0  1  0  0  0  0  0  0  0  0  0
   -1.3437    1.5419    6.4903 C   0  0  0  0  0  0  0  0  0  0  0  0
   -3.8291    1.8711    5.6924 O   0  0  0  0  0  0  0  0  0  0  0  0
   -2.9395   -0.4933    6.0302 O   0  0  0  0  0  0  0  0  0  0  0  0
    5.0699    3.1294    6.4055 H   0  0  0  0  0  0  0  0  0  0  0  0
    3.6741    4.1704    6.8303 H   0  0  0  0  0  0  0  0  0  0  0  0
    4.9580    4.7893    5.7378 H   0  0  0  0  0  0  0  0  0  0  0  0
    2.8858    5.8626    5.4297 H   0  0  0  0  0  0  0  0  0  0  0  0
    1.2255    7.0789    4.0646 H   0  0  0  0  0  0  0  0  0  0  0  0
    0.2013    5.9873    2.0609 H   0  0  0  0  0  0  0  0  0  0  0  0
    0.8630    3.6623    1.4606 H   0  0  0  0  0  0  0  0  0  0  0  0
    3.7159    1.9130    2.7595 H   0  0  0  0  0  0  0  0  0  0  0  0
    2.2867    1.7802    1.7148 H   0  0  0  0  0  0  0  0  0  0  0  0
    2.4269    1.1220    4.7111 H   0  0  0  0  0  0  0  0  0  0  0  0
    2.4385   -0.0652    3.3864 H   0  0  0  0  0  0  0  0  0  0  0  0
    0.0461    1.6158    3.9384 H   0  0  0  0  0  0  0  0  0  0  0  0
   -1.8009   -1.1746    4.1641 H   0  0  0  0  0  0  0  0  0  0  0  0
   -1.9770   -0.6343    2.5115 H   0  0  0  0  0  0  0  0  0  0  0  0
   -3.5746    2.4028    3.5692 H   0  0  0  0  0  0  0  0  0  0  0  0
   -1.4756    1.7406    1.4206 H   0  0  0  0  0  0  0  0  0  0  0  0
   -1.4831    3.1114    2.5538 H   0  0  0  0  0  0  0  0  0  0  0  0
   -2.7276    2.9976    1.2858 H   0  0  0  0  0  0  0  0  0  0  0  0
   -5.2982    0.6479    4.0860 H   0  0  0  0  0  0  0  0  0  0  0  0
   -7.0443   -0.7831    3.0645 H   0  0  0  0  0  0  0  0  0  0  0  0
   -6.8617   -1.4737    0.6704 H   0  0  0  0  0  0  0  0  0  0  0  0
   -4.9126   -0.7048   -0.6859 H   0  0  0  0  0  0  0  0  0  0  0  0
   -3.1789    0.7256    0.3251 H   0  0  0  0  0  0  0  0  0  0  0  0
   -1.1575    2.5734    6.1655 H   0  0  0  0  0  0  0  0  0  0  0  0
   -0.4704    0.9001    6.3203 H   0  0  0  0  0  0  0  0  0  0  0  0
   -1.6414    1.5162    7.5476 H   0  0  0  0  0  0  0  0  0  0  0  0
  1  2  1  0
  1 28  1  0
  1 29  1  0
  1 30  1  0
  2  3  1  0
  3  4  2  0
  3  8  1  0
  4  5  1  0
  4 31  1  0
  5  6  2  0
  5 32  1  0
  6  7  1  0
  6 33  1  0
  7  8  2  0
  7 34  1  0
  8  9  1  0
  9 10  1  0
  9 35  1  0
  9 36  1  0
 10 11  1  0
 10 37  1  0
 10 38  1  0
 11 12  1  0
 11 39  1  0
 12 13  2  0
 12 14  1  0
 14 15  1  0
 14 40  1  0
 14 41  1  0
 15 16  1  0
 24 15  1  6
 16 17  1  0
 16 18  1  0
 16 42  1  1
 17 43  1  0
 17 44  1  0
 17 45  1  0
 18 19  2  0
 18 23  1  0
 19 20  1  0
 19 46  1  0
 20 21  2  0
 20 47  1  0
 21 22  1  0
 21 48  1  0
 22 23  2  0
 22 49  1  0
 23 50  1  0
 24 25  1  0
 24 26  2  0
 24 27  2  0
 25 51  1  0
 25 52  1  0
 25 53  1  0
M  END

