
     RDKit          3D

 51 53  0  0  0  0  0  0  0  0999 V2000
    4.6626    1.0882    2.3980 C   0  0  0  0  0  0  0  0  0  0  0  0
    5.9933    0.4782    2.8405 C   0  0  0  0  0  0  0  0  0  0  0  0
    7.0635    0.4902    1.7457 C   0  0  0  0  0  0  0  0  0  0  0  0
    8.4045   -0.1287    2.1610 C   0  0  0  0  0  0  0  0  0  0  0  0
    8.3314   -1.5454    2.4883 N   0  0  0  0  0  0  0  0  0  0  0  0
    8.5487   -2.5153    1.5482 C   0  0  0  0  0  0  0  0  0  0  0  0
    8.8289   -2.2467    0.3883 O   0  0  0  0  0  0  0  0  0  0  0  0
    8.4472   -3.9439    2.0206 C   0  0  0  0  0  0  0  0  0  0  0  0
    7.7708   -4.3447    3.1824 C   0  0  0  0  0  0  0  0  0  0  0  0
    7.7092   -5.6916    3.5479 C   0  0  0  0  0  0  0  0  0  0  0  0
    8.3268   -6.6692    2.7586 C   0  0  0  0  0  0  0  0  0  0  0  0
    8.2477   -8.1378    3.1056 C   0  0  0  0  0  0  0  0  0  0  0  0
    7.9135   -8.2973    4.4669 O   0  0  0  0  0  0  0  0  0  0  0  0
    7.7739   -9.5512    4.9837 C   0  0  0  0  0  0  0  0  0  0  0  0
    7.9358  -10.7310    4.2384 C   0  0  0  0  0  0  0  0  0  0  0  0
    7.7657  -11.9662    4.8872 C   0  0  0  0  0  0  0  0  0  0  0  0
    7.4460  -12.0362    6.2326 C   0  0  0  0  0  0  0  0  0  0  0  0
    7.2783  -10.8505    7.0089 C   0  0  0  0  0  0  0  0  0  0  0  0
    6.9503  -10.9978    8.3948 C   0  0  0  0  0  0  0  0  0  0  0  0
    6.7244  -10.0773    9.4133 C   0  0  0  0  0  0  0  0  0  0  0  0
    6.7804   -8.2986    9.2812 S   0  0  0  0  0  0  0  0  0  0  0  0
    6.3930   -8.1005   10.9520 C   0  0  0  0  0  0  0  0  0  0  0  0
    6.2298   -6.5619   11.7448 S   0  0  0  0  0  0  0  0  0  0  0  0
    6.2359   -9.2683   11.5584 N   0  0  0  0  0  0  0  0  0  0  0  0
    6.4052  -10.4775   10.7587 C   0  0  0  0  0  0  0  0  0  0  0  0
    6.2712  -11.5773   11.2675 O   0  0  0  0  0  0  0  0  0  0  0  0
    7.4517   -9.6108    6.3436 C   0  0  0  0  0  0  0  0  0  0  0  0
    8.9979   -6.2704    1.5916 C   0  0  0  0  0  0  0  0  0  0  0  0
    9.0480   -4.9291    1.2214 C   0  0  0  0  0  0  0  0  0  0  0  0
    3.9160    1.0636    3.2079 H   0  0  0  0  0  0  0  0  0  0  0  0
    4.2399    0.5424    1.5381 H   0  0  0  0  0  0  0  0  0  0  0  0
    4.7862    2.1402    2.0908 H   0  0  0  0  0  0  0  0  0  0  0  0
    5.8259   -0.5628    3.1705 H   0  0  0  0  0  0  0  0  0  0  0  0
    6.3722    1.0220    3.7264 H   0  0  0  0  0  0  0  0  0  0  0  0
    7.2536    1.5312    1.4266 H   0  0  0  0  0  0  0  0  0  0  0  0
    6.6960   -0.0437    0.8523 H   0  0  0  0  0  0  0  0  0  0  0  0
    8.8132    0.4039    3.0366 H   0  0  0  0  0  0  0  0  0  0  0  0
    9.1247   -0.0234    1.3364 H   0  0  0  0  0  0  0  0  0  0  0  0
    8.2023   -1.8188    3.4527 H   0  0  0  0  0  0  0  0  0  0  0  0
    7.2544   -3.6115    3.8078 H   0  0  0  0  0  0  0  0  0  0  0  0
    7.1786   -5.9933    4.4516 H   0  0  0  0  0  0  0  0  0  0  0  0
    9.2150   -8.6267    2.8822 H   0  0  0  0  0  0  0  0  0  0  0  0
    7.4857   -8.6279    2.4666 H   0  0  0  0  0  0  0  0  0  0  0  0
    8.1889  -10.7070    3.1793 H   0  0  0  0  0  0  0  0  0  0  0  0
    7.8901  -12.8876    4.3125 H   0  0  0  0  0  0  0  0  0  0  0  0
    7.3191  -13.0074    6.7164 H   0  0  0  0  0  0  0  0  0  0  0  0
    6.8510  -12.0263    8.7567 H   0  0  0  0  0  0  0  0  0  0  0  0
    6.0049   -9.3690   12.5439 H   0  0  0  0  0  0  0  0  0  0  0  0
    7.3464   -8.6553    6.8564 H   0  0  0  0  0  0  0  0  0  0  0  0
    9.4878   -7.0211    0.9640 H   0  0  0  0  0  0  0  0  0  0  0  0
    9.5560   -4.6116    0.3090 H   0  0  0  0  0  0  0  0  0  0  0  0
  1  2  1  0
  1 30  1  0
  1 31  1  0
  1 32  1  0
  2  3  1  0
  2 33  1  0
  2 34  1  0
  3  4  1  0
  3 35  1  0
  3 36  1  0
  4  5  1  0
  4 37  1  0
  4 38  1  0
  5  6  1  0
  5 39  1  0
  6  7  2  0
  6  8  1  0
  8  9  2  0
  8 29  1  0
  9 10  1  0
  9 40  1  0
 10 11  2  0
 10 41  1  0
 11 12  1  0
 11 28  1  0
 12 13  1  0
 12 42  1  0
 12 43  1  0
 13 14  1  0
 14 15  2  0
 14 27  1  0
 15 16  1  0
 15 44  1  0
 16 17  2  0
 16 45  1  0
 17 18  1  0
 17 46  1  0
 18 19  1  0
 18 27  2  0
 19 20  2  0
 19 47  1  0
 20 21  1  0
 20 25  1  0
 21 22  1  0
 22 23  2  0
 22 24  1  0
 24 25  1  0
 24 48  1  0
 25 26  2  0
 27 49  1  0
 28 29  2  0
 28 50  1  0
 29 51  1  0
M  END

