
     RDKit          3D

 77 80  0  0  0  0  0  0  0  0999 V2000
    1.6721   -0.8272   -2.2085 C   0  0  0  0  0  0  0  0  0  0  0  0
    2.6207   -0.6704   -1.0326 C   0  0  1  0  0  0  0  0  0  0  0  0
    2.1132   -0.9074   -0.0875 H   0  0  0  0  0  0  0  0  0  0  0  0
    3.7598   -1.5515   -1.1630 O   0  0  0  0  0  0  0  0  0  0  0  0
    3.7384   -2.7532   -0.5585 C   0  0  0  0  0  0  0  0  0  0  0  0
    2.7325   -3.3051   -0.1865 O   0  0  0  0  0  0  0  0  0  0  0  0
    5.1687   -3.2486   -0.3269 C   0  0  2  0  0  0  0  0  0  0  0  0
    5.2492   -4.7566   -0.1346 C   0  0  1  0  0  0  0  0  0  0  0  0
    4.9932   -5.6589   -1.3739 C   0  0  0  0  0  0  0  0  0  0  0  0
    6.1693   -6.5585   -0.9139 C   0  0  0  0  0  0  0  0  0  0  0  0
    6.6539   -5.4032    0.0001 C   0  0  0  0  0  0  0  0  0  0  0  0
    5.7101   -2.4806    0.8145 N   0  0  0  0  0  0  0  0  0  0  0  0
    5.0553   -2.6929    2.1085 C   0  0  0  0  0  0  0  0  0  0  0  0
    6.6439   -1.5122    0.5252 C   0  0  0  0  0  0  0  0  0  0  0  0
    6.9966   -1.3037   -0.6341 O   0  0  0  0  0  0  0  0  0  0  0  0
    7.3964   -0.7021    1.6154 C   0  0  2  0  0  0  0  0  0  0  0  0
    8.4248   -1.0567    1.4075 H   0  0  0  0  0  0  0  0  0  0  0  0
    7.1992   -0.9133    3.1207 C   0  0  0  0  0  0  0  0  0  0  0  0
    7.4953    0.8010    1.1973 C   0  0  2  0  0  0  0  0  0  0  0  0
    7.7568    0.7825    0.1259 H   0  0  0  0  0  0  0  0  0  0  0  0
    8.5168    1.4448    1.9469 O   0  0  0  0  0  0  0  0  0  0  0  0
    6.2807    1.7665    1.3071 C   0  0  2  0  0  0  0  0  0  0  0  0
    6.7285    2.7219    0.9892 H   0  0  0  0  0  0  0  0  0  0  0  0
    5.7318    2.0248    2.7265 C   0  0  0  0  0  0  0  0  0  0  0  0
    4.8898    3.2821    2.8158 C   0  0  0  0  0  0  0  0  0  0  0  0
    3.4871    3.2207    2.8273 C   0  0  0  0  0  0  0  0  0  0  0  0
    2.7194    4.3879    2.8961 C   0  0  0  0  0  0  0  0  0  0  0  0
    3.3411    5.6382    2.9541 C   0  0  0  0  0  0  0  0  0  0  0  0
    4.7376    5.7133    2.9469 C   0  0  0  0  0  0  0  0  0  0  0  0
    5.5018    4.5455    2.8799 C   0  0  0  0  0  0  0  0  0  0  0  0
    5.2562    1.4902    0.2988 N   0  0  0  0  0  0  0  0  0  0  0  0
    4.1280    0.7569    0.4008 C   0  0  0  0  0  0  0  0  0  0  0  0
    3.7432    0.1652    1.4022 O   0  0  0  0  0  0  0  0  0  0  0  0
    3.2675    0.7203   -0.8976 C   0  0  1  0  0  0  0  0  0  0  0  0
    2.4686    1.4671   -0.7641 H   0  0  0  0  0  0  0  0  0  0  0  0
    4.0538    1.0762   -2.0677 N   0  0  0  0  0  0  0  0  0  0  0  0
    3.6128    1.8809   -3.0767 C   0  0  0  0  0  0  0  0  0  0  0  0
    2.4764    2.5061   -2.7876 O   0  0  0  0  0  0  0  0  0  0  0  0
    4.2581    2.0851   -4.3076 C   0  0  0  0  0  0  0  0  0  0  0  0
    3.7031    3.0020   -5.2800 C   0  0  0  0  0  0  0  0  0  0  0  0
    4.3220    3.2181   -6.4983 C   0  0  0  0  0  0  0  0  0  0  0  0
    5.5134    2.5522   -6.8348 C   0  0  0  0  0  0  0  0  0  0  0  0
    6.0796    1.6480   -5.9033 C   0  0  0  0  0  0  0  0  0  0  0  0
    5.4843    1.4141   -4.6810 C   0  0  0  0  0  0  0  0  0  0  0  0
    6.0178    0.5393   -3.7669 O   0  0  0  0  0  0  0  0  0  0  0  0
    1.2319   -1.8342   -2.1941 H   0  0  0  0  0  0  0  0  0  0  0  0
    2.1950   -0.6859   -3.1663 H   0  0  0  0  0  0  0  0  0  0  0  0
    0.8582   -0.0889   -2.1466 H   0  0  0  0  0  0  0  0  0  0  0  0
    5.7712   -2.9455   -1.1924 H   0  0  0  0  0  0  0  0  0  0  0  0
    4.5919   -5.0733    0.6896 H   0  0  0  0  0  0  0  0  0  0  0  0
    5.2248   -5.1315   -2.3142 H   0  0  0  0  0  0  0  0  0  0  0  0
    3.9963   -6.1144   -1.4671 H   0  0  0  0  0  0  0  0  0  0  0  0
    6.8647   -6.9202   -1.6865 H   0  0  0  0  0  0  0  0  0  0  0  0
    5.8189   -7.4248   -0.3312 H   0  0  0  0  0  0  0  0  0  0  0  0
    7.4282   -4.7894   -0.4878 H   0  0  0  0  0  0  0  0  0  0  0  0
    7.0016   -5.6608    1.0126 H   0  0  0  0  0  0  0  0  0  0  0  0
    4.1494   -3.2876    1.9419 H   0  0  0  0  0  0  0  0  0  0  0  0
    4.7279   -1.7432    2.5427 H   0  0  0  0  0  0  0  0  0  0  0  0
    5.6932   -3.2409    2.8174 H   0  0  0  0  0  0  0  0  0  0  0  0
    7.4038   -1.9524    3.4134 H   0  0  0  0  0  0  0  0  0  0  0  0
    6.2023   -0.6438    3.4837 H   0  0  0  0  0  0  0  0  0  0  0  0
    7.9243   -0.2733    3.6437 H   0  0  0  0  0  0  0  0  0  0  0  0
    9.3645    1.0374    1.7277 H   0  0  0  0  0  0  0  0  0  0  0  0
    6.6130    2.1284    3.3760 H   0  0  0  0  0  0  0  0  0  0  0  0
    5.1474    1.1656    3.0717 H   0  0  0  0  0  0  0  0  0  0  0  0
    2.9972    2.2448    2.7814 H   0  0  0  0  0  0  0  0  0  0  0  0
    1.6282    4.3189    2.9069 H   0  0  0  0  0  0  0  0  0  0  0  0
    2.7411    6.5502    3.0093 H   0  0  0  0  0  0  0  0  0  0  0  0
    5.2343    6.6858    3.0006 H   0  0  0  0  0  0  0  0  0  0  0  0
    6.5943    4.6138    2.8864 H   0  0  0  0  0  0  0  0  0  0  0  0
    5.4236    1.8795   -0.6234 H   0  0  0  0  0  0  0  0  0  0  0  0
    4.8121    0.4443   -2.3331 H   0  0  0  0  0  0  0  0  0  0  0  0
    2.7796    3.5318   -5.0442 H   0  0  0  0  0  0  0  0  0  0  0  0
    3.8733    3.9188   -7.2074 H   0  0  0  0  0  0  0  0  0  0  0  0
    6.0013    2.7227   -7.7954 H   0  0  0  0  0  0  0  0  0  0  0  0
    7.0066    1.1172   -6.1455 H   0  0  0  0  0  0  0  0  0  0  0  0
    6.8167    0.1252   -4.1185 H   0  0  0  0  0  0  0  0  0  0  0  0
  1  2  1  0
  1 46  1  0
  1 47  1  0
  1 48  1  0
  2  3  1  1
  2  4  1  0
  2 34  1  0
  4  5  1  0
  5  6  2  0
  5  7  1  0
  7  8  1  0
  7 12  1  0
  7 49  1  6
  8  9  1  0
  8 11  1  0
  8 50  1  1
  9 10  1  0
  9 51  1  0
  9 52  1  0
 10 11  1  0
 10 53  1  0
 10 54  1  0
 11 55  1  0
 11 56  1  0
 12 13  1  0
 12 14  1  0
 13 57  1  0
 13 58  1  0
 13 59  1  0
 14 15  2  0
 14 16  1  0
 16 17  1  6
 16 18  1  0
 16 19  1  0
 18 60  1  0
 18 61  1  0
 18 62  1  0
 19 20  1  6
 19 21  1  0
 19 22  1  0
 21 63  1  0
 22 23  1  6
 22 24  1  0
 22 31  1  0
 24 25  1  0
 24 64  1  0
 24 65  1  0
 25 26  2  0
 25 30  1  0
 26 27  1  0
 26 66  1  0
 27 28  2  0
 27 67  1  0
 28 29  1  0
 28 68  1  0
 29 30  2  0
 29 69  1  0
 30 70  1  0
 31 32  1  0
 31 71  1  0
 32 33  2  0
 32 34  1  0
 34 35  1  1
 34 36  1  0
 36 37  1  0
 36 72  1  0
 37 38  2  0
 37 39  1  0
 39 40  2  0
 39 44  1  0
 40 41  1  0
 40 73  1  0
 41 42  2  0
 41 74  1  0
 42 43  1  0
 42 75  1  0
 43 44  2  0
 43 76  1  0
 44 45  1  0
 45 77  1  0
M  END

