
     RDKit          3D

 75 78  0  0  0  0  0  0  0  0999 V2000
    3.9486    5.3480    6.9648 C   0  0  0  0  0  0  0  0  0  0  0  0
    4.4845    5.5797    5.5797 C   0  0  0  0  0  0  0  0  0  0  0  0
    5.7694    5.2285    5.2365 C   0  0  0  0  0  0  0  0  0  0  0  0
    6.2786    5.4525    3.9119 C   0  0  0  0  0  0  0  0  0  0  0  0
    7.5113    5.1010    3.7265 O   0  0  0  0  0  0  0  0  0  0  0  0
    8.2076    5.3220    2.4424 C   0  0  0  0  0  0  0  0  0  0  0  0
    9.3052    4.2965    2.2365 C   0  0  0  0  0  0  0  0  0  0  0  0
    9.6140    4.1700    0.7234 C   0  0  0  0  0  0  0  0  0  0  0  0
    9.9615    5.4453    0.0009 C   0  0  0  0  0  0  0  0  0  0  0  0
    9.0671    6.3385   -0.6655 C   0  0  0  0  0  0  0  0  0  0  0  0
    7.6537    6.3059   -0.7587 C   0  0  0  0  0  0  0  0  0  0  0  0
    6.8599    5.5066   -0.1674 O   0  0  0  0  0  0  0  0  0  0  0  0
    6.9856    7.4082   -1.4651 N   0  0  0  0  0  0  0  0  0  0  0  0
    7.0564    7.5767   -3.1609 S   0  0  1  0  0  0  0  0  0  0  0  0
    8.2665    8.3612   -3.4761 O   0  0  0  0  0  0  0  0  0  0  0  0
    6.8046    6.3366   -3.8981 O   0  0  0  0  0  0  0  0  0  0  0  0
    5.6188    8.6603   -3.4013 C   0  0  0  0  0  0  0  0  0  0  0  0
    5.7126    9.9812   -2.6252 C   0  0  0  0  0  0  0  0  0  0  0  0
    4.4049   10.5756   -2.3937 N   0  0  0  0  0  0  0  0  0  0  0  0
    3.5859   10.1334   -1.4021 C   0  0  0  0  0  0  0  0  0  0  0  0
    3.8947    9.2043   -0.6608 O   0  0  0  0  0  0  0  0  0  0  0  0
    2.2477   10.8531   -1.2699 C   0  0  0  0  0  0  0  0  0  0  0  0
    1.9696   11.3079    0.1768 C   0  0  0  0  0  0  0  0  0  0  0  0
    2.8651   12.4383    0.6423 C   0  0  0  0  0  0  0  0  0  0  0  0
    2.4394   13.7733    0.5532 C   0  0  0  0  0  0  0  0  0  0  0  0
    3.2742   14.8232    0.9480 C   0  0  0  0  0  0  0  0  0  0  0  0
    4.5543   14.5536    1.4402 C   0  0  0  0  0  0  0  0  0  0  0  0
    4.9914   13.2287    1.5354 C   0  0  0  0  0  0  0  0  0  0  0  0
    4.1544   12.1812    1.1405 C   0  0  0  0  0  0  0  0  0  0  0  0
    9.8449    7.3599   -1.2370 N   0  0  0  0  0  0  0  0  0  0  0  0
    9.4875    8.0063   -1.9362 H   0  0  0  0  0  0  0  0  0  0  0  0
   11.1730    7.1446   -0.9818 C   0  0  0  0  0  0  0  0  0  0  0  0
   12.2909    7.8813   -1.3786 C   0  0  0  0  0  0  0  0  0  0  0  0
   13.5456    7.4203   -0.9542 C   0  0  0  0  0  0  0  0  0  0  0  0
   14.9845    8.3235   -1.4263 Cl  0  0  0  0  0  0  0  0  0  0  0  0
   13.6906    6.2684   -0.1666 C   0  0  0  0  0  0  0  0  0  0  0  0
   12.5657    5.5353    0.2219 C   0  0  0  0  0  0  0  0  0  0  0  0
   11.2780    5.9567   -0.1823 C   0  0  0  0  0  0  0  0  0  0  0  0
    5.4381    6.0395    2.9092 C   0  0  0  0  0  0  0  0  0  0  0  0
    4.1487    6.4204    3.2205 C   0  0  0  0  0  0  0  0  0  0  0  0
    3.2598    7.0552    2.1883 C   0  0  0  0  0  0  0  0  0  0  0  0
    3.6797    6.1806    4.5575 C   0  0  0  0  0  0  0  0  0  0  0  0
    2.0702    6.6239    4.9527 Cl  0  0  0  0  0  0  0  0  0  0  0  0
    4.7109    4.8835    7.6032 H   0  0  0  0  0  0  0  0  0  0  0  0
    3.0647    4.6916    6.9410 H   0  0  0  0  0  0  0  0  0  0  0  0
    3.6311    6.2945    7.4297 H   0  0  0  0  0  0  0  0  0  0  0  0
    6.4469    4.7751    5.9606 H   0  0  0  0  0  0  0  0  0  0  0  0
    8.5940    6.3487    2.4992 H   0  0  0  0  0  0  0  0  0  0  0  0
    7.4845    5.2590    1.6175 H   0  0  0  0  0  0  0  0  0  0  0  0
    8.9585    3.3195    2.6154 H   0  0  0  0  0  0  0  0  0  0  0  0
   10.2096    4.5651    2.8069 H   0  0  0  0  0  0  0  0  0  0  0  0
    8.7386    3.7098    0.2389 H   0  0  0  0  0  0  0  0  0  0  0  0
   10.4468    3.4550    0.6136 H   0  0  0  0  0  0  0  0  0  0  0  0
    5.9963    7.3129   -1.2200 H   0  0  0  0  0  0  0  0  0  0  0  0
    4.7478    8.0669   -3.0902 H   0  0  0  0  0  0  0  0  0  0  0  0
    5.5725    8.7968   -4.4923 H   0  0  0  0  0  0  0  0  0  0  0  0
    6.3423   10.6984   -3.1685 H   0  0  0  0  0  0  0  0  0  0  0  0
    6.1858    9.7955   -1.6511 H   0  0  0  0  0  0  0  0  0  0  0  0
    4.1086   11.3601   -2.9604 H   0  0  0  0  0  0  0  0  0  0  0  0
    1.4727   10.1282   -1.5735 H   0  0  0  0  0  0  0  0  0  0  0  0
    2.1826   11.7099   -1.9593 H   0  0  0  0  0  0  0  0  0  0  0  0
    2.0927   10.4315    0.8320 H   0  0  0  0  0  0  0  0  0  0  0  0
    0.9157   11.6203    0.2465 H   0  0  0  0  0  0  0  0  0  0  0  0
    1.4364   13.9937    0.1749 H   0  0  0  0  0  0  0  0  0  0  0  0
    2.9216   15.8554    0.8743 H   0  0  0  0  0  0  0  0  0  0  0  0
    5.2081   15.3723    1.7514 H   0  0  0  0  0  0  0  0  0  0  0  0
    5.9906   13.0084    1.9206 H   0  0  0  0  0  0  0  0  0  0  0  0
    4.5012   11.1473    1.2146 H   0  0  0  0  0  0  0  0  0  0  0  0
   12.2034    8.7773   -1.9941 H   0  0  0  0  0  0  0  0  0  0  0  0
   14.6907    5.9532    0.1358 H   0  0  0  0  0  0  0  0  0  0  0  0
   12.6931    4.6369    0.8311 H   0  0  0  0  0  0  0  0  0  0  0  0
    5.8039    6.1600    1.8894 H   0  0  0  0  0  0  0  0  0  0  0  0
    3.8111    7.3015    1.2734 H   0  0  0  0  0  0  0  0  0  0  0  0
    2.8073    7.9795    2.5764 H   0  0  0  0  0  0  0  0  0  0  0  0
    2.4291    6.3788    1.9284 H   0  0  0  0  0  0  0  0  0  0  0  0
  1  2  1  0
  1 44  1  0
  1 45  1  0
  1 46  1  0
  2  3  2  0
  2 42  1  0
  3  4  1  0
  3 47  1  0
  4  5  1  0
  4 39  2  0
  5  6  1  0
  6  7  1  0
  6 48  1  0
  6 49  1  0
  7  8  1  0
  7 50  1  0
  7 51  1  0
  8  9  1  0
  8 52  1  0
  8 53  1  0
  9 10  2  0
  9 38  1  0
 10 11  1  0
 10 30  1  0
 11 12  2  0
 11 13  1  0
 14 13  1  1
 13 54  1  0
 14 15  2  0
 14 16  2  0
 14 17  1  0
 17 18  1  0
 17 55  1  0
 17 56  1  0
 18 19  1  0
 18 57  1  0
 18 58  1  0
 19 20  1  0
 19 59  1  0
 20 21  2  0
 20 22  1  0
 22 23  1  0
 22 60  1  0
 22 61  1  0
 23 24  1  0
 23 62  1  0
 23 63  1  0
 24 25  2  0
 24 29  1  0
 25 26  1  0
 25 64  1  0
 26 27  2  0
 26 65  1  0
 27 28  1  0
 27 66  1  0
 28 29  2  0
 28 67  1  0
 29 68  1  0
 30 31  1  0
 30 32  1  0
 32 33  2  0
 32 38  1  0
 33 34  1  0
 33 69  1  0
 34 35  1  0
 34 36  2  0
 36 37  1  0
 36 70  1  0
 37 38  2  0
 37 71  1  0
 39 40  1  0
 39 72  1  0
 40 41  1  0
 40 42  2  0
 41 73  1  0
 41 74  1  0
 41 75  1  0
 42 43  1  0
M  END

