
     RDKit          3D

 33 34  0  0  0  0  0  0  0  0999 V2000
    1.6255    0.0222    0.3313 C   0  0  0  0  0  0  0  0  0  0  0  0
    3.0633   -0.0018    0.0964 N   0  0  0  0  0  0  0  0  0  0  0  0
    3.8825    0.6743    1.0902 C   0  0  0  0  0  0  0  0  0  0  0  0
    3.8521    0.0507    2.4806 C   0  0  0  0  0  0  0  0  0  0  0  0
    3.7417   -1.3348    2.6766 C   0  0  0  0  0  0  0  0  0  0  0  0
    3.7732   -1.8334    3.9794 C   0  0  0  0  0  0  0  0  0  0  0  0
    3.9171   -0.9379    5.0415 C   0  0  0  0  0  0  0  0  0  0  0  0
    4.0198    0.4237    4.7428 C   0  0  0  0  0  0  0  0  0  0  0  0
    3.9840    0.9079    3.4995 N   0  0  0  0  0  0  0  0  0  0  0  0
    3.5392   -0.8494   -0.8849 C   0  0  0  0  0  0  0  0  0  0  0  0
    2.8122   -1.6586   -1.4441 O   0  0  0  0  0  0  0  0  0  0  0  0
    4.9871   -0.7385   -1.3028 C   0  0  0  0  0  0  0  0  0  0  0  0
    5.5977    0.4899   -1.6081 C   0  0  0  0  0  0  0  0  0  0  0  0
    6.8990    0.5025   -2.1119 C   0  0  0  0  0  0  0  0  0  0  0  0
    7.5931   -0.6919   -2.3001 C   0  0  0  0  0  0  0  0  0  0  0  0
    9.3790   -0.6307   -2.9851 Br  0  0  0  0  0  0  0  0  0  0  0  0
    7.0048   -1.9461   -2.0125 C   0  0  0  0  0  0  0  0  0  0  0  0
    7.6860   -3.1316   -2.1638 N   0  0  0  0  0  0  0  0  0  0  0  0
    5.6816   -1.9289   -1.5258 C   0  0  0  0  0  0  0  0  0  0  0  0
    1.3024    1.0585    0.5222 H   0  0  0  0  0  0  0  0  0  0  0  0
    1.3349   -0.5937    1.2004 H   0  0  0  0  0  0  0  0  0  0  0  0
    1.1139   -0.3734   -0.5533 H   0  0  0  0  0  0  0  0  0  0  0  0
    3.5656    1.7246    1.1996 H   0  0  0  0  0  0  0  0  0  0  0  0
    4.9264    0.6922    0.7499 H   0  0  0  0  0  0  0  0  0  0  0  0
    3.6288   -2.0065    1.8229 H   0  0  0  0  0  0  0  0  0  0  0  0
    3.6868   -2.9077    4.1627 H   0  0  0  0  0  0  0  0  0  0  0  0
    3.9459   -1.2824    6.0776 H   0  0  0  0  0  0  0  0  0  0  0  0
    4.1304    1.1588    5.5491 H   0  0  0  0  0  0  0  0  0  0  0  0
    5.0554    1.4291   -1.4870 H   0  0  0  0  0  0  0  0  0  0  0  0
    7.3818    1.4470   -2.3697 H   0  0  0  0  0  0  0  0  0  0  0  0
    8.5136   -3.1214   -2.7485 H   0  0  0  0  0  0  0  0  0  0  0  0
    7.1348   -3.9793   -2.2084 H   0  0  0  0  0  0  0  0  0  0  0  0
    5.1755   -2.8774   -1.3307 H   0  0  0  0  0  0  0  0  0  0  0  0
  1  2  1  0
  1 20  1  0
  1 21  1  0
  1 22  1  0
  2  3  1  0
  2 10  1  0
  3  4  1  0
  3 23  1  0
  3 24  1  0
  4  5  2  0
  4  9  1  0
  5  6  1  0
  5 25  1  0
  6  7  2  0
  6 26  1  0
  7  8  1  0
  7 27  1  0
  8  9  2  0
  8 28  1  0
 10 11  2  0
 10 12  1  0
 12 13  2  0
 12 19  1  0
 13 14  1  0
 13 29  1  0
 14 15  2  0
 14 30  1  0
 15 16  1  0
 15 17  1  0
 17 18  1  0
 17 19  2  0
 18 31  1  0
 18 32  1  0
 19 33  1  0
M  END

