
     RDKit          3D

 51 54  0  0  0  0  0  0  0  0999 V2000
    3.0158    1.7748    2.1033 C   0  0  0  0  0  0  0  0  0  0  0  0
    2.6906    1.1318    0.8891 O   0  0  0  0  0  0  0  0  0  0  0  0
    3.4477    1.5573   -0.2253 C   0  0  0  0  0  0  0  0  0  0  0  0
    4.9015    1.1490   -0.2023 C   0  0  0  0  0  0  0  0  0  0  0  0
    5.7942    2.1120   -0.1782 N   0  0  0  0  0  0  0  0  0  0  0  0
    7.0229    1.4654   -0.2371 N   0  0  0  0  0  0  0  0  0  0  0  0
    8.2378    2.1448   -0.2203 C   0  0  0  0  0  0  0  0  0  0  0  0
    8.2600    3.6320   -0.1090 C   0  0  0  0  0  0  0  0  0  0  0  0
    9.3322    1.2319   -0.3085 C   0  0  0  0  0  0  0  0  0  0  0  0
   10.7581    1.7450   -0.3061 C   0  0  0  0  0  0  0  0  0  0  0  0
   11.0221    2.9367   -0.2191 O   0  0  0  0  0  0  0  0  0  0  0  0
   11.6718    0.7337   -0.4062 N   0  0  0  0  0  0  0  0  0  0  0  0
   13.0693    0.7940   -0.4365 C   0  0  0  0  0  0  0  0  0  0  0  0
   13.7945    1.9996   -0.3689 C   0  0  0  0  0  0  0  0  0  0  0  0
   15.1905    1.9679   -0.4073 C   0  0  0  0  0  0  0  0  0  0  0  0
   15.8872    0.7605   -0.5113 C   0  0  0  0  0  0  0  0  0  0  0  0
   15.1660   -0.4362   -0.5777 C   0  0  0  0  0  0  0  0  0  0  0  0
   13.7728   -0.4226   -0.5409 C   0  0  0  0  0  0  0  0  0  0  0  0
    9.1997   -0.0813   -0.3997 N   0  0  0  0  0  0  0  0  0  0  0  0
    7.9998   -0.7056   -0.4081 N   0  0  0  0  0  0  0  0  0  0  0  0
    6.9194    0.1283   -0.3153 C   0  0  0  0  0  0  0  0  0  0  0  0
    5.5190   -0.1634   -0.2748 C   0  0  0  0  0  0  0  0  0  0  0  0
    4.9314   -1.4747   -0.3265 C   0  0  0  0  0  0  0  0  0  0  0  0
    5.7418   -2.6201   -0.6301 C   0  0  0  0  0  0  0  0  0  0  0  0
    5.1892   -3.8776   -0.7229 C   0  0  0  0  0  0  0  0  0  0  0  0
    3.8029   -4.0745   -0.5058 C   0  0  0  0  0  0  0  0  0  0  0  0
    3.3596   -5.3302   -0.6248 O   0  0  0  0  0  0  0  0  0  0  0  0
    1.9888   -5.6374   -0.4231 C   0  0  0  0  0  0  0  0  0  0  0  0
    2.9875   -2.9662   -0.1699 C   0  0  0  0  0  0  0  0  0  0  0  0
    3.5417   -1.7020   -0.0792 C   0  0  0  0  0  0  0  0  0  0  0  0
    2.3452    1.3714    2.8753 H   0  0  0  0  0  0  0  0  0  0  0  0
    2.8627    2.8688    2.0328 H   0  0  0  0  0  0  0  0  0  0  0  0
    4.0625    1.5933    2.4087 H   0  0  0  0  0  0  0  0  0  0  0  0
    3.4253    2.6578   -0.3231 H   0  0  0  0  0  0  0  0  0  0  0  0
    2.9526    1.1257   -1.1097 H   0  0  0  0  0  0  0  0  0  0  0  0
    7.2336    4.0174   -0.0909 H   0  0  0  0  0  0  0  0  0  0  0  0
    8.8108    4.0879   -0.9470 H   0  0  0  0  0  0  0  0  0  0  0  0
    8.7894    3.9612    0.8006 H   0  0  0  0  0  0  0  0  0  0  0  0
   11.2219   -0.1825   -0.4637 H   0  0  0  0  0  0  0  0  0  0  0  0
   13.2526    2.9390   -0.2871 H   0  0  0  0  0  0  0  0  0  0  0  0
   15.7412    2.9112   -0.3541 H   0  0  0  0  0  0  0  0  0  0  0  0
   16.9794    0.7508   -0.5401 H   0  0  0  0  0  0  0  0  0  0  0  0
   15.6914   -1.3916   -0.6592 H   0  0  0  0  0  0  0  0  0  0  0  0
   13.2139   -1.3615   -0.5936 H   0  0  0  0  0  0  0  0  0  0  0  0
    6.8115   -2.4627   -0.7771 H   0  0  0  0  0  0  0  0  0  0  0  0
    5.8010   -4.7497   -0.9614 H   0  0  0  0  0  0  0  0  0  0  0  0
    1.8896   -6.7171   -0.5888 H   0  0  0  0  0  0  0  0  0  0  0  0
    1.3484   -5.0978   -1.1404 H   0  0  0  0  0  0  0  0  0  0  0  0
    1.6716   -5.3963    0.6051 H   0  0  0  0  0  0  0  0  0  0  0  0
    1.9246   -3.0965    0.0335 H   0  0  0  0  0  0  0  0  0  0  0  0
    2.9095   -0.8713    0.2350 H   0  0  0  0  0  0  0  0  0  0  0  0
  1  2  1  0
  1 31  1  0
  1 32  1  0
  1 33  1  0
  2  3  1  0
  3  4  1  0
  3 34  1  0
  3 35  1  0
  4  5  2  0
  4 22  1  0
  5  6  1  0
  6  7  1  0
  6 21  1  0
  7  8  1  0
  7  9  2  0
  8 36  1  0
  8 37  1  0
  8 38  1  0
  9 10  1  0
  9 19  1  0
 10 11  2  0
 10 12  1  0
 12 13  1  0
 12 39  1  0
 13 14  2  0
 13 18  1  0
 14 15  1  0
 14 40  1  0
 15 16  2  0
 15 41  1  0
 16 17  1  0
 16 42  1  0
 17 18  2  0
 17 43  1  0
 18 44  1  0
 19 20  2  0
 20 21  1  0
 21 22  2  0
 22 23  1  0
 23 24  2  0
 23 30  1  0
 24 25  1  0
 24 45  1  0
 25 26  2  0
 25 46  1  0
 26 27  1  0
 26 29  1  0
 27 28  1  0
 28 47  1  0
 28 48  1  0
 28 49  1  0
 29 30  2  0
 29 50  1  0
 30 51  1  0
M  END

