
     RDKit          3D

 59 61  0  0  0  0  0  0  0  0999 V2000
   -1.2012    6.8070   -8.2741 C   0  0  0  0  0  0  0  0  0  0  0  0
    0.1202    7.3081   -7.6493 C   0  0  1  0  0  0  0  0  0  0  0  0
    0.7940    8.3147   -8.6038 C   0  0  0  0  0  0  0  0  0  0  0  0
   -0.1521    7.9624   -6.2876 C   0  0  0  0  0  0  0  0  0  0  0  0
    1.0408    6.1127   -7.4758 C   0  0  0  0  0  0  0  0  0  0  0  0
    1.5273    5.4505   -8.5292 N   0  0  0  0  0  0  0  0  0  0  0  0
    2.3518    4.3519   -8.4758 C   0  0  0  0  0  0  0  0  0  0  0  0
    2.7219    3.8576   -7.2275 C   0  0  0  0  0  0  0  0  0  0  0  0
    3.5439    2.7474   -7.0153 N   0  0  0  0  0  0  0  0  0  0  0  0
    4.1650    1.9588   -7.9809 C   0  0  0  0  0  0  0  0  0  0  0  0
    4.0814    2.1681   -9.1798 O   0  0  0  0  0  0  0  0  0  0  0  0
    4.9001    0.9222   -7.4549 N   0  0  0  0  0  0  0  0  0  0  0  0
    5.5936   -0.0292   -8.3256 C   0  0  1  0  0  0  0  0  0  0  0  0
    6.7439   -0.7003   -7.5556 C   0  0  0  0  0  0  0  0  0  0  0  0
    6.2293   -1.7634   -6.5647 C   0  0  0  0  0  0  0  0  0  0  0  0
    5.3821   -2.7855   -7.1780 N   0  0  0  0  0  0  0  0  0  0  0  0
    6.0843   -3.8233   -7.9608 C   0  0  1  0  0  0  0  0  0  0  0  0
    7.1331   -4.5666   -7.1024 C   0  0  0  0  0  0  0  0  0  0  0  0
    6.4941   -5.3659   -5.9592 C   0  0  0  0  0  0  0  0  0  0  0  0
    5.4617   -6.3692   -6.4907 C   0  0  0  0  0  0  0  0  0  0  0  0
    4.4267   -5.6940   -7.4010 C   0  0  0  0  0  0  0  0  0  0  0  0
    5.1081   -4.8850   -8.5130 C   0  0  0  0  0  0  0  0  0  0  0  0
    4.2429   -2.1277   -7.8258 C   0  0  0  0  0  0  0  0  0  0  0  0
    4.6461   -1.1047   -8.9000 C   0  0  0  0  0  0  0  0  0  0  0  0
    2.2117    4.5461   -6.0940 C   0  0  0  0  0  0  0  0  0  0  0  0
    1.4019    5.6371   -6.3100 N   0  0  0  0  0  0  0  0  0  0  0  0
   -1.8868    7.6525   -8.4456 H   0  0  0  0  0  0  0  0  0  0  0  0
   -1.7048    6.0871   -7.6095 H   0  0  0  0  0  0  0  0  0  0  0  0
   -1.0156    6.3093   -9.2379 H   0  0  0  0  0  0  0  0  0  0  0  0
    0.1229    9.1678   -8.7936 H   0  0  0  0  0  0  0  0  0  0  0  0
    1.0343    7.8404   -9.5673 H   0  0  0  0  0  0  0  0  0  0  0  0
    1.7306    8.7045   -8.1744 H   0  0  0  0  0  0  0  0  0  0  0  0
   -0.8307    8.8214   -6.4098 H   0  0  0  0  0  0  0  0  0  0  0  0
    0.7794    8.3222   -5.8244 H   0  0  0  0  0  0  0  0  0  0  0  0
   -0.6185    7.2508   -5.5896 H   0  0  0  0  0  0  0  0  0  0  0  0
    2.6977    3.9051   -9.4059 H   0  0  0  0  0  0  0  0  0  0  0  0
    3.7429    2.5449   -6.0432 H   0  0  0  0  0  0  0  0  0  0  0  0
    4.8109    0.6942   -6.4726 H   0  0  0  0  0  0  0  0  0  0  0  0
    5.9933    0.5676   -9.1585 H   0  0  0  0  0  0  0  0  0  0  0  0
    7.3410    0.0634   -7.0289 H   0  0  0  0  0  0  0  0  0  0  0  0
    7.4173   -1.1787   -8.2852 H   0  0  0  0  0  0  0  0  0  0  0  0
    5.6332   -1.2738   -5.7692 H   0  0  0  0  0  0  0  0  0  0  0  0
    7.0749   -2.2287   -6.0414 H   0  0  0  0  0  0  0  0  0  0  0  0
    6.6198   -3.3846   -8.8323 H   0  0  0  0  0  0  0  0  0  0  0  0
    7.9008   -3.8787   -6.7157 H   0  0  0  0  0  0  0  0  0  0  0  0
    7.6727   -5.2560   -7.7753 H   0  0  0  0  0  0  0  0  0  0  0  0
    6.0016   -4.6688   -5.2605 H   0  0  0  0  0  0  0  0  0  0  0  0
    7.2761   -5.8921   -5.3858 H   0  0  0  0  0  0  0  0  0  0  0  0
    4.9596   -6.8833   -5.6535 H   0  0  0  0  0  0  0  0  0  0  0  0
    5.9874   -7.1551   -7.0652 H   0  0  0  0  0  0  0  0  0  0  0  0
    3.7912   -5.0229   -6.7986 H   0  0  0  0  0  0  0  0  0  0  0  0
    3.7578   -6.4511   -7.8442 H   0  0  0  0  0  0  0  0  0  0  0  0
    4.3611   -4.4349   -9.1845 H   0  0  0  0  0  0  0  0  0  0  0  0
    5.6994   -5.5665   -9.1492 H   0  0  0  0  0  0  0  0  0  0  0  0
    3.6697   -1.6085   -7.0350 H   0  0  0  0  0  0  0  0  0  0  0  0
    3.5556   -2.8756   -8.2419 H   0  0  0  0  0  0  0  0  0  0  0  0
    3.7608   -0.6130   -9.3325 H   0  0  0  0  0  0  0  0  0  0  0  0
    5.1595   -1.6164   -9.7325 H   0  0  0  0  0  0  0  0  0  0  0  0
    2.4268    4.2652   -5.0630 H   0  0  0  0  0  0  0  0  0  0  0  0
  2  1  1  6
  1 27  1  0
  1 28  1  0
  1 29  1  0
  2  3  1  0
  2  4  1  0
  2  5  1  0
  3 30  1  0
  3 31  1  0
  3 32  1  0
  4 33  1  0
  4 34  1  0
  4 35  1  0
  5  6  2  0
  5 26  1  0
  6  7  1  0
  7  8  2  0
  7 36  1  0
  8  9  1  0
  8 25  1  0
  9 10  1  0
  9 37  1  0
 10 11  2  0
 10 12  1  0
 12 13  1  0
 12 38  1  0
 13 14  1  0
 13 24  1  0
 13 39  1  6
 14 15  1  0
 14 40  1  0
 14 41  1  0
 15 16  1  0
 15 42  1  0
 15 43  1  0
 16 17  1  0
 16 23  1  0
 17 18  1  0
 17 22  1  0
 17 44  1  6
 18 19  1  0
 18 45  1  0
 18 46  1  0
 19 20  1  0
 19 47  1  0
 19 48  1  0
 20 21  1  0
 20 49  1  0
 20 50  1  0
 21 22  1  0
 21 51  1  0
 21 52  1  0
 22 53  1  0
 22 54  1  0
 23 24  1  0
 23 55  1  0
 23 56  1  0
 24 57  1  0
 24 58  1  0
 25 26  2  0
 25 59  1  0
M  END

