
     RDKit          3D

 38 39  0  0  0  0  0  0  0  0999 V2000
    1.8603    3.9725   -2.2872 C   0  0  0  0  0  0  0  0  0  0  0  0
    2.6285    3.1335   -1.5883 C   0  0  0  0  0  0  0  0  0  0  0  0
    3.5415    3.5626   -0.4775 C   0  0  0  0  0  0  0  0  0  0  0  0
    4.9266    3.2752   -0.7746 O   0  0  0  0  0  0  0  0  0  0  0  0
    5.3673    2.0299   -0.4962 C   0  0  0  0  0  0  0  0  0  0  0  0
    4.6518    1.1742   -0.0198 O   0  0  0  0  0  0  0  0  0  0  0  0
    6.7998    1.7956   -0.8055 C   0  0  0  0  0  0  0  0  0  0  0  0
    7.6529    2.7548   -1.2419 C   0  0  0  0  0  0  0  0  0  0  0  0
    7.3834    4.1865   -1.6040 C   0  0  0  0  0  0  0  0  0  0  0  0
    8.9928    2.4831   -1.4081 O   0  0  0  0  0  0  0  0  0  0  0  0
    9.5404    1.3428   -0.9095 C   0  0  0  0  0  0  0  0  0  0  0  0
   10.8982    1.3716   -0.9999 N   0  0  0  0  0  0  0  0  0  0  0  0
    8.7679    0.3266   -0.4270 C   0  0  0  0  0  0  0  0  0  0  0  0
    9.4112   -0.7936    0.1630 C   0  0  0  0  0  0  0  0  0  0  0  0
    9.9676   -1.6934    0.6511 N   0  0  0  0  0  0  0  0  0  0  0  0
    7.2565    0.3583   -0.5799 C   0  0  2  0  0  0  0  0  0  0  0  0
    6.7520   -0.5761   -1.6870 C   0  0  0  0  0  0  0  0  0  0  0  0
    5.7754   -1.5434   -1.4159 C   0  0  0  0  0  0  0  0  0  0  0  0
    5.3097   -2.4015   -2.4153 C   0  0  0  0  0  0  0  0  0  0  0  0
    5.8248   -2.2888   -3.7083 C   0  0  0  0  0  0  0  0  0  0  0  0
    5.2483   -3.3576   -4.9691 Cl  0  0  0  0  0  0  0  0  0  0  0  0
    6.7978   -1.3296   -4.0063 C   0  0  0  0  0  0  0  0  0  0  0  0
    7.2527   -0.4835   -2.9943 C   0  0  0  0  0  0  0  0  0  0  0  0
    1.1886    3.6142   -3.0722 H   0  0  0  0  0  0  0  0  0  0  0  0
    1.8657    5.0512   -2.0956 H   0  0  0  0  0  0  0  0  0  0  0  0
    2.6055    2.0576   -1.7935 H   0  0  0  0  0  0  0  0  0  0  0  0
    3.2766    3.0494    0.4595 H   0  0  0  0  0  0  0  0  0  0  0  0
    3.5002    4.6505   -0.3270 H   0  0  0  0  0  0  0  0  0  0  0  0
    6.5460    4.2694   -2.3074 H   0  0  0  0  0  0  0  0  0  0  0  0
    8.2894    4.6176   -2.0499 H   0  0  0  0  0  0  0  0  0  0  0  0
    7.1091    4.7733   -0.7142 H   0  0  0  0  0  0  0  0  0  0  0  0
   11.3453    2.2809   -1.0110 H   0  0  0  0  0  0  0  0  0  0  0  0
   11.4114    0.6124   -0.5673 H   0  0  0  0  0  0  0  0  0  0  0  0
    6.7959    0.0144    0.3576 H   0  0  0  0  0  0  0  0  0  0  0  0
    5.3616   -1.6206   -0.4081 H   0  0  0  0  0  0  0  0  0  0  0  0
    4.5510   -3.1545   -2.1959 H   0  0  0  0  0  0  0  0  0  0  0  0
    7.1931   -1.2537   -5.0208 H   0  0  0  0  0  0  0  0  0  0  0  0
    8.0188    0.2591   -3.2336 H   0  0  0  0  0  0  0  0  0  0  0  0
  1  2  2  0
  1 24  1  0
  1 25  1  0
  2  3  1  0
  2 26  1  0
  3  4  1  0
  3 27  1  0
  3 28  1  0
  4  5  1  0
  5  6  2  0
  5  7  1  0
  7  8  2  0
  7 16  1  0
  8  9  1  0
  8 10  1  0
  9 29  1  0
  9 30  1  0
  9 31  1  0
 10 11  1  0
 11 12  1  0
 11 13  2  0
 12 32  1  0
 12 33  1  0
 13 14  1  0
 13 16  1  0
 14 15  3  0
 16 17  1  0
 16 34  1  1
 17 18  2  0
 17 23  1  0
 18 19  1  0
 18 35  1  0
 19 20  2  0
 19 36  1  0
 20 21  1  0
 20 22  1  0
 22 23  2  0
 22 37  1  0
 23 38  1  0
M  END

