
     RDKit          3D

 56 57  0  0  0  0  0  0  0  0999 V2000
    5.6826   -0.7143    1.7576 C   0  0  0  0  0  0  0  0  0  0  0  0
    4.1983   -0.3307    1.7422 C   0  0  1  0  0  0  0  0  0  0  0  0
    3.3530   -1.3392    0.9560 C   0  0  0  0  0  0  0  0  0  0  0  0
    3.6667   -0.1762    3.1688 C   0  0  0  0  0  0  0  0  0  0  0  0
    4.0314    1.0103    1.1828 O   0  0  0  0  0  0  0  0  0  0  0  0
    4.3874    1.2997   -0.0920 C   0  0  0  0  0  0  0  0  0  0  0  0
    4.8789    0.5213   -0.8887 O   0  0  0  0  0  0  0  0  0  0  0  0
    4.1225    2.6062   -0.3747 N   0  0  0  0  0  0  0  0  0  0  0  0
    3.5487    3.5848    0.5545 C   0  0  0  0  0  0  0  0  0  0  0  0
    3.2572    4.7892   -0.3458 C   0  0  0  0  0  0  0  0  0  0  0  0
    4.3445    4.6935   -1.4468 C   0  0  2  0  0  0  0  0  0  0  0  0
    4.1346    5.4081   -2.6864 N   0  0  0  0  0  0  0  0  0  0  0  0
    4.1918    6.8597   -2.6182 C   0  0  0  0  0  0  0  0  0  0  0  0
    4.1108    7.5021   -3.9892 C   0  0  0  0  0  0  0  0  0  0  0  0
    3.4281    8.7068   -4.1851 C   0  0  0  0  0  0  0  0  0  0  0  0
    3.3873    9.3235   -5.4410 C   0  0  0  0  0  0  0  0  0  0  0  0
    4.0220    8.7557   -6.5561 C   0  0  0  0  0  0  0  0  0  0  0  0
    3.9998    9.3997   -7.9561 C   0  0  1  0  0  0  0  0  0  0  0  0
    3.2100   10.7207   -7.9776 C   0  0  0  0  0  0  0  0  0  0  0  0
    5.4487    9.6971   -8.4070 C   0  0  0  0  0  0  0  0  0  0  0  0
    3.3394    8.4265   -8.9601 C   0  0  0  0  0  0  0  0  0  0  0  0
    4.6993    7.5380   -6.3496 C   0  0  0  0  0  0  0  0  0  0  0  0
    4.7463    6.9239   -5.0992 C   0  0  0  0  0  0  0  0  0  0  0  0
    4.4607    3.1765   -1.6729 C   0  0  0  0  0  0  0  0  0  0  0  0
    5.8141   -1.6746    2.2805 H   0  0  0  0  0  0  0  0  0  0  0  0
    6.2688    0.0488    2.2937 H   0  0  0  0  0  0  0  0  0  0  0  0
    6.0743   -0.8094    0.7372 H   0  0  0  0  0  0  0  0  0  0  0  0
    3.4015   -2.3260    1.4426 H   0  0  0  0  0  0  0  0  0  0  0  0
    3.7144   -1.4337   -0.0757 H   0  0  0  0  0  0  0  0  0  0  0  0
    2.2986   -1.0207    0.9353 H   0  0  0  0  0  0  0  0  0  0  0  0
    3.7440   -1.1313    3.7103 H   0  0  0  0  0  0  0  0  0  0  0  0
    2.6108    0.1346    3.1579 H   0  0  0  0  0  0  0  0  0  0  0  0
    4.2440    0.5839    3.7169 H   0  0  0  0  0  0  0  0  0  0  0  0
    4.2698    3.8382    1.3534 H   0  0  0  0  0  0  0  0  0  0  0  0
    2.6513    3.1836    1.0483 H   0  0  0  0  0  0  0  0  0  0  0  0
    3.2698    5.7416    0.2047 H   0  0  0  0  0  0  0  0  0  0  0  0
    2.2634    4.6853   -0.8166 H   0  0  0  0  0  0  0  0  0  0  0  0
    5.2971    5.0553   -1.0176 H   0  0  0  0  0  0  0  0  0  0  0  0
    3.2721    5.1054   -3.1397 H   0  0  0  0  0  0  0  0  0  0  0  0
    5.1580    7.1280   -2.1488 H   0  0  0  0  0  0  0  0  0  0  0  0
    3.4106    7.3107   -1.9682 H   0  0  0  0  0  0  0  0  0  0  0  0
    2.9126    9.1788   -3.3427 H   0  0  0  0  0  0  0  0  0  0  0  0
    2.8398   10.2617   -5.5363 H   0  0  0  0  0  0  0  0  0  0  0  0
    3.6468   11.4723   -7.3014 H   0  0  0  0  0  0  0  0  0  0  0  0
    2.1563   10.5749   -7.6920 H   0  0  0  0  0  0  0  0  0  0  0  0
    3.2206   11.1453   -8.9940 H   0  0  0  0  0  0  0  0  0  0  0  0
    5.9424   10.3958   -7.7128 H   0  0  0  0  0  0  0  0  0  0  0  0
    5.4543   10.1534   -9.4107 H   0  0  0  0  0  0  0  0  0  0  0  0
    6.0610    8.7835   -8.4532 H   0  0  0  0  0  0  0  0  0  0  0  0
    2.3029    8.1979   -8.6648 H   0  0  0  0  0  0  0  0  0  0  0  0
    3.8855    7.4734   -9.0278 H   0  0  0  0  0  0  0  0  0  0  0  0
    3.3164    8.8700   -9.9694 H   0  0  0  0  0  0  0  0  0  0  0  0
    5.2075    7.0511   -7.1859 H   0  0  0  0  0  0  0  0  0  0  0  0
    5.2718    5.9751   -4.9699 H   0  0  0  0  0  0  0  0  0  0  0  0
    5.4634    2.8645   -1.9988 H   0  0  0  0  0  0  0  0  0  0  0  0
    3.7511    2.8469   -2.4569 H   0  0  0  0  0  0  0  0  0  0  0  0
  1  2  1  0
  1 25  1  0
  1 26  1  0
  1 27  1  0
  2  3  1  0
  2  4  1  0
  2  5  1  6
  3 28  1  0
  3 29  1  0
  3 30  1  0
  4 31  1  0
  4 32  1  0
  4 33  1  0
  5  6  1  0
  6  7  2  0
  6  8  1  0
  8  9  1  0
  8 24  1  0
  9 10  1  0
  9 34  1  0
  9 35  1  0
 10 11  1  0
 10 36  1  0
 10 37  1  0
 11 12  1  0
 11 24  1  0
 11 38  1  1
 12 13  1  0
 12 39  1  0
 13 14  1  0
 13 40  1  0
 13 41  1  0
 14 15  2  0
 14 23  1  0
 15 16  1  0
 15 42  1  0
 16 17  2  0
 16 43  1  0
 17 18  1  0
 17 22  1  0
 18 19  1  1
 18 20  1  0
 18 21  1  0
 19 44  1  0
 19 45  1  0
 19 46  1  0
 20 47  1  0
 20 48  1  0
 20 49  1  0
 21 50  1  0
 21 51  1  0
 21 52  1  0
 22 23  2  0
 22 53  1  0
 23 54  1  0
 24 55  1  0
 24 56  1  0
M  END

