
     RDKit          3D

 87 94  0  0  0  0  0  0  0  0999 V2000
    2.9281    0.0528   -0.9313 C   0  0  0  0  0  0  0  0  0  0  0  0
    3.2935   -0.0951    0.4239 O   0  0  0  0  0  0  0  0  0  0  0  0
    3.3298   -1.3203    0.9956 C   0  0  0  0  0  0  0  0  0  0  0  0
    2.8930   -2.4740    0.3341 C   0  0  0  0  0  0  0  0  0  0  0  0
    3.0197   -3.7294    0.9587 C   0  0  0  0  0  0  0  0  0  0  0  0
    3.6622   -3.8037    2.2380 C   0  0  0  0  0  0  0  0  0  0  0  0
    4.0623   -2.6562    2.8949 C   0  0  0  0  0  0  0  0  0  0  0  0
    3.8925   -1.3767    2.3166 C   0  0  0  0  0  0  0  0  0  0  0  0
    4.3394   -0.1734    3.0444 C   0  0  0  0  0  0  0  0  0  0  0  0
    5.4903   -0.2278    3.8643 C   0  0  0  0  0  0  0  0  0  0  0  0
    5.9148    0.8780    4.5946 C   0  0  0  0  0  0  0  0  0  0  0  0
    5.1946    2.0775    4.5347 C   0  0  0  0  0  0  0  0  0  0  0  0
    5.6814    3.2930    5.2821 C   0  0  1  0  0  0  0  0  0  0  0  0
    6.3330    2.9591    6.4096 F   0  0  0  0  0  0  0  0  0  0  0  0
    6.5363    4.0221    4.5375 F   0  0  0  0  0  0  0  0  0  0  0  0
    4.6684    4.1086    5.6241 F   0  0  0  0  0  0  0  0  0  0  0  0
    4.0465    2.1524    3.7356 C   0  0  0  0  0  0  0  0  0  0  0  0
    3.6293    1.0487    2.9982 C   0  0  0  0  0  0  0  0  0  0  0  0
    3.8368   -5.2423    2.6397 C   0  0  0  0  0  0  0  0  0  0  0  0
    3.2858   -5.9806    1.4484 C   0  0  0  0  0  0  0  0  0  0  0  0
    3.3483   -7.3356    1.1648 C   0  0  0  0  0  0  0  0  0  0  0  0
    2.8375   -7.8394   -0.0791 C   0  0  0  0  0  0  0  0  0  0  0  0
    2.1953   -6.9897   -0.9655 C   0  0  0  0  0  0  0  0  0  0  0  0
    2.0465   -5.6096   -0.6600 C   0  0  0  0  0  0  0  0  0  0  0  0
    2.7072   -5.0766    0.5167 C   0  0  0  0  0  0  0  0  0  0  0  0
    1.1206   -5.0428   -1.6238 C   0  0  0  0  0  0  0  0  0  0  0  0
    0.4529   -3.8047   -1.6807 C   0  0  0  0  0  0  0  0  0  0  0  0
   -0.4383   -3.5418   -2.7274 C   0  0  0  0  0  0  0  0  0  0  0  0
   -1.1568   -2.3981   -2.8022 O   0  0  0  0  0  0  0  0  0  0  0  0
   -1.1373   -1.4692   -1.7399 C   0  0  0  0  0  0  0  0  0  0  0  0
   -0.6808   -4.5016   -3.7687 C   0  0  0  0  0  0  0  0  0  0  0  0
   -1.5962   -4.2403   -4.8962 C   0  0  0  0  0  0  0  0  0  0  0  0
   -1.6726   -2.9814   -5.5345 C   0  0  0  0  0  0  0  0  0  0  0  0
   -2.5074   -2.7783   -6.6298 C   0  0  0  0  0  0  0  0  0  0  0  0
   -3.3036   -3.8222   -7.1161 C   0  0  0  0  0  0  0  0  0  0  0  0
   -4.1785   -3.6226   -8.3276 C   0  0  1  0  0  0  0  0  0  0  0  0
   -4.4571   -2.3248   -8.5394 F   0  0  0  0  0  0  0  0  0  0  0  0
   -3.5874   -4.0865   -9.4462 F   0  0  0  0  0  0  0  0  0  0  0  0
   -5.3490   -4.2749   -8.2080 F   0  0  0  0  0  0  0  0  0  0  0  0
   -3.2522   -5.0760   -6.4926 C   0  0  0  0  0  0  0  0  0  0  0  0
   -2.4086   -5.2804   -5.4057 C   0  0  0  0  0  0  0  0  0  0  0  0
   -0.0439   -5.7591   -3.6530 C   0  0  0  0  0  0  0  0  0  0  0  0
    0.8149   -6.0395   -2.6076 C   0  0  0  0  0  0  0  0  0  0  0  0
    1.5103   -7.3277   -2.2635 C   0  0  0  0  0  0  0  0  0  0  0  0
    3.0674   -9.2859   -0.1193 C   0  0  0  0  0  0  0  0  0  0  0  0
    2.7687  -10.1100   -0.9771 O   0  0  0  0  0  0  0  0  0  0  0  0
    3.7268   -9.5843    1.0926 N   0  0  0  0  0  0  0  0  0  0  0  0
    4.1158  -10.9317    1.4684 C   0  0  0  0  0  0  0  0  0  0  0  0
    5.3491  -11.4641    0.7214 C   0  0  0  0  0  0  0  0  0  0  0  0
    6.6659  -10.6917    0.9191 C   0  0  1  0  0  0  0  0  0  0  0  0
    7.1223  -10.6550    2.3839 C   0  0  0  0  0  0  0  0  0  0  0  0
    7.7570  -11.2785    0.0131 C   0  0  0  0  0  0  0  0  0  0  0  0
    3.9188   -8.4547    1.9176 C   0  0  0  0  0  0  0  0  0  0  0  0
    4.4544   -8.4665    3.0221 O   0  0  0  0  0  0  0  0  0  0  0  0
    3.0496    1.1172   -1.1704 H   0  0  0  0  0  0  0  0  0  0  0  0
    1.8764   -0.2360   -1.1044 H   0  0  0  0  0  0  0  0  0  0  0  0
    3.5756   -0.5464   -1.5939 H   0  0  0  0  0  0  0  0  0  0  0  0
    2.5067   -2.4071   -0.6792 H   0  0  0  0  0  0  0  0  0  0  0  0
    4.5090   -2.7316    3.8883 H   0  0  0  0  0  0  0  0  0  0  0  0
    6.0794   -1.1457    3.9073 H   0  0  0  0  0  0  0  0  0  0  0  0
    6.8113    0.8112    5.2138 H   0  0  0  0  0  0  0  0  0  0  0  0
    3.4703    3.0789    3.7009 H   0  0  0  0  0  0  0  0  0  0  0  0
    2.7274    1.1239    2.3931 H   0  0  0  0  0  0  0  0  0  0  0  0
    3.2846   -5.5020    3.5608 H   0  0  0  0  0  0  0  0  0  0  0  0
    4.8881   -5.5056    2.8456 H   0  0  0  0  0  0  0  0  0  0  0  0
    0.5899   -3.0762   -0.8863 H   0  0  0  0  0  0  0  0  0  0  0  0
   -1.8538   -0.6809   -2.0044 H   0  0  0  0  0  0  0  0  0  0  0  0
   -0.1382   -1.0167   -1.6107 H   0  0  0  0  0  0  0  0  0  0  0  0
   -1.4425   -1.9353   -0.7875 H   0  0  0  0  0  0  0  0  0  0  0  0
   -1.0562   -2.1587   -5.1763 H   0  0  0  0  0  0  0  0  0  0  0  0
   -2.5432   -1.8002   -7.1125 H   0  0  0  0  0  0  0  0  0  0  0  0
   -3.8854   -5.8899   -6.8517 H   0  0  0  0  0  0  0  0  0  0  0  0
   -2.4031   -6.2569   -4.9180 H   0  0  0  0  0  0  0  0  0  0  0  0
   -0.2295   -6.5169   -4.4169 H   0  0  0  0  0  0  0  0  0  0  0  0
    2.2410   -7.6397   -3.0314 H   0  0  0  0  0  0  0  0  0  0  0  0
    0.8148   -8.1776   -2.1598 H   0  0  0  0  0  0  0  0  0  0  0  0
    3.2640  -11.5961    1.2520 H   0  0  0  0  0  0  0  0  0  0  0  0
    4.2796  -10.9171    2.5551 H   0  0  0  0  0  0  0  0  0  0  0  0
    5.1028  -11.5008   -0.3526 H   0  0  0  0  0  0  0  0  0  0  0  0
    5.4950  -12.5129    1.0411 H   0  0  0  0  0  0  0  0  0  0  0  0
    6.4929   -9.6480    0.5955 H   0  0  0  0  0  0  0  0  0  0  0  0
    7.2484  -11.6770    2.7840 H   0  0  0  0  0  0  0  0  0  0  0  0
    6.4053  -10.1152    3.0202 H   0  0  0  0  0  0  0  0  0  0  0  0
    8.0946  -10.1435    2.4769 H   0  0  0  0  0  0  0  0  0  0  0  0
    7.9821  -12.3230    0.2912 H   0  0  0  0  0  0  0  0  0  0  0  0
    8.6953  -10.7056    0.0933 H   0  0  0  0  0  0  0  0  0  0  0  0
    7.4497  -11.2763   -1.0456 H   0  0  0  0  0  0  0  0  0  0  0  0
  1  2  1  0
  1 55  1  0
  1 56  1  0
  1 57  1  0
  2  3  1  0
  3  4  2  0
  3  8  1  0
  4  5  1  0
  4 58  1  0
  5  6  2  0
  5 25  1  0
  6  7  1  0
  6 19  1  0
  7  8  2  0
  7 59  1  0
  8  9  1  0
  9 10  2  0
  9 18  1  0
 10 11  1  0
 10 60  1  0
 11 12  2  0
 11 61  1  0
 12 13  1  0
 12 17  1  0
 13 14  1  1
 13 15  1  0
 13 16  1  0
 17 18  2  0
 17 62  1  0
 18 63  1  0
 19 20  1  0
 19 64  1  0
 19 65  1  0
 20 21  1  0
 20 25  2  0
 21 22  2  0
 21 53  1  0
 22 23  1  0
 22 45  1  0
 23 24  2  0
 23 44  1  0
 24 25  1  0
 24 26  1  0
 26 27  2  0
 26 43  1  0
 27 28  1  0
 27 66  1  0
 28 29  1  0
 28 31  2  0
 29 30  1  0
 30 67  1  0
 30 68  1  0
 30 69  1  0
 31 32  1  0
 31 42  1  0
 32 33  2  0
 32 41  1  0
 33 34  1  0
 33 70  1  0
 34 35  2  0
 34 71  1  0
 35 36  1  0
 35 40  1  0
 36 37  1  6
 36 38  1  0
 36 39  1  0
 40 41  2  0
 40 72  1  0
 41 73  1  0
 42 43  2  0
 42 74  1  0
 43 44  1  0
 44 75  1  0
 44 76  1  0
 45 46  2  0
 45 47  1  0
 47 48  1  0
 47 53  1  0
 48 49  1  0
 48 77  1  0
 48 78  1  0
 49 50  1  0
 49 79  1  0
 49 80  1  0
 50 51  1  0
 50 52  1  0
 50 81  1  6
 51 82  1  0
 51 83  1  0
 51 84  1  0
 52 85  1  0
 52 86  1  0
 52 87  1  0
 53 54  2  0
M  END

