
     RDKit          3D

 52 54  0  0  0  0  0  0  0  0999 V2000
    4.8348   -0.4454    0.0009 C   0  0  0  0  0  0  0  0  0  0  0  0
    3.4268   -0.1032   -0.4790 C   0  0  0  0  0  0  0  0  0  0  0  0
    3.4247    0.6774   -1.7120 N   0  0  0  0  0  0  0  0  0  0  0  0
    3.2084    2.0253   -1.8282 C   0  0  0  0  0  0  0  0  0  0  0  0
    3.3649    2.3188   -3.1762 C   0  0  0  0  0  0  0  0  0  0  0  0
    3.2493    3.5247   -3.8522 N   0  0  0  0  0  0  0  0  0  0  0  0
    2.9375    4.7176   -3.2549 C   0  0  0  0  0  0  0  0  0  0  0  0
    2.7287    4.8482   -2.0565 O   0  0  0  0  0  0  0  0  0  0  0  0
    2.8657    5.8707   -4.1774 C   0  0  0  0  0  0  0  0  0  0  0  0
    2.5740    7.1881   -3.9319 C   0  0  0  0  0  0  0  0  0  0  0  0
    2.6429    7.8492   -5.1949 C   0  0  0  0  0  0  0  0  0  0  0  0
    2.9698    6.8904   -6.1205 C   0  0  0  0  0  0  0  0  0  0  0  0
    3.2096    6.9367   -7.5864 C   0  0  0  0  0  0  0  0  0  0  0  0
    4.6115    6.9201   -7.8343 O   0  0  0  0  0  0  0  0  0  0  0  0
    5.0643    6.9344   -9.1107 C   0  0  0  0  0  0  0  0  0  0  0  0
    4.2397    6.9891  -10.2478 C   0  0  0  0  0  0  0  0  0  0  0  0
    4.8190    7.0039  -11.5169 C   0  0  0  0  0  0  0  0  0  0  0  0
    6.2098    6.9657  -11.6797 C   0  0  0  0  0  0  0  0  0  0  0  0
    6.7569    6.9854  -13.0627 C   0  0  0  0  0  0  0  0  0  0  0  0
    6.0859    7.0330  -14.0696 O   0  0  0  0  0  0  0  0  0  0  0  0
    8.1064    6.9426  -13.0867 O   0  0  0  0  0  0  0  0  0  0  0  0
    8.7123    6.9569  -14.3763 C   0  0  0  0  0  0  0  0  0  0  0  0
    7.0273    6.9109  -10.5344 C   0  0  0  0  0  0  0  0  0  0  0  0
    6.4635    6.8951   -9.2663 C   0  0  0  0  0  0  0  0  0  0  0  0
    3.1042    5.6862   -5.5053 O   0  0  0  0  0  0  0  0  0  0  0  0
    3.6793    1.0644   -3.7793 C   0  0  0  0  0  0  0  0  0  0  0  0
    3.9243    0.8706   -5.2152 C   0  0  0  0  0  0  0  0  0  0  0  0
    3.8721    1.7886   -6.0179 O   0  0  0  0  0  0  0  0  0  0  0  0
    4.2079   -0.3889   -5.5582 O   0  0  0  0  0  0  0  0  0  0  0  0
    4.4556   -0.6264   -6.9433 C   0  0  0  0  0  0  0  0  0  0  0  0
    3.7112    0.0876   -2.8630 N   0  0  0  0  0  0  0  0  0  0  0  0
    4.7849   -1.0532    0.9178 H   0  0  0  0  0  0  0  0  0  0  0  0
    5.4124    0.4659    0.2215 H   0  0  0  0  0  0  0  0  0  0  0  0
    5.3716   -1.0194   -0.7688 H   0  0  0  0  0  0  0  0  0  0  0  0
    2.8802    0.4831    0.2744 H   0  0  0  0  0  0  0  0  0  0  0  0
    2.8497   -1.0196   -0.6745 H   0  0  0  0  0  0  0  0  0  0  0  0
    2.9605    2.6664   -0.9899 H   0  0  0  0  0  0  0  0  0  0  0  0
    3.4143    3.4707   -4.8583 H   0  0  0  0  0  0  0  0  0  0  0  0
    2.3407    7.6093   -2.9575 H   0  0  0  0  0  0  0  0  0  0  0  0
    2.4762    8.9048   -5.3997 H   0  0  0  0  0  0  0  0  0  0  0  0
    2.7552    7.8565   -7.9941 H   0  0  0  0  0  0  0  0  0  0  0  0
    2.7293    6.0684   -8.0725 H   0  0  0  0  0  0  0  0  0  0  0  0
    3.1539    7.0196  -10.1583 H   0  0  0  0  0  0  0  0  0  0  0  0
    4.1925    7.0461  -12.4102 H   0  0  0  0  0  0  0  0  0  0  0  0
    9.7957    6.9173  -14.2069 H   0  0  0  0  0  0  0  0  0  0  0  0
    8.4460    7.8727  -14.9262 H   0  0  0  0  0  0  0  0  0  0  0  0
    8.3881    6.0907  -14.9732 H   0  0  0  0  0  0  0  0  0  0  0  0
    8.1113    6.8806  -10.6513 H   0  0  0  0  0  0  0  0  0  0  0  0
    7.0820    6.8515   -8.3679 H   0  0  0  0  0  0  0  0  0  0  0  0
    4.6710   -1.6982   -7.0333 H   0  0  0  0  0  0  0  0  0  0  0  0
    5.3128   -0.0332   -7.2964 H   0  0  0  0  0  0  0  0  0  0  0  0
    3.5768   -0.3613   -7.5508 H   0  0  0  0  0  0  0  0  0  0  0  0
  1  2  1  0
  1 32  1  0
  1 33  1  0
  1 34  1  0
  2  3  1  0
  2 35  1  0
  2 36  1  0
  3  4  1  0
  3 31  1  0
  4  5  2  0
  4 37  1  0
  5  6  1  0
  5 26  1  0
  6  7  1  0
  6 38  1  0
  7  8  2  0
  7  9  1  0
  9 10  2  0
  9 25  1  0
 10 11  1  0
 10 39  1  0
 11 12  2  0
 11 40  1  0
 12 13  1  0
 12 25  1  0
 13 14  1  0
 13 41  1  0
 13 42  1  0
 14 15  1  0
 15 16  2  0
 15 24  1  0
 16 17  1  0
 16 43  1  0
 17 18  2  0
 17 44  1  0
 18 19  1  0
 18 23  1  0
 19 20  2  0
 19 21  1  0
 21 22  1  0
 22 45  1  0
 22 46  1  0
 22 47  1  0
 23 24  2  0
 23 48  1  0
 24 49  1  0
 26 27  1  0
 26 31  2  0
 27 28  2  0
 27 29  1  0
 29 30  1  0
 30 50  1  0
 30 51  1  0
 30 52  1  0
M  END

