
     RDKit          3D

136147  0  0  0  0  0  0  0  0999 V2000
    4.0200   -0.7318   -2.2215 C   0  0  0  0  0  0  0  0  0  0  0  0
    3.4608   -0.9265   -0.8006 C   0  0  1  0  0  0  0  0  0  0  0  0
    1.9504   -1.2403   -0.9125 C   0  0  0  0  0  0  0  0  0  0  0  0
    4.1891   -2.1277   -0.1533 C   0  0  0  0  0  0  0  0  0  0  0  0
    3.6574    0.3227    0.0790 C   0  0  0  0  0  0  0  0  0  0  0  0
    4.2803    1.4943   -0.3833 C   0  0  0  0  0  0  0  0  0  0  0  0
    4.4423    2.6117    0.4376 C   0  0  0  0  0  0  0  0  0  0  0  0
    3.9884    2.6045    1.7657 C   0  0  0  0  0  0  0  0  0  0  0  0
    4.1776    3.7805    2.6465 C   0  0  0  0  0  0  0  0  0  0  0  0
    3.9144    5.0833    2.3344 C   0  0  0  0  0  0  0  0  0  0  0  0
    3.2350    5.7132    1.1971 C   0  0  0  0  0  0  0  0  0  0  0  0
    2.1297    5.0974    0.5736 C   0  0  0  0  0  0  0  0  0  0  0  0
    1.4784    5.7152   -0.4911 C   0  0  0  0  0  0  0  0  0  0  0  0
    1.9087    6.9650   -0.9587 C   0  0  0  0  0  0  0  0  0  0  0  0
    1.2332    7.5993   -2.0518 N   0  0  0  0  0  0  0  0  0  0  0  0
    0.1606    8.4692   -1.7822 C   0  0  0  0  0  0  0  0  0  0  0  0
   -0.2341    8.7063   -0.4468 C   0  0  0  0  0  0  0  0  0  0  0  0
   -1.2905    9.5623   -0.1502 C   0  0  0  0  0  0  0  0  0  0  0  0
   -1.9808   10.2042   -1.1796 C   0  0  0  0  0  0  0  0  0  0  0  0
   -1.5906    9.9688   -2.4974 C   0  0  0  0  0  0  0  0  0  0  0  0
   -0.5308    9.1124   -2.8342 C   0  0  0  0  0  0  0  0  0  0  0  0
   -0.1657    8.9116   -4.3119 C   0  0  1  0  0  0  0  0  0  0  0  0
   -1.3971    8.3427   -5.0658 C   0  0  0  0  0  0  0  0  0  0  0  0
    0.2258   10.2822   -4.9263 C   0  0  0  0  0  0  0  0  0  0  0  0
    1.0125    7.9401   -4.4696 C   0  0  0  0  0  0  0  0  0  0  0  0
    1.4842    7.6335   -5.7553 C   0  0  0  0  0  0  0  0  0  0  0  0
    2.5526    6.7662   -5.9811 C   0  0  0  0  0  0  0  0  0  0  0  0
    3.1818    6.1776   -4.8830 C   0  0  0  0  0  0  0  0  0  0  0  0
    2.7407    6.4582   -3.5933 C   0  0  0  0  0  0  0  0  0  0  0  0
    1.6569    7.3355   -3.3655 C   0  0  0  0  0  0  0  0  0  0  0  0
    2.9972    7.5902   -0.3389 C   0  0  0  0  0  0  0  0  0  0  0  0
    3.6530    6.9764    0.7275 C   0  0  0  0  0  0  0  0  0  0  0  0
    4.3937    6.1779    3.7262 S   0  0  1  0  0  0  0  0  0  0  0  0
    5.5396    7.0238    3.3622 O   0  0  0  0  0  0  0  0  0  0  0  0
    3.1806    6.8026    4.2715 O   0  0  0  0  0  0  0  0  0  0  0  0
    4.9318    4.7938    4.7254 C   0  0  0  0  0  0  0  0  0  0  0  0
    4.7421    3.6442    3.9983 C   0  0  0  0  0  0  0  0  0  0  0  0
    5.3704    2.2851    4.8557 S   0  0  0  0  0  0  0  0  0  0  0  0
    5.8864    3.2974    6.1981 C   0  0  0  0  0  0  0  0  0  0  0  0
    6.4674    2.6342    7.3809 C   0  0  0  0  0  0  0  0  0  0  0  0
    7.4129    1.5994    7.2395 C   0  0  0  0  0  0  0  0  0  0  0  0
    7.9512    0.9616    8.3578 C   0  0  0  0  0  0  0  0  0  0  0  0
    7.5603    1.3442    9.6464 C   0  0  0  0  0  0  0  0  0  0  0  0
    8.1326    0.7091   10.7962 N   0  0  0  0  0  0  0  0  0  0  0  0
    9.2955    1.2558   11.3687 C   0  0  0  0  0  0  0  0  0  0  0  0
    9.8786    2.4149   10.8096 C   0  0  0  0  0  0  0  0  0  0  0  0
   11.0289    2.9773   11.3546 C   0  0  0  0  0  0  0  0  0  0  0  0
   11.6285    2.3975   12.4735 C   0  0  0  0  0  0  0  0  0  0  0  0
   11.0526    1.2535   13.0247 C   0  0  0  0  0  0  0  0  0  0  0  0
    9.8937    0.6587   12.5021 C   0  0  0  0  0  0  0  0  0  0  0  0
    9.3298   -0.6025   13.1704 C   0  0  1  0  0  0  0  0  0  0  0  0
   10.4020   -1.7235   13.1213 C   0  0  0  0  0  0  0  0  0  0  0  0
    8.9882   -0.2820   14.6502 C   0  0  0  0  0  0  0  0  0  0  0  0
    8.0610   -1.0922   12.4581 C   0  0  0  0  0  0  0  0  0  0  0  0
    7.4009   -2.2341   12.9376 C   0  0  0  0  0  0  0  0  0  0  0  0
    6.2443   -2.7414   12.3467 C   0  0  0  0  0  0  0  0  0  0  0  0
    5.7184   -2.0875   11.2314 C   0  0  0  0  0  0  0  0  0  0  0  0
    6.3467   -0.9522   10.7280 C   0  0  0  0  0  0  0  0  0  0  0  0
    7.5191   -0.4397   11.3267 C   0  0  0  0  0  0  0  0  0  0  0  0
    6.6108    2.3642    9.7986 C   0  0  0  0  0  0  0  0  0  0  0  0
    6.0680    2.9982    8.6828 C   0  0  0  0  0  0  0  0  0  0  0  0
    5.6006    4.6475    5.9746 C   0  0  0  0  0  0  0  0  0  0  0  0
    5.9658    5.7858    6.8512 C   0  0  0  0  0  0  0  0  0  0  0  0
    7.2287    5.8710    7.4574 C   0  0  0  0  0  0  0  0  0  0  0  0
    7.5685    6.9588    8.2640 C   0  0  0  0  0  0  0  0  0  0  0  0
    6.6677    8.0102    8.5008 C   0  0  0  0  0  0  0  0  0  0  0  0
    7.0085    9.2249    9.3848 C   0  0  1  0  0  0  0  0  0  0  0  0
    8.4310    9.1410    9.9675 C   0  0  0  0  0  0  0  0  0  0  0  0
    6.9067   10.5172    8.5413 C   0  0  0  0  0  0  0  0  0  0  0  0
    6.0075    9.2987   10.5614 C   0  0  0  0  0  0  0  0  0  0  0  0
    5.4091    7.9206    7.8779 C   0  0  0  0  0  0  0  0  0  0  0  0
    5.0605    6.8412    7.0686 C   0  0  0  0  0  0  0  0  0  0  0  0
    3.3725    1.4326    2.2427 C   0  0  0  0  0  0  0  0  0  0  0  0
    3.2086    0.3247    1.4131 C   0  0  0  0  0  0  0  0  0  0  0  0
    3.8590   -1.6469   -2.8123 H   0  0  0  0  0  0  0  0  0  0  0  0
    5.1026   -0.5306   -2.2135 H   0  0  0  0  0  0  0  0  0  0  0  0
    3.5212    0.0948   -2.7514 H   0  0  0  0  0  0  0  0  0  0  0  0
    1.7902   -2.1339   -1.5376 H   0  0  0  0  0  0  0  0  0  0  0  0
    1.4047   -0.4013   -1.3726 H   0  0  0  0  0  0  0  0  0  0  0  0
    1.4967   -1.4366    0.0709 H   0  0  0  0  0  0  0  0  0  0  0  0
    4.0563   -3.0329   -0.7682 H   0  0  0  0  0  0  0  0  0  0  0  0
    3.8029   -2.3499    0.8531 H   0  0  0  0  0  0  0  0  0  0  0  0
    5.2696   -1.9333   -0.0629 H   0  0  0  0  0  0  0  0  0  0  0  0
    4.6578    1.5501   -1.4043 H   0  0  0  0  0  0  0  0  0  0  0  0
    4.9418    3.5000    0.0452 H   0  0  0  0  0  0  0  0  0  0  0  0
    1.7706    4.1343    0.9391 H   0  0  0  0  0  0  0  0  0  0  0  0
    0.6189    5.2367   -0.9654 H   0  0  0  0  0  0  0  0  0  0  0  0
    0.2954    8.2152    0.3684 H   0  0  0  0  0  0  0  0  0  0  0  0
   -1.5699    9.7250    0.8939 H   0  0  0  0  0  0  0  0  0  0  0  0
   -2.8115   10.8794   -0.9626 H   0  0  0  0  0  0  0  0  0  0  0  0
   -2.1332   10.4736   -3.2997 H   0  0  0  0  0  0  0  0  0  0  0  0
   -2.2587    9.0235   -4.9922 H   0  0  0  0  0  0  0  0  0  0  0  0
   -1.6958    7.3699   -4.6465 H   0  0  0  0  0  0  0  0  0  0  0  0
   -1.1785    8.1993   -6.1350 H   0  0  0  0  0  0  0  0  0  0  0  0
   -0.6000   11.0054   -4.8458 H   0  0  0  0  0  0  0  0  0  0  0  0
    0.4773   10.1831   -5.9933 H   0  0  0  0  0  0  0  0  0  0  0  0
    1.1000   10.7059   -4.4090 H   0  0  0  0  0  0  0  0  0  0  0  0
    0.9961    8.0940   -6.6171 H   0  0  0  0  0  0  0  0  0  0  0  0
    2.8876    6.5568   -6.9994 H   0  0  0  0  0  0  0  0  0  0  0  0
    4.0242    5.4955   -5.0247 H   0  0  0  0  0  0  0  0  0  0  0  0
    3.2430    5.9932   -2.7464 H   0  0  0  0  0  0  0  0  0  0  0  0
    3.3279    8.5666   -0.6992 H   0  0  0  0  0  0  0  0  0  0  0  0
    4.4989    7.4752    1.2036 H   0  0  0  0  0  0  0  0  0  0  0  0
    7.7464    1.3056    6.2412 H   0  0  0  0  0  0  0  0  0  0  0  0
    8.6917    0.1679    8.2385 H   0  0  0  0  0  0  0  0  0  0  0  0
    9.4229    2.8809    9.9374 H   0  0  0  0  0  0  0  0  0  0  0  0
   11.4548    3.8743   10.8975 H   0  0  0  0  0  0  0  0  0  0  0  0
   12.5316    2.8271   12.9128 H   0  0  0  0  0  0  0  0  0  0  0  0
   11.5263    0.8029   13.8997 H   0  0  0  0  0  0  0  0  0  0  0  0
   11.3247   -1.4143   13.6354 H   0  0  0  0  0  0  0  0  0  0  0  0
   10.6599   -1.9716   12.0805 H   0  0  0  0  0  0  0  0  0  0  0  0
   10.0410   -2.6413   13.6101 H   0  0  0  0  0  0  0  0  0  0  0  0
    9.8789    0.0586   15.1998 H   0  0  0  0  0  0  0  0  0  0  0  0
    8.5980   -1.1699   15.1704 H   0  0  0  0  0  0  0  0  0  0  0  0
    8.2269    0.5104   14.7122 H   0  0  0  0  0  0  0  0  0  0  0  0
    7.8088   -2.7485   13.8104 H   0  0  0  0  0  0  0  0  0  0  0  0
    5.7627   -3.6334   12.7534 H   0  0  0  0  0  0  0  0  0  0  0  0
    4.8124   -2.4582   10.7451 H   0  0  0  0  0  0  0  0  0  0  0  0
    5.9238   -0.4521    9.8578 H   0  0  0  0  0  0  0  0  0  0  0  0
    6.2977    2.6541   10.8038 H   0  0  0  0  0  0  0  0  0  0  0  0
    5.3212    3.7822    8.8172 H   0  0  0  0  0  0  0  0  0  0  0  0
    7.9667    5.0856    7.2828 H   0  0  0  0  0  0  0  0  0  0  0  0
    8.5652    6.9786    8.7045 H   0  0  0  0  0  0  0  0  0  0  0  0
    9.1984    9.1178    9.1780 H   0  0  0  0  0  0  0  0  0  0  0  0
    8.5648    8.2510   10.6024 H   0  0  0  0  0  0  0  0  0  0  0  0
    8.6291   10.0253   10.5935 H   0  0  0  0  0  0  0  0  0  0  0  0
    7.6115   10.4931    7.6952 H   0  0  0  0  0  0  0  0  0  0  0  0
    7.1449   11.3984    9.1595 H   0  0  0  0  0  0  0  0  0  0  0  0
    5.8963   10.6621    8.1301 H   0  0  0  0  0  0  0  0  0  0  0  0
    6.0639    8.3933   11.1868 H   0  0  0  0  0  0  0  0  0  0  0  0
    4.9687    9.4003   10.2122 H   0  0  0  0  0  0  0  0  0  0  0  0
    6.2310   10.1684   11.2009 H   0  0  0  0  0  0  0  0  0  0  0  0
    4.6725    8.7147    8.0193 H   0  0  0  0  0  0  0  0  0  0  0  0
    4.0765    6.8237    6.5953 H   0  0  0  0  0  0  0  0  0  0  0  0
    2.9983    1.3922    3.2685 H   0  0  0  0  0  0  0  0  0  0  0  0
    2.7148   -0.5593    1.8229 H   0  0  0  0  0  0  0  0  0  0  0  0
  2  1  1  6
  1 75  1  0
  1 76  1  0
  1 77  1  0
  2  3  1  0
  2  4  1  0
  2  5  1  0
  3 78  1  0
  3 79  1  0
  3 80  1  0
  4 81  1  0
  4 82  1  0
  4 83  1  0
  5  6  2  0
  5 74  1  0
  6  7  1  0
  6 84  1  0
  7  8  2  0
  7 85  1  0
  8  9  1  0
  8 73  1  0
  9 10  2  0
  9 37  1  0
 10 11  1  0
 33 10  1  6
 11 12  2  0
 11 32  1  0
 12 13  1  0
 12 86  1  0
 13 14  2  0
 13 87  1  0
 14 15  1  0
 14 31  1  0
 15 16  1  0
 15 30  1  0
 16 17  2  0
 16 21  1  0
 17 18  1  0
 17 88  1  0
 18 19  2  0
 18 89  1  0
 19 20  1  0
 19 90  1  0
 20 21  2  0
 20 91  1  0
 21 22  1  0
 22 23  1  6
 22 24  1  0
 22 25  1  0
 23 92  1  0
 23 93  1  0
 23 94  1  0
 24 95  1  0
 24 96  1  0
 24 97  1  0
 25 26  2  0
 25 30  1  0
 26 27  1  0
 26 98  1  0
 27 28  2  0
 27 99  1  0
 28 29  1  0
 28100  1  0
 29 30  2  0
 29101  1  0
 31 32  2  0
 31102  1  0
 32103  1  0
 33 34  2  0
 33 35  2  0
 33 36  1  0
 36 37  2  0
 36 62  1  0
 37 38  1  0
 38 39  1  0
 39 40  1  0
 39 62  2  0
 40 41  2  0
 40 61  1  0
 41 42  1  0
 41104  1  0
 42 43  2  0
 42105  1  0
 43 44  1  0
 43 60  1  0
 44 45  1  0
 44 59  1  0
 45 46  2  0
 45 50  1  0
 46 47  1  0
 46106  1  0
 47 48  2  0
 47107  1  0
 48 49  1  0
 48108  1  0
 49 50  2  0
 49109  1  0
 50 51  1  0
 51 52  1  1
 51 53  1  0
 51 54  1  0
 52110  1  0
 52111  1  0
 52112  1  0
 53113  1  0
 53114  1  0
 53115  1  0
 54 55  2  0
 54 59  1  0
 55 56  1  0
 55116  1  0
 56 57  2  0
 56117  1  0
 57 58  1  0
 57118  1  0
 58 59  2  0
 58119  1  0
 60 61  2  0
 60120  1  0
 61121  1  0
 62 63  1  0
 63 64  2  0
 63 72  1  0
 64 65  1  0
 64122  1  0
 65 66  2  0
 65123  1  0
 66 67  1  0
 66 71  1  0
 67 68  1  1
 67 69  1  0
 67 70  1  0
 68124  1  0
 68125  1  0
 68126  1  0
 69127  1  0
 69128  1  0
 69129  1  0
 70130  1  0
 70131  1  0
 70132  1  0
 71 72  2  0
 71133  1  0
 72134  1  0
 73 74  2  0
 73135  1  0
 74136  1  0
M  END

