
     RDKit          3D

 55 58  0  0  0  0  0  0  0  0999 V2000
    8.9731   -4.6561   -3.1069 C   0  0  0  0  0  0  0  0  0  0  0  0
    8.0760   -3.5729   -2.5560 C   0  0  0  0  0  0  0  0  0  0  0  0
    7.8403   -2.3887   -3.2703 C   0  0  0  0  0  0  0  0  0  0  0  0
    7.0197   -1.3892   -2.7399 C   0  0  0  0  0  0  0  0  0  0  0  0
    6.4229   -1.5575   -1.4891 C   0  0  0  0  0  0  0  0  0  0  0  0
    6.6472   -2.7311   -0.7526 C   0  0  0  0  0  0  0  0  0  0  0  0
    5.9689   -2.9361    0.5901 C   0  0  0  0  0  0  0  0  0  0  0  0
    4.6402   -3.6682    0.4378 C   0  0  0  0  0  0  0  0  0  0  0  0
    3.5708   -3.0761    0.4866 O   0  0  0  0  0  0  0  0  0  0  0  0
    4.7690   -5.0290    0.2062 N   0  0  0  0  0  0  0  0  0  0  0  0
    3.6990   -5.7462    0.0923 C   0  0  0  0  0  0  0  0  0  0  0  0
    2.0147   -5.1562    0.2350 S   0  0  0  0  0  0  0  0  0  0  0  0
    1.3810   -6.8878    0.1626 C   0  0  2  0  0  0  0  0  0  0  0  0
    0.4547   -6.9003   -0.4268 H   0  0  0  0  0  0  0  0  0  0  0  0
    1.1312   -7.4937    1.5408 C   0  0  0  0  0  0  0  0  0  0  0  0
    1.1009   -9.2890    1.2032 S   0  0  1  0  0  0  0  0  0  0  0  0
    1.5680  -10.0735    2.3497 O   0  0  0  0  0  0  0  0  0  0  0  0
   -0.1778   -9.5889    0.5420 O   0  0  0  0  0  0  0  0  0  0  0  0
    2.3919   -9.1947   -0.1085 C   0  0  0  0  0  0  0  0  0  0  0  0
    2.4793   -7.7222   -0.5478 C   0  0  2  0  0  0  0  0  0  0  0  0
    2.3442   -7.6469   -1.6416 H   0  0  0  0  0  0  0  0  0  0  0  0
    3.7522   -7.0907   -0.1658 N   0  0  0  0  0  0  0  0  0  0  0  0
    5.0006   -7.7327   -0.4686 C   0  0  0  0  0  0  0  0  0  0  0  0
    5.4206   -7.9015   -1.7927 C   0  0  0  0  0  0  0  0  0  0  0  0
    6.6200   -8.5436   -2.0890 C   0  0  0  0  0  0  0  0  0  0  0  0
    7.4609   -9.0385   -1.0577 C   0  0  0  0  0  0  0  0  0  0  0  0
    8.6485   -9.6798   -1.3430 N   0  0  0  0  0  0  0  0  0  0  0  0
    9.4967  -10.1505   -0.2661 C   0  0  0  0  0  0  0  0  0  0  0  0
    9.0785   -9.8343   -2.7181 C   0  0  0  0  0  0  0  0  0  0  0  0
    7.0265   -8.8455    0.2797 C   0  0  0  0  0  0  0  0  0  0  0  0
    5.8209   -8.2092    0.5595 C   0  0  0  0  0  0  0  0  0  0  0  0
    7.4676   -3.7264   -1.3006 C   0  0  0  0  0  0  0  0  0  0  0  0
    9.1650   -4.5156   -4.1815 H   0  0  0  0  0  0  0  0  0  0  0  0
    8.5279   -5.6542   -2.9651 H   0  0  0  0  0  0  0  0  0  0  0  0
    9.9514   -4.6636   -2.5949 H   0  0  0  0  0  0  0  0  0  0  0  0
    8.3030   -2.2480   -4.2516 H   0  0  0  0  0  0  0  0  0  0  0  0
    6.8430   -0.4720   -3.3080 H   0  0  0  0  0  0  0  0  0  0  0  0
    5.7766   -0.7764   -1.0798 H   0  0  0  0  0  0  0  0  0  0  0  0
    5.7590   -1.9686    1.0658 H   0  0  0  0  0  0  0  0  0  0  0  0
    6.6168   -3.5315    1.2512 H   0  0  0  0  0  0  0  0  0  0  0  0
    0.1678   -7.2217    1.9911 H   0  0  0  0  0  0  0  0  0  0  0  0
    1.9524   -7.3061    2.2472 H   0  0  0  0  0  0  0  0  0  0  0  0
    2.0475   -9.8648   -0.9062 H   0  0  0  0  0  0  0  0  0  0  0  0
    3.3289   -9.5723    0.3188 H   0  0  0  0  0  0  0  0  0  0  0  0
    4.8065   -7.5170   -2.6109 H   0  0  0  0  0  0  0  0  0  0  0  0
    6.9039   -8.6542   -3.1345 H   0  0  0  0  0  0  0  0  0  0  0  0
    9.8416   -9.3275    0.3875 H   0  0  0  0  0  0  0  0  0  0  0  0
   10.3852  -10.6365   -0.6884 H   0  0  0  0  0  0  0  0  0  0  0  0
    8.9826  -10.8908    0.3737 H   0  0  0  0  0  0  0  0  0  0  0  0
    8.3514  -10.4110   -3.3187 H   0  0  0  0  0  0  0  0  0  0  0  0
   10.0325  -10.3759   -2.7429 H   0  0  0  0  0  0  0  0  0  0  0  0
    9.2307   -8.8619   -3.2234 H   0  0  0  0  0  0  0  0  0  0  0  0
    7.6323   -9.1970    1.1134 H   0  0  0  0  0  0  0  0  0  0  0  0
    5.5114   -8.0716    1.5979 H   0  0  0  0  0  0  0  0  0  0  0  0
    7.6234   -4.6507   -0.7373 H   0  0  0  0  0  0  0  0  0  0  0  0
  1  2  1  0
  1 33  1  0
  1 34  1  0
  1 35  1  0
  2  3  2  0
  2 32  1  0
  3  4  1  0
  3 36  1  0
  4  5  2  0
  4 37  1  0
  5  6  1  0
  5 38  1  0
  6  7  1  0
  6 32  2  0
  7  8  1  0
  7 39  1  0
  7 40  1  0
  8  9  2  0
  8 10  1  0
 10 11  2  0
 11 12  1  0
 11 22  1  0
 12 13  1  0
 13 14  1  6
 13 15  1  0
 13 20  1  0
 16 15  1  1
 15 41  1  0
 15 42  1  0
 16 17  2  0
 16 18  2  0
 16 19  1  0
 19 20  1  0
 19 43  1  0
 19 44  1  0
 20 21  1  6
 20 22  1  0
 22 23  1  0
 23 24  2  0
 23 31  1  0
 24 25  1  0
 24 45  1  0
 25 26  2  0
 25 46  1  0
 26 27  1  0
 26 30  1  0
 27 28  1  0
 27 29  1  0
 28 47  1  0
 28 48  1  0
 28 49  1  0
 29 50  1  0
 29 51  1  0
 29 52  1  0
 30 31  2  0
 30 53  1  0
 31 54  1  0
 32 55  1  0
M  END

