
     RDKit          3D

 54 56  0  0  0  0  0  0  0  0999 V2000
   -0.2864   -6.4846   -4.6733 C   0  0  0  0  0  0  0  0  0  0  0  0
    0.4699   -5.9778   -5.7509 O   0  0  0  0  0  0  0  0  0  0  0  0
    1.6641   -5.3843   -5.5114 C   0  0  0  0  0  0  0  0  0  0  0  0
    2.3589   -4.9143   -6.6403 C   0  0  0  0  0  0  0  0  0  0  0  0
    3.5905   -4.2875   -6.4775 C   0  0  0  0  0  0  0  0  0  0  0  0
    4.1538   -4.1186   -5.2072 C   0  0  0  0  0  0  0  0  0  0  0  0
    3.4601   -4.5915   -4.0872 C   0  0  0  0  0  0  0  0  0  0  0  0
    4.2660   -4.3437   -2.4944 S   0  0  0  0  0  0  0  0  0  0  0  0
    3.1823   -5.0768   -1.3254 C   0  0  0  0  0  0  0  0  0  0  0  0
    3.1770   -6.3916   -0.9371 C   0  0  0  0  0  0  0  0  0  0  0  0
    4.0228   -7.5253   -1.4193 C   0  0  0  0  0  0  0  0  0  0  0  0
    3.2773   -8.4299   -2.2961 N   0  0  0  0  0  0  0  0  0  0  0  0
    4.0554   -9.5720   -2.7513 C   0  0  0  0  0  0  0  0  0  0  0  0
    3.2569  -10.5206   -3.6207 C   0  0  0  0  0  0  0  0  0  0  0  0
    3.8694  -11.2445   -4.6519 C   0  0  0  0  0  0  0  0  0  0  0  0
    3.1062  -12.1422   -5.4044 C   0  0  0  0  0  0  0  0  0  0  0  0
    1.8029  -12.3522   -5.2048 N   0  0  0  0  0  0  0  0  0  0  0  0
    1.2160  -11.6574   -4.2266 C   0  0  0  0  0  0  0  0  0  0  0  0
    1.8881  -10.7403   -3.4134 C   0  0  0  0  0  0  0  0  0  0  0  0
    2.1583   -6.5489   -0.0093 N   0  0  0  0  0  0  0  0  0  0  0  0
    1.7861   -7.7642    0.6842 C   0  0  0  0  0  0  0  0  0  0  0  0
    1.5212   -5.3297    0.2240 C   0  0  0  0  0  0  0  0  0  0  0  0
    0.6046   -5.1208    1.0020 O   0  0  0  0  0  0  0  0  0  0  0  0
    2.1583   -4.4177   -0.6139 N   0  0  0  0  0  0  0  0  0  0  0  0
    1.8290   -2.9862   -0.5305 C   0  0  1  0  0  0  0  0  0  0  0  0
    2.9899   -2.1644    0.0426 C   0  0  0  0  0  0  0  0  0  0  0  0
    1.2902   -2.4246   -1.8499 C   0  0  0  0  0  0  0  0  0  0  0  0
    2.2153   -5.2230   -4.2297 C   0  0  0  0  0  0  0  0  0  0  0  0
   -1.1958   -6.9203   -5.1078 H   0  0  0  0  0  0  0  0  0  0  0  0
   -0.5750   -5.6900   -3.9622 H   0  0  0  0  0  0  0  0  0  0  0  0
    0.2585   -7.2730   -4.1232 H   0  0  0  0  0  0  0  0  0  0  0  0
    1.9087   -5.0527   -7.6246 H   0  0  0  0  0  0  0  0  0  0  0  0
    4.1285   -3.9222   -7.3563 H   0  0  0  0  0  0  0  0  0  0  0  0
    5.1224   -3.6265   -5.0913 H   0  0  0  0  0  0  0  0  0  0  0  0
    4.3797   -8.1136   -0.5546 H   0  0  0  0  0  0  0  0  0  0  0  0
    4.9233   -7.0945   -1.9011 H   0  0  0  0  0  0  0  0  0  0  0  0
    2.9358   -7.9037   -3.1016 H   0  0  0  0  0  0  0  0  0  0  0  0
    4.3980  -10.1236   -1.8547 H   0  0  0  0  0  0  0  0  0  0  0  0
    4.9829   -9.2818   -3.2920 H   0  0  0  0  0  0  0  0  0  0  0  0
    4.9320  -11.1111   -4.8732 H   0  0  0  0  0  0  0  0  0  0  0  0
    3.5765  -12.7149   -6.2130 H   0  0  0  0  0  0  0  0  0  0  0  0
    0.1448  -11.8384   -4.0745 H   0  0  0  0  0  0  0  0  0  0  0  0
    1.3585  -10.1980   -2.6282 H   0  0  0  0  0  0  0  0  0  0  0  0
    1.6807   -8.5900   -0.0336 H   0  0  0  0  0  0  0  0  0  0  0  0
    0.8291   -7.5745    1.1881 H   0  0  0  0  0  0  0  0  0  0  0  0
    2.5335   -8.0418    1.4469 H   0  0  0  0  0  0  0  0  0  0  0  0
    1.0084   -2.9743    0.2028 H   0  0  0  0  0  0  0  0  0  0  0  0
    3.8518   -2.1483   -0.6413 H   0  0  0  0  0  0  0  0  0  0  0  0
    3.3187   -2.5726    1.0107 H   0  0  0  0  0  0  0  0  0  0  0  0
    2.6661   -1.1243    0.2060 H   0  0  0  0  0  0  0  0  0  0  0  0
    2.0586   -2.4074   -2.6364 H   0  0  0  0  0  0  0  0  0  0  0  0
    0.9397   -1.3918   -1.6955 H   0  0  0  0  0  0  0  0  0  0  0  0
    0.4373   -3.0197   -2.2101 H   0  0  0  0  0  0  0  0  0  0  0  0
    1.6821   -5.5645   -3.3436 H   0  0  0  0  0  0  0  0  0  0  0  0
  1  2  1  0
  1 29  1  0
  1 30  1  0
  1 31  1  0
  2  3  1  0
  3  4  2  0
  3 28  1  0
  4  5  1  0
  4 32  1  0
  5  6  2  0
  5 33  1  0
  6  7  1  0
  6 34  1  0
  7  8  1  0
  7 28  2  0
  8  9  1  0
  9 10  2  0
  9 24  1  0
 10 11  1  0
 10 20  1  0
 11 12  1  0
 11 35  1  0
 11 36  1  0
 12 13  1  0
 12 37  1  0
 13 14  1  0
 13 38  1  0
 13 39  1  0
 14 15  2  0
 14 19  1  0
 15 16  1  0
 15 40  1  0
 16 17  2  0
 16 41  1  0
 17 18  1  0
 18 19  2  0
 18 42  1  0
 19 43  1  0
 20 21  1  0
 20 22  1  0
 21 44  1  0
 21 45  1  0
 21 46  1  0
 22 23  2  0
 22 24  1  0
 24 25  1  0
 25 26  1  0
 25 27  1  0
 25 47  1  1
 26 48  1  0
 26 49  1  0
 26 50  1  0
 27 51  1  0
 27 52  1  0
 27 53  1  0
 28 54  1  0
M  END

