
     RDKit          3D

 52 52  0  0  0  0  0  0  0  0999 V2000
    8.8537   -0.7856    1.5204 C   0  0  0  0  0  0  0  0  0  0  0  0
    7.3409   -0.8466    1.3838 C   0  0  0  0  0  0  0  0  0  0  0  0
    6.9240   -1.9183    0.5222 O   0  0  0  0  0  0  0  0  0  0  0  0
    6.8935   -1.6733   -0.8054 C   0  0  0  0  0  0  0  0  0  0  0  0
    7.1957   -0.6046   -1.2902 O   0  0  0  0  0  0  0  0  0  0  0  0
    6.4460   -2.8548   -1.5922 C   0  0  0  0  0  0  0  0  0  0  0  0
    6.0979   -4.0793   -1.0011 C   0  0  0  0  0  0  0  0  0  0  0  0
    5.6818   -5.1633   -1.7714 C   0  0  0  0  0  0  0  0  0  0  0  0
    5.6055   -5.0355   -3.1724 C   0  0  0  0  0  0  0  0  0  0  0  0
    5.1943   -6.0652   -4.0276 N   0  0  0  0  0  0  0  0  0  0  0  0
    4.8338   -7.3614   -3.7303 C   0  0  0  0  0  0  0  0  0  0  0  0
    4.8405   -7.8167   -2.5826 O   0  0  0  0  0  0  0  0  0  0  0  0
    4.4302   -8.1862   -4.8910 C   0  0  0  0  0  0  0  0  0  0  0  0
    4.4358   -7.6348   -6.2026 C   0  0  0  0  0  0  0  0  0  0  0  0
    4.4614   -7.1297   -7.2528 N   0  0  0  0  0  0  0  0  0  0  0  0
    4.0420   -9.5127   -4.7208 C   0  0  0  0  0  0  0  0  0  0  0  0
    3.9870  -10.1646   -3.5666 N   0  0  0  0  0  0  0  0  0  0  0  0
    3.6171  -11.5536   -3.3863 C   0  0  0  0  0  0  0  0  0  0  0  0
    4.6860  -12.2950   -2.5666 C   0  0  0  0  0  0  0  0  0  0  0  0
    4.9423  -11.6266   -1.3001 N   0  0  0  0  0  0  0  0  0  0  0  0
    4.0348  -12.0034   -0.2164 C   0  0  0  0  0  0  0  0  0  0  0  0
    4.2954  -13.3611    0.4533 C   0  0  0  0  0  0  0  0  0  0  0  0
    6.3492  -11.4569   -0.9365 C   0  0  0  0  0  0  0  0  0  0  0  0
    6.5914  -10.3004    0.0313 C   0  0  0  0  0  0  0  0  0  0  0  0
    5.9546   -3.8048   -3.7684 C   0  0  0  0  0  0  0  0  0  0  0  0
    6.3679   -2.7329   -2.9894 C   0  0  0  0  0  0  0  0  0  0  0  0
    9.1333   -0.0077    2.2491 H   0  0  0  0  0  0  0  0  0  0  0  0
    9.3218   -0.5361    0.5569 H   0  0  0  0  0  0  0  0  0  0  0  0
    9.2568   -1.7481    1.8725 H   0  0  0  0  0  0  0  0  0  0  0  0
    6.9452    0.1020    0.9914 H   0  0  0  0  0  0  0  0  0  0  0  0
    6.8626   -1.0630    2.3505 H   0  0  0  0  0  0  0  0  0  0  0  0
    6.1543   -4.1814    0.0834 H   0  0  0  0  0  0  0  0  0  0  0  0
    5.4113   -6.1079   -1.3074 H   0  0  0  0  0  0  0  0  0  0  0  0
    5.1576   -5.8153   -5.0116 H   0  0  0  0  0  0  0  0  0  0  0  0
    3.7522  -10.0819   -5.6113 H   0  0  0  0  0  0  0  0  0  0  0  0
    4.2761   -9.6320   -2.7362 H   0  0  0  0  0  0  0  0  0  0  0  0
    3.4888  -12.0299   -4.3716 H   0  0  0  0  0  0  0  0  0  0  0  0
    2.6417  -11.6125   -2.8697 H   0  0  0  0  0  0  0  0  0  0  0  0
    5.6169  -12.3136   -3.1546 H   0  0  0  0  0  0  0  0  0  0  0  0
    4.3699  -13.3528   -2.4515 H   0  0  0  0  0  0  0  0  0  0  0  0
    3.0076  -11.9894   -0.6184 H   0  0  0  0  0  0  0  0  0  0  0  0
    4.0553  -11.2111    0.5495 H   0  0  0  0  0  0  0  0  0  0  0  0
    4.2708  -14.1919   -0.2707 H   0  0  0  0  0  0  0  0  0  0  0  0
    3.5240  -13.5629    1.2137 H   0  0  0  0  0  0  0  0  0  0  0  0
    5.2724  -13.3884    0.9610 H   0  0  0  0  0  0  0  0  0  0  0  0
    6.8995  -11.2469   -1.8672 H   0  0  0  0  0  0  0  0  0  0  0  0
    6.7956  -12.3884   -0.5228 H   0  0  0  0  0  0  0  0  0  0  0  0
    6.1906   -9.3626   -0.3844 H   0  0  0  0  0  0  0  0  0  0  0  0
    7.6723  -10.1731    0.2011 H   0  0  0  0  0  0  0  0  0  0  0  0
    6.1269  -10.4702    1.0155 H   0  0  0  0  0  0  0  0  0  0  0  0
    5.8983   -3.6971   -4.8556 H   0  0  0  0  0  0  0  0  0  0  0  0
    6.6381   -1.7800   -3.4482 H   0  0  0  0  0  0  0  0  0  0  0  0
  1  2  1  0
  1 27  1  0
  1 28  1  0
  1 29  1  0
  2  3  1  0
  2 30  1  0
  2 31  1  0
  3  4  1  0
  4  5  2  0
  4  6  1  0
  6  7  2  0
  6 26  1  0
  7  8  1  0
  7 32  1  0
  8  9  2  0
  8 33  1  0
  9 10  1  0
  9 25  1  0
 10 11  1  0
 10 34  1  0
 11 12  2  0
 11 13  1  0
 13 14  1  0
 13 16  2  0
 14 15  3  0
 16 17  1  0
 16 35  1  0
 17 18  1  0
 17 36  1  0
 18 19  1  0
 18 37  1  0
 18 38  1  0
 19 20  1  0
 19 39  1  0
 19 40  1  0
 20 21  1  0
 20 23  1  0
 21 22  1  0
 21 41  1  0
 21 42  1  0
 22 43  1  0
 22 44  1  0
 22 45  1  0
 23 24  1  0
 23 46  1  0
 23 47  1  0
 24 48  1  0
 24 49  1  0
 24 50  1  0
 25 26  2  0
 25 51  1  0
 26 52  1  0
M  END

