
     RDKit          3D

 30 31  0  0  0  0  0  0  0  0999 V2000
    4.6259   -2.2410    1.5254 C   0  0  0  0  0  0  0  0  0  0  0  0
    4.1170   -1.1060    0.6717 C   0  0  0  0  0  0  0  0  0  0  0  0
    4.8067    0.1152    0.6798 C   0  0  0  0  0  0  0  0  0  0  0  0
    4.3994    1.2190   -0.0728 C   0  0  0  0  0  0  0  0  0  0  0  0
    3.2602    1.0939   -0.8652 C   0  0  0  0  0  0  0  0  0  0  0  0
    2.6686    2.5775   -1.9171 Br  0  0  0  0  0  0  0  0  0  0  0  0
    2.5463   -0.1022   -0.9048 C   0  0  0  0  0  0  0  0  0  0  0  0
    2.9562   -1.2153   -0.1419 C   0  0  0  0  0  0  0  0  0  0  0  0
    2.1477   -2.4499   -0.2274 C   0  0  0  0  0  0  0  0  0  0  0  0
    2.6983   -3.6694   -0.1580 N   0  0  0  0  0  0  0  0  0  0  0  0
    1.7016   -4.5396   -0.3051 N   0  0  0  0  0  0  0  0  0  0  0  0
    1.9686   -5.9599   -0.2738 C   0  0  0  0  0  0  0  0  0  0  0  0
    0.4785   -3.9288   -0.4534 C   0  0  0  0  0  0  0  0  0  0  0  0
   -0.7975   -4.6854   -0.6287 C   0  0  0  0  0  0  0  0  0  0  0  0
    0.7307   -2.5611   -0.4124 C   0  0  0  0  0  0  0  0  0  0  0  0
   -0.1921   -1.5199   -0.5758 N   0  0  0  0  0  0  0  0  0  0  0  0
    5.4072   -1.8871    2.2146 H   0  0  0  0  0  0  0  0  0  0  0  0
    5.0400   -3.0529    0.9092 H   0  0  0  0  0  0  0  0  0  0  0  0
    3.8162   -2.6982    2.1145 H   0  0  0  0  0  0  0  0  0  0  0  0
    5.6975    0.2101    1.3072 H   0  0  0  0  0  0  0  0  0  0  0  0
    4.9569    2.1562   -0.0388 H   0  0  0  0  0  0  0  0  0  0  0  0
    1.6685   -0.1852   -1.5461 H   0  0  0  0  0  0  0  0  0  0  0  0
    3.0563   -6.0865   -0.2189 H   0  0  0  0  0  0  0  0  0  0  0  0
    1.5925   -6.4554   -1.1833 H   0  0  0  0  0  0  0  0  0  0  0  0
    1.5059   -6.4407    0.6049 H   0  0  0  0  0  0  0  0  0  0  0  0
   -0.9290   -5.4653    0.1402 H   0  0  0  0  0  0  0  0  0  0  0  0
   -0.8650   -5.1810   -1.6138 H   0  0  0  0  0  0  0  0  0  0  0  0
   -1.6613   -4.0081   -0.5523 H   0  0  0  0  0  0  0  0  0  0  0  0
   -1.1560   -1.8043   -0.4252 H   0  0  0  0  0  0  0  0  0  0  0  0
    0.0170   -0.7038   -0.0054 H   0  0  0  0  0  0  0  0  0  0  0  0
  1  2  1  0
  1 17  1  0
  1 18  1  0
  1 19  1  0
  2  3  2  0
  2  8  1  0
  3  4  1  0
  3 20  1  0
  4  5  2  0
  4 21  1  0
  5  6  1  0
  5  7  1  0
  7  8  2  0
  7 22  1  0
  8  9  1  0
  9 10  2  0
  9 15  1  0
 10 11  1  0
 11 12  1  0
 11 13  1  0
 12 23  1  0
 12 24  1  0
 12 25  1  0
 13 14  1  0
 13 15  2  0
 14 26  1  0
 14 27  1  0
 14 28  1  0
 15 16  1  0
 16 29  1  0
 16 30  1  0
M  END

