
     RDKit          3D

 42 45  0  0  0  0  0  0  0  0999 V2000
    2.1519   -0.5638   -1.6658 O   0  0  0  0  0  0  0  0  0  0  0  0
    2.9988   -0.3594   -0.8098 C   0  0  0  0  0  0  0  0  0  0  0  0
    3.4622    0.8909   -0.4943 N   0  0  0  0  0  0  0  0  0  0  0  0
    2.8984    2.0231   -1.2269 C   0  0  0  0  0  0  0  0  0  0  0  0
    3.7182    2.4501   -2.4328 C   0  0  0  0  0  0  0  0  0  0  0  0
    3.8311    1.6206   -3.5597 C   0  0  0  0  0  0  0  0  0  0  0  0
    4.6010    2.0530   -4.6418 C   0  0  0  0  0  0  0  0  0  0  0  0
    5.2444    3.2251   -4.6752 N   0  0  0  0  0  0  0  0  0  0  0  0
    5.1329    4.0157   -3.6071 C   0  0  0  0  0  0  0  0  0  0  0  0
    4.3890    3.6778   -2.4703 C   0  0  0  0  0  0  0  0  0  0  0  0
    4.6697    1.1401    0.2918 C   0  0  0  0  0  0  0  0  0  0  0  0
    4.9120    0.0355    1.2746 C   0  0  0  0  0  0  0  0  0  0  0  0
    4.3678   -1.1953    1.0520 C   0  0  0  0  0  0  0  0  0  0  0  0
    4.6386   -2.2580    1.8844 N   0  0  0  0  0  0  0  0  0  0  0  0
    5.0809   -2.0184    3.2589 C   0  0  0  0  0  0  0  0  0  0  0  0
    5.9780   -0.8052    3.3090 C   0  0  0  0  0  0  0  0  0  0  0  0
    5.8336    0.1693    2.3891 C   0  0  0  0  0  0  0  0  0  0  0  0
    3.5454   -1.4342   -0.0674 N   0  0  0  0  0  0  0  0  0  0  0  0
    3.2225   -2.7671   -0.4759 C   0  0  0  0  0  0  0  0  0  0  0  0
    4.2500   -3.6574   -0.8223 C   0  0  0  0  0  0  0  0  0  0  0  0
    3.9451   -4.9616   -1.2083 C   0  0  0  0  0  0  0  0  0  0  0  0
    2.6156   -5.3911   -1.2742 C   0  0  0  0  0  0  0  0  0  0  0  0
    2.2693   -7.0199   -1.7728 Cl  0  0  0  0  0  0  0  0  0  0  0  0
    1.5841   -4.4959   -0.9387 C   0  0  0  0  0  0  0  0  0  0  0  0
   -0.0835   -4.9866   -1.0037 Cl  0  0  0  0  0  0  0  0  0  0  0  0
    1.8903   -3.1939   -0.5358 C   0  0  0  0  0  0  0  0  0  0  0  0
    2.8052    2.8680   -0.5254 H   0  0  0  0  0  0  0  0  0  0  0  0
    1.8925    1.7288   -1.5532 H   0  0  0  0  0  0  0  0  0  0  0  0
    3.3160    0.6576   -3.5868 H   0  0  0  0  0  0  0  0  0  0  0  0
    4.6977    1.4185   -5.5310 H   0  0  0  0  0  0  0  0  0  0  0  0
    5.6636    4.9749   -3.6486 H   0  0  0  0  0  0  0  0  0  0  0  0
    4.3348    4.3717   -1.6264 H   0  0  0  0  0  0  0  0  0  0  0  0
    4.5275    2.0982    0.8243 H   0  0  0  0  0  0  0  0  0  0  0  0
    5.5392    1.2970   -0.3842 H   0  0  0  0  0  0  0  0  0  0  0  0
    4.0896   -3.0961    1.7368 H   0  0  0  0  0  0  0  0  0  0  0  0
    5.6124   -2.9184    3.6109 H   0  0  0  0  0  0  0  0  0  0  0  0
    4.2103   -1.8841    3.9461 H   0  0  0  0  0  0  0  0  0  0  0  0
    6.6877   -0.7159    4.1343 H   0  0  0  0  0  0  0  0  0  0  0  0
    6.4425    1.0772    2.4514 H   0  0  0  0  0  0  0  0  0  0  0  0
    5.2892   -3.3267   -0.7897 H   0  0  0  0  0  0  0  0  0  0  0  0
    4.7389   -5.6598   -1.4785 H   0  0  0  0  0  0  0  0  0  0  0  0
    1.0821   -2.5094   -0.2859 H   0  0  0  0  0  0  0  0  0  0  0  0
  1  2  2  0
  2  3  1  0
  2 18  1  0
  3  4  1  0
  3 11  1  0
  4  5  1  0
  4 27  1  0
  4 28  1  0
  5  6  2  0
  5 10  1  0
  6  7  1  0
  6 29  1  0
  7  8  2  0
  7 30  1  0
  8  9  1  0
  9 10  2  0
  9 31  1  0
 10 32  1  0
 11 12  1  0
 11 33  1  0
 11 34  1  0
 12 13  2  0
 12 17  1  0
 13 14  1  0
 13 18  1  0
 14 15  1  0
 14 35  1  0
 15 16  1  0
 15 36  1  0
 15 37  1  0
 16 17  2  0
 16 38  1  0
 17 39  1  0
 18 19  1  0
 19 20  2  0
 19 26  1  0
 20 21  1  0
 20 40  1  0
 21 22  2  0
 21 41  1  0
 22 23  1  0
 22 24  1  0
 24 25  1  0
 24 26  2  0
 26 42  1  0
M  END

