
     RDKit          3D

 44 46  0  0  0  0  0  0  0  0999 V2000
    2.2273    1.3592    0.3395 C   0  0  0  0  0  0  0  0  0  0  0  0
    2.3226   -0.0400    0.0777 O   0  0  0  0  0  0  0  0  0  0  0  0
    2.8910   -0.4809   -1.0468 C   0  0  0  0  0  0  0  0  0  0  0  0
    3.4256    0.3409   -2.0414 C   0  0  0  0  0  0  0  0  0  0  0  0
    4.0043   -0.1890   -3.1972 C   0  0  0  0  0  0  0  0  0  0  0  0
    4.0779   -1.6214   -3.3747 C   0  0  0  0  0  0  0  0  0  0  0  0
    3.5484   -2.4378   -2.3998 C   0  0  0  0  0  0  0  0  0  0  0  0
    2.9450   -1.9219   -1.2307 C   0  0  0  0  0  0  0  0  0  0  0  0
    2.4744   -2.8271   -0.3905 O   0  0  0  0  0  0  0  0  0  0  0  0
    1.8166   -2.5876    0.8574 C   0  0  0  0  0  0  0  0  0  0  0  0
    4.7391   -2.2044   -4.6082 C   0  0  2  0  0  0  0  0  0  0  0  0
    6.0923   -2.8530   -4.2669 C   0  0  0  0  0  0  0  0  0  0  0  0
    6.5283   -3.9196   -5.0736 C   0  0  0  0  0  0  0  0  0  0  0  0
    7.7691   -4.5185   -4.8508 C   0  0  0  0  0  0  0  0  0  0  0  0
    8.6030   -4.0631   -3.8244 C   0  0  0  0  0  0  0  0  0  0  0  0
    8.1865   -2.9979   -3.0230 C   0  0  0  0  0  0  0  0  0  0  0  0
    6.9400   -2.4013   -3.2425 C   0  0  0  0  0  0  0  0  0  0  0  0
    4.7506   -1.2282   -5.6866 N   0  0  0  0  0  0  0  0  0  0  0  0
    4.8731   -1.8319   -7.0375 C   0  0  0  0  0  0  0  0  0  0  0  0
    4.2964   -2.9456   -7.2161 O   0  0  0  0  0  0  0  0  0  0  0  0
    6.1140   -1.4915   -7.7995 C   0  0  1  0  0  0  0  0  0  0  0  0
    6.1748   -0.1643   -8.1806 F   0  0  0  0  0  0  0  0  0  0  0  0
    7.3023   -1.6560   -7.1026 F   0  0  0  0  0  0  0  0  0  0  0  0
    6.2259   -2.2064   -8.9221 F   0  0  0  0  0  0  0  0  0  0  0  0
    5.3724    0.0229   -5.3347 C   0  0  0  0  0  0  0  0  0  0  0  0
    4.4970    0.7220   -4.2870 C   0  0  0  0  0  0  0  0  0  0  0  0
    1.7328    1.4514    1.3134 H   0  0  0  0  0  0  0  0  0  0  0  0
    1.6233    1.8598   -0.4330 H   0  0  0  0  0  0  0  0  0  0  0  0
    3.2280    1.8159    0.3856 H   0  0  0  0  0  0  0  0  0  0  0  0
    3.3859    1.4237   -1.9271 H   0  0  0  0  0  0  0  0  0  0  0  0
    3.5857   -3.5235   -2.4995 H   0  0  0  0  0  0  0  0  0  0  0  0
    1.5731   -3.5838    1.2438 H   0  0  0  0  0  0  0  0  0  0  0  0
    0.9003   -2.0009    0.7081 H   0  0  0  0  0  0  0  0  0  0  0  0
    2.4817   -2.0594    1.5534 H   0  0  0  0  0  0  0  0  0  0  0  0
    4.0923   -3.0152   -4.9775 H   0  0  0  0  0  0  0  0  0  0  0  0
    5.8880   -4.2468   -5.8966 H   0  0  0  0  0  0  0  0  0  0  0  0
    8.0913   -5.3438   -5.4913 H   0  0  0  0  0  0  0  0  0  0  0  0
    9.5759   -4.5322   -3.6544 H   0  0  0  0  0  0  0  0  0  0  0  0
    8.8326   -2.6279   -2.2219 H   0  0  0  0  0  0  0  0  0  0  0  0
    6.6355   -1.5759   -2.5933 H   0  0  0  0  0  0  0  0  0  0  0  0
    5.4337    0.6601   -6.2245 H   0  0  0  0  0  0  0  0  0  0  0  0
    6.4148   -0.0784   -4.9601 H   0  0  0  0  0  0  0  0  0  0  0  0
    3.5850    1.0966   -4.7904 H   0  0  0  0  0  0  0  0  0  0  0  0
    4.9880    1.6039   -3.8401 H   0  0  0  0  0  0  0  0  0  0  0  0
  1  2  1  0
  1 27  1  0
  1 28  1  0
  1 29  1  0
  2  3  1  0
  3  4  2  0
  3  8  1  0
  4  5  1  0
  4 30  1  0
  5  6  2  0
  5 26  1  0
  6  7  1  0
  6 11  1  0
  7  8  2  0
  7 31  1  0
  8  9  1  0
  9 10  1  0
 10 32  1  0
 10 33  1  0
 10 34  1  0
 11 12  1  0
 11 18  1  0
 11 35  1  6
 12 13  2  0
 12 17  1  0
 13 14  1  0
 13 36  1  0
 14 15  2  0
 14 37  1  0
 15 16  1  0
 15 38  1  0
 16 17  2  0
 16 39  1  0
 17 40  1  0
 18 19  1  0
 18 25  1  0
 19 20  2  0
 19 21  1  0
 21 22  1  1
 21 23  1  0
 21 24  1  0
 25 26  1  0
 25 41  1  0
 25 42  1  0
 26 43  1  0
 26 44  1  0
M  END

