
     RDKit          3D

 34 34  0  0  0  0  0  0  0  0999 V2000
    3.4738   -5.7732    0.1388 C   0  0  0  0  0  0  0  0  0  0  0  0
    4.3493   -4.6796    0.2091 O   0  0  0  0  0  0  0  0  0  0  0  0
    3.7179   -3.4722    0.5331 C   0  0  0  0  0  0  0  0  0  0  0  0
    4.7433   -2.3886    0.5932 C   0  0  0  0  0  0  0  0  0  0  0  0
    6.0888   -2.3856    0.4245 C   0  0  0  0  0  0  0  0  0  0  0  0
    6.4525   -1.0071    0.6201 C   0  0  0  0  0  0  0  0  0  0  0  0
    7.7071   -0.3670    0.5626 C   0  0  0  0  0  0  0  0  0  0  0  0
    8.8366   -0.9879    0.2698 O   0  0  0  0  0  0  0  0  0  0  0  0
    7.8001    0.9622    0.7995 N   0  0  0  0  0  0  0  0  0  0  0  0
    8.9912    1.7658    0.5804 C   0  0  0  0  0  0  0  0  0  0  0  0
    9.0310    2.9761    1.5143 C   0  0  0  0  0  0  0  0  0  0  0  0
    9.1851    2.6184    2.9946 C   0  0  0  0  0  0  0  0  0  0  0  0
    9.1707    3.8410    3.9089 C   0  0  0  0  0  0  0  0  0  0  0  0
    9.4187    3.4976    5.3740 C   0  0  0  0  0  0  0  0  0  0  0  0
    9.6911    2.4022    5.7783 O   0  0  0  0  0  0  0  0  0  0  0  0
    9.3258    4.5414    6.2330 O   0  0  0  0  0  0  0  0  0  0  0  0
    5.3546   -0.2410    0.8948 N   0  0  0  0  0  0  0  0  0  0  0  0
    4.2847   -1.1427    0.8692 O   0  0  0  0  0  0  0  0  0  0  0  0
    4.0683   -6.6614   -0.1191 H   0  0  0  0  0  0  0  0  0  0  0  0
    2.6940   -5.6319   -0.6372 H   0  0  0  0  0  0  0  0  0  0  0  0
    2.9622   -5.9584    1.1052 H   0  0  0  0  0  0  0  0  0  0  0  0
    3.1913   -3.5376    1.5109 H   0  0  0  0  0  0  0  0  0  0  0  0
    2.9409   -3.2035   -0.2162 H   0  0  0  0  0  0  0  0  0  0  0  0
    6.7181   -3.2395    0.1954 H   0  0  0  0  0  0  0  0  0  0  0  0
    6.8900    1.4143    0.8752 H   0  0  0  0  0  0  0  0  0  0  0  0
    9.0466    2.1063   -0.4717 H   0  0  0  0  0  0  0  0  0  0  0  0
    9.8700    1.1226    0.7508 H   0  0  0  0  0  0  0  0  0  0  0  0
    8.1129    3.5743    1.3593 H   0  0  0  0  0  0  0  0  0  0  0  0
    9.8649    3.6233    1.1912 H   0  0  0  0  0  0  0  0  0  0  0  0
   10.1264    2.0670    3.1527 H   0  0  0  0  0  0  0  0  0  0  0  0
    8.3832    1.9285    3.3021 H   0  0  0  0  0  0  0  0  0  0  0  0
    8.2063    4.3770    3.8329 H   0  0  0  0  0  0  0  0  0  0  0  0
    9.9439    4.5705    3.6009 H   0  0  0  0  0  0  0  0  0  0  0  0
    9.0946    5.3537    5.7606 H   0  0  0  0  0  0  0  0  0  0  0  0
  1  2  1  0
  1 19  1  0
  1 20  1  0
  1 21  1  0
  2  3  1  0
  3  4  1  0
  3 22  1  0
  3 23  1  0
  4  5  2  0
  4 18  1  0
  5  6  1  0
  5 24  1  0
  6  7  1  0
  6 17  2  0
  7  8  2  0
  7  9  1  0
  9 10  1  0
  9 25  1  0
 10 11  1  0
 10 26  1  0
 10 27  1  0
 11 12  1  0
 11 28  1  0
 11 29  1  0
 12 13  1  0
 12 30  1  0
 12 31  1  0
 13 14  1  0
 13 32  1  0
 13 33  1  0
 14 15  2  0
 14 16  1  0
 16 34  1  0
 17 18  1  0
M  END

