
     RDKit          3D

 55 59  0  0  0  0  0  0  0  0999 V2000
    3.8411   -4.9648    2.4575 C   0  0  0  0  0  0  0  0  0  0  0  0
    4.6975   -4.3356    1.4148 C   0  0  0  0  0  0  0  0  0  0  0  0
    5.8947   -3.8702    1.8396 O   0  0  0  0  0  0  0  0  0  0  0  0
    6.5841   -3.3346    0.7887 N   0  0  0  0  0  0  0  0  0  0  0  0
    5.8256   -3.4455   -0.2841 C   0  0  0  0  0  0  0  0  0  0  0  0
    6.3611   -2.8751   -1.5456 C   0  0  0  0  0  0  0  0  0  0  0  0
    5.9029   -3.2589   -2.8173 C   0  0  0  0  0  0  0  0  0  0  0  0
    6.4713   -2.7042   -3.9693 C   0  0  0  0  0  0  0  0  0  0  0  0
    7.5003   -1.7656   -3.8774 C   0  0  0  0  0  0  0  0  0  0  0  0
    7.9623   -1.3764   -2.6141 C   0  0  0  0  0  0  0  0  0  0  0  0
    7.4000   -1.9224   -1.4625 C   0  0  0  0  0  0  0  0  0  0  0  0
    4.5619   -4.0978    0.0531 C   0  0  0  0  0  0  0  0  0  0  0  0
    3.3912   -4.3881   -0.7259 C   0  0  0  0  0  0  0  0  0  0  0  0
    3.2435   -4.5859   -2.0379 N   0  0  0  0  0  0  0  0  0  0  0  0
    1.9843   -4.8804   -2.3015 N   0  0  0  0  0  0  0  0  0  0  0  0
    1.2834   -4.7953   -1.1441 C   0  0  0  0  0  0  0  0  0  0  0  0
    0.1603   -5.7291   -0.9002 C   0  0  0  0  0  0  0  0  0  0  0  0
   -1.0325   -5.1412   -0.2401 N   0  0  0  0  0  0  0  0  0  0  0  0
   -1.2801   -3.7213   -0.1950 C   0  0  0  0  0  0  0  0  0  0  0  0
   -1.2377   -3.2508    1.2780 C   0  0  0  0  0  0  0  0  0  0  0  0
   -2.1597   -4.0945    2.1606 C   0  0  0  0  0  0  0  0  0  0  0  0
   -1.9088   -5.6180    2.0354 C   0  0  1  0  0  0  0  0  0  0  0  0
   -0.5555   -6.0517    2.6515 C   0  0  0  0  0  0  0  0  0  0  0  0
   -0.5933   -6.0478    4.1834 C   0  0  0  0  0  0  0  0  0  0  0  0
   -1.6464   -6.8446    4.6825 O   0  0  0  0  0  0  0  0  0  0  0  0
   -2.9118   -6.4037    4.2473 C   0  0  0  0  0  0  0  0  0  0  0  0
   -3.0260   -6.4379    2.7193 C   0  0  0  0  0  0  0  0  0  0  0  0
   -1.9412   -5.9689    0.5044 C   0  0  0  0  0  0  0  0  0  0  0  0
    2.1834   -4.6270   -0.0598 O   0  0  0  0  0  0  0  0  0  0  0  0
    4.4700   -5.5157    3.1740 H   0  0  0  0  0  0  0  0  0  0  0  0
    3.1260   -5.6570    1.9983 H   0  0  0  0  0  0  0  0  0  0  0  0
    3.2686   -4.2132    3.0319 H   0  0  0  0  0  0  0  0  0  0  0  0
    5.0859   -3.9769   -2.9017 H   0  0  0  0  0  0  0  0  0  0  0  0
    6.0993   -3.0151   -4.9495 H   0  0  0  0  0  0  0  0  0  0  0  0
    7.9396   -1.3352   -4.7816 H   0  0  0  0  0  0  0  0  0  0  0  0
    8.7647   -0.6387   -2.5264 H   0  0  0  0  0  0  0  0  0  0  0  0
    7.7579   -1.6201   -0.4776 H   0  0  0  0  0  0  0  0  0  0  0  0
    0.4214   -6.6221   -0.2994 H   0  0  0  0  0  0  0  0  0  0  0  0
   -0.1971   -6.0984   -1.8787 H   0  0  0  0  0  0  0  0  0  0  0  0
   -2.2887   -3.5442   -0.6089 H   0  0  0  0  0  0  0  0  0  0  0  0
   -0.5249   -3.2228   -0.8108 H   0  0  0  0  0  0  0  0  0  0  0  0
   -1.5361   -2.1922    1.2986 H   0  0  0  0  0  0  0  0  0  0  0  0
   -0.1943   -3.2946    1.6227 H   0  0  0  0  0  0  0  0  0  0  0  0
   -3.2113   -3.8903    1.8916 H   0  0  0  0  0  0  0  0  0  0  0  0
   -2.0472   -3.7790    3.2089 H   0  0  0  0  0  0  0  0  0  0  0  0
    0.2776   -5.4237    2.2984 H   0  0  0  0  0  0  0  0  0  0  0  0
   -0.3334   -7.0818    2.3251 H   0  0  0  0  0  0  0  0  0  0  0  0
   -0.6788   -5.0112    4.5707 H   0  0  0  0  0  0  0  0  0  0  0  0
    0.3406   -6.4675    4.5839 H   0  0  0  0  0  0  0  0  0  0  0  0
   -3.1197   -5.3825    4.6293 H   0  0  0  0  0  0  0  0  0  0  0  0
   -3.6569   -7.0771    4.6965 H   0  0  0  0  0  0  0  0  0  0  0  0
   -4.0204   -6.0730    2.4090 H   0  0  0  0  0  0  0  0  0  0  0  0
   -2.9496   -7.4905    2.3970 H   0  0  0  0  0  0  0  0  0  0  0  0
   -2.9652   -5.7860    0.1350 H   0  0  0  0  0  0  0  0  0  0  0  0
   -1.6877   -7.0247    0.3429 H   0  0  0  0  0  0  0  0  0  0  0  0
  1  2  1  0
  1 30  1  0
  1 31  1  0
  1 32  1  0
  2  3  1  0
  2 12  2  0
  3  4  1  0
  4  5  2  0
  5  6  1  0
  5 12  1  0
  6  7  2  0
  6 11  1  0
  7  8  1  0
  7 33  1  0
  8  9  2  0
  8 34  1  0
  9 10  1  0
  9 35  1  0
 10 11  2  0
 10 36  1  0
 11 37  1  0
 12 13  1  0
 13 14  2  0
 13 29  1  0
 14 15  1  0
 15 16  2  0
 16 17  1  0
 16 29  1  0
 17 18  1  0
 17 38  1  0
 17 39  1  0
 18 19  1  0
 18 28  1  0
 19 20  1  0
 19 40  1  0
 19 41  1  0
 20 21  1  0
 20 42  1  0
 20 43  1  0
 22 21  1  1
 21 44  1  0
 21 45  1  0
 22 23  1  0
 22 27  1  0
 22 28  1  0
 23 24  1  0
 23 46  1  0
 23 47  1  0
 24 25  1  0
 24 48  1  0
 24 49  1  0
 25 26  1  0
 26 27  1  0
 26 50  1  0
 26 51  1  0
 27 52  1  0
 27 53  1  0
 28 54  1  0
 28 55  1  0
M  END

