
     RDKit          3D

 39 39  0  0  0  0  0  0  0  0999 V2000
    1.2125   -0.1148   -2.5922 C   0  0  0  0  0  0  0  0  0  0  0  0
    2.7054   -0.1395   -2.2887 C   0  0  0  0  0  0  0  0  0  0  0  0
    3.0914   -1.4260   -1.7283 N   0  0  0  0  0  0  0  0  0  0  0  0
    4.3531   -1.6631   -1.2381 C   0  0  0  0  0  0  0  0  0  0  0  0
    5.1671   -0.5989   -1.1556 N   0  0  0  0  0  0  0  0  0  0  0  0
    6.4092   -0.7421   -0.7064 C   0  0  0  0  0  0  0  0  0  0  0  0
    6.9378   -1.9811   -0.3374 C   0  0  0  0  0  0  0  0  0  0  0  0
    8.7422   -2.1231    0.2528 Br  0  0  0  0  0  0  0  0  0  0  0  0
    6.1101   -3.1003   -0.4099 C   0  0  0  0  0  0  0  0  0  0  0  0
    4.7848   -2.9653   -0.8293 C   0  0  0  0  0  0  0  0  0  0  0  0
    3.9662   -4.2336   -0.8317 C   0  0  0  0  0  0  0  0  0  0  0  0
    4.5119   -5.3255   -0.9128 O   0  0  0  0  0  0  0  0  0  0  0  0
    2.6049   -4.0779   -0.7246 N   0  0  0  0  0  0  0  0  0  0  0  0
    1.6551   -5.1911   -0.5168 C   0  0  1  0  0  0  0  0  0  0  0  0
    1.7155   -6.1902   -1.6821 C   0  0  0  0  0  0  0  0  0  0  0  0
    1.9205   -5.8929    0.8285 C   0  0  0  0  0  0  0  0  0  0  0  0
    0.2609   -4.5406   -0.5090 C   0  0  0  0  0  0  0  0  0  0  0  0
    0.2374   -3.4889    0.4279 O   0  0  0  0  0  0  0  0  0  0  0  0
   -0.9990   -2.8291    0.5307 C   0  0  0  0  0  0  0  0  0  0  0  0
    0.9194    0.8631   -3.0030 H   0  0  0  0  0  0  0  0  0  0  0  0
    0.6190   -0.2975   -1.6819 H   0  0  0  0  0  0  0  0  0  0  0  0
    0.9382   -0.8805   -3.3383 H   0  0  0  0  0  0  0  0  0  0  0  0
    2.9718    0.6454   -1.5658 H   0  0  0  0  0  0  0  0  0  0  0  0
    3.2892    0.0864   -3.2022 H   0  0  0  0  0  0  0  0  0  0  0  0
    2.5900   -2.2386   -2.0701 H   0  0  0  0  0  0  0  0  0  0  0  0
    7.0240    0.1627   -0.6432 H   0  0  0  0  0  0  0  0  0  0  0  0
    6.4633   -4.0966   -0.1390 H   0  0  0  0  0  0  0  0  0  0  0  0
    2.2786   -3.1985   -0.3268 H   0  0  0  0  0  0  0  0  0  0  0  0
    2.6946   -6.6832   -1.7117 H   0  0  0  0  0  0  0  0  0  0  0  0
    1.5559   -5.6789   -2.6447 H   0  0  0  0  0  0  0  0  0  0  0  0
    0.9334   -6.9570   -1.5630 H   0  0  0  0  0  0  0  0  0  0  0  0
    2.9427   -6.2944    0.8487 H   0  0  0  0  0  0  0  0  0  0  0  0
    1.2150   -6.7269    0.9720 H   0  0  0  0  0  0  0  0  0  0  0  0
    1.7923   -5.1854    1.6609 H   0  0  0  0  0  0  0  0  0  0  0  0
   -0.4962   -5.3099   -0.2577 H   0  0  0  0  0  0  0  0  0  0  0  0
    0.0204   -4.1560   -1.5223 H   0  0  0  0  0  0  0  0  0  0  0  0
   -0.8943   -2.0346    1.2835 H   0  0  0  0  0  0  0  0  0  0  0  0
   -1.8054   -3.5175    0.8517 H   0  0  0  0  0  0  0  0  0  0  0  0
   -1.3037   -2.3699   -0.4311 H   0  0  0  0  0  0  0  0  0  0  0  0
  1  2  1  0
  1 20  1  0
  1 21  1  0
  1 22  1  0
  2  3  1  0
  2 23  1  0
  2 24  1  0
  3  4  1  0
  3 25  1  0
  4  5  2  0
  4 10  1  0
  5  6  1  0
  6  7  2  0
  6 26  1  0
  7  8  1  0
  7  9  1  0
  9 10  2  0
  9 27  1  0
 10 11  1  0
 11 12  2  0
 11 13  1  0
 14 13  1  6
 13 28  1  0
 14 15  1  0
 14 16  1  0
 14 17  1  0
 15 29  1  0
 15 30  1  0
 15 31  1  0
 16 32  1  0
 16 33  1  0
 16 34  1  0
 17 18  1  0
 17 35  1  0
 17 36  1  0
 18 19  1  0
 19 37  1  0
 19 38  1  0
 19 39  1  0
M  END

