
     RDKit          3D

 90 93  0  0  0  0  0  0  0  0999 V2000
    5.7946    0.5199   -1.8590 C   0  0  0  0  0  0  0  0  0  0  0  0
    5.5302    0.9000   -0.3850 C   0  0  1  0  0  0  0  0  0  0  0  0
    4.2159    0.2227    0.0532 C   0  0  0  0  0  0  0  0  0  0  0  0
    6.6824    0.3114    0.4563 C   0  0  0  0  0  0  0  0  0  0  0  0
    5.5357    2.4731   -0.2700 C   0  0  1  0  0  0  0  0  0  0  0  0
    4.3846    3.2148   -0.9961 C   0  0  0  0  0  0  0  0  0  0  0  0
    3.0849    3.3865   -0.1822 C   0  0  0  0  0  0  0  0  0  0  0  0
    3.3357    3.9419    1.2007 C   0  0  0  0  0  0  0  0  0  0  0  0
    2.6415    4.9997    1.6602 C   0  0  0  0  0  0  0  0  0  0  0  0
    2.7670    5.6452    3.3077 S   0  0  0  0  0  0  0  0  0  0  0  0
    2.3980    7.3460    3.0457 C   0  0  0  0  0  0  0  0  0  0  0  0
    2.0428    8.1782    4.0470 C   0  0  0  0  0  0  0  0  0  0  0  0
    1.7878    9.6179    3.9474 C   0  0  0  0  0  0  0  0  0  0  0  0
    1.3596   10.3191    5.0930 C   0  0  0  0  0  0  0  0  0  0  0  0
    1.0917   11.6852    5.0564 C   0  0  0  0  0  0  0  0  0  0  0  0
    1.2363   12.4273    3.8688 C   0  0  0  0  0  0  0  0  0  0  0  0
    0.9502   13.8814    3.8245 C   0  0  0  0  0  0  0  0  0  0  0  0
    1.1986   14.7134    4.9366 C   0  0  0  0  0  0  0  0  0  0  0  0
    0.9261   16.0764    4.9029 C   0  0  0  0  0  0  0  0  0  0  0  0
    0.3924   16.6902    3.7497 C   0  0  0  0  0  0  0  0  0  0  0  0
    0.0947   18.1231    3.6517 C   0  0  0  0  0  0  0  0  0  0  0  0
    0.4189   19.0704    4.5573 C   0  0  0  0  0  0  0  0  0  0  0  0
    0.0486   20.7873    4.5222 S   0  0  0  0  0  0  0  0  0  0  0  0
   -1.2207   20.9099    3.2937 C   0  0  0  0  0  0  0  0  0  0  0  0
   -1.3407   21.9220    2.4128 C   0  0  0  0  0  0  0  0  0  0  0  0
   -0.3389   23.0354    2.2389 C   0  0  0  0  0  0  0  0  0  0  0  0
    0.0286   23.2775    0.7582 C   0  0  0  0  0  0  0  0  0  0  0  0
   -1.1615   23.3950   -0.2263 C   0  0  2  0  0  0  0  0  0  0  0  0
   -1.7878   24.8348   -0.3821 C   0  0  1  0  0  0  0  0  0  0  0  0
   -0.7536   25.7333   -1.0969 C   0  0  0  0  0  0  0  0  0  0  0  0
   -3.0414   24.7709   -1.2789 C   0  0  0  0  0  0  0  0  0  0  0  0
   -2.1743   25.5214    0.9442 C   0  0  0  0  0  0  0  0  0  0  0  0
   -2.1304   22.2157    0.0356 C   0  0  0  0  0  0  0  0  0  0  0  0
   -2.5449   22.0160    1.5043 C   0  0  0  0  0  0  0  0  0  0  0  0
    0.1382   15.8566    2.6415 C   0  0  0  0  0  0  0  0  0  0  0  0
    0.4117   14.4912    2.6755 C   0  0  0  0  0  0  0  0  0  0  0  0
    1.6685   11.7274    2.7222 C   0  0  0  0  0  0  0  0  0  0  0  0
    1.9407   10.3644    2.7594 C   0  0  0  0  0  0  0  0  0  0  0  0
    4.4089    3.2193    1.9752 C   0  0  0  0  0  0  0  0  0  0  0  0
    5.6996    3.0844    1.1434 C   0  0  0  0  0  0  0  0  0  0  0  0
    5.8247   -0.5754   -1.9769 H   0  0  0  0  0  0  0  0  0  0  0  0
    6.7610    0.9198   -2.2080 H   0  0  0  0  0  0  0  0  0  0  0  0
    5.0119    0.8984   -2.5343 H   0  0  0  0  0  0  0  0  0  0  0  0
    4.3164   -0.8731   -0.0189 H   0  0  0  0  0  0  0  0  0  0  0  0
    3.3691    0.5099   -0.5881 H   0  0  0  0  0  0  0  0  0  0  0  0
    3.9502    0.4553    1.0951 H   0  0  0  0  0  0  0  0  0  0  0  0
    6.8053   -0.7619    0.2377 H   0  0  0  0  0  0  0  0  0  0  0  0
    6.4998    0.4029    1.5379 H   0  0  0  0  0  0  0  0  0  0  0  0
    7.6414    0.8076    0.2322 H   0  0  0  0  0  0  0  0  0  0  0  0
    6.4582    2.7551   -0.8081 H   0  0  0  0  0  0  0  0  0  0  0  0
    4.1504    2.7330   -1.9583 H   0  0  0  0  0  0  0  0  0  0  0  0
    4.7519    4.2250   -1.2484 H   0  0  0  0  0  0  0  0  0  0  0  0
    2.5784    2.4115   -0.0780 H   0  0  0  0  0  0  0  0  0  0  0  0
    2.3866    4.0361   -0.7346 H   0  0  0  0  0  0  0  0  0  0  0  0
    1.8812    5.4789    1.0340 H   0  0  0  0  0  0  0  0  0  0  0  0
    2.5171    7.6962    2.0160 H   0  0  0  0  0  0  0  0  0  0  0  0
    1.9269    7.7546    5.0513 H   0  0  0  0  0  0  0  0  0  0  0  0
    1.2245    9.7721    6.0304 H   0  0  0  0  0  0  0  0  0  0  0  0
    0.7371   12.1805    5.9631 H   0  0  0  0  0  0  0  0  0  0  0  0
    1.6338   14.2842    5.8420 H   0  0  0  0  0  0  0  0  0  0  0  0
    1.1311   16.6743    5.7939 H   0  0  0  0  0  0  0  0  0  0  0  0
   -0.4276   18.4298    2.7399 H   0  0  0  0  0  0  0  0  0  0  0  0
    0.9857   18.8215    5.4601 H   0  0  0  0  0  0  0  0  0  0  0  0
   -1.9934   20.1353    3.3583 H   0  0  0  0  0  0  0  0  0  0  0  0
    0.5754   22.8165    2.8117 H   0  0  0  0  0  0  0  0  0  0  0  0
   -0.7638   23.9543    2.6772 H   0  0  0  0  0  0  0  0  0  0  0  0
    0.6450   22.4227    0.4294 H   0  0  0  0  0  0  0  0  0  0  0  0
    0.6844   24.1596    0.6908 H   0  0  0  0  0  0  0  0  0  0  0  0
   -0.7425   23.1977   -1.2289 H   0  0  0  0  0  0  0  0  0  0  0  0
   -0.5002   25.3360   -2.0936 H   0  0  0  0  0  0  0  0  0  0  0  0
    0.1829   25.8257   -0.5254 H   0  0  0  0  0  0  0  0  0  0  0  0
   -1.1532   26.7511   -1.2352 H   0  0  0  0  0  0  0  0  0  0  0  0
   -2.8389   24.2340   -2.2206 H   0  0  0  0  0  0  0  0  0  0  0  0
   -3.3736   25.7882   -1.5423 H   0  0  0  0  0  0  0  0  0  0  0  0
   -3.8877   24.2731   -0.7809 H   0  0  0  0  0  0  0  0  0  0  0  0
   -1.2979   25.7061    1.5835 H   0  0  0  0  0  0  0  0  0  0  0  0
   -2.9044   24.9380    1.5246 H   0  0  0  0  0  0  0  0  0  0  0  0
   -2.6339   26.5021    0.7368 H   0  0  0  0  0  0  0  0  0  0  0  0
   -1.6120   21.2954   -0.2873 H   0  0  0  0  0  0  0  0  0  0  0  0
   -3.0266   22.2894   -0.5972 H   0  0  0  0  0  0  0  0  0  0  0  0
   -3.1680   21.1123    1.6004 H   0  0  0  0  0  0  0  0  0  0  0  0
   -3.1761   22.8615    1.8336 H   0  0  0  0  0  0  0  0  0  0  0  0
   -0.2890   16.2942    1.7347 H   0  0  0  0  0  0  0  0  0  0  0  0
    0.1764   13.8808    1.8006 H   0  0  0  0  0  0  0  0  0  0  0  0
    1.8240   12.2721    1.7881 H   0  0  0  0  0  0  0  0  0  0  0  0
    2.2933    9.8751    1.8485 H   0  0  0  0  0  0  0  0  0  0  0  0
    4.0352    2.2212    2.2673 H   0  0  0  0  0  0  0  0  0  0  0  0
    4.6313    3.7515    2.9131 H   0  0  0  0  0  0  0  0  0  0  0  0
    6.4579    2.5401    1.7244 H   0  0  0  0  0  0  0  0  0  0  0  0
    6.1039    4.1030    1.0081 H   0  0  0  0  0  0  0  0  0  0  0  0
  2  1  1  6
  1 41  1  0
  1 42  1  0
  1 43  1  0
  2  3  1  0
  2  4  1  0
  2  5  1  0
  3 44  1  0
  3 45  1  0
  3 46  1  0
  4 47  1  0
  4 48  1  0
  4 49  1  0
  5  6  1  0
  5 40  1  0
  5 50  1  6
  6  7  1  0
  6 51  1  0
  6 52  1  0
  7  8  1  0
  7 53  1  0
  7 54  1  0
  8  9  2  0
  8 39  1  0
  9 10  1  0
  9 55  1  0
 10 11  1  0
 11 12  2  0
 11 56  1  0
 12 13  1  0
 12 57  1  0
 13 14  2  0
 13 38  1  0
 14 15  1  0
 14 58  1  0
 15 16  2  0
 15 59  1  0
 16 17  1  0
 16 37  1  0
 17 18  2  0
 17 36  1  0
 18 19  1  0
 18 60  1  0
 19 20  2  0
 19 61  1  0
 20 21  1  0
 20 35  1  0
 21 22  2  0
 21 62  1  0
 22 23  1  0
 22 63  1  0
 23 24  1  0
 24 25  2  0
 24 64  1  0
 25 26  1  0
 25 34  1  0
 26 27  1  0
 26 65  1  0
 26 66  1  0
 27 28  1  0
 27 67  1  0
 27 68  1  0
 28 29  1  0
 28 33  1  0
 28 69  1  6
 29 30  1  6
 29 31  1  0
 29 32  1  0
 30 70  1  0
 30 71  1  0
 30 72  1  0
 31 73  1  0
 31 74  1  0
 31 75  1  0
 32 76  1  0
 32 77  1  0
 32 78  1  0
 33 34  1  0
 33 79  1  0
 33 80  1  0
 34 81  1  0
 34 82  1  0
 35 36  2  0
 35 83  1  0
 36 84  1  0
 37 38  2  0
 37 85  1  0
 38 86  1  0
 39 40  1  0
 39 87  1  0
 39 88  1  0
 40 89  1  0
 40 90  1  0
M  END

