
     RDKit          3D

 33 33  0  0  0  0  0  0  0  0999 V2000
    2.5593   -2.5910    1.2457 C   0  0  0  0  0  0  0  0  0  0  0  0
    3.4839   -1.5047    1.3744 O   0  0  0  0  0  0  0  0  0  0  0  0
    4.6479   -1.7770    1.9693 C   0  0  0  0  0  0  0  0  0  0  0  0
    4.9936   -2.8628    2.3535 O   0  0  0  0  0  0  0  0  0  0  0  0
    5.5016   -0.5243    2.0941 C   0  0  0  0  0  0  0  0  0  0  0  0
    4.6268    0.7871    3.0191 S   0  0  1  0  0  0  0  0  0  0  0  0
    3.8440    1.5971    2.0964 O   0  0  0  0  0  0  0  0  0  0  0  0
    4.0481    0.1544    4.2008 O   0  0  0  0  0  0  0  0  0  0  0  0
    5.8736    1.8196    3.5029 N   0  0  0  0  0  0  0  0  0  0  0  0
    6.9057    1.5854    4.4202 C   0  0  0  0  0  0  0  0  0  0  0  0
    8.0247    2.4417    4.4068 C   0  0  0  0  0  0  0  0  0  0  0  0
    9.0618    2.2466    5.3084 C   0  0  0  0  0  0  0  0  0  0  0  0
    9.0599    1.1995    6.2563 C   0  0  0  0  0  0  0  0  0  0  0  0
   10.1936    1.0569    7.1612 C   0  0  0  0  0  0  0  0  0  0  0  0
   10.4127    0.1530    8.1397 C   0  0  0  0  0  0  0  0  0  0  0  0
   11.6749    0.2286    8.9273 C   0  0  0  0  0  0  0  0  0  0  0  0
   12.5420    1.0479    8.7559 O   0  0  0  0  0  0  0  0  0  0  0  0
   11.8101   -0.7131    9.8931 O   0  0  0  0  0  0  0  0  0  0  0  0
    7.9228    0.3681    6.2329 C   0  0  0  0  0  0  0  0  0  0  0  0
    7.8320   -0.6461    7.1058 F   0  0  0  0  0  0  0  0  0  0  0  0
    6.8606    0.5368    5.3553 C   0  0  0  0  0  0  0  0  0  0  0  0
    1.6741   -2.1765    0.7496 H   0  0  0  0  0  0  0  0  0  0  0  0
    2.2943   -2.9878    2.2366 H   0  0  0  0  0  0  0  0  0  0  0  0
    2.9963   -3.4008    0.6430 H   0  0  0  0  0  0  0  0  0  0  0  0
    5.7360   -0.0948    1.1099 H   0  0  0  0  0  0  0  0  0  0  0  0
    6.4167   -0.7739    2.6456 H   0  0  0  0  0  0  0  0  0  0  0  0
    5.9410    2.6330    2.8978 H   0  0  0  0  0  0  0  0  0  0  0  0
    8.0737    3.2610    3.6856 H   0  0  0  0  0  0  0  0  0  0  0  0
    9.9208    2.9217    5.2855 H   0  0  0  0  0  0  0  0  0  0  0  0
   10.9911    1.7970    7.0260 H   0  0  0  0  0  0  0  0  0  0  0  0
    9.6879   -0.6306    8.3672 H   0  0  0  0  0  0  0  0  0  0  0  0
   11.0363   -1.2934    9.9090 H   0  0  0  0  0  0  0  0  0  0  0  0
    6.0014   -0.1280    5.4306 H   0  0  0  0  0  0  0  0  0  0  0  0
  1  2  1  0
  1 22  1  0
  1 23  1  0
  1 24  1  0
  2  3  1  0
  3  4  2  0
  3  5  1  0
  5  6  1  0
  5 25  1  0
  5 26  1  0
  6  7  2  0
  6  8  2  0
  6  9  1  1
  9 10  1  0
  9 27  1  0
 10 11  2  0
 10 21  1  0
 11 12  1  0
 11 28  1  0
 12 13  2  0
 12 29  1  0
 13 14  1  0
 13 19  1  0
 14 15  2  0
 14 30  1  0
 15 16  1  0
 15 31  1  0
 16 17  2  0
 16 18  1  0
 18 32  1  0
 19 20  1  0
 19 21  2  0
 21 33  1  0
M  END

