
     RDKit          3D

 32 33  0  0  0  0  0  0  0  0999 V2000
    4.2891    0.2271    1.2639 C   0  0  0  0  0  0  0  0  0  0  0  0
    3.3637    0.4049    0.2159 O   0  0  0  0  0  0  0  0  0  0  0  0
    3.7920    0.2805   -1.0621 C   0  0  0  0  0  0  0  0  0  0  0  0
    5.0999   -0.0177   -1.4659 C   0  0  0  0  0  0  0  0  0  0  0  0
    5.4210   -0.1168   -2.8259 C   0  0  0  0  0  0  0  0  0  0  0  0
    4.4582    0.0738   -3.8238 C   0  0  0  0  0  0  0  0  0  0  0  0
    4.8124   -0.0702   -5.2885 C   0  0  0  0  0  0  0  0  0  0  0  0
    4.8086   -1.5221   -5.7913 C   0  0  1  0  0  0  0  0  0  0  0  0
    3.4305   -2.2188   -5.8159 C   0  0  0  0  0  0  0  0  0  0  0  0
    3.5654   -3.3970   -6.8197 C   0  0  0  0  0  0  0  0  0  0  0  0
    4.8975   -3.1572   -7.5805 C   0  0  0  0  0  0  0  0  0  0  0  0
    5.2622   -1.7098   -7.2443 C   0  0  2  0  0  0  0  0  0  0  0  0
    7.1766   -1.3128   -7.5430 Br  0  0  0  0  0  0  0  0  0  0  0  0
    3.1464    0.3761   -3.4162 C   0  0  0  0  0  0  0  0  0  0  0  0
    2.8276    0.4765   -2.0707 C   0  0  0  0  0  0  0  0  0  0  0  0
    1.5725    0.7703   -1.7060 F   0  0  0  0  0  0  0  0  0  0  0  0
    3.7325    0.3702    2.1996 H   0  0  0  0  0  0  0  0  0  0  0  0
    5.1094    0.9666    1.2186 H   0  0  0  0  0  0  0  0  0  0  0  0
    4.7263   -0.7880    1.2592 H   0  0  0  0  0  0  0  0  0  0  0  0
    5.8816   -0.1695   -0.7212 H   0  0  0  0  0  0  0  0  0  0  0  0
    6.4529   -0.3430   -3.1083 H   0  0  0  0  0  0  0  0  0  0  0  0
    5.8158    0.3501   -5.4648 H   0  0  0  0  0  0  0  0  0  0  0  0
    4.1104    0.5216   -5.9016 H   0  0  0  0  0  0  0  0  0  0  0  0
    5.4915   -2.1139   -5.1549 H   0  0  0  0  0  0  0  0  0  0  0  0
    2.6698   -1.5017   -6.1694 H   0  0  0  0  0  0  0  0  0  0  0  0
    3.1162   -2.5417   -4.8128 H   0  0  0  0  0  0  0  0  0  0  0  0
    2.7073   -3.4254   -7.5083 H   0  0  0  0  0  0  0  0  0  0  0  0
    3.5843   -4.3690   -6.3042 H   0  0  0  0  0  0  0  0  0  0  0  0
    4.8260   -3.3301   -8.6642 H   0  0  0  0  0  0  0  0  0  0  0  0
    5.6878   -3.8204   -7.1966 H   0  0  0  0  0  0  0  0  0  0  0  0
    4.7401   -0.9990   -7.9022 H   0  0  0  0  0  0  0  0  0  0  0  0
    2.3493    0.5456   -4.1440 H   0  0  0  0  0  0  0  0  0  0  0  0
  1  2  1  0
  1 17  1  0
  1 18  1  0
  1 19  1  0
  2  3  1  0
  3  4  2  0
  3 15  1  0
  4  5  1  0
  4 20  1  0
  5  6  2  0
  5 21  1  0
  6  7  1  0
  6 14  1  0
  7  8  1  0
  7 22  1  0
  7 23  1  0
  8  9  1  0
  8 12  1  0
  8 24  1  1
  9 10  1  0
  9 25  1  0
  9 26  1  0
 10 11  1  0
 10 27  1  0
 10 28  1  0
 11 12  1  0
 11 29  1  0
 11 30  1  0
 12 13  1  0
 12 31  1  6
 14 15  2  0
 14 32  1  0
 15 16  1  0
M  END

