
     RDKit          3D

 42 44  0  0  0  0  0  0  0  0999 V2000
    3.2855   -2.9938    3.4718 C   0  0  0  0  0  0  0  0  0  0  0  0
    4.2025   -2.2764    2.5105 C   0  0  0  0  0  0  0  0  0  0  0  0
    5.1729   -1.3712    3.0005 C   0  0  0  0  0  0  0  0  0  0  0  0
    6.0421   -0.6736    2.1655 C   0  0  0  0  0  0  0  0  0  0  0  0
    5.9473   -0.8925    0.7833 C   0  0  0  0  0  0  0  0  0  0  0  0
    6.6316   -0.4044   -0.3990 C   0  0  0  0  0  0  0  0  0  0  0  0
    7.7887    0.5422   -0.4776 C   0  0  0  0  0  0  0  0  0  0  0  0
    7.4524    1.9715   -0.0253 C   0  0  0  0  0  0  0  0  0  0  0  0
    6.3726    2.2580    0.4520 O   0  0  0  0  0  0  0  0  0  0  0  0
    8.4448    2.9246   -0.1919 N   0  0  0  0  0  0  0  0  0  0  0  0
    9.8432    2.6617   -0.4928 C   0  0  0  0  0  0  0  0  0  0  0  0
   10.3604    3.7027   -1.4784 C   0  0  0  0  0  0  0  0  0  0  0  0
   10.1561    5.0329   -1.0053 O   0  0  0  0  0  0  0  0  0  0  0  0
    8.8043    5.3173   -0.6396 C   0  0  1  0  0  0  0  0  0  0  0  0
    8.8485    6.2790   -0.1004 H   0  0  0  0  0  0  0  0  0  0  0  0
    7.9456    5.5865   -1.8971 C   0  0  0  0  0  0  0  0  0  0  0  0
    6.7482    5.5360   -1.9097 O   0  0  0  0  0  0  0  0  0  0  0  0
    8.6740    5.9511   -2.9651 O   0  0  0  0  0  0  0  0  0  0  0  0
    8.1971    4.2751    0.2964 C   0  0  0  0  0  0  0  0  0  0  0  0
    6.0287   -1.0336   -1.4462 C   0  0  0  0  0  0  0  0  0  0  0  0
    5.0298   -1.8739   -1.0506 O   0  0  0  0  0  0  0  0  0  0  0  0
    4.9743   -1.7954    0.3133 C   0  0  0  0  0  0  0  0  0  0  0  0
    4.0851   -2.5061    1.1242 C   0  0  0  0  0  0  0  0  0  0  0  0
    3.0707   -3.4501    0.5338 C   0  0  0  0  0  0  0  0  0  0  0  0
    3.4980   -2.7119    4.5132 H   0  0  0  0  0  0  0  0  0  0  0  0
    3.3872   -4.0902    3.3942 H   0  0  0  0  0  0  0  0  0  0  0  0
    2.2245   -2.7635    3.2731 H   0  0  0  0  0  0  0  0  0  0  0  0
    5.2310   -1.2102    4.0806 H   0  0  0  0  0  0  0  0  0  0  0  0
    6.7609    0.0365    2.5790 H   0  0  0  0  0  0  0  0  0  0  0  0
    8.1750    0.5679   -1.5096 H   0  0  0  0  0  0  0  0  0  0  0  0
    8.6192    0.1685    0.1499 H   0  0  0  0  0  0  0  0  0  0  0  0
    9.9726    1.6649   -0.9311 H   0  0  0  0  0  0  0  0  0  0  0  0
   10.4500    2.7021    0.4343 H   0  0  0  0  0  0  0  0  0  0  0  0
    9.8583    3.5621   -2.4555 H   0  0  0  0  0  0  0  0  0  0  0  0
   11.4452    3.5942   -1.6251 H   0  0  0  0  0  0  0  0  0  0  0  0
    9.6104    5.9329   -2.6906 H   0  0  0  0  0  0  0  0  0  0  0  0
    7.1133    4.4260    0.3653 H   0  0  0  0  0  0  0  0  0  0  0  0
    8.6350    4.4015    1.3049 H   0  0  0  0  0  0  0  0  0  0  0  0
    6.2032   -0.9825   -2.5191 H   0  0  0  0  0  0  0  0  0  0  0  0
    3.1542   -3.4876   -0.5606 H   0  0  0  0  0  0  0  0  0  0  0  0
    2.0412   -3.1441    0.7855 H   0  0  0  0  0  0  0  0  0  0  0  0
    3.1996   -4.4750    0.9209 H   0  0  0  0  0  0  0  0  0  0  0  0
  1  2  1  0
  1 25  1  0
  1 26  1  0
  1 27  1  0
  2  3  2  0
  2 23  1  0
  3  4  1  0
  3 28  1  0
  4  5  2  0
  4 29  1  0
  5  6  1  0
  5 22  1  0
  6  7  1  0
  6 20  2  0
  7  8  1  0
  7 30  1  0
  7 31  1  0
  8  9  2  0
  8 10  1  0
 10 11  1  0
 10 19  1  0
 11 12  1  0
 11 32  1  0
 11 33  1  0
 12 13  1  0
 12 34  1  0
 12 35  1  0
 13 14  1  0
 14 15  1  1
 14 16  1  0
 14 19  1  0
 16 17  2  0
 16 18  1  0
 18 36  1  0
 19 37  1  0
 19 38  1  0
 20 21  1  0
 20 39  1  0
 21 22  1  0
 22 23  2  0
 23 24  1  0
 24 40  1  0
 24 41  1  0
 24 42  1  0
M  END

