
     RDKit          3D

 66 67  0  0  0  0  0  0  0  0999 V2000
    9.7240   -4.8028    2.4996 C   0  0  0  0  0  0  0  0  0  0  0  0
   10.3217   -3.6696    1.8643 O   0  0  0  0  0  0  0  0  0  0  0  0
   11.3997   -3.1421    2.4737 C   0  0  0  0  0  0  0  0  0  0  0  0
   11.8520   -3.5776    3.5030 O   0  0  0  0  0  0  0  0  0  0  0  0
   11.9511   -1.9679    1.6866 C   0  0  0  0  0  0  0  0  0  0  0  0
   13.1387   -1.2796    2.3628 C   0  0  0  0  0  0  0  0  0  0  0  0
   13.7330   -0.1171    1.5580 C   0  0  0  0  0  0  0  0  0  0  0  0
   12.8129    1.1032    1.4444 C   0  0  0  0  0  0  0  0  0  0  0  0
   13.4280    2.2768    0.6772 C   0  0  0  0  0  0  0  0  0  0  0  0
   12.5112    3.5017    0.5663 C   0  0  0  0  0  0  0  0  0  0  0  0
   12.1645    4.1162    1.8479 N   0  0  0  0  0  0  0  0  0  0  0  0
   13.0907    4.8738    2.5519 C   0  0  0  0  0  0  0  0  0  0  0  0
   14.2728    4.9445    2.2977 O   0  0  0  0  0  0  0  0  0  0  0  0
   12.3391    5.6241    3.6517 C   0  0  0  0  0  0  0  0  0  0  0  0
   10.9565    4.9656    3.6715 C   0  0  0  0  0  0  0  0  0  0  0  0
   10.7874    4.3974    2.2382 C   0  0  2  0  0  0  0  0  0  0  0  0
   10.3590    5.1795    1.5772 H   0  0  0  0  0  0  0  0  0  0  0  0
    9.9028    3.1820    2.1834 C   0  0  0  0  0  0  0  0  0  0  0  0
    8.6666    3.0957    1.5373 C   0  0  0  0  0  0  0  0  0  0  0  0
    7.7805    1.8823    1.5849 C   0  0  1  0  0  0  0  0  0  0  0  0
    8.3015    1.1070    2.1821 H   0  0  0  0  0  0  0  0  0  0  0  0
    6.5226    2.1956    2.1438 O   0  0  0  0  0  0  0  0  0  0  0  0
    7.4573    1.2725    0.2404 C   0  0  2  0  0  0  0  0  0  0  0  0
    6.7602    0.4469    0.4613 H   0  0  0  0  0  0  0  0  0  0  0  0
    8.7049    0.7002   -0.4480 C   0  0  0  0  0  0  0  0  0  0  0  0
    6.6523    2.2814   -0.6467 C   0  0  0  0  0  0  0  0  0  0  0  0
    6.0512    1.8346   -1.8352 C   0  0  0  0  0  0  0  0  0  0  0  0
    5.6704    1.0215   -2.7515 C   0  0  0  0  0  0  0  0  0  0  0  0
    5.1630    0.2164   -3.8260 C   0  0  0  0  0  0  0  0  0  0  0  0
    5.8470    0.1358   -5.0945 C   0  0  0  0  0  0  0  0  0  0  0  0
    5.3390   -0.6538   -6.1220 C   0  0  0  0  0  0  0  0  0  0  0  0
    4.1463   -1.4029   -6.0128 C   0  0  0  0  0  0  0  0  0  0  0  0
    3.4785   -1.3147   -4.7722 C   0  0  0  0  0  0  0  0  0  0  0  0
    3.9443   -0.5485   -3.6965 C   0  0  0  0  0  0  0  0  0  0  0  0
    8.8725   -5.0959    1.8725 H   0  0  0  0  0  0  0  0  0  0  0  0
    9.3794   -4.5493    3.5140 H   0  0  0  0  0  0  0  0  0  0  0  0
   10.4407   -5.6345    2.5782 H   0  0  0  0  0  0  0  0  0  0  0  0
   11.1111   -1.2754    1.5095 H   0  0  0  0  0  0  0  0  0  0  0  0
   12.2282   -2.3425    0.6836 H   0  0  0  0  0  0  0  0  0  0  0  0
   13.9184   -2.0348    2.5514 H   0  0  0  0  0  0  0  0  0  0  0  0
   12.8300   -0.9240    3.3610 H   0  0  0  0  0  0  0  0  0  0  0  0
   14.0097   -0.4680    0.5463 H   0  0  0  0  0  0  0  0  0  0  0  0
   14.6803    0.1955    2.0310 H   0  0  0  0  0  0  0  0  0  0  0  0
   12.5462    1.4388    2.4623 H   0  0  0  0  0  0  0  0  0  0  0  0
   11.8637    0.8138    0.9554 H   0  0  0  0  0  0  0  0  0  0  0  0
   13.6819    1.9592   -0.3503 H   0  0  0  0  0  0  0  0  0  0  0  0
   14.3757    2.5866    1.1457 H   0  0  0  0  0  0  0  0  0  0  0  0
   11.5690    3.2184    0.0680 H   0  0  0  0  0  0  0  0  0  0  0  0
   13.0057    4.2624   -0.0637 H   0  0  0  0  0  0  0  0  0  0  0  0
   12.2985    6.6856    3.3512 H   0  0  0  0  0  0  0  0  0  0  0  0
   12.8840    5.5776    4.6048 H   0  0  0  0  0  0  0  0  0  0  0  0
   10.1310    5.6412    3.9365 H   0  0  0  0  0  0  0  0  0  0  0  0
   10.9469    4.1304    4.3901 H   0  0  0  0  0  0  0  0  0  0  0  0
   10.2792    2.3102    2.7363 H   0  0  0  0  0  0  0  0  0  0  0  0
    8.2739    3.9652    0.9947 H   0  0  0  0  0  0  0  0  0  0  0  0
    6.6791    2.6174    2.9961 H   0  0  0  0  0  0  0  0  0  0  0  0
    8.4352    0.2170   -1.3989 H   0  0  0  0  0  0  0  0  0  0  0  0
    9.2064   -0.0585    0.1738 H   0  0  0  0  0  0  0  0  0  0  0  0
    9.4433    1.4909   -0.6667 H   0  0  0  0  0  0  0  0  0  0  0  0
    7.3160    3.1059   -1.0008 H   0  0  0  0  0  0  0  0  0  0  0  0
    5.8941    2.8375   -0.0583 H   0  0  0  0  0  0  0  0  0  0  0  0
    6.7803    0.7075   -5.2244 H   0  0  0  0  0  0  0  0  0  0  0  0
    5.9022   -0.6839   -7.0714 H   0  0  0  0  0  0  0  0  0  0  0  0
    3.7587   -2.0170   -6.8412 H   0  0  0  0  0  0  0  0  0  0  0  0
    2.5395   -1.8823   -4.6337 H   0  0  0  0  0  0  0  0  0  0  0  0
    3.3946   -0.5099   -2.7425 H   0  0  0  0  0  0  0  0  0  0  0  0
  1  2  1  0
  1 35  1  0
  1 36  1  0
  1 37  1  0
  2  3  1  0
  3  4  2  0
  3  5  1  0
  5  6  1  0
  5 38  1  0
  5 39  1  0
  6  7  1  0
  6 40  1  0
  6 41  1  0
  7  8  1  0
  7 42  1  0
  7 43  1  0
  8  9  1  0
  8 44  1  0
  8 45  1  0
  9 10  1  0
  9 46  1  0
  9 47  1  0
 10 11  1  0
 10 48  1  0
 10 49  1  0
 11 12  1  0
 11 16  1  0
 12 13  2  0
 12 14  1  0
 14 15  1  0
 14 50  1  0
 14 51  1  0
 15 16  1  0
 15 52  1  0
 15 53  1  0
 16 17  1  6
 16 18  1  0
 18 19  2  0
 18 54  1  0
 19 20  1  0
 19 55  1  0
 20 21  1  1
 20 22  1  0
 20 23  1  0
 22 56  1  0
 23 24  1  1
 23 25  1  0
 23 26  1  0
 25 57  1  0
 25 58  1  0
 25 59  1  0
 26 27  1  0
 26 60  1  0
 26 61  1  0
 27 28  3  0
 28 29  1  0
 29 30  2  0
 29 34  1  0
 30 31  1  0
 30 62  1  0
 31 32  2  0
 31 63  1  0
 32 33  1  0
 32 64  1  0
 33 34  2  0
 33 65  1  0
 34 66  1  0
M  END

