
     RDKit          3D

 56 61  0  0  0  0  0  0  0  0999 V2000
    1.8512   -0.3750   -0.6593 C   0  0  0  0  0  0  0  0  0  0  0  0
    3.1689   -0.2976   -1.4346 C   0  0  1  0  0  0  0  0  0  0  0  0
    3.0352   -0.7595   -2.8871 C   0  0  0  0  0  0  0  0  0  0  0  0
    3.6999    1.0772   -1.3882 N   0  0  0  0  0  0  0  0  0  0  0  0
    3.0337    2.0774   -1.9923 N   0  0  0  0  0  0  0  0  0  0  0  0
    3.7866    3.1413   -1.7497 C   0  0  0  0  0  0  0  0  0  0  0  0
    4.8969    2.8896   -1.0236 N   0  0  0  0  0  0  0  0  0  0  0  0
    4.8245    1.5794   -0.8019 C   0  0  0  0  0  0  0  0  0  0  0  0
    5.8305    0.8508   -0.0372 C   0  0  0  0  0  0  0  0  0  0  0  0
    5.8329   -0.4124    0.2725 N   0  0  0  0  0  0  0  0  0  0  0  0
    6.9427   -0.7841    1.0050 C   0  0  0  0  0  0  0  0  0  0  0  0
    7.8180    0.2637    1.2619 C   0  0  0  0  0  0  0  0  0  0  0  0
    7.2185    1.7349    0.5572 S   0  0  0  0  0  0  0  0  0  0  0  0
    9.1053    0.2831    2.0303 C   0  0  0  0  0  0  0  0  0  0  0  0
    9.2378   -0.8903    2.9896 C   0  0  0  0  0  0  0  0  0  0  0  0
    9.3430   -2.1268    2.3045 O   0  0  0  0  0  0  0  0  0  0  0  0
    8.2048   -2.8063    1.9731 C   0  0  0  0  0  0  0  0  0  0  0  0
    8.2537   -4.1874    2.2076 C   0  0  0  0  0  0  0  0  0  0  0  0
    7.1829   -5.0308    1.9045 C   0  0  0  0  0  0  0  0  0  0  0  0
    7.2273   -6.5103    2.2199 C   0  0  1  0  0  0  0  0  0  0  0  0
    6.6728   -7.4809    1.1378 C   0  0  0  0  0  0  0  0  0  0  0  0
    8.0510   -7.8202    0.7689 N   0  0  0  0  0  0  0  0  0  0  0  0
    8.3687   -9.1836    0.4010 C   0  0  0  0  0  0  0  0  0  0  0  0
    9.7985   -9.3318   -0.0103 C   0  0  0  0  0  0  0  0  0  0  0  0
   10.8090   -9.6953    0.7197 N   0  0  0  0  0  0  0  0  0  0  0  0
   11.9057   -9.6108   -0.1205 C   0  0  0  0  0  0  0  0  0  0  0  0
   11.4891   -9.1899   -1.3464 C   0  0  0  0  0  0  0  0  0  0  0  0
   10.1410   -9.0095   -1.2834 O   0  0  0  0  0  0  0  0  0  0  0  0
    8.5760   -7.2558    2.0203 C   0  0  0  0  0  0  0  0  0  0  0  0
    6.0251   -4.4383    1.3712 C   0  0  0  0  0  0  0  0  0  0  0  0
    5.9735   -3.0717    1.1262 C   0  0  0  0  0  0  0  0  0  0  0  0
    7.0580   -2.2090    1.3982 C   0  0  0  0  0  0  0  0  0  0  0  0
    1.4729   -1.4089   -0.6642 H   0  0  0  0  0  0  0  0  0  0  0  0
    1.0920    0.2779   -1.1158 H   0  0  0  0  0  0  0  0  0  0  0  0
    1.9912   -0.0666    0.3882 H   0  0  0  0  0  0  0  0  0  0  0  0
    3.9281   -0.9035   -0.9242 H   0  0  0  0  0  0  0  0  0  0  0  0
    2.3160   -0.1310   -3.4328 H   0  0  0  0  0  0  0  0  0  0  0  0
    2.6839   -1.8025   -2.9155 H   0  0  0  0  0  0  0  0  0  0  0  0
    4.0040   -0.7105   -3.4076 H   0  0  0  0  0  0  0  0  0  0  0  0
    3.5158    4.1319   -2.1144 H   0  0  0  0  0  0  0  0  0  0  0  0
    9.1865    1.2227    2.6044 H   0  0  0  0  0  0  0  0  0  0  0  0
    9.9680    0.2673    1.3405 H   0  0  0  0  0  0  0  0  0  0  0  0
    8.3916   -0.9154    3.6994 H   0  0  0  0  0  0  0  0  0  0  0  0
   10.1673   -0.7886    3.5703 H   0  0  0  0  0  0  0  0  0  0  0  0
    9.1753   -4.5724    2.6472 H   0  0  0  0  0  0  0  0  0  0  0  0
    6.7831   -6.6731    3.2157 H   0  0  0  0  0  0  0  0  0  0  0  0
    6.0641   -7.0525    0.3232 H   0  0  0  0  0  0  0  0  0  0  0  0
    6.1141   -8.3276    1.5901 H   0  0  0  0  0  0  0  0  0  0  0  0
    7.7230   -9.4716   -0.4444 H   0  0  0  0  0  0  0  0  0  0  0  0
    8.1884   -9.9040    1.2297 H   0  0  0  0  0  0  0  0  0  0  0  0
   12.9125   -9.8595    0.2105 H   0  0  0  0  0  0  0  0  0  0  0  0
   11.9736   -8.9892   -2.2974 H   0  0  0  0  0  0  0  0  0  0  0  0
    9.4912   -6.6521    1.9113 H   0  0  0  0  0  0  0  0  0  0  0  0
    8.7536   -8.0182    2.8063 H   0  0  0  0  0  0  0  0  0  0  0  0
    5.1519   -5.0528    1.1394 H   0  0  0  0  0  0  0  0  0  0  0  0
    5.0750   -2.6336    0.6933 H   0  0  0  0  0  0  0  0  0  0  0  0
  1  2  1  0
  1 33  1  0
  1 34  1  0
  1 35  1  0
  2  3  1  0
  2  4  1  0
  2 36  1  1
  3 37  1  0
  3 38  1  0
  3 39  1  0
  4  5  1  0
  4  8  1  0
  5  6  2  0
  6  7  1  0
  6 40  1  0
  7  8  2  0
  8  9  1  0
  9 10  2  0
  9 13  1  0
 10 11  1  0
 11 12  2  0
 11 32  1  0
 12 13  1  0
 12 14  1  0
 14 15  1  0
 14 41  1  0
 14 42  1  0
 15 16  1  0
 15 43  1  0
 15 44  1  0
 16 17  1  0
 17 18  1  0
 17 32  2  0
 18 19  2  0
 18 45  1  0
 19 20  1  0
 19 30  1  0
 20 21  1  0
 20 29  1  0
 20 46  1  1
 21 22  1  0
 21 47  1  0
 21 48  1  0
 22 23  1  0
 22 29  1  0
 23 24  1  0
 23 49  1  0
 23 50  1  0
 24 25  2  0
 24 28  1  0
 25 26  1  0
 26 27  2  0
 26 51  1  0
 27 28  1  0
 27 52  1  0
 29 53  1  0
 29 54  1  0
 30 31  2  0
 30 55  1  0
 31 32  1  0
 31 56  1  0
M  END

