
     RDKit          3D

 70 75  0  0  0  0  0  0  0  0999 V2000
    3.6492    2.3336    3.3868 C   0  0  0  0  0  0  0  0  0  0  0  0
    3.9657    1.3342    2.3002 C   0  0  0  0  0  0  0  0  0  0  0  0
    2.9435    0.5549    1.7281 C   0  0  0  0  0  0  0  0  0  0  0  0
    3.1798   -0.3826    0.7174 C   0  0  0  0  0  0  0  0  0  0  0  0
    4.5021   -0.5535    0.2542 C   0  0  0  0  0  0  0  0  0  0  0  0
    5.1351   -1.3715   -0.7232 C   0  0  0  0  0  0  0  0  0  0  0  0
    4.4786   -2.3704   -1.6212 C   0  0  0  0  0  0  0  0  0  0  0  0
    6.5128   -1.0333   -0.6783 C   0  0  0  0  0  0  0  0  0  0  0  0
    7.5902   -1.5264   -1.4222 C   0  0  0  0  0  0  0  0  0  0  0  0
    7.6453   -2.4017   -2.2915 O   0  0  0  0  0  0  0  0  0  0  0  0
    8.8464   -0.8021   -1.0869 O   0  0  0  0  0  0  0  0  0  0  0  0
    9.9732   -1.4609   -0.9084 C   0  0  0  0  0  0  0  0  0  0  0  0
   11.1381   -0.6932   -0.6481 C   0  0  0  0  0  0  0  0  0  0  0  0
   12.3692   -1.2933   -0.4309 C   0  0  0  0  0  0  0  0  0  0  0  0
   12.5178   -2.6916   -0.4638 C   0  0  0  0  0  0  0  0  0  0  0  0
   11.3573   -3.4101   -0.7185 C   0  0  0  0  0  0  0  0  0  0  0  0
   10.1023   -2.8680   -0.9395 C   0  0  0  0  0  0  0  0  0  0  0  0
   11.4030   -4.8412   -0.7724 O   0  0  0  0  0  0  0  0  0  0  0  0
   12.4475   -5.5062   -0.3941 C   0  0  0  0  0  0  0  0  0  0  0  0
   12.3029   -6.8269   -0.3483 N   0  0  0  0  0  0  0  0  0  0  0  0
   13.6744   -4.8535   -0.0334 C   0  0  0  0  0  0  0  0  0  0  0  0
   14.7091   -5.6526    0.4829 C   0  0  0  0  0  0  0  0  0  0  0  0
   15.5356   -6.3513    0.9209 N   0  0  0  0  0  0  0  0  0  0  0  0
   13.8543   -3.3770   -0.3013 C   0  0  1  0  0  0  0  0  0  0  0  0
   14.7615   -3.3389   -1.5437 C   0  0  0  0  0  0  0  0  0  0  0  0
   14.2260   -3.4316   -2.8397 C   0  0  0  0  0  0  0  0  0  0  0  0
   15.0484   -3.4285   -3.9650 C   0  0  0  0  0  0  0  0  0  0  0  0
   16.4456   -3.3466   -3.8086 C   0  0  0  0  0  0  0  0  0  0  0  0
   17.3300   -3.3293   -4.8174 O   0  0  0  0  0  0  0  0  0  0  0  0
   16.8764   -3.3737   -6.1788 C   0  0  0  0  0  0  0  0  0  0  0  0
   18.0720   -3.3055   -7.0888 C   0  0  0  0  0  0  0  0  0  0  0  0
   18.6059   -4.4682   -7.6627 C   0  0  0  0  0  0  0  0  0  0  0  0
   19.7324   -4.4119   -8.4857 C   0  0  0  0  0  0  0  0  0  0  0  0
   20.3266   -3.1746   -8.7238 C   0  0  0  0  0  0  0  0  0  0  0  0
   21.4061   -3.1103   -9.5110 F   0  0  0  0  0  0  0  0  0  0  0  0
   19.8225   -1.9999   -8.1663 C   0  0  0  0  0  0  0  0  0  0  0  0
   18.6942   -2.0745   -7.3501 C   0  0  0  0  0  0  0  0  0  0  0  0
   16.9926   -3.2694   -2.5072 C   0  0  0  0  0  0  0  0  0  0  0  0
   16.1621   -3.2755   -1.3984 C   0  0  0  0  0  0  0  0  0  0  0  0
    6.7289   -0.0440    0.2862 O   0  0  0  0  0  0  0  0  0  0  0  0
    5.5199    0.2424    0.8447 C   0  0  0  0  0  0  0  0  0  0  0  0
    5.3071    1.1802    1.8476 C   0  0  0  0  0  0  0  0  0  0  0  0
    6.4488    1.9865    2.4129 C   0  0  0  0  0  0  0  0  0  0  0  0
    2.5752    2.3321    3.6271 H   0  0  0  0  0  0  0  0  0  0  0  0
    3.9215    3.3649    3.0977 H   0  0  0  0  0  0  0  0  0  0  0  0
    4.1975    2.1213    4.3225 H   0  0  0  0  0  0  0  0  0  0  0  0
    1.9208    0.6936    2.0927 H   0  0  0  0  0  0  0  0  0  0  0  0
    2.3577   -0.9668    0.2973 H   0  0  0  0  0  0  0  0  0  0  0  0
    3.9464   -3.1506   -1.0454 H   0  0  0  0  0  0  0  0  0  0  0  0
    5.2232   -2.8614   -2.2618 H   0  0  0  0  0  0  0  0  0  0  0  0
    3.7223   -1.8968   -2.2750 H   0  0  0  0  0  0  0  0  0  0  0  0
   11.0296    0.3920   -0.6192 H   0  0  0  0  0  0  0  0  0  0  0  0
   13.2455   -0.6691   -0.2347 H   0  0  0  0  0  0  0  0  0  0  0  0
    9.2477   -3.4975   -1.1749 H   0  0  0  0  0  0  0  0  0  0  0  0
   11.3977   -7.2356   -0.5604 H   0  0  0  0  0  0  0  0  0  0  0  0
   13.0770   -7.4293   -0.0881 H   0  0  0  0  0  0  0  0  0  0  0  0
   14.4089   -2.9334    0.5393 H   0  0  0  0  0  0  0  0  0  0  0  0
   13.1431   -3.4684   -2.9792 H   0  0  0  0  0  0  0  0  0  0  0  0
   14.5940   -3.4759   -4.9538 H   0  0  0  0  0  0  0  0  0  0  0  0
   16.1973   -2.5223   -6.3584 H   0  0  0  0  0  0  0  0  0  0  0  0
   16.3104   -4.3058   -6.3465 H   0  0  0  0  0  0  0  0  0  0  0  0
   18.1351   -5.4355   -7.4674 H   0  0  0  0  0  0  0  0  0  0  0  0
   20.1560   -5.3078   -8.9434 H   0  0  0  0  0  0  0  0  0  0  0  0
   20.3153   -1.0500   -8.3814 H   0  0  0  0  0  0  0  0  0  0  0  0
   18.2914   -1.1585   -6.9095 H   0  0  0  0  0  0  0  0  0  0  0  0
   18.0767   -3.1946   -2.4068 H   0  0  0  0  0  0  0  0  0  0  0  0
   16.6042   -3.2109   -0.4004 H   0  0  0  0  0  0  0  0  0  0  0  0
    7.3938    1.7237    1.9180 H   0  0  0  0  0  0  0  0  0  0  0  0
    6.5739    1.8171    3.4969 H   0  0  0  0  0  0  0  0  0  0  0  0
    6.2877    3.0709    2.2823 H   0  0  0  0  0  0  0  0  0  0  0  0
  1  2  1  0
  1 44  1  0
  1 45  1  0
  1 46  1  0
  2  3  2  0
  2 42  1  0
  3  4  1  0
  3 47  1  0
  4  5  2  0
  4 48  1  0
  5  6  1  0
  5 41  1  0
  6  7  1  0
  6  8  2  0
  7 49  1  0
  7 50  1  0
  7 51  1  0
  8  9  1  0
  8 40  1  0
  9 10  2  0
  9 11  1  0
 11 12  1  0
 12 13  2  0
 12 17  1  0
 13 14  1  0
 13 52  1  0
 14 15  2  0
 14 53  1  0
 15 16  1  0
 15 24  1  0
 16 17  2  0
 16 18  1  0
 17 54  1  0
 18 19  1  0
 19 20  1  0
 19 21  2  0
 20 55  1  0
 20 56  1  0
 21 22  1  0
 21 24  1  0
 22 23  3  0
 24 25  1  0
 24 57  1  1
 25 26  2  0
 25 39  1  0
 26 27  1  0
 26 58  1  0
 27 28  2  0
 27 59  1  0
 28 29  1  0
 28 38  1  0
 29 30  1  0
 30 31  1  0
 30 60  1  0
 30 61  1  0
 31 32  2  0
 31 37  1  0
 32 33  1  0
 32 62  1  0
 33 34  2  0
 33 63  1  0
 34 35  1  0
 34 36  1  0
 36 37  2  0
 36 64  1  0
 37 65  1  0
 38 39  2  0
 38 66  1  0
 39 67  1  0
 40 41  1  0
 41 42  2  0
 42 43  1  0
 43 68  1  0
 43 69  1  0
 43 70  1  0
M  END

