
     RDKit          3D

 38 41  0  0  0  0  0  0  0  0999 V2000
    5.5940   -2.6861   -0.1451 O   0  0  0  0  0  0  0  0  0  0  0  0
    5.0340   -1.6311   -0.1463 C   0  0  0  0  0  0  0  0  0  0  0  0
    3.5864   -1.4962    0.1181 N   0  0  0  0  0  0  0  0  0  0  0  0
    2.6956   -2.4233    0.3848 C   0  0  0  0  0  0  0  0  0  0  0  0
    2.9378   -3.7539    0.4801 N   0  0  0  0  0  0  0  0  0  0  0  0
    1.8706   -4.4545    0.7551 N   0  0  0  0  0  0  0  0  0  0  0  0
    0.7476   -3.7390    0.8909 C   0  0  0  0  0  0  0  0  0  0  0  0
   -0.7779   -4.4314    1.2529 S   0  0  0  0  0  0  0  0  0  0  0  0
   -0.3605   -6.2441    1.3612 C   0  0  0  0  0  0  0  0  0  0  0  0
   -1.6141   -7.0069    1.6921 C   0  0  0  0  0  0  0  0  0  0  0  0
   -2.4541   -7.4725    0.6679 C   0  0  0  0  0  0  0  0  0  0  0  0
   -3.6189   -8.1789    0.9754 C   0  0  0  0  0  0  0  0  0  0  0  0
   -3.9573   -8.4244    2.3097 C   0  0  0  0  0  0  0  0  0  0  0  0
   -3.1275   -7.9628    3.3360 C   0  0  0  0  0  0  0  0  0  0  0  0
   -1.9629   -7.2558    3.0292 C   0  0  0  0  0  0  0  0  0  0  0  0
    0.9832   -2.0159    0.6643 S   0  0  0  0  0  0  0  0  0  0  0  0
    5.5597   -0.2721   -0.3884 C   0  0  0  0  0  0  0  0  0  0  0  0
    6.8734    0.0205   -0.6715 C   0  0  0  0  0  0  0  0  0  0  0  0
    7.0348    1.7444   -0.8819 S   0  0  0  0  0  0  0  0  0  0  0  0
    5.2599    1.9417   -0.5623 C   0  0  0  0  0  0  0  0  0  0  0  0
    4.6503    3.2033   -0.5788 C   0  0  0  0  0  0  0  0  0  0  0  0
    5.2127    4.4788   -0.8215 C   0  0  0  0  0  0  0  0  0  0  0  0
    4.2682    5.5228   -0.7516 C   0  0  0  0  0  0  0  0  0  0  0  0
    2.9846    5.1039   -0.4618 C   0  0  0  0  0  0  0  0  0  0  0  0
    2.9101    3.3654   -0.2632 S   0  0  0  0  0  0  0  0  0  0  0  0
    4.6672    0.7505   -0.3239 N   0  0  0  0  0  0  0  0  0  0  0  0
    3.3709   -0.4711    0.0527 H   0  0  0  0  0  0  0  0  0  0  0  0
    0.4187   -6.3387    2.1281 H   0  0  0  0  0  0  0  0  0  0  0  0
    0.0709   -6.5222    0.3910 H   0  0  0  0  0  0  0  0  0  0  0  0
   -2.1908   -7.2879   -0.3775 H   0  0  0  0  0  0  0  0  0  0  0  0
   -4.2619   -8.5424    0.1705 H   0  0  0  0  0  0  0  0  0  0  0  0
   -4.8674   -8.9792    2.5499 H   0  0  0  0  0  0  0  0  0  0  0  0
   -3.3858   -8.1567    4.3797 H   0  0  0  0  0  0  0  0  0  0  0  0
   -1.3147   -6.9001    3.8351 H   0  0  0  0  0  0  0  0  0  0  0  0
    7.7114   -0.6651   -0.7610 H   0  0  0  0  0  0  0  0  0  0  0  0
    6.2713    4.6247   -1.0396 H   0  0  0  0  0  0  0  0  0  0  0  0
    4.5226    6.5729   -0.9116 H   0  0  0  0  0  0  0  0  0  0  0  0
    2.0840    5.7039   -0.3528 H   0  0  0  0  0  0  0  0  0  0  0  0
  1  2  2  0
  2  3  1  0
  2 17  1  0
  3  4  1  0
  3 27  1  0
  4  5  2  0
  4 16  1  0
  5  6  1  0
  6  7  2  0
  7  8  1  0
  7 16  1  0
  8  9  1  0
  9 10  1  0
  9 28  1  0
  9 29  1  0
 10 11  2  0
 10 15  1  0
 11 12  1  0
 11 30  1  0
 12 13  2  0
 12 31  1  0
 13 14  1  0
 13 32  1  0
 14 15  2  0
 14 33  1  0
 15 34  1  0
 17 18  2  0
 17 26  1  0
 18 19  1  0
 18 35  1  0
 19 20  1  0
 20 21  1  0
 20 26  2  0
 21 22  2  0
 21 25  1  0
 22 23  1  0
 22 36  1  0
 23 24  2  0
 23 37  1  0
 24 25  1  0
 24 38  1  0
M  END

