
     RDKit          3D

 86 92  0  0  0  0  0  0  0  0999 V2000
    2.9073   -1.9764    3.0899 N   0  0  0  0  0  0  0  0  0  0  0  0
    3.6665   -1.4715    2.3645 C   0  0  0  0  0  0  0  0  0  0  0  0
    4.6215   -0.8749    1.4932 C   0  0  0  0  0  0  0  0  0  0  0  0
    4.7558    0.5023    1.3742 C   0  0  0  0  0  0  0  0  0  0  0  0
    4.0285    1.5789    1.9692 C   0  0  0  0  0  0  0  0  0  0  0  0
    2.9570    1.4148    2.8898 C   0  0  0  0  0  0  0  0  0  0  0  0
    2.3131    2.4665    3.5179 C   0  0  0  0  0  0  0  0  0  0  0  0
    1.2555    2.1373    4.4213 N   0  0  0  0  0  0  0  0  0  0  0  0
    0.1980    1.3192    3.9265 C   0  0  0  0  0  0  0  0  0  0  0  0
   -0.2336    0.1934    4.6444 C   0  0  0  0  0  0  0  0  0  0  0  0
   -1.2557   -0.6078    4.1312 C   0  0  0  0  0  0  0  0  0  0  0  0
   -1.8506   -0.2994    2.9043 C   0  0  0  0  0  0  0  0  0  0  0  0
   -1.4132    0.8176    2.1840 C   0  0  0  0  0  0  0  0  0  0  0  0
   -0.3936    1.6255    2.6876 C   0  0  0  0  0  0  0  0  0  0  0  0
    1.3524    2.4553    5.7804 C   0  0  0  0  0  0  0  0  0  0  0  0
    0.1959    2.5921    6.5844 C   0  0  0  0  0  0  0  0  0  0  0  0
    0.3148    2.9195    7.9325 C   0  0  0  0  0  0  0  0  0  0  0  0
    1.5737    3.1352    8.5092 C   0  0  0  0  0  0  0  0  0  0  0  0
    2.7182    3.0206    7.7152 C   0  0  0  0  0  0  0  0  0  0  0  0
    2.6176    2.6831    6.3667 C   0  0  0  0  0  0  0  0  0  0  0  0
    2.6816    3.8414    3.2788 C   0  0  0  0  0  0  0  0  0  0  0  0
    1.9478    4.9139    3.8684 C   0  0  0  0  0  0  0  0  0  0  0  0
    2.0597    6.2976    3.7292 C   0  0  0  0  0  0  0  0  0  0  0  0
    2.9724    6.8896    2.8088 C   0  0  0  0  0  0  0  0  0  0  0  0
    3.7007    7.4030    2.0574 N   0  0  0  0  0  0  0  0  0  0  0  0
    1.2183    7.2456    4.4986 C   0  0  0  0  0  0  0  0  0  0  0  0
    1.1522    8.6104    4.1323 C   0  0  0  0  0  0  0  0  0  0  0  0
    0.3490    9.5101    4.8293 C   0  0  0  0  0  0  0  0  0  0  0  0
   -0.4123    9.0844    5.9209 C   0  0  0  0  0  0  0  0  0  0  0  0
   -0.3413    7.7442    6.3155 C   0  0  0  0  0  0  0  0  0  0  0  0
    0.4635    6.8409    5.6254 C   0  0  0  0  0  0  0  0  0  0  0  0
    3.7559    4.0070    2.3606 C   0  0  0  0  0  0  0  0  0  0  0  0
    4.3928    2.9528    1.7310 C   0  0  0  0  0  0  0  0  0  0  0  0
    5.4489    3.2924    0.8138 N   0  0  0  0  0  0  0  0  0  0  0  0
    6.5294    4.0613    1.3022 C   0  0  0  0  0  0  0  0  0  0  0  0
    7.1052    3.7545    2.5531 C   0  0  0  0  0  0  0  0  0  0  0  0
    8.1539    4.5268    3.0483 C   0  0  0  0  0  0  0  0  0  0  0  0
    8.6430    5.6143    2.3157 C   0  0  0  0  0  0  0  0  0  0  0  0
    8.0653    5.9293    1.0814 C   0  0  0  0  0  0  0  0  0  0  0  0
    7.0148    5.1654    0.5749 C   0  0  0  0  0  0  0  0  0  0  0  0
    5.3102    2.9952   -0.5481 C   0  0  0  0  0  0  0  0  0  0  0  0
    4.0243    2.8337   -1.1134 C   0  0  0  0  0  0  0  0  0  0  0  0
    3.8843    2.5135   -2.4625 C   0  0  0  0  0  0  0  0  0  0  0  0
    5.0089    2.3459   -3.2764 C   0  0  0  0  0  0  0  0  0  0  0  0
    6.2861    2.4921   -2.7198 C   0  0  0  0  0  0  0  0  0  0  0  0
    6.4433    2.8067   -1.3722 C   0  0  0  0  0  0  0  0  0  0  0  0
    5.4858   -1.8202    0.7446 C   0  0  0  0  0  0  0  0  0  0  0  0
    5.5764   -3.1730    1.1402 C   0  0  0  0  0  0  0  0  0  0  0  0
    6.3956   -4.0721    0.4599 C   0  0  0  0  0  0  0  0  0  0  0  0
    7.1491   -3.6530   -0.6409 C   0  0  0  0  0  0  0  0  0  0  0  0
    7.0627   -2.3198   -1.0554 C   0  0  0  0  0  0  0  0  0  0  0  0
    6.2431   -1.4177   -0.3791 C   0  0  0  0  0  0  0  0  0  0  0  0
    5.5866    0.8096    0.7442 H   0  0  0  0  0  0  0  0  0  0  0  0
    2.6431    0.4092    3.1639 H   0  0  0  0  0  0  0  0  0  0  0  0
    0.2521   -0.0674    5.5863 H   0  0  0  0  0  0  0  0  0  0  0  0
   -1.5723   -1.4933    4.6874 H   0  0  0  0  0  0  0  0  0  0  0  0
   -2.6468   -0.9322    2.5050 H   0  0  0  0  0  0  0  0  0  0  0  0
   -1.8759    1.0670    1.2258 H   0  0  0  0  0  0  0  0  0  0  0  0
   -0.0574    2.5060    2.1373 H   0  0  0  0  0  0  0  0  0  0  0  0
   -0.7894    2.4557    6.1363 H   0  0  0  0  0  0  0  0  0  0  0  0
   -0.5877    3.0242    8.5400 H   0  0  0  0  0  0  0  0  0  0  0  0
    1.6575    3.3961    9.5665 H   0  0  0  0  0  0  0  0  0  0  0  0
    3.7060    3.1838    8.1534 H   0  0  0  0  0  0  0  0  0  0  0  0
    3.5147    2.5703    5.7563 H   0  0  0  0  0  0  0  0  0  0  0  0
    1.1277    4.6003    4.5080 H   0  0  0  0  0  0  0  0  0  0  0  0
    1.7315    8.9629    3.2767 H   0  0  0  0  0  0  0  0  0  0  0  0
    0.3163   10.5560    4.5128 H   0  0  0  0  0  0  0  0  0  0  0  0
   -1.0418    9.7902    6.4680 H   0  0  0  0  0  0  0  0  0  0  0  0
   -0.9068    7.4002    7.1858 H   0  0  0  0  0  0  0  0  0  0  0  0
    0.5405    5.8186    5.9945 H   0  0  0  0  0  0  0  0  0  0  0  0
    4.0781    5.0103    2.0921 H   0  0  0  0  0  0  0  0  0  0  0  0
    6.7307    2.8977    3.1148 H   0  0  0  0  0  0  0  0  0  0  0  0
    8.6008    4.2725    4.0126 H   0  0  0  0  0  0  0  0  0  0  0  0
    9.4631    6.2183    2.7107 H   0  0  0  0  0  0  0  0  0  0  0  0
    8.4195    6.7945    0.5159 H   0  0  0  0  0  0  0  0  0  0  0  0
    6.5404    5.4412   -0.3682 H   0  0  0  0  0  0  0  0  0  0  0  0
    3.1440    2.9873   -0.4891 H   0  0  0  0  0  0  0  0  0  0  0  0
    2.8826    2.4038   -2.8847 H   0  0  0  0  0  0  0  0  0  0  0  0
    4.8937    2.0951   -4.3333 H   0  0  0  0  0  0  0  0  0  0  0  0
    7.1726    2.3432   -3.3412 H   0  0  0  0  0  0  0  0  0  0  0  0
    7.4429    2.8848   -0.9420 H   0  0  0  0  0  0  0  0  0  0  0  0
    4.9976   -3.5183    1.9999 H   0  0  0  0  0  0  0  0  0  0  0  0
    6.4471   -5.1111    0.7959 H   0  0  0  0  0  0  0  0  0  0  0  0
    7.7906   -4.3581   -1.1750 H   0  0  0  0  0  0  0  0  0  0  0  0
    7.6310   -1.9801   -1.9255 H   0  0  0  0  0  0  0  0  0  0  0  0
    6.1709   -0.3938   -0.7486 H   0  0  0  0  0  0  0  0  0  0  0  0
  1  2  3  0
  2  3  1  0
  3  4  2  0
  3 47  1  0
  4  5  1  0
  4 53  1  0
  5  6  2  0
  5 33  1  0
  6  7  1  0
  6 54  1  0
  7  8  1  0
  7 21  2  0
  8  9  1  0
  8 15  1  0
  9 10  2  0
  9 14  1  0
 10 11  1  0
 10 55  1  0
 11 12  2  0
 11 56  1  0
 12 13  1  0
 12 57  1  0
 13 14  2  0
 13 58  1  0
 14 59  1  0
 15 16  2  0
 15 20  1  0
 16 17  1  0
 16 60  1  0
 17 18  2  0
 17 61  1  0
 18 19  1  0
 18 62  1  0
 19 20  2  0
 19 63  1  0
 20 64  1  0
 21 22  1  0
 21 32  1  0
 22 23  2  0
 22 65  1  0
 23 24  1  0
 23 26  1  0
 24 25  3  0
 26 27  2  0
 26 31  1  0
 27 28  1  0
 27 66  1  0
 28 29  2  0
 28 67  1  0
 29 30  1  0
 29 68  1  0
 30 31  2  0
 30 69  1  0
 31 70  1  0
 32 33  2  0
 32 71  1  0
 33 34  1  0
 34 35  1  0
 34 41  1  0
 35 36  2  0
 35 40  1  0
 36 37  1  0
 36 72  1  0
 37 38  2  0
 37 73  1  0
 38 39  1  0
 38 74  1  0
 39 40  2  0
 39 75  1  0
 40 76  1  0
 41 42  2  0
 41 46  1  0
 42 43  1  0
 42 77  1  0
 43 44  2  0
 43 78  1  0
 44 45  1  0
 44 79  1  0
 45 46  2  0
 45 80  1  0
 46 81  1  0
 47 48  2  0
 47 52  1  0
 48 49  1  0
 48 82  1  0
 49 50  2  0
 49 83  1  0
 50 51  1  0
 50 84  1  0
 51 52  2  0
 51 85  1  0
 52 86  1  0
M  END

