
     RDKit          3D

 43 44  0  0  0  0  0  0  0  0999 V2000
    4.9717   -2.8475   -1.1782 C   0  0  0  0  0  0  0  0  0  0  0  0
    5.0289   -1.8683   -1.8892 C   0  0  0  0  0  0  0  0  0  0  0  0
    5.1144   -0.6815   -2.7517 C   0  0  0  0  0  0  0  0  0  0  0  0
    4.8997    0.5392   -2.0523 O   0  0  0  0  0  0  0  0  0  0  0  0
    5.9242    0.9479   -1.1846 C   0  0  0  0  0  0  0  0  0  0  0  0
    6.9824    1.7889   -1.9160 C   0  0  2  0  0  0  0  0  0  0  0  0
    6.4703    2.6468   -2.3958 H   0  0  0  0  0  0  0  0  0  0  0  0
    7.6561    1.0077   -2.8164 O   0  0  0  0  0  0  0  0  0  0  0  0
    7.9920    2.3979   -0.8016 C   0  0  0  0  0  0  0  0  0  0  0  0
    8.3293    3.7481   -1.0579 N   0  0  0  0  0  0  0  0  0  0  0  0
    7.4693    4.7989   -0.5165 C   0  0  0  0  0  0  0  0  0  0  0  0
    7.7201    5.0693    0.9341 C   0  0  0  0  0  0  0  0  0  0  0  0
    8.4322    6.0324    1.5963 C   0  0  0  0  0  0  0  0  0  0  0  0
    8.3031    5.7380    2.9934 C   0  0  0  0  0  0  0  0  0  0  0  0
    7.5313    4.6149    3.0724 C   0  0  0  0  0  0  0  0  0  0  0  0
    7.1723    4.2008    1.8299 O   0  0  0  0  0  0  0  0  0  0  0  0
    9.5545    4.1331   -1.8188 C   0  0  0  0  0  0  0  0  0  0  0  0
   10.0479    3.1389   -2.8061 C   0  0  0  0  0  0  0  0  0  0  0  0
    9.3705    2.9534   -4.1006 C   0  0  0  0  0  0  0  0  0  0  0  0
   10.0127    2.1184   -5.0614 C   0  0  0  0  0  0  0  0  0  0  0  0
   11.1495    1.3931   -4.7643 C   0  0  0  0  0  0  0  0  0  0  0  0
   11.7692    1.5033   -3.4645 C   0  0  0  0  0  0  0  0  0  0  0  0
   11.1931    2.3847   -2.5592 C   0  0  0  0  0  0  0  0  0  0  0  0
   11.7832    2.5264   -1.3362 F   0  0  0  0  0  0  0  0  0  0  0  0
    4.9168   -3.7196   -0.5539 H   0  0  0  0  0  0  0  0  0  0  0  0
    4.3244   -0.7264   -3.5180 H   0  0  0  0  0  0  0  0  0  0  0  0
    6.0883   -0.6649   -3.2693 H   0  0  0  0  0  0  0  0  0  0  0  0
    6.4186    0.0874   -0.6950 H   0  0  0  0  0  0  0  0  0  0  0  0
    5.4499    1.5618   -0.4010 H   0  0  0  0  0  0  0  0  0  0  0  0
    8.1999    1.5873   -3.4280 H   0  0  0  0  0  0  0  0  0  0  0  0
    8.8892    1.7718   -0.8437 H   0  0  0  0  0  0  0  0  0  0  0  0
    7.4993    2.3319    0.1798 H   0  0  0  0  0  0  0  0  0  0  0  0
    6.4183    4.5003   -0.6646 H   0  0  0  0  0  0  0  0  0  0  0  0
    7.6481    5.7179   -1.0891 H   0  0  0  0  0  0  0  0  0  0  0  0
    8.9789    6.8566    1.1429 H   0  0  0  0  0  0  0  0  0  0  0  0
    8.7284    6.2925    3.8267 H   0  0  0  0  0  0  0  0  0  0  0  0
    7.1596    4.0189    3.9017 H   0  0  0  0  0  0  0  0  0  0  0  0
   10.3143    4.3473   -1.0464 H   0  0  0  0  0  0  0  0  0  0  0  0
    9.2971    5.0980   -2.2937 H   0  0  0  0  0  0  0  0  0  0  0  0
    8.6575    3.7136   -4.4403 H   0  0  0  0  0  0  0  0  0  0  0  0
    9.5759    2.0384   -6.0623 H   0  0  0  0  0  0  0  0  0  0  0  0
   11.5883    0.7284   -5.5117 H   0  0  0  0  0  0  0  0  0  0  0  0
   12.6636    0.9468   -3.1892 H   0  0  0  0  0  0  0  0  0  0  0  0
  1  2  3  0
  1 25  1  0
  2  3  1  0
  3  4  1  0
  3 26  1  0
  3 27  1  0
  4  5  1  0
  5  6  1  0
  5 28  1  0
  5 29  1  0
  6  7  1  1
  6  8  1  0
  6  9  1  0
  8 30  1  0
  9 10  1  0
  9 31  1  0
  9 32  1  0
 10 11  1  0
 10 17  1  0
 11 12  1  0
 11 33  1  0
 11 34  1  0
 12 13  2  0
 12 16  1  0
 13 14  1  0
 13 35  1  0
 14 15  2  0
 14 36  1  0
 15 16  1  0
 15 37  1  0
 17 18  1  0
 17 38  1  0
 17 39  1  0
 18 19  2  0
 18 23  1  0
 19 20  1  0
 19 40  1  0
 20 21  2  0
 20 41  1  0
 21 22  1  0
 21 42  1  0
 22 23  2  0
 22 43  1  0
 23 24  1  0
M  END

