
     RDKit          3D

 62 65  0  0  0  0  0  0  0  0999 V2000
    7.4398    1.0089    4.2860 C   0  0  0  0  0  0  0  0  0  0  0  0
    6.4957    1.0028    3.0780 C   0  0  1  0  0  0  0  0  0  0  0  0
    5.0238    0.9948    3.5048 C   0  0  0  0  0  0  0  0  0  0  0  0
    6.8138    2.1863    2.1649 C   0  0  0  0  0  0  0  0  0  0  0  0
    6.0165    2.0963    0.9938 O   0  0  0  0  0  0  0  0  0  0  0  0
    6.1114    3.0479    0.0353 C   0  0  0  0  0  0  0  0  0  0  0  0
    6.9783    4.1508    0.0877 C   0  0  0  0  0  0  0  0  0  0  0  0
    6.9966    5.0766   -0.9584 C   0  0  0  0  0  0  0  0  0  0  0  0
    6.1689    4.9332   -2.0859 C   0  0  0  0  0  0  0  0  0  0  0  0
    6.1578    5.9371   -3.1632 C   0  0  0  0  0  0  0  0  0  0  0  0
    5.9976    5.8032   -4.5276 C   0  0  0  0  0  0  0  0  0  0  0  0
    6.0335    4.6935   -5.3189 N   0  0  0  0  0  0  0  0  0  0  0  0
    6.9149    3.5641   -4.9886 C   0  0  0  0  0  0  0  0  0  0  0  0
    6.2717    2.2120   -5.3042 C   0  0  0  0  0  0  0  0  0  0  0  0
    5.7537    2.1211   -6.7525 C   0  0  2  0  0  0  0  0  0  0  0  0
    6.8802    1.9581   -7.7830 C   0  0  0  0  0  0  0  0  0  0  0  0
    4.8623    3.3464   -7.0268 C   0  0  0  0  0  0  0  0  0  0  0  0
    5.5462    4.6804   -6.7058 C   0  0  0  0  0  0  0  0  0  0  0  0
    5.8872    7.1993   -5.1246 C   0  0  0  0  0  0  0  0  0  0  0  0
    5.7672    7.4956   -6.2922 O   0  0  0  0  0  0  0  0  0  0  0  0
    5.9915    8.1016   -4.0641 N   0  0  0  0  0  0  0  0  0  0  0  0
    5.9423    9.5122   -4.1835 C   0  0  0  0  0  0  0  0  0  0  0  0
    5.1305   10.1145   -5.1618 C   0  0  0  0  0  0  0  0  0  0  0  0
    5.0908   11.4997   -5.2838 C   0  0  0  0  0  0  0  0  0  0  0  0
    5.8506   12.3149   -4.4251 C   0  0  0  0  0  0  0  0  0  0  0  0
    5.8052   13.7442   -4.5494 C   0  0  0  0  0  0  0  0  0  0  0  0
    5.7687   14.9008   -4.6509 N   0  0  0  0  0  0  0  0  0  0  0  0
    6.6558   11.7090   -3.4432 C   0  0  0  0  0  0  0  0  0  0  0  0
    6.7075   10.3238   -3.3261 C   0  0  0  0  0  0  0  0  0  0  0  0
    6.1724    7.3790   -2.8406 C   0  0  0  0  0  0  0  0  0  0  0  0
    6.2938    7.9088   -1.7601 O   0  0  0  0  0  0  0  0  0  0  0  0
    5.2957    3.8227   -2.1136 C   0  0  0  0  0  0  0  0  0  0  0  0
    5.2657    2.8966   -1.0799 C   0  0  0  0  0  0  0  0  0  0  0  0
    7.2470    0.1419    4.9368 H   0  0  0  0  0  0  0  0  0  0  0  0
    7.2996    1.9173    4.8968 H   0  0  0  0  0  0  0  0  0  0  0  0
    8.4983    0.9689    3.9809 H   0  0  0  0  0  0  0  0  0  0  0  0
    6.6899    0.0886    2.4879 H   0  0  0  0  0  0  0  0  0  0  0  0
    4.7851    1.8852    4.1122 H   0  0  0  0  0  0  0  0  0  0  0  0
    4.7953    0.1051    4.1129 H   0  0  0  0  0  0  0  0  0  0  0  0
    4.3574    0.9934    2.6301 H   0  0  0  0  0  0  0  0  0  0  0  0
    7.8857    2.1808    1.8908 H   0  0  0  0  0  0  0  0  0  0  0  0
    6.6080    3.1399    2.6896 H   0  0  0  0  0  0  0  0  0  0  0  0
    7.6414    4.3026    0.9392 H   0  0  0  0  0  0  0  0  0  0  0  0
    7.6659    5.9346   -0.8908 H   0  0  0  0  0  0  0  0  0  0  0  0
    7.1917    3.6149   -3.9305 H   0  0  0  0  0  0  0  0  0  0  0  0
    7.8509    3.6842   -5.5695 H   0  0  0  0  0  0  0  0  0  0  0  0
    5.4328    2.0511   -4.6071 H   0  0  0  0  0  0  0  0  0  0  0  0
    7.0071    1.4151   -5.1024 H   0  0  0  0  0  0  0  0  0  0  0  0
    5.1174    1.2219   -6.8233 H   0  0  0  0  0  0  0  0  0  0  0  0
    7.5781    2.8106   -7.7908 H   0  0  0  0  0  0  0  0  0  0  0  0
    6.4700    1.8634   -8.8013 H   0  0  0  0  0  0  0  0  0  0  0  0
    7.4724    1.0520   -7.5767 H   0  0  0  0  0  0  0  0  0  0  0  0
    3.9453    3.2705   -6.4168 H   0  0  0  0  0  0  0  0  0  0  0  0
    4.5414    3.3642   -8.0820 H   0  0  0  0  0  0  0  0  0  0  0  0
    4.8463    5.5076   -6.8510 H   0  0  0  0  0  0  0  0  0  0  0  0
    6.3885    4.8634   -7.3997 H   0  0  0  0  0  0  0  0  0  0  0  0
    4.5411    9.4969   -5.8361 H   0  0  0  0  0  0  0  0  0  0  0  0
    4.4606   11.9591   -6.0476 H   0  0  0  0  0  0  0  0  0  0  0  0
    7.2500   12.3321   -2.7720 H   0  0  0  0  0  0  0  0  0  0  0  0
    7.3289    9.8679   -2.5586 H   0  0  0  0  0  0  0  0  0  0  0  0
    4.6143    3.6996   -2.9583 H   0  0  0  0  0  0  0  0  0  0  0  0
    4.5834    2.0444   -1.1024 H   0  0  0  0  0  0  0  0  0  0  0  0
  1  2  1  0
  1 34  1  0
  1 35  1  0
  1 36  1  0
  2  3  1  0
  2  4  1  0
  2 37  1  6
  3 38  1  0
  3 39  1  0
  3 40  1  0
  4  5  1  0
  4 41  1  0
  4 42  1  0
  5  6  1  0
  6  7  2  0
  6 33  1  0
  7  8  1  0
  7 43  1  0
  8  9  2  0
  8 44  1  0
  9 10  1  0
  9 32  1  0
 10 11  2  0
 10 30  1  0
 11 12  1  0
 11 19  1  0
 12 13  1  0
 12 18  1  0
 13 14  1  0
 13 45  1  0
 13 46  1  0
 14 15  1  0
 14 47  1  0
 14 48  1  0
 15 16  1  0
 15 17  1  0
 15 49  1  1
 16 50  1  0
 16 51  1  0
 16 52  1  0
 17 18  1  0
 17 53  1  0
 17 54  1  0
 18 55  1  0
 18 56  1  0
 19 20  2  0
 19 21  1  0
 21 22  1  0
 21 30  1  0
 22 23  2  0
 22 29  1  0
 23 24  1  0
 23 57  1  0
 24 25  2  0
 24 58  1  0
 25 26  1  0
 25 28  1  0
 26 27  3  0
 28 29  2  0
 28 59  1  0
 29 60  1  0
 30 31  2  0
 32 33  2  0
 32 61  1  0
 33 62  1  0
M  END

