
     RDKit          3D

 52 54  0  0  0  0  0  0  0  0999 V2000
   10.0451   -2.0368   -6.8449 C   0  0  0  0  0  0  0  0  0  0  0  0
    9.9521   -0.7644   -6.0646 C   0  0  0  0  0  0  0  0  0  0  0  0
    9.1811   -0.4204   -4.9642 C   0  0  0  0  0  0  0  0  0  0  0  0
    9.5322    0.9360   -4.6759 C   0  0  0  0  0  0  0  0  0  0  0  0
    9.0036    1.7671   -3.6937 N   0  0  0  0  0  0  0  0  0  0  0  0
    9.7169    3.0127   -3.4277 C   0  0  0  0  0  0  0  0  0  0  0  0
    8.8239    3.9854   -2.6484 C   0  0  0  0  0  0  0  0  0  0  0  0
    8.2415    3.4088   -1.4389 N   0  0  0  0  0  0  0  0  0  0  0  0
    9.1203    3.3641   -0.2725 C   0  0  0  0  0  0  0  0  0  0  0  0
    9.2427    4.7167    0.4432 C   0  0  0  0  0  0  0  0  0  0  0  0
    7.9190    5.2496    0.9980 C   0  0  0  0  0  0  0  0  0  0  0  0
    8.0500    6.6187    1.6734 C   0  0  0  0  0  0  0  0  0  0  0  0
    6.7209    7.2400    2.1516 C   0  0  1  0  0  0  0  0  0  0  0  0
    6.0318    6.4595    3.2941 C   0  0  0  0  0  0  0  0  0  0  0  0
    6.7169    6.6907    4.6429 C   0  0  0  0  0  0  0  0  0  0  0  0
    6.8004    8.0659    4.9632 O   0  0  0  0  0  0  0  0  0  0  0  0
    7.5255    8.8051    3.9993 C   0  0  0  0  0  0  0  0  0  0  0  0
    6.8891    8.7053    2.6109 C   0  0  0  0  0  0  0  0  0  0  0  0
    7.5409    2.1754   -1.7681 C   0  0  0  0  0  0  0  0  0  0  0  0
    8.3999    1.1495   -2.5215 C   0  0  0  0  0  0  0  0  0  0  0  0
   10.4600    1.3797   -5.5247 N   0  0  0  0  0  0  0  0  0  0  0  0
   10.6864    0.3387   -6.3587 N   0  0  0  0  0  0  0  0  0  0  0  0
   11.3700    0.4425   -7.0972 H   0  0  0  0  0  0  0  0  0  0  0  0
    9.3609   -2.7889   -6.4292 H   0  0  0  0  0  0  0  0  0  0  0  0
   11.0639   -2.4600   -6.8193 H   0  0  0  0  0  0  0  0  0  0  0  0
    9.7754   -1.8878   -7.9044 H   0  0  0  0  0  0  0  0  0  0  0  0
    8.4669   -1.0624   -4.4569 H   0  0  0  0  0  0  0  0  0  0  0  0
   10.0135    3.4548   -4.3883 H   0  0  0  0  0  0  0  0  0  0  0  0
   10.6597    2.8155   -2.8718 H   0  0  0  0  0  0  0  0  0  0  0  0
    7.9984    4.3090   -3.3078 H   0  0  0  0  0  0  0  0  0  0  0  0
    9.4000    4.8871   -2.3896 H   0  0  0  0  0  0  0  0  0  0  0  0
   10.1405    2.9933   -0.5107 H   0  0  0  0  0  0  0  0  0  0  0  0
    8.6936    2.6331    0.4353 H   0  0  0  0  0  0  0  0  0  0  0  0
    9.6816    5.4629   -0.2437 H   0  0  0  0  0  0  0  0  0  0  0  0
    9.9765    4.6037    1.2620 H   0  0  0  0  0  0  0  0  0  0  0  0
    7.5123    4.5102    1.7115 H   0  0  0  0  0  0  0  0  0  0  0  0
    7.1890    5.3053    0.1729 H   0  0  0  0  0  0  0  0  0  0  0  0
    8.5116    7.3204    0.9546 H   0  0  0  0  0  0  0  0  0  0  0  0
    8.7672    6.5447    2.5102 H   0  0  0  0  0  0  0  0  0  0  0  0
    6.0408    7.2348    1.2809 H   0  0  0  0  0  0  0  0  0  0  0  0
    5.9910    5.3794    3.0770 H   0  0  0  0  0  0  0  0  0  0  0  0
    4.9867    6.8038    3.3793 H   0  0  0  0  0  0  0  0  0  0  0  0
    7.7312    6.2372    4.6469 H   0  0  0  0  0  0  0  0  0  0  0  0
    6.1462    6.2150    5.4559 H   0  0  0  0  0  0  0  0  0  0  0  0
    8.5802    8.4578    3.9684 H   0  0  0  0  0  0  0  0  0  0  0  0
    7.5370    9.8490    4.3499 H   0  0  0  0  0  0  0  0  0  0  0  0
    7.4912    9.2764    1.8831 H   0  0  0  0  0  0  0  0  0  0  0  0
    5.8965    9.1859    2.6555 H   0  0  0  0  0  0  0  0  0  0  0  0
    6.6771    2.4315   -2.4087 H   0  0  0  0  0  0  0  0  0  0  0  0
    7.1426    1.7220   -0.8464 H   0  0  0  0  0  0  0  0  0  0  0  0
    7.7561    0.3153   -2.8384 H   0  0  0  0  0  0  0  0  0  0  0  0
    9.1728    0.7223   -1.8433 H   0  0  0  0  0  0  0  0  0  0  0  0
  1  2  1  0
  1 24  1  0
  1 25  1  0
  1 26  1  0
  2  3  2  0
  2 22  1  0
  3  4  1  0
  3 27  1  0
  4  5  1  0
  4 21  2  0
  5  6  1  0
  5 20  1  0
  6  7  1  0
  6 28  1  0
  6 29  1  0
  7  8  1  0
  7 30  1  0
  7 31  1  0
  8  9  1  0
  8 19  1  0
  9 10  1  0
  9 32  1  0
  9 33  1  0
 10 11  1  0
 10 34  1  0
 10 35  1  0
 11 12  1  0
 11 36  1  0
 11 37  1  0
 12 13  1  0
 12 38  1  0
 12 39  1  0
 13 14  1  0
 13 18  1  0
 13 40  1  6
 14 15  1  0
 14 41  1  0
 14 42  1  0
 15 16  1  0
 15 43  1  0
 15 44  1  0
 16 17  1  0
 17 18  1  0
 17 45  1  0
 17 46  1  0
 18 47  1  0
 18 48  1  0
 19 20  1  0
 19 49  1  0
 19 50  1  0
 20 51  1  0
 20 52  1  0
 21 22  1  0
 22 23  1  0
M  END

