
     RDKit          3D

 43 42  0  0  0  0  0  0  0  0999 V2000
    1.0563   -2.2881   -0.7066 C   0  0  0  0  0  0  0  0  0  0  0  0
    2.5366   -1.9031   -0.7400 C   0  0  0  0  0  0  0  0  0  0  0  0
    2.8384   -0.6451   -1.5609 C   0  0  1  0  0  0  0  0  0  0  0  0
    2.2362    0.6376   -1.0078 C   0  0  0  0  0  0  0  0  0  0  0  0
    4.2732   -0.4354   -1.5895 O   0  0  0  0  0  0  0  0  0  0  0  0
    4.9938   -1.0638   -2.5361 C   0  0  0  0  0  0  0  0  0  0  0  0
    4.5168   -1.7825   -3.3831 O   0  0  0  0  0  0  0  0  0  0  0  0
    6.4682   -0.7546   -2.3852 C   0  0  0  0  0  0  0  0  0  0  0  0
    7.3124   -1.3072   -3.5237 C   0  0  0  0  0  0  0  0  0  0  0  0
    8.8042   -1.1590   -3.3051 C   0  0  0  0  0  0  0  0  0  0  0  0
    9.2736   -0.7734   -2.2556 O   0  0  0  0  0  0  0  0  0  0  0  0
    9.7027   -1.5087   -4.4907 C   0  0  0  0  0  0  0  0  0  0  0  0
   11.0571   -2.0501   -4.0500 C   0  0  0  0  0  0  0  0  0  0  0  0
   10.9291   -3.4199   -3.4119 C   0  0  0  0  0  0  0  0  0  0  0  0
    9.8777   -3.9830   -3.2077 O   0  0  0  0  0  0  0  0  0  0  0  0
   12.1293   -3.9264   -3.0944 O   0  0  0  0  0  0  0  0  0  0  0  0
   12.1793   -5.2208   -2.4363 C   0  0  1  0  0  0  0  0  0  0  0  0
   12.1254   -6.3294   -3.4806 C   0  0  0  0  0  0  0  0  0  0  0  0
   13.4506   -5.2254   -1.6022 C   0  0  0  0  0  0  0  0  0  0  0  0
    0.9140   -3.2393   -0.1706 H   0  0  0  0  0  0  0  0  0  0  0  0
    0.6529   -2.4199   -1.7245 H   0  0  0  0  0  0  0  0  0  0  0  0
    0.4392   -1.5308   -0.1973 H   0  0  0  0  0  0  0  0  0  0  0  0
    3.1154   -2.7319   -1.1782 H   0  0  0  0  0  0  0  0  0  0  0  0
    2.9185   -1.7529    0.2853 H   0  0  0  0  0  0  0  0  0  0  0  0
    2.5072   -0.8103   -2.5987 H   0  0  0  0  0  0  0  0  0  0  0  0
    2.5782    0.8174    0.0241 H   0  0  0  0  0  0  0  0  0  0  0  0
    1.1374    0.5843   -1.0058 H   0  0  0  0  0  0  0  0  0  0  0  0
    2.5347    1.4991   -1.6239 H   0  0  0  0  0  0  0  0  0  0  0  0
    6.8076   -1.1688   -1.4214 H   0  0  0  0  0  0  0  0  0  0  0  0
    6.5895    0.3352   -2.2772 H   0  0  0  0  0  0  0  0  0  0  0  0
    7.0389   -0.8513   -4.4916 H   0  0  0  0  0  0  0  0  0  0  0  0
    7.1197   -2.3861   -3.6604 H   0  0  0  0  0  0  0  0  0  0  0  0
    9.8431   -0.5733   -5.0628 H   0  0  0  0  0  0  0  0  0  0  0  0
    9.1872   -2.2142   -5.1594 H   0  0  0  0  0  0  0  0  0  0  0  0
   11.5087   -1.3777   -3.3031 H   0  0  0  0  0  0  0  0  0  0  0  0
   11.7694   -2.1178   -4.8874 H   0  0  0  0  0  0  0  0  0  0  0  0
   11.2922   -5.2914   -1.7878 H   0  0  0  0  0  0  0  0  0  0  0  0
   12.9688   -6.2437   -4.1848 H   0  0  0  0  0  0  0  0  0  0  0  0
   11.1828   -6.2854   -4.0452 H   0  0  0  0  0  0  0  0  0  0  0  0
   12.1830   -7.3146   -2.9913 H   0  0  0  0  0  0  0  0  0  0  0  0
   14.3398   -5.1140   -2.2431 H   0  0  0  0  0  0  0  0  0  0  0  0
   13.5389   -6.1734   -1.0494 H   0  0  0  0  0  0  0  0  0  0  0  0
   13.4434   -4.3995   -0.8752 H   0  0  0  0  0  0  0  0  0  0  0  0
  1  2  1  0
  1 20  1  0
  1 21  1  0
  1 22  1  0
  2  3  1  0
  2 23  1  0
  2 24  1  0
  3  4  1  0
  3  5  1  0
  3 25  1  6
  4 26  1  0
  4 27  1  0
  4 28  1  0
  5  6  1  0
  6  7  2  0
  6  8  1  0
  8  9  1  0
  8 29  1  0
  8 30  1  0
  9 10  1  0
  9 31  1  0
  9 32  1  0
 10 11  2  0
 10 12  1  0
 12 13  1  0
 12 33  1  0
 12 34  1  0
 13 14  1  0
 13 35  1  0
 13 36  1  0
 14 15  2  0
 14 16  1  0
 16 17  1  0
 17 18  1  0
 17 19  1  0
 17 37  1  1
 18 38  1  0
 18 39  1  0
 18 40  1  0
 19 41  1  0
 19 42  1  0
 19 43  1  0
M  END

