
     RDKit          3D

 89 94  0  0  0  0  0  0  0  0999 V2000
    8.2611   -0.0472   -0.9060 C   0  0  0  0  0  0  0  0  0  0  0  0
    6.9084    0.3674   -0.7872 O   0  0  0  0  0  0  0  0  0  0  0  0
    6.5701    1.0334    0.4293 C   0  0  1  0  0  0  0  0  0  0  0  0
    7.5037    2.1870    0.7671 C   0  0  0  0  0  0  0  0  0  0  0  0
    7.3842    3.2908   -0.2876 C   0  0  2  0  0  0  0  0  0  0  0  0
    7.6542    2.8572   -1.2645 H   0  0  0  0  0  0  0  0  0  0  0  0
    8.2145    4.3834   -0.0254 O   0  0  0  0  0  0  0  0  0  0  0  0
    9.5847    4.1978   -0.3919 C   0  0  0  0  0  0  0  0  0  0  0  0
    9.9242    3.1049   -0.8826 O   0  0  0  0  0  0  0  0  0  0  0  0
   10.3929    5.3302   -0.1287 C   0  0  0  0  0  0  0  0  0  0  0  0
   11.8047    5.3027   -0.4290 C   0  0  0  0  0  0  0  0  0  0  0  0
   12.5690    6.4211   -0.1650 C   0  0  0  0  0  0  0  0  0  0  0  0
   11.9705    7.5722    0.3908 C   0  0  0  0  0  0  0  0  0  0  0  0
   10.6436    7.6224    0.6834 N   0  0  0  0  0  0  0  0  0  0  0  0
    9.9032    6.5630    0.4378 C   0  0  0  0  0  0  0  0  0  0  0  0
    5.9306    3.7615   -0.3039 C   0  0  0  0  0  0  0  0  0  0  0  0
    4.9521    2.5959   -0.5151 C   0  0  1  0  0  0  0  0  0  0  0  0
    3.9526    2.9144   -0.1701 H   0  0  0  0  0  0  0  0  0  0  0  0
    4.8074    2.1889   -1.9971 C   0  0  0  0  0  0  0  0  0  0  0  0
    3.9174    0.9533   -2.1181 C   0  0  0  0  0  0  0  0  0  0  0  0
    3.6072    0.5430   -3.5094 N   0  0  0  0  0  0  0  0  0  0  0  0
    4.2137   -0.4845   -4.1958 C   0  0  0  0  0  0  0  0  0  0  0  0
    5.1640   -1.4378   -3.6437 C   0  0  0  0  0  0  0  0  0  0  0  0
    4.9352   -2.1060   -2.4164 C   0  0  0  0  0  0  0  0  0  0  0  0
    5.8204   -3.0699   -1.9563 C   0  0  0  0  0  0  0  0  0  0  0  0
    6.9612   -3.3564   -2.7115 C   0  0  0  0  0  0  0  0  0  0  0  0
    7.8124   -4.2708   -2.2677 F   0  0  0  0  0  0  0  0  0  0  0  0
    7.2277   -2.7102   -3.9207 C   0  0  0  0  0  0  0  0  0  0  0  0
    6.3217   -1.7692   -4.3905 C   0  0  0  0  0  0  0  0  0  0  0  0
    3.7025   -0.4762   -5.5511 C   0  0  0  0  0  0  0  0  0  0  0  0
    4.0670   -1.4124   -6.6322 C   0  0  0  0  0  0  0  0  0  0  0  0
    4.0547   -2.8080   -6.4328 C   0  0  0  0  0  0  0  0  0  0  0  0
    4.3697   -3.6742   -7.4811 C   0  0  0  0  0  0  0  0  0  0  0  0
    4.7133   -3.1630   -8.7363 C   0  0  0  0  0  0  0  0  0  0  0  0
    4.7314   -1.7795   -8.9449 C   0  0  0  0  0  0  0  0  0  0  0  0
    4.4046   -0.9095   -7.9051 C   0  0  0  0  0  0  0  0  0  0  0  0
    2.7766    0.5635   -5.6236 C   0  0  0  0  0  0  0  0  0  0  0  0
    1.9482    0.9498   -6.8240 C   0  0  0  0  0  0  0  0  0  0  0  0
    1.9664    2.0886   -7.2623 O   0  0  0  0  0  0  0  0  0  0  0  0
    1.2101   -0.0765   -7.3399 N   0  0  0  0  0  0  0  0  0  0  0  0
    0.3653   -0.0871   -8.4757 C   0  0  0  0  0  0  0  0  0  0  0  0
    0.1318    1.0449   -9.2745 C   0  0  0  0  0  0  0  0  0  0  0  0
   -0.7222    0.9392  -10.3759 C   0  0  0  0  0  0  0  0  0  0  0  0
   -1.3462   -0.2693  -10.6946 C   0  0  0  0  0  0  0  0  0  0  0  0
   -1.1100   -1.3932   -9.8968 C   0  0  0  0  0  0  0  0  0  0  0  0
   -0.2607   -1.3049   -8.7952 C   0  0  0  0  0  0  0  0  0  0  0  0
    2.7426    1.2099   -4.3509 C   0  0  0  0  0  0  0  0  0  0  0  0
    1.9126    2.3817   -3.9090 C   0  0  1  0  0  0  0  0  0  0  0  0
    2.3951    3.7069   -4.5457 C   0  0  0  0  0  0  0  0  0  0  0  0
    0.4103    2.1455   -4.1753 C   0  0  0  0  0  0  0  0  0  0  0  0
    5.2331    1.4551    0.3083 O   0  0  0  0  0  0  0  0  0  0  0  0
    8.3267   -0.6612   -1.8157 H   0  0  0  0  0  0  0  0  0  0  0  0
    8.5699   -0.6728   -0.0450 H   0  0  0  0  0  0  0  0  0  0  0  0
    8.9544    0.8053   -0.9991 H   0  0  0  0  0  0  0  0  0  0  0  0
    6.5559    0.2859    1.2475 H   0  0  0  0  0  0  0  0  0  0  0  0
    8.5453    1.8513    0.8397 H   0  0  0  0  0  0  0  0  0  0  0  0
    7.2173    2.5866    1.7540 H   0  0  0  0  0  0  0  0  0  0  0  0
   12.2332    4.3958   -0.8580 H   0  0  0  0  0  0  0  0  0  0  0  0
   13.6416    6.4223   -0.3839 H   0  0  0  0  0  0  0  0  0  0  0  0
   12.5603    8.4682    0.6063 H   0  0  0  0  0  0  0  0  0  0  0  0
    8.8388    6.6339    0.6867 H   0  0  0  0  0  0  0  0  0  0  0  0
    5.7812    4.5247   -1.0849 H   0  0  0  0  0  0  0  0  0  0  0  0
    5.7133    4.2469    0.6611 H   0  0  0  0  0  0  0  0  0  0  0  0
    4.3807    3.0446   -2.5420 H   0  0  0  0  0  0  0  0  0  0  0  0
    5.7921    1.9699   -2.4325 H   0  0  0  0  0  0  0  0  0  0  0  0
    2.9595    1.0932   -1.5961 H   0  0  0  0  0  0  0  0  0  0  0  0
    4.4296    0.1265   -1.6251 H   0  0  0  0  0  0  0  0  0  0  0  0
    4.0346   -1.9019   -1.8369 H   0  0  0  0  0  0  0  0  0  0  0  0
    5.6481   -3.6041   -1.0212 H   0  0  0  0  0  0  0  0  0  0  0  0
    8.1385   -2.9517   -4.4702 H   0  0  0  0  0  0  0  0  0  0  0  0
    6.5258   -1.2546   -5.3296 H   0  0  0  0  0  0  0  0  0  0  0  0
    3.7796   -3.2165   -5.4585 H   0  0  0  0  0  0  0  0  0  0  0  0
    4.3464   -4.7537   -7.3161 H   0  0  0  0  0  0  0  0  0  0  0  0
    4.9662   -3.8426   -9.5532 H   0  0  0  0  0  0  0  0  0  0  0  0
    5.0028   -1.3753   -9.9224 H   0  0  0  0  0  0  0  0  0  0  0  0
    4.4277    0.1699   -8.0716 H   0  0  0  0  0  0  0  0  0  0  0  0
    1.2971   -0.9684   -6.8659 H   0  0  0  0  0  0  0  0  0  0  0  0
    0.6155    1.9871   -9.0297 H   0  0  0  0  0  0  0  0  0  0  0  0
   -0.8989    1.8237  -10.9928 H   0  0  0  0  0  0  0  0  0  0  0  0
   -2.0118   -0.3365  -11.5579 H   0  0  0  0  0  0  0  0  0  0  0  0
   -1.5892   -2.3467  -10.1315 H   0  0  0  0  0  0  0  0  0  0  0  0
   -0.0794   -2.1883   -8.1753 H   0  0  0  0  0  0  0  0  0  0  0  0
    2.0371    2.4709   -2.8217 H   0  0  0  0  0  0  0  0  0  0  0  0
    2.2713    3.6818   -5.6356 H   0  0  0  0  0  0  0  0  0  0  0  0
    3.4530    3.9046   -4.3217 H   0  0  0  0  0  0  0  0  0  0  0  0
    1.8012    4.5359   -4.1329 H   0  0  0  0  0  0  0  0  0  0  0  0
    0.1784    2.1588   -5.2495 H   0  0  0  0  0  0  0  0  0  0  0  0
   -0.1653    2.9566   -3.7055 H   0  0  0  0  0  0  0  0  0  0  0  0
    0.0608    1.1934   -3.7467 H   0  0  0  0  0  0  0  0  0  0  0  0
  1  2  1  0
  1 52  1  0
  1 53  1  0
  1 54  1  0
  2  3  1  0
  3  4  1  0
  3 51  1  0
  3 55  1  1
  4  5  1  0
  4 56  1  0
  4 57  1  0
  5  6  1  6
  5  7  1  0
  5 16  1  0
  7  8  1  0
  8  9  2  0
  8 10  1  0
 10 11  2  0
 10 15  1  0
 11 12  1  0
 11 58  1  0
 12 13  2  0
 12 59  1  0
 13 14  1  0
 13 60  1  0
 14 15  2  0
 15 61  1  0
 16 17  1  0
 16 62  1  0
 16 63  1  0
 17 18  1  1
 17 19  1  0
 17 51  1  0
 19 20  1  0
 19 64  1  0
 19 65  1  0
 20 21  1  0
 20 66  1  0
 20 67  1  0
 21 22  1  0
 21 47  1  0
 22 23  1  0
 22 30  2  0
 23 24  2  0
 23 29  1  0
 24 25  1  0
 24 68  1  0
 25 26  2  0
 25 69  1  0
 26 27  1  0
 26 28  1  0
 28 29  2  0
 28 70  1  0
 29 71  1  0
 30 31  1  0
 30 37  1  0
 31 32  2  0
 31 36  1  0
 32 33  1  0
 32 72  1  0
 33 34  2  0
 33 73  1  0
 34 35  1  0
 34 74  1  0
 35 36  2  0
 35 75  1  0
 36 76  1  0
 37 38  1  0
 37 47  2  0
 38 39  2  0
 38 40  1  0
 40 41  1  0
 40 77  1  0
 41 42  2  0
 41 46  1  0
 42 43  1  0
 42 78  1  0
 43 44  2  0
 43 79  1  0
 44 45  1  0
 44 80  1  0
 45 46  2  0
 45 81  1  0
 46 82  1  0
 47 48  1  0
 48 49  1  0
 48 50  1  0
 48 83  1  1
 49 84  1  0
 49 85  1  0
 49 86  1  0
 50 87  1  0
 50 88  1  0
 50 89  1  0
M  END

