
     RDKit          3D

126130  0  0  0  0  0  0  0  0999 V2000
   24.2241    6.9257  -10.0857 C   0  0  0  0  0  0  0  0  0  0  0  0
   24.1560    6.8576   -8.5596 C   0  0  0  0  0  0  0  0  0  0  0  0
   23.0948    5.8836   -8.0377 C   0  0  0  0  0  0  0  0  0  0  0  0
   23.0241    5.8069   -6.5093 C   0  0  0  0  0  0  0  0  0  0  0  0
   21.9483    4.8427   -6.0061 C   0  0  0  0  0  0  0  0  0  0  0  0
   21.8668    4.6421   -4.4834 C   0  0  0  0  0  0  0  0  0  0  0  0
   21.5285    5.8156   -3.6630 N   0  0  0  0  0  0  0  0  0  0  0  0
   22.5558    6.3157   -2.7352 C   0  0  0  0  0  0  0  0  0  0  0  0
   23.5396    7.3467   -3.2982 C   0  0  0  0  0  0  0  0  0  0  0  0
   24.4550    7.9169   -2.2099 C   0  0  0  0  0  0  0  0  0  0  0  0
   25.5025    8.8947   -2.7497 C   0  0  0  0  0  0  0  0  0  0  0  0
   26.4165    9.4801   -1.6686 C   0  0  0  0  0  0  0  0  0  0  0  0
   27.4607   10.4545   -2.2152 C   0  0  0  0  0  0  0  0  0  0  0  0
   20.2536    6.2792   -3.6149 C   0  0  0  0  0  0  0  0  0  0  0  0
   19.7349    7.4194   -2.9936 C   0  0  0  0  0  0  0  0  0  0  0  0
   20.4755    8.4685   -2.3892 C   0  0  0  0  0  0  0  0  0  0  0  0
   21.0822    9.3448   -1.9181 N   0  0  0  0  0  0  0  0  0  0  0  0
   18.2704    7.4401   -3.1597 C   0  0  0  0  0  0  0  0  0  0  0  0
   17.8862    6.3163   -3.9185 C   0  0  0  0  0  0  0  0  0  0  0  0
   16.5652    6.0759   -4.3177 C   0  0  0  0  0  0  0  0  0  0  0  0
   16.2395    4.9062   -5.1668 C   0  0  0  0  0  0  0  0  0  0  0  0
   15.9594    4.8891   -6.5240 C   0  0  0  0  0  0  0  0  0  0  0  0
   15.6992    3.6003   -7.0357 C   0  0  0  0  0  0  0  0  0  0  0  0
   15.7776    2.6009   -6.0678 C   0  0  0  0  0  0  0  0  0  0  0  0
   15.5859    1.1830   -6.1390 C   0  0  0  0  0  0  0  0  0  0  0  0
   15.3083    0.3928   -7.2299 C   0  0  0  0  0  0  0  0  0  0  0  0
   15.1658    0.9008   -8.5611 C   0  0  0  0  0  0  0  0  0  0  0  0
   15.0580    1.3241   -9.6379 N   0  0  0  0  0  0  0  0  0  0  0  0
   15.1568   -1.0239   -7.0627 C   0  0  0  0  0  0  0  0  0  0  0  0
   15.0394   -2.1711   -6.9212 N   0  0  0  0  0  0  0  0  0  0  0  0
   16.1748    3.3040   -4.5098 S   0  0  0  0  0  0  0  0  0  0  0  0
   15.5895    7.0102   -3.9005 C   0  0  0  0  0  0  0  0  0  0  0  0
   15.9724    8.1323   -3.1381 C   0  0  0  0  0  0  0  0  0  0  0  0
   17.2933    8.3721   -2.7382 C   0  0  0  0  0  0  0  0  0  0  0  0
   17.6170    9.5396   -1.8853 C   0  0  0  0  0  0  0  0  0  0  0  0
   17.9052    9.5519   -0.5299 C   0  0  0  0  0  0  0  0  0  0  0  0
   18.1593   10.8396   -0.0128 C   0  0  0  0  0  0  0  0  0  0  0  0
   18.0687   11.8437   -0.9750 C   0  0  0  0  0  0  0  0  0  0  0  0
   18.2543   13.2621   -0.8985 C   0  0  0  0  0  0  0  0  0  0  0  0
   18.5197   14.0506    0.1967 C   0  0  0  0  0  0  0  0  0  0  0  0
   18.6465   13.5395    1.5283 C   0  0  0  0  0  0  0  0  0  0  0  0
   18.7392   13.1127    2.6051 N   0  0  0  0  0  0  0  0  0  0  0  0
   18.6702   15.4679    0.0343 C   0  0  0  0  0  0  0  0  0  0  0  0
   18.7868   16.6156   -0.1037 N   0  0  0  0  0  0  0  0  0  0  0  0
   17.6667   11.1459   -2.5343 S   0  0  0  0  0  0  0  0  0  0  0  0
   14.7473    8.9434   -2.8120 C   0  0  0  0  0  0  0  0  0  0  0  0
   13.6072    8.1774   -3.4615 C   0  0  0  0  0  0  0  0  0  0  0  0
   12.3384    8.6514   -3.4207 N   0  0  0  0  0  0  0  0  0  0  0  0
   11.2827    8.1976   -4.3395 C   0  0  0  0  0  0  0  0  0  0  0  0
   10.2008    7.2955   -3.7252 C   0  0  0  0  0  0  0  0  0  0  0  0
    8.9127    7.2298   -4.5640 C   0  0  0  0  0  0  0  0  0  0  0  0
    9.0159    6.6044   -5.9654 C   0  0  0  0  0  0  0  0  0  0  0  0
    9.3403    5.1029   -6.0231 C   0  0  0  0  0  0  0  0  0  0  0  0
    8.3109    4.2005   -5.3379 C   0  0  0  0  0  0  0  0  0  0  0  0
   11.9924    9.7573   -2.5172 C   0  0  0  0  0  0  0  0  0  0  0  0
   11.7682    9.3481   -1.0505 C   0  0  0  0  0  0  0  0  0  0  0  0
   11.2886   10.4855   -0.1283 C   0  0  0  0  0  0  0  0  0  0  0  0
   12.3624   11.3929    0.4950 C   0  0  0  0  0  0  0  0  0  0  0  0
   13.1220   12.3307   -0.4516 C   0  0  0  0  0  0  0  0  0  0  0  0
   14.0251   13.3204    0.2873 C   0  0  0  0  0  0  0  0  0  0  0  0
   14.1266    7.0349   -4.0752 C   0  0  0  0  0  0  0  0  0  0  0  0
   13.3803    5.9801   -4.6574 C   0  0  0  0  0  0  0  0  0  0  0  0
   12.7699    5.0923   -5.1008 N   0  0  0  0  0  0  0  0  0  0  0  0
   19.1100    5.5058   -4.2475 C   0  0  0  0  0  0  0  0  0  0  0  0
   24.9945    7.6364  -10.4243 H   0  0  0  0  0  0  0  0  0  0  0  0
   23.2615    7.2487  -10.5165 H   0  0  0  0  0  0  0  0  0  0  0  0
   24.4652    5.9415  -10.5212 H   0  0  0  0  0  0  0  0  0  0  0  0
   23.9537    7.8652   -8.1532 H   0  0  0  0  0  0  0  0  0  0  0  0
   25.1439    6.5663   -8.1586 H   0  0  0  0  0  0  0  0  0  0  0  0
   23.2923    4.8752   -8.4471 H   0  0  0  0  0  0  0  0  0  0  0  0
   22.1050    6.1776   -8.4344 H   0  0  0  0  0  0  0  0  0  0  0  0
   22.8359    6.8154   -6.1041 H   0  0  0  0  0  0  0  0  0  0  0  0
   24.0095    5.4979   -6.1142 H   0  0  0  0  0  0  0  0  0  0  0  0
   22.1264    3.8414   -6.4384 H   0  0  0  0  0  0  0  0  0  0  0  0
   20.9683    5.1587   -6.4008 H   0  0  0  0  0  0  0  0  0  0  0  0
   22.8409    4.2804   -4.1227 H   0  0  0  0  0  0  0  0  0  0  0  0
   21.1459    3.8330   -4.2730 H   0  0  0  0  0  0  0  0  0  0  0  0
   23.1153    5.4379   -2.3693 H   0  0  0  0  0  0  0  0  0  0  0  0
   22.0447    6.7363   -1.8591 H   0  0  0  0  0  0  0  0  0  0  0  0
   22.9753    8.1686   -3.7676 H   0  0  0  0  0  0  0  0  0  0  0  0
   24.1487    6.8837   -4.0921 H   0  0  0  0  0  0  0  0  0  0  0  0
   24.9664    7.0884   -1.6838 H   0  0  0  0  0  0  0  0  0  0  0  0
   23.8331    8.4286   -1.4547 H   0  0  0  0  0  0  0  0  0  0  0  0
   24.9885    9.7191   -3.2773 H   0  0  0  0  0  0  0  0  0  0  0  0
   26.1207    8.3866   -3.5139 H   0  0  0  0  0  0  0  0  0  0  0  0
   26.9247    8.6549   -1.1366 H   0  0  0  0  0  0  0  0  0  0  0  0
   25.7965    9.9895   -0.9091 H   0  0  0  0  0  0  0  0  0  0  0  0
   28.1205    9.9647   -2.9512 H   0  0  0  0  0  0  0  0  0  0  0  0
   28.0992   10.8563   -1.4124 H   0  0  0  0  0  0  0  0  0  0  0  0
   26.9836   11.3111   -2.7203 H   0  0  0  0  0  0  0  0  0  0  0  0
   15.9373    5.7975   -7.1271 H   0  0  0  0  0  0  0  0  0  0  0  0
   15.4546    3.4051   -8.0789 H   0  0  0  0  0  0  0  0  0  0  0  0
   15.6737    0.6423   -5.1920 H   0  0  0  0  0  0  0  0  0  0  0  0
   17.9381    8.6405    0.0681 H   0  0  0  0  0  0  0  0  0  0  0  0
   18.4099   11.0309    1.0297 H   0  0  0  0  0  0  0  0  0  0  0  0
   18.1719   13.8049   -1.8449 H   0  0  0  0  0  0  0  0  0  0  0  0
   14.8053    9.9690   -3.2157 H   0  0  0  0  0  0  0  0  0  0  0  0
   14.6116    9.0521   -1.7235 H   0  0  0  0  0  0  0  0  0  0  0  0
   11.7608    7.7040   -5.1944 H   0  0  0  0  0  0  0  0  0  0  0  0
   10.8028    9.1104   -4.7362 H   0  0  0  0  0  0  0  0  0  0  0  0
    9.9329    7.6914   -2.7319 H   0  0  0  0  0  0  0  0  0  0  0  0
   10.6170    6.2893   -3.5561 H   0  0  0  0  0  0  0  0  0  0  0  0
    8.5191    8.2578   -4.6705 H   0  0  0  0  0  0  0  0  0  0  0  0
    8.1510    6.6871   -3.9794 H   0  0  0  0  0  0  0  0  0  0  0  0
    9.7661    7.1534   -6.5626 H   0  0  0  0  0  0  0  0  0  0  0  0
    8.0522    6.7783   -6.4785 H   0  0  0  0  0  0  0  0  0  0  0  0
   10.3428    4.9129   -5.6063 H   0  0  0  0  0  0  0  0  0  0  0  0
    9.4116    4.8166   -7.0872 H   0  0  0  0  0  0  0  0  0  0  0  0
    8.2627    4.3722   -4.2499 H   0  0  0  0  0  0  0  0  0  0  0  0
    8.5600    3.1375   -5.4844 H   0  0  0  0  0  0  0  0  0  0  0  0
    7.2964    4.3620   -5.7424 H   0  0  0  0  0  0  0  0  0  0  0  0
   11.0663   10.2083   -2.9043 H   0  0  0  0  0  0  0  0  0  0  0  0
   12.7604   10.5416   -2.5884 H   0  0  0  0  0  0  0  0  0  0  0  0
   12.6880    8.8993   -0.6370 H   0  0  0  0  0  0  0  0  0  0  0  0
   11.0176    8.5422   -1.0412 H   0  0  0  0  0  0  0  0  0  0  0  0
   10.7305   10.0226    0.7024 H   0  0  0  0  0  0  0  0  0  0  0  0
   10.5477   11.1064   -0.6664 H   0  0  0  0  0  0  0  0  0  0  0  0
   13.0890   10.7661    1.0451 H   0  0  0  0  0  0  0  0  0  0  0  0
   11.8687   12.0127    1.2646 H   0  0  0  0  0  0  0  0  0  0  0  0
   12.3961   12.8859   -1.0738 H   0  0  0  0  0  0  0  0  0  0  0  0
   13.7397   11.7445   -1.1545 H   0  0  0  0  0  0  0  0  0  0  0  0
   13.4421   13.9628    0.9679 H   0  0  0  0  0  0  0  0  0  0  0  0
   14.5615   13.9803   -0.4127 H   0  0  0  0  0  0  0  0  0  0  0  0
   14.7802   12.7963    0.8963 H   0  0  0  0  0  0  0  0  0  0  0  0
   19.2337    5.3863   -5.3353 H   0  0  0  0  0  0  0  0  0  0  0  0
   19.0578    4.4830   -3.8353 H   0  0  0  0  0  0  0  0  0  0  0  0
  1  2  1  0
  1 65  1  0
  1 66  1  0
  1 67  1  0
  2  3  1  0
  2 68  1  0
  2 69  1  0
  3  4  1  0
  3 70  1  0
  3 71  1  0
  4  5  1  0
  4 72  1  0
  4 73  1  0
  5  6  1  0
  5 74  1  0
  5 75  1  0
  6  7  1  0
  6 76  1  0
  6 77  1  0
  7  8  1  0
  7 14  1  0
  8  9  1  0
  8 78  1  0
  8 79  1  0
  9 10  1  0
  9 80  1  0
  9 81  1  0
 10 11  1  0
 10 82  1  0
 10 83  1  0
 11 12  1  0
 11 84  1  0
 11 85  1  0
 12 13  1  0
 12 86  1  0
 12 87  1  0
 13 88  1  0
 13 89  1  0
 13 90  1  0
 14 15  2  0
 14 64  1  0
 15 16  1  0
 15 18  1  0
 16 17  3  0
 18 19  2  0
 18 34  1  0
 19 20  1  0
 19 64  1  0
 20 21  1  0
 20 32  2  0
 21 22  2  0
 21 31  1  0
 22 23  1  0
 22 91  1  0
 23 24  2  0
 23 92  1  0
 24 25  1  0
 24 31  1  0
 25 26  2  0
 25 93  1  0
 26 27  1  0
 26 29  1  0
 27 28  3  0
 29 30  3  0
 32 33  1  0
 32 61  1  0
 33 34  2  0
 33 46  1  0
 34 35  1  0
 35 36  2  0
 35 45  1  0
 36 37  1  0
 36 94  1  0
 37 38  2  0
 37 95  1  0
 38 39  1  0
 38 45  1  0
 39 40  2  0
 39 96  1  0
 40 41  1  0
 40 43  1  0
 41 42  3  0
 43 44  3  0
 46 47  1  0
 46 97  1  0
 46 98  1  0
 47 48  1  0
 47 61  2  0
 48 49  1  0
 48 55  1  0
 49 50  1  0
 49 99  1  0
 49100  1  0
 50 51  1  0
 50101  1  0
 50102  1  0
 51 52  1  0
 51103  1  0
 51104  1  0
 52 53  1  0
 52105  1  0
 52106  1  0
 53 54  1  0
 53107  1  0
 53108  1  0
 54109  1  0
 54110  1  0
 54111  1  0
 55 56  1  0
 55112  1  0
 55113  1  0
 56 57  1  0
 56114  1  0
 56115  1  0
 57 58  1  0
 57116  1  0
 57117  1  0
 58 59  1  0
 58118  1  0
 58119  1  0
 59 60  1  0
 59120  1  0
 59121  1  0
 60122  1  0
 60123  1  0
 60124  1  0
 61 62  1  0
 62 63  3  0
 64125  1  0
 64126  1  0
M  END

