
     RDKit          3D

 75 81  0  0  0  0  0  0  0  0999 V2000
   15.4669    1.2886    1.7195 C   0  0  0  0  0  0  0  0  0  0  0  0
   14.8450    1.4666    0.5529 C   0  0  0  0  0  0  0  0  0  0  0  0
   14.4534    0.3799   -0.4162 C   0  0  1  0  0  0  0  0  0  0  0  0
   14.9749    0.6334   -1.6926 O   0  0  0  0  0  0  0  0  0  0  0  0
   14.8701   -0.8654    0.1056 O   0  0  0  0  0  0  0  0  0  0  0  0
   14.3675   -2.0269   -0.4078 C   0  0  0  0  0  0  0  0  0  0  0  0
   14.5405   -3.1770    0.3781 C   0  0  0  0  0  0  0  0  0  0  0  0
   14.0595   -4.4059   -0.0607 C   0  0  0  0  0  0  0  0  0  0  0  0
   13.3909   -4.5350   -1.2953 C   0  0  0  0  0  0  0  0  0  0  0  0
   12.8759   -5.8477   -1.7586 C   0  0  0  0  0  0  0  0  0  0  0  0
   12.3688   -6.7944   -0.8443 C   0  0  0  0  0  0  0  0  0  0  0  0
   11.8875   -8.0264   -1.2757 C   0  0  0  0  0  0  0  0  0  0  0  0
   11.8953   -8.3557   -2.6407 C   0  0  0  0  0  0  0  0  0  0  0  0
   11.3688   -9.6886   -3.0452 C   0  0  0  0  0  0  0  0  0  0  0  0
   10.9244  -10.5103   -2.2732 O   0  0  0  0  0  0  0  0  0  0  0  0
   11.4388   -9.8847   -4.3807 O   0  0  0  0  0  0  0  0  0  0  0  0
   10.9961  -11.1318   -4.9507 C   0  0  2  0  0  0  0  0  0  0  0  0
    9.5286  -11.4654   -4.6327 C   0  0  0  0  0  0  0  0  0  0  0  0
    8.9989  -12.2195   -5.7201 O   0  0  0  0  0  0  0  0  0  0  0  0
    8.6085  -13.5135   -5.4979 C   0  0  0  0  0  0  0  0  0  0  0  0
    7.5146  -13.7720   -4.6321 C   0  0  0  0  0  0  0  0  0  0  0  0
    7.0867  -15.0618   -4.4215 C   0  0  0  0  0  0  0  0  0  0  0  0
    7.7361  -16.1547   -5.0570 C   0  0  0  0  0  0  0  0  0  0  0  0
    7.3237  -17.4978   -4.8296 C   0  0  0  0  0  0  0  0  0  0  0  0
    7.9804  -18.5538   -5.4236 C   0  0  0  0  0  0  0  0  0  0  0  0
    9.0888  -18.3049   -6.2703 C   0  0  0  0  0  0  0  0  0  0  0  0
    9.5080  -17.0143   -6.5195 C   0  0  0  0  0  0  0  0  0  0  0  0
    8.8439  -15.8955   -5.9360 C   0  0  0  0  0  0  0  0  0  0  0  0
    9.2662  -14.5412   -6.1662 C   0  0  0  0  0  0  0  0  0  0  0  0
   10.4195  -14.2127   -7.0578 C   0  0  0  0  0  0  0  0  0  0  0  0
   11.5728  -13.6706   -6.4979 C   0  0  0  0  0  0  0  0  0  0  0  0
   12.7066  -13.3594   -7.2923 C   0  0  0  0  0  0  0  0  0  0  0  0
   12.6765  -13.5676   -8.6519 C   0  0  0  0  0  0  0  0  0  0  0  0
   11.5137  -14.0839   -9.2846 C   0  0  0  0  0  0  0  0  0  0  0  0
   11.4558  -14.2765  -10.6935 C   0  0  0  0  0  0  0  0  0  0  0  0
   10.3130  -14.7524  -11.2992 C   0  0  0  0  0  0  0  0  0  0  0  0
    9.1727  -15.0506  -10.5125 C   0  0  0  0  0  0  0  0  0  0  0  0
    9.1988  -14.8840   -9.1433 C   0  0  0  0  0  0  0  0  0  0  0  0
   10.3675  -14.4077   -8.4795 C   0  0  0  0  0  0  0  0  0  0  0  0
   11.6035  -13.4978   -5.1372 O   0  0  0  0  0  0  0  0  0  0  0  0
   11.9980  -12.2466   -4.6034 C   0  0  0  0  0  0  0  0  0  0  0  0
   12.3950   -7.4225   -3.5635 C   0  0  0  0  0  0  0  0  0  0  0  0
   12.8771   -6.1913   -3.1259 C   0  0  0  0  0  0  0  0  0  0  0  0
   13.2368   -3.3719   -2.0700 C   0  0  0  0  0  0  0  0  0  0  0  0
   13.7166   -2.1308   -1.6464 C   0  0  0  0  0  0  0  0  0  0  0  0
   15.7350    2.1406    2.3500 H   0  0  0  0  0  0  0  0  0  0  0  0
   15.7215    0.2887    2.0776 H   0  0  0  0  0  0  0  0  0  0  0  0
   14.5883    2.4714    0.1994 H   0  0  0  0  0  0  0  0  0  0  0  0
   13.3567    0.3659   -0.5564 H   0  0  0  0  0  0  0  0  0  0  0  0
   15.9319    0.7589   -1.6032 H   0  0  0  0  0  0  0  0  0  0  0  0
   15.0605   -3.0844    1.3337 H   0  0  0  0  0  0  0  0  0  0  0  0
   14.2248   -5.2888    0.5608 H   0  0  0  0  0  0  0  0  0  0  0  0
   12.3283   -6.5485    0.2189 H   0  0  0  0  0  0  0  0  0  0  0  0
   11.4881   -8.7527   -0.5652 H   0  0  0  0  0  0  0  0  0  0  0  0
   11.0329  -10.9410   -6.0330 H   0  0  0  0  0  0  0  0  0  0  0  0
    8.9662  -10.5197   -4.5561 H   0  0  0  0  0  0  0  0  0  0  0  0
    9.4302  -12.0076   -3.6823 H   0  0  0  0  0  0  0  0  0  0  0  0
    7.0137  -12.9277   -4.1532 H   0  0  0  0  0  0  0  0  0  0  0  0
    6.2389  -15.2604   -3.7604 H   0  0  0  0  0  0  0  0  0  0  0  0
    6.4746  -17.6769   -4.1641 H   0  0  0  0  0  0  0  0  0  0  0  0
    7.6553  -19.5806   -5.2382 H   0  0  0  0  0  0  0  0  0  0  0  0
    9.6190  -19.1439   -6.7284 H   0  0  0  0  0  0  0  0  0  0  0  0
   10.3672  -16.8409   -7.1683 H   0  0  0  0  0  0  0  0  0  0  0  0
   13.6077  -12.9735   -6.8119 H   0  0  0  0  0  0  0  0  0  0  0  0
   13.5539  -13.3368   -9.2622 H   0  0  0  0  0  0  0  0  0  0  0  0
   12.3392  -14.0324  -11.2904 H   0  0  0  0  0  0  0  0  0  0  0  0
   10.2804  -14.8937  -12.3824 H   0  0  0  0  0  0  0  0  0  0  0  0
    8.2622  -15.4138  -10.9960 H   0  0  0  0  0  0  0  0  0  0  0  0
    8.3111  -15.1123   -8.5523 H   0  0  0  0  0  0  0  0  0  0  0  0
   13.0038  -11.9435   -4.9460 H   0  0  0  0  0  0  0  0  0  0  0  0
   12.0343  -12.3889   -3.5156 H   0  0  0  0  0  0  0  0  0  0  0  0
   12.4115   -7.6729   -4.6249 H   0  0  0  0  0  0  0  0  0  0  0  0
   13.2871   -5.4909   -3.8566 H   0  0  0  0  0  0  0  0  0  0  0  0
   12.7132   -3.4264   -3.0271 H   0  0  0  0  0  0  0  0  0  0  0  0
   13.6100   -1.2575   -2.2888 H   0  0  0  0  0  0  0  0  0  0  0  0
  1  2  2  0
  1 46  1  0
  1 47  1  0
  2  3  1  0
  2 48  1  0
  3  4  1  0
  3  5  1  0
  3 49  1  6
  4 50  1  0
  5  6  1  0
  6  7  2  0
  6 45  1  0
  7  8  1  0
  7 51  1  0
  8  9  2  0
  8 52  1  0
  9 10  1  0
  9 44  1  0
 10 11  2  0
 10 43  1  0
 11 12  1  0
 11 53  1  0
 12 13  2  0
 12 54  1  0
 13 14  1  0
 13 42  1  0
 14 15  2  0
 14 16  1  0
 16 17  1  0
 17 18  1  0
 17 41  1  0
 17 55  1  6
 18 19  1  0
 18 56  1  0
 18 57  1  0
 19 20  1  0
 20 21  1  0
 20 29  2  0
 21 22  2  0
 21 58  1  0
 22 23  1  0
 22 59  1  0
 23 24  1  0
 23 28  2  0
 24 25  2  0
 24 60  1  0
 25 26  1  0
 25 61  1  0
 26 27  2  0
 26 62  1  0
 27 28  1  0
 27 63  1  0
 28 29  1  0
 29 30  1  0
 30 31  2  0
 30 39  1  0
 31 32  1  0
 31 40  1  0
 32 33  2  0
 32 64  1  0
 33 34  1  0
 33 65  1  0
 34 35  1  0
 34 39  2  0
 35 36  2  0
 35 66  1  0
 36 37  1  0
 36 67  1  0
 37 38  2  0
 37 68  1  0
 38 39  1  0
 38 69  1  0
 40 41  1  0
 41 70  1  0
 41 71  1  0
 42 43  2  0
 42 72  1  0
 43 73  1  0
 44 45  2  0
 44 74  1  0
 45 75  1  0
M  END

