
     RDKit          3D

 47 50  0  0  0  0  0  0  0  0999 V2000
    8.7733   -4.1020   -1.5531 N   0  0  0  0  0  0  0  0  0  0  0  0
    8.9176   -2.8473   -1.0606 C   0  0  0  0  0  0  0  0  0  0  0  0
    8.3640   -2.3574   -0.0134 N   0  0  0  0  0  0  0  0  0  0  0  0
    8.9174   -1.0147    0.1628 C   0  0  2  0  0  0  0  0  0  0  0  0
    7.8298    0.0449    0.3741 C   0  0  0  0  0  0  0  0  0  0  0  0
    6.8081   -0.3072    1.4829 C   0  0  0  0  0  0  0  0  0  0  0  0
    7.3978   -0.4780    2.8530 C   0  0  0  0  0  0  0  0  0  0  0  0
    7.4392    0.5985    3.7755 C   0  0  0  0  0  0  0  0  0  0  0  0
    7.9908    0.4672    5.0330 C   0  0  0  0  0  0  0  0  0  0  0  0
    8.5451   -0.7951    5.4391 C   0  0  0  0  0  0  0  0  0  0  0  0
    9.1017   -1.0075    6.6422 N   0  0  0  0  0  0  0  0  0  0  0  0
    9.2972   -0.1118    7.7579 C   0  0  0  0  0  0  0  0  0  0  0  0
    8.9357    1.0401    7.7346 O   0  0  0  0  0  0  0  0  0  0  0  0
    9.9830   -0.8299    8.8610 C   0  0  0  0  0  0  0  0  0  0  0  0
   10.3032   -0.2103   10.0610 C   0  0  0  0  0  0  0  0  0  0  0  0
   10.9532   -0.9616   11.0472 C   0  0  0  0  0  0  0  0  0  0  0  0
   11.2641   -2.3340   10.7893 C   0  0  0  0  0  0  0  0  0  0  0  0
   11.9177   -3.1731   11.7196 C   0  0  0  0  0  0  0  0  0  0  0  0
   12.2005   -4.5112   11.4220 C   0  0  0  0  0  0  0  0  0  0  0  0
   11.8352   -5.0470   10.1815 C   0  0  0  0  0  0  0  0  0  0  0  0
   11.1872   -4.2479    9.2351 C   0  0  0  0  0  0  0  0  0  0  0  0
   10.8868   -2.8901    9.5045 C   0  0  0  0  0  0  0  0  0  0  0  0
   10.2556   -2.1339    8.5636 N   0  0  0  0  0  0  0  0  0  0  0  0
    8.5014   -1.8880    4.5062 C   0  0  0  0  0  0  0  0  0  0  0  0
    7.9460   -1.7270    3.2574 C   0  0  0  0  0  0  0  0  0  0  0  0
    9.7672   -0.7825   -1.1198 C   0  0  0  0  0  0  0  0  0  0  0  0
    9.7852   -2.0698   -1.7596 O   0  0  0  0  0  0  0  0  0  0  0  0
    8.0386   -4.6736   -1.1585 H   0  0  0  0  0  0  0  0  0  0  0  0
    9.0544   -4.2781   -2.5086 H   0  0  0  0  0  0  0  0  0  0  0  0
    9.5777   -1.0118    1.0516 H   0  0  0  0  0  0  0  0  0  0  0  0
    7.2636    0.1685   -0.5650 H   0  0  0  0  0  0  0  0  0  0  0  0
    8.3062    1.0166    0.5942 H   0  0  0  0  0  0  0  0  0  0  0  0
    6.3135   -1.2441    1.1842 H   0  0  0  0  0  0  0  0  0  0  0  0
    6.0456    0.4873    1.5119 H   0  0  0  0  0  0  0  0  0  0  0  0
    7.0149    1.5623    3.4824 H   0  0  0  0  0  0  0  0  0  0  0  0
    8.0175    1.2960    5.7367 H   0  0  0  0  0  0  0  0  0  0  0  0
    9.5066   -1.9265    6.9390 H   0  0  0  0  0  0  0  0  0  0  0  0
   10.0465    0.8391   10.2144 H   0  0  0  0  0  0  0  0  0  0  0  0
   11.2252   -0.5176   12.0064 H   0  0  0  0  0  0  0  0  0  0  0  0
   12.2027   -2.7547   12.6890 H   0  0  0  0  0  0  0  0  0  0  0  0
   12.7074   -5.1372   12.1612 H   0  0  0  0  0  0  0  0  0  0  0  0
   12.0564   -6.0924    9.9502 H   0  0  0  0  0  0  0  0  0  0  0  0
   10.8959   -4.6511    8.2627 H   0  0  0  0  0  0  0  0  0  0  0  0
    8.9205   -2.8492    4.8093 H   0  0  0  0  0  0  0  0  0  0  0  0
    7.9310   -2.5562    2.5461 H   0  0  0  0  0  0  0  0  0  0  0  0
   10.8035   -0.4748   -0.9199 H   0  0  0  0  0  0  0  0  0  0  0  0
    9.3060   -0.0542   -1.8091 H   0  0  0  0  0  0  0  0  0  0  0  0
  1  2  1  0
  1 28  1  0
  1 29  1  0
  2  3  2  0
  2 27  1  0
  3  4  1  0
  4  5  1  0
  4 26  1  0
  4 30  1  1
  5  6  1  0
  5 31  1  0
  5 32  1  0
  6  7  1  0
  6 33  1  0
  6 34  1  0
  7  8  2  0
  7 25  1  0
  8  9  1  0
  8 35  1  0
  9 10  2  0
  9 36  1  0
 10 11  1  0
 10 24  1  0
 11 12  1  0
 11 37  1  0
 12 13  2  0
 12 14  1  0
 14 15  2  0
 14 23  1  0
 15 16  1  0
 15 38  1  0
 16 17  2  0
 16 39  1  0
 17 18  1  0
 17 22  1  0
 18 19  2  0
 18 40  1  0
 19 20  1  0
 19 41  1  0
 20 21  2  0
 20 42  1  0
 21 22  1  0
 21 43  1  0
 22 23  2  0
 24 25  2  0
 24 44  1  0
 25 45  1  0
 26 27  1  0
 26 46  1  0
 26 47  1  0
M  END

