
     RDKit          3D

116126  0  0  0  0  0  0  0  0999 V2000
    1.2657    1.1337    0.5917 C   0  0  0  0  0  0  0  0  0  0  0  0
    0.2190    0.3886    0.0838 C   0  0  0  0  0  0  0  0  0  0  0  0
   -1.1103    0.7960   -0.2679 C   0  0  0  0  0  0  0  0  0  0  0  0
   -2.0686   -0.2414   -0.4527 C   0  0  0  0  0  0  0  0  0  0  0  0
   -3.4305   -0.0468   -0.6312 C   0  0  0  0  0  0  0  0  0  0  0  0
   -4.2678   -1.2309   -0.9556 C   0  0  0  0  0  0  0  0  0  0  0  0
   -5.0972   -1.2295   -2.1223 C   0  0  0  0  0  0  0  0  0  0  0  0
   -5.8192   -2.3418   -2.4870 C   0  0  0  0  0  0  0  0  0  0  0  0
   -5.7776   -3.5367   -1.7122 C   0  0  0  0  0  0  0  0  0  0  0  0
   -6.5160   -4.7016   -2.0558 C   0  0  0  0  0  0  0  0  0  0  0  0
   -6.4495   -5.8391   -1.2760 C   0  0  0  0  0  0  0  0  0  0  0  0
   -5.6373   -5.8588   -0.1135 C   0  0  0  0  0  0  0  0  0  0  0  0
   -4.9075   -4.7446    0.2459 C   0  0  0  0  0  0  0  0  0  0  0  0
   -4.9522   -3.5557   -0.5376 C   0  0  0  0  0  0  0  0  0  0  0  0
   -4.2132   -2.3912   -0.1933 C   0  0  0  0  0  0  0  0  0  0  0  0
   -3.9373    1.3115   -0.5763 C   0  0  0  0  0  0  0  0  0  0  0  0
   -5.3118    1.7163   -0.5155 C   0  0  0  0  0  0  0  0  0  0  0  0
   -6.4428    0.9665   -0.2561 C   0  0  0  0  0  0  0  0  0  0  0  0
   -7.7912    1.4661   -0.1791 C   0  0  0  0  0  0  0  0  0  0  0  0
   -8.1621    2.8207   -0.4210 C   0  0  0  0  0  0  0  0  0  0  0  0
   -9.4771    3.2445   -0.3280 C   0  0  0  0  0  0  0  0  0  0  0  0
  -10.5118    2.3401    0.0040 C   0  0  0  0  0  0  0  0  0  0  0  0
  -11.8548    2.7733    0.0928 N   0  0  0  0  0  0  0  0  0  0  0  0
  -12.3698    3.6910   -0.8568 C   0  0  0  0  0  0  0  0  0  0  0  0
  -12.0327    3.5740   -2.2197 C   0  0  0  0  0  0  0  0  0  0  0  0
  -12.5352    4.4845   -3.1489 C   0  0  0  0  0  0  0  0  0  0  0  0
  -13.3861    5.5192   -2.7442 C   0  0  0  0  0  0  0  0  0  0  0  0
  -13.7265    5.6366   -1.3920 C   0  0  0  0  0  0  0  0  0  0  0  0
  -13.2216    4.7381   -0.4525 C   0  0  0  0  0  0  0  0  0  0  0  0
  -12.6889    2.2860    1.1305 C   0  0  0  0  0  0  0  0  0  0  0  0
  -12.1891    2.1423    2.4397 C   0  0  0  0  0  0  0  0  0  0  0  0
  -13.0098    1.6528    3.4554 C   0  0  0  0  0  0  0  0  0  0  0  0
  -14.3398    1.3067    3.1916 C   0  0  0  0  0  0  0  0  0  0  0  0
  -14.8411    1.4514    1.8931 C   0  0  0  0  0  0  0  0  0  0  0  0
  -14.0266    1.9305    0.8675 C   0  0  0  0  0  0  0  0  0  0  0  0
  -10.1667    0.9902    0.2425 C   0  0  0  0  0  0  0  0  0  0  0  0
   -8.8490    0.5736    0.1547 C   0  0  0  0  0  0  0  0  0  0  0  0
   -2.9636    2.3500   -0.5312 C   0  0  0  0  0  0  0  0  0  0  0  0
   -1.5953    2.1559   -0.4106 C   0  0  0  0  0  0  0  0  0  0  0  0
   -0.7098    3.3438   -0.5266 C   0  0  0  0  0  0  0  0  0  0  0  0
    0.3492    3.3608   -1.4896 C   0  0  0  0  0  0  0  0  0  0  0  0
    1.1290    4.4785   -1.6743 C   0  0  0  0  0  0  0  0  0  0  0  0
    0.9198    5.6604   -0.9066 C   0  0  0  0  0  0  0  0  0  0  0  0
    1.7099    6.8309   -1.0677 C   0  0  0  0  0  0  0  0  0  0  0  0
    1.4758    7.9552   -0.3012 C   0  0  0  0  0  0  0  0  0  0  0  0
    0.4366    7.9554    0.6639 C   0  0  0  0  0  0  0  0  0  0  0  0
   -0.3487    6.8353    0.8429 C   0  0  0  0  0  0  0  0  0  0  0  0
   -0.1355    5.6599    0.0668 C   0  0  0  0  0  0  0  0  0  0  0  0
   -0.9279    4.4906    0.2267 C   0  0  0  0  0  0  0  0  0  0  0  0
    2.5672    0.6315    0.9495 C   0  0  0  0  0  0  0  0  0  0  0  0
    2.9833   -0.7203    0.7742 C   0  0  0  0  0  0  0  0  0  0  0  0
    4.2498   -1.1462    1.1376 C   0  0  0  0  0  0  0  0  0  0  0  0
    5.1890   -0.2471    1.6921 C   0  0  0  0  0  0  0  0  0  0  0  0
    6.4846   -0.6833    2.0552 N   0  0  0  0  0  0  0  0  0  0  0  0
    7.1904   -1.5799    1.2141 C   0  0  0  0  0  0  0  0  0  0  0  0
    7.1474   -1.4278   -0.1858 C   0  0  0  0  0  0  0  0  0  0  0  0
    7.8334   -2.3179   -1.0114 C   0  0  0  0  0  0  0  0  0  0  0  0
    8.5800   -3.3667   -0.4628 C   0  0  0  0  0  0  0  0  0  0  0  0
    8.6288   -3.5189    0.9275 C   0  0  0  0  0  0  0  0  0  0  0  0
    7.9383   -2.6408    1.7624 C   0  0  0  0  0  0  0  0  0  0  0  0
    7.0791   -0.2180    3.2545 C   0  0  0  0  0  0  0  0  0  0  0  0
    6.3092   -0.0818    4.4267 C   0  0  0  0  0  0  0  0  0  0  0  0
    6.8946    0.3889    5.6016 C   0  0  0  0  0  0  0  0  0  0  0  0
    8.2531    0.7228    5.6364 C   0  0  0  0  0  0  0  0  0  0  0  0
    9.0223    0.5851    4.4755 C   0  0  0  0  0  0  0  0  0  0  0  0
    8.4452    0.1255    3.2921 C   0  0  0  0  0  0  0  0  0  0  0  0
    4.7987    1.0996    1.8708 C   0  0  0  0  0  0  0  0  0  0  0  0
    3.5284    1.5184    1.5119 C   0  0  0  0  0  0  0  0  0  0  0  0
    1.1138    2.1980    0.7753 H   0  0  0  0  0  0  0  0  0  0  0  0
    0.3804   -0.6907   -0.0117 H   0  0  0  0  0  0  0  0  0  0  0  0
   -1.6946   -1.2690   -0.4701 H   0  0  0  0  0  0  0  0  0  0  0  0
   -5.1394   -0.3273   -2.7357 H   0  0  0  0  0  0  0  0  0  0  0  0
   -6.4358   -2.3214   -3.3902 H   0  0  0  0  0  0  0  0  0  0  0  0
   -7.1412   -4.6824   -2.9531 H   0  0  0  0  0  0  0  0  0  0  0  0
   -7.0223   -6.7282   -1.5519 H   0  0  0  0  0  0  0  0  0  0  0  0
   -5.5911   -6.7637    0.4981 H   0  0  0  0  0  0  0  0  0  0  0  0
   -4.2806   -4.7603    1.1421 H   0  0  0  0  0  0  0  0  0  0  0  0
   -3.5999   -2.4125    0.7115 H   0  0  0  0  0  0  0  0  0  0  0  0
   -5.4498    2.7971   -0.6288 H   0  0  0  0  0  0  0  0  0  0  0  0
   -6.3326   -0.1004   -0.0580 H   0  0  0  0  0  0  0  0  0  0  0  0
   -7.3960    3.5553   -0.6762 H   0  0  0  0  0  0  0  0  0  0  0  0
   -9.7210    4.2939   -0.5055 H   0  0  0  0  0  0  0  0  0  0  0  0
  -11.3805    2.7609   -2.5427 H   0  0  0  0  0  0  0  0  0  0  0  0
  -12.2677    4.3761   -4.2032 H   0  0  0  0  0  0  0  0  0  0  0  0
  -13.7797    6.2284   -3.4761 H   0  0  0  0  0  0  0  0  0  0  0  0
  -14.3824    6.4458   -1.0607 H   0  0  0  0  0  0  0  0  0  0  0  0
  -13.4781    4.8451    0.6029 H   0  0  0  0  0  0  0  0  0  0  0  0
  -11.1563    2.4237    2.6524 H   0  0  0  0  0  0  0  0  0  0  0  0
  -12.6080    1.5521    4.4670 H   0  0  0  0  0  0  0  0  0  0  0  0
  -14.9800    0.9263    3.9910 H   0  0  0  0  0  0  0  0  0  0  0  0
  -15.8753    1.1752    1.6715 H   0  0  0  0  0  0  0  0  0  0  0  0
  -14.4183    2.0253   -0.1467 H   0  0  0  0  0  0  0  0  0  0  0  0
  -10.9502    0.2701    0.4862 H   0  0  0  0  0  0  0  0  0  0  0  0
   -8.6096   -0.4784    0.3313 H   0  0  0  0  0  0  0  0  0  0  0  0
   -3.3264    3.3785   -0.6133 H   0  0  0  0  0  0  0  0  0  0  0  0
    0.5231    2.4682   -2.0937 H   0  0  0  0  0  0  0  0  0  0  0  0
    1.9234    4.4732   -2.4262 H   0  0  0  0  0  0  0  0  0  0  0  0
    2.5107    6.8263   -1.8128 H   0  0  0  0  0  0  0  0  0  0  0  0
    2.0907    8.8489   -0.4353 H   0  0  0  0  0  0  0  0  0  0  0  0
    0.2594    8.8499    1.2669 H   0  0  0  0  0  0  0  0  0  0  0  0
   -1.1509    6.8359    1.5865 H   0  0  0  0  0  0  0  0  0  0  0  0
   -1.7203    4.4976    0.9801 H   0  0  0  0  0  0  0  0  0  0  0  0
    2.2904   -1.4508    0.3525 H   0  0  0  0  0  0  0  0  0  0  0  0
    4.5283   -2.1932    1.0021 H   0  0  0  0  0  0  0  0  0  0  0  0
    6.5770   -0.6037   -0.6176 H   0  0  0  0  0  0  0  0  0  0  0  0
    7.7932   -2.1826   -2.0953 H   0  0  0  0  0  0  0  0  0  0  0  0
    9.1183   -4.0601   -1.1130 H   0  0  0  0  0  0  0  0  0  0  0  0
    9.2004   -4.3396    1.3685 H   0  0  0  0  0  0  0  0  0  0  0  0
    7.9668   -2.7752    2.8451 H   0  0  0  0  0  0  0  0  0  0  0  0
    5.2524   -0.3534    4.4082 H   0  0  0  0  0  0  0  0  0  0  0  0
    6.2838    0.4842    6.5030 H   0  0  0  0  0  0  0  0  0  0  0  0
    8.7082    1.0884    6.5599 H   0  0  0  0  0  0  0  0  0  0  0  0
   10.0823    0.8518    4.4863 H   0  0  0  0  0  0  0  0  0  0  0  0
    9.0468    0.0368    2.3859 H   0  0  0  0  0  0  0  0  0  0  0  0
    5.5115    1.8154    2.2847 H   0  0  0  0  0  0  0  0  0  0  0  0
    3.2551    2.5684    1.6472 H   0  0  0  0  0  0  0  0  0  0  0  0
  1  2  2  0
  1 50  1  0
  1 69  1  0
  2  3  1  0
  2 70  1  0
  3  4  2  0
  3 39  1  0
  4  5  1  0
  4 71  1  0
  5  6  1  0
  5 16  2  0
  6  7  2  0
  6 15  1  0
  7  8  1  0
  7 72  1  0
  8  9  2  0
  8 73  1  0
  9 10  1  0
  9 14  1  0
 10 11  2  0
 10 74  1  0
 11 12  1  0
 11 75  1  0
 12 13  2  0
 12 76  1  0
 13 14  1  0
 13 77  1  0
 14 15  2  0
 15 78  1  0
 16 17  1  0
 16 38  1  0
 17 18  2  0
 17 79  1  0
 18 19  1  0
 18 80  1  0
 19 20  2  0
 19 37  1  0
 20 21  1  0
 20 81  1  0
 21 22  2  0
 21 82  1  0
 22 23  1  0
 22 36  1  0
 23 24  1  0
 23 30  1  0
 24 25  2  0
 24 29  1  0
 25 26  1  0
 25 83  1  0
 26 27  2  0
 26 84  1  0
 27 28  1  0
 27 85  1  0
 28 29  2  0
 28 86  1  0
 29 87  1  0
 30 31  2  0
 30 35  1  0
 31 32  1  0
 31 88  1  0
 32 33  2  0
 32 89  1  0
 33 34  1  0
 33 90  1  0
 34 35  2  0
 34 91  1  0
 35 92  1  0
 36 37  2  0
 36 93  1  0
 37 94  1  0
 38 39  2  0
 38 95  1  0
 39 40  1  0
 40 41  2  0
 40 49  1  0
 41 42  1  0
 41 96  1  0
 42 43  2  0
 42 97  1  0
 43 44  1  0
 43 48  1  0
 44 45  2  0
 44 98  1  0
 45 46  1  0
 45 99  1  0
 46 47  2  0
 46100  1  0
 47 48  1  0
 47101  1  0
 48 49  2  0
 49102  1  0
 50 51  2  0
 50 68  1  0
 51 52  1  0
 51103  1  0
 52 53  2  0
 52104  1  0
 53 54  1  0
 53 67  1  0
 54 55  1  0
 54 61  1  0
 55 56  2  0
 55 60  1  0
 56 57  1  0
 56105  1  0
 57 58  2  0
 57106  1  0
 58 59  1  0
 58107  1  0
 59 60  2  0
 59108  1  0
 60109  1  0
 61 62  2  0
 61 66  1  0
 62 63  1  0
 62110  1  0
 63 64  2  0
 63111  1  0
 64 65  1  0
 64112  1  0
 65 66  2  0
 65113  1  0
 66114  1  0
 67 68  2  0
 67115  1  0
 68116  1  0
M  END

