
     RDKit          3D

 40 41  0  0  0  0  0  0  0  0999 V2000
    1.5128    1.0822    0.7104 C   0  0  0  0  0  0  0  0  0  0  0  0
    2.3413    0.9498    1.9972 C   0  0  0  0  0  0  0  0  0  0  0  0
    3.0056   -0.3869    2.1495 C   0  0  0  0  0  0  0  0  0  0  0  0
    4.2759   -0.5793    1.7939 N   0  0  0  0  0  0  0  0  0  0  0  0
    4.5450   -1.8743    2.0217 N   0  0  0  0  0  0  0  0  0  0  0  0
    5.8845   -2.3830    1.7969 C   0  0  0  0  0  0  0  0  0  0  0  0
    3.4772   -2.5540    2.5310 C   0  0  0  0  0  0  0  0  0  0  0  0
    3.5145   -4.0069    2.8717 C   0  0  0  0  0  0  0  0  0  0  0  0
    3.5827   -4.7594    1.6738 O   0  0  0  0  0  0  0  0  0  0  0  0
    3.5862   -6.1500    1.7492 C   0  0  0  0  0  0  0  0  0  0  0  0
    3.7428   -6.8448    2.9390 C   0  0  0  0  0  0  0  0  0  0  0  0
    3.7605   -8.2958    2.9123 C   0  0  0  0  0  0  0  0  0  0  0  0
    3.6477   -8.9323    1.6799 C   0  0  0  0  0  0  0  0  0  0  0  0
    3.6901  -10.2877    1.6518 F   0  0  0  0  0  0  0  0  0  0  0  0
    3.4907   -8.2672    0.4737 C   0  0  0  0  0  0  0  0  0  0  0  0
    3.4259   -6.8040    0.5028 C   0  0  0  0  0  0  0  0  0  0  0  0
    3.2428   -6.0019   -0.7449 C   0  0  1  0  0  0  0  0  0  0  0  0
    3.2657   -4.9233   -0.4471 H   0  0  0  0  0  0  0  0  0  0  0  0
    4.2635   -6.1749   -1.8864 C   0  0  0  0  0  0  0  0  0  0  0  0
    1.8941   -6.0984   -1.2791 N   0  0  0  0  0  0  0  0  0  0  0  0
    2.4588   -1.6106    2.6163 C   0  0  0  0  0  0  0  0  0  0  0  0
    0.7012   -1.9066    3.2373 Br  0  0  0  0  0  0  0  0  0  0  0  0
    1.0550    2.0820    0.6388 H   0  0  0  0  0  0  0  0  0  0  0  0
    0.7017    0.3373    0.6793 H   0  0  0  0  0  0  0  0  0  0  0  0
    2.1453    0.9329   -0.1791 H   0  0  0  0  0  0  0  0  0  0  0  0
    1.6938    1.1300    2.8714 H   0  0  0  0  0  0  0  0  0  0  0  0
    3.1291    1.7189    2.0134 H   0  0  0  0  0  0  0  0  0  0  0  0
    6.3608   -1.7490    1.0385 H   0  0  0  0  0  0  0  0  0  0  0  0
    5.8318   -3.4194    1.4382 H   0  0  0  0  0  0  0  0  0  0  0  0
    6.4875   -2.3471    2.7195 H   0  0  0  0  0  0  0  0  0  0  0  0
    2.6113   -4.2693    3.4480 H   0  0  0  0  0  0  0  0  0  0  0  0
    4.3893   -4.2295    3.5105 H   0  0  0  0  0  0  0  0  0  0  0  0
    3.8659   -6.3286    3.8889 H   0  0  0  0  0  0  0  0  0  0  0  0
    3.8659   -8.8829    3.8233 H   0  0  0  0  0  0  0  0  0  0  0  0
    3.4513   -8.8456   -0.4492 H   0  0  0  0  0  0  0  0  0  0  0  0
    5.2473   -5.8771   -1.5059 H   0  0  0  0  0  0  0  0  0  0  0  0
    4.0351   -5.5590   -2.7737 H   0  0  0  0  0  0  0  0  0  0  0  0
    4.3298   -7.2297   -2.1892 H   0  0  0  0  0  0  0  0  0  0  0  0
    1.1495   -6.4436   -0.6745 H   0  0  0  0  0  0  0  0  0  0  0  0
    1.6375   -5.7640   -2.2099 H   0  0  0  0  0  0  0  0  0  0  0  0
  1  2  1  0
  1 23  1  0
  1 24  1  0
  1 25  1  0
  2  3  1  0
  2 26  1  0
  2 27  1  0
  3  4  2  0
  3 21  1  0
  4  5  1  0
  5  6  1  0
  5  7  1  0
  6 28  1  0
  6 29  1  0
  6 30  1  0
  7  8  1  0
  7 21  2  0
  8  9  1  0
  8 31  1  0
  8 32  1  0
  9 10  1  0
 10 11  2  0
 10 16  1  0
 11 12  1  0
 11 33  1  0
 12 13  2  0
 12 34  1  0
 13 14  1  0
 13 15  1  0
 15 16  2  0
 15 35  1  0
 16 17  1  0
 17 18  1  1
 17 19  1  0
 17 20  1  0
 19 36  1  0
 19 37  1  0
 19 38  1  0
 20 39  1  0
 20 40  1  0
 21 22  1  0
M  END

