
     RDKit          3D

 64 67  0  0  0  0  0  0  0  0999 V2000
    1.1979    1.5215    1.4627 N   0  0  0  0  0  0  0  0  0  0  0  0
    2.0291    0.5955    0.7073 C   0  0  0  0  0  0  0  0  0  0  0  0
    3.0182    1.3749   -0.1667 C   0  0  0  0  0  0  0  0  0  0  0  0
    3.9051    0.5021   -0.9316 N   0  0  0  0  0  0  0  0  0  0  0  0
    3.3799   -0.0025   -2.1863 C   0  0  0  0  0  0  0  0  0  0  0  0
    3.5864    0.9960   -3.3489 C   0  0  0  0  0  0  0  0  0  0  0  0
    4.9960    1.3618   -3.4712 N   0  0  0  0  0  0  0  0  0  0  0  0
    5.7634    1.1107   -4.5797 C   0  0  0  0  0  0  0  0  0  0  0  0
    7.0525    1.7041   -4.7485 C   0  0  0  0  0  0  0  0  0  0  0  0
    7.8328    1.4687   -5.8580 C   0  0  0  0  0  0  0  0  0  0  0  0
    7.3766    0.6039   -6.8973 C   0  0  0  0  0  0  0  0  0  0  0  0
    8.0791    0.3118   -8.0180 N   0  0  0  0  0  0  0  0  0  0  0  0
    9.3477    0.7580   -8.4868 C   0  0  0  0  0  0  0  0  0  0  0  0
    9.7571    0.2256   -9.6993 C   0  0  0  0  0  0  0  0  0  0  0  0
   10.9744    0.6671  -10.2842 C   0  0  0  0  0  0  0  0  0  0  0  0
   11.3689    0.2315  -11.4976 N   0  0  0  0  0  0  0  0  0  0  0  0
   10.6945   -0.7838  -12.4093 C   0  0  0  0  0  0  0  0  0  0  0  0
    9.2389   -0.6864  -12.6654 C   0  0  0  0  0  0  0  0  0  0  0  0
    8.6740    0.4259  -13.3987 C   0  0  0  0  0  0  0  0  0  0  0  0
    7.3136    0.5636  -13.4987 C   0  0  0  0  0  0  0  0  0  0  0  0
    6.8048    1.6040  -14.2115 F   0  0  0  0  0  0  0  0  0  0  0  0
    6.3743   -0.3260  -12.9044 C   0  0  0  0  0  0  0  0  0  0  0  0
    6.9492   -1.4200  -12.2108 C   0  0  0  0  0  0  0  0  0  0  0  0
    6.0905   -2.3307  -11.6631 F   0  0  0  0  0  0  0  0  0  0  0  0
    8.3017   -1.6249  -12.0789 C   0  0  0  0  0  0  0  0  0  0  0  0
   11.7300    1.6019   -9.4948 C   0  0  0  0  0  0  0  0  0  0  0  0
   13.0795    2.1724   -9.8373 C   0  0  0  0  0  0  0  0  0  0  0  0
   13.8833    1.4100  -10.6573 N   0  0  0  0  0  0  0  0  0  0  0  0
   13.4572    3.2460   -9.4016 O   0  0  0  0  0  0  0  0  0  0  0  0
   11.1896    2.0449   -8.2867 C   0  0  0  0  0  0  0  0  0  0  0  0
   10.0251    1.6478   -7.7642 N   0  0  0  0  0  0  0  0  0  0  0  0
    6.0865    0.0106   -6.7392 C   0  0  0  0  0  0  0  0  0  0  0  0
    5.3102    0.2552   -5.6316 C   0  0  0  0  0  0  0  0  0  0  0  0
    5.5218    1.9182   -2.2258 C   0  0  0  0  0  0  0  0  0  0  0  0
    5.2865    0.9102   -1.0707 C   0  0  0  0  0  0  0  0  0  0  0  0
    0.6874    1.0350    2.1980 H   0  0  0  0  0  0  0  0  0  0  0  0
    0.4936    1.9539    0.8637 H   0  0  0  0  0  0  0  0  0  0  0  0
    1.4636   -0.1229    0.0737 H   0  0  0  0  0  0  0  0  0  0  0  0
    2.6129   -0.0179    1.4126 H   0  0  0  0  0  0  0  0  0  0  0  0
    3.6221    2.0080    0.5005 H   0  0  0  0  0  0  0  0  0  0  0  0
    2.4496    2.0780   -0.8155 H   0  0  0  0  0  0  0  0  0  0  0  0
    2.3073   -0.2233   -2.0862 H   0  0  0  0  0  0  0  0  0  0  0  0
    3.8848   -0.9507   -2.4435 H   0  0  0  0  0  0  0  0  0  0  0  0
    3.0190    1.9204   -3.1404 H   0  0  0  0  0  0  0  0  0  0  0  0
    3.2038    0.5927   -4.2911 H   0  0  0  0  0  0  0  0  0  0  0  0
    7.4354    2.4003   -4.0039 H   0  0  0  0  0  0  0  0  0  0  0  0
    8.8015    1.9470   -5.9856 H   0  0  0  0  0  0  0  0  0  0  0  0
    7.6132   -0.3030   -8.6794 H   0  0  0  0  0  0  0  0  0  0  0  0
    9.1163   -0.4651  -10.2431 H   0  0  0  0  0  0  0  0  0  0  0  0
   12.1426    0.7351  -11.9155 H   0  0  0  0  0  0  0  0  0  0  0  0
   10.9369   -1.7808  -12.0005 H   0  0  0  0  0  0  0  0  0  0  0  0
   11.2931   -0.6698  -13.3355 H   0  0  0  0  0  0  0  0  0  0  0  0
    9.3119    1.1596  -13.8971 H   0  0  0  0  0  0  0  0  0  0  0  0
    5.3013   -0.1779  -12.9822 H   0  0  0  0  0  0  0  0  0  0  0  0
    8.6473   -2.5328  -11.5774 H   0  0  0  0  0  0  0  0  0  0  0  0
   13.7296    0.4102  -10.7313 H   0  0  0  0  0  0  0  0  0  0  0  0
   14.8385    1.7398  -10.7537 H   0  0  0  0  0  0  0  0  0  0  0  0
   11.7685    2.7736   -7.7120 H   0  0  0  0  0  0  0  0  0  0  0  0
    5.7108   -0.6578   -7.5166 H   0  0  0  0  0  0  0  0  0  0  0  0
    4.3460   -0.2450   -5.5653 H   0  0  0  0  0  0  0  0  0  0  0  0
    5.0047    2.8695   -2.0097 H   0  0  0  0  0  0  0  0  0  0  0  0
    6.5922    2.1266   -2.3154 H   0  0  0  0  0  0  0  0  0  0  0  0
    5.6439    1.3539   -0.1299 H   0  0  0  0  0  0  0  0  0  0  0  0
    5.9097    0.0200   -1.2720 H   0  0  0  0  0  0  0  0  0  0  0  0
  1  2  1  0
  1 36  1  0
  1 37  1  0
  2  3  1  0
  2 38  1  0
  2 39  1  0
  3  4  1  0
  3 40  1  0
  3 41  1  0
  4  5  1  0
  4 35  1  0
  5  6  1  0
  5 42  1  0
  5 43  1  0
  6  7  1  0
  6 44  1  0
  6 45  1  0
  7  8  1  0
  7 34  1  0
  8  9  2  0
  8 33  1  0
  9 10  1  0
  9 46  1  0
 10 11  2  0
 10 47  1  0
 11 12  1  0
 11 32  1  0
 12 13  1  0
 12 48  1  0
 13 14  2  0
 13 31  1  0
 14 15  1  0
 14 49  1  0
 15 16  1  0
 15 26  2  0
 16 17  1  0
 16 50  1  0
 17 18  1  0
 17 51  1  0
 17 52  1  0
 18 19  2  0
 18 25  1  0
 19 20  1  0
 19 53  1  0
 20 21  1  0
 20 22  2  0
 22 23  1  0
 22 54  1  0
 23 24  1  0
 23 25  2  0
 25 55  1  0
 26 27  1  0
 26 30  1  0
 27 28  1  0
 27 29  2  0
 28 56  1  0
 28 57  1  0
 30 31  2  0
 30 58  1  0
 32 33  2  0
 32 59  1  0
 33 60  1  0
 34 35  1  0
 34 61  1  0
 34 62  1  0
 35 63  1  0
 35 64  1  0
M  END

