
     RDKit          3D

 49 50  0  0  0  0  0  0  0  0999 V2000
    5.2341   -1.5323   -0.4572 C   0  0  0  0  0  0  0  0  0  0  0  0
    4.3307   -0.3589   -0.7139 C   0  0  0  0  0  0  0  0  0  0  0  0
    4.8380    0.8096   -1.2406 C   0  0  0  0  0  0  0  0  0  0  0  0
    4.0223    1.9479   -1.5334 C   0  0  0  0  0  0  0  0  0  0  0  0
    4.5587    3.0858   -2.0458 N   0  0  0  0  0  0  0  0  0  0  0  0
    5.9953    3.1902   -2.2941 C   0  0  0  0  0  0  0  0  0  0  0  0
    3.7099    4.2338   -2.3591 C   0  0  0  0  0  0  0  0  0  0  0  0
    2.6209    1.8400   -1.2693 C   0  0  0  0  0  0  0  0  0  0  0  0
    2.0890    0.6892   -0.7424 C   0  0  0  0  0  0  0  0  0  0  0  0
    2.9126   -0.4379   -0.4353 C   0  0  0  0  0  0  0  0  0  0  0  0
    2.4159   -1.5838    0.1073 N   0  0  0  0  0  0  0  0  0  0  0  0
    1.0747   -1.8945    0.3857 C   0  0  0  0  0  0  0  0  0  0  0  0
    0.1403   -1.1655    0.1369 O   0  0  0  0  0  0  0  0  0  0  0  0
    0.8874   -3.2912    0.9902 C   0  0  0  0  0  0  0  0  0  0  0  0
    1.6169   -3.5318    2.2204 N   0  0  0  0  0  0  0  0  0  0  0  0
    2.9451   -3.9548    2.1754 C   0  0  0  0  0  0  0  0  0  0  0  0
    3.6289   -3.6703    1.1634 O   0  0  0  0  0  0  0  0  0  0  0  0
    3.4020   -4.6219    3.2248 N   0  0  0  0  0  0  0  0  0  0  0  0
    4.7848   -5.0937    3.4325 C   0  0  0  0  0  0  0  0  0  0  0  0
    4.7807   -6.0589    4.5920 C   0  0  0  0  0  0  0  0  0  0  0  0
    5.2486   -7.3480    4.4409 C   0  0  0  0  0  0  0  0  0  0  0  0
    5.2086   -8.2899    5.5232 C   0  0  0  0  0  0  0  0  0  0  0  0
    4.6451   -7.8303    6.7341 C   0  0  0  0  0  0  0  0  0  0  0  0
    4.5923   -8.7146    7.7718 F   0  0  0  0  0  0  0  0  0  0  0  0
    4.1475   -6.5641    6.9233 C   0  0  0  0  0  0  0  0  0  0  0  0
    4.1627   -5.6177    5.8188 C   0  0  0  0  0  0  0  0  0  0  0  0
    6.2739   -1.2889   -0.7108 H   0  0  0  0  0  0  0  0  0  0  0  0
    4.9278   -2.4047   -1.0559 H   0  0  0  0  0  0  0  0  0  0  0  0
    5.1936   -1.8663    0.5890 H   0  0  0  0  0  0  0  0  0  0  0  0
    5.9062    0.8469   -1.4436 H   0  0  0  0  0  0  0  0  0  0  0  0
    6.5694    3.0386   -1.3675 H   0  0  0  0  0  0  0  0  0  0  0  0
    6.2226    4.1890   -2.6803 H   0  0  0  0  0  0  0  0  0  0  0  0
    6.3257    2.4482   -3.0373 H   0  0  0  0  0  0  0  0  0  0  0  0
    3.2080    4.6154   -1.4565 H   0  0  0  0  0  0  0  0  0  0  0  0
    2.9422    3.9684   -3.1020 H   0  0  0  0  0  0  0  0  0  0  0  0
    4.3279    5.0362   -2.7748 H   0  0  0  0  0  0  0  0  0  0  0  0
    1.9517    2.6726   -1.4764 H   0  0  0  0  0  0  0  0  0  0  0  0
    1.0236    0.6140   -0.5444 H   0  0  0  0  0  0  0  0  0  0  0  0
    3.0661   -2.3693    0.4141 H   0  0  0  0  0  0  0  0  0  0  0  0
    1.1604   -4.0274    0.2105 H   0  0  0  0  0  0  0  0  0  0  0  0
   -0.1883   -3.3864    1.1819 H   0  0  0  0  0  0  0  0  0  0  0  0
    1.0601   -3.8217    3.0156 H   0  0  0  0  0  0  0  0  0  0  0  0
    2.8062   -4.8644    4.0219 H   0  0  0  0  0  0  0  0  0  0  0  0
    5.4200   -4.2087    3.6359 H   0  0  0  0  0  0  0  0  0  0  0  0
    5.1482   -5.5619    2.5062 H   0  0  0  0  0  0  0  0  0  0  0  0
    5.6367   -7.6694    3.4688 H   0  0  0  0  0  0  0  0  0  0  0  0
    5.6070   -9.2991    5.4449 H   0  0  0  0  0  0  0  0  0  0  0  0
    3.7333   -6.3000    7.8983 H   0  0  0  0  0  0  0  0  0  0  0  0
    4.1132   -4.5440    6.0399 H   0  0  0  0  0  0  0  0  0  0  0  0
  1  2  1  0
  1 27  1  0
  1 28  1  0
  1 29  1  0
  2  3  2  0
  2 10  1  0
  3  4  1  0
  3 30  1  0
  4  5  1  0
  4  8  2  0
  5  6  1  0
  5  7  1  0
  6 31  1  0
  6 32  1  0
  6 33  1  0
  7 34  1  0
  7 35  1  0
  7 36  1  0
  8  9  1  0
  8 37  1  0
  9 10  2  0
  9 38  1  0
 10 11  1  0
 11 12  1  0
 11 39  1  0
 12 13  2  0
 12 14  1  0
 14 15  1  0
 14 40  1  0
 14 41  1  0
 15 16  1  0
 15 42  1  0
 16 17  2  0
 16 18  1  0
 18 19  1  0
 18 43  1  0
 19 20  1  0
 19 44  1  0
 19 45  1  0
 20 21  2  0
 20 26  1  0
 21 22  1  0
 21 46  1  0
 22 23  2  0
 22 47  1  0
 23 24  1  0
 23 25  1  0
 25 26  2  0
 25 48  1  0
 26 49  1  0
M  END

