
     RDKit          3D

 68 69  0  0  0  0  0  0  0  0999 V2000
    6.1880    4.3013   -6.5203 C   0  0  0  0  0  0  0  0  0  0  0  0
    5.7628    3.7003   -5.1799 C   0  0  0  0  0  0  0  0  0  0  0  0
    4.4653    4.3063   -4.6366 C   0  0  0  0  0  0  0  0  0  0  0  0
    3.9738    3.7054   -3.3185 C   0  0  0  0  0  0  0  0  0  0  0  0
    4.8730    3.9818   -2.1883 N   0  0  0  0  0  0  0  0  0  0  0  0
    5.5734    3.0611   -1.5532 C   0  0  0  0  0  0  0  0  0  0  0  0
    5.5974    1.8578   -1.7354 O   0  0  0  0  0  0  0  0  0  0  0  0
    6.5326    3.6414   -0.3355 C   0  0  1  0  0  0  0  0  0  0  0  0
    6.5524    2.6487    0.8119 C   0  0  0  0  0  0  0  0  0  0  0  0
    7.7752    4.0063   -0.9127 N   0  0  0  0  0  0  0  0  0  0  0  0
    8.8541    3.0161   -1.0262 C   0  0  0  0  0  0  0  0  0  0  0  0
    9.6509    2.7645    0.2473 C   0  0  0  0  0  0  0  0  0  0  0  0
    9.9772    3.8009    1.1322 C   0  0  0  0  0  0  0  0  0  0  0  0
   10.7368    3.5280    2.2757 C   0  0  0  0  0  0  0  0  0  0  0  0
   11.1876    2.2334    2.5385 C   0  0  0  0  0  0  0  0  0  0  0  0
   10.8641    1.2068    1.6447 C   0  0  0  0  0  0  0  0  0  0  0  0
   11.4164   -0.4231    1.9548 Cl  0  0  0  0  0  0  0  0  0  0  0  0
   10.0932    1.4593    0.5075 C   0  0  0  0  0  0  0  0  0  0  0  0
    7.8581    5.3061   -1.5053 C   0  0  0  0  0  0  0  0  0  0  0  0
    6.8292    5.9272   -1.6781 O   0  0  0  0  0  0  0  0  0  0  0  0
    9.2127    5.8308   -1.9106 C   0  0  0  0  0  0  0  0  0  0  0  0
    9.3024    7.3629   -1.8461 C   0  0  0  0  0  0  0  0  0  0  0  0
    9.1272    7.9412   -0.4301 C   0  0  0  0  0  0  0  0  0  0  0  0
    9.8849    7.2073    0.5739 N   0  0  0  0  0  0  0  0  0  0  0  0
   11.3291    7.3726    0.4291 C   0  0  0  0  0  0  0  0  0  0  0  0
    9.4006    7.6644    2.2876 S   0  0  1  0  0  0  0  0  0  0  0  0
   10.1669    6.6429    3.0406 O   0  0  0  0  0  0  0  0  0  0  0  0
    9.7863    9.0889    2.3643 O   0  0  0  0  0  0  0  0  0  0  0  0
    7.7341    7.4668    2.5104 C   0  0  0  0  0  0  0  0  0  0  0  0
    7.1867    6.1931    2.9281 C   0  0  0  0  0  0  0  0  0  0  0  0
    5.8193    6.0329    3.0168 C   0  0  0  0  0  0  0  0  0  0  0  0
    4.9163    7.0826    2.6940 C   0  0  0  0  0  0  0  0  0  0  0  0
    5.4597    8.3460    2.3279 C   0  0  0  0  0  0  0  0  0  0  0  0
    6.8186    8.5542    2.2376 C   0  0  0  0  0  0  0  0  0  0  0  0
    7.1218    3.8465   -6.8852 H   0  0  0  0  0  0  0  0  0  0  0  0
    6.3552    5.3879   -6.4381 H   0  0  0  0  0  0  0  0  0  0  0  0
    5.4174    4.1426   -7.2924 H   0  0  0  0  0  0  0  0  0  0  0  0
    6.5739    3.8448   -4.4435 H   0  0  0  0  0  0  0  0  0  0  0  0
    5.6377    2.6075   -5.2834 H   0  0  0  0  0  0  0  0  0  0  0  0
    3.6555    4.1698   -5.3740 H   0  0  0  0  0  0  0  0  0  0  0  0
    4.5802    5.3990   -4.5178 H   0  0  0  0  0  0  0  0  0  0  0  0
    3.8682    2.6137   -3.3938 H   0  0  0  0  0  0  0  0  0  0  0  0
    2.9865    4.1165   -3.0580 H   0  0  0  0  0  0  0  0  0  0  0  0
    5.1021    4.9520   -1.9587 H   0  0  0  0  0  0  0  0  0  0  0  0
    6.0073    4.5601   -0.0497 H   0  0  0  0  0  0  0  0  0  0  0  0
    7.0072    1.6876    0.5464 H   0  0  0  0  0  0  0  0  0  0  0  0
    5.5207    2.4664    1.1422 H   0  0  0  0  0  0  0  0  0  0  0  0
    7.1077    3.0969    1.6444 H   0  0  0  0  0  0  0  0  0  0  0  0
    9.5172    3.3381   -1.8397 H   0  0  0  0  0  0  0  0  0  0  0  0
    8.3890    2.0738   -1.3630 H   0  0  0  0  0  0  0  0  0  0  0  0
    9.6631    4.8351    0.9625 H   0  0  0  0  0  0  0  0  0  0  0  0
   10.9537    4.3568    2.9536 H   0  0  0  0  0  0  0  0  0  0  0  0
   11.7804    2.0119    3.4275 H   0  0  0  0  0  0  0  0  0  0  0  0
    9.8457    0.6336   -0.1637 H   0  0  0  0  0  0  0  0  0  0  0  0
    9.3805    5.4919   -2.9507 H   0  0  0  0  0  0  0  0  0  0  0  0
    9.9988    5.3819   -1.2923 H   0  0  0  0  0  0  0  0  0  0  0  0
    8.5461    7.8107   -2.5092 H   0  0  0  0  0  0  0  0  0  0  0  0
   10.2845    7.6433   -2.2587 H   0  0  0  0  0  0  0  0  0  0  0  0
    8.0636    7.8998   -0.1503 H   0  0  0  0  0  0  0  0  0  0  0  0
    9.4033    9.0161   -0.4583 H   0  0  0  0  0  0  0  0  0  0  0  0
   11.6998    6.8532   -0.4730 H   0  0  0  0  0  0  0  0  0  0  0  0
   11.8272    6.9293    1.3011 H   0  0  0  0  0  0  0  0  0  0  0  0
   11.6299    8.4371    0.3625 H   0  0  0  0  0  0  0  0  0  0  0  0
    7.8706    5.4038    3.2401 H   0  0  0  0  0  0  0  0  0  0  0  0
    5.4229    5.0824    3.3899 H   0  0  0  0  0  0  0  0  0  0  0  0
    3.8388    6.9436    2.7866 H   0  0  0  0  0  0  0  0  0  0  0  0
    4.7849    9.1866    2.1387 H   0  0  0  0  0  0  0  0  0  0  0  0
    7.2242    9.5380    1.9990 H   0  0  0  0  0  0  0  0  0  0  0  0
  1  2  1  0
  1 35  1  0
  1 36  1  0
  1 37  1  0
  2  3  1  0
  2 38  1  0
  2 39  1  0
  3  4  1  0
  3 40  1  0
  3 41  1  0
  4  5  1  0
  4 42  1  0
  4 43  1  0
  5  6  1  0
  5 44  1  0
  6  7  2  0
  6  8  1  0
  8  9  1  0
  8 10  1  0
  8 45  1  1
  9 46  1  0
  9 47  1  0
  9 48  1  0
 10 11  1  0
 10 19  1  0
 11 12  1  0
 11 49  1  0
 11 50  1  0
 12 13  2  0
 12 18  1  0
 13 14  1  0
 13 51  1  0
 14 15  2  0
 14 52  1  0
 15 16  1  0
 15 53  1  0
 16 17  1  0
 16 18  2  0
 18 54  1  0
 19 20  2  0
 19 21  1  0
 21 22  1  0
 21 55  1  0
 21 56  1  0
 22 23  1  0
 22 57  1  0
 22 58  1  0
 23 24  1  0
 23 59  1  0
 23 60  1  0
 24 25  1  0
 26 24  1  6
 25 61  1  0
 25 62  1  0
 25 63  1  0
 26 27  2  0
 26 28  2  0
 26 29  1  0
 29 30  2  0
 29 34  1  0
 30 31  1  0
 30 64  1  0
 31 32  2  0
 31 65  1  0
 32 33  1  0
 32 66  1  0
 33 34  2  0
 33 67  1  0
 34 68  1  0
M  END

