
     RDKit          3D

 84 87  0  0  0  0  0  0  0  0999 V2000
   11.1362    6.3437   -6.7973 O   0  0  0  0  0  0  0  0  0  0  0  0
   11.8020    5.4068   -6.4495 C   0  0  0  0  0  0  0  0  0  0  0  0
   12.5427    5.4931   -5.3143 O   0  0  0  0  0  0  0  0  0  0  0  0
   11.8864    4.0793   -7.1926 C   0  0  0  0  0  0  0  0  0  0  0  0
   11.7157    2.8536   -6.2818 C   0  0  0  0  0  0  0  0  0  0  0  0
   11.6589    1.5365   -7.0570 C   0  0  0  0  0  0  0  0  0  0  0  0
   11.4146    0.2898   -6.1852 C   0  0  0  0  0  0  0  0  0  0  0  0
   10.1308    0.1920   -5.5085 N   0  0  0  0  0  0  0  0  0  0  0  0
    8.8340    0.2670   -6.2423 C   0  0  0  0  0  0  0  0  0  0  0  0
    8.8437    0.0159   -7.7119 C   0  0  0  0  0  0  0  0  0  0  0  0
    8.9640   -1.3209   -8.2214 C   0  0  0  0  0  0  0  0  0  0  0  0
    8.9181   -1.5794   -9.5713 C   0  0  0  0  0  0  0  0  0  0  0  0
    8.7402   -0.5320  -10.5374 C   0  0  0  0  0  0  0  0  0  0  0  0
    8.7514   -0.8864  -11.9446 C   0  0  0  0  0  0  0  0  0  0  0  0
    8.8324   -2.0265  -12.3824 O   0  0  0  0  0  0  0  0  0  0  0  0
    8.6683    0.1551  -12.8528 O   0  0  0  0  0  0  0  0  0  0  0  0
    8.5218    0.7928  -10.0115 C   0  0  0  0  0  0  0  0  0  0  0  0
    8.5726    1.0453   -8.6533 C   0  0  0  0  0  0  0  0  0  0  0  0
   10.0740   -0.0937   -4.0938 C   0  0  0  0  0  0  0  0  0  0  0  0
   10.1767    1.1425   -3.1282 C   0  0  2  0  0  0  0  0  0  0  0  0
    9.6384    0.8095   -2.2193 H   0  0  0  0  0  0  0  0  0  0  0  0
    9.4987    2.2086   -3.7331 O   0  0  0  0  0  0  0  0  0  0  0  0
    8.6050    2.9850   -2.9151 C   0  0  0  0  0  0  0  0  0  0  0  0
    8.1112    4.1316   -3.7528 C   0  0  0  0  0  0  0  0  0  0  0  0
    6.9727    4.0002   -4.5603 C   0  0  0  0  0  0  0  0  0  0  0  0
    6.6016    5.0215   -5.4386 C   0  0  0  0  0  0  0  0  0  0  0  0
    7.3610    6.1977   -5.5428 C   0  0  0  0  0  0  0  0  0  0  0  0
    7.0268    7.2656   -6.5584 C   0  0  0  0  0  0  0  0  0  0  0  0
    7.7489    7.0393   -7.9126 C   0  0  0  0  0  0  0  0  0  0  0  0
    7.5213    8.1676   -8.8922 C   0  0  0  0  0  0  0  0  0  0  0  0
    8.4392    9.2240   -8.9919 C   0  0  0  0  0  0  0  0  0  0  0  0
    8.2193   10.2922   -9.8647 C   0  0  0  0  0  0  0  0  0  0  0  0
    7.0690   10.3194  -10.6580 C   0  0  0  0  0  0  0  0  0  0  0  0
    6.7961   11.4635  -11.6003 C   0  0  1  0  0  0  0  0  0  0  0  0
    7.7937   12.3639  -11.6151 F   0  0  0  0  0  0  0  0  0  0  0  0
    6.6236   11.0350  -12.8657 F   0  0  0  0  0  0  0  0  0  0  0  0
    5.6696   12.1229  -11.2628 F   0  0  0  0  0  0  0  0  0  0  0  0
    6.1449    9.2689  -10.5762 C   0  0  0  0  0  0  0  0  0  0  0  0
    6.3728    8.2080   -9.7018 C   0  0  0  0  0  0  0  0  0  0  0  0
    8.4864    6.3338   -4.7138 C   0  0  0  0  0  0  0  0  0  0  0  0
    8.8531    5.3199   -3.8302 C   0  0  0  0  0  0  0  0  0  0  0  0
   11.5991    1.5033   -2.6943 C   0  0  0  0  0  0  0  0  0  0  0  0
   12.0758    2.8170   -2.8011 C   0  0  0  0  0  0  0  0  0  0  0  0
   13.3544    3.1512   -2.3401 C   0  0  0  0  0  0  0  0  0  0  0  0
   14.1754    2.1762   -1.7686 C   0  0  0  0  0  0  0  0  0  0  0  0
   13.7048    0.8646   -1.6478 C   0  0  0  0  0  0  0  0  0  0  0  0
   12.4251    0.5348   -2.1002 C   0  0  0  0  0  0  0  0  0  0  0  0
   13.0423    4.6760   -5.1726 H   0  0  0  0  0  0  0  0  0  0  0  0
   12.8596    4.0387   -7.7161 H   0  0  0  0  0  0  0  0  0  0  0  0
   11.1094    4.1025   -7.9689 H   0  0  0  0  0  0  0  0  0  0  0  0
   10.7975    2.9758   -5.6864 H   0  0  0  0  0  0  0  0  0  0  0  0
   12.5443    2.7967   -5.5529 H   0  0  0  0  0  0  0  0  0  0  0  0
   12.6214    1.3556   -7.5642 H   0  0  0  0  0  0  0  0  0  0  0  0
   10.8991    1.5801   -7.8457 H   0  0  0  0  0  0  0  0  0  0  0  0
   12.2005    0.1833   -5.4234 H   0  0  0  0  0  0  0  0  0  0  0  0
   11.4511   -0.5903   -6.8522 H   0  0  0  0  0  0  0  0  0  0  0  0
    8.4638    1.2806   -5.9897 H   0  0  0  0  0  0  0  0  0  0  0  0
    8.1748   -0.4264   -5.6880 H   0  0  0  0  0  0  0  0  0  0  0  0
    9.0816   -2.1592   -7.5250 H   0  0  0  0  0  0  0  0  0  0  0  0
    9.0117   -2.5970   -9.9552 H   0  0  0  0  0  0  0  0  0  0  0  0
    8.7653    0.9919  -12.3820 H   0  0  0  0  0  0  0  0  0  0  0  0
    8.2627    1.6221  -10.6773 H   0  0  0  0  0  0  0  0  0  0  0  0
    8.3765    2.0637   -8.2987 H   0  0  0  0  0  0  0  0  0  0  0  0
   10.8731   -0.8090   -3.8490 H   0  0  0  0  0  0  0  0  0  0  0  0
    9.1065   -0.5762   -3.9083 H   0  0  0  0  0  0  0  0  0  0  0  0
    9.1413    3.3483   -2.0210 H   0  0  0  0  0  0  0  0  0  0  0  0
    7.7708    2.3419   -2.5791 H   0  0  0  0  0  0  0  0  0  0  0  0
    6.3706    3.0882   -4.5068 H   0  0  0  0  0  0  0  0  0  0  0  0
    5.7108    4.8978   -6.0609 H   0  0  0  0  0  0  0  0  0  0  0  0
    7.3178    8.2532   -6.1652 H   0  0  0  0  0  0  0  0  0  0  0  0
    5.9382    7.3022   -6.7280 H   0  0  0  0  0  0  0  0  0  0  0  0
    7.3941    6.0893   -8.3461 H   0  0  0  0  0  0  0  0  0  0  0  0
    8.8273    6.9202   -7.7243 H   0  0  0  0  0  0  0  0  0  0  0  0
    9.3468    9.2055   -8.3820 H   0  0  0  0  0  0  0  0  0  0  0  0
    8.9449   11.1041   -9.9329 H   0  0  0  0  0  0  0  0  0  0  0  0
    5.2491    9.2797  -11.2015 H   0  0  0  0  0  0  0  0  0  0  0  0
    5.6482    7.3902   -9.6520 H   0  0  0  0  0  0  0  0  0  0  0  0
    9.0980    7.2368   -4.7786 H   0  0  0  0  0  0  0  0  0  0  0  0
    9.7368    5.4531   -3.1996 H   0  0  0  0  0  0  0  0  0  0  0  0
   11.4437    3.5818   -3.2517 H   0  0  0  0  0  0  0  0  0  0  0  0
   13.7039    4.1839   -2.4227 H   0  0  0  0  0  0  0  0  0  0  0  0
   15.1738    2.4369   -1.4096 H   0  0  0  0  0  0  0  0  0  0  0  0
   14.3328    0.0960   -1.1909 H   0  0  0  0  0  0  0  0  0  0  0  0
   12.0688   -0.4918   -1.9703 H   0  0  0  0  0  0  0  0  0  0  0  0
  1  2  2  0
  2  3  1  0
  2  4  1  0
  3 48  1  0
  4  5  1  0
  4 49  1  0
  4 50  1  0
  5  6  1  0
  5 51  1  0
  5 52  1  0
  6  7  1  0
  6 53  1  0
  6 54  1  0
  7  8  1  0
  7 55  1  0
  7 56  1  0
  8  9  1  0
  8 19  1  0
  9 10  1  0
  9 57  1  0
  9 58  1  0
 10 11  2  0
 10 18  1  0
 11 12  1  0
 11 59  1  0
 12 13  2  0
 12 60  1  0
 13 14  1  0
 13 17  1  0
 14 15  2  0
 14 16  1  0
 16 61  1  0
 17 18  2  0
 17 62  1  0
 18 63  1  0
 19 20  1  0
 19 64  1  0
 19 65  1  0
 20 21  1  1
 20 22  1  0
 20 42  1  0
 22 23  1  0
 23 24  1  0
 23 66  1  0
 23 67  1  0
 24 25  2  0
 24 41  1  0
 25 26  1  0
 25 68  1  0
 26 27  2  0
 26 69  1  0
 27 28  1  0
 27 40  1  0
 28 29  1  0
 28 70  1  0
 28 71  1  0
 29 30  1  0
 29 72  1  0
 29 73  1  0
 30 31  2  0
 30 39  1  0
 31 32  1  0
 31 74  1  0
 32 33  2  0
 32 75  1  0
 33 34  1  0
 33 38  1  0
 34 35  1  6
 34 36  1  0
 34 37  1  0
 38 39  2  0
 38 76  1  0
 39 77  1  0
 40 41  2  0
 40 78  1  0
 41 79  1  0
 42 43  2  0
 42 47  1  0
 43 44  1  0
 43 80  1  0
 44 45  2  0
 44 81  1  0
 45 46  1  0
 45 82  1  0
 46 47  2  0
 46 83  1  0
 47 84  1  0
M  END

