
     RDKit          3D

 38 40  0  0  0  0  0  0  0  0999 V2000
    0.6417   -2.2975    0.5222 C   0  0  0  0  0  0  0  0  0  0  0  0
    1.4610   -1.1072    1.0255 C   0  0  0  0  0  0  0  0  0  0  0  0
    2.2945   -0.4055   -0.0626 C   0  0  2  0  0  0  0  0  0  0  0  0
    1.6257   -0.1978   -0.9132 H   0  0  0  0  0  0  0  0  0  0  0  0
    3.4844   -1.2479   -0.5538 C   0  0  0  0  0  0  0  0  0  0  0  0
    4.6205   -0.8062    0.2078 N   0  0  0  0  0  0  0  0  0  0  0  0
    5.9218   -1.4372    0.1211 C   0  0  0  0  0  0  0  0  0  0  0  0
    6.9628   -0.4844   -0.5065 C   0  0  0  0  0  0  0  0  0  0  0  0
    6.8397    0.8694    0.1150 C   0  0  0  0  0  0  0  0  0  0  0  0
    5.5157    1.4124    0.2443 C   0  0  0  0  0  0  0  0  0  0  0  0
    5.5762    2.9037    0.5137 C   0  0  0  0  0  0  0  0  0  0  0  0
    7.1025    3.2078    0.4586 C   0  0  0  0  0  0  0  0  0  0  0  0
    7.7444    2.0089   -0.2757 C   0  0  0  0  0  0  0  0  0  0  0  0
    4.4323    0.5379    0.8427 C   0  0  2  0  0  0  0  0  0  0  0  0
    4.5404    0.3645    2.3796 C   0  0  0  0  0  0  0  0  0  0  0  0
    2.9873    0.9012    0.3975 C   0  0  0  0  0  0  0  0  0  0  0  0
    0.0496   -2.7434    1.3364 H   0  0  0  0  0  0  0  0  0  0  0  0
    1.2758   -3.0998    0.1088 H   0  0  0  0  0  0  0  0  0  0  0  0
   -0.0606   -1.9920   -0.2712 H   0  0  0  0  0  0  0  0  0  0  0  0
    2.1173   -1.4294    1.8529 H   0  0  0  0  0  0  0  0  0  0  0  0
    0.7784   -0.3586    1.4616 H   0  0  0  0  0  0  0  0  0  0  0  0
    3.7226   -1.0471   -1.6189 H   0  0  0  0  0  0  0  0  0  0  0  0
    3.3669   -2.3410   -0.4649 H   0  0  0  0  0  0  0  0  0  0  0  0
    5.8137   -2.3834   -0.4304 H   0  0  0  0  0  0  0  0  0  0  0  0
    6.2229   -1.6640    1.1584 H   0  0  0  0  0  0  0  0  0  0  0  0
    6.7790   -0.4790   -1.6146 H   0  0  0  0  0  0  0  0  0  0  0  0
    7.9510   -0.9555   -0.3627 H   0  0  0  0  0  0  0  0  0  0  0  0
    5.1586    3.2191    1.4950 H   0  0  0  0  0  0  0  0  0  0  0  0
    5.0274    3.5057   -0.2399 H   0  0  0  0  0  0  0  0  0  0  0  0
    7.4963    3.2435    1.4878 H   0  0  0  0  0  0  0  0  0  0  0  0
    7.3287    4.1792   -0.0116 H   0  0  0  0  0  0  0  0  0  0  0  0
    8.8060    1.8718    0.0017 H   0  0  0  0  0  0  0  0  0  0  0  0
    7.7331    2.1935   -1.3793 H   0  0  0  0  0  0  0  0  0  0  0  0
    5.5672    0.0821    2.6527 H   0  0  0  0  0  0  0  0  0  0  0  0
    3.8281   -0.3624    2.8058 H   0  0  0  0  0  0  0  0  0  0  0  0
    4.3335    1.3433    2.8355 H   0  0  0  0  0  0  0  0  0  0  0  0
    3.0625    1.5982   -0.4486 H   0  0  0  0  0  0  0  0  0  0  0  0
    2.4250    1.4007    1.1999 H   0  0  0  0  0  0  0  0  0  0  0  0
  1  2  1  0
  1 17  1  0
  1 18  1  0
  1 19  1  0
  2  3  1  0
  2 20  1  0
  2 21  1  0
  3  4  1  6
  3  5  1  0
  3 16  1  0
  5  6  1  0
  5 22  1  0
  5 23  1  0
  6  7  1  0
  6 14  1  0
  7  8  1  0
  7 24  1  0
  7 25  1  0
  8  9  1  0
  8 26  1  0
  8 27  1  0
  9 10  2  0
  9 13  1  0
 10 11  1  0
 10 14  1  0
 11 12  1  0
 11 28  1  0
 11 29  1  0
 12 13  1  0
 12 30  1  0
 12 31  1  0
 13 32  1  0
 13 33  1  0
 14 15  1  1
 14 16  1  0
 15 34  1  0
 15 35  1  0
 15 36  1  0
 16 37  1  0
 16 38  1  0
M  END

