
     RDKit          3D

 54 57  0  0  0  0  0  0  0  0999 V2000
    3.7176   14.5136   -0.5452 N   0  0  0  0  0  0  0  0  0  0  0  0
    3.0639   13.8345   -1.4166 C   0  0  0  0  0  0  0  0  0  0  0  0
    1.9363   14.2705   -2.0993 N   0  0  0  0  0  0  0  0  0  0  0  0
    3.4914   12.4344   -1.7210 C   0  0  0  0  0  0  0  0  0  0  0  0
    2.6436   11.4959   -2.3302 C   0  0  0  0  0  0  0  0  0  0  0  0
    3.0640   10.1943   -2.6072 C   0  0  0  0  0  0  0  0  0  0  0  0
    4.3695    9.8007   -2.2664 C   0  0  0  0  0  0  0  0  0  0  0  0
    4.8747    8.5183   -2.5212 N   0  0  0  0  0  0  0  0  0  0  0  0
    4.2324    7.4226   -3.0324 C   0  0  0  0  0  0  0  0  0  0  0  0
    3.0614    7.3573   -3.3535 O   0  0  0  0  0  0  0  0  0  0  0  0
    5.1555    6.2035   -3.1692 C   0  0  2  0  0  0  0  0  0  0  0  0
    4.4924    5.3314   -3.0226 H   0  0  0  0  0  0  0  0  0  0  0  0
    6.1711    6.2531   -2.1867 O   0  0  0  0  0  0  0  0  0  0  0  0
    5.8577    6.0807   -4.5533 C   0  0  1  0  0  0  0  0  0  0  0  0
    6.5043    6.9629   -4.6713 H   0  0  0  0  0  0  0  0  0  0  0  0
    6.7332    4.9582   -4.4826 O   0  0  0  0  0  0  0  0  0  0  0  0
    6.0838    3.7361   -4.7970 C   0  0  0  0  0  0  0  0  0  0  0  0
    5.5302    3.7813   -6.2066 C   0  0  0  0  0  0  0  0  0  0  0  0
    4.6299    4.9231   -6.3877 N   0  0  0  0  0  0  0  0  0  0  0  0
    3.6438    4.8542   -7.4316 C   0  0  0  0  0  0  0  0  0  0  0  0
    2.3794    5.4636   -7.2345 C   0  0  0  0  0  0  0  0  0  0  0  0
    1.4183    5.3639   -8.2623 C   0  0  0  0  0  0  0  0  0  0  0  0
    1.6690    4.6714   -9.4323 C   0  0  0  0  0  0  0  0  0  0  0  0
    2.9310    4.0136   -9.6263 C   0  0  0  0  0  0  0  0  0  0  0  0
    3.2440    3.2549  -10.7812 C   0  0  0  0  0  0  0  0  0  0  0  0
    4.3885    2.7208  -11.1761 N   0  0  0  0  0  0  0  0  0  0  0  0
    4.0931    1.8832  -12.2847 N   0  0  0  0  0  0  0  0  0  0  0  0
    2.7945    2.1960  -12.7026 N   0  0  0  0  0  0  0  0  0  0  0  0
    2.2117    2.9316  -11.7430 N   0  0  0  0  0  0  0  0  0  0  0  0
    3.9241    4.1490   -8.5913 C   0  0  0  0  0  0  0  0  0  0  0  0
    4.8932    6.1159   -5.7479 C   0  0  0  0  0  0  0  0  0  0  0  0
    4.3949    7.1861   -6.0368 O   0  0  0  0  0  0  0  0  0  0  0  0
    5.2228   10.7325   -1.6420 C   0  0  0  0  0  0  0  0  0  0  0  0
    4.7890   12.0237   -1.3711 C   0  0  0  0  0  0  0  0  0  0  0  0
    3.3420   15.4637   -0.4552 H   0  0  0  0  0  0  0  0  0  0  0  0
    1.7176   15.2578   -2.0251 H   0  0  0  0  0  0  0  0  0  0  0  0
    1.7649   13.8792   -3.0187 H   0  0  0  0  0  0  0  0  0  0  0  0
    1.6141   11.7679   -2.5750 H   0  0  0  0  0  0  0  0  0  0  0  0
    2.3961    9.4741   -3.0743 H   0  0  0  0  0  0  0  0  0  0  0  0
    5.8184    8.3231   -2.1967 H   0  0  0  0  0  0  0  0  0  0  0  0
    6.8605    5.6371   -2.4856 H   0  0  0  0  0  0  0  0  0  0  0  0
    5.2743    3.5171   -4.0746 H   0  0  0  0  0  0  0  0  0  0  0  0
    6.8415    2.9434   -4.7103 H   0  0  0  0  0  0  0  0  0  0  0  0
    4.9677    2.8589   -6.4143 H   0  0  0  0  0  0  0  0  0  0  0  0
    6.3688    3.8251   -6.9258 H   0  0  0  0  0  0  0  0  0  0  0  0
    2.1734    6.0240   -6.3255 H   0  0  0  0  0  0  0  0  0  0  0  0
    0.4514    5.8574   -8.1302 H   0  0  0  0  0  0  0  0  0  0  0  0
    0.9047    4.6575  -10.2144 H   0  0  0  0  0  0  0  0  0  0  0  0
    4.7467    2.0583  -13.0549 H   0  0  0  0  0  0  0  0  0  0  0  0
    2.2456    1.4469  -13.1327 H   0  0  0  0  0  0  0  0  0  0  0  0
    1.2651    2.6842  -11.4626 H   0  0  0  0  0  0  0  0  0  0  0  0
    4.8983    3.6894   -8.7535 H   0  0  0  0  0  0  0  0  0  0  0  0
    6.2390   10.4320   -1.3695 H   0  0  0  0  0  0  0  0  0  0  0  0
    5.4437   12.7460   -0.8811 H   0  0  0  0  0  0  0  0  0  0  0  0
  1  2  2  0
  1 35  1  0
  2  3  1  0
  2  4  1  0
  3 36  1  0
  3 37  1  0
  4  5  2  0
  4 34  1  0
  5  6  1  0
  5 38  1  0
  6  7  2  0
  6 39  1  0
  7  8  1  0
  7 33  1  0
  8  9  1  0
  8 40  1  0
  9 10  2  0
  9 11  1  0
 11 12  1  1
 11 13  1  0
 11 14  1  0
 13 41  1  0
 14 15  1  6
 14 16  1  0
 14 31  1  0
 16 17  1  0
 17 18  1  0
 17 42  1  0
 17 43  1  0
 18 19  1  0
 18 44  1  0
 18 45  1  0
 19 20  1  0
 19 31  1  0
 20 21  2  0
 20 30  1  0
 21 22  1  0
 21 46  1  0
 22 23  2  0
 22 47  1  0
 23 24  1  0
 23 48  1  0
 24 25  1  0
 24 30  2  0
 25 26  2  0
 25 29  1  0
 26 27  1  0
 27 28  1  0
 27 49  1  0
 28 29  1  0
 28 50  1  0
 29 51  1  0
 30 52  1  0
 31 32  2  0
 33 34  2  0
 33 53  1  0
 34 54  1  0
M  END

