
     RDKit          3D

 68 72  0  0  0  0  0  0  0  0999 V2000
    4.7083   -0.6708    1.1522 O   0  0  0  0  0  0  0  0  0  0  0  0
    4.4083    0.1930    0.3718 C   0  0  0  0  0  0  0  0  0  0  0  0
    5.2832    0.7981   -0.4365 O   0  0  0  0  0  0  0  0  0  0  0  0
    2.9643    0.7177    0.2276 C   0  0  1  0  0  0  0  0  0  0  0  0
    2.4593    1.2839    1.5662 C   0  0  0  0  0  0  0  0  0  0  0  0
    1.0014    1.6809    1.5390 C   0  0  0  0  0  0  0  0  0  0  0  0
   -0.0009    0.7737    1.9187 C   0  0  0  0  0  0  0  0  0  0  0  0
   -1.3505    1.1259    1.8577 C   0  0  0  0  0  0  0  0  0  0  0  0
   -1.7528    2.3974    1.4163 C   0  0  0  0  0  0  0  0  0  0  0  0
   -3.2174    2.7799    1.3842 C   0  0  0  0  0  0  0  0  0  0  0  0
   -3.7946    3.1961    2.7524 C   0  0  0  0  0  0  0  0  0  0  0  0
   -3.2051    4.4851    3.3389 C   0  0  0  0  0  0  0  0  0  0  0  0
   -3.4151    5.6590    2.4897 N   0  0  0  0  0  0  0  0  0  0  0  0
   -4.7535    6.0403    2.1765 C   0  0  0  0  0  0  0  0  0  0  0  0
   -5.7886    5.8703    3.1107 C   0  0  0  0  0  0  0  0  0  0  0  0
   -7.1168    6.1477    2.7802 C   0  0  0  0  0  0  0  0  0  0  0  0
   -7.4357    6.6120    1.5017 C   0  0  0  0  0  0  0  0  0  0  0  0
   -6.4144    6.8019    0.5726 C   0  0  0  0  0  0  0  0  0  0  0  0
   -5.0666    6.5387    0.8855 C   0  0  0  0  0  0  0  0  0  0  0  0
   -4.0451    6.7976   -0.1317 C   0  0  0  0  0  0  0  0  0  0  0  0
   -2.7600    7.1678    0.0685 C   0  0  0  0  0  0  0  0  0  0  0  0
   -2.0809    7.3873    1.3473 C   0  0  0  0  0  0  0  0  0  0  0  0
   -1.0267    8.3196    1.4028 C   0  0  0  0  0  0  0  0  0  0  0  0
   -0.3435    8.5885    2.5877 C   0  0  0  0  0  0  0  0  0  0  0  0
   -0.7116    7.9154    3.7550 C   0  0  0  0  0  0  0  0  0  0  0  0
   -1.7496    6.9813    3.7247 C   0  0  0  0  0  0  0  0  0  0  0  0
   -2.4337    6.6903    2.5326 C   0  0  0  0  0  0  0  0  0  0  0  0
   -0.7487    3.3033    1.0380 C   0  0  0  0  0  0  0  0  0  0  0  0
    0.6032    2.9519    1.0976 C   0  0  0  0  0  0  0  0  0  0  0  0
    2.9328    1.7080   -0.7960 O   0  0  0  0  0  0  0  0  0  0  0  0
    2.1207    1.4105   -1.9380 C   0  0  0  0  0  0  0  0  0  0  0  0
    2.3237    2.4812   -2.9776 C   0  0  0  0  0  0  0  0  0  0  0  0
    3.4135    2.4155   -3.8595 C   0  0  0  0  0  0  0  0  0  0  0  0
    3.6296    3.4241   -4.8015 C   0  0  0  0  0  0  0  0  0  0  0  0
    2.7543    4.5127   -4.8725 C   0  0  0  0  0  0  0  0  0  0  0  0
    1.6658    4.5879   -3.9984 C   0  0  0  0  0  0  0  0  0  0  0  0
    1.4542    3.5787   -3.0549 C   0  0  0  0  0  0  0  0  0  0  0  0
    4.7655    1.4721   -0.9270 H   0  0  0  0  0  0  0  0  0  0  0  0
    2.3408   -0.1493   -0.0530 H   0  0  0  0  0  0  0  0  0  0  0  0
    3.0887    2.1514    1.8238 H   0  0  0  0  0  0  0  0  0  0  0  0
    2.6407    0.5112    2.3281 H   0  0  0  0  0  0  0  0  0  0  0  0
    0.2798   -0.2241    2.2700 H   0  0  0  0  0  0  0  0  0  0  0  0
   -2.1085    0.3958    2.1583 H   0  0  0  0  0  0  0  0  0  0  0  0
   -3.8058    1.9239    1.0131 H   0  0  0  0  0  0  0  0  0  0  0  0
   -3.3691    3.6033    0.6695 H   0  0  0  0  0  0  0  0  0  0  0  0
   -3.6190    2.3911    3.4872 H   0  0  0  0  0  0  0  0  0  0  0  0
   -4.8885    3.2927    2.6602 H   0  0  0  0  0  0  0  0  0  0  0  0
   -2.1170    4.3633    3.4422 H   0  0  0  0  0  0  0  0  0  0  0  0
   -3.5952    4.6214    4.3681 H   0  0  0  0  0  0  0  0  0  0  0  0
   -5.5541    5.4985    4.1092 H   0  0  0  0  0  0  0  0  0  0  0  0
   -7.9027    5.9928    3.5240 H   0  0  0  0  0  0  0  0  0  0  0  0
   -8.4729    6.8213    1.2295 H   0  0  0  0  0  0  0  0  0  0  0  0
   -6.6544    7.1658   -0.4304 H   0  0  0  0  0  0  0  0  0  0  0  0
   -4.4054    6.7869   -1.1661 H   0  0  0  0  0  0  0  0  0  0  0  0
   -2.1743    7.4308   -0.8191 H   0  0  0  0  0  0  0  0  0  0  0  0
   -0.7425    8.8388    0.4832 H   0  0  0  0  0  0  0  0  0  0  0  0
    0.4729    9.3144    2.5992 H   0  0  0  0  0  0  0  0  0  0  0  0
   -0.1885    8.1114    4.6945 H   0  0  0  0  0  0  0  0  0  0  0  0
   -2.0272    6.4610    4.6427 H   0  0  0  0  0  0  0  0  0  0  0  0
   -1.0318    4.3022    0.6948 H   0  0  0  0  0  0  0  0  0  0  0  0
    1.3635    3.6766    0.7952 H   0  0  0  0  0  0  0  0  0  0  0  0
    1.0626    1.3626   -1.6295 H   0  0  0  0  0  0  0  0  0  0  0  0
    2.4042    0.4221   -2.3461 H   0  0  0  0  0  0  0  0  0  0  0  0
    4.0973    1.5622   -3.8116 H   0  0  0  0  0  0  0  0  0  0  0  0
    4.4804    3.3587   -5.4845 H   0  0  0  0  0  0  0  0  0  0  0  0
    2.9197    5.3010   -5.6114 H   0  0  0  0  0  0  0  0  0  0  0  0
    0.9786    5.4362   -4.0515 H   0  0  0  0  0  0  0  0  0  0  0  0
    0.6045    3.6399   -2.3693 H   0  0  0  0  0  0  0  0  0  0  0  0
  1  2  2  0
  2  3  1  0
  2  4  1  0
  3 38  1  0
  4  5  1  0
  4 30  1  0
  4 39  1  6
  5  6  1  0
  5 40  1  0
  5 41  1  0
  6  7  2  0
  6 29  1  0
  7  8  1  0
  7 42  1  0
  8  9  2  0
  8 43  1  0
  9 10  1  0
  9 28  1  0
 10 11  1  0
 10 44  1  0
 10 45  1  0
 11 12  1  0
 11 46  1  0
 11 47  1  0
 12 13  1  0
 12 48  1  0
 12 49  1  0
 13 14  1  0
 13 27  1  0
 14 15  2  0
 14 19  1  0
 15 16  1  0
 15 50  1  0
 16 17  2  0
 16 51  1  0
 17 18  1  0
 17 52  1  0
 18 19  2  0
 18 53  1  0
 19 20  1  0
 20 21  2  0
 20 54  1  0
 21 22  1  0
 21 55  1  0
 22 23  1  0
 22 27  2  0
 23 24  2  0
 23 56  1  0
 24 25  1  0
 24 57  1  0
 25 26  2  0
 25 58  1  0
 26 27  1  0
 26 59  1  0
 28 29  2  0
 28 60  1  0
 29 61  1  0
 30 31  1  0
 31 32  1  0
 31 62  1  0
 31 63  1  0
 32 33  2  0
 32 37  1  0
 33 34  1  0
 33 64  1  0
 34 35  2  0
 34 65  1  0
 35 36  1  0
 35 66  1  0
 36 37  2  0
 36 67  1  0
 37 68  1  0
M  END

