
     RDKit          3D

 46 47  0  0  0  0  0  0  0  0999 V2000
    3.8176   -7.2608    3.6603 C   0  0  0  0  0  0  0  0  0  0  0  0
    3.7979   -5.8070    4.1464 C   0  0  1  0  0  0  0  0  0  0  0  0
    3.7967   -5.7307    5.6778 C   0  0  0  0  0  0  0  0  0  0  0  0
    4.9742   -5.0348    3.5247 C   0  0  0  0  0  0  0  0  0  0  0  0
    4.9510   -3.6159    3.8609 N   0  0  0  0  0  0  0  0  0  0  0  0
    5.4327   -2.4290    2.7961 S   0  0  1  0  0  0  0  0  0  0  0  0
    4.9270   -2.8123    1.4785 O   0  0  0  0  0  0  0  0  0  0  0  0
    5.0937   -1.1647    3.4471 O   0  0  0  0  0  0  0  0  0  0  0  0
    7.2347   -2.5052    2.7100 C   0  0  0  0  0  0  0  0  0  0  0  0
    7.8519   -3.2923    1.7320 C   0  0  0  0  0  0  0  0  0  0  0  0
    9.2440   -3.3593    1.6915 C   0  0  0  0  0  0  0  0  0  0  0  0
   10.0218   -2.6544    2.6231 C   0  0  0  0  0  0  0  0  0  0  0  0
   11.5198   -2.7768    2.5001 C   0  0  0  0  0  0  0  0  0  0  0  0
   12.0467   -3.1379    1.4577 O   0  0  0  0  0  0  0  0  0  0  0  0
   12.2497   -2.4916    3.6214 N   0  0  0  0  0  0  0  0  0  0  0  0
   13.7051   -2.5212    3.5972 C   0  0  0  0  0  0  0  0  0  0  0  0
   14.3405   -1.2027    3.2288 C   0  0  0  0  0  0  0  0  0  0  0  0
   14.4614   -0.6462    1.9728 C   0  0  0  0  0  0  0  0  0  0  0  0
   15.0626    0.6397    1.9849 C   0  0  0  0  0  0  0  0  0  0  0  0
   15.4063    1.0696    3.2496 C   0  0  0  0  0  0  0  0  0  0  0  0
   16.0637    2.3691    3.5482 C   0  0  0  0  0  0  0  0  0  0  0  0
   16.2503    3.2040    2.7032 O   0  0  0  0  0  0  0  0  0  0  0  0
   16.4559    2.5884    4.8257 O   0  0  0  0  0  0  0  0  0  0  0  0
   14.9672   -0.1276    4.4423 S   0  0  0  0  0  0  0  0  0  0  0  0
    9.3834   -1.8441    3.5768 C   0  0  0  0  0  0  0  0  0  0  0  0
    7.9912   -1.7630    3.6221 C   0  0  0  0  0  0  0  0  0  0  0  0
    2.9538   -7.8200    4.0529 H   0  0  0  0  0  0  0  0  0  0  0  0
    4.7302   -7.7824    3.9970 H   0  0  0  0  0  0  0  0  0  0  0  0
    3.7837   -7.3208    2.5604 H   0  0  0  0  0  0  0  0  0  0  0  0
    2.8756   -5.3246    3.7771 H   0  0  0  0  0  0  0  0  0  0  0  0
    4.7195   -6.1663    6.1001 H   0  0  0  0  0  0  0  0  0  0  0  0
    2.9453   -6.2886    6.0988 H   0  0  0  0  0  0  0  0  0  0  0  0
    3.7098   -4.6929    6.0385 H   0  0  0  0  0  0  0  0  0  0  0  0
    4.9058   -5.1003    2.4291 H   0  0  0  0  0  0  0  0  0  0  0  0
    5.9306   -5.5082    3.8273 H   0  0  0  0  0  0  0  0  0  0  0  0
    5.1085   -3.3461    4.8286 H   0  0  0  0  0  0  0  0  0  0  0  0
    7.2415   -3.8222    0.9987 H   0  0  0  0  0  0  0  0  0  0  0  0
    9.7575   -3.9491    0.9302 H   0  0  0  0  0  0  0  0  0  0  0  0
   11.7807   -2.1966    4.4676 H   0  0  0  0  0  0  0  0  0  0  0  0
   13.9949   -3.2684    2.8447 H   0  0  0  0  0  0  0  0  0  0  0  0
   14.0689   -2.8671    4.5763 H   0  0  0  0  0  0  0  0  0  0  0  0
   14.1118   -1.1623    1.0771 H   0  0  0  0  0  0  0  0  0  0  0  0
   15.2576    1.2529    1.1045 H   0  0  0  0  0  0  0  0  0  0  0  0
   16.3079    1.8143    5.3877 H   0  0  0  0  0  0  0  0  0  0  0  0
    9.9652   -1.2320    4.2707 H   0  0  0  0  0  0  0  0  0  0  0  0
    7.4880   -1.1091    4.3367 H   0  0  0  0  0  0  0  0  0  0  0  0
  1  2  1  0
  1 27  1  0
  1 28  1  0
  1 29  1  0
  2  3  1  0
  2  4  1  0
  2 30  1  6
  3 31  1  0
  3 32  1  0
  3 33  1  0
  4  5  1  0
  4 34  1  0
  4 35  1  0
  6  5  1  1
  5 36  1  0
  6  7  2  0
  6  8  2  0
  6  9  1  0
  9 10  2  0
  9 26  1  0
 10 11  1  0
 10 37  1  0
 11 12  2  0
 11 38  1  0
 12 13  1  0
 12 25  1  0
 13 14  2  0
 13 15  1  0
 15 16  1  0
 15 39  1  0
 16 17  1  0
 16 40  1  0
 16 41  1  0
 17 18  2  0
 17 24  1  0
 18 19  1  0
 18 42  1  0
 19 20  2  0
 19 43  1  0
 20 21  1  0
 20 24  1  0
 21 22  2  0
 21 23  1  0
 23 44  1  0
 25 26  2  0
 25 45  1  0
 26 46  1  0
M  END

