
     RDKit          3D

 91 95  0  0  0  0  0  0  0  0999 V2000
    6.6537    6.1518    0.0964 C   0  0  0  0  0  0  0  0  0  0  0  0
    5.9783    5.2091   -0.6887 O   0  0  0  0  0  0  0  0  0  0  0  0
    6.7507    4.6835   -1.7403 C   0  0  0  0  0  0  0  0  0  0  0  0
    5.9229    3.6604   -2.5041 C   0  0  0  0  0  0  0  0  0  0  0  0
    6.6716    3.0472   -3.6905 C   0  0  0  0  0  0  0  0  0  0  0  0
    5.8452    1.9956   -4.4319 C   0  0  0  0  0  0  0  0  0  0  0  0
    6.5824    1.2740   -5.6162 C   0  0  1  0  0  0  0  0  0  0  0  0
    5.5558    0.2412   -6.2095 C   0  0  0  0  0  0  0  0  0  0  0  0
    6.1124   -0.5872   -7.2509 N   0  0  0  0  0  0  0  0  0  0  0  0
    5.7443   -0.4872   -8.5602 C   0  0  0  0  0  0  0  0  0  0  0  0
    4.9204    0.3337   -8.9446 O   0  0  0  0  0  0  0  0  0  0  0  0
    6.4516   -1.4194   -9.5631 C   0  0  1  0  0  0  0  0  0  0  0  0
    7.2973   -2.5707   -8.9958 C   0  0  0  0  0  0  0  0  0  0  0  0
    6.4298   -3.7136   -8.4420 C   0  0  2  0  0  0  0  0  0  0  0  0
    7.3062   -4.9159   -8.0760 C   0  0  0  0  0  0  0  0  0  0  0  0
    8.2421   -5.2239   -8.8038 O   0  0  0  0  0  0  0  0  0  0  0  0
    6.9885   -5.6466   -6.9474 N   0  0  0  0  0  0  0  0  0  0  0  0
    7.7366   -6.8859   -6.6958 C   0  0  0  0  0  0  0  0  0  0  0  0
    6.9405   -8.1740   -6.9486 C   0  0  0  0  0  0  0  0  0  0  0  0
    6.4635   -8.4252   -8.3913 C   0  0  1  0  0  0  0  0  0  0  0  0
    7.6266   -8.5615   -9.3835 C   0  0  0  0  0  0  0  0  0  0  0  0
    5.5508   -9.6582   -8.4379 C   0  0  0  0  0  0  0  0  0  0  0  0
    5.8334   -5.3742   -6.1257 C   0  0  1  0  0  0  0  0  0  0  0  0
    5.9241   -5.5325   -4.6274 C   0  0  0  0  0  0  0  0  0  0  0  0
    5.7673   -4.1631   -5.2228 C   0  0  0  0  0  0  0  0  0  0  0  0
    5.3958   -4.1397   -9.5053 C   0  0  0  0  0  0  0  0  0  0  0  0
    4.6030   -3.0031   -9.9445 N   0  0  0  0  0  0  0  0  0  0  0  0
    3.4733   -3.3862  -10.7654 C   0  0  0  0  0  0  0  0  0  0  0  0
    5.4192   -1.9656  -10.5588 C   0  0  0  0  0  0  0  0  0  0  0  0
    6.9295    2.2939   -6.6848 C   0  0  0  0  0  0  0  0  0  0  0  0
    5.9712    3.0448   -7.3574 C   0  0  0  0  0  0  0  0  0  0  0  0
    6.3212    3.9986   -8.3249 C   0  0  0  0  0  0  0  0  0  0  0  0
    7.6785    4.2405   -8.6576 C   0  0  0  0  0  0  0  0  0  0  0  0
    8.6637    3.5191   -8.0307 C   0  0  0  0  0  0  0  0  0  0  0  0
    8.3049    2.5351   -7.0505 C   0  0  0  0  0  0  0  0  0  0  0  0
    9.2921    1.8783   -6.5259 O   0  0  0  0  0  0  0  0  0  0  0  0
    9.0951    0.8269   -5.5728 C   0  0  0  0  0  0  0  0  0  0  0  0
   10.2793    0.1957   -5.1977 C   0  0  0  0  0  0  0  0  0  0  0  0
   10.1555   -0.8752   -4.2334 C   0  0  0  0  0  0  0  0  0  0  0  0
    8.8942   -1.2202   -3.7651 C   0  0  0  0  0  0  0  0  0  0  0  0
    7.7121   -0.5781   -4.1908 C   0  0  0  0  0  0  0  0  0  0  0  0
    7.8140    0.5370   -5.1357 C   0  0  0  0  0  0  0  0  0  0  0  0
    5.9648    6.4938    0.8830 H   0  0  0  0  0  0  0  0  0  0  0  0
    6.9771    7.0340   -0.4949 H   0  0  0  0  0  0  0  0  0  0  0  0
    7.5556    5.7236    0.5810 H   0  0  0  0  0  0  0  0  0  0  0  0
    7.6758    4.2093   -1.3465 H   0  0  0  0  0  0  0  0  0  0  0  0
    7.0820    5.4974   -2.4230 H   0  0  0  0  0  0  0  0  0  0  0  0
    4.9940    4.1513   -2.8442 H   0  0  0  0  0  0  0  0  0  0  0  0
    5.6142    2.8690   -1.7995 H   0  0  0  0  0  0  0  0  0  0  0  0
    7.6073    2.5798   -3.3413 H   0  0  0  0  0  0  0  0  0  0  0  0
    6.9678    3.8545   -4.3855 H   0  0  0  0  0  0  0  0  0  0  0  0
    4.9093    2.4464   -4.8073 H   0  0  0  0  0  0  0  0  0  0  0  0
    5.5425    1.2132   -3.7184 H   0  0  0  0  0  0  0  0  0  0  0  0
    4.6757    0.7459   -6.6279 H   0  0  0  0  0  0  0  0  0  0  0  0
    5.2162   -0.3939   -5.3784 H   0  0  0  0  0  0  0  0  0  0  0  0
    6.8350   -1.2408   -6.9734 H   0  0  0  0  0  0  0  0  0  0  0  0
    7.1200   -0.7441  -10.1273 H   0  0  0  0  0  0  0  0  0  0  0  0
    8.0136   -2.2179   -8.2342 H   0  0  0  0  0  0  0  0  0  0  0  0
    7.9203   -2.9838   -9.8036 H   0  0  0  0  0  0  0  0  0  0  0  0
    5.8659   -3.3577   -7.5726 H   0  0  0  0  0  0  0  0  0  0  0  0
    8.0797   -6.8840   -5.6492 H   0  0  0  0  0  0  0  0  0  0  0  0
    8.6296   -6.8427   -7.3301 H   0  0  0  0  0  0  0  0  0  0  0  0
    6.0667   -8.1936   -6.2730 H   0  0  0  0  0  0  0  0  0  0  0  0
    7.5788   -9.0201   -6.6323 H   0  0  0  0  0  0  0  0  0  0  0  0
    5.8579   -7.5525   -8.7017 H   0  0  0  0  0  0  0  0  0  0  0  0
    8.2932   -9.3934   -9.0946 H   0  0  0  0  0  0  0  0  0  0  0  0
    8.2233   -7.6393   -9.4412 H   0  0  0  0  0  0  0  0  0  0  0  0
    7.2515   -8.7779  -10.3973 H   0  0  0  0  0  0  0  0  0  0  0  0
    6.0995  -10.5667   -8.1337 H   0  0  0  0  0  0  0  0  0  0  0  0
    5.1628   -9.8315   -9.4547 H   0  0  0  0  0  0  0  0  0  0  0  0
    4.6865   -9.5516   -7.7615 H   0  0  0  0  0  0  0  0  0  0  0  0
    4.8754   -5.6839   -6.5649 H   0  0  0  0  0  0  0  0  0  0  0  0
    6.8969   -5.7768   -4.1941 H   0  0  0  0  0  0  0  0  0  0  0  0
    5.0758   -5.9954   -4.1160 H   0  0  0  0  0  0  0  0  0  0  0  0
    6.6358   -3.4985   -5.1876 H   0  0  0  0  0  0  0  0  0  0  0  0
    4.8041   -3.6522   -5.1344 H   0  0  0  0  0  0  0  0  0  0  0  0
    4.7161   -4.8986   -9.0826 H   0  0  0  0  0  0  0  0  0  0  0  0
    5.9350   -4.6258  -10.3520 H   0  0  0  0  0  0  0  0  0  0  0  0
    2.8367   -4.1050  -10.2244 H   0  0  0  0  0  0  0  0  0  0  0  0
    3.7679   -3.8590  -11.7315 H   0  0  0  0  0  0  0  0  0  0  0  0
    2.8613   -2.5009  -10.9988 H   0  0  0  0  0  0  0  0  0  0  0  0
    4.7666   -1.1403  -10.8761 H   0  0  0  0  0  0  0  0  0  0  0  0
    5.9535   -2.3461  -11.4615 H   0  0  0  0  0  0  0  0  0  0  0  0
    4.9151    2.8836   -7.1444 H   0  0  0  0  0  0  0  0  0  0  0  0
    5.5334    4.5572   -8.8339 H   0  0  0  0  0  0  0  0  0  0  0  0
    7.9314    4.9878   -9.4118 H   0  0  0  0  0  0  0  0  0  0  0  0
    9.7241    3.6486   -8.2496 H   0  0  0  0  0  0  0  0  0  0  0  0
   11.2318    0.5169   -5.6141 H   0  0  0  0  0  0  0  0  0  0  0  0
   11.0436   -1.4063   -3.8880 H   0  0  0  0  0  0  0  0  0  0  0  0
    8.8078   -2.0279   -3.0302 H   0  0  0  0  0  0  0  0  0  0  0  0
    6.7565   -0.8341   -3.7344 H   0  0  0  0  0  0  0  0  0  0  0  0
  1  2  1  0
  1 43  1  0
  1 44  1  0
  1 45  1  0
  2  3  1  0
  3  4  1  0
  3 46  1  0
  3 47  1  0
  4  5  1  0
  4 48  1  0
  4 49  1  0
  5  6  1  0
  5 50  1  0
  5 51  1  0
  7  6  1  1
  6 52  1  0
  6 53  1  0
  7  8  1  0
  7 30  1  0
  7 42  1  0
  8  9  1  0
  8 54  1  0
  8 55  1  0
  9 10  1  0
  9 56  1  0
 10 11  2  0
 10 12  1  0
 12 13  1  0
 12 29  1  0
 12 57  1  6
 13 14  1  0
 13 58  1  0
 13 59  1  0
 14 15  1  0
 14 26  1  0
 14 60  1  1
 15 16  2  0
 15 17  1  0
 17 18  1  0
 17 23  1  0
 18 19  1  0
 18 61  1  0
 18 62  1  0
 19 20  1  0
 19 63  1  0
 19 64  1  0
 20 21  1  0
 20 22  1  0
 20 65  1  6
 21 66  1  0
 21 67  1  0
 21 68  1  0
 22 69  1  0
 22 70  1  0
 22 71  1  0
 23 24  1  0
 23 25  1  0
 23 72  1  6
 24 25  1  0
 24 73  1  0
 24 74  1  0
 25 75  1  0
 25 76  1  0
 26 27  1  0
 26 77  1  0
 26 78  1  0
 27 28  1  0
 27 29  1  0
 28 79  1  0
 28 80  1  0
 28 81  1  0
 29 82  1  0
 29 83  1  0
 30 31  2  0
 30 35  1  0
 31 32  1  0
 31 84  1  0
 32 33  2  0
 32 85  1  0
 33 34  1  0
 33 86  1  0
 34 35  2  0
 34 87  1  0
 35 36  1  0
 36 37  1  0
 37 38  2  0
 37 42  1  0
 38 39  1  0
 38 88  1  0
 39 40  2  0
 39 89  1  0
 40 41  1  0
 40 90  1  0
 41 42  2  0
 41 91  1  0
M  END

