
     RDKit          3D

 55 57  0  0  0  0  0  0  0  0999 V2000
    2.4042   -1.1124    1.0249 C   0  0  0  0  0  0  0  0  0  0  0  0
    3.2559   -1.3227   -0.1305 N   0  0  0  0  0  0  0  0  0  0  0  0
    2.5927   -1.8943   -1.2999 C   0  0  0  0  0  0  0  0  0  0  0  0
    1.8710   -0.8370   -2.1604 C   0  0  0  0  0  0  0  0  0  0  0  0
    2.7545    0.2703   -2.5435 N   0  0  0  0  0  0  0  0  0  0  0  0
    3.6794   -0.0700   -3.6207 C   0  0  0  0  0  0  0  0  0  0  0  0
    3.3555    0.8643   -1.3294 C   0  0  2  0  0  0  0  0  0  0  0  0
    4.1945    2.0986   -1.6520 C   0  0  0  0  0  0  0  0  0  0  0  0
    3.4132    3.0088   -2.4593 N   0  0  0  0  0  0  0  0  0  0  0  0
    3.7883    4.3224   -2.6242 C   0  0  0  0  0  0  0  0  0  0  0  0
    4.7586    4.8066   -2.0661 O   0  0  0  0  0  0  0  0  0  0  0  0
    2.9351    5.0092   -3.4967 N   0  0  0  0  0  0  0  0  0  0  0  0
    2.9598    6.3322   -3.9006 C   0  0  0  0  0  0  0  0  0  0  0  0
    3.8451    7.3201   -3.3177 C   0  0  0  0  0  0  0  0  0  0  0  0
    3.5681    8.6647   -3.6227 C   0  0  0  0  0  0  0  0  0  0  0  0
    2.5643    9.0419   -4.5416 C   0  0  0  0  0  0  0  0  0  0  0  0
    1.7495    8.0889   -5.2063 C   0  0  0  0  0  0  0  0  0  0  0  0
    1.9602    6.7145   -4.8424 C   0  0  0  0  0  0  0  0  0  0  0  0
    1.1649    5.7013   -5.2864 O   0  0  0  0  0  0  0  0  0  0  0  0
   -0.0734    5.9596   -5.9550 C   0  0  1  0  0  0  0  0  0  0  0  0
    0.0422    5.9404   -7.4839 C   0  0  0  0  0  0  0  0  0  0  0  0
   -1.4152    5.7592   -7.9397 C   0  0  0  0  0  0  0  0  0  0  0  0
   -2.1013    4.9188   -6.8191 C   0  0  0  0  0  0  0  0  0  0  0  0
   -1.0762    4.8389   -5.6622 C   0  0  0  0  0  0  0  0  0  0  0  0
    4.1058   -0.1903   -0.4898 C   0  0  0  0  0  0  0  0  0  0  0  0
    1.9070   -2.0586    1.2939 H   0  0  0  0  0  0  0  0  0  0  0  0
    1.6063   -0.3454    0.9041 H   0  0  0  0  0  0  0  0  0  0  0  0
    3.0195   -0.8075    1.8870 H   0  0  0  0  0  0  0  0  0  0  0  0
    1.8818   -2.6691   -0.9693 H   0  0  0  0  0  0  0  0  0  0  0  0
    3.3527   -2.4092   -1.9162 H   0  0  0  0  0  0  0  0  0  0  0  0
    1.0208   -0.4162   -1.5946 H   0  0  0  0  0  0  0  0  0  0  0  0
    1.4532   -1.2980   -3.0711 H   0  0  0  0  0  0  0  0  0  0  0  0
    3.1021   -0.4786   -4.4652 H   0  0  0  0  0  0  0  0  0  0  0  0
    4.4587   -0.8161   -3.3636 H   0  0  0  0  0  0  0  0  0  0  0  0
    4.1931    0.8319   -3.9857 H   0  0  0  0  0  0  0  0  0  0  0  0
    2.4983    1.2157   -0.7259 H   0  0  0  0  0  0  0  0  0  0  0  0
    5.1390    1.8162   -2.1575 H   0  0  0  0  0  0  0  0  0  0  0  0
    4.4926    2.6051   -0.7205 H   0  0  0  0  0  0  0  0  0  0  0  0
    2.6446    2.5851   -2.9722 H   0  0  0  0  0  0  0  0  0  0  0  0
    2.1994    4.4701   -3.9480 H   0  0  0  0  0  0  0  0  0  0  0  0
    4.6634    7.0052   -2.6789 H   0  0  0  0  0  0  0  0  0  0  0  0
    4.1541    9.4513   -3.1381 H   0  0  0  0  0  0  0  0  0  0  0  0
    2.4219   10.1048   -4.7597 H   0  0  0  0  0  0  0  0  0  0  0  0
    1.1801    8.3594   -6.0980 H   0  0  0  0  0  0  0  0  0  0  0  0
   -0.4596    6.9316   -5.6069 H   0  0  0  0  0  0  0  0  0  0  0  0
    0.6600    5.0707   -7.7680 H   0  0  0  0  0  0  0  0  0  0  0  0
    0.5288    6.8393   -7.8916 H   0  0  0  0  0  0  0  0  0  0  0  0
   -1.4849    5.2847   -8.9299 H   0  0  0  0  0  0  0  0  0  0  0  0
   -1.9049    6.7425   -8.0275 H   0  0  0  0  0  0  0  0  0  0  0  0
   -2.3763    3.9129   -7.1715 H   0  0  0  0  0  0  0  0  0  0  0  0
   -3.0360    5.3986   -6.4907 H   0  0  0  0  0  0  0  0  0  0  0  0
   -0.5286    3.8818   -5.6919 H   0  0  0  0  0  0  0  0  0  0  0  0
   -1.5302    4.9278   -4.6637 H   0  0  0  0  0  0  0  0  0  0  0  0
    4.5043    0.2666    0.4309 H   0  0  0  0  0  0  0  0  0  0  0  0
    4.9765   -0.5639   -1.0599 H   0  0  0  0  0  0  0  0  0  0  0  0
  1  2  1  0
  1 26  1  0
  1 27  1  0
  1 28  1  0
  2  3  1  0
  2 25  1  0
  3  4  1  0
  3 29  1  0
  3 30  1  0
  4  5  1  0
  4 31  1  0
  4 32  1  0
  5  6  1  0
  5  7  1  0
  6 33  1  0
  6 34  1  0
  6 35  1  0
  7  8  1  0
  7 25  1  0
  7 36  1  1
  8  9  1  0
  8 37  1  0
  8 38  1  0
  9 10  1  0
  9 39  1  0
 10 11  2  0
 10 12  1  0
 12 13  1  0
 12 40  1  0
 13 14  2  0
 13 18  1  0
 14 15  1  0
 14 41  1  0
 15 16  2  0
 15 42  1  0
 16 17  1  0
 16 43  1  0
 17 18  2  0
 17 44  1  0
 18 19  1  0
 19 20  1  0
 20 21  1  0
 20 24  1  0
 20 45  1  1
 21 22  1  0
 21 46  1  0
 21 47  1  0
 22 23  1  0
 22 48  1  0
 22 49  1  0
 23 24  1  0
 23 50  1  0
 23 51  1  0
 24 52  1  0
 24 53  1  0
 25 54  1  0
 25 55  1  0
M  END

