
     RDKit          3D

 45 47  0  0  0  0  0  0  0  0999 V2000
    3.1167    1.8730   -0.4959 C   0  0  0  0  0  0  0  0  0  0  0  0
    3.6073    0.6146   -0.0961 O   0  0  0  0  0  0  0  0  0  0  0  0
    3.5757   -0.4200   -0.9748 C   0  0  0  0  0  0  0  0  0  0  0  0
    4.0738   -1.6494   -0.5115 C   0  0  0  0  0  0  0  0  0  0  0  0
    4.0897   -2.7772   -1.3245 C   0  0  0  0  0  0  0  0  0  0  0  0
    3.6002   -2.6987   -2.6435 C   0  0  0  0  0  0  0  0  0  0  0  0
    3.5878   -3.7920   -3.5386 N   0  0  0  0  0  0  0  0  0  0  0  0
    3.9800   -5.0862   -3.3223 C   0  0  0  0  0  0  0  0  0  0  0  0
    4.3832   -5.5152   -2.2509 O   0  0  0  0  0  0  0  0  0  0  0  0
    3.8719   -6.0023   -4.5166 C   0  0  0  0  0  0  0  0  0  0  0  0
    3.7938   -5.5889   -5.8553 C   0  0  0  0  0  0  0  0  0  0  0  0
    3.7040   -6.4306   -6.8862 N   0  0  0  0  0  0  0  0  0  0  0  0
    3.7001   -7.7378   -6.6307 C   0  0  0  0  0  0  0  0  0  0  0  0
    3.8167   -8.2775   -5.3362 C   0  0  0  0  0  0  0  0  0  0  0  0
    3.8142   -9.7799   -5.2039 C   0  0  0  0  0  0  0  0  0  0  0  0
    3.4582  -10.4922   -6.1337 O   0  0  0  0  0  0  0  0  0  0  0  0
    4.2466  -10.2871   -4.0148 N   0  0  0  0  0  0  0  0  0  0  0  0
    4.2794  -11.7219   -3.7552 C   0  0  0  0  0  0  0  0  0  0  0  0
    3.0315  -12.2563   -3.0806 C   0  0  0  0  0  0  0  0  0  0  0  0
    1.8159  -12.3658   -3.7739 C   0  0  0  0  0  0  0  0  0  0  0  0
    0.6971  -12.8532   -3.1001 C   0  0  0  0  0  0  0  0  0  0  0  0
    0.8300  -13.2172   -1.7546 C   0  0  0  0  0  0  0  0  0  0  0  0
    1.9785  -13.1232   -1.0829 N   0  0  0  0  0  0  0  0  0  0  0  0
    3.0441  -12.6547   -1.7363 C   0  0  0  0  0  0  0  0  0  0  0  0
    3.8990   -7.3810   -4.2697 C   0  0  0  0  0  0  0  0  0  0  0  0
    3.1038   -1.4716   -3.1048 C   0  0  0  0  0  0  0  0  0  0  0  0
    3.0865   -0.3390   -2.2868 C   0  0  0  0  0  0  0  0  0  0  0  0
    3.2378    2.5452    0.3642 H   0  0  0  0  0  0  0  0  0  0  0  0
    2.0460    1.8311   -0.7675 H   0  0  0  0  0  0  0  0  0  0  0  0
    3.6831    2.2843   -1.3517 H   0  0  0  0  0  0  0  0  0  0  0  0
    4.4502   -1.7001    0.5123 H   0  0  0  0  0  0  0  0  0  0  0  0
    4.4723   -3.7245   -0.9525 H   0  0  0  0  0  0  0  0  0  0  0  0
    3.1846   -3.5893   -4.4448 H   0  0  0  0  0  0  0  0  0  0  0  0
    3.8278   -4.5241   -6.1194 H   0  0  0  0  0  0  0  0  0  0  0  0
    3.6071   -8.4231   -7.4787 H   0  0  0  0  0  0  0  0  0  0  0  0
    4.5105   -9.6585   -3.2671 H   0  0  0  0  0  0  0  0  0  0  0  0
    5.1622  -11.9417   -3.1352 H   0  0  0  0  0  0  0  0  0  0  0  0
    4.4167  -12.2135   -4.7291 H   0  0  0  0  0  0  0  0  0  0  0  0
    1.7629  -12.0710   -4.8254 H   0  0  0  0  0  0  0  0  0  0  0  0
   -0.2655  -12.9555   -3.6068 H   0  0  0  0  0  0  0  0  0  0  0  0
   -0.0332  -13.6037   -1.1992 H   0  0  0  0  0  0  0  0  0  0  0  0
    3.9782  -12.5930   -1.1614 H   0  0  0  0  0  0  0  0  0  0  0  0
    3.9765   -7.6951   -3.2260 H   0  0  0  0  0  0  0  0  0  0  0  0
    2.7208   -1.3906   -4.1269 H   0  0  0  0  0  0  0  0  0  0  0  0
    2.6908    0.5944   -2.6871 H   0  0  0  0  0  0  0  0  0  0  0  0
  1  2  1  0
  1 28  1  0
  1 29  1  0
  1 30  1  0
  2  3  1  0
  3  4  2  0
  3 27  1  0
  4  5  1  0
  4 31  1  0
  5  6  2  0
  5 32  1  0
  6  7  1  0
  6 26  1  0
  7  8  1  0
  7 33  1  0
  8  9  2  0
  8 10  1  0
 10 11  2  0
 10 25  1  0
 11 12  1  0
 11 34  1  0
 12 13  2  0
 13 14  1  0
 13 35  1  0
 14 15  1  0
 14 25  2  0
 15 16  2  0
 15 17  1  0
 17 18  1  0
 17 36  1  0
 18 19  1  0
 18 37  1  0
 18 38  1  0
 19 20  2  0
 19 24  1  0
 20 21  1  0
 20 39  1  0
 21 22  2  0
 21 40  1  0
 22 23  1  0
 22 41  1  0
 23 24  2  0
 24 42  1  0
 25 43  1  0
 26 27  2  0
 26 44  1  0
 27 45  1  0
M  END

