
     RDKit          3D

 54 58  0  0  0  0  0  0  0  0999 V2000
    2.0395    0.1847   -0.9050 O   0  0  0  0  0  0  0  0  0  0  0  0
    2.7858    0.4330    0.0183 C   0  0  0  0  0  0  0  0  0  0  0  0
    2.5089    0.1054    1.4294 C   0  0  0  0  0  0  0  0  0  0  0  0
    3.5198    0.1932    2.3981 C   0  0  0  0  0  0  0  0  0  0  0  0
    3.2070   -0.1030    3.7514 C   0  0  0  0  0  0  0  0  0  0  0  0
    1.9173   -0.4755    4.1086 C   0  0  0  0  0  0  0  0  0  0  0  0
    0.8919   -0.5815    3.1464 C   0  0  0  0  0  0  0  0  0  0  0  0
   -0.3767   -0.9800    3.5178 N   0  0  0  0  0  0  0  0  0  0  0  0
   -1.4092   -1.4519    2.7441 C   0  0  0  0  0  0  0  0  0  0  0  0
   -2.4429   -1.7194    3.5388 N   0  0  0  0  0  0  0  0  0  0  0  0
   -2.0634   -1.4167    4.7785 N   0  0  0  0  0  0  0  0  0  0  0  0
   -0.8377   -0.9553    4.8173 N   0  0  0  0  0  0  0  0  0  0  0  0
    1.1945   -0.2821    1.7685 C   0  0  0  0  0  0  0  0  0  0  0  0
    4.0313    1.1233   -0.2642 N   0  0  0  0  0  0  0  0  0  0  0  0
    4.5373    0.9422   -1.6157 C   0  0  0  0  0  0  0  0  0  0  0  0
    3.8406    1.8202   -2.6732 C   0  0  0  0  0  0  0  0  0  0  0  0
    3.8290    3.2367   -2.2415 N   0  0  0  0  0  0  0  0  0  0  0  0
    4.2550    4.2375   -3.0238 C   0  0  0  0  0  0  0  0  0  0  0  0
    4.2092    5.6254   -2.6529 C   0  0  0  0  0  0  0  0  0  0  0  0
    4.6570    6.5560   -3.5435 C   0  0  0  0  0  0  0  0  0  0  0  0
    5.1534    6.1040   -4.8064 C   0  0  0  0  0  0  0  0  0  0  0  0
    5.6247    6.9252   -5.7773 N   0  0  0  0  0  0  0  0  0  0  0  0
    6.1637    6.4117   -7.0464 C   0  0  0  0  0  0  0  0  0  0  0  0
    5.4563    7.0944   -8.2195 C   0  0  0  0  0  0  0  0  0  0  0  0
    5.5436    8.4994   -8.1196 O   0  0  0  0  0  0  0  0  0  0  0  0
    4.9560    8.9803   -6.9389 C   0  0  0  0  0  0  0  0  0  0  0  0
    5.6380    8.3858   -5.6965 C   0  0  0  0  0  0  0  0  0  0  0  0
    5.1813    4.7700   -5.0870 N   0  0  0  0  0  0  0  0  0  0  0  0
    4.7568    3.8858   -4.2531 N   0  0  0  0  0  0  0  0  0  0  0  0
    3.2946    3.4161   -0.8797 C   0  0  0  0  0  0  0  0  0  0  0  0
    4.0698    2.5244    0.1127 C   0  0  0  0  0  0  0  0  0  0  0  0
    4.5400    0.4399    2.1067 H   0  0  0  0  0  0  0  0  0  0  0  0
    3.9865   -0.0589    4.5150 H   0  0  0  0  0  0  0  0  0  0  0  0
    1.6671   -0.7056    5.1456 H   0  0  0  0  0  0  0  0  0  0  0  0
   -1.3488   -1.6154    1.6741 H   0  0  0  0  0  0  0  0  0  0  0  0
    0.4254   -0.3081    1.0007 H   0  0  0  0  0  0  0  0  0  0  0  0
    4.4192   -0.1062   -1.9183 H   0  0  0  0  0  0  0  0  0  0  0  0
    5.6188    1.1691   -1.6135 H   0  0  0  0  0  0  0  0  0  0  0  0
    2.7922    1.4991   -2.7554 H   0  0  0  0  0  0  0  0  0  0  0  0
    4.3343    1.7533   -3.6461 H   0  0  0  0  0  0  0  0  0  0  0  0
    3.8252    5.9465   -1.6880 H   0  0  0  0  0  0  0  0  0  0  0  0
    4.6327    7.6107   -3.2758 H   0  0  0  0  0  0  0  0  0  0  0  0
    6.0382    5.3248   -7.0719 H   0  0  0  0  0  0  0  0  0  0  0  0
    7.2400    6.6519   -7.0757 H   0  0  0  0  0  0  0  0  0  0  0  0
    4.3972    6.7699   -8.2554 H   0  0  0  0  0  0  0  0  0  0  0  0
    5.9393    6.8013   -9.1620 H   0  0  0  0  0  0  0  0  0  0  0  0
    3.8729    8.7430   -6.9094 H   0  0  0  0  0  0  0  0  0  0  0  0
    5.0705   10.0737   -6.9305 H   0  0  0  0  0  0  0  0  0  0  0  0
    5.1350    8.7373   -4.7895 H   0  0  0  0  0  0  0  0  0  0  0  0
    6.6884    8.7217   -5.6607 H   0  0  0  0  0  0  0  0  0  0  0  0
    2.2352    3.1185   -0.9058 H   0  0  0  0  0  0  0  0  0  0  0  0
    3.3486    4.4647   -0.5706 H   0  0  0  0  0  0  0  0  0  0  0  0
    3.6505    2.6600    1.1169 H   0  0  0  0  0  0  0  0  0  0  0  0
    5.1203    2.8680    0.1448 H   0  0  0  0  0  0  0  0  0  0  0  0
  1  2  2  0
  2  3  1  0
  2 14  1  0
  3  4  2  0
  3 13  1  0
  4  5  1  0
  4 32  1  0
  5  6  2  0
  5 33  1  0
  6  7  1  0
  6 34  1  0
  7  8  1  0
  7 13  2  0
  8  9  1  0
  8 12  1  0
  9 10  2  0
  9 35  1  0
 10 11  1  0
 11 12  2  0
 13 36  1  0
 14 15  1  0
 14 31  1  0
 15 16  1  0
 15 37  1  0
 15 38  1  0
 16 17  1  0
 16 39  1  0
 16 40  1  0
 17 18  1  0
 17 30  1  0
 18 19  2  0
 18 29  1  0
 19 20  1  0
 19 41  1  0
 20 21  2  0
 20 42  1  0
 21 22  1  0
 21 28  1  0
 22 23  1  0
 22 27  1  0
 23 24  1  0
 23 43  1  0
 23 44  1  0
 24 25  1  0
 24 45  1  0
 24 46  1  0
 25 26  1  0
 26 27  1  0
 26 47  1  0
 26 48  1  0
 27 49  1  0
 27 50  1  0
 28 29  2  0
 30 31  1  0
 30 51  1  0
 30 52  1  0
 31 53  1  0
 31 54  1  0
M  END

