
     RDKit          3D

 51 53  0  0  0  0  0  0  0  0999 V2000
    5.9916   -2.3545   -3.4089 C   0  0  0  0  0  0  0  0  0  0  0  0
    5.9657   -1.0597   -2.6634 C   0  0  0  0  0  0  0  0  0  0  0  0
    6.5664   -0.6748   -1.4756 C   0  0  0  0  0  0  0  0  0  0  0  0
    6.1729    0.6704   -1.2902 C   0  0  0  0  0  0  0  0  0  0  0  0
    6.5498    1.5593   -0.1544 C   0  0  0  0  0  0  0  0  0  0  0  0
    7.2918    1.1718    0.7406 O   0  0  0  0  0  0  0  0  0  0  0  0
    6.0149    2.8130   -0.2161 N   0  0  0  0  0  0  0  0  0  0  0  0
    6.1796    3.7914    0.8355 C   0  0  0  0  0  0  0  0  0  0  0  0
    6.6568    5.2002    0.3657 C   0  0  2  0  0  0  0  0  0  0  0  0
    7.9829    5.1640   -0.2759 N   0  0  0  0  0  0  0  0  0  0  0  0
    9.1726    4.8328    0.4935 C   0  0  0  0  0  0  0  0  0  0  0  0
    9.8075    3.4742    0.1623 C   0  0  0  0  0  0  0  0  0  0  0  0
   10.3120    3.3526   -1.5966 S   0  0  0  0  0  0  0  0  0  0  0  0
    8.7214    3.8935   -2.3246 C   0  0  0  0  0  0  0  0  0  0  0  0
    8.2189    5.2065   -1.7079 C   0  0  0  0  0  0  0  0  0  0  0  0
    6.6845    6.1018    1.6381 C   0  0  0  0  0  0  0  0  0  0  0  0
    6.9629    7.5752    1.3295 C   0  0  0  0  0  0  0  0  0  0  0  0
    5.8989    8.1481    0.3879 C   0  0  0  0  0  0  0  0  0  0  0  0
    5.7827    7.3046   -0.8864 C   0  0  0  0  0  0  0  0  0  0  0  0
    5.5809    5.8143   -0.5691 C   0  0  0  0  0  0  0  0  0  0  0  0
    5.3881    1.0873   -2.2862 N   0  0  0  0  0  0  0  0  0  0  0  0
    5.2706    0.0370   -3.1087 N   0  0  0  0  0  0  0  0  0  0  0  0
    4.4742    0.1408   -4.3141 C   0  0  0  0  0  0  0  0  0  0  0  0
    6.6034   -3.0867   -2.8651 H   0  0  0  0  0  0  0  0  0  0  0  0
    6.4224   -2.2415   -4.4184 H   0  0  0  0  0  0  0  0  0  0  0  0
    4.9819   -2.7830   -3.5288 H   0  0  0  0  0  0  0  0  0  0  0  0
    7.2043   -1.2646   -0.8233 H   0  0  0  0  0  0  0  0  0  0  0  0
    5.3535    2.9794   -0.9677 H   0  0  0  0  0  0  0  0  0  0  0  0
    6.9060    3.3668    1.5423 H   0  0  0  0  0  0  0  0  0  0  0  0
    5.2298    3.9118    1.3904 H   0  0  0  0  0  0  0  0  0  0  0  0
    8.9350    4.8411    1.5664 H   0  0  0  0  0  0  0  0  0  0  0  0
    9.9443    5.6148    0.3345 H   0  0  0  0  0  0  0  0  0  0  0  0
    9.1314    2.6413    0.4111 H   0  0  0  0  0  0  0  0  0  0  0  0
   10.7349    3.3441    0.7426 H   0  0  0  0  0  0  0  0  0  0  0  0
    7.9664    3.1004   -2.2110 H   0  0  0  0  0  0  0  0  0  0  0  0
    8.9174    4.0319   -3.4001 H   0  0  0  0  0  0  0  0  0  0  0  0
    7.3044    5.4996   -2.2370 H   0  0  0  0  0  0  0  0  0  0  0  0
    8.9765    5.9879   -1.9301 H   0  0  0  0  0  0  0  0  0  0  0  0
    7.4123    5.7162    2.3681 H   0  0  0  0  0  0  0  0  0  0  0  0
    5.7011    6.0169    2.1330 H   0  0  0  0  0  0  0  0  0  0  0  0
    7.9583    7.6668    0.8623 H   0  0  0  0  0  0  0  0  0  0  0  0
    6.9977    8.1541    2.2678 H   0  0  0  0  0  0  0  0  0  0  0  0
    6.1276    9.1963    0.1318 H   0  0  0  0  0  0  0  0  0  0  0  0
    4.9233    8.1610    0.9091 H   0  0  0  0  0  0  0  0  0  0  0  0
    6.6934    7.4424   -1.4916 H   0  0  0  0  0  0  0  0  0  0  0  0
    4.9423    7.6606   -1.5067 H   0  0  0  0  0  0  0  0  0  0  0  0
    5.4894    5.2343   -1.5016 H   0  0  0  0  0  0  0  0  0  0  0  0
    4.6125    5.6978   -0.0519 H   0  0  0  0  0  0  0  0  0  0  0  0
    4.0896    1.1659   -4.3672 H   0  0  0  0  0  0  0  0  0  0  0  0
    3.6265   -0.5629   -4.2938 H   0  0  0  0  0  0  0  0  0  0  0  0
    5.0823   -0.0641   -5.2095 H   0  0  0  0  0  0  0  0  0  0  0  0
  1  2  1  0
  1 24  1  0
  1 25  1  0
  1 26  1  0
  2  3  2  0
  2 22  1  0
  3  4  1  0
  3 27  1  0
  4  5  1  0
  4 21  2  0
  5  6  2  0
  5  7  1  0
  7  8  1  0
  7 28  1  0
  9  8  1  1
  8 29  1  0
  8 30  1  0
  9 10  1  0
  9 16  1  0
  9 20  1  0
 10 11  1  0
 10 15  1  0
 11 12  1  0
 11 31  1  0
 11 32  1  0
 12 13  1  0
 12 33  1  0
 12 34  1  0
 13 14  1  0
 14 15  1  0
 14 35  1  0
 14 36  1  0
 15 37  1  0
 15 38  1  0
 16 17  1  0
 16 39  1  0
 16 40  1  0
 17 18  1  0
 17 41  1  0
 17 42  1  0
 18 19  1  0
 18 43  1  0
 18 44  1  0
 19 20  1  0
 19 45  1  0
 19 46  1  0
 20 47  1  0
 20 48  1  0
 21 22  1  0
 22 23  1  0
 23 49  1  0
 23 50  1  0
 23 51  1  0
M  END

