
     RDKit          3D

 57 60  0  0  0  0  0  0  0  0999 V2000
    2.0598    0.4248    0.4288 C   0  0  0  0  0  0  0  0  0  0  0  0
    3.2887   -0.4094    0.0683 C   0  0  1  0  0  0  0  0  0  0  0  0
    3.0372   -1.8847   -0.0427 C   0  0  0  0  0  0  0  0  0  0  0  0
    2.1562   -2.6329    0.6049 N   0  0  0  0  0  0  0  0  0  0  0  0
    2.4005   -3.9132    0.2241 N   0  0  0  0  0  0  0  0  0  0  0  0
    1.5770   -4.9520    0.7261 C   0  0  0  0  0  0  0  0  0  0  0  0
    0.2470   -4.6636    1.0743 C   0  0  0  0  0  0  0  0  0  0  0  0
   -0.5798   -5.6663    1.5766 C   0  0  0  0  0  0  0  0  0  0  0  0
   -0.0771   -6.9590    1.7191 C   0  0  0  0  0  0  0  0  0  0  0  0
   -0.8755   -7.9260    2.1932 F   0  0  0  0  0  0  0  0  0  0  0  0
    1.2391   -7.2639    1.3850 C   0  0  0  0  0  0  0  0  0  0  0  0
    2.0713   -6.2537    0.8967 C   0  0  0  0  0  0  0  0  0  0  0  0
    3.4371   -3.9873   -0.6897 C   0  0  0  0  0  0  0  0  0  0  0  0
    3.8452   -2.6868   -0.8767 C   0  0  0  0  0  0  0  0  0  0  0  0
    4.8888   -2.2405   -1.6959 N   0  0  0  0  0  0  0  0  0  0  0  0
    5.1671   -0.8792   -1.6906 C   0  0  0  0  0  0  0  0  0  0  0  0
    6.2189   -0.3974   -2.0599 O   0  0  0  0  0  0  0  0  0  0  0  0
    3.9735    0.0246   -1.2586 C   0  0  1  0  0  0  0  0  0  0  0  0
    3.0453    0.0988   -2.3736 N   0  0  0  0  0  0  0  0  0  0  0  0
    2.7127    1.2813   -2.9814 C   0  0  0  0  0  0  0  0  0  0  0  0
    3.1287    2.3704   -2.6446 O   0  0  0  0  0  0  0  0  0  0  0  0
    1.8524    1.0323   -3.9928 O   0  0  0  0  0  0  0  0  0  0  0  0
    1.3113    2.1063   -4.8297 C   0  0  1  0  0  0  0  0  0  0  0  0
    2.4486    2.8128   -5.5754 C   0  0  0  0  0  0  0  0  0  0  0  0
    0.4081    1.3524   -5.8080 C   0  0  0  0  0  0  0  0  0  0  0  0
    0.4931    3.0783   -3.9735 C   0  0  0  0  0  0  0  0  0  0  0  0
    5.7479   -3.3079   -2.2700 C   0  0  2  0  0  0  0  0  0  0  0  0
    6.4931   -2.8695   -3.5318 C   0  0  0  0  0  0  0  0  0  0  0  0
    4.8709   -4.5444   -2.5919 C   0  0  0  0  0  0  0  0  0  0  0  0
    4.0742   -5.1318   -1.4089 C   0  0  0  0  0  0  0  0  0  0  0  0
    1.6377    0.0830    1.3852 H   0  0  0  0  0  0  0  0  0  0  0  0
    1.2771    0.3251   -0.3378 H   0  0  0  0  0  0  0  0  0  0  0  0
    2.3208    1.4901    0.5171 H   0  0  0  0  0  0  0  0  0  0  0  0
    4.0490   -0.2664    0.8613 H   0  0  0  0  0  0  0  0  0  0  0  0
   -0.1185   -3.6444    0.9532 H   0  0  0  0  0  0  0  0  0  0  0  0
   -1.6156   -5.4604    1.8534 H   0  0  0  0  0  0  0  0  0  0  0  0
    1.6074   -8.2818    1.5257 H   0  0  0  0  0  0  0  0  0  0  0  0
    3.1127   -6.4833    0.6748 H   0  0  0  0  0  0  0  0  0  0  0  0
    4.3962    1.0301   -1.1492 H   0  0  0  0  0  0  0  0  0  0  0  0
    2.6123   -0.7460   -2.7286 H   0  0  0  0  0  0  0  0  0  0  0  0
    3.0432    2.0832   -6.1473 H   0  0  0  0  0  0  0  0  0  0  0  0
    3.1122    3.3383   -4.8769 H   0  0  0  0  0  0  0  0  0  0  0  0
    2.0311    3.5439   -6.2854 H   0  0  0  0  0  0  0  0  0  0  0  0
    0.9908    0.6203   -6.3876 H   0  0  0  0  0  0  0  0  0  0  0  0
   -0.0653    2.0555   -6.5101 H   0  0  0  0  0  0  0  0  0  0  0  0
   -0.3840    0.8120   -5.2676 H   0  0  0  0  0  0  0  0  0  0  0  0
    1.1341    3.6013   -3.2529 H   0  0  0  0  0  0  0  0  0  0  0  0
   -0.2925    2.5369   -3.4229 H   0  0  0  0  0  0  0  0  0  0  0  0
    0.0048    3.8231   -4.6212 H   0  0  0  0  0  0  0  0  0  0  0  0
    6.4889   -3.5939   -1.4977 H   0  0  0  0  0  0  0  0  0  0  0  0
    5.7806   -2.5596   -4.3135 H   0  0  0  0  0  0  0  0  0  0  0  0
    7.0734   -3.7211   -3.9191 H   0  0  0  0  0  0  0  0  0  0  0  0
    7.1679   -2.0309   -3.3338 H   0  0  0  0  0  0  0  0  0  0  0  0
    5.5285   -5.3198   -3.0126 H   0  0  0  0  0  0  0  0  0  0  0  0
    4.1677   -4.2573   -3.3925 H   0  0  0  0  0  0  0  0  0  0  0  0
    3.3307   -5.8565   -1.7791 H   0  0  0  0  0  0  0  0  0  0  0  0
    4.7514   -5.6948   -0.7407 H   0  0  0  0  0  0  0  0  0  0  0  0
  1  2  1  0
  1 31  1  0
  1 32  1  0
  1 33  1  0
  2  3  1  0
  2 18  1  0
  2 34  1  1
  3  4  2  0
  3 14  1  0
  4  5  1  0
  5  6  1  0
  5 13  1  0
  6  7  2  0
  6 12  1  0
  7  8  1  0
  7 35  1  0
  8  9  2  0
  8 36  1  0
  9 10  1  0
  9 11  1  0
 11 12  2  0
 11 37  1  0
 12 38  1  0
 13 14  2  0
 13 30  1  0
 14 15  1  0
 15 16  1  0
 15 27  1  0
 16 17  2  0
 16 18  1  0
 18 19  1  0
 18 39  1  1
 19 20  1  0
 19 40  1  0
 20 21  2  0
 20 22  1  0
 23 22  1  1
 23 24  1  0
 23 25  1  0
 23 26  1  0
 24 41  1  0
 24 42  1  0
 24 43  1  0
 25 44  1  0
 25 45  1  0
 25 46  1  0
 26 47  1  0
 26 48  1  0
 26 49  1  0
 27 28  1  0
 27 29  1  0
 27 50  1  1
 28 51  1  0
 28 52  1  0
 28 53  1  0
 29 30  1  0
 29 54  1  0
 29 55  1  0
 30 56  1  0
 30 57  1  0
M  END

