
     RDKit          3D

 41 43  0  0  0  0  0  0  0  0999 V2000
   -1.0016    2.8376   -3.6806 C   0  0  0  0  0  0  0  0  0  0  0  0
   -0.4146    3.9068   -3.1085 N   0  0  0  0  0  0  0  0  0  0  0  0
   -1.1627    4.7730   -2.4199 C   0  0  0  0  0  0  0  0  0  0  0  0
   -0.5704    5.8723   -1.8623 N   0  0  0  0  0  0  0  0  0  0  0  0
    0.8668    6.0982   -1.8870 C   0  0  0  0  0  0  0  0  0  0  0  0
    1.6459    5.3066   -0.8287 C   0  0  0  0  0  0  0  0  0  0  0  0
    3.1395    5.5967   -0.8538 C   0  0  0  0  0  0  0  0  0  0  0  0
    3.3511    6.9588   -0.5497 O   0  0  0  0  0  0  0  0  0  0  0  0
    4.7080    7.3583   -0.3787 C   0  0  1  0  0  0  0  0  0  0  0  0
    5.4420    7.5188   -1.7225 C   0  0  0  0  0  0  0  0  0  0  0  0
    4.8653    8.6686   -2.5592 C   0  0  0  0  0  0  0  0  0  0  0  0
    4.8557    9.9864   -1.7722 C   0  0  0  0  0  0  0  0  0  0  0  0
    4.1194    9.8347   -0.4342 C   0  0  0  0  0  0  0  0  0  0  0  0
    4.6953    8.6802    0.3968 C   0  0  0  0  0  0  0  0  0  0  0  0
   -2.5498    4.5072   -2.3369 C   0  0  0  0  0  0  0  0  0  0  0  0
   -3.6528    5.1128   -1.7596 N   0  0  0  0  0  0  0  0  0  0  0  0
   -3.6923    5.9857   -1.2497 H   0  0  0  0  0  0  0  0  0  0  0  0
   -4.7277    4.3120   -2.0652 C   0  0  0  0  0  0  0  0  0  0  0  0
   -4.4167    3.2587   -2.7734 N   0  0  0  0  0  0  0  0  0  0  0  0
   -3.0535    3.3488   -2.9669 C   0  0  0  0  0  0  0  0  0  0  0  0
   -2.2783    2.4913   -3.6529 N   0  0  0  0  0  0  0  0  0  0  0  0
   -0.3235    2.1747   -4.2322 H   0  0  0  0  0  0  0  0  0  0  0  0
   -1.1116    6.4102   -1.1991 H   0  0  0  0  0  0  0  0  0  0  0  0
    1.0438    7.1750   -1.7481 H   0  0  0  0  0  0  0  0  0  0  0  0
    1.2304    5.8246   -2.8885 H   0  0  0  0  0  0  0  0  0  0  0  0
    1.4903    4.2298   -1.0022 H   0  0  0  0  0  0  0  0  0  0  0  0
    1.2544    5.5439    0.1761 H   0  0  0  0  0  0  0  0  0  0  0  0
    3.5544    5.3382   -1.8492 H   0  0  0  0  0  0  0  0  0  0  0  0
    3.6605    4.9547   -0.1139 H   0  0  0  0  0  0  0  0  0  0  0  0
    5.2275    6.5874    0.2270 H   0  0  0  0  0  0  0  0  0  0  0  0
    5.4148    6.5727   -2.2882 H   0  0  0  0  0  0  0  0  0  0  0  0
    6.5079    7.7124   -1.5046 H   0  0  0  0  0  0  0  0  0  0  0  0
    3.8327    8.4137   -2.8544 H   0  0  0  0  0  0  0  0  0  0  0  0
    5.4403    8.7807   -3.4935 H   0  0  0  0  0  0  0  0  0  0  0  0
    4.3959   10.7884   -2.3741 H   0  0  0  0  0  0  0  0  0  0  0  0
    5.8986   10.3021   -1.5802 H   0  0  0  0  0  0  0  0  0  0  0  0
    3.0508    9.6367   -0.6252 H   0  0  0  0  0  0  0  0  0  0  0  0
    4.1686   10.7742    0.1415 H   0  0  0  0  0  0  0  0  0  0  0  0
    4.1189    8.5405    1.3255 H   0  0  0  0  0  0  0  0  0  0  0  0
    5.7334    8.9154    0.6918 H   0  0  0  0  0  0  0  0  0  0  0  0
   -5.7331    4.5691   -1.7267 H   0  0  0  0  0  0  0  0  0  0  0  0
  1  2  2  0
  1 21  1  0
  1 22  1  0
  2  3  1  0
  3  4  1  0
  3 15  2  0
  4  5  1  0
  4 23  1  0
  5  6  1  0
  5 24  1  0
  5 25  1  0
  6  7  1  0
  6 26  1  0
  6 27  1  0
  7  8  1  0
  7 28  1  0
  7 29  1  0
  8  9  1  0
  9 10  1  0
  9 14  1  0
  9 30  1  1
 10 11  1  0
 10 31  1  0
 10 32  1  0
 11 12  1  0
 11 33  1  0
 11 34  1  0
 12 13  1  0
 12 35  1  0
 12 36  1  0
 13 14  1  0
 13 37  1  0
 13 38  1  0
 14 39  1  0
 14 40  1  0
 15 16  1  0
 15 20  1  0
 16 17  1  0
 16 18  1  0
 18 19  2  0
 18 41  1  0
 19 20  1  0
 20 21  2  0
M  END

