
     RDKit          3D

 35 37  0  0  0  0  0  0  0  0999 V2000
    1.1195   -0.3631   -0.6810 C   0  0  0  0  0  0  0  0  0  0  0  0
    2.5542   -0.7344   -0.5306 C   0  0  0  0  0  0  0  0  0  0  0  0
    3.4390    0.1393   -1.0960 O   0  0  0  0  0  0  0  0  0  0  0  0
    4.7160   -0.2771   -0.8662 N   0  0  0  0  0  0  0  0  0  0  0  0
    4.6653   -1.3996   -0.1862 C   0  0  0  0  0  0  0  0  0  0  0  0
    5.9625   -2.0369    0.1546 C   0  0  0  0  0  0  0  0  0  0  0  0
    6.1294   -2.9082    1.2451 C   0  0  0  0  0  0  0  0  0  0  0  0
    7.3903   -3.4339    1.5446 C   0  0  0  0  0  0  0  0  0  0  0  0
    8.5036   -3.1045    0.7688 C   0  0  0  0  0  0  0  0  0  0  0  0
    8.3476   -2.2396   -0.3205 C   0  0  0  0  0  0  0  0  0  0  0  0
    7.0939   -1.7126   -0.6246 C   0  0  0  0  0  0  0  0  0  0  0  0
    3.2712   -1.7916    0.0688 C   0  0  0  0  0  0  0  0  0  0  0  0
    2.7912   -2.9592    0.7098 C   0  0  0  0  0  0  0  0  0  0  0  0
    3.3256   -3.8790    1.3667 O   0  0  0  0  0  0  0  0  0  0  0  0
    1.2684   -3.1378    0.6361 N   0  0  0  0  0  0  0  0  0  0  0  0
    0.6548   -4.0356   -0.1097 C   0  0  0  0  0  0  0  0  0  0  0  0
    1.3735   -4.8037   -1.0969 C   0  0  0  0  0  0  0  0  0  0  0  0
    0.7311   -5.7264   -1.8822 C   0  0  0  0  0  0  0  0  0  0  0  0
   -0.6614   -5.9399   -1.7297 C   0  0  0  0  0  0  0  0  0  0  0  0
   -1.4576   -7.0971   -2.7192 Cl  0  0  0  0  0  0  0  0  0  0  0  0
   -1.4063   -5.2227   -0.7730 C   0  0  0  0  0  0  0  0  0  0  0  0
   -0.7686   -4.2959    0.0249 C   0  0  0  0  0  0  0  0  0  0  0  0
   -1.6721   -3.4084    1.2061 Cl  0  0  0  0  0  0  0  0  0  0  0  0
    0.5734   -0.9843   -1.4148 H   0  0  0  0  0  0  0  0  0  0  0  0
    1.0624    0.6770   -1.0347 H   0  0  0  0  0  0  0  0  0  0  0  0
    0.5657   -0.4118    0.2716 H   0  0  0  0  0  0  0  0  0  0  0  0
    5.2629   -3.1959    1.8389 H   0  0  0  0  0  0  0  0  0  0  0  0
    7.4979   -4.1102    2.3970 H   0  0  0  0  0  0  0  0  0  0  0  0
    9.4865   -3.5200    1.0071 H   0  0  0  0  0  0  0  0  0  0  0  0
    9.2094   -1.9759   -0.9398 H   0  0  0  0  0  0  0  0  0  0  0  0
    6.9714   -1.0355   -1.4710 H   0  0  0  0  0  0  0  0  0  0  0  0
    0.7016   -2.7161    1.3727 H   0  0  0  0  0  0  0  0  0  0  0  0
    2.4464   -4.6437   -1.1802 H   0  0  0  0  0  0  0  0  0  0  0  0
    1.2831   -6.3080   -2.6212 H   0  0  0  0  0  0  0  0  0  0  0  0
   -2.4760   -5.3996   -0.6639 H   0  0  0  0  0  0  0  0  0  0  0  0
  1  2  1  0
  1 24  1  0
  1 25  1  0
  1 26  1  0
  2  3  1  0
  2 12  2  0
  3  4  1  0
  4  5  2  0
  5  6  1  0
  5 12  1  0
  6  7  2  0
  6 11  1  0
  7  8  1  0
  7 27  1  0
  8  9  2  0
  8 28  1  0
  9 10  1  0
  9 29  1  0
 10 11  2  0
 10 30  1  0
 11 31  1  0
 12 13  1  0
 13 14  2  0
 13 15  1  0
 15 16  1  0
 15 32  1  0
 16 17  2  0
 16 22  1  0
 17 18  1  0
 17 33  1  0
 18 19  2  0
 18 34  1  0
 19 20  1  0
 19 21  1  0
 21 22  2  0
 21 35  1  0
 22 23  1  0
M  END

