
     RDKit          3D

 37 38  0  0  0  0  0  0  0  0999 V2000
    0.8027    0.4481   -0.1742 C   0  0  0  0  0  0  0  0  0  0  0  0
    2.2694    0.2095    0.1352 C   0  0  0  0  0  0  0  0  0  0  0  0
    3.0452    1.1345   -0.5975 O   0  0  0  0  0  0  0  0  0  0  0  0
    4.4482    1.0795   -0.3845 C   0  0  1  0  0  0  0  0  0  0  0  0
    5.1087   -0.0440   -1.1982 C   0  0  0  0  0  0  0  0  0  0  0  0
    4.9826    0.2188   -2.6988 C   0  0  0  0  0  0  0  0  0  0  0  0
    5.5291    1.5273   -3.0713 N   0  0  0  0  0  0  0  0  0  0  0  0
    5.9663    1.7352   -4.3847 C   0  0  0  0  0  0  0  0  0  0  0  0
    5.7003    2.9317   -5.0889 C   0  0  0  0  0  0  0  0  0  0  0  0
    6.2116    3.1439   -6.3722 C   0  0  0  0  0  0  0  0  0  0  0  0
    6.9820    2.1764   -7.0113 C   0  0  0  0  0  0  0  0  0  0  0  0
    7.2307    0.9655   -6.3478 C   0  0  0  0  0  0  0  0  0  0  0  0
    8.0729   -0.0617   -7.0541 C   0  0  0  0  0  0  0  0  0  0  0  0
    8.8283    0.2011   -7.9518 O   0  0  0  0  0  0  0  0  0  0  0  0
    7.9343   -1.3420   -6.6304 O   0  0  0  0  0  0  0  0  0  0  0  0
    6.7403    0.7572   -5.0530 C   0  0  0  0  0  0  0  0  0  0  0  0
    4.9274    2.6368   -2.3368 C   0  0  0  0  0  0  0  0  0  0  0  0
    5.0311    2.4222   -0.8234 C   0  0  0  0  0  0  0  0  0  0  0  0
    0.1690   -0.2507    0.3939 H   0  0  0  0  0  0  0  0  0  0  0  0
    0.6039    0.3036   -1.2475 H   0  0  0  0  0  0  0  0  0  0  0  0
    0.5140    1.4770    0.0907 H   0  0  0  0  0  0  0  0  0  0  0  0
    2.5451   -0.8341   -0.1187 H   0  0  0  0  0  0  0  0  0  0  0  0
    2.4614    0.3324    1.2218 H   0  0  0  0  0  0  0  0  0  0  0  0
    4.6495    0.9252    0.6946 H   0  0  0  0  0  0  0  0  0  0  0  0
    4.6550   -1.0190   -0.9581 H   0  0  0  0  0  0  0  0  0  0  0  0
    6.1742   -0.1052   -0.9194 H   0  0  0  0  0  0  0  0  0  0  0  0
    3.9124    0.1608   -2.9866 H   0  0  0  0  0  0  0  0  0  0  0  0
    5.5045   -0.5707   -3.2524 H   0  0  0  0  0  0  0  0  0  0  0  0
    5.0812    3.7073   -4.6394 H   0  0  0  0  0  0  0  0  0  0  0  0
    5.9876    4.0849   -6.8818 H   0  0  0  0  0  0  0  0  0  0  0  0
    7.3911    2.3295   -8.0105 H   0  0  0  0  0  0  0  0  0  0  0  0
    7.1864   -1.4045   -6.0199 H   0  0  0  0  0  0  0  0  0  0  0  0
    7.0172   -0.1509   -4.5132 H   0  0  0  0  0  0  0  0  0  0  0  0
    3.8630    2.7785   -2.6161 H   0  0  0  0  0  0  0  0  0  0  0  0
    5.4614    3.5616   -2.5952 H   0  0  0  0  0  0  0  0  0  0  0  0
    4.5031    3.2367   -0.3033 H   0  0  0  0  0  0  0  0  0  0  0  0
    6.0913    2.4602   -0.5235 H   0  0  0  0  0  0  0  0  0  0  0  0
  1  2  1  0
  1 19  1  0
  1 20  1  0
  1 21  1  0
  2  3  1  0
  2 22  1  0
  2 23  1  0
  3  4  1  0
  4  5  1  0
  4 18  1  0
  4 24  1  1
  5  6  1  0
  5 25  1  0
  5 26  1  0
  6  7  1  0
  6 27  1  0
  6 28  1  0
  7  8  1  0
  7 17  1  0
  8  9  2  0
  8 16  1  0
  9 10  1  0
  9 29  1  0
 10 11  2  0
 10 30  1  0
 11 12  1  0
 11 31  1  0
 12 13  1  0
 12 16  2  0
 13 14  2  0
 13 15  1  0
 15 32  1  0
 16 33  1  0
 17 18  1  0
 17 34  1  0
 17 35  1  0
 18 36  1  0
 18 37  1  0
M  END

