
     RDKit          3D

 62 65  0  0  0  0  0  0  0  0999 V2000
    0.3969    0.5073    0.3504 C   0  0  0  0  0  0  0  0  0  0  0  0
    1.9312    0.4866    0.2674 C   0  0  0  0  0  0  0  0  0  0  0  0
    2.6023    0.5220    1.6236 C   0  0  0  0  0  0  0  0  0  0  0  0
    2.8356    1.7516    2.2806 C   0  0  0  0  0  0  0  0  0  0  0  0
    3.4119    1.8059    3.5432 C   0  0  0  0  0  0  0  0  0  0  0  0
    3.7711    0.6125    4.1808 C   0  0  0  0  0  0  0  0  0  0  0  0
    4.3321    0.7197    5.4291 O   0  0  0  0  0  0  0  0  0  0  0  0
    4.6902   -0.4171    6.0258 C   0  0  0  0  0  0  0  0  0  0  0  0
    4.5584   -1.6690    5.5270 C   0  0  0  0  0  0  0  0  0  0  0  0
    3.9386   -1.9118    4.2295 C   0  0  0  0  0  0  0  0  0  0  0  0
    3.7357   -3.0168    3.7433 O   0  0  0  0  0  0  0  0  0  0  0  0
    3.5591   -0.6343    3.5583 C   0  0  0  0  0  0  0  0  0  0  0  0
    2.9704   -0.6506    2.2807 C   0  0  0  0  0  0  0  0  0  0  0  0
    5.0949   -2.6613    6.5325 C   0  0  1  0  0  0  0  0  0  0  0  0
    6.2149   -3.5406    5.9863 C   0  0  0  0  0  0  0  0  0  0  0  0
    7.5302   -3.0610    5.8628 C   0  0  0  0  0  0  0  0  0  0  0  0
    8.5362   -3.8578    5.3279 C   0  0  0  0  0  0  0  0  0  0  0  0
    8.2495   -5.1638    4.8910 C   0  0  0  0  0  0  0  0  0  0  0  0
    9.2933   -5.8669    4.3830 O   0  0  0  0  0  0  0  0  0  0  0  0
    9.0773   -7.1759    3.9077 C   0  0  0  0  0  0  0  0  0  0  0  0
    6.9396   -5.6524    5.0042 C   0  0  0  0  0  0  0  0  0  0  0  0
    5.9401   -4.8388    5.5493 C   0  0  0  0  0  0  0  0  0  0  0  0
    5.5126   -1.7839    7.6325 N   0  0  0  0  0  0  0  0  0  0  0  0
    5.9747   -2.2671    8.9190 C   0  0  0  0  0  0  0  0  0  0  0  0
    4.8412   -2.5705    9.9120 C   0  0  0  0  0  0  0  0  0  0  0  0
    3.9477   -3.6426    9.4885 N   0  0  0  0  0  0  0  0  0  0  0  0
    4.5072   -4.9879    9.6435 C   0  0  0  0  0  0  0  0  0  0  0  0
    4.5923   -5.5422   11.0744 C   0  0  0  0  0  0  0  0  0  0  0  0
    2.5739   -3.4778    9.9630 C   0  0  0  0  0  0  0  0  0  0  0  0
    1.5671   -4.4083    9.2906 C   0  0  0  0  0  0  0  0  0  0  0  0
    5.2772   -0.4474    7.4037 C   0  0  0  0  0  0  0  0  0  0  0  0
    5.4846    0.4792    8.1619 O   0  0  0  0  0  0  0  0  0  0  0  0
   -0.0535    0.4851   -0.6550 H   0  0  0  0  0  0  0  0  0  0  0  0
    0.0364    1.4140    0.8626 H   0  0  0  0  0  0  0  0  0  0  0  0
    0.0192   -0.3622    0.9117 H   0  0  0  0  0  0  0  0  0  0  0  0
    2.2749    1.3469   -0.3320 H   0  0  0  0  0  0  0  0  0  0  0  0
    2.2551   -0.4176   -0.2734 H   0  0  0  0  0  0  0  0  0  0  0  0
    2.5600    2.6859    1.7828 H   0  0  0  0  0  0  0  0  0  0  0  0
    3.5960    2.7534    4.0530 H   0  0  0  0  0  0  0  0  0  0  0  0
    2.8171   -1.6309    1.8220 H   0  0  0  0  0  0  0  0  0  0  0  0
    4.2781   -3.3134    6.8873 H   0  0  0  0  0  0  0  0  0  0  0  0
    7.7705   -2.0480    6.1959 H   0  0  0  0  0  0  0  0  0  0  0  0
    9.5609   -3.4927    5.2334 H   0  0  0  0  0  0  0  0  0  0  0  0
   10.0464   -7.5403    3.5411 H   0  0  0  0  0  0  0  0  0  0  0  0
    8.3497   -7.1976    3.0763 H   0  0  0  0  0  0  0  0  0  0  0  0
    8.7212   -7.8517    4.7067 H   0  0  0  0  0  0  0  0  0  0  0  0
    6.6833   -6.6584    4.6719 H   0  0  0  0  0  0  0  0  0  0  0  0
    4.9199   -5.2242    5.6154 H   0  0  0  0  0  0  0  0  0  0  0  0
    6.6103   -1.4807    9.3543 H   0  0  0  0  0  0  0  0  0  0  0  0
    6.6092   -3.1512    8.7508 H   0  0  0  0  0  0  0  0  0  0  0  0
    4.2490   -1.6498   10.0254 H   0  0  0  0  0  0  0  0  0  0  0  0
    5.3030   -2.7573   10.9069 H   0  0  0  0  0  0  0  0  0  0  0  0
    5.5139   -4.9863    9.1953 H   0  0  0  0  0  0  0  0  0  0  0  0
    3.9190   -5.6836    9.0229 H   0  0  0  0  0  0  0  0  0  0  0  0
    5.1951   -4.8992   11.7356 H   0  0  0  0  0  0  0  0  0  0  0  0
    5.0637   -6.5381   11.0648 H   0  0  0  0  0  0  0  0  0  0  0  0
    3.5971   -5.6531   11.5332 H   0  0  0  0  0  0  0  0  0  0  0  0
    2.2836   -2.4363    9.7492 H   0  0  0  0  0  0  0  0  0  0  0  0
    2.4917   -3.5920   11.0681 H   0  0  0  0  0  0  0  0  0  0  0  0
    1.6251   -4.3236    8.1936 H   0  0  0  0  0  0  0  0  0  0  0  0
    0.5450   -4.1409    9.6021 H   0  0  0  0  0  0  0  0  0  0  0  0
    1.7216   -5.4651    9.5591 H   0  0  0  0  0  0  0  0  0  0  0  0
  1  2  1  0
  1 33  1  0
  1 34  1  0
  1 35  1  0
  2  3  1  0
  2 36  1  0
  2 37  1  0
  3  4  2  0
  3 13  1  0
  4  5  1  0
  4 38  1  0
  5  6  2  0
  5 39  1  0
  6  7  1  0
  6 12  1  0
  7  8  1  0
  8  9  2  0
  8 31  1  0
  9 10  1  0
  9 14  1  0
 10 11  2  0
 10 12  1  0
 12 13  2  0
 13 40  1  0
 14 15  1  0
 14 23  1  0
 14 41  1  1
 15 16  2  0
 15 22  1  0
 16 17  1  0
 16 42  1  0
 17 18  2  0
 17 43  1  0
 18 19  1  0
 18 21  1  0
 19 20  1  0
 20 44  1  0
 20 45  1  0
 20 46  1  0
 21 22  2  0
 21 47  1  0
 22 48  1  0
 23 24  1  0
 23 31  1  0
 24 25  1  0
 24 49  1  0
 24 50  1  0
 25 26  1  0
 25 51  1  0
 25 52  1  0
 26 27  1  0
 26 29  1  0
 27 28  1  0
 27 53  1  0
 27 54  1  0
 28 55  1  0
 28 56  1  0
 28 57  1  0
 29 30  1  0
 29 58  1  0
 29 59  1  0
 30 60  1  0
 30 61  1  0
 30 62  1  0
 31 32  2  0
M  END

