
     RDKit          3D

 64 68  0  0  0  0  0  0  0  0999 V2000
    5.0285    1.3765   -0.8717 C   0  0  0  0  0  0  0  0  0  0  0  0
    4.8178    1.0753   -2.3561 C   0  0  0  0  0  0  0  0  0  0  0  0
    3.3367    0.9875   -2.7597 C   0  0  1  0  0  0  0  0  0  0  0  0
    2.6708    2.2832   -2.5643 N   0  0  0  0  0  0  0  0  0  0  0  0
    1.3531    2.3471   -2.1960 C   0  0  0  0  0  0  0  0  0  0  0  0
    0.6920    1.3512   -1.9331 O   0  0  0  0  0  0  0  0  0  0  0  0
    0.7368    3.7219   -2.1192 C   0  0  0  0  0  0  0  0  0  0  0  0
   -0.6501    3.8132   -2.3973 C   0  0  0  0  0  0  0  0  0  0  0  0
   -1.3306    5.0223   -2.3434 C   0  0  0  0  0  0  0  0  0  0  0  0
   -0.6144    6.1713   -1.9708 C   0  0  0  0  0  0  0  0  0  0  0  0
   -1.0446    7.4774   -1.8177 N   0  0  0  0  0  0  0  0  0  0  0  0
    0.0118    8.1332   -1.4275 C   0  0  0  0  0  0  0  0  0  0  0  0
    1.1494    7.3575   -1.3075 N   0  0  0  0  0  0  0  0  0  0  0  0
    2.4373    7.7993   -0.8146 C   0  0  0  0  0  0  0  0  0  0  0  0
    3.5873    7.6085   -1.7893 C   0  0  0  0  0  0  0  0  0  0  0  0
    3.3870    7.6317   -3.1769 C   0  0  0  0  0  0  0  0  0  0  0  0
    4.4507    7.4180   -4.0528 C   0  0  0  0  0  0  0  0  0  0  0  0
    5.7513    7.1880   -3.5668 C   0  0  0  0  0  0  0  0  0  0  0  0
    6.8802    6.8979   -4.5076 C   0  0  0  0  0  0  0  0  0  0  0  0
    7.8144    7.9156   -4.7619 C   0  0  0  0  0  0  0  0  0  0  0  0
    8.8693    7.7258   -5.6557 C   0  0  0  0  0  0  0  0  0  0  0  0
    9.0049    6.5052   -6.3225 C   0  0  0  0  0  0  0  0  0  0  0  0
    8.0904    5.4837   -6.0796 C   0  0  0  0  0  0  0  0  0  0  0  0
    7.0314    5.6533   -5.1698 C   0  0  0  0  0  0  0  0  0  0  0  0
    6.1584    4.4318   -4.9784 C   0  0  0  0  0  0  0  0  0  0  0  0
    6.1994    3.4917   -5.7319 O   0  0  0  0  0  0  0  0  0  0  0  0
    5.3432    4.3830   -3.9033 O   0  0  0  0  0  0  0  0  0  0  0  0
    5.9574    7.2106   -2.1756 C   0  0  0  0  0  0  0  0  0  0  0  0
    4.8851    7.4075   -1.3010 C   0  0  0  0  0  0  0  0  0  0  0  0
    0.7674    6.0680   -1.6604 C   0  0  0  0  0  0  0  0  0  0  0  0
    1.4647    4.8563   -1.7382 C   0  0  0  0  0  0  0  0  0  0  0  0
    3.1077    0.4447   -4.1704 C   0  0  0  0  0  0  0  0  0  0  0  0
    2.0820   -0.4898   -4.3885 C   0  0  0  0  0  0  0  0  0  0  0  0
    1.8306   -0.9928   -5.6680 C   0  0  0  0  0  0  0  0  0  0  0  0
    2.5999   -0.5646   -6.7537 C   0  0  0  0  0  0  0  0  0  0  0  0
    3.6175    0.3720   -6.5490 C   0  0  0  0  0  0  0  0  0  0  0  0
    3.8714    0.8742   -5.2688 C   0  0  0  0  0  0  0  0  0  0  0  0
    6.1007    1.4403   -0.6263 H   0  0  0  0  0  0  0  0  0  0  0  0
    4.5856    0.5920   -0.2359 H   0  0  0  0  0  0  0  0  0  0  0  0
    4.5588    2.3313   -0.5872 H   0  0  0  0  0  0  0  0  0  0  0  0
    5.2924    0.1147   -2.6155 H   0  0  0  0  0  0  0  0  0  0  0  0
    5.3237    1.8410   -2.9673 H   0  0  0  0  0  0  0  0  0  0  0  0
    2.8256    0.3055   -2.0655 H   0  0  0  0  0  0  0  0  0  0  0  0
    3.0928    3.0895   -3.0155 H   0  0  0  0  0  0  0  0  0  0  0  0
   -1.1714    2.8904   -2.6566 H   0  0  0  0  0  0  0  0  0  0  0  0
   -2.3959    5.0916   -2.5719 H   0  0  0  0  0  0  0  0  0  0  0  0
    0.0455    9.2015   -1.2005 H   0  0  0  0  0  0  0  0  0  0  0  0
    2.6731    7.2796    0.1304 H   0  0  0  0  0  0  0  0  0  0  0  0
    2.3360    8.8686   -0.5632 H   0  0  0  0  0  0  0  0  0  0  0  0
    2.3830    7.7879   -3.5774 H   0  0  0  0  0  0  0  0  0  0  0  0
    4.2713    7.4096   -5.1305 H   0  0  0  0  0  0  0  0  0  0  0  0
    7.6954    8.8764   -4.2553 H   0  0  0  0  0  0  0  0  0  0  0  0
    9.5806    8.5358   -5.8360 H   0  0  0  0  0  0  0  0  0  0  0  0
    9.8237    6.3489   -7.0287 H   0  0  0  0  0  0  0  0  0  0  0  0
    8.1756    4.5200   -6.5840 H   0  0  0  0  0  0  0  0  0  0  0  0
    5.4100    5.1925   -3.3693 H   0  0  0  0  0  0  0  0  0  0  0  0
    6.9605    7.0389   -1.7768 H   0  0  0  0  0  0  0  0  0  0  0  0
    5.0629    7.3852   -0.2219 H   0  0  0  0  0  0  0  0  0  0  0  0
    2.5249    4.7866   -1.4882 H   0  0  0  0  0  0  0  0  0  0  0  0
    1.4656   -0.8070   -3.5440 H   0  0  0  0  0  0  0  0  0  0  0  0
    1.0282   -1.7207   -5.8167 H   0  0  0  0  0  0  0  0  0  0  0  0
    2.4056   -0.9573   -7.7556 H   0  0  0  0  0  0  0  0  0  0  0  0
    4.2236    0.7189   -7.3902 H   0  0  0  0  0  0  0  0  0  0  0  0
    4.6700    1.6098   -5.1478 H   0  0  0  0  0  0  0  0  0  0  0  0
  1  2  1  0
  1 38  1  0
  1 39  1  0
  1 40  1  0
  2  3  1  0
  2 41  1  0
  2 42  1  0
  3  4  1  0
  3 32  1  0
  3 43  1  1
  4  5  1  0
  4 44  1  0
  5  6  2  0
  5  7  1  0
  7  8  2  0
  7 31  1  0
  8  9  1  0
  8 45  1  0
  9 10  2  0
  9 46  1  0
 10 11  1  0
 10 30  1  0
 11 12  2  0
 12 13  1  0
 12 47  1  0
 13 14  1  0
 13 30  1  0
 14 15  1  0
 14 48  1  0
 14 49  1  0
 15 16  2  0
 15 29  1  0
 16 17  1  0
 16 50  1  0
 17 18  2  0
 17 51  1  0
 18 19  1  0
 18 28  1  0
 19 20  2  0
 19 24  1  0
 20 21  1  0
 20 52  1  0
 21 22  2  0
 21 53  1  0
 22 23  1  0
 22 54  1  0
 23 24  2  0
 23 55  1  0
 24 25  1  0
 25 26  2  0
 25 27  1  0
 27 56  1  0
 28 29  2  0
 28 57  1  0
 29 58  1  0
 30 31  2  0
 31 59  1  0
 32 33  2  0
 32 37  1  0
 33 34  1  0
 33 60  1  0
 34 35  2  0
 34 61  1  0
 35 36  1  0
 35 62  1  0
 36 37  2  0
 36 63  1  0
 37 64  1  0
M  END

