
     RDKit          3D

 48 51  0  0  0  0  0  0  0  0999 V2000
    1.3509   -0.7583   -2.8047 C   0  0  0  0  0  0  0  0  0  0  0  0
    2.5980   -0.7207   -1.9827 C   0  0  0  0  0  0  0  0  0  0  0  0
    3.0528    0.3827   -1.1957 C   0  0  0  0  0  0  0  0  0  0  0  0
    4.2307    0.3277   -0.4957 C   0  0  0  0  0  0  0  0  0  0  0  0
    5.0210   -0.8805   -0.5265 C   0  0  0  0  0  0  0  0  0  0  0  0
    6.1649   -1.0831    0.1304 N   0  0  0  0  0  0  0  0  0  0  0  0
    7.1604   -2.0898   -0.2722 C   0  0  0  0  0  0  0  0  0  0  0  0
    8.3481   -1.4120   -0.9807 C   0  0  0  0  0  0  0  0  0  0  0  0
    8.9110   -0.2066   -0.2040 C   0  0  0  0  0  0  0  0  0  0  0  0
    7.7799    0.7553    0.1789 C   0  0  2  0  0  0  0  0  0  0  0  0
    8.2040    1.9093    0.9534 N   0  0  0  0  0  0  0  0  0  0  0  0
    7.1722    3.3060    0.6535 S   0  0  1  0  0  0  0  0  0  0  0  0
    7.3727    3.6755   -0.7602 O   0  0  0  0  0  0  0  0  0  0  0  0
    5.8301    2.7815    1.0271 O   0  0  0  0  0  0  0  0  0  0  0  0
    7.7271    4.5228    1.7202 C   0  0  0  0  0  0  0  0  0  0  0  0
    8.5891    5.5273    1.2189 C   0  0  0  0  0  0  0  0  0  0  0  0
    9.1253    6.4604    2.0793 C   0  0  0  0  0  0  0  0  0  0  0  0
    8.8475    6.4385    3.4946 C   0  0  0  0  0  0  0  0  0  0  0  0
    9.4053    7.3695    4.2781 N   0  0  0  0  0  0  0  0  0  0  0  0
    9.1338    7.3473    5.6007 C   0  0  0  0  0  0  0  0  0  0  0  0
    8.2965    6.4008    6.1948 C   0  0  0  0  0  0  0  0  0  0  0  0
    7.7020    5.4169    5.4042 C   0  0  0  0  0  0  0  0  0  0  0  0
    7.9634    5.3986    3.9994 C   0  0  0  0  0  0  0  0  0  0  0  0
    7.4184    4.4541    3.1125 C   0  0  0  0  0  0  0  0  0  0  0  0
    6.7368   -0.0339    0.9841 C   0  0  0  0  0  0  0  0  0  0  0  0
    4.4789   -1.8540   -1.2998 N   0  0  0  0  0  0  0  0  0  0  0  0
    3.4289   -1.7481   -1.9276 N   0  0  0  0  0  0  0  0  0  0  0  0
    1.3017    0.1164   -3.4701 H   0  0  0  0  0  0  0  0  0  0  0  0
    0.4593   -0.7341   -2.1587 H   0  0  0  0  0  0  0  0  0  0  0  0
    1.3112   -1.6682   -3.4167 H   0  0  0  0  0  0  0  0  0  0  0  0
    2.4605    1.2992   -1.1911 H   0  0  0  0  0  0  0  0  0  0  0  0
    4.6100    1.2096    0.0284 H   0  0  0  0  0  0  0  0  0  0  0  0
    6.6933   -2.8468   -0.9147 H   0  0  0  0  0  0  0  0  0  0  0  0
    7.4963   -2.5991    0.6451 H   0  0  0  0  0  0  0  0  0  0  0  0
    8.0178   -1.0772   -1.9791 H   0  0  0  0  0  0  0  0  0  0  0  0
    9.1322   -2.1678   -1.1470 H   0  0  0  0  0  0  0  0  0  0  0  0
    9.6619    0.3104   -0.8229 H   0  0  0  0  0  0  0  0  0  0  0  0
    9.4261   -0.5441    0.7128 H   0  0  0  0  0  0  0  0  0  0  0  0
    7.3016    1.0815   -0.7683 H   0  0  0  0  0  0  0  0  0  0  0  0
    9.1572    2.2005    0.7345 H   0  0  0  0  0  0  0  0  0  0  0  0
    8.8047    5.5628    0.1499 H   0  0  0  0  0  0  0  0  0  0  0  0
    9.7764    7.2568    1.7159 H   0  0  0  0  0  0  0  0  0  0  0  0
    9.6084    8.1258    6.2086 H   0  0  0  0  0  0  0  0  0  0  0  0
    8.1116    6.4368    7.2720 H   0  0  0  0  0  0  0  0  0  0  0  0
    7.0409    4.6636    5.8397 H   0  0  0  0  0  0  0  0  0  0  0  0
    6.7447    3.6835    3.4875 H   0  0  0  0  0  0  0  0  0  0  0  0
    5.9662    0.6333    1.3746 H   0  0  0  0  0  0  0  0  0  0  0  0
    7.2184   -0.5257    1.8429 H   0  0  0  0  0  0  0  0  0  0  0  0
  1  2  1  0
  1 28  1  0
  1 29  1  0
  1 30  1  0
  2  3  2  0
  2 27  1  0
  3  4  1  0
  3 31  1  0
  4  5  2  0
  4 32  1  0
  5  6  1  0
  5 26  1  0
  6  7  1  0
  6 25  1  0
  7  8  1  0
  7 33  1  0
  7 34  1  0
  8  9  1  0
  8 35  1  0
  8 36  1  0
  9 10  1  0
  9 37  1  0
  9 38  1  0
 10 11  1  0
 10 25  1  0
 10 39  1  6
 12 11  1  1
 11 40  1  0
 12 13  2  0
 12 14  2  0
 12 15  1  0
 15 16  2  0
 15 24  1  0
 16 17  1  0
 16 41  1  0
 17 18  2  0
 17 42  1  0
 18 19  1  0
 18 23  1  0
 19 20  2  0
 20 21  1  0
 20 43  1  0
 21 22  2  0
 21 44  1  0
 22 23  1  0
 22 45  1  0
 23 24  2  0
 24 46  1  0
 25 47  1  0
 25 48  1  0
 26 27  2  0
M  END

