
     RDKit          3D

101111  0  0  0  0  0  0  0  0999 V2000
    1.1800    1.6033   -4.4518 C   0  0  0  0  0  0  0  0  0  0  0  0
    2.4981    2.3609   -4.2839 C   0  0  0  0  0  0  0  0  0  0  0  0
    3.6056    1.8394   -5.2050 C   0  0  0  0  0  0  0  0  0  0  0  0
    4.9278    2.6134   -5.1111 C   0  0  0  0  0  0  0  0  0  0  0  0
    5.5447    2.6078   -3.7725 N   0  0  0  0  0  0  0  0  0  0  0  0
    5.7370    1.4635   -2.9766 C   0  0  0  0  0  0  0  0  0  0  0  0
    5.9004    0.1047   -3.4564 C   0  0  0  0  0  0  0  0  0  0  0  0
    6.3659   -0.2363   -4.7583 C   0  0  0  0  0  0  0  0  0  0  0  0
    6.5395   -1.5515   -5.1381 C   0  0  0  0  0  0  0  0  0  0  0  0
    6.2559   -2.6163   -4.2343 C   0  0  0  0  0  0  0  0  0  0  0  0
    6.4297   -3.9667   -4.6503 C   0  0  0  0  0  0  0  0  0  0  0  0
    6.8313   -4.4193   -5.8364 N   0  0  0  0  0  0  0  0  0  0  0  0
    6.8503   -5.7541   -5.7792 N   0  0  0  0  0  0  0  0  0  0  0  0
    6.4618   -6.1155   -4.5610 C   0  0  0  0  0  0  0  0  0  0  0  0
    6.3308   -7.4325   -4.0301 C   0  0  0  0  0  0  0  0  0  0  0  0
    6.6445   -8.5645   -4.8371 C   0  0  0  0  0  0  0  0  0  0  0  0
    6.5201   -9.8434   -4.3355 C   0  0  0  0  0  0  0  0  0  0  0  0
    6.0486  -10.0774   -3.0134 C   0  0  0  0  0  0  0  0  0  0  0  0
    5.9769  -11.4513   -2.5391 C   0  0  0  0  0  0  0  0  0  0  0  0
    6.8250  -12.3946   -2.9370 N   0  0  0  0  0  0  0  0  0  0  0  0
    6.4940  -13.5120   -2.2508 C   0  0  0  0  0  0  0  0  0  0  0  0
    7.1343  -14.7923   -2.3301 C   0  0  0  0  0  0  0  0  0  0  0  0
    8.2252  -15.0080   -3.2015 C   0  0  0  0  0  0  0  0  0  0  0  0
    8.8244  -16.2553   -3.2791 C   0  0  0  0  0  0  0  0  0  0  0  0
    8.3386  -17.3065   -2.4817 C   0  0  0  0  0  0  0  0  0  0  0  0
    7.2678  -17.1031   -1.6173 C   0  0  0  0  0  0  0  0  0  0  0  0
    6.6329  -15.8453   -1.5104 C   0  0  0  0  0  0  0  0  0  0  0  0
    5.5080  -15.5934   -0.5954 C   0  0  0  0  0  0  0  0  0  0  0  0
    5.0170  -16.6069    0.2543 C   0  0  0  0  0  0  0  0  0  0  0  0
    3.9764  -16.3882    1.1481 C   0  0  0  0  0  0  0  0  0  0  0  0
    3.3809  -15.1192    1.2302 C   0  0  0  0  0  0  0  0  0  0  0  0
    3.8270  -14.0973    0.4098 C   0  0  0  0  0  0  0  0  0  0  0  0
    4.8809  -14.2953   -0.5226 C   0  0  0  0  0  0  0  0  0  0  0  0
    5.3939  -13.2777   -1.3937 C   0  0  0  0  0  0  0  0  0  0  0  0
    5.0535  -11.9482   -1.6057 N   0  0  0  0  0  0  0  0  0  0  0  0
    3.7687  -11.3144   -1.2932 C   0  0  0  0  0  0  0  0  0  0  0  0
    2.5865  -11.9268   -2.0538 C   0  0  0  0  0  0  0  0  0  0  0  0
    1.2619  -11.2292   -1.7285 C   0  0  0  0  0  0  0  0  0  0  0  0
    0.0723  -11.8105   -2.4938 C   0  0  0  0  0  0  0  0  0  0  0  0
    5.7710   -8.9464   -2.2017 C   0  0  0  0  0  0  0  0  0  0  0  0
    5.9078   -7.6590   -2.6913 C   0  0  0  0  0  0  0  0  0  0  0  0
    6.1785   -5.0115   -3.7962 O   0  0  0  0  0  0  0  0  0  0  0  0
    5.8148   -2.2807   -2.9216 C   0  0  0  0  0  0  0  0  0  0  0  0
    5.6539   -0.9618   -2.5471 C   0  0  0  0  0  0  0  0  0  0  0  0
    5.7899    1.7760   -1.6817 N   0  0  0  0  0  0  0  0  0  0  0  0
    5.6709    3.1208   -1.6103 C   0  0  0  0  0  0  0  0  0  0  0  0
    5.6314    3.9246   -0.4222 C   0  0  0  0  0  0  0  0  0  0  0  0
    5.7089    3.3366    0.8597 C   0  0  0  0  0  0  0  0  0  0  0  0
    5.6191    4.1211    1.9987 C   0  0  0  0  0  0  0  0  0  0  0  0
    5.4486    5.5112    1.8700 C   0  0  0  0  0  0  0  0  0  0  0  0
    5.3795    6.1011    0.6128 C   0  0  0  0  0  0  0  0  0  0  0  0
    5.4747    5.3342   -0.5708 C   0  0  0  0  0  0  0  0  0  0  0  0
    5.4535    5.9329   -1.9146 C   0  0  0  0  0  0  0  0  0  0  0  0
    5.4008    7.3319   -2.0914 C   0  0  0  0  0  0  0  0  0  0  0  0
    5.4688    7.9259   -3.3452 C   0  0  0  0  0  0  0  0  0  0  0  0
    5.6252    7.1251   -4.4884 C   0  0  0  0  0  0  0  0  0  0  0  0
    5.6631    5.7470   -4.3622 C   0  0  0  0  0  0  0  0  0  0  0  0
    5.5370    5.1091   -3.0973 C   0  0  0  0  0  0  0  0  0  0  0  0
    5.5529    3.6888   -2.8968 C   0  0  0  0  0  0  0  0  0  0  0  0
    0.4031    1.9946   -3.7762 H   0  0  0  0  0  0  0  0  0  0  0  0
    1.3052    0.5305   -4.2300 H   0  0  0  0  0  0  0  0  0  0  0  0
    0.7970    1.6844   -5.4830 H   0  0  0  0  0  0  0  0  0  0  0  0
    2.8279    2.2884   -3.2330 H   0  0  0  0  0  0  0  0  0  0  0  0
    2.3356    3.4371   -4.4767 H   0  0  0  0  0  0  0  0  0  0  0  0
    3.2760    1.9116   -6.2574 H   0  0  0  0  0  0  0  0  0  0  0  0
    3.7780    0.7685   -5.0158 H   0  0  0  0  0  0  0  0  0  0  0  0
    4.7280    3.6591   -5.3621 H   0  0  0  0  0  0  0  0  0  0  0  0
    5.6441    2.2412   -5.8575 H   0  0  0  0  0  0  0  0  0  0  0  0
    6.6358    0.5466   -5.4671 H   0  0  0  0  0  0  0  0  0  0  0  0
    6.9108   -1.7998   -6.1336 H   0  0  0  0  0  0  0  0  0  0  0  0
    6.9883   -8.3951   -5.8587 H   0  0  0  0  0  0  0  0  0  0  0  0
    6.7747  -10.7048   -4.9549 H   0  0  0  0  0  0  0  0  0  0  0  0
    8.5741  -14.1673   -3.8037 H   0  0  0  0  0  0  0  0  0  0  0  0
    9.6675  -16.4216   -3.9538 H   0  0  0  0  0  0  0  0  0  0  0  0
    8.8037  -18.2939   -2.5369 H   0  0  0  0  0  0  0  0  0  0  0  0
    6.9240  -17.9456   -1.0171 H   0  0  0  0  0  0  0  0  0  0  0  0
    5.4667  -17.5990    0.2218 H   0  0  0  0  0  0  0  0  0  0  0  0
    3.6296  -17.2027    1.7882 H   0  0  0  0  0  0  0  0  0  0  0  0
    2.5701  -14.9340    1.9387 H   0  0  0  0  0  0  0  0  0  0  0  0
    3.3596  -13.1196    0.4975 H   0  0  0  0  0  0  0  0  0  0  0  0
    3.8533  -10.2577   -1.5647 H   0  0  0  0  0  0  0  0  0  0  0  0
    3.6030  -11.3389   -0.2054 H   0  0  0  0  0  0  0  0  0  0  0  0
    2.5038  -13.0031   -1.8283 H   0  0  0  0  0  0  0  0  0  0  0  0
    2.7939  -11.8512   -3.1355 H   0  0  0  0  0  0  0  0  0  0  0  0
    1.3525  -10.1506   -1.9507 H   0  0  0  0  0  0  0  0  0  0  0  0
    1.0699  -11.2972   -0.6417 H   0  0  0  0  0  0  0  0  0  0  0  0
    0.2171  -11.7235   -3.5832 H   0  0  0  0  0  0  0  0  0  0  0  0
   -0.8630  -11.2878   -2.2392 H   0  0  0  0  0  0  0  0  0  0  0  0
   -0.0692  -12.8796   -2.2636 H   0  0  0  0  0  0  0  0  0  0  0  0
    5.4983   -9.0789   -1.1527 H   0  0  0  0  0  0  0  0  0  0  0  0
    5.7085   -6.8045   -2.0427 H   0  0  0  0  0  0  0  0  0  0  0  0
    5.6053   -3.0803   -2.2091 H   0  0  0  0  0  0  0  0  0  0  0  0
    5.3256   -0.7106   -1.5377 H   0  0  0  0  0  0  0  0  0  0  0  0
    5.8347    2.2541    0.9199 H   0  0  0  0  0  0  0  0  0  0  0  0
    5.6771    3.6640    2.9896 H   0  0  0  0  0  0  0  0  0  0  0  0
    5.3712    6.1372    2.7625 H   0  0  0  0  0  0  0  0  0  0  0  0
    5.2494    7.1821    0.5575 H   0  0  0  0  0  0  0  0  0  0  0  0
    5.3233    7.9801   -1.2187 H   0  0  0  0  0  0  0  0  0  0  0  0
    5.4285    9.0140   -3.4346 H   0  0  0  0  0  0  0  0  0  0  0  0
    5.7313    7.5843   -5.4742 H   0  0  0  0  0  0  0  0  0  0  0  0
    5.8353    5.1490   -5.2555 H   0  0  0  0  0  0  0  0  0  0  0  0
  1  2  1  0
  1 60  1  0
  1 61  1  0
  1 62  1  0
  2  3  1  0
  2 63  1  0
  2 64  1  0
  3  4  1  0
  3 65  1  0
  3 66  1  0
  4  5  1  0
  4 67  1  0
  4 68  1  0
  5  6  1  0
  5 59  1  0
  6  7  1  0
  6 45  2  0
  7  8  2  0
  7 44  1  0
  8  9  1  0
  8 69  1  0
  9 10  2  0
  9 70  1  0
 10 11  1  0
 10 43  1  0
 11 12  2  0
 11 42  1  0
 12 13  1  0
 13 14  2  0
 14 15  1  0
 14 42  1  0
 15 16  2  0
 15 41  1  0
 16 17  1  0
 16 71  1  0
 17 18  2  0
 17 72  1  0
 18 19  1  0
 18 40  1  0
 19 20  2  0
 19 35  1  0
 20 21  1  0
 21 22  2  0
 21 34  1  0
 22 23  1  0
 22 27  1  0
 23 24  2  0
 23 73  1  0
 24 25  1  0
 24 74  1  0
 25 26  2  0
 25 75  1  0
 26 27  1  0
 26 76  1  0
 27 28  2  0
 28 29  1  0
 28 33  1  0
 29 30  2  0
 29 77  1  0
 30 31  1  0
 30 78  1  0
 31 32  2  0
 31 79  1  0
 32 33  1  0
 32 80  1  0
 33 34  2  0
 34 35  1  0
 35 36  1  0
 36 37  1  0
 36 81  1  0
 36 82  1  0
 37 38  1  0
 37 83  1  0
 37 84  1  0
 38 39  1  0
 38 85  1  0
 38 86  1  0
 39 87  1  0
 39 88  1  0
 39 89  1  0
 40 41  2  0
 40 90  1  0
 41 91  1  0
 43 44  2  0
 43 92  1  0
 44 93  1  0
 45 46  1  0
 46 47  1  0
 46 59  2  0
 47 48  2  0
 47 52  1  0
 48 49  1  0
 48 94  1  0
 49 50  2  0
 49 95  1  0
 50 51  1  0
 50 96  1  0
 51 52  2  0
 51 97  1  0
 52 53  1  0
 53 54  1  0
 53 58  2  0
 54 55  2  0
 54 98  1  0
 55 56  1  0
 55 99  1  0
 56 57  2  0
 56100  1  0
 57 58  1  0
 57101  1  0
 58 59  1  0
M  END

