
     RDKit          3D

 49 53  0  0  0  0  0  0  0  0999 V2000
    4.7578   -3.7283   -7.4187 C   0  0  0  0  0  0  0  0  0  0  0  0
    5.3993   -3.1546   -6.1798 C   0  0  0  0  0  0  0  0  0  0  0  0
    6.0333   -1.8889   -6.2309 C   0  0  0  0  0  0  0  0  0  0  0  0
    6.6357   -1.3302   -5.1141 C   0  0  0  0  0  0  0  0  0  0  0  0
    6.6132   -2.0421   -3.9053 C   0  0  0  0  0  0  0  0  0  0  0  0
    5.9907   -3.3116   -3.8037 C   0  0  0  0  0  0  0  0  0  0  0  0
    5.3890   -3.8409   -4.9696 C   0  0  0  0  0  0  0  0  0  0  0  0
    5.9935   -4.0142   -2.5414 C   0  0  0  0  0  0  0  0  0  0  0  0
    6.5833   -3.5045   -1.4174 C   0  0  0  0  0  0  0  0  0  0  0  0
    6.6647   -4.2066   -0.0785 C   0  0  0  0  0  0  0  0  0  0  0  0
    5.6529   -5.2405    0.1004 N   0  0  0  0  0  0  0  0  0  0  0  0
    4.3484   -4.7724    0.5805 C   0  0  0  0  0  0  0  0  0  0  0  0
    4.3809   -4.1816    1.9813 C   0  0  0  0  0  0  0  0  0  0  0  0
    4.0150   -2.8480    2.2106 C   0  0  0  0  0  0  0  0  0  0  0  0
    4.0202   -2.3066    3.4996 C   0  0  0  0  0  0  0  0  0  0  0  0
    4.4020   -3.1171    4.5644 C   0  0  0  0  0  0  0  0  0  0  0  0
    4.4118   -2.6096    5.8044 F   0  0  0  0  0  0  0  0  0  0  0  0
    4.7761   -4.4470    4.3721 C   0  0  0  0  0  0  0  0  0  0  0  0
    4.7621   -4.9708    3.0796 C   0  0  0  0  0  0  0  0  0  0  0  0
    6.0830   -6.5578    0.0744 C   0  0  0  0  0  0  0  0  0  0  0  0
    7.2703   -6.8439    0.0272 O   0  0  0  0  0  0  0  0  0  0  0  0
    5.0862   -7.6770    0.0695 C   0  0  0  0  0  0  0  0  0  0  0  0
    5.3670   -8.9272    0.5797 C   0  0  0  0  0  0  0  0  0  0  0  0
    4.3481   -9.8870    0.3232 C   0  0  0  0  0  0  0  0  0  0  0  0
    3.3102   -9.3695   -0.4121 C   0  0  0  0  0  0  0  0  0  0  0  0
    3.5566   -7.7010   -0.7796 S   0  0  0  0  0  0  0  0  0  0  0  0
    7.1991   -2.2138   -1.5421 C   0  0  0  0  0  0  0  0  0  0  0  0
    7.8266   -1.4408   -0.6606 N   0  0  0  0  0  0  0  0  0  0  0  0
    8.1869   -0.3343   -1.3290 N   0  0  0  0  0  0  0  0  0  0  0  0
    7.8232   -0.3712   -2.5703 N   0  0  0  0  0  0  0  0  0  0  0  0
    7.1922   -1.5532   -2.7390 N   0  0  0  0  0  0  0  0  0  0  0  0
    5.4965   -3.8516   -8.2282 H   0  0  0  0  0  0  0  0  0  0  0  0
    3.9685   -3.0614   -7.8039 H   0  0  0  0  0  0  0  0  0  0  0  0
    4.3045   -4.7109   -7.2238 H   0  0  0  0  0  0  0  0  0  0  0  0
    6.0492   -1.3381   -7.1753 H   0  0  0  0  0  0  0  0  0  0  0  0
    7.1249   -0.3564   -5.1500 H   0  0  0  0  0  0  0  0  0  0  0  0
    4.9075   -4.8205   -4.9051 H   0  0  0  0  0  0  0  0  0  0  0  0
    5.5046   -4.9899   -2.4950 H   0  0  0  0  0  0  0  0  0  0  0  0
    6.5926   -3.4579    0.7257 H   0  0  0  0  0  0  0  0  0  0  0  0
    7.6514   -4.6832    0.0223 H   0  0  0  0  0  0  0  0  0  0  0  0
    3.6417   -5.6096    0.5623 H   0  0  0  0  0  0  0  0  0  0  0  0
    3.9623   -4.0184   -0.1251 H   0  0  0  0  0  0  0  0  0  0  0  0
    3.7208   -2.2148    1.3689 H   0  0  0  0  0  0  0  0  0  0  0  0
    3.7408   -1.2682    3.6871 H   0  0  0  0  0  0  0  0  0  0  0  0
    5.0694   -5.0507    5.2332 H   0  0  0  0  0  0  0  0  0  0  0  0
    5.0522   -6.0136    2.9251 H   0  0  0  0  0  0  0  0  0  0  0  0
    6.2992   -9.1339    1.1058 H   0  0  0  0  0  0  0  0  0  0  0  0
    4.3863  -10.9240    0.6600 H   0  0  0  0  0  0  0  0  0  0  0  0
    2.4109   -9.8758   -0.7615 H   0  0  0  0  0  0  0  0  0  0  0  0
  1  2  1  0
  1 32  1  0
  1 33  1  0
  1 34  1  0
  2  3  2  0
  2  7  1  0
  3  4  1  0
  3 35  1  0
  4  5  2  0
  4 36  1  0
  5  6  1  0
  5 31  1  0
  6  7  2  0
  6  8  1  0
  7 37  1  0
  8  9  2  0
  8 38  1  0
  9 10  1  0
  9 27  1  0
 10 11  1  0
 10 39  1  0
 10 40  1  0
 11 12  1  0
 11 20  1  0
 12 13  1  0
 12 41  1  0
 12 42  1  0
 13 14  2  0
 13 19  1  0
 14 15  1  0
 14 43  1  0
 15 16  2  0
 15 44  1  0
 16 17  1  0
 16 18  1  0
 18 19  2  0
 18 45  1  0
 19 46  1  0
 20 21  2  0
 20 22  1  0
 22 23  2  0
 22 26  1  0
 23 24  1  0
 23 47  1  0
 24 25  2  0
 24 48  1  0
 25 26  1  0
 25 49  1  0
 27 28  2  0
 27 31  1  0
 28 29  1  0
 29 30  2  0
 30 31  1  0
M  END

