
     RDKit          3D

 44 45  0  0  0  0  0  0  0  0999 V2000
    2.6316   -0.6893   -0.2613 C   0  0  0  0  0  0  0  0  0  0  0  0
    2.3304    0.1077    1.0202 C   0  0  1  0  0  0  0  0  0  0  0  0
    0.8416    0.5153    1.0119 C   0  0  0  0  0  0  0  0  0  0  0  0
    2.5930   -0.7540    2.2693 C   0  0  0  0  0  0  0  0  0  0  0  0
    3.1684    1.4264    1.1045 C   0  0  2  0  0  0  0  0  0  0  0  0
    2.8512    1.9013    2.0571 H   0  0  0  0  0  0  0  0  0  0  0  0
    2.9102    2.3015   -0.0448 N   0  0  0  0  0  0  0  0  0  0  0  0
    4.6936    1.2209    1.2361 C   0  0  0  0  0  0  0  0  0  0  0  0
    5.2540    0.1693    0.9737 O   0  0  0  0  0  0  0  0  0  0  0  0
    5.4252    2.3250    1.6434 N   0  0  0  0  0  0  0  0  0  0  0  0
    6.8634    2.1809    1.8314 C   0  0  0  0  0  0  0  0  0  0  0  0
    7.6270    3.3684    1.2443 C   0  0  0  0  0  0  0  0  0  0  0  0
    7.0997    4.6266    1.7493 N   0  0  0  0  0  0  0  0  0  0  0  0
    7.8898    5.7522    1.9254 C   0  0  0  0  0  0  0  0  0  0  0  0
    9.3003    5.7361    1.7629 C   0  0  0  0  0  0  0  0  0  0  0  0
   10.0208    6.8980    2.0091 C   0  0  0  0  0  0  0  0  0  0  0  0
    9.3407    8.0568    2.3974 C   0  0  0  0  0  0  0  0  0  0  0  0
   10.2724    9.6784    2.7451 Br  0  0  0  0  0  0  0  0  0  0  0  0
    7.9507    7.9948    2.5100 C   0  0  0  0  0  0  0  0  0  0  0  0
    7.2584    6.8836    2.2790 N   0  0  0  0  0  0  0  0  0  0  0  0
    5.6584    4.7720    1.5883 C   0  0  0  0  0  0  0  0  0  0  0  0
    4.9043    3.5795    2.1761 C   0  0  0  0  0  0  0  0  0  0  0  0
    1.9424   -1.5461   -0.3446 H   0  0  0  0  0  0  0  0  0  0  0  0
    3.6622   -1.0653   -0.2586 H   0  0  0  0  0  0  0  0  0  0  0  0
    2.4973   -0.0510   -1.1473 H   0  0  0  0  0  0  0  0  0  0  0  0
    0.2001   -0.3803    1.0086 H   0  0  0  0  0  0  0  0  0  0  0  0
    0.5889    1.1024    0.1153 H   0  0  0  0  0  0  0  0  0  0  0  0
    0.5757    1.1098    1.9038 H   0  0  0  0  0  0  0  0  0  0  0  0
    1.9292   -1.6339    2.2726 H   0  0  0  0  0  0  0  0  0  0  0  0
    2.3914   -0.1899    3.1971 H   0  0  0  0  0  0  0  0  0  0  0  0
    3.6312   -1.1117    2.2997 H   0  0  0  0  0  0  0  0  0  0  0  0
    3.6977    2.9007   -0.2759 H   0  0  0  0  0  0  0  0  0  0  0  0
    2.0924    2.8903    0.0924 H   0  0  0  0  0  0  0  0  0  0  0  0
    7.1747    1.2436    1.3549 H   0  0  0  0  0  0  0  0  0  0  0  0
    7.0884    2.1081    2.9132 H   0  0  0  0  0  0  0  0  0  0  0  0
    7.5719    3.3349    0.1361 H   0  0  0  0  0  0  0  0  0  0  0  0
    8.6811    3.2593    1.5272 H   0  0  0  0  0  0  0  0  0  0  0  0
    9.8342    4.8429    1.4427 H   0  0  0  0  0  0  0  0  0  0  0  0
   11.1062    6.9057    1.8910 H   0  0  0  0  0  0  0  0  0  0  0  0
    7.3801    8.8851    2.7967 H   0  0  0  0  0  0  0  0  0  0  0  0
    5.4061    4.8601    0.5098 H   0  0  0  0  0  0  0  0  0  0  0  0
    5.3497    5.7015    2.0796 H   0  0  0  0  0  0  0  0  0  0  0  0
    3.8415    3.6871    1.9347 H   0  0  0  0  0  0  0  0  0  0  0  0
    5.0089    3.5886    3.2784 H   0  0  0  0  0  0  0  0  0  0  0  0
  2  1  1  6
  1 23  1  0
  1 24  1  0
  1 25  1  0
  2  3  1  0
  2  4  1  0
  2  5  1  0
  3 26  1  0
  3 27  1  0
  3 28  1  0
  4 29  1  0
  4 30  1  0
  4 31  1  0
  5  6  1  1
  5  7  1  0
  5  8  1  0
  7 32  1  0
  7 33  1  0
  8  9  2  0
  8 10  1  0
 10 11  1  0
 10 22  1  0
 11 12  1  0
 11 34  1  0
 11 35  1  0
 12 13  1  0
 12 36  1  0
 12 37  1  0
 13 14  1  0
 13 21  1  0
 14 15  2  0
 14 20  1  0
 15 16  1  0
 15 38  1  0
 16 17  2  0
 16 39  1  0
 17 18  1  0
 17 19  1  0
 19 20  2  0
 19 40  1  0
 21 22  1  0
 21 41  1  0
 21 42  1  0
 22 43  1  0
 22 44  1  0
M  END

