
     RDKit          3D

 49 52  0  0  0  0  0  0  0  0999 V2000
    2.5578   -1.3839    0.3076 C   0  0  0  0  0  0  0  0  0  0  0  0
    2.8139   -0.1256   -0.2744 O   0  0  0  0  0  0  0  0  0  0  0  0
    3.4183   -0.0721   -1.4897 C   0  0  0  0  0  0  0  0  0  0  0  0
    3.6394    1.2346   -1.9934 C   0  0  0  0  0  0  0  0  0  0  0  0
    4.2586    1.4395   -3.2181 C   0  0  0  0  0  0  0  0  0  0  0  0
    4.6566    0.3087   -3.9441 C   0  0  0  0  0  0  0  0  0  0  0  0
    4.4379   -1.0001   -3.4633 C   0  0  0  0  0  0  0  0  0  0  0  0
    3.8158   -1.1977   -2.2161 C   0  0  0  0  0  0  0  0  0  0  0  0
    4.9268   -1.9197   -4.4773 C   0  0  0  0  0  0  0  0  0  0  0  0
    4.8615   -3.3667   -4.3233 C   0  0  0  0  0  0  0  0  0  0  0  0
    4.7328   -3.8960   -3.2224 O   0  0  0  0  0  0  0  0  0  0  0  0
    4.8358   -4.2969   -5.5647 C   0  0  0  0  0  0  0  0  0  0  0  0
    4.5887   -3.9000   -6.6888 O   0  0  0  0  0  0  0  0  0  0  0  0
    5.0626   -5.5891   -5.1905 N   0  0  0  0  0  0  0  0  0  0  0  0
    5.0730   -6.7521   -5.9727 C   0  0  0  0  0  0  0  0  0  0  0  0
    4.8797   -6.7407   -7.3667 C   0  0  0  0  0  0  0  0  0  0  0  0
    4.9105   -7.9376   -8.0839 C   0  0  0  0  0  0  0  0  0  0  0  0
    5.1307   -9.1496   -7.4248 C   0  0  0  0  0  0  0  0  0  0  0  0
    5.1651  -10.6450   -8.3327 Cl  0  0  0  0  0  0  0  0  0  0  0  0
    5.3232   -9.1739   -6.0403 C   0  0  0  0  0  0  0  0  0  0  0  0
    5.2946   -7.9805   -5.3230 C   0  0  0  0  0  0  0  0  0  0  0  0
    5.4453   -1.1066   -5.4948 C   0  0  0  0  0  0  0  0  0  0  0  0
    6.3394   -1.5324   -6.8996 Cl  0  0  0  0  0  0  0  0  0  0  0  0
    5.2873    0.2184   -5.1867 N   0  0  0  0  0  0  0  0  0  0  0  0
    5.6879    1.3672   -5.9908 C   0  0  0  0  0  0  0  0  0  0  0  0
    6.9102    2.1050   -5.4715 C   0  0  0  0  0  0  0  0  0  0  0  0
    8.0952    1.4179   -5.1661 C   0  0  0  0  0  0  0  0  0  0  0  0
    9.2273    2.1015   -4.7230 C   0  0  0  0  0  0  0  0  0  0  0  0
    9.1812    3.4931   -4.5866 C   0  0  0  0  0  0  0  0  0  0  0  0
   10.5973    4.3542   -4.0333 Cl  0  0  0  0  0  0  0  0  0  0  0  0
    8.0145    4.1989   -4.8878 C   0  0  0  0  0  0  0  0  0  0  0  0
    6.8872    3.4981   -5.3251 C   0  0  0  0  0  0  0  0  0  0  0  0
    2.0696   -1.1895    1.2720 H   0  0  0  0  0  0  0  0  0  0  0  0
    3.4889   -1.9521    0.4839 H   0  0  0  0  0  0  0  0  0  0  0  0
    1.8851   -1.9973   -0.3187 H   0  0  0  0  0  0  0  0  0  0  0  0
    3.3141    2.0773   -1.3807 H   0  0  0  0  0  0  0  0  0  0  0  0
    4.4335    2.4515   -3.5857 H   0  0  0  0  0  0  0  0  0  0  0  0
    3.6775   -2.2108   -1.8472 H   0  0  0  0  0  0  0  0  0  0  0  0
    5.1420   -5.6973   -4.1803 H   0  0  0  0  0  0  0  0  0  0  0  0
    4.7033   -5.7939   -7.8725 H   0  0  0  0  0  0  0  0  0  0  0  0
    4.7600   -7.9299   -9.1648 H   0  0  0  0  0  0  0  0  0  0  0  0
    5.4948  -10.1230   -5.5300 H   0  0  0  0  0  0  0  0  0  0  0  0
    5.4471   -8.0000   -4.2402 H   0  0  0  0  0  0  0  0  0  0  0  0
    4.8310    2.0561   -6.0465 H   0  0  0  0  0  0  0  0  0  0  0  0
    5.8710    1.0001   -7.0103 H   0  0  0  0  0  0  0  0  0  0  0  0
    8.1403    0.3321   -5.2791 H   0  0  0  0  0  0  0  0  0  0  0  0
   10.1464    1.5635   -4.4851 H   0  0  0  0  0  0  0  0  0  0  0  0
    7.9898    5.2839   -4.7747 H   0  0  0  0  0  0  0  0  0  0  0  0
    5.9741    4.0542   -5.5570 H   0  0  0  0  0  0  0  0  0  0  0  0
  1  2  1  0
  1 33  1  0
  1 34  1  0
  1 35  1  0
  2  3  1  0
  3  4  2  0
  3  8  1  0
  4  5  1  0
  4 36  1  0
  5  6  2  0
  5 37  1  0
  6  7  1  0
  6 24  1  0
  7  8  2  0
  7  9  1  0
  8 38  1  0
  9 10  1  0
  9 22  2  0
 10 11  2  0
 10 12  1  0
 12 13  2  0
 12 14  1  0
 14 15  1  0
 14 39  1  0
 15 16  2  0
 15 21  1  0
 16 17  1  0
 16 40  1  0
 17 18  2  0
 17 41  1  0
 18 19  1  0
 18 20  1  0
 20 21  2  0
 20 42  1  0
 21 43  1  0
 22 23  1  0
 22 24  1  0
 24 25  1  0
 25 26  1  0
 25 44  1  0
 25 45  1  0
 26 27  2  0
 26 32  1  0
 27 28  1  0
 27 46  1  0
 28 29  2  0
 28 47  1  0
 29 30  1  0
 29 31  1  0
 31 32  2  0
 31 48  1  0
 32 49  1  0
M  END

