
     RDKit          3D

 31 33  0  0  0  0  0  0  0  0999 V2000
    0.8952    0.3248   -0.1121 C   0  0  0  0  0  0  0  0  0  0  0  0
    2.4205    0.0690   -0.1593 C   0  0  1  0  0  0  0  0  0  0  0  0
    2.7530   -1.2385    0.4449 N   0  0  0  0  0  0  0  0  0  0  0  0
    2.9246    0.0362   -1.5967 C   0  0  0  0  0  0  0  0  0  0  0  0
    3.8223   -0.8993   -2.0664 C   0  0  0  0  0  0  0  0  0  0  0  0
    4.0732   -0.6955   -3.4048 N   0  0  0  0  0  0  0  0  0  0  0  0
    4.6903   -1.2569   -3.9751 H   0  0  0  0  0  0  0  0  0  0  0  0
    3.3437    0.3844   -3.8461 C   0  0  0  0  0  0  0  0  0  0  0  0
    3.2781    0.9616   -5.1219 C   0  0  0  0  0  0  0  0  0  0  0  0
    2.4526    2.0682   -5.2921 C   0  0  0  0  0  0  0  0  0  0  0  0
    1.7123    2.5891   -4.2095 C   0  0  0  0  0  0  0  0  0  0  0  0
    1.7789    2.0128   -2.9447 C   0  0  0  0  0  0  0  0  0  0  0  0
    2.5999    0.8833   -2.7318 C   0  0  0  0  0  0  0  0  0  0  0  0
    3.1144    1.1351    0.7085 C   0  0  1  0  0  0  0  0  0  0  0  0
    4.6055    1.3256    0.7131 C   0  0  0  0  0  0  0  0  0  0  0  0
    3.7093    2.4150    0.1793 C   0  0  0  0  0  0  0  0  0  0  0  0
    0.3551   -0.4075   -0.7335 H   0  0  0  0  0  0  0  0  0  0  0  0
    0.6246    1.3313   -0.4618 H   0  0  0  0  0  0  0  0  0  0  0  0
    0.5368    0.2274    0.9260 H   0  0  0  0  0  0  0  0  0  0  0  0
    2.1381   -1.9579    0.0595 H   0  0  0  0  0  0  0  0  0  0  0  0
    2.5647   -1.2079    1.4476 H   0  0  0  0  0  0  0  0  0  0  0  0
    4.2930   -1.7071   -1.5125 H   0  0  0  0  0  0  0  0  0  0  0  0
    3.8590    0.5560   -5.9545 H   0  0  0  0  0  0  0  0  0  0  0  0
    2.3798    2.5417   -6.2744 H   0  0  0  0  0  0  0  0  0  0  0  0
    1.0759    3.4634   -4.3683 H   0  0  0  0  0  0  0  0  0  0  0  0
    1.2015    2.4456   -2.1266 H   0  0  0  0  0  0  0  0  0  0  0  0
    2.6309    1.2251    1.6903 H   0  0  0  0  0  0  0  0  0  0  0  0
    5.1836    0.7506   -0.0152 H   0  0  0  0  0  0  0  0  0  0  0  0
    5.1065    1.4743    1.6740 H   0  0  0  0  0  0  0  0  0  0  0  0
    3.7082    2.5802   -0.9003 H   0  0  0  0  0  0  0  0  0  0  0  0
    3.5751    3.3235    0.7740 H   0  0  0  0  0  0  0  0  0  0  0  0
  1  2  1  0
  1 17  1  0
  1 18  1  0
  1 19  1  0
  2  3  1  1
  2  4  1  0
  2 14  1  0
  3 20  1  0
  3 21  1  0
  4  5  2  0
  4 13  1  0
  5  6  1  0
  5 22  1  0
  6  7  1  0
  6  8  1  0
  8  9  1  0
  8 13  2  0
  9 10  2  0
  9 23  1  0
 10 11  1  0
 10 24  1  0
 11 12  2  0
 11 25  1  0
 12 13  1  0
 12 26  1  0
 14 15  1  0
 14 16  1  0
 14 27  1  1
 15 16  1  0
 15 28  1  0
 15 29  1  0
 16 30  1  0
 16 31  1  0
M  END

