
     RDKit          3D

 77 81  0  0  0  0  0  0  0  0999 V2000
    2.5346    1.9032   -2.1017 C   0  0  0  0  0  0  0  0  0  0  0  0
    3.6906    1.2602   -1.9165 C   0  0  0  0  0  0  0  0  0  0  0  0
    4.5389    1.3284   -0.6727 C   0  0  0  0  0  0  0  0  0  0  0  0
    4.9749    0.0227   -0.1980 N   0  0  0  0  0  0  0  0  0  0  0  0
    3.8349   -0.7867    0.3272 C   0  0  0  0  0  0  0  0  0  0  0  0
    3.9597   -2.3392    0.5615 C   0  0  0  0  0  0  0  0  0  0  0  0
    4.8989   -2.7891    1.7515 C   0  0  1  0  0  0  0  0  0  0  0  0
    6.2177   -3.6106    1.3838 C   0  0  0  0  0  0  0  0  0  0  0  0
    7.3456   -2.5166    1.1965 C   0  0  0  0  0  0  0  0  0  0  0  0
    6.3724   -1.3261    1.1010 C   0  0  2  0  0  0  0  0  0  0  0  0
    6.2630    0.0859    0.5528 C   0  0  0  0  0  0  0  0  0  0  0  0
    5.4387   -1.5202    2.2336 N   0  0  0  0  0  0  0  0  0  0  0  0
    5.9953   -1.5085    3.5910 C   0  0  1  0  0  0  0  0  0  0  0  0
    6.6736   -0.1775    3.9037 C   0  0  0  0  0  0  0  0  0  0  0  0
    7.9899   -0.1023    4.1881 C   0  0  0  0  0  0  0  0  0  0  0  0
    8.6629    1.2157    4.4734 C   0  0  0  0  0  0  0  0  0  0  0  0
    7.7096    2.2432    5.1251 C   0  0  1  0  0  0  0  0  0  0  0  0
    8.3794    3.6263    5.1552 C   0  0  0  0  0  0  0  0  0  0  0  0
    9.0551    3.9959    6.0908 O   0  0  0  0  0  0  0  0  0  0  0  0
    8.1815    4.3607    4.0033 N   0  0  0  0  0  0  0  0  0  0  0  0
    8.7745    5.5987    3.8162 N   0  0  0  0  0  0  0  0  0  0  0  0
    9.8480    5.6003    2.8186 C   0  0  0  0  0  0  0  0  0  0  0  0
    9.3307    5.5886    1.3706 C   0  0  0  0  0  0  0  0  0  0  0  0
    8.3372    6.7379    1.1419 C   0  0  0  0  0  0  0  0  0  0  0  0
    7.2212    6.7215    2.1983 C   0  0  0  0  0  0  0  0  0  0  0  0
    7.8164    6.6875    3.6166 C   0  0  0  0  0  0  0  0  0  0  0  0
    6.3410    2.1937    4.4821 C   0  0  0  0  0  0  0  0  0  0  0  0
    5.8691    1.0571    3.9359 C   0  0  0  0  0  0  0  0  0  0  0  0
    4.9153   -1.8048    4.6376 C   0  0  0  0  0  0  0  0  0  0  0  0
    3.5787   -1.4083    4.4730 C   0  0  0  0  0  0  0  0  0  0  0  0
    2.6445   -1.6570    5.4803 C   0  0  0  0  0  0  0  0  0  0  0  0
    3.0279   -2.2995    6.6610 C   0  0  0  0  0  0  0  0  0  0  0  0
    4.3561   -2.7070    6.8509 C   0  0  0  0  0  0  0  0  0  0  0  0
    4.7928   -3.4019    8.1187 C   0  0  0  0  0  0  0  0  0  0  0  0
    5.2801   -2.4513    5.8255 C   0  0  0  0  0  0  0  0  0  0  0  0
    1.9873    1.8391   -3.0464 H   0  0  0  0  0  0  0  0  0  0  0  0
    2.0919    2.5234   -1.3145 H   0  0  0  0  0  0  0  0  0  0  0  0
    4.1042    0.6361   -2.7190 H   0  0  0  0  0  0  0  0  0  0  0  0
    4.0081    1.9211    0.1087 H   0  0  0  0  0  0  0  0  0  0  0  0
    5.4511    1.9016   -0.9214 H   0  0  0  0  0  0  0  0  0  0  0  0
    3.0510   -0.6792   -0.4392 H   0  0  0  0  0  0  0  0  0  0  0  0
    3.4225   -0.3370    1.2520 H   0  0  0  0  0  0  0  0  0  0  0  0
    4.2415   -2.8358   -0.3830 H   0  0  0  0  0  0  0  0  0  0  0  0
    2.9302   -2.6747    0.7763 H   0  0  0  0  0  0  0  0  0  0  0  0
    4.3171   -3.3175    2.5197 H   0  0  0  0  0  0  0  0  0  0  0  0
    6.0846   -4.2046    0.4653 H   0  0  0  0  0  0  0  0  0  0  0  0
    6.4600   -4.3180    2.1913 H   0  0  0  0  0  0  0  0  0  0  0  0
    7.9158   -2.6672    0.2680 H   0  0  0  0  0  0  0  0  0  0  0  0
    8.0613   -2.4920    2.0322 H   0  0  0  0  0  0  0  0  0  0  0  0
    5.8540   -1.7476    0.2410 H   0  0  0  0  0  0  0  0  0  0  0  0
    7.0634    0.3240   -0.1696 H   0  0  0  0  0  0  0  0  0  0  0  0
    6.2711    0.8653    1.3372 H   0  0  0  0  0  0  0  0  0  0  0  0
    6.7747   -2.2831    3.7328 H   0  0  0  0  0  0  0  0  0  0  0  0
    8.6125   -1.0022    4.1532 H   0  0  0  0  0  0  0  0  0  0  0  0
    9.0425    1.6268    3.5143 H   0  0  0  0  0  0  0  0  0  0  0  0
    9.5486    1.0827    5.1130 H   0  0  0  0  0  0  0  0  0  0  0  0
    7.5941    1.9832    6.1941 H   0  0  0  0  0  0  0  0  0  0  0  0
    7.6248    3.9429    3.2566 H   0  0  0  0  0  0  0  0  0  0  0  0
   10.5078    4.7444    3.0247 H   0  0  0  0  0  0  0  0  0  0  0  0
   10.4458    6.5142    2.9860 H   0  0  0  0  0  0  0  0  0  0  0  0
    8.8359    4.6215    1.1612 H   0  0  0  0  0  0  0  0  0  0  0  0
   10.1785    5.6568    0.6680 H   0  0  0  0  0  0  0  0  0  0  0  0
    7.9120    6.6895    0.1257 H   0  0  0  0  0  0  0  0  0  0  0  0
    8.8792    7.7000    1.2064 H   0  0  0  0  0  0  0  0  0  0  0  0
    6.5766    5.8356    2.0443 H   0  0  0  0  0  0  0  0  0  0  0  0
    6.5635    7.6003    2.0886 H   0  0  0  0  0  0  0  0  0  0  0  0
    7.0338    6.6006    4.3849 H   0  0  0  0  0  0  0  0  0  0  0  0
    8.3539    7.6336    3.8081 H   0  0  0  0  0  0  0  0  0  0  0  0
    5.6952    3.0738    4.5606 H   0  0  0  0  0  0  0  0  0  0  0  0
    4.8513    1.0190    3.5429 H   0  0  0  0  0  0  0  0  0  0  0  0
    3.2745   -0.9175    3.5474 H   0  0  0  0  0  0  0  0  0  0  0  0
    1.6045   -1.3485    5.3438 H   0  0  0  0  0  0  0  0  0  0  0  0
    2.2872   -2.4902    7.4429 H   0  0  0  0  0  0  0  0  0  0  0  0
    3.9464   -3.5673    8.8014 H   0  0  0  0  0  0  0  0  0  0  0  0
    5.5491   -2.8087    8.6600 H   0  0  0  0  0  0  0  0  0  0  0  0
    5.2490   -4.3826    7.9036 H   0  0  0  0  0  0  0  0  0  0  0  0
    6.3213   -2.7627    5.9605 H   0  0  0  0  0  0  0  0  0  0  0  0
  1  2  2  0
  1 36  1  0
  1 37  1  0
  2  3  1  0
  2 38  1  0
  3  4  1  0
  3 39  1  0
  3 40  1  0
  4  5  1  0
  4 11  1  0
  5  6  1  0
  5 41  1  0
  5 42  1  0
  6  7  1  0
  6 43  1  0
  6 44  1  0
  7  8  1  0
  7 12  1  0
  7 45  1  1
  8  9  1  0
  8 46  1  0
  8 47  1  0
  9 10  1  0
  9 48  1  0
  9 49  1  0
 10 11  1  0
 10 12  1  0
 10 50  1  6
 11 51  1  0
 11 52  1  0
 12 13  1  0
 13 14  1  0
 13 29  1  0
 13 53  1  6
 14 15  2  0
 14 28  1  0
 15 16  1  0
 15 54  1  0
 16 17  1  0
 16 55  1  0
 16 56  1  0
 17 18  1  0
 17 27  1  0
 17 57  1  1
 18 19  2  0
 18 20  1  0
 20 21  1  0
 20 58  1  0
 21 22  1  0
 21 26  1  0
 22 23  1  0
 22 59  1  0
 22 60  1  0
 23 24  1  0
 23 61  1  0
 23 62  1  0
 24 25  1  0
 24 63  1  0
 24 64  1  0
 25 26  1  0
 25 65  1  0
 25 66  1  0
 26 67  1  0
 26 68  1  0
 27 28  2  0
 27 69  1  0
 28 70  1  0
 29 30  2  0
 29 35  1  0
 30 31  1  0
 30 71  1  0
 31 32  2  0
 31 72  1  0
 32 33  1  0
 32 73  1  0
 33 34  1  0
 33 35  2  0
 34 74  1  0
 34 75  1  0
 34 76  1  0
 35 77  1  0
M  END

