
     RDKit          3D

 46 49  0  0  0  0  0  0  0  0999 V2000
    1.7185   13.1676   -0.1506 C   0  0  0  0  0  0  0  0  0  0  0  0
    3.0226   12.9009    0.3229 O   0  0  0  0  0  0  0  0  0  0  0  0
    3.5399   11.6604    0.1905 C   0  0  0  0  0  0  0  0  0  0  0  0
    2.8706   10.5755   -0.4019 C   0  0  0  0  0  0  0  0  0  0  0  0
    3.5028    9.3363   -0.4845 C   0  0  0  0  0  0  0  0  0  0  0  0
    4.7969    9.1331    0.0185 C   0  0  0  0  0  0  0  0  0  0  0  0
    5.3618    7.7482   -0.1351 C   0  0  0  0  0  0  0  0  0  0  0  0
    4.8037    6.8958   -0.7847 O   0  0  0  0  0  0  0  0  0  0  0  0
    6.5812    7.5353    0.5340 N   0  0  0  0  0  0  0  0  0  0  0  0
    7.3045    6.3628    0.6759 C   0  0  0  0  0  0  0  0  0  0  0  0
    6.7909    4.8307    0.3233 S   0  0  0  0  0  0  0  0  0  0  0  0
    8.5569    6.5457    1.2389 N   0  0  0  0  0  0  0  0  0  0  0  0
    9.3525    7.6874    1.4366 C   0  0  0  0  0  0  0  0  0  0  0  0
   10.2837    7.6167    2.5373 C   0  0  0  0  0  0  0  0  0  0  0  0
   11.1479    8.6397    2.8455 C   0  0  0  0  0  0  0  0  0  0  0  0
   11.0872    9.8063    2.0418 C   0  0  0  0  0  0  0  0  0  0  0  0
   11.7825   10.9541    2.0920 N   0  0  0  0  0  0  0  0  0  0  0  0
   11.2916   11.6552    1.0786 N   0  0  0  0  0  0  0  0  0  0  0  0
   11.7706   12.9610    0.7744 C   0  0  0  0  0  0  0  0  0  0  0  0
   12.7683   13.5355    1.5716 C   0  0  0  0  0  0  0  0  0  0  0  0
   13.2369   14.8138    1.2714 C   0  0  0  0  0  0  0  0  0  0  0  0
   12.7067   15.5082    0.1790 C   0  0  0  0  0  0  0  0  0  0  0  0
   13.3491   17.2528   -0.2293 Br  0  0  0  0  0  0  0  0  0  0  0  0
   11.7101   14.9338   -0.6166 C   0  0  0  0  0  0  0  0  0  0  0  0
   11.2390   13.6554   -0.3192 C   0  0  0  0  0  0  0  0  0  0  0  0
   10.3312   11.0818    0.3569 N   0  0  0  0  0  0  0  0  0  0  0  0
   10.1696    9.8855    0.9477 C   0  0  0  0  0  0  0  0  0  0  0  0
    9.3016    8.8138    0.6231 C   0  0  0  0  0  0  0  0  0  0  0  0
    5.4575   10.2330    0.6025 C   0  0  0  0  0  0  0  0  0  0  0  0
    4.8432   11.4758    0.6883 C   0  0  0  0  0  0  0  0  0  0  0  0
    1.5190   14.2250    0.0671 H   0  0  0  0  0  0  0  0  0  0  0  0
    0.9626   12.5467    0.3619 H   0  0  0  0  0  0  0  0  0  0  0  0
    1.6372   13.0040   -1.2398 H   0  0  0  0  0  0  0  0  0  0  0  0
    1.8621   10.6867   -0.8002 H   0  0  0  0  0  0  0  0  0  0  0  0
    2.9964    8.4874   -0.9476 H   0  0  0  0  0  0  0  0  0  0  0  0
    6.9497    8.3331    1.0401 H   0  0  0  0  0  0  0  0  0  0  0  0
    8.9661    5.6551    1.5070 H   0  0  0  0  0  0  0  0  0  0  0  0
   10.2839    6.7074    3.1437 H   0  0  0  0  0  0  0  0  0  0  0  0
   11.8479    8.5653    3.6793 H   0  0  0  0  0  0  0  0  0  0  0  0
   13.1664   12.9753    2.4169 H   0  0  0  0  0  0  0  0  0  0  0  0
   14.0140   15.2693    1.8870 H   0  0  0  0  0  0  0  0  0  0  0  0
   11.3026   15.4820   -1.4673 H   0  0  0  0  0  0  0  0  0  0  0  0
   10.4636   13.1872   -0.9246 H   0  0  0  0  0  0  0  0  0  0  0  0
    8.6624    8.8722   -0.2566 H   0  0  0  0  0  0  0  0  0  0  0  0
    6.4767   10.1539    0.9902 H   0  0  0  0  0  0  0  0  0  0  0  0
    5.3544   12.3304    1.1350 H   0  0  0  0  0  0  0  0  0  0  0  0
  1  2  1  0
  1 31  1  0
  1 32  1  0
  1 33  1  0
  2  3  1  0
  3  4  2  0
  3 30  1  0
  4  5  1  0
  4 34  1  0
  5  6  2  0
  5 35  1  0
  6  7  1  0
  6 29  1  0
  7  8  2  0
  7  9  1  0
  9 10  1  0
  9 36  1  0
 10 11  2  0
 10 12  1  0
 12 13  1  0
 12 37  1  0
 13 14  1  0
 13 28  2  0
 14 15  2  0
 14 38  1  0
 15 16  1  0
 15 39  1  0
 16 17  2  0
 16 27  1  0
 17 18  1  0
 18 19  1  0
 18 26  1  0
 19 20  2  0
 19 25  1  0
 20 21  1  0
 20 40  1  0
 21 22  2  0
 21 41  1  0
 22 23  1  0
 22 24  1  0
 24 25  2  0
 24 42  1  0
 25 43  1  0
 26 27  2  0
 27 28  1  0
 28 44  1  0
 29 30  2  0
 29 45  1  0
 30 46  1  0
M  END

