
     RDKit          3D

 59 62  0  0  0  0  0  0  0  0999 V2000
    2.3876    2.0392    1.5000 C   0  0  0  0  0  0  0  0  0  0  0  0
    2.8162    0.8556    0.6183 C   0  0  0  0  0  0  0  0  0  0  0  0
    3.3801   -0.3051    1.4091 C   0  0  0  0  0  0  0  0  0  0  0  0
    2.5475   -1.3214    1.9019 C   0  0  0  0  0  0  0  0  0  0  0  0
    3.0506   -2.3686    2.6742 C   0  0  0  0  0  0  0  0  0  0  0  0
    4.4219   -2.4299    2.9621 C   0  0  0  0  0  0  0  0  0  0  0  0
    4.9422   -3.5040    3.7401 N   0  0  0  0  0  0  0  0  0  0  0  0
    4.5327   -4.8696    3.6283 C   0  0  0  0  0  0  0  0  0  0  0  0
    3.6909   -5.2570    2.8499 O   0  0  0  0  0  0  0  0  0  0  0  0
    5.3001   -5.6510    4.6157 C   0  0  0  0  0  0  0  0  0  0  0  0
    4.9896   -7.0845    4.7898 C   0  0  0  0  0  0  0  0  0  0  0  0
    4.9485   -7.9523    3.6804 C   0  0  0  0  0  0  0  0  0  0  0  0
    4.6216   -9.3012    3.8229 C   0  0  0  0  0  0  0  0  0  0  0  0
    4.3215   -9.8194    5.0866 C   0  0  0  0  0  0  0  0  0  0  0  0
    4.3362   -8.9768    6.1999 C   0  0  0  0  0  0  0  0  0  0  0  0
    4.6537   -7.6223    6.0531 C   0  0  0  0  0  0  0  0  0  0  0  0
    4.6753   -6.8151    7.1671 O   0  0  0  0  0  0  0  0  0  0  0  0
    3.4424   -6.1965    7.5012 C   0  0  0  0  0  0  0  0  0  0  0  0
    6.1681   -4.7936    5.2665 C   0  0  0  0  0  0  0  0  0  0  0  0
    7.1572   -5.0300    6.1609 N   0  0  0  0  0  0  0  0  0  0  0  0
    7.8622   -3.9938    6.9226 C   0  0  0  0  0  0  0  0  0  0  0  0
    7.9950   -4.4144    8.3925 C   0  0  2  0  0  0  0  0  0  0  0  0
    8.8204   -3.4236    9.1968 C   0  0  0  0  0  0  0  0  0  0  0  0
    8.6189   -5.6834    8.4951 O   0  0  0  0  0  0  0  0  0  0  0  0
    7.9071   -6.7117    7.8184 C   0  0  2  0  0  0  0  0  0  0  0  0
    8.6620   -8.0137    8.0244 C   0  0  0  0  0  0  0  0  0  0  0  0
    7.7604   -6.3521    6.3350 C   0  0  0  0  0  0  0  0  0  0  0  0
    5.9313   -3.3876    4.7028 C   0  0  0  0  0  0  0  0  0  0  0  0
    6.5024   -2.3628    5.0087 O   0  0  0  0  0  0  0  0  0  0  0  0
    5.2720   -1.4290    2.4694 C   0  0  0  0  0  0  0  0  0  0  0  0
    4.7483   -0.3815    1.7113 C   0  0  0  0  0  0  0  0  0  0  0  0
    1.9839    2.8631    0.8894 H   0  0  0  0  0  0  0  0  0  0  0  0
    3.2387    2.4312    2.0797 H   0  0  0  0  0  0  0  0  0  0  0  0
    1.6097    1.7369    2.2194 H   0  0  0  0  0  0  0  0  0  0  0  0
    3.5689    1.2002   -0.1109 H   0  0  0  0  0  0  0  0  0  0  0  0
    1.9502    0.5094    0.0291 H   0  0  0  0  0  0  0  0  0  0  0  0
    1.4769   -1.2964    1.6781 H   0  0  0  0  0  0  0  0  0  0  0  0
    2.3844   -3.1501    3.0368 H   0  0  0  0  0  0  0  0  0  0  0  0
    5.1804   -7.5507    2.6927 H   0  0  0  0  0  0  0  0  0  0  0  0
    4.6055   -9.9506    2.9444 H   0  0  0  0  0  0  0  0  0  0  0  0
    4.0732  -10.8770    5.2061 H   0  0  0  0  0  0  0  0  0  0  0  0
    4.1014   -9.3522    7.1987 H   0  0  0  0  0  0  0  0  0  0  0  0
    3.6177   -5.5902    8.4011 H   0  0  0  0  0  0  0  0  0  0  0  0
    2.6610   -6.9466    7.7193 H   0  0  0  0  0  0  0  0  0  0  0  0
    3.0857   -5.5410    6.6874 H   0  0  0  0  0  0  0  0  0  0  0  0
    7.3339   -3.0415    6.8378 H   0  0  0  0  0  0  0  0  0  0  0  0
    8.8761   -3.8540    6.5010 H   0  0  0  0  0  0  0  0  0  0  0  0
    6.9705   -4.4804    8.8169 H   0  0  0  0  0  0  0  0  0  0  0  0
    9.8358   -3.3394    8.7786 H   0  0  0  0  0  0  0  0  0  0  0  0
    8.9082   -3.7674   10.2379 H   0  0  0  0  0  0  0  0  0  0  0  0
    8.3537   -2.4266    9.1930 H   0  0  0  0  0  0  0  0  0  0  0  0
    6.8882   -6.7915    8.2421 H   0  0  0  0  0  0  0  0  0  0  0  0
    9.6693   -7.9550    7.5820 H   0  0  0  0  0  0  0  0  0  0  0  0
    8.1219   -8.8563    7.5660 H   0  0  0  0  0  0  0  0  0  0  0  0
    8.7744   -8.2135    9.1002 H   0  0  0  0  0  0  0  0  0  0  0  0
    7.1718   -7.1109    5.8119 H   0  0  0  0  0  0  0  0  0  0  0  0
    8.7696   -6.3297    5.8786 H   0  0  0  0  0  0  0  0  0  0  0  0
    6.3387   -1.4645    2.6873 H   0  0  0  0  0  0  0  0  0  0  0  0
    5.4266    0.3911    1.3368 H   0  0  0  0  0  0  0  0  0  0  0  0
  1  2  1  0
  1 32  1  0
  1 33  1  0
  1 34  1  0
  2  3  1  0
  2 35  1  0
  2 36  1  0
  3  4  2  0
  3 31  1  0
  4  5  1  0
  4 37  1  0
  5  6  2  0
  5 38  1  0
  6  7  1  0
  6 30  1  0
  7  8  1  0
  7 28  1  0
  8  9  2  0
  8 10  1  0
 10 11  1  0
 10 19  2  0
 11 12  2  0
 11 16  1  0
 12 13  1  0
 12 39  1  0
 13 14  2  0
 13 40  1  0
 14 15  1  0
 14 41  1  0
 15 16  2  0
 15 42  1  0
 16 17  1  0
 17 18  1  0
 18 43  1  0
 18 44  1  0
 18 45  1  0
 19 20  1  0
 19 28  1  0
 20 21  1  0
 20 27  1  0
 21 22  1  0
 21 46  1  0
 21 47  1  0
 22 23  1  0
 22 24  1  0
 22 48  1  1
 23 49  1  0
 23 50  1  0
 23 51  1  0
 24 25  1  0
 25 26  1  0
 25 27  1  0
 25 52  1  1
 26 53  1  0
 26 54  1  0
 26 55  1  0
 27 56  1  0
 27 57  1  0
 28 29  2  0
 30 31  2  0
 30 58  1  0
 31 59  1  0
M  END

