
     RDKit          3D

 46 48  0  0  0  0  0  0  0  0999 V2000
    2.6960    2.6431    0.5515 C   0  0  0  0  0  0  0  0  0  0  0  0
    3.8975    1.8343    0.5514 N   0  0  0  0  0  0  0  0  0  0  0  0
    5.1008    2.4154    0.7350 N   0  0  0  0  0  0  0  0  0  0  0  0
    5.9855    1.4267    0.6866 C   0  0  0  0  0  0  0  0  0  0  0  0
    5.3482    0.1772    0.4685 C   0  0  0  0  0  0  0  0  0  0  0  0
    3.9962    0.4879    0.3800 C   0  0  0  0  0  0  0  0  0  0  0  0
    2.8779   -0.4864    0.1828 C   0  0  0  0  0  0  0  0  0  0  0  0
    3.4599   -1.8314   -0.2927 C   0  0  0  0  0  0  0  0  0  0  0  0
    4.7108   -2.2367    0.4987 C   0  0  0  0  0  0  0  0  0  0  0  0
    5.8815   -1.2228    0.3430 C   0  0  1  0  0  0  0  0  0  0  0  0
    6.5807   -1.3730   -0.9293 N   0  0  0  0  0  0  0  0  0  0  0  0
    7.5918   -2.2655   -1.2485 C   0  0  0  0  0  0  0  0  0  0  0  0
    7.9821   -3.2035   -0.2590 C   0  0  0  0  0  0  0  0  0  0  0  0
    9.0053   -4.1605   -0.5531 C   0  0  0  0  0  0  0  0  0  0  0  0
    9.5040   -4.1968   -1.8675 C   0  0  0  0  0  0  0  0  0  0  0  0
    9.0934   -3.2926   -2.8598 C   0  0  0  0  0  0  0  0  0  0  0  0
    8.1647   -2.2165   -2.5741 C   0  0  0  0  0  0  0  0  0  0  0  0
    7.9580   -1.0612   -3.5756 C   0  0  1  0  0  0  0  0  0  0  0  0
    8.8607   -1.2440   -4.8164 C   0  0  0  0  0  0  0  0  0  0  0  0
    6.5015   -0.9982   -4.1259 C   0  0  0  0  0  0  0  0  0  0  0  0
    8.3472    0.3134   -2.9615 C   0  0  0  0  0  0  0  0  0  0  0  0
    3.0022    3.6794    0.7358 H   0  0  0  0  0  0  0  0  0  0  0  0
    2.0017    2.3233    1.3448 H   0  0  0  0  0  0  0  0  0  0  0  0
    2.1769    2.5863   -0.4189 H   0  0  0  0  0  0  0  0  0  0  0  0
    7.0474    1.6387    0.8139 H   0  0  0  0  0  0  0  0  0  0  0  0
    2.1364   -0.1078   -0.5413 H   0  0  0  0  0  0  0  0  0  0  0  0
    2.3310   -0.6277    1.1346 H   0  0  0  0  0  0  0  0  0  0  0  0
    3.7155   -1.7610   -1.3645 H   0  0  0  0  0  0  0  0  0  0  0  0
    2.6950   -2.6189   -0.2096 H   0  0  0  0  0  0  0  0  0  0  0  0
    5.0650   -3.2307    0.1875 H   0  0  0  0  0  0  0  0  0  0  0  0
    4.4674   -2.2996    1.5737 H   0  0  0  0  0  0  0  0  0  0  0  0
    6.6221   -1.4200    1.1329 H   0  0  0  0  0  0  0  0  0  0  0  0
    6.2582   -0.7639   -1.6711 H   0  0  0  0  0  0  0  0  0  0  0  0
    7.4449   -3.2597    0.6871 H   0  0  0  0  0  0  0  0  0  0  0  0
    9.3467   -4.8661    0.2046 H   0  0  0  0  0  0  0  0  0  0  0  0
   10.2404   -4.9620   -2.1366 H   0  0  0  0  0  0  0  0  0  0  0  0
    9.4969   -3.4181   -3.8618 H   0  0  0  0  0  0  0  0  0  0  0  0
    8.6133   -2.1590   -5.3757 H   0  0  0  0  0  0  0  0  0  0  0  0
    9.9245   -1.2908   -4.5407 H   0  0  0  0  0  0  0  0  0  0  0  0
    8.7256   -0.3911   -5.5005 H   0  0  0  0  0  0  0  0  0  0  0  0
    6.2093   -1.9713   -4.5496 H   0  0  0  0  0  0  0  0  0  0  0  0
    6.4203   -0.2380   -4.9223 H   0  0  0  0  0  0  0  0  0  0  0  0
    5.7402   -0.7349   -3.3724 H   0  0  0  0  0  0  0  0  0  0  0  0
    9.3963    0.2966   -2.6275 H   0  0  0  0  0  0  0  0  0  0  0  0
    7.7345    0.5929   -2.0914 H   0  0  0  0  0  0  0  0  0  0  0  0
    8.2413    1.1209   -3.7073 H   0  0  0  0  0  0  0  0  0  0  0  0
  1  2  1  0
  1 22  1  0
  1 23  1  0
  1 24  1  0
  2  3  1  0
  2  6  1  0
  3  4  2  0
  4  5  1  0
  4 25  1  0
  5  6  2  0
  5 10  1  0
  6  7  1  0
  7  8  1  0
  7 26  1  0
  7 27  1  0
  8  9  1  0
  8 28  1  0
  8 29  1  0
  9 10  1  0
  9 30  1  0
  9 31  1  0
 10 11  1  0
 10 32  1  1
 11 12  1  0
 11 33  1  0
 12 13  2  0
 12 17  1  0
 13 14  1  0
 13 34  1  0
 14 15  2  0
 14 35  1  0
 15 16  1  0
 15 36  1  0
 16 17  2  0
 16 37  1  0
 17 18  1  0
 18 19  1  6
 18 20  1  0
 18 21  1  0
 19 38  1  0
 19 39  1  0
 19 40  1  0
 20 41  1  0
 20 42  1  0
 20 43  1  0
 21 44  1  0
 21 45  1  0
 21 46  1  0
M  END

