
     RDKit          3D

 25 25  0  0  0  0  0  0  0  0999 V2000
    5.4956    1.5867    0.9764 C   0  0  0  0  0  0  0  0  0  0  0  0
    4.3791    0.7596    1.5911 C   0  0  0  0  0  0  0  0  0  0  0  0
    4.7092   -0.6437    1.6292 O   0  0  0  0  0  0  0  0  0  0  0  0
    4.5155   -1.3544    0.5114 C   0  0  0  0  0  0  0  0  0  0  0  0
    4.0297   -0.9305   -0.5232 O   0  0  0  0  0  0  0  0  0  0  0  0
    4.9850   -2.8080    0.6395 C   0  0  1  0  0  0  0  0  0  0  0  0
    4.5577   -3.5328   -0.4754 O   0  0  0  0  0  0  0  0  0  0  0  0
    6.4804   -2.8415    0.8239 C   0  0  0  0  0  0  0  0  0  0  0  0
    7.0547   -3.0283    2.1193 C   0  0  0  0  0  0  0  0  0  0  0  0
    8.4554   -2.8815    2.2864 C   0  0  0  0  0  0  0  0  0  0  0  0
    9.2900   -2.6821    1.1562 C   0  0  0  0  0  0  0  0  0  0  0  0
   10.9911   -2.4913    1.3982 Cl  0  0  0  0  0  0  0  0  0  0  0  0
    8.7690   -2.5841   -0.1626 C   0  0  0  0  0  0  0  0  0  0  0  0
    7.3611   -2.6196   -0.2763 C   0  0  0  0  0  0  0  0  0  0  0  0
    6.8431   -2.3801   -1.4787 F   0  0  0  0  0  0  0  0  0  0  0  0
    5.2409    2.6572    1.0340 H   0  0  0  0  0  0  0  0  0  0  0  0
    5.6372    1.3264   -0.0830 H   0  0  0  0  0  0  0  0  0  0  0  0
    6.4441    1.4284    1.5127 H   0  0  0  0  0  0  0  0  0  0  0  0
    3.4390    0.8879    1.0339 H   0  0  0  0  0  0  0  0  0  0  0  0
    4.2117    1.0306    2.6433 H   0  0  0  0  0  0  0  0  0  0  0  0
    4.5346   -3.2288    1.5627 H   0  0  0  0  0  0  0  0  0  0  0  0
    4.2238   -2.8707   -1.1092 H   0  0  0  0  0  0  0  0  0  0  0  0
    6.4138   -3.2799    2.9648 H   0  0  0  0  0  0  0  0  0  0  0  0
    8.9090   -2.9072    3.2787 H   0  0  0  0  0  0  0  0  0  0  0  0
    9.4015   -2.5012   -1.0438 H   0  0  0  0  0  0  0  0  0  0  0  0
  1  2  1  0
  1 16  1  0
  1 17  1  0
  1 18  1  0
  2  3  1  0
  2 19  1  0
  2 20  1  0
  3  4  1  0
  4  5  2  0
  4  6  1  0
  6  7  1  0
  6  8  1  0
  6 21  1  1
  7 22  1  0
  8  9  2  0
  8 14  1  0
  9 10  1  0
  9 23  1  0
 10 11  2  0
 10 24  1  0
 11 12  1  0
 11 13  1  0
 13 14  2  0
 13 25  1  0
 14 15  1  0
M  END

