
     RDKit          3D

 73 77  0  0  0  0  0  0  0  0999 V2000
    2.9658    0.3148   -4.0678 C   0  0  0  0  0  0  0  0  0  0  0  0
    2.8850    1.0902   -2.7450 C   0  0  1  0  0  0  0  0  0  0  0  0
    2.0089    0.3881   -1.6969 C   0  0  0  0  0  0  0  0  0  0  0  0
    2.6622   -0.8036   -1.1625 N   0  0  0  0  0  0  0  0  0  0  0  0
    1.9836   -1.9829   -1.0135 C   0  0  0  0  0  0  0  0  0  0  0  0
    2.5238   -3.1117   -0.3351 C   0  0  0  0  0  0  0  0  0  0  0  0
    1.7104   -4.2340   -0.2986 C   0  0  0  0  0  0  0  0  0  0  0  0
    2.3102   -5.6718    0.5096 Cl  0  0  0  0  0  0  0  0  0  0  0  0
    0.5008   -4.3120   -0.8305 N   0  0  0  0  0  0  0  0  0  0  0  0
    0.0766   -3.1934   -1.4322 C   0  0  0  0  0  0  0  0  0  0  0  0
   -1.5258   -3.1574   -2.1731 S   0  0  0  0  0  0  0  0  0  0  0  0
   -2.1540   -4.8209   -1.7707 C   0  0  0  0  0  0  0  0  0  0  0  0
   -2.6069   -4.9653   -0.3100 C   0  0  0  0  0  0  0  0  0  0  0  0
   -3.2630   -4.0889    0.2308 O   0  0  0  0  0  0  0  0  0  0  0  0
   -2.3051   -6.1315    0.3265 N   0  0  0  0  0  0  0  0  0  0  0  0
   -2.7506   -6.3301    1.7074 C   0  0  0  0  0  0  0  0  0  0  0  0
   -2.3043   -7.7744    2.0183 C   0  0  2  0  0  0  0  0  0  0  0  0
   -2.1666   -8.0211    3.5210 C   0  0  0  0  0  0  0  0  0  0  0  0
   -0.9675   -7.7972    1.2488 C   0  0  0  0  0  0  0  0  0  0  0  0
   -1.4119   -7.2284   -0.1036 C   0  0  1  0  0  0  0  0  0  0  0  0
   -2.1698   -8.2914   -0.9237 C   0  0  0  0  0  0  0  0  0  0  0  0
   -3.0138   -9.3017   -0.0757 C   0  0  1  0  0  0  0  0  0  0  0  0
   -4.3577   -9.5567   -0.7859 C   0  0  0  0  0  0  0  0  0  0  0  0
   -2.2682  -10.6541    0.0031 C   0  0  0  0  0  0  0  0  0  0  0  0
   -3.3090   -8.7851    1.3758 C   0  0  0  0  0  0  0  0  0  0  0  0
    0.7519   -2.0553   -1.5466 N   0  0  0  0  0  0  0  0  0  0  0  0
    3.9744   -0.5361   -0.5903 C   0  0  0  0  0  0  0  0  0  0  0  0
    4.8774    0.1699   -1.6032 C   0  0  0  0  0  0  0  0  0  0  0  0
    4.2143    1.3468   -2.1587 N   0  0  0  0  0  0  0  0  0  0  0  0
    5.0103    2.4387   -2.4518 C   0  0  0  0  0  0  0  0  0  0  0  0
    6.2241    2.4074   -2.3121 O   0  0  0  0  0  0  0  0  0  0  0  0
    4.3482    3.7135   -2.9104 C   0  0  0  0  0  0  0  0  0  0  0  0
    3.2518    4.2849   -2.2455 C   0  0  0  0  0  0  0  0  0  0  0  0
    2.7449    5.5262   -2.6355 C   0  0  0  0  0  0  0  0  0  0  0  0
    3.3361    6.2001   -3.7082 C   0  0  0  0  0  0  0  0  0  0  0  0
    2.7002    7.7466   -4.2119 Cl  0  0  0  0  0  0  0  0  0  0  0  0
    4.4386    5.6553   -4.3752 C   0  0  0  0  0  0  0  0  0  0  0  0
    4.9467    4.4245   -3.9621 C   0  0  0  0  0  0  0  0  0  0  0  0
    1.9632    0.2280   -4.5143 H   0  0  0  0  0  0  0  0  0  0  0  0
    3.3547   -0.7052   -3.9303 H   0  0  0  0  0  0  0  0  0  0  0  0
    3.6154    0.8397   -4.7850 H   0  0  0  0  0  0  0  0  0  0  0  0
    2.4168    2.0595   -2.9525 H   0  0  0  0  0  0  0  0  0  0  0  0
    1.0478    0.0892   -2.1283 H   0  0  0  0  0  0  0  0  0  0  0  0
    1.8119    1.0924   -0.8656 H   0  0  0  0  0  0  0  0  0  0  0  0
    3.4993   -3.1264    0.1417 H   0  0  0  0  0  0  0  0  0  0  0  0
   -1.4231   -5.5689   -2.0942 H   0  0  0  0  0  0  0  0  0  0  0  0
   -3.0516   -4.9163   -2.4026 H   0  0  0  0  0  0  0  0  0  0  0  0
   -3.8360   -6.1724    1.7999 H   0  0  0  0  0  0  0  0  0  0  0  0
   -2.2607   -5.5994    2.3763 H   0  0  0  0  0  0  0  0  0  0  0  0
   -1.4827   -7.2924    3.9860 H   0  0  0  0  0  0  0  0  0  0  0  0
   -1.7729   -9.0307    3.7212 H   0  0  0  0  0  0  0  0  0  0  0  0
   -3.1420   -7.9386    4.0295 H   0  0  0  0  0  0  0  0  0  0  0  0
   -0.5096   -8.7925    1.1704 H   0  0  0  0  0  0  0  0  0  0  0  0
   -0.2359   -7.1246    1.7236 H   0  0  0  0  0  0  0  0  0  0  0  0
   -0.5685   -6.8163   -0.6726 H   0  0  0  0  0  0  0  0  0  0  0  0
   -1.4407   -8.8543   -1.5308 H   0  0  0  0  0  0  0  0  0  0  0  0
   -2.8195   -7.7681   -1.6431 H   0  0  0  0  0  0  0  0  0  0  0  0
   -4.2011   -9.9639   -1.7988 H   0  0  0  0  0  0  0  0  0  0  0  0
   -4.9386   -8.6252   -0.8832 H   0  0  0  0  0  0  0  0  0  0  0  0
   -4.9733  -10.2808   -0.2265 H   0  0  0  0  0  0  0  0  0  0  0  0
   -2.0846  -11.0599   -1.0054 H   0  0  0  0  0  0  0  0  0  0  0  0
   -2.8637  -11.3972    0.5587 H   0  0  0  0  0  0  0  0  0  0  0  0
   -1.2932  -10.5714    0.5069 H   0  0  0  0  0  0  0  0  0  0  0  0
   -3.3871   -9.6702    2.0283 H   0  0  0  0  0  0  0  0  0  0  0  0
   -4.3094   -8.3227    1.3975 H   0  0  0  0  0  0  0  0  0  0  0  0
    4.4586   -1.4695   -0.2828 H   0  0  0  0  0  0  0  0  0  0  0  0
    3.8650    0.0983    0.3112 H   0  0  0  0  0  0  0  0  0  0  0  0
    5.1603   -0.5375   -2.4043 H   0  0  0  0  0  0  0  0  0  0  0  0
    5.8083    0.5009   -1.1267 H   0  0  0  0  0  0  0  0  0  0  0  0
    2.8013    3.7713   -1.3929 H   0  0  0  0  0  0  0  0  0  0  0  0
    1.9005    5.9754   -2.1102 H   0  0  0  0  0  0  0  0  0  0  0  0
    4.8961    6.2012   -5.2018 H   0  0  0  0  0  0  0  0  0  0  0  0
    5.8275    4.0044   -4.4521 H   0  0  0  0  0  0  0  0  0  0  0  0
  1  2  1  0
  1 39  1  0
  1 40  1  0
  1 41  1  0
  2  3  1  0
  2 29  1  0
  2 42  1  6
  3  4  1  0
  3 43  1  0
  3 44  1  0
  4  5  1  0
  4 27  1  0
  5  6  2  0
  5 26  1  0
  6  7  1  0
  6 45  1  0
  7  8  1  0
  7  9  2  0
  9 10  1  0
 10 11  1  0
 10 26  2  0
 11 12  1  0
 12 13  1  0
 12 46  1  0
 12 47  1  0
 13 14  2  0
 13 15  1  0
 15 16  1  0
 15 20  1  0
 16 17  1  0
 16 48  1  0
 16 49  1  0
 17 18  1  1
 17 19  1  0
 17 25  1  0
 18 50  1  0
 18 51  1  0
 18 52  1  0
 19 20  1  0
 19 53  1  0
 19 54  1  0
 20 21  1  0
 20 55  1  6
 21 22  1  0
 21 56  1  0
 21 57  1  0
 22 23  1  6
 22 24  1  0
 22 25  1  0
 23 58  1  0
 23 59  1  0
 23 60  1  0
 24 61  1  0
 24 62  1  0
 24 63  1  0
 25 64  1  0
 25 65  1  0
 27 28  1  0
 27 66  1  0
 27 67  1  0
 28 29  1  0
 28 68  1  0
 28 69  1  0
 29 30  1  0
 30 31  2  0
 30 32  1  0
 32 33  2  0
 32 38  1  0
 33 34  1  0
 33 70  1  0
 34 35  2  0
 34 71  1  0
 35 36  1  0
 35 37  1  0
 37 38  2  0
 37 72  1  0
 38 73  1  0
M  END

