
     RDKit          3D

 26 27  0  0  0  0  0  0  0  0999 V2000
    1.0533    0.0745   -1.0478 C   0  0  0  0  0  0  0  0  0  0  0  0
    2.4154    0.3000   -0.4681 C   0  0  0  0  0  0  0  0  0  0  0  0
    3.1193    1.3831   -0.8097 N   0  0  0  0  0  0  0  0  0  0  0  0
    4.3827    1.4259   -0.3683 C   0  0  0  0  0  0  0  0  0  0  0  0
    5.0805    2.7768   -0.4606 C   0  0  0  0  0  0  0  0  0  0  0  0
    5.2918    3.3246    0.8631 N   0  0  0  0  0  0  0  0  0  0  0  0
    5.6571    4.6391    1.3530 C   0  0  0  0  0  0  0  0  0  0  0  0
    5.5530    4.1047    2.8050 C   0  0  0  0  0  0  0  0  0  0  0  0
    5.2270    2.7222    2.1849 C   0  0  0  0  0  0  0  0  0  0  0  0
    5.1152    0.4618    0.1658 N   0  0  0  0  0  0  0  0  0  0  0  0
    4.4593   -0.7148    0.4695 C   0  0  0  0  0  0  0  0  0  0  0  0
    5.0327   -1.7824    0.6635 O   0  0  0  0  0  0  0  0  0  0  0  0
    2.9509   -0.5707    0.6050 C   0  0  1  0  0  0  0  0  0  0  0  0
    2.7201    0.0924    1.8922 F   0  0  0  0  0  0  0  0  0  0  0  0
    0.8400    0.8370   -1.8098 H   0  0  0  0  0  0  0  0  0  0  0  0
    0.2688    0.1269   -0.2697 H   0  0  0  0  0  0  0  0  0  0  0  0
    0.9647   -0.9232   -1.5142 H   0  0  0  0  0  0  0  0  0  0  0  0
    4.4799    3.5036   -1.0277 H   0  0  0  0  0  0  0  0  0  0  0  0
    6.0750    2.7026   -0.9311 H   0  0  0  0  0  0  0  0  0  0  0  0
    4.9358    5.4128    1.0394 H   0  0  0  0  0  0  0  0  0  0  0  0
    6.6572    4.9466    0.9994 H   0  0  0  0  0  0  0  0  0  0  0  0
    4.7339    4.5458    3.3862 H   0  0  0  0  0  0  0  0  0  0  0  0
    6.4826    4.1498    3.3847 H   0  0  0  0  0  0  0  0  0  0  0  0
    4.2530    2.2485    2.3788 H   0  0  0  0  0  0  0  0  0  0  0  0
    5.9823    1.9253    2.2722 H   0  0  0  0  0  0  0  0  0  0  0  0
    2.4681   -1.5527    0.6893 H   0  0  0  0  0  0  0  0  0  0  0  0
  1  2  1  0
  1 15  1  0
  1 16  1  0
  1 17  1  0
  2  3  2  0
  2 13  1  0
  3  4  1  0
  4  5  1  0
  4 10  2  0
  5  6  1  0
  5 18  1  0
  5 19  1  0
  6  7  1  0
  6  9  1  0
  7  8  1  0
  7 20  1  0
  7 21  1  0
  8  9  1  0
  8 22  1  0
  8 23  1  0
  9 24  1  0
  9 25  1  0
 10 11  1  0
 11 12  2  0
 11 13  1  0
 13 14  1  0
 13 26  1  6
M  END

