
     RDKit          3D

 87 94  0  0  0  0  0  0  0  0999 V2000
   -0.6102    1.2995    1.5186 C   0  0  0  0  0  0  0  0  0  0  0  0
   -0.0755   -0.0242    2.1390 C   0  0  1  0  0  0  0  0  0  0  0  0
   -1.1439   -1.1443    1.9774 C   0  0  0  0  0  0  0  0  0  0  0  0
    1.1911   -0.4388    1.4007 C   0  0  0  0  0  0  0  0  0  0  0  0
    1.1488   -0.6906    0.0261 C   0  0  0  0  0  0  0  0  0  0  0  0
    2.2834   -1.0708   -0.6923 C   0  0  0  0  0  0  0  0  0  0  0  0
    3.5149   -1.2101   -0.0325 C   0  0  0  0  0  0  0  0  0  0  0  0
    3.5999   -0.9704    1.3253 C   0  0  0  0  0  0  0  0  0  0  0  0
    2.4459   -0.5826    2.0627 C   0  0  0  0  0  0  0  0  0  0  0  0
    2.5629   -0.3485    3.4244 N   0  0  0  0  0  0  0  0  0  0  0  0
    3.8714   -0.5030    4.0587 C   0  0  0  0  0  0  0  0  0  0  0  0
    4.7430    0.5912    4.1300 C   0  0  0  0  0  0  0  0  0  0  0  0
    5.9881    0.4351    4.7276 C   0  0  0  0  0  0  0  0  0  0  0  0
    6.4033   -0.8057    5.2718 C   0  0  0  0  0  0  0  0  0  0  0  0
    7.7574   -0.8642    5.8856 C   0  0  0  0  0  0  0  0  0  0  0  0
    8.4551    0.2158    5.8522 O   0  0  0  0  0  0  0  0  0  0  0  0
    8.2390   -2.0567    6.4787 C   0  0  0  0  0  0  0  0  0  0  0  0
    9.5172   -2.1027    7.0565 C   0  0  0  0  0  0  0  0  0  0  0  0
   10.2842   -1.0032    7.0356 O   0  0  0  0  0  0  0  0  0  0  0  0
   10.1028   -3.2707    7.6957 C   0  0  0  0  0  0  0  0  0  0  0  0
   11.4149   -3.1886    8.2325 C   0  0  0  0  0  0  0  0  0  0  0  0
   12.0118   -4.2791    8.8557 C   0  0  0  0  0  0  0  0  0  0  0  0
   11.3297   -5.4998    8.9735 C   0  0  0  0  0  0  0  0  0  0  0  0
   11.9444   -6.6270    9.6227 N   0  0  0  0  0  0  0  0  0  0  0  0
   11.7686   -6.8048   11.0030 C   0  0  0  0  0  0  0  0  0  0  0  0
   10.9982   -5.8742   11.7377 C   0  0  0  0  0  0  0  0  0  0  0  0
   10.8039   -6.0204   13.1073 C   0  0  0  0  0  0  0  0  0  0  0  0
   11.3727   -7.1005   13.7857 C   0  0  0  0  0  0  0  0  0  0  0  0
   12.1331   -8.0184   13.0620 C   0  0  0  0  0  0  0  0  0  0  0  0
   12.3503   -7.9030   11.6801 C   0  0  0  0  0  0  0  0  0  0  0  0
   13.2102   -8.9542   10.9639 C   0  0  1  0  0  0  0  0  0  0  0  0
   14.6371   -8.9414   11.5752 C   0  0  0  0  0  0  0  0  0  0  0  0
   12.5780  -10.3563   11.1706 C   0  0  0  0  0  0  0  0  0  0  0  0
   13.3079   -8.6619    9.4599 C   0  0  0  0  0  0  0  0  0  0  0  0
   14.0412   -9.5310    8.6371 C   0  0  0  0  0  0  0  0  0  0  0  0
   14.1837   -9.3300    7.2645 C   0  0  0  0  0  0  0  0  0  0  0  0
   13.5723   -8.2164    6.6844 C   0  0  0  0  0  0  0  0  0  0  0  0
   12.8386   -7.3332    7.4695 C   0  0  0  0  0  0  0  0  0  0  0  0
   12.6923   -7.5368    8.8610 C   0  0  0  0  0  0  0  0  0  0  0  0
   10.0306   -5.6009    8.4474 C   0  0  0  0  0  0  0  0  0  0  0  0
    9.4299   -4.5145    7.8231 C   0  0  0  0  0  0  0  0  0  0  0  0
    5.4974   -1.8883    5.1832 C   0  0  0  0  0  0  0  0  0  0  0  0
    4.2476   -1.7458    4.5858 C   0  0  0  0  0  0  0  0  0  0  0  0
    1.4796    0.0321    4.2017 C   0  0  0  0  0  0  0  0  0  0  0  0
    1.6715    0.2571    5.5940 C   0  0  0  0  0  0  0  0  0  0  0  0
    0.6109    0.6352    6.3944 C   0  0  0  0  0  0  0  0  0  0  0  0
   -0.6657    0.7996    5.8334 C   0  0  0  0  0  0  0  0  0  0  0  0
   -0.8589    0.5814    4.4684 C   0  0  0  0  0  0  0  0  0  0  0  0
    0.1869    0.1983    3.6233 C   0  0  0  0  0  0  0  0  0  0  0  0
   -0.8334    1.1676    0.4503 H   0  0  0  0  0  0  0  0  0  0  0  0
    0.1284    2.1086    1.6180 H   0  0  0  0  0  0  0  0  0  0  0  0
   -1.5369    1.6171    2.0173 H   0  0  0  0  0  0  0  0  0  0  0  0
   -1.3729   -1.3158    0.9160 H   0  0  0  0  0  0  0  0  0  0  0  0
   -2.0811   -0.8656    2.4798 H   0  0  0  0  0  0  0  0  0  0  0  0
   -0.7906   -2.0920    2.4100 H   0  0  0  0  0  0  0  0  0  0  0  0
    0.2029   -0.5881   -0.5074 H   0  0  0  0  0  0  0  0  0  0  0  0
    2.2088   -1.2584   -1.7652 H   0  0  0  0  0  0  0  0  0  0  0  0
    4.4079   -1.5067   -0.5854 H   0  0  0  0  0  0  0  0  0  0  0  0
    4.5488   -1.0745    1.8446 H   0  0  0  0  0  0  0  0  0  0  0  0
    4.4458    1.5592    3.7172 H   0  0  0  0  0  0  0  0  0  0  0  0
    6.6939    1.2637    4.7991 H   0  0  0  0  0  0  0  0  0  0  0  0
    7.6235   -2.9523    6.4966 H   0  0  0  0  0  0  0  0  0  0  0  0
    9.7123   -0.2993    6.5615 H   0  0  0  0  0  0  0  0  0  0  0  0
   11.9485   -2.2423    8.1449 H   0  0  0  0  0  0  0  0  0  0  0  0
   13.0226   -4.1938    9.2624 H   0  0  0  0  0  0  0  0  0  0  0  0
   10.5519   -5.0276   11.2188 H   0  0  0  0  0  0  0  0  0  0  0  0
   10.2035   -5.2808   13.6438 H   0  0  0  0  0  0  0  0  0  0  0  0
   11.2297   -7.2278   14.8613 H   0  0  0  0  0  0  0  0  0  0  0  0
   12.5790   -8.8610   13.5956 H   0  0  0  0  0  0  0  0  0  0  0  0
   14.6098   -9.1602   12.6538 H   0  0  0  0  0  0  0  0  0  0  0  0
   15.1092   -7.9563   11.4405 H   0  0  0  0  0  0  0  0  0  0  0  0
   15.2818   -9.6953   11.0973 H   0  0  0  0  0  0  0  0  0  0  0  0
   12.5048  -10.6071   12.2398 H   0  0  0  0  0  0  0  0  0  0  0  0
   13.1799  -11.1408   10.6869 H   0  0  0  0  0  0  0  0  0  0  0  0
   11.5646  -10.3926   10.7425 H   0  0  0  0  0  0  0  0  0  0  0  0
   14.5233  -10.4009    9.0893 H   0  0  0  0  0  0  0  0  0  0  0  0
   14.7644  -10.0315    6.6609 H   0  0  0  0  0  0  0  0  0  0  0  0
   13.6651   -8.0272    5.6116 H   0  0  0  0  0  0  0  0  0  0  0  0
   12.3682   -6.4669    7.0074 H   0  0  0  0  0  0  0  0  0  0  0  0
    9.4939   -6.5487    8.5362 H   0  0  0  0  0  0  0  0  0  0  0  0
    8.4189   -4.6307    7.4294 H   0  0  0  0  0  0  0  0  0  0  0  0
    5.7708   -2.8647    5.5846 H   0  0  0  0  0  0  0  0  0  0  0  0
    3.5663   -2.5985    4.5274 H   0  0  0  0  0  0  0  0  0  0  0  0
    2.6637    0.1280    6.0181 H   0  0  0  0  0  0  0  0  0  0  0  0
    0.7722    0.8047    7.4604 H   0  0  0  0  0  0  0  0  0  0  0  0
   -1.5084    1.0982    6.4599 H   0  0  0  0  0  0  0  0  0  0  0  0
   -1.8588    0.7159    4.0539 H   0  0  0  0  0  0  0  0  0  0  0  0
  2  1  1  6
  1 50  1  0
  1 51  1  0
  1 52  1  0
  2  3  1  0
  2  4  1  0
  2 49  1  0
  3 53  1  0
  3 54  1  0
  3 55  1  0
  4  5  1  0
  4  9  2  0
  5  6  2  0
  5 56  1  0
  6  7  1  0
  6 57  1  0
  7  8  2  0
  7 58  1  0
  8  9  1  0
  8 59  1  0
  9 10  1  0
 10 11  1  0
 10 44  1  0
 11 12  2  0
 11 43  1  0
 12 13  1  0
 12 60  1  0
 13 14  2  0
 13 61  1  0
 14 15  1  0
 14 42  1  0
 15 16  2  0
 15 17  1  0
 17 18  2  0
 17 62  1  0
 18 19  1  0
 18 20  1  0
 19 63  1  0
 20 21  2  0
 20 41  1  0
 21 22  1  0
 21 64  1  0
 22 23  2  0
 22 65  1  0
 23 24  1  0
 23 40  1  0
 24 25  1  0
 24 39  1  0
 25 26  2  0
 25 30  1  0
 26 27  1  0
 26 66  1  0
 27 28  2  0
 27 67  1  0
 28 29  1  0
 28 68  1  0
 29 30  2  0
 29 69  1  0
 30 31  1  0
 31 32  1  1
 31 33  1  0
 31 34  1  0
 32 70  1  0
 32 71  1  0
 32 72  1  0
 33 73  1  0
 33 74  1  0
 33 75  1  0
 34 35  2  0
 34 39  1  0
 35 36  1  0
 35 76  1  0
 36 37  2  0
 36 77  1  0
 37 38  1  0
 37 78  1  0
 38 39  2  0
 38 79  1  0
 40 41  2  0
 40 80  1  0
 41 81  1  0
 42 43  2  0
 42 82  1  0
 43 83  1  0
 44 45  1  0
 44 49  2  0
 45 46  2  0
 45 84  1  0
 46 47  1  0
 46 85  1  0
 47 48  2  0
 47 86  1  0
 48 49  1  0
 48 87  1  0
M  END

