
     RDKit          3D

 45 47  0  0  0  0  0  0  0  0999 V2000
    3.7384    0.4433    1.8967 C   0  0  0  0  0  0  0  0  0  0  0  0
    2.9390   -0.1427    0.7196 C   0  0  1  0  0  0  0  0  0  0  0  0
    3.0624    0.7412   -0.5340 C   0  0  0  0  0  0  0  0  0  0  0  0
    3.3183   -1.5903    0.4369 C   0  0  0  0  0  0  0  0  0  0  0  0
    2.3733   -2.6230    0.5754 C   0  0  0  0  0  0  0  0  0  0  0  0
    2.7004   -3.9528    0.3237 C   0  0  0  0  0  0  0  0  0  0  0  0
    4.0028   -4.3034   -0.0815 C   0  0  0  0  0  0  0  0  0  0  0  0
    4.3893   -5.6884   -0.3520 C   0  0  0  0  0  0  0  0  0  0  0  0
    3.5682   -6.6717   -0.2325 N   0  0  0  0  0  0  0  0  0  0  0  0
    3.9907   -7.9113   -0.4907 N   0  0  0  0  0  0  0  0  0  0  0  0
    3.1531   -8.9958   -0.3735 C   0  0  0  0  0  0  0  0  0  0  0  0
    3.5405  -10.2120   -0.6160 N   0  0  0  0  0  0  0  0  0  0  0  0
    2.4994  -11.0960   -0.4218 C   0  0  0  0  0  0  0  0  0  0  0  0
    1.3087  -10.5511   -0.0218 C   0  0  0  0  0  0  0  0  0  0  0  0
    1.4767   -8.8059    0.1197 S   0  0  0  0  0  0  0  0  0  0  0  0
    0.0464  -11.3151    0.2504 C   0  0  0  0  0  0  0  0  0  0  0  0
    0.3465  -12.8226    0.4029 C   0  0  1  0  0  0  0  0  0  0  0  0
    0.8558  -12.9577    1.3760 H   0  0  0  0  0  0  0  0  0  0  0  0
   -0.9433  -13.6458    0.4207 C   0  0  0  0  0  0  0  0  0  0  0  0
    1.3193  -13.2921   -0.6944 C   0  0  0  0  0  0  0  0  0  0  0  0
    2.6759  -12.5752   -0.6261 C   0  0  0  0  0  0  0  0  0  0  0  0
    4.9524   -3.2747   -0.2235 C   0  0  0  0  0  0  0  0  0  0  0  0
    4.6154   -1.9459    0.0314 C   0  0  0  0  0  0  0  0  0  0  0  0
    3.3979    1.4658    2.1289 H   0  0  0  0  0  0  0  0  0  0  0  0
    4.8151    0.4971    1.6653 H   0  0  0  0  0  0  0  0  0  0  0  0
    3.6222   -0.1695    2.8042 H   0  0  0  0  0  0  0  0  0  0  0  0
    1.8754   -0.1463    1.0152 H   0  0  0  0  0  0  0  0  0  0  0  0
    4.1069    0.8031   -0.8815 H   0  0  0  0  0  0  0  0  0  0  0  0
    2.7218    1.7681   -0.3225 H   0  0  0  0  0  0  0  0  0  0  0  0
    2.4572    0.3455   -1.3645 H   0  0  0  0  0  0  0  0  0  0  0  0
    1.3553   -2.3742    0.8900 H   0  0  0  0  0  0  0  0  0  0  0  0
    1.9534   -4.7407    0.4377 H   0  0  0  0  0  0  0  0  0  0  0  0
    5.4356   -5.8628   -0.6653 H   0  0  0  0  0  0  0  0  0  0  0  0
    4.9503   -8.1093   -0.7835 H   0  0  0  0  0  0  0  0  0  0  0  0
   -0.6793  -11.1674   -0.5737 H   0  0  0  0  0  0  0  0  0  0  0  0
   -0.4536  -10.9419    1.1614 H   0  0  0  0  0  0  0  0  0  0  0  0
   -1.4731  -13.5727   -0.5444 H   0  0  0  0  0  0  0  0  0  0  0  0
   -1.6334  -13.2971    1.2064 H   0  0  0  0  0  0  0  0  0  0  0  0
   -0.7353  -14.7119    0.6067 H   0  0  0  0  0  0  0  0  0  0  0  0
    0.8542  -13.1082   -1.6807 H   0  0  0  0  0  0  0  0  0  0  0  0
    1.4675  -14.3823   -0.6200 H   0  0  0  0  0  0  0  0  0  0  0  0
    3.2610  -12.7496   -1.5443 H   0  0  0  0  0  0  0  0  0  0  0  0
    3.2860  -12.9856    0.2003 H   0  0  0  0  0  0  0  0  0  0  0  0
    5.9710   -3.5226   -0.5373 H   0  0  0  0  0  0  0  0  0  0  0  0
    5.3805   -1.1744   -0.0889 H   0  0  0  0  0  0  0  0  0  0  0  0
  1  2  1  0
  1 24  1  0
  1 25  1  0
  1 26  1  0
  2  3  1  0
  2  4  1  0
  2 27  1  1
  3 28  1  0
  3 29  1  0
  3 30  1  0
  4  5  2  0
  4 23  1  0
  5  6  1  0
  5 31  1  0
  6  7  2  0
  6 32  1  0
  7  8  1  0
  7 22  1  0
  8  9  2  0
  8 33  1  0
  9 10  1  0
 10 11  1  0
 10 34  1  0
 11 12  2  0
 11 15  1  0
 12 13  1  0
 13 14  2  0
 13 21  1  0
 14 15  1  0
 14 16  1  0
 16 17  1  0
 16 35  1  0
 16 36  1  0
 17 18  1  1
 17 19  1  0
 17 20  1  0
 19 37  1  0
 19 38  1  0
 19 39  1  0
 20 21  1  0
 20 40  1  0
 20 41  1  0
 21 42  1  0
 21 43  1  0
 22 23  2  0
 22 44  1  0
 23 45  1  0
M  END

