
     RDKit          3D

 59 61  0  0  0  0  0  0  0  0999 V2000
    2.5090   -0.0762   -3.6595 C   0  0  0  0  0  0  0  0  0  0  0  0
    3.1373   -1.4655   -3.5623 C   0  0  0  0  0  0  0  0  0  0  0  0
    2.6702   -2.2210   -2.3978 N   0  0  0  0  0  0  0  0  0  0  0  0
    2.2788   -3.5894   -2.5532 C   0  0  0  0  0  0  0  0  0  0  0  0
    3.5478   -4.5373   -2.3294 C   0  0  0  0  0  0  0  0  0  0  0  0
    4.1077   -4.2502   -1.0477 N   0  0  0  0  0  0  0  0  0  0  0  0
    3.6960   -4.9584    0.1817 C   0  0  0  0  0  0  0  0  0  0  0  0
    3.0840   -6.3389   -0.0245 C   0  0  0  0  0  0  0  0  0  0  0  0
    4.0490   -7.4227   -0.5535 C   0  0  0  0  0  0  0  0  0  0  0  0
    3.3948   -8.5759   -1.1042 N   0  0  0  0  0  0  0  0  0  0  0  0
    2.5717   -8.4239   -2.2266 C   0  0  0  0  0  0  0  0  0  0  0  0
    2.6241   -7.3687   -2.9367 O   0  0  0  0  0  0  0  0  0  0  0  0
    1.6879   -9.5428   -2.4647 C   0  0  0  0  0  0  0  0  0  0  0  0
    1.6174  -10.5390   -1.6996 O   0  0  0  0  0  0  0  0  0  0  0  0
    0.9136   -9.3722   -3.6323 N   0  0  0  0  0  0  0  0  0  0  0  0
   -0.0367  -10.1932   -4.1918 C   0  0  0  0  0  0  0  0  0  0  0  0
   -0.3937  -11.4519   -3.6429 C   0  0  0  0  0  0  0  0  0  0  0  0
   -1.3645  -12.2300   -4.2657 C   0  0  0  0  0  0  0  0  0  0  0  0
   -2.0104  -11.8062   -5.4355 C   0  0  0  0  0  0  0  0  0  0  0  0
   -1.6716  -10.5625   -5.9876 C   0  0  0  0  0  0  0  0  0  0  0  0
   -2.3551  -10.0709   -7.2447 C   0  0  0  0  0  0  0  0  0  0  0  0
   -1.4711  -10.0068   -8.4113 N   0  0  0  0  0  0  0  0  0  0  0  0
   -0.4979  -10.8854   -8.7702 C   0  0  0  0  0  0  0  0  0  0  0  0
   -0.0110  -10.4617   -9.9974 C   0  0  0  0  0  0  0  0  0  0  0  0
   -0.7726   -9.3065  -10.2915 C   0  0  0  0  0  0  0  0  0  0  0  0
   -1.6536   -9.0430   -9.3283 N   0  0  0  0  0  0  0  0  0  0  0  0
   -0.6987   -9.7719   -5.3686 C   0  0  0  0  0  0  0  0  0  0  0  0
    4.5185   -2.8963   -0.8941 C   0  0  0  0  0  0  0  0  0  0  0  0
    3.2649   -1.9326   -1.1313 C   0  0  0  0  0  0  0  0  0  0  0  0
    2.8928    0.4431   -4.5498 H   0  0  0  0  0  0  0  0  0  0  0  0
    2.7482    0.5445   -2.7820 H   0  0  0  0  0  0  0  0  0  0  0  0
    1.4143   -0.1452   -3.7431 H   0  0  0  0  0  0  0  0  0  0  0  0
    4.2410   -1.3807   -3.5298 H   0  0  0  0  0  0  0  0  0  0  0  0
    2.8920   -2.0505   -4.4596 H   0  0  0  0  0  0  0  0  0  0  0  0
    1.8717   -3.7761   -3.5530 H   0  0  0  0  0  0  0  0  0  0  0  0
    1.5247   -3.8609   -1.8016 H   0  0  0  0  0  0  0  0  0  0  0  0
    4.2772   -4.2736   -3.1111 H   0  0  0  0  0  0  0  0  0  0  0  0
    3.2335   -5.5879   -2.4636 H   0  0  0  0  0  0  0  0  0  0  0  0
    2.9873   -4.3068    0.7320 H   0  0  0  0  0  0  0  0  0  0  0  0
    4.5980   -5.0240    0.8142 H   0  0  0  0  0  0  0  0  0  0  0  0
    2.2262   -6.2730   -0.7088 H   0  0  0  0  0  0  0  0  0  0  0  0
    2.6689   -6.6540    0.9474 H   0  0  0  0  0  0  0  0  0  0  0  0
    4.7236   -7.7438    0.2581 H   0  0  0  0  0  0  0  0  0  0  0  0
    4.6969   -6.9903   -1.3333 H   0  0  0  0  0  0  0  0  0  0  0  0
    3.1025   -9.3399   -0.5017 H   0  0  0  0  0  0  0  0  0  0  0  0
    1.1243   -8.4975   -4.1021 H   0  0  0  0  0  0  0  0  0  0  0  0
    0.1125  -11.7743   -2.7346 H   0  0  0  0  0  0  0  0  0  0  0  0
   -1.6257  -13.1978   -3.8272 H   0  0  0  0  0  0  0  0  0  0  0  0
   -2.7719  -12.4306   -5.9101 H   0  0  0  0  0  0  0  0  0  0  0  0
   -2.7390   -9.0481   -7.1225 H   0  0  0  0  0  0  0  0  0  0  0  0
   -3.2155  -10.7186   -7.4834 H   0  0  0  0  0  0  0  0  0  0  0  0
   -0.2241  -11.7182   -8.1268 H   0  0  0  0  0  0  0  0  0  0  0  0
    0.7848  -10.9155  -10.5838 H   0  0  0  0  0  0  0  0  0  0  0  0
   -0.7087   -8.6532  -11.1624 H   0  0  0  0  0  0  0  0  0  0  0  0
   -0.4356   -8.8035   -5.8064 H   0  0  0  0  0  0  0  0  0  0  0  0
    5.2800   -2.6316   -1.6450 H   0  0  0  0  0  0  0  0  0  0  0  0
    4.9249   -2.7114    0.1087 H   0  0  0  0  0  0  0  0  0  0  0  0
    3.5985   -0.8881   -1.0780 H   0  0  0  0  0  0  0  0  0  0  0  0
    2.5475   -2.1192   -0.3176 H   0  0  0  0  0  0  0  0  0  0  0  0
  1  2  1  0
  1 30  1  0
  1 31  1  0
  1 32  1  0
  2  3  1  0
  2 33  1  0
  2 34  1  0
  3  4  1  0
  3 29  1  0
  4  5  1  0
  4 35  1  0
  4 36  1  0
  5  6  1  0
  5 37  1  0
  5 38  1  0
  6  7  1  0
  6 28  1  0
  7  8  1  0
  7 39  1  0
  7 40  1  0
  8  9  1  0
  8 41  1  0
  8 42  1  0
  9 10  1  0
  9 43  1  0
  9 44  1  0
 10 11  1  0
 10 45  1  0
 11 12  2  0
 11 13  1  0
 13 14  2  0
 13 15  1  0
 15 16  1  0
 15 46  1  0
 16 17  2  0
 16 27  1  0
 17 18  1  0
 17 47  1  0
 18 19  2  0
 18 48  1  0
 19 20  1  0
 19 49  1  0
 20 21  1  0
 20 27  2  0
 21 22  1  0
 21 50  1  0
 21 51  1  0
 22 23  1  0
 22 26  1  0
 23 24  2  0
 23 52  1  0
 24 25  1  0
 24 53  1  0
 25 26  2  0
 25 54  1  0
 27 55  1  0
 28 29  1  0
 28 56  1  0
 28 57  1  0
 29 58  1  0
 29 59  1  0
M  END

