
     RDKit          3D

 40 41  0  0  0  0  0  0  0  0999 V2000
    3.0515    0.7448   -3.8877 C   0  0  0  0  0  0  0  0  0  0  0  0
    4.0670    0.0169   -3.0595 C   0  0  0  0  0  0  0  0  0  0  0  0
    5.2682   -0.5230   -3.4537 C   0  0  0  0  0  0  0  0  0  0  0  0
    5.9960   -1.1413   -2.3918 C   0  0  0  0  0  0  0  0  0  0  0  0
    5.3516   -1.0703   -1.1812 C   0  0  0  0  0  0  0  0  0  0  0  0
    5.7893   -1.6554    0.1357 C   0  0  0  0  0  0  0  0  0  0  0  0
    5.3548   -3.0293    0.3524 N   0  0  0  0  0  0  0  0  0  0  0  0
    6.1315   -4.0910    0.0740 C   0  0  0  0  0  0  0  0  0  0  0  0
    7.2923   -4.0603   -0.3176 O   0  0  0  0  0  0  0  0  0  0  0  0
    5.3983   -5.4310    0.3201 C   0  0  0  0  0  0  0  0  0  0  0  0
    4.2334   -5.4665    0.6877 O   0  0  0  0  0  0  0  0  0  0  0  0
    6.2245   -6.4765    0.0703 N   0  0  0  0  0  0  0  0  0  0  0  0
    5.9768   -7.8544    0.1701 C   0  0  0  0  0  0  0  0  0  0  0  0
    4.7413   -8.3803    0.5855 C   0  0  0  0  0  0  0  0  0  0  0  0
    4.5749   -9.7647    0.6648 C   0  0  0  0  0  0  0  0  0  0  0  0
    5.6056  -10.6607    0.3380 C   0  0  0  0  0  0  0  0  0  0  0  0
    5.3980  -12.1544    0.3932 C   0  0  0  0  0  0  0  0  0  0  0  0
    4.9464  -12.8547   -0.9043 C   0  0  0  0  0  0  0  0  0  0  0  0
    4.3769  -12.0549   -1.8482 N   0  0  0  0  0  0  0  0  0  0  0  0
    5.0652  -14.0575   -1.0380 O   0  0  0  0  0  0  0  0  0  0  0  0
    6.8336  -10.1155   -0.0747 C   0  0  0  0  0  0  0  0  0  0  0  0
    7.0208   -8.7384   -0.1576 C   0  0  0  0  0  0  0  0  0  0  0  0
    3.8268   -0.2373   -1.3499 S   0  0  0  0  0  0  0  0  0  0  0  0
    3.3959    0.8068   -4.9306 H   0  0  0  0  0  0  0  0  0  0  0  0
    2.8843    1.7733   -3.5263 H   0  0  0  0  0  0  0  0  0  0  0  0
    2.0740    0.2341   -3.8855 H   0  0  0  0  0  0  0  0  0  0  0  0
    5.6237   -0.4724   -4.4849 H   0  0  0  0  0  0  0  0  0  0  0  0
    6.9640   -1.6315   -2.5122 H   0  0  0  0  0  0  0  0  0  0  0  0
    5.4303   -1.0393    0.9751 H   0  0  0  0  0  0  0  0  0  0  0  0
    6.8879   -1.6649    0.1716 H   0  0  0  0  0  0  0  0  0  0  0  0
    4.3930   -3.2434    0.6067 H   0  0  0  0  0  0  0  0  0  0  0  0
    7.1519   -6.1743   -0.2303 H   0  0  0  0  0  0  0  0  0  0  0  0
    3.9319   -7.7016    0.8470 H   0  0  0  0  0  0  0  0  0  0  0  0
    3.6103  -10.1574    1.0004 H   0  0  0  0  0  0  0  0  0  0  0  0
    4.6357  -12.4092    1.1490 H   0  0  0  0  0  0  0  0  0  0  0  0
    6.3163  -12.6771    0.6985 H   0  0  0  0  0  0  0  0  0  0  0  0
    4.3356  -11.0492   -1.7485 H   0  0  0  0  0  0  0  0  0  0  0  0
    4.0632  -12.4841   -2.7105 H   0  0  0  0  0  0  0  0  0  0  0  0
    7.6611  -10.7824   -0.3328 H   0  0  0  0  0  0  0  0  0  0  0  0
    7.9874   -8.3379   -0.4764 H   0  0  0  0  0  0  0  0  0  0  0  0
  1  2  1  0
  1 24  1  0
  1 25  1  0
  1 26  1  0
  2  3  2  0
  2 23  1  0
  3  4  1  0
  3 27  1  0
  4  5  2  0
  4 28  1  0
  5  6  1  0
  5 23  1  0
  6  7  1  0
  6 29  1  0
  6 30  1  0
  7  8  1  0
  7 31  1  0
  8  9  2  0
  8 10  1  0
 10 11  2  0
 10 12  1  0
 12 13  1  0
 12 32  1  0
 13 14  2  0
 13 22  1  0
 14 15  1  0
 14 33  1  0
 15 16  2  0
 15 34  1  0
 16 17  1  0
 16 21  1  0
 17 18  1  0
 17 35  1  0
 17 36  1  0
 18 19  1  0
 18 20  2  0
 19 37  1  0
 19 38  1  0
 21 22  2  0
 21 39  1  0
 22 40  1  0
M  END

