
     RDKit          3D

 50 54  0  0  0  0  0  0  0  0999 V2000
    0.8195    0.7225   -0.8299 O   0  0  0  0  0  0  0  0  0  0  0  0
    2.0020    0.4471   -0.6831 C   0  0  0  0  0  0  0  0  0  0  0  0
    2.5304   -0.7669   -1.0706 N   0  0  0  0  0  0  0  0  0  0  0  0
    1.6929   -1.7966   -1.6464 C   0  0  1  0  0  0  0  0  0  0  0  0
    2.3854   -2.6303   -2.7339 C   0  0  0  0  0  0  0  0  0  0  0  0
    1.4994   -3.8747   -2.8363 C   0  0  0  0  0  0  0  0  0  0  0  0
    0.9582   -4.0299   -1.4906 N   0  0  0  0  0  0  0  0  0  0  0  0
    0.2605   -5.1465   -1.0746 C   0  0  0  0  0  0  0  0  0  0  0  0
   -0.0550   -6.1916   -1.9768 C   0  0  0  0  0  0  0  0  0  0  0  0
   -0.7559   -7.3178   -1.5453 C   0  0  0  0  0  0  0  0  0  0  0  0
   -1.1697   -7.4470   -0.2162 C   0  0  0  0  0  0  0  0  0  0  0  0
   -0.8645   -6.4193    0.6814 C   0  0  0  0  0  0  0  0  0  0  0  0
   -0.1612   -5.2874    0.2701 C   0  0  0  0  0  0  0  0  0  0  0  0
    1.1976   -2.8696   -0.6531 C   0  0  0  0  0  0  0  0  0  0  0  0
    2.9033    1.3521   -0.1317 N   0  0  0  0  0  0  0  0  0  0  0  0
    2.3812    2.5660    0.4763 C   0  0  0  0  0  0  0  0  0  0  0  0
    2.9870    3.8073   -0.1778 C   0  0  0  0  0  0  0  0  0  0  0  0
    4.4347    3.6453   -0.2185 N   0  0  0  0  0  0  0  0  0  0  0  0
    5.0802    2.4379   -0.1521 C   0  0  0  0  0  0  0  0  0  0  0  0
    6.3760    2.6049   -0.2130 N   0  0  0  0  0  0  0  0  0  0  0  0
    6.6077    3.9504   -0.3367 N   0  0  0  0  0  0  0  0  0  0  0  0
    5.4475    4.5695   -0.3433 C   0  0  0  0  0  0  0  0  0  0  0  0
    5.2354    6.0302   -0.4156 C   0  0  1  0  0  0  0  0  0  0  0  0
    5.7696    6.9240    0.6980 C   0  0  0  0  0  0  0  0  0  0  0  0
    6.4297    6.9230   -0.6474 C   0  0  0  0  0  0  0  0  0  0  0  0
    4.3395    1.1359   -0.0241 C   0  0  0  0  0  0  0  0  0  0  0  0
    3.4330   -1.0565   -0.7156 H   0  0  0  0  0  0  0  0  0  0  0  0
    0.8187   -1.2800   -2.0667 H   0  0  0  0  0  0  0  0  0  0  0  0
    3.3985   -2.9125   -2.3968 H   0  0  0  0  0  0  0  0  0  0  0  0
    2.4875   -2.0907   -3.6866 H   0  0  0  0  0  0  0  0  0  0  0  0
    2.0714   -4.7665   -3.1457 H   0  0  0  0  0  0  0  0  0  0  0  0
    0.6939   -3.7337   -3.5855 H   0  0  0  0  0  0  0  0  0  0  0  0
    0.2411   -6.1201   -3.0239 H   0  0  0  0  0  0  0  0  0  0  0  0
   -0.9855   -8.1063   -2.2677 H   0  0  0  0  0  0  0  0  0  0  0  0
   -1.7197   -8.3310    0.1137 H   0  0  0  0  0  0  0  0  0  0  0  0
   -1.1754   -6.4974    1.7271 H   0  0  0  0  0  0  0  0  0  0  0  0
    0.0690   -4.5103    0.9998 H   0  0  0  0  0  0  0  0  0  0  0  0
    1.9679   -3.0620    0.1247 H   0  0  0  0  0  0  0  0  0  0  0  0
    0.2846   -2.5388   -0.1297 H   0  0  0  0  0  0  0  0  0  0  0  0
    2.6069    2.5740    1.5602 H   0  0  0  0  0  0  0  0  0  0  0  0
    1.2926    2.5598    0.3462 H   0  0  0  0  0  0  0  0  0  0  0  0
    2.7356    4.7098    0.4000 H   0  0  0  0  0  0  0  0  0  0  0  0
    2.5926    3.9305   -1.2007 H   0  0  0  0  0  0  0  0  0  0  0  0
    4.2882    6.3362   -0.8707 H   0  0  0  0  0  0  0  0  0  0  0  0
    6.2890    6.4265    1.5215 H   0  0  0  0  0  0  0  0  0  0  0  0
    5.1629    7.7866    0.9890 H   0  0  0  0  0  0  0  0  0  0  0  0
    7.3914    6.4135   -0.7419 H   0  0  0  0  0  0  0  0  0  0  0  0
    6.2915    7.7895   -1.2993 H   0  0  0  0  0  0  0  0  0  0  0  0
    4.6201    0.6507    0.9336 H   0  0  0  0  0  0  0  0  0  0  0  0
    4.6831    0.4783   -0.8360 H   0  0  0  0  0  0  0  0  0  0  0  0
  1  2  2  0
  2  3  1  0
  2 15  1  0
  3  4  1  0
  3 27  1  0
  4  5  1  0
  4 14  1  0
  4 28  1  6
  5  6  1  0
  5 29  1  0
  5 30  1  0
  6  7  1  0
  6 31  1  0
  6 32  1  0
  7  8  1  0
  7 14  1  0
  8  9  2  0
  8 13  1  0
  9 10  1  0
  9 33  1  0
 10 11  2  0
 10 34  1  0
 11 12  1  0
 11 35  1  0
 12 13  2  0
 12 36  1  0
 13 37  1  0
 14 38  1  0
 14 39  1  0
 15 16  1  0
 15 26  1  0
 16 17  1  0
 16 40  1  0
 16 41  1  0
 17 18  1  0
 17 42  1  0
 17 43  1  0
 18 19  1  0
 18 22  1  0
 19 20  2  0
 19 26  1  0
 20 21  1  0
 21 22  2  0
 22 23  1  0
 23 24  1  0
 23 25  1  0
 23 44  1  6
 24 25  1  0
 24 45  1  0
 24 46  1  0
 25 47  1  0
 25 48  1  0
 26 49  1  0
 26 50  1  0
M  END

