
     RDKit          3D

 46 49  0  0  0  0  0  0  0  0999 V2000
    2.5906   -0.7186    0.1832 O   0  0  0  0  0  0  0  0  0  0  0  0
    3.2406    0.3282    0.0888 C   0  0  0  0  0  0  0  0  0  0  0  0
    4.0259    0.3898   -1.2269 N   0  0  0  0  0  0  0  0  0  0  0  0
    5.1691   -0.2435   -1.4450 C   0  0  0  0  0  0  0  0  0  0  0  0
    5.8730   -0.8965   -0.3692 C   0  0  0  0  0  0  0  0  0  0  0  0
    7.0712   -1.5301   -0.6165 C   0  0  0  0  0  0  0  0  0  0  0  0
    7.6339   -1.5595   -1.9137 C   0  0  0  0  0  0  0  0  0  0  0  0
    8.9675   -2.2157   -2.2010 C   0  0  0  0  0  0  0  0  0  0  0  0
    9.4669   -3.0859   -1.1625 N   0  0  0  0  0  0  0  0  0  0  0  0
    9.0445   -4.3743   -0.8851 C   0  0  0  0  0  0  0  0  0  0  0  0
    9.7803   -4.7736    0.2079 C   0  0  0  0  0  0  0  0  0  0  0  0
   10.6325   -3.7741    0.6054 N   0  0  0  0  0  0  0  0  0  0  0  0
   10.4242   -2.7822   -0.2248 C   0  0  0  0  0  0  0  0  0  0  0  0
    6.9388   -0.9319   -2.9802 C   0  0  0  0  0  0  0  0  0  0  0  0
    5.7402   -0.2954   -2.7671 C   0  0  0  0  0  0  0  0  0  0  0  0
    3.4315    1.4435    0.9337 C   0  0  0  0  0  0  0  0  0  0  0  0
    4.1451    2.6235    0.5520 C   0  0  0  0  0  0  0  0  0  0  0  0
    4.2817    3.7436    1.3931 C   0  0  0  0  0  0  0  0  0  0  0  0
    4.9798    4.9272    0.9992 C   0  0  0  0  0  0  0  0  0  0  0  0
    5.0862    6.0123    1.8501 C   0  0  0  0  0  0  0  0  0  0  0  0
    4.5061    5.9789    3.1374 C   0  0  0  0  0  0  0  0  0  0  0  0
    3.8187    4.8410    3.5503 C   0  0  0  0  0  0  0  0  0  0  0  0
    3.6905    3.7200    2.7079 C   0  0  0  0  0  0  0  0  0  0  0  0
    2.9969    2.5275    3.1064 C   0  0  0  0  0  0  0  0  0  0  0  0
    2.8727    1.4534    2.2759 C   0  0  0  0  0  0  0  0  0  0  0  0
    2.1278    0.3762    2.7345 O   0  0  0  0  0  0  0  0  0  0  0  0
    2.6835   -0.8404    3.0047 C   0  0  1  0  0  0  0  0  0  0  0  0
    4.0313   -0.8401    2.8088 F   0  0  0  0  0  0  0  0  0  0  0  0
    2.4861   -1.1301    4.3130 F   0  0  0  0  0  0  0  0  0  0  0  0
    3.5370    0.7560   -2.0434 H   0  0  0  0  0  0  0  0  0  0  0  0
    5.4345   -0.8930    0.6273 H   0  0  0  0  0  0  0  0  0  0  0  0
    7.5920   -2.0263    0.2037 H   0  0  0  0  0  0  0  0  0  0  0  0
    9.7188   -1.4246   -2.3730 H   0  0  0  0  0  0  0  0  0  0  0  0
    8.9017   -2.7749   -3.1498 H   0  0  0  0  0  0  0  0  0  0  0  0
    8.2838   -4.8747   -1.4799 H   0  0  0  0  0  0  0  0  0  0  0  0
    9.7403   -5.7326    0.7231 H   0  0  0  0  0  0  0  0  0  0  0  0
   10.9311   -1.8157   -0.2159 H   0  0  0  0  0  0  0  0  0  0  0  0
    7.3620   -0.9599   -3.9876 H   0  0  0  0  0  0  0  0  0  0  0  0
    5.2079    0.1820   -3.5924 H   0  0  0  0  0  0  0  0  0  0  0  0
    4.5878    2.6899   -0.4424 H   0  0  0  0  0  0  0  0  0  0  0  0
    5.4314    4.9642    0.0035 H   0  0  0  0  0  0  0  0  0  0  0  0
    5.6248    6.9062    1.5230 H   0  0  0  0  0  0  0  0  0  0  0  0
    4.5960    6.8405    3.8027 H   0  0  0  0  0  0  0  0  0  0  0  0
    3.3655    4.8046    4.5452 H   0  0  0  0  0  0  0  0  0  0  0  0
    2.5545    2.4614    4.1024 H   0  0  0  0  0  0  0  0  0  0  0  0
    2.2334   -1.6271    2.3833 H   0  0  0  0  0  0  0  0  0  0  0  0
  1  2  2  0
  2  3  1  0
  2 16  1  0
  3  4  1  0
  3 30  1  0
  4  5  2  0
  4 15  1  0
  5  6  1  0
  5 31  1  0
  6  7  2  0
  6 32  1  0
  7  8  1  0
  7 14  1  0
  8  9  1  0
  8 33  1  0
  8 34  1  0
  9 10  1  0
  9 13  1  0
 10 11  2  0
 10 35  1  0
 11 12  1  0
 11 36  1  0
 12 13  2  0
 13 37  1  0
 14 15  2  0
 14 38  1  0
 15 39  1  0
 16 17  2  0
 16 25  1  0
 17 18  1  0
 17 40  1  0
 18 19  2  0
 18 23  1  0
 19 20  1  0
 19 41  1  0
 20 21  2  0
 20 42  1  0
 21 22  1  0
 21 43  1  0
 22 23  2  0
 22 44  1  0
 23 24  1  0
 24 25  2  0
 24 45  1  0
 25 26  1  0
 26 27  1  0
 27 28  1  0
 27 29  1  0
 27 46  1  6
M  END

