
     RDKit          3D

 88 98  0  0  0  0  0  0  0  0999 V2000
   -1.2328    6.2219   -1.8739 F   0  0  0  0  0  0  0  0  0  0  0  0
   -1.6052    5.0682   -2.4553 C   0  0  1  0  0  0  0  0  0  0  0  0
   -1.8184    4.1814   -1.4625 F   0  0  0  0  0  0  0  0  0  0  0  0
   -2.7938    5.2788   -3.0497 F   0  0  0  0  0  0  0  0  0  0  0  0
   -0.5708    4.5693   -3.4322 C   0  0  0  0  0  0  0  0  0  0  0  0
    0.7845    4.8767   -3.2435 C   0  0  0  0  0  0  0  0  0  0  0  0
    1.7436    4.3719   -4.1151 C   0  0  0  0  0  0  0  0  0  0  0  0
    1.3602    3.5487   -5.1919 C   0  0  0  0  0  0  0  0  0  0  0  0
    2.3821    3.0319   -6.0909 C   0  0  0  0  0  0  0  0  0  0  0  0
    3.6682    3.2361   -6.0509 N   0  0  0  0  0  0  0  0  0  0  0  0
    4.2219    2.5486   -7.0933 N   0  0  0  0  0  0  0  0  0  0  0  0
    3.2419    1.9507   -7.7276 C   0  0  0  0  0  0  0  0  0  0  0  0
    3.2771    1.0947   -8.8951 C   0  0  0  0  0  0  0  0  0  0  0  0
    2.0787    0.5625   -9.3765 C   0  0  0  0  0  0  0  0  0  0  0  0
    1.9921   -0.2893  -10.4992 C   0  0  0  0  0  0  0  0  0  0  0  0
    0.7270   -0.7947  -10.9263 C   0  0  0  0  0  0  0  0  0  0  0  0
    0.4482   -1.6063  -11.9380 N   0  0  0  0  0  0  0  0  0  0  0  0
   -0.8936   -1.8015  -11.9416 N   0  0  0  0  0  0  0  0  0  0  0  0
   -1.3991   -1.1165  -10.9486 C   0  0  0  0  0  0  0  0  0  0  0  0
   -2.7859   -1.0037  -10.5458 C   0  0  0  0  0  0  0  0  0  0  0  0
   -3.7809   -1.7020  -11.2648 C   0  0  0  0  0  0  0  0  0  0  0  0
   -5.1157   -1.6016  -10.8950 C   0  0  0  0  0  0  0  0  0  0  0  0
   -5.4904   -0.8036   -9.8013 C   0  0  0  0  0  0  0  0  0  0  0  0
   -6.9322   -0.7420   -9.3735 C   0  0  1  0  0  0  0  0  0  0  0  0
   -7.7713   -0.8519  -10.4207 F   0  0  0  0  0  0  0  0  0  0  0  0
   -7.2470   -1.7400   -8.5211 F   0  0  0  0  0  0  0  0  0  0  0  0
   -7.2223    0.4108   -8.7428 F   0  0  0  0  0  0  0  0  0  0  0  0
   -4.5100   -0.1060   -9.0847 C   0  0  0  0  0  0  0  0  0  0  0  0
   -3.1698   -0.2033   -9.4504 C   0  0  0  0  0  0  0  0  0  0  0  0
   -0.4217   -0.4492  -10.2575 O   0  0  0  0  0  0  0  0  0  0  0  0
    3.2410   -0.6016  -11.1598 C   0  0  0  0  0  0  0  0  0  0  0  0
    3.2703   -1.4595  -12.3195 N   0  0  0  0  0  0  0  0  0  0  0  0
    3.3941   -2.8311  -12.2953 C   0  0  0  0  0  0  0  0  0  0  0  0
    3.5501   -3.6707  -11.1802 C   0  0  0  0  0  0  0  0  0  0  0  0
    3.6586   -5.0414  -11.4184 C   0  0  0  0  0  0  0  0  0  0  0  0
    3.6118   -5.5511  -12.7250 C   0  0  0  0  0  0  0  0  0  0  0  0
    3.4537   -4.7007  -13.8423 C   0  0  0  0  0  0  0  0  0  0  0  0
    3.3448   -3.3361  -13.6281 C   0  0  0  0  0  0  0  0  0  0  0  0
    3.1728   -2.1706  -14.4935 C   0  0  0  0  0  0  0  0  0  0  0  0
    3.0514   -1.9824  -15.8610 C   0  0  0  0  0  0  0  0  0  0  0  0
    2.8907   -0.6672  -16.3521 C   0  0  0  0  0  0  0  0  0  0  0  0
    2.8529    0.4366  -15.4872 C   0  0  0  0  0  0  0  0  0  0  0  0
    2.9724    0.2690  -14.1064 C   0  0  0  0  0  0  0  0  0  0  0  0
    3.1308   -1.0405  -13.6257 C   0  0  0  0  0  0  0  0  0  0  0  0
    4.4407   -0.0759  -10.6945 C   0  0  0  0  0  0  0  0  0  0  0  0
    4.5086    0.7656   -9.5808 C   0  0  0  0  0  0  0  0  0  0  0  0
    5.7754    1.2613   -9.1743 N   0  0  0  0  0  0  0  0  0  0  0  0
    6.6399    0.6461   -8.2720 C   0  0  0  0  0  0  0  0  0  0  0  0
    6.4828   -0.5626   -7.5846 C   0  0  0  0  0  0  0  0  0  0  0  0
    7.5135   -0.9665   -6.7345 C   0  0  0  0  0  0  0  0  0  0  0  0
    8.6741   -0.1872   -6.5712 C   0  0  0  0  0  0  0  0  0  0  0  0
    8.8243    1.0192   -7.2579 C   0  0  0  0  0  0  0  0  0  0  0  0
    7.8039    1.4474   -8.1169 C   0  0  0  0  0  0  0  0  0  0  0  0
    7.6204    2.6105   -8.9655 C   0  0  0  0  0  0  0  0  0  0  0  0
    8.3948    3.7435   -9.2467 C   0  0  0  0  0  0  0  0  0  0  0  0
    7.9035    4.6998  -10.1374 C   0  0  0  0  0  0  0  0  0  0  0  0
    6.6459    4.5335  -10.7472 C   0  0  0  0  0  0  0  0  0  0  0  0
    5.8556    3.4132  -10.4851 C   0  0  0  0  0  0  0  0  0  0  0  0
    6.3541    2.4571   -9.5932 C   0  0  0  0  0  0  0  0  0  0  0  0
    2.0379    2.2242   -7.1312 O   0  0  0  0  0  0  0  0  0  0  0  0
   -0.0011    3.2467   -5.3783 C   0  0  0  0  0  0  0  0  0  0  0  0
   -0.9587    3.7554   -4.5034 C   0  0  0  0  0  0  0  0  0  0  0  0
    1.0850    5.5191   -2.4140 H   0  0  0  0  0  0  0  0  0  0  0  0
    2.8011    4.6052   -3.9814 H   0  0  0  0  0  0  0  0  0  0  0  0
    1.1534    0.8122   -8.8584 H   0  0  0  0  0  0  0  0  0  0  0  0
   -3.4812   -2.3164  -12.1151 H   0  0  0  0  0  0  0  0  0  0  0  0
   -5.8799   -2.1382  -11.4605 H   0  0  0  0  0  0  0  0  0  0  0  0
   -4.8005    0.5218   -8.2403 H   0  0  0  0  0  0  0  0  0  0  0  0
   -2.4101    0.3448   -8.8912 H   0  0  0  0  0  0  0  0  0  0  0  0
    3.5800   -3.2569  -10.1727 H   0  0  0  0  0  0  0  0  0  0  0  0
    3.7785   -5.7262  -10.5770 H   0  0  0  0  0  0  0  0  0  0  0  0
    3.6965   -6.6281  -12.8837 H   0  0  0  0  0  0  0  0  0  0  0  0
    3.4154   -5.1209  -14.8494 H   0  0  0  0  0  0  0  0  0  0  0  0
    3.0740   -2.8264  -16.5535 H   0  0  0  0  0  0  0  0  0  0  0  0
    2.7922   -0.5092  -17.4280 H   0  0  0  0  0  0  0  0  0  0  0  0
    2.7254    1.4395  -15.8986 H   0  0  0  0  0  0  0  0  0  0  0  0
    2.9418    1.1140  -13.4191 H   0  0  0  0  0  0  0  0  0  0  0  0
    5.3709   -0.3221  -11.2107 H   0  0  0  0  0  0  0  0  0  0  0  0
    5.5788   -1.1625   -7.7053 H   0  0  0  0  0  0  0  0  0  0  0  0
    7.4145   -1.9042   -6.1811 H   0  0  0  0  0  0  0  0  0  0  0  0
    9.4622   -0.5294   -5.8960 H   0  0  0  0  0  0  0  0  0  0  0  0
    9.7252    1.6234   -7.1234 H   0  0  0  0  0  0  0  0  0  0  0  0
    9.3701    3.8795   -8.7722 H   0  0  0  0  0  0  0  0  0  0  0  0
    8.4975    5.5892  -10.3613 H   0  0  0  0  0  0  0  0  0  0  0  0
    6.2783    5.2984  -11.4364 H   0  0  0  0  0  0  0  0  0  0  0  0
    4.8767    3.2882  -10.9521 H   0  0  0  0  0  0  0  0  0  0  0  0
   -0.3054    2.6142   -6.2137 H   0  0  0  0  0  0  0  0  0  0  0  0
   -2.0147    3.5250   -4.6554 H   0  0  0  0  0  0  0  0  0  0  0  0
  2  1  1  1
  2  3  1  0
  2  4  1  0
  2  5  1  0
  5  6  2  0
  5 62  1  0
  6  7  1  0
  6 63  1  0
  7  8  2  0
  7 64  1  0
  8  9  1  0
  8 61  1  0
  9 10  2  0
  9 60  1  0
 10 11  1  0
 11 12  2  0
 12 13  1  0
 12 60  1  0
 13 14  2  0
 13 46  1  0
 14 15  1  0
 14 65  1  0
 15 16  1  0
 15 31  2  0
 16 17  2  0
 16 30  1  0
 17 18  1  0
 18 19  2  0
 19 20  1  0
 19 30  1  0
 20 21  2  0
 20 29  1  0
 21 22  1  0
 21 66  1  0
 22 23  2  0
 22 67  1  0
 23 24  1  0
 23 28  1  0
 24 25  1  6
 24 26  1  0
 24 27  1  0
 28 29  2  0
 28 68  1  0
 29 69  1  0
 31 32  1  0
 31 45  1  0
 32 33  1  0
 32 44  1  0
 33 34  2  0
 33 38  1  0
 34 35  1  0
 34 70  1  0
 35 36  2  0
 35 71  1  0
 36 37  1  0
 36 72  1  0
 37 38  2  0
 37 73  1  0
 38 39  1  0
 39 40  1  0
 39 44  2  0
 40 41  2  0
 40 74  1  0
 41 42  1  0
 41 75  1  0
 42 43  2  0
 42 76  1  0
 43 44  1  0
 43 77  1  0
 45 46  2  0
 45 78  1  0
 46 47  1  0
 47 48  1  0
 47 59  1  0
 48 49  2  0
 48 53  1  0
 49 50  1  0
 49 79  1  0
 50 51  2  0
 50 80  1  0
 51 52  1  0
 51 81  1  0
 52 53  2  0
 52 82  1  0
 53 54  1  0
 54 55  1  0
 54 59  2  0
 55 56  2  0
 55 83  1  0
 56 57  1  0
 56 84  1  0
 57 58  2  0
 57 85  1  0
 58 59  1  0
 58 86  1  0
 61 62  2  0
 61 87  1  0
 62 88  1  0
M  END

