
     RDKit          3D

 72 77  0  0  0  0  0  0  0  0999 V2000
    0.8433   -0.4048    0.2463 O   0  0  0  0  0  0  0  0  0  0  0  0
    2.0009   -0.7739    0.1532 C   0  0  0  0  0  0  0  0  0  0  0  0
    2.4583   -1.5421   -0.8718 N   0  0  0  0  0  0  0  0  0  0  0  0
    1.6102   -1.9056   -2.0091 C   0  0  1  0  0  0  0  0  0  0  0  0
    1.3807   -0.7283   -2.9805 C   0  0  0  0  0  0  0  0  0  0  0  0
    2.6476   -0.3495   -3.7572 C   0  0  0  0  0  0  0  0  0  0  0  0
    3.2448   -1.5607   -4.4878 C   0  0  0  0  0  0  0  0  0  0  0  0
    3.4923   -2.7361   -3.5312 C   0  0  0  0  0  0  0  0  0  0  0  0
    2.2223   -3.1068   -2.7482 C   0  0  0  0  0  0  0  0  0  0  0  0
    3.0062   -0.5273    1.3070 C   0  0  2  0  0  0  0  0  0  0  0  0
    2.9144   -1.4350    1.9224 H   0  0  0  0  0  0  0  0  0  0  0  0
    2.6413    0.6462    2.2050 C   0  0  0  0  0  0  0  0  0  0  0  0
    2.2048    1.8833    1.7009 C   0  0  0  0  0  0  0  0  0  0  0  0
    1.9199    2.9436    2.5615 C   0  0  0  0  0  0  0  0  0  0  0  0
    2.0737    2.7670    3.9355 C   0  0  0  0  0  0  0  0  0  0  0  0
    1.8001    3.7890    4.7628 F   0  0  0  0  0  0  0  0  0  0  0  0
    2.4977    1.5546    4.4694 C   0  0  0  0  0  0  0  0  0  0  0  0
    2.7751    0.5004    3.5943 C   0  0  0  0  0  0  0  0  0  0  0  0
    4.4333   -0.5216    0.8799 N   0  0  0  0  0  0  0  0  0  0  0  0
    4.8362    0.4020   -0.0662 C   0  0  0  0  0  0  0  0  0  0  0  0
    4.0262    1.1436   -0.6062 O   0  0  0  0  0  0  0  0  0  0  0  0
    6.3094    0.4539   -0.4621 C   0  0  0  0  0  0  0  0  0  0  0  0
    6.9833    1.7130    0.0265 C   0  0  0  0  0  0  0  0  0  0  0  0
    6.4324    2.9744    0.0964 C   0  0  0  0  0  0  0  0  0  0  0  0
    7.3705    3.8694    0.5661 N   0  0  0  0  0  0  0  0  0  0  0  0
    7.2059    4.8548    0.7192 H   0  0  0  0  0  0  0  0  0  0  0  0
    8.5540    3.2098    0.8128 C   0  0  0  0  0  0  0  0  0  0  0  0
    9.7812    3.6845    1.2964 C   0  0  0  0  0  0  0  0  0  0  0  0
   10.8169    2.7659    1.4447 C   0  0  0  0  0  0  0  0  0  0  0  0
   10.6366    1.4030    1.1202 C   0  0  0  0  0  0  0  0  0  0  0  0
    9.4175    0.9335    0.6412 C   0  0  0  0  0  0  0  0  0  0  0  0
    8.3487    1.8375    0.4801 C   0  0  0  0  0  0  0  0  0  0  0  0
    5.3522   -1.2868    1.6762 C   0  0  0  0  0  0  0  0  0  0  0  0
    6.1926   -0.6615    2.6085 C   0  0  0  0  0  0  0  0  0  0  0  0
    7.0567   -1.4270    3.3922 C   0  0  0  0  0  0  0  0  0  0  0  0
    7.0846   -2.8190    3.2714 C   0  0  0  0  0  0  0  0  0  0  0  0
    6.2426   -3.4508    2.3305 C   0  0  0  0  0  0  0  0  0  0  0  0
    5.3838   -2.6812    1.5424 C   0  0  0  0  0  0  0  0  0  0  0  0
    6.2490   -4.8051    2.1617 O   0  0  0  0  0  0  0  0  0  0  0  0
    7.3708   -5.4661    2.7309 C   0  0  0  0  0  0  0  0  0  0  0  0
    7.6460   -4.9284    4.1246 C   0  0  0  0  0  0  0  0  0  0  0  0
    7.9270   -3.5372    4.0685 O   0  0  0  0  0  0  0  0  0  0  0  0
    3.4559   -1.6975   -0.9376 H   0  0  0  0  0  0  0  0  0  0  0  0
    0.6361   -2.1898   -1.5818 H   0  0  0  0  0  0  0  0  0  0  0  0
    0.9888    0.1299   -2.4147 H   0  0  0  0  0  0  0  0  0  0  0  0
    0.5874   -1.0298   -3.6889 H   0  0  0  0  0  0  0  0  0  0  0  0
    3.3873    0.0746   -3.0557 H   0  0  0  0  0  0  0  0  0  0  0  0
    2.4189    0.4537   -4.4774 H   0  0  0  0  0  0  0  0  0  0  0  0
    4.1819   -1.2821   -4.9989 H   0  0  0  0  0  0  0  0  0  0  0  0
    2.5458   -1.8883   -5.2801 H   0  0  0  0  0  0  0  0  0  0  0  0
    4.3076   -2.4696   -2.8311 H   0  0  0  0  0  0  0  0  0  0  0  0
    3.8584   -3.6165   -4.0857 H   0  0  0  0  0  0  0  0  0  0  0  0
    2.4236   -3.9229   -2.0335 H   0  0  0  0  0  0  0  0  0  0  0  0
    1.4662   -3.4886   -3.4557 H   0  0  0  0  0  0  0  0  0  0  0  0
    2.0866    2.0116    0.6269 H   0  0  0  0  0  0  0  0  0  0  0  0
    1.5725    3.9070    2.1825 H   0  0  0  0  0  0  0  0  0  0  0  0
    2.5971    1.4457    5.5511 H   0  0  0  0  0  0  0  0  0  0  0  0
    3.0992   -0.4580    4.0090 H   0  0  0  0  0  0  0  0  0  0  0  0
    6.3146    0.4227   -1.5660 H   0  0  0  0  0  0  0  0  0  0  0  0
    6.8620   -0.4261   -0.1102 H   0  0  0  0  0  0  0  0  0  0  0  0
    5.4248    3.2904   -0.1641 H   0  0  0  0  0  0  0  0  0  0  0  0
    9.9220    4.7389    1.5478 H   0  0  0  0  0  0  0  0  0  0  0  0
   11.7863    3.1054    1.8182 H   0  0  0  0  0  0  0  0  0  0  0  0
   11.4711    0.7089    1.2482 H   0  0  0  0  0  0  0  0  0  0  0  0
    9.2934   -0.1240    0.3939 H   0  0  0  0  0  0  0  0  0  0  0  0
    6.1676    0.4235    2.7166 H   0  0  0  0  0  0  0  0  0  0  0  0
    7.7183   -0.9595    4.1240 H   0  0  0  0  0  0  0  0  0  0  0  0
    4.7446   -3.1939    0.8211 H   0  0  0  0  0  0  0  0  0  0  0  0
    8.2598   -5.3203    2.0891 H   0  0  0  0  0  0  0  0  0  0  0  0
    7.1296   -6.5386    2.7588 H   0  0  0  0  0  0  0  0  0  0  0  0
    8.5249   -5.4149    4.5720 H   0  0  0  0  0  0  0  0  0  0  0  0
    6.7714   -5.1105    4.7769 H   0  0  0  0  0  0  0  0  0  0  0  0
  1  2  2  0
  2  3  1  0
  2 10  1  0
  3  4  1  0
  3 43  1  0
  4  5  1  0
  4  9  1  0
  4 44  1  1
  5  6  1  0
  5 45  1  0
  5 46  1  0
  6  7  1  0
  6 47  1  0
  6 48  1  0
  7  8  1  0
  7 49  1  0
  7 50  1  0
  8  9  1  0
  8 51  1  0
  8 52  1  0
  9 53  1  0
  9 54  1  0
 10 11  1  1
 10 12  1  0
 10 19  1  0
 12 13  2  0
 12 18  1  0
 13 14  1  0
 13 55  1  0
 14 15  2  0
 14 56  1  0
 15 16  1  0
 15 17  1  0
 17 18  2  0
 17 57  1  0
 18 58  1  0
 19 20  1  0
 19 33  1  0
 20 21  2  0
 20 22  1  0
 22 23  1  0
 22 59  1  0
 22 60  1  0
 23 24  2  0
 23 32  1  0
 24 25  1  0
 24 61  1  0
 25 26  1  0
 25 27  1  0
 27 28  1  0
 27 32  2  0
 28 29  2  0
 28 62  1  0
 29 30  1  0
 29 63  1  0
 30 31  2  0
 30 64  1  0
 31 32  1  0
 31 65  1  0
 33 34  2  0
 33 38  1  0
 34 35  1  0
 34 66  1  0
 35 36  2  0
 35 67  1  0
 36 37  1  0
 36 42  1  0
 37 38  2  0
 37 39  1  0
 38 68  1  0
 39 40  1  0
 40 41  1  0
 40 69  1  0
 40 70  1  0
 41 42  1  0
 41 71  1  0
 41 72  1  0
M  END

