
     RDKit          3D

 29 29  0  0  0  0  0  0  0  0999 V2000
    1.4228   -0.7763   -0.4536 C   0  0  0  0  0  0  0  0  0  0  0  0
    2.6447    0.6107   -0.2235 S   0  0  0  0  0  0  0  0  0  0  0  0
    3.5237    0.8504   -1.6858 C   0  0  0  0  0  0  0  0  0  0  0  0
    2.8723    1.5641   -2.7780 C   0  0  0  0  0  0  0  0  0  0  0  0
    3.3347    1.4061   -4.0668 C   0  0  0  0  0  0  0  0  0  0  0  0
    4.4006    0.5227   -4.3718 C   0  0  0  0  0  0  0  0  0  0  0  0
    4.8775    0.4305   -5.6655 O   0  0  0  0  0  0  0  0  0  0  0  0
    4.5782   -0.7673   -6.4007 C   0  0  1  0  0  0  0  0  0  0  0  0
    3.1465   -0.7438   -6.9373 C   0  0  0  0  0  0  0  0  0  0  0  0
    5.6044   -0.8534   -7.5106 C   0  0  0  0  0  0  0  0  0  0  0  0
    5.9199    0.3180   -8.1475 N   0  0  0  0  0  0  0  0  0  0  0  0
    6.0408   -2.0236   -7.8240 N   0  0  0  0  0  0  0  0  0  0  0  0
    6.9401   -1.9279   -8.9128 O   0  0  0  0  0  0  0  0  0  0  0  0
    5.0211   -0.2027   -3.3157 C   0  0  0  0  0  0  0  0  0  0  0  0
    4.5886   -0.0853   -2.0150 C   0  0  0  0  0  0  0  0  0  0  0  0
    0.8539   -0.9275    0.4747 H   0  0  0  0  0  0  0  0  0  0  0  0
    2.0021   -1.6703   -0.7313 H   0  0  0  0  0  0  0  0  0  0  0  0
    0.7717   -0.4936   -1.2948 H   0  0  0  0  0  0  0  0  0  0  0  0
    2.0739    2.2819   -2.5738 H   0  0  0  0  0  0  0  0  0  0  0  0
    2.9006    1.9979   -4.8772 H   0  0  0  0  0  0  0  0  0  0  0  0
    4.7194   -1.6509   -5.7571 H   0  0  0  0  0  0  0  0  0  0  0  0
    3.0114    0.0993   -7.6320 H   0  0  0  0  0  0  0  0  0  0  0  0
    2.4313   -0.6385   -6.1069 H   0  0  0  0  0  0  0  0  0  0  0  0
    2.9294   -1.6794   -7.4744 H   0  0  0  0  0  0  0  0  0  0  0  0
    5.8400    1.1432   -7.5617 H   0  0  0  0  0  0  0  0  0  0  0  0
    6.7347    0.2689   -8.7497 H   0  0  0  0  0  0  0  0  0  0  0  0
    7.2381   -2.8388   -9.0150 H   0  0  0  0  0  0  0  0  0  0  0  0
    5.8834   -0.8353   -3.5441 H   0  0  0  0  0  0  0  0  0  0  0  0
    5.1049   -0.6355   -1.2237 H   0  0  0  0  0  0  0  0  0  0  0  0
  1  2  1  0
  1 16  1  0
  1 17  1  0
  1 18  1  0
  2  3  1  0
  3  4  2  0
  3 15  1  0
  4  5  1  0
  4 19  1  0
  5  6  2  0
  5 20  1  0
  6  7  1  0
  6 14  1  0
  7  8  1  0
  8  9  1  0
  8 10  1  0
  8 21  1  1
  9 22  1  0
  9 23  1  0
  9 24  1  0
 10 11  1  0
 10 12  2  0
 11 25  1  0
 11 26  1  0
 12 13  1  0
 13 27  1  0
 14 15  2  0
 14 28  1  0
 15 29  1  0
M  END

