
     RDKit          3D

 52 57  0  0  0  0  0  0  0  0999 V2000
    0.8269    0.0177    0.0678 C   0  0  0  0  0  0  0  0  0  0  0  0
    2.3280    0.0249   -0.0482 C   0  0  0  0  0  0  0  0  0  0  0  0
    3.1287   -0.8599    0.6965 C   0  0  0  0  0  0  0  0  0  0  0  0
    4.5163   -0.8373    0.6028 C   0  0  0  0  0  0  0  0  0  0  0  0
    5.1874    0.0903   -0.2339 C   0  0  0  0  0  0  0  0  0  0  0  0
    6.6489    0.0695   -0.3582 C   0  0  0  0  0  0  0  0  0  0  0  0
    7.3045   -1.1877   -0.4026 C   0  0  0  0  0  0  0  0  0  0  0  0
    8.6576   -1.3037   -0.6392 C   0  0  0  0  0  0  0  0  0  0  0  0
    9.4679   -0.1439   -0.8421 C   0  0  0  0  0  0  0  0  0  0  0  0
   10.8549   -0.2353   -1.0930 C   0  0  0  0  0  0  0  0  0  0  0  0
   11.6267    0.9020   -1.2962 C   0  0  0  0  0  0  0  0  0  0  0  0
   11.0637    2.2046   -1.2621 C   0  0  0  0  0  0  0  0  0  0  0  0
   11.8538    3.4033   -1.4862 C   0  0  0  0  0  0  0  0  0  0  0  0
   13.2135    3.3858   -2.0271 C   0  0  0  0  0  0  0  0  0  0  0  0
   13.6118    2.4988   -3.0652 C   0  0  0  0  0  0  0  0  0  0  0  0
   14.8914    2.5383   -3.6048 C   0  0  0  0  0  0  0  0  0  0  0  0
   15.8400    3.4571   -3.1259 C   0  0  0  0  0  0  0  0  0  0  0  0
   17.2075    3.5363   -3.7390 C   0  0  1  0  0  0  0  0  0  0  0  0
   17.5852    2.3661   -4.2886 F   0  0  0  0  0  0  0  0  0  0  0  0
   17.2716    4.4609   -4.7238 F   0  0  0  0  0  0  0  0  0  0  0  0
   18.1468    3.8805   -2.8355 F   0  0  0  0  0  0  0  0  0  0  0  0
   15.4709    4.3464   -2.1011 C   0  0  0  0  0  0  0  0  0  0  0  0
   14.1890    4.3165   -1.5711 C   0  0  0  0  0  0  0  0  0  0  0  0
   11.2498    4.6565   -1.1987 C   0  0  0  0  0  0  0  0  0  0  0  0
    9.9262    4.7691   -0.8313 C   0  0  0  0  0  0  0  0  0  0  0  0
    9.0913    3.6142   -0.7095 C   0  0  0  0  0  0  0  0  0  0  0  0
    7.7289    3.7045   -0.3554 C   0  0  0  0  0  0  0  0  0  0  0  0
    6.9314    2.5718   -0.2388 C   0  0  0  0  0  0  0  0  0  0  0  0
    7.4549    1.2715   -0.4682 C   0  0  0  0  0  0  0  0  0  0  0  0
    8.8618    1.1530   -0.7522 C   0  0  0  0  0  0  0  0  0  0  0  0
    9.6721    2.3208   -0.9189 C   0  0  0  0  0  0  0  0  0  0  0  0
    4.3719    0.9754   -0.9871 C   0  0  0  0  0  0  0  0  0  0  0  0
    2.9856    0.9344   -0.8991 C   0  0  0  0  0  0  0  0  0  0  0  0
    0.4596   -0.9053    0.5405 H   0  0  0  0  0  0  0  0  0  0  0  0
    0.3450    0.1144   -0.9187 H   0  0  0  0  0  0  0  0  0  0  0  0
    0.4717    0.8661    0.6802 H   0  0  0  0  0  0  0  0  0  0  0  0
    2.6506   -1.5774    1.3696 H   0  0  0  0  0  0  0  0  0  0  0  0
    5.1019   -1.5265    1.2149 H   0  0  0  0  0  0  0  0  0  0  0  0
    6.7033   -2.0942   -0.3094 H   0  0  0  0  0  0  0  0  0  0  0  0
    9.1235   -2.2901   -0.7036 H   0  0  0  0  0  0  0  0  0  0  0  0
   11.3253   -1.2215   -1.1190 H   0  0  0  0  0  0  0  0  0  0  0  0
   12.6984    0.7874   -1.4560 H   0  0  0  0  0  0  0  0  0  0  0  0
   12.8836    1.8043   -3.4872 H   0  0  0  0  0  0  0  0  0  0  0  0
   15.1600    1.8555   -4.4134 H   0  0  0  0  0  0  0  0  0  0  0  0
   16.2046    5.0540   -1.7088 H   0  0  0  0  0  0  0  0  0  0  0  0
   13.9389    4.9971   -0.7546 H   0  0  0  0  0  0  0  0  0  0  0  0
   11.8374    5.5652   -1.3422 H   0  0  0  0  0  0  0  0  0  0  0  0
    9.4876    5.7552   -0.6572 H   0  0  0  0  0  0  0  0  0  0  0  0
    7.2977    4.6905   -0.1620 H   0  0  0  0  0  0  0  0  0  0  0  0
    5.8935    2.6869    0.0703 H   0  0  0  0  0  0  0  0  0  0  0  0
    4.8400    1.6688   -1.6878 H   0  0  0  0  0  0  0  0  0  0  0  0
    2.3925    1.6167   -1.5155 H   0  0  0  0  0  0  0  0  0  0  0  0
  1  2  1  0
  1 34  1  0
  1 35  1  0
  1 36  1  0
  2  3  2  0
  2 33  1  0
  3  4  1  0
  3 37  1  0
  4  5  2  0
  4 38  1  0
  5  6  1  0
  5 32  1  0
  6  7  2  0
  6 29  1  0
  7  8  1  0
  7 39  1  0
  8  9  2  0
  8 40  1  0
  9 10  1  0
  9 30  1  0
 10 11  2  0
 10 41  1  0
 11 12  1  0
 11 42  1  0
 12 13  2  0
 12 31  1  0
 13 14  1  0
 13 24  1  0
 14 15  2  0
 14 23  1  0
 15 16  1  0
 15 43  1  0
 16 17  2  0
 16 44  1  0
 17 18  1  0
 17 22  1  0
 18 19  1  6
 18 20  1  0
 18 21  1  0
 22 23  2  0
 22 45  1  0
 23 46  1  0
 24 25  2  0
 24 47  1  0
 25 26  1  0
 25 48  1  0
 26 27  2  0
 26 31  1  0
 27 28  1  0
 27 49  1  0
 28 29  2  0
 28 50  1  0
 29 30  1  0
 30 31  2  0
 32 33  2  0
 32 51  1  0
 33 52  1  0
M  END

