
     RDKit          3D

 42 44  0  0  0  0  0  0  0  0999 V2000
    3.0758    0.3864    0.8968 O   0  0  0  0  0  0  0  0  0  0  0  0
    2.4343    1.3662    0.6314 C   0  0  0  0  0  0  0  0  0  0  0  0
    1.1207    1.4262    0.9483 O   0  0  0  0  0  0  0  0  0  0  0  0
    2.9896    2.6007   -0.0735 C   0  0  0  0  0  0  0  0  0  0  0  0
    4.4931    2.5303   -0.3460 C   0  0  0  0  0  0  0  0  0  0  0  0
    5.3611    2.6324    0.9129 C   0  0  0  0  0  0  0  0  0  0  0  0
    6.8569    2.5070    0.6116 C   0  0  0  0  0  0  0  0  0  0  0  0
    7.7124    2.5888    1.8847 C   0  0  0  0  0  0  0  0  0  0  0  0
    9.1525    2.4558    1.6439 N   0  0  0  0  0  0  0  0  0  0  0  0
    9.9036    3.6162    1.3739 C   0  0  0  0  0  0  0  0  0  0  0  0
    9.2903    4.8699    1.2101 C   0  0  0  0  0  0  0  0  0  0  0  0
   10.0555    6.0334    0.9662 C   0  0  0  0  0  0  0  0  0  0  0  0
   11.4408    5.9179    0.8911 C   0  0  0  0  0  0  0  0  0  0  0  0
   12.4965    7.4607    0.5736 Br  0  0  0  0  0  0  0  0  0  0  0  0
   12.0815    4.6753    1.0418 C   0  0  0  0  0  0  0  0  0  0  0  0
   11.3247    3.5145    1.2737 C   0  0  0  0  0  0  0  0  0  0  0  0
   12.0205    2.2324    1.4071 C   0  0  0  0  0  0  0  0  0  0  0  0
   13.2555    2.1310    1.3466 O   0  0  0  0  0  0  0  0  0  0  0  0
   11.1479    1.0583    1.5719 C   0  0  0  0  0  0  0  0  0  0  0  0
   11.7327   -0.2103    1.6398 C   0  0  0  0  0  0  0  0  0  0  0  0
   10.9263   -1.3577    1.7806 C   0  0  0  0  0  0  0  0  0  0  0  0
   11.7567   -3.0543    1.8718 Br  0  0  0  0  0  0  0  0  0  0  0  0
    9.5378   -1.2604    1.8515 C   0  0  0  0  0  0  0  0  0  0  0  0
    8.9442    0.0149    1.7944 C   0  0  0  0  0  0  0  0  0  0  0  0
    9.7272    1.1817    1.6679 C   0  0  0  0  0  0  0  0  0  0  0  0
    0.7385    2.2701    0.6678 H   0  0  0  0  0  0  0  0  0  0  0  0
    2.7381    3.4924    0.5308 H   0  0  0  0  0  0  0  0  0  0  0  0
    2.4341    2.7139   -1.0223 H   0  0  0  0  0  0  0  0  0  0  0  0
    4.7631    3.3386   -1.0465 H   0  0  0  0  0  0  0  0  0  0  0  0
    4.7093    1.5797   -0.8606 H   0  0  0  0  0  0  0  0  0  0  0  0
    5.0609    1.8400    1.6181 H   0  0  0  0  0  0  0  0  0  0  0  0
    5.1649    3.5969    1.4182 H   0  0  0  0  0  0  0  0  0  0  0  0
    7.1743    3.2963   -0.0907 H   0  0  0  0  0  0  0  0  0  0  0  0
    7.0549    1.5476    0.1048 H   0  0  0  0  0  0  0  0  0  0  0  0
    7.4128    1.8084    2.5955 H   0  0  0  0  0  0  0  0  0  0  0  0
    7.5447    3.5428    2.4010 H   0  0  0  0  0  0  0  0  0  0  0  0
    8.2092    4.9815    1.2531 H   0  0  0  0  0  0  0  0  0  0  0  0
    9.5624    6.9971    0.8405 H   0  0  0  0  0  0  0  0  0  0  0  0
   13.1646    4.5683    0.9866 H   0  0  0  0  0  0  0  0  0  0  0  0
   12.8199   -0.2663    1.5821 H   0  0  0  0  0  0  0  0  0  0  0  0
    8.9153   -2.1495    1.9489 H   0  0  0  0  0  0  0  0  0  0  0  0
    7.8583    0.0644    1.8369 H   0  0  0  0  0  0  0  0  0  0  0  0
  1  2  2  0
  2  3  1  0
  2  4  1  0
  3 26  1  0
  4  5  1  0
  4 27  1  0
  4 28  1  0
  5  6  1  0
  5 29  1  0
  5 30  1  0
  6  7  1  0
  6 31  1  0
  6 32  1  0
  7  8  1  0
  7 33  1  0
  7 34  1  0
  8  9  1  0
  8 35  1  0
  8 36  1  0
  9 10  1  0
  9 25  1  0
 10 11  2  0
 10 16  1  0
 11 12  1  0
 11 37  1  0
 12 13  2  0
 12 38  1  0
 13 14  1  0
 13 15  1  0
 15 16  2  0
 15 39  1  0
 16 17  1  0
 17 18  2  0
 17 19  1  0
 19 20  1  0
 19 25  2  0
 20 21  2  0
 20 40  1  0
 21 22  1  0
 21 23  1  0
 23 24  2  0
 23 41  1  0
 24 25  1  0
 24 42  1  0
M  END

