
     RDKit          3D

 35 35  0  0  0  0  0  0  0  0999 V2000
    0.8215   -2.4453    0.1508 C   0  0  0  0  0  0  0  0  0  0  0  0
    2.3502   -2.4359    0.0934 C   0  0  0  0  0  0  0  0  0  0  0  0
    2.9042   -1.1955   -0.6143 C   0  0  0  0  0  0  0  0  0  0  0  0
    4.4523   -1.0619   -0.6054 C   0  0  1  0  0  0  0  0  0  0  0  0
    4.8903    0.1778   -1.4132 C   0  0  0  0  0  0  0  0  0  0  0  0
    4.9762   -1.0065    0.7687 N   0  0  0  0  0  0  0  0  0  0  0  0
    4.6842   -0.0324    1.6592 C   0  0  0  0  0  0  0  0  0  0  0  0
    3.9888    0.9456    1.4214 O   0  0  0  0  0  0  0  0  0  0  0  0
    5.3321   -0.1335    3.0408 C   0  0  0  0  0  0  0  0  0  0  0  0
    5.4990    1.0764    3.7038 C   0  0  0  0  0  0  0  0  0  0  0  0
    6.0849    1.0611    4.9768 C   0  0  0  0  0  0  0  0  0  0  0  0
    6.3354    2.5550    5.8266 Cl  0  0  0  0  0  0  0  0  0  0  0  0
    6.4700   -0.0456    5.5898 N   0  0  0  0  0  0  0  0  0  0  0  0
    6.2852   -1.2082    4.9848 N   0  0  0  0  0  0  0  0  0  0  0  0
    5.7528   -1.2676    3.7779 C   0  0  0  0  0  0  0  0  0  0  0  0
    5.5661   -2.9027    3.1740 Cl  0  0  0  0  0  0  0  0  0  0  0  0
    5.0321   -2.2962   -1.3191 C   0  0  0  0  0  0  0  0  0  0  0  0
    4.8037   -2.5561   -2.4723 O   0  0  0  0  0  0  0  0  0  0  0  0
    5.8113   -3.0579   -0.5296 O   0  0  0  0  0  0  0  0  0  0  0  0
    6.3767   -4.2330   -1.1219 C   0  0  0  0  0  0  0  0  0  0  0  0
    0.4442   -3.3464    0.6595 H   0  0  0  0  0  0  0  0  0  0  0  0
    0.3813   -2.4239   -0.8600 H   0  0  0  0  0  0  0  0  0  0  0  0
    0.4372   -1.5680    0.6970 H   0  0  0  0  0  0  0  0  0  0  0  0
    2.6972   -3.3480   -0.4249 H   0  0  0  0  0  0  0  0  0  0  0  0
    2.7580   -2.4938    1.1171 H   0  0  0  0  0  0  0  0  0  0  0  0
    2.5003   -0.2831   -0.1497 H   0  0  0  0  0  0  0  0  0  0  0  0
    2.5856   -1.1961   -1.6688 H   0  0  0  0  0  0  0  0  0  0  0  0
    4.4473    1.0806   -0.9746 H   0  0  0  0  0  0  0  0  0  0  0  0
    4.5615    0.0716   -2.4556 H   0  0  0  0  0  0  0  0  0  0  0  0
    5.9867    0.2793   -1.4004 H   0  0  0  0  0  0  0  0  0  0  0  0
    5.5264   -1.8039    1.0712 H   0  0  0  0  0  0  0  0  0  0  0  0
    5.1671    1.9994    3.2274 H   0  0  0  0  0  0  0  0  0  0  0  0
    6.9616   -4.7193   -0.3322 H   0  0  0  0  0  0  0  0  0  0  0  0
    7.0223   -3.9634   -1.9704 H   0  0  0  0  0  0  0  0  0  0  0  0
    5.5823   -4.9025   -1.4823 H   0  0  0  0  0  0  0  0  0  0  0  0
  1  2  1  0
  1 21  1  0
  1 22  1  0
  1 23  1  0
  2  3  1  0
  2 24  1  0
  2 25  1  0
  3  4  1  0
  3 26  1  0
  3 27  1  0
  4  5  1  0
  4  6  1  0
  4 17  1  6
  5 28  1  0
  5 29  1  0
  5 30  1  0
  6  7  1  0
  6 31  1  0
  7  8  2  0
  7  9  1  0
  9 10  2  0
  9 15  1  0
 10 11  1  0
 10 32  1  0
 11 12  1  0
 11 13  2  0
 13 14  1  0
 14 15  2  0
 15 16  1  0
 17 18  2  0
 17 19  1  0
 19 20  1  0
 20 33  1  0
 20 34  1  0
 20 35  1  0
M  END

