
     RDKit          3D

 35 37  0  0  0  0  0  0  0  0999 V2000
    4.3470   -1.5993    2.6811 O   0  0  0  0  0  0  0  0  0  0  0  0
    4.2488   -1.2132    1.5396 C   0  0  0  0  0  0  0  0  0  0  0  0
    3.1011   -0.4175    0.9134 C   0  0  0  0  0  0  0  0  0  0  0  0
    3.3907   -0.4331   -0.5920 C   0  0  0  0  0  0  0  0  0  0  0  0
    4.9267   -0.6571   -0.6803 C   0  0  2  0  0  0  0  0  0  0  0  0
    5.4551    0.3129   -0.7113 H   0  0  0  0  0  0  0  0  0  0  0  0
    5.3251   -1.3798   -1.9733 C   0  0  0  0  0  0  0  0  0  0  0  0
    5.5220   -0.7471   -2.9964 O   0  0  0  0  0  0  0  0  0  0  0  0
    5.3860   -2.7390   -1.8848 N   0  0  0  0  0  0  0  0  0  0  0  0
    5.7062   -3.5963   -3.0087 C   0  0  1  0  0  0  0  0  0  0  0  0
    7.0921   -4.2900   -2.9164 C   0  0  0  0  0  0  0  0  0  0  0  0
    6.9468   -5.5993   -3.7240 C   0  0  0  0  0  0  0  0  0  0  0  0
    5.4660   -5.8981   -3.6128 C   0  0  0  0  0  0  0  0  0  0  0  0
    4.7886   -7.0945   -3.8808 C   0  0  0  0  0  0  0  0  0  0  0  0
    5.4215   -8.2250   -4.2924 O   0  0  0  0  0  0  0  0  0  0  0  0
    3.3956   -7.1399   -3.7092 C   0  0  0  0  0  0  0  0  0  0  0  0
    2.6996   -6.0036   -3.2908 C   0  0  0  0  0  0  0  0  0  0  0  0
    3.3685   -4.7989   -3.0334 C   0  0  0  0  0  0  0  0  0  0  0  0
    4.7529   -4.7657   -3.1979 C   0  0  0  0  0  0  0  0  0  0  0  0
    5.1974   -1.3886    0.5469 N   0  0  0  0  0  0  0  0  0  0  0  0
    3.1467    0.6007    1.3369 H   0  0  0  0  0  0  0  0  0  0  0  0
    2.1303   -0.8447    1.2011 H   0  0  0  0  0  0  0  0  0  0  0  0
    3.0876    0.4782   -1.1237 H   0  0  0  0  0  0  0  0  0  0  0  0
    2.8765   -1.2834   -1.0673 H   0  0  0  0  0  0  0  0  0  0  0  0
    5.1967   -3.1641   -0.9821 H   0  0  0  0  0  0  0  0  0  0  0  0
    5.6741   -2.9363   -3.8922 H   0  0  0  0  0  0  0  0  0  0  0  0
    7.2884   -4.5328   -1.8583 H   0  0  0  0  0  0  0  0  0  0  0  0
    7.9104   -3.6443   -3.2671 H   0  0  0  0  0  0  0  0  0  0  0  0
    7.5927   -6.4038   -3.3303 H   0  0  0  0  0  0  0  0  0  0  0  0
    7.2397   -5.4450   -4.7797 H   0  0  0  0  0  0  0  0  0  0  0  0
    6.3683   -8.0545   -4.3774 H   0  0  0  0  0  0  0  0  0  0  0  0
    2.8775   -8.0799   -3.9096 H   0  0  0  0  0  0  0  0  0  0  0  0
    1.6154   -6.0609   -3.1644 H   0  0  0  0  0  0  0  0  0  0  0  0
    2.8196   -3.9114   -2.7105 H   0  0  0  0  0  0  0  0  0  0  0  0
    6.1389   -1.6526    0.8215 H   0  0  0  0  0  0  0  0  0  0  0  0
  1  2  2  0
  2  3  1  0
  2 20  1  0
  3  4  1  0
  3 21  1  0
  3 22  1  0
  4  5  1  0
  4 23  1  0
  4 24  1  0
  5  6  1  1
  5  7  1  0
  5 20  1  0
  7  8  2  0
  7  9  1  0
  9 10  1  0
  9 25  1  0
 10 11  1  0
 10 19  1  0
 10 26  1  6
 11 12  1  0
 11 27  1  0
 11 28  1  0
 12 13  1  0
 12 29  1  0
 12 30  1  0
 13 14  1  0
 13 19  2  0
 14 15  1  0
 14 16  2  0
 15 31  1  0
 16 17  1  0
 16 32  1  0
 17 18  2  0
 17 33  1  0
 18 19  1  0
 18 34  1  0
 20 35  1  0
M  END

