
     RDKit          3D

 47 49  0  0  0  0  0  0  0  0999 V2000
    6.0746   -0.3346    2.9985 C   0  0  0  0  0  0  0  0  0  0  0  0
    6.2587   -1.6477    2.5112 O   0  0  0  0  0  0  0  0  0  0  0  0
    7.3939   -1.8152    1.7201 C   0  0  0  0  0  0  0  0  0  0  0  0
    7.4403   -3.2625    1.1845 C   0  0  2  0  0  0  0  0  0  0  0  0
    7.3035   -3.9262    2.0520 H   0  0  0  0  0  0  0  0  0  0  0  0
    8.7109   -3.5557    0.3644 C   0  0  0  0  0  0  0  0  0  0  0  0
    8.3086   -3.1835   -1.0741 C   0  0  0  0  0  0  0  0  0  0  0  0
    6.8254   -3.5604   -1.1363 C   0  0  0  0  0  0  0  0  0  0  0  0
    6.3624   -3.5190    0.2349 N   0  0  0  0  0  0  0  0  0  0  0  0
    4.9714   -3.7739    0.6377 C   0  0  0  0  0  0  0  0  0  0  0  0
    4.0203   -4.0553   -0.4867 C   0  0  0  0  0  0  0  0  0  0  0  0
    3.8356   -5.3612   -0.9619 C   0  0  0  0  0  0  0  0  0  0  0  0
    2.9900   -5.6188   -2.0272 N   0  0  0  0  0  0  0  0  0  0  0  0
    2.3721   -4.5501   -2.5360 C   0  0  0  0  0  0  0  0  0  0  0  0
    1.4896   -4.7758   -3.5802 N   0  0  0  0  0  0  0  0  0  0  0  0
    1.3517   -6.0300   -4.2653 C   0  0  0  0  0  0  0  0  0  0  0  0
   -0.0859   -6.4726   -4.4848 C   0  0  0  0  0  0  0  0  0  0  0  0
   -0.4135   -7.3023   -5.5687 C   0  0  0  0  0  0  0  0  0  0  0  0
   -1.7209   -7.7574   -5.7598 C   0  0  0  0  0  0  0  0  0  0  0  0
   -2.7314   -7.3817   -4.8691 C   0  0  0  0  0  0  0  0  0  0  0  0
   -2.4189   -6.5488   -3.7900 C   0  0  0  0  0  0  0  0  0  0  0  0
   -1.1090   -6.0986   -3.6008 C   0  0  0  0  0  0  0  0  0  0  0  0
    2.4706   -3.2593   -2.1762 N   0  0  0  0  0  0  0  0  0  0  0  0
    3.3227   -3.0180   -1.1160 C   0  0  0  0  0  0  0  0  0  0  0  0
    5.1520   -0.3322    3.5935 H   0  0  0  0  0  0  0  0  0  0  0  0
    5.9708    0.3952    2.1732 H   0  0  0  0  0  0  0  0  0  0  0  0
    6.9178   -0.0198    3.6426 H   0  0  0  0  0  0  0  0  0  0  0  0
    8.3232   -1.6635    2.3058 H   0  0  0  0  0  0  0  0  0  0  0  0
    7.4157   -1.0931    0.8780 H   0  0  0  0  0  0  0  0  0  0  0  0
    8.9493   -4.6283    0.4325 H   0  0  0  0  0  0  0  0  0  0  0  0
    9.5835   -2.9998    0.7350 H   0  0  0  0  0  0  0  0  0  0  0  0
    8.8998   -3.7128   -1.8330 H   0  0  0  0  0  0  0  0  0  0  0  0
    8.4396   -2.1046   -1.2521 H   0  0  0  0  0  0  0  0  0  0  0  0
    6.6352   -4.5856   -1.4997 H   0  0  0  0  0  0  0  0  0  0  0  0
    6.1730   -2.9218   -1.7493 H   0  0  0  0  0  0  0  0  0  0  0  0
    4.6957   -2.8939    1.2446 H   0  0  0  0  0  0  0  0  0  0  0  0
    5.0370   -4.6068    1.3604 H   0  0  0  0  0  0  0  0  0  0  0  0
    4.3171   -6.2255   -0.4931 H   0  0  0  0  0  0  0  0  0  0  0  0
    1.1290   -3.9282   -4.0009 H   0  0  0  0  0  0  0  0  0  0  0  0
    1.8797   -6.7654   -3.6353 H   0  0  0  0  0  0  0  0  0  0  0  0
    1.8721   -6.0321   -5.2462 H   0  0  0  0  0  0  0  0  0  0  0  0
    0.3704   -7.5936   -6.2754 H   0  0  0  0  0  0  0  0  0  0  0  0
   -1.9533   -8.4026   -6.6119 H   0  0  0  0  0  0  0  0  0  0  0  0
   -3.7565   -7.7315   -5.0185 H   0  0  0  0  0  0  0  0  0  0  0  0
   -3.2021   -6.2459   -3.0892 H   0  0  0  0  0  0  0  0  0  0  0  0
   -0.8618   -5.4421   -2.7634 H   0  0  0  0  0  0  0  0  0  0  0  0
    3.4040   -1.9799   -0.7761 H   0  0  0  0  0  0  0  0  0  0  0  0
  1  2  1  0
  1 25  1  0
  1 26  1  0
  1 27  1  0
  2  3  1  0
  3  4  1  0
  3 28  1  0
  3 29  1  0
  4  5  1  1
  4  6  1  0
  4  9  1  0
  6  7  1  0
  6 30  1  0
  6 31  1  0
  7  8  1  0
  7 32  1  0
  7 33  1  0
  8  9  1  0
  8 34  1  0
  8 35  1  0
  9 10  1  0
 10 11  1  0
 10 36  1  0
 10 37  1  0
 11 12  2  0
 11 24  1  0
 12 13  1  0
 12 38  1  0
 13 14  2  0
 14 15  1  0
 14 23  1  0
 15 16  1  0
 15 39  1  0
 16 17  1  0
 16 40  1  0
 16 41  1  0
 17 18  2  0
 17 22  1  0
 18 19  1  0
 18 42  1  0
 19 20  2  0
 19 43  1  0
 20 21  1  0
 20 44  1  0
 21 22  2  0
 21 45  1  0
 22 46  1  0
 23 24  2  0
 24 47  1  0
M  END

