
     RDKit          3D

 75 78  0  0  0  0  0  0  0  0999 V2000
    8.4080   -2.6735   -0.2814 C   0  0  0  0  0  0  0  0  0  0  0  0
    8.5134   -2.9313   -1.7843 C   0  0  0  0  0  0  0  0  0  0  0  0
    8.6991   -1.6660   -2.6364 C   0  0  1  0  0  0  0  0  0  0  0  0
    8.9747   -1.9910   -4.1095 C   0  0  0  0  0  0  0  0  0  0  0  0
    7.5407   -0.7789   -2.5079 N   0  0  0  0  0  0  0  0  0  0  0  0
    7.6806    0.5767   -2.4615 C   0  0  0  0  0  0  0  0  0  0  0  0
    8.7633    1.1245   -2.3309 O   0  0  0  0  0  0  0  0  0  0  0  0
    6.3640    1.4264   -2.4172 C   0  0  1  0  0  0  0  0  0  0  0  0
    5.0611    0.6803   -2.8289 C   0  0  0  0  0  0  0  0  0  0  0  0
    4.4180   -0.2750   -1.8142 C   0  0  0  0  0  0  0  0  0  0  0  0
    6.2716    1.9285   -0.9393 C   0  0  0  0  0  0  0  0  0  0  0  0
    7.3023    2.9557   -0.4657 C   0  0  0  0  0  0  0  0  0  0  0  0
    6.5673    2.5528   -3.3923 N   0  0  0  0  0  0  0  0  0  0  0  0
    7.2553    2.2591   -4.6053 C   0  0  0  0  0  0  0  0  0  0  0  0
    7.4557    1.1027   -4.9443 O   0  0  0  0  0  0  0  0  0  0  0  0
    7.6862    3.4280   -5.3552 C   0  0  0  0  0  0  0  0  0  0  0  0
    8.5452    3.4529   -6.4724 C   0  0  0  0  0  0  0  0  0  0  0  0
    9.1402    2.2472   -7.1335 C   0  0  0  0  0  0  0  0  0  0  0  0
    8.7585    4.8036   -6.8637 C   0  0  0  0  0  0  0  0  0  0  0  0
    9.5847    5.3390   -7.8033 N   0  0  0  0  0  0  0  0  0  0  0  0
   10.5409    4.6664   -8.5051 N   0  0  0  0  0  0  0  0  0  0  0  0
   11.1337    5.6370   -9.1995 C   0  0  0  0  0  0  0  0  0  0  0  0
   10.5215    6.8787   -8.9085 C   0  0  0  0  0  0  0  0  0  0  0  0
    9.5406    6.6902   -8.0255 N   0  0  0  0  0  0  0  0  0  0  0  0
    7.8509    6.0359   -5.9322 S   0  0  0  0  0  0  0  0  0  0  0  0
    7.1849    4.7036   -4.9838 C   0  0  0  0  0  0  0  0  0  0  0  0
    6.2338    4.8367   -4.0200 N   0  0  0  0  0  0  0  0  0  0  0  0
    5.5538    6.1177   -3.7843 C   0  0  0  0  0  0  0  0  0  0  0  0
    6.2599    6.9748   -2.7106 C   0  0  0  0  0  0  0  0  0  0  0  0
    5.6145    8.3299   -2.5456 C   0  0  0  0  0  0  0  0  0  0  0  0
    6.1970    9.4906   -3.0637 C   0  0  0  0  0  0  0  0  0  0  0  0
    5.5928   10.7448   -2.9150 C   0  0  0  0  0  0  0  0  0  0  0  0
    4.3797   10.8413   -2.2348 C   0  0  0  0  0  0  0  0  0  0  0  0
    3.7682    9.6981   -1.7065 C   0  0  0  0  0  0  0  0  0  0  0  0
    4.3784    8.4463   -1.8644 C   0  0  0  0  0  0  0  0  0  0  0  0
    3.8597    7.2806   -1.3967 O   0  0  0  0  0  0  0  0  0  0  0  0
    2.6466    7.2854   -0.6775 C   0  0  0  0  0  0  0  0  0  0  0  0
    5.8376    3.7356   -3.2259 C   0  0  0  0  0  0  0  0  0  0  0  0
    4.8970    3.8502   -2.4585 O   0  0  0  0  0  0  0  0  0  0  0  0
    8.2743   -3.6134    0.2773 H   0  0  0  0  0  0  0  0  0  0  0  0
    7.5555   -2.0173   -0.0458 H   0  0  0  0  0  0  0  0  0  0  0  0
    9.3171   -2.1816    0.1018 H   0  0  0  0  0  0  0  0  0  0  0  0
    7.6174   -3.4757   -2.1395 H   0  0  0  0  0  0  0  0  0  0  0  0
    9.3660   -3.6020   -1.9870 H   0  0  0  0  0  0  0  0  0  0  0  0
    9.5468   -1.0867   -2.2409 H   0  0  0  0  0  0  0  0  0  0  0  0
    8.1498   -2.5811   -4.5456 H   0  0  0  0  0  0  0  0  0  0  0  0
    9.8997   -2.5804   -4.2142 H   0  0  0  0  0  0  0  0  0  0  0  0
    9.0750   -1.0662   -4.6952 H   0  0  0  0  0  0  0  0  0  0  0  0
    6.6584   -1.1482   -2.8397 H   0  0  0  0  0  0  0  0  0  0  0  0
    5.2529    0.1631   -3.7838 H   0  0  0  0  0  0  0  0  0  0  0  0
    4.3229    1.4650   -3.0519 H   0  0  0  0  0  0  0  0  0  0  0  0
    5.0947   -1.0702   -1.4662 H   0  0  0  0  0  0  0  0  0  0  0  0
    3.5423   -0.7627   -2.2714 H   0  0  0  0  0  0  0  0  0  0  0  0
    4.0609    0.2596   -0.9221 H   0  0  0  0  0  0  0  0  0  0  0  0
    6.3673    1.0224   -0.3183 H   0  0  0  0  0  0  0  0  0  0  0  0
    5.2622    2.3225   -0.7700 H   0  0  0  0  0  0  0  0  0  0  0  0
    8.3299    2.5964   -0.6015 H   0  0  0  0  0  0  0  0  0  0  0  0
    7.1382    3.1658    0.6037 H   0  0  0  0  0  0  0  0  0  0  0  0
    7.2063    3.9149   -0.9964 H   0  0  0  0  0  0  0  0  0  0  0  0
    8.3453    1.5759   -7.4975 H   0  0  0  0  0  0  0  0  0  0  0  0
    9.7166    1.6581   -6.4019 H   0  0  0  0  0  0  0  0  0  0  0  0
    9.7962    2.5370   -7.9610 H   0  0  0  0  0  0  0  0  0  0  0  0
   11.9584    5.4150   -9.8753 H   0  0  0  0  0  0  0  0  0  0  0  0
   10.7410    7.8688   -9.3041 H   0  0  0  0  0  0  0  0  0  0  0  0
    4.5341    5.8893   -3.4550 H   0  0  0  0  0  0  0  0  0  0  0  0
    5.5119    6.6539   -4.7432 H   0  0  0  0  0  0  0  0  0  0  0  0
    7.3174    7.1045   -2.9889 H   0  0  0  0  0  0  0  0  0  0  0  0
    6.2219    6.4203   -1.7604 H   0  0  0  0  0  0  0  0  0  0  0  0
    7.1522    9.4090   -3.5906 H   0  0  0  0  0  0  0  0  0  0  0  0
    6.0712   11.6366   -3.3257 H   0  0  0  0  0  0  0  0  0  0  0  0
    3.8953   11.8130   -2.1077 H   0  0  0  0  0  0  0  0  0  0  0  0
    2.8198    9.7913   -1.1770 H   0  0  0  0  0  0  0  0  0  0  0  0
    2.4440    6.2408   -0.4070 H   0  0  0  0  0  0  0  0  0  0  0  0
    1.8091    7.6677   -1.2883 H   0  0  0  0  0  0  0  0  0  0  0  0
    2.7201    7.8900    0.2441 H   0  0  0  0  0  0  0  0  0  0  0  0
  1  2  1  0
  1 40  1  0
  1 41  1  0
  1 42  1  0
  2  3  1  0
  2 43  1  0
  2 44  1  0
  3  4  1  0
  3  5  1  0
  3 45  1  1
  4 46  1  0
  4 47  1  0
  4 48  1  0
  5  6  1  0
  5 49  1  0
  6  7  2  0
  8  6  1  1
  8  9  1  0
  8 11  1  0
  8 13  1  0
  9 10  1  0
  9 50  1  0
  9 51  1  0
 10 52  1  0
 10 53  1  0
 10 54  1  0
 11 12  1  0
 11 55  1  0
 11 56  1  0
 12 57  1  0
 12 58  1  0
 12 59  1  0
 13 14  1  0
 13 38  1  0
 14 15  2  0
 14 16  1  0
 16 17  1  0
 16 26  2  0
 17 18  1  0
 17 19  2  0
 18 60  1  0
 18 61  1  0
 18 62  1  0
 19 20  1  0
 19 25  1  0
 20 21  1  0
 20 24  1  0
 21 22  2  0
 22 23  1  0
 22 63  1  0
 23 24  2  0
 23 64  1  0
 25 26  1  0
 26 27  1  0
 27 28  1  0
 27 38  1  0
 28 29  1  0
 28 65  1  0
 28 66  1  0
 29 30  1  0
 29 67  1  0
 29 68  1  0
 30 31  2  0
 30 35  1  0
 31 32  1  0
 31 69  1  0
 32 33  2  0
 32 70  1  0
 33 34  1  0
 33 71  1  0
 34 35  2  0
 34 72  1  0
 35 36  1  0
 36 37  1  0
 37 73  1  0
 37 74  1  0
 37 75  1  0
 38 39  2  0
M  END

