
     RDKit          3D

 55 58  0  0  0  0  0  0  0  0999 V2000
    1.3293    8.5891    0.8779 C   0  0  0  0  0  0  0  0  0  0  0  0
    1.0280    7.3508    1.7278 C   0  0  0  0  0  0  0  0  0  0  0  0
    2.0018    6.2865    1.5889 N   0  0  0  0  0  0  0  0  0  0  0  0
    3.1604    6.2662    2.3372 C   0  0  0  0  0  0  0  0  0  0  0  0
    3.3695    7.1128    3.2048 O   0  0  0  0  0  0  0  0  0  0  0  0
    4.1177    5.1687    2.0195 C   0  0  0  0  0  0  0  0  0  0  0  0
    3.7950    4.0218    1.2394 C   0  0  0  0  0  0  0  0  0  0  0  0
    4.7956    3.0834    0.9791 C   0  0  0  0  0  0  0  0  0  0  0  0
    6.1022    3.1920    1.4680 C   0  0  0  0  0  0  0  0  0  0  0  0
    7.1291    2.1848    1.0075 C   0  0  0  0  0  0  0  0  0  0  0  0
    6.4266    4.3254    2.3119 C   0  0  0  0  0  0  0  0  0  0  0  0
    7.7233    4.5240    2.9653 C   0  0  0  0  0  0  0  0  0  0  0  0
    8.2270    5.8461    3.1564 C   0  0  0  0  0  0  0  0  0  0  0  0
    9.4434    6.1506    3.7521 C   0  0  0  0  0  0  0  0  0  0  0  0
   10.2624    5.0820    4.2165 C   0  0  0  0  0  0  0  0  0  0  0  0
   11.5384    4.8965    4.8713 C   0  0  0  0  0  0  0  0  0  0  0  0
   12.5375    5.8299    5.3135 C   0  0  0  0  0  0  0  0  0  0  0  0
   12.4102    7.2390    5.1354 C   0  0  0  0  0  0  0  0  0  0  0  0
   13.3921    8.0998    5.5699 C   0  0  0  0  0  0  0  0  0  0  0  0
   14.5606    7.5988    6.2091 C   0  0  0  0  0  0  0  0  0  0  0  0
   15.4485    8.5119    6.5888 O   0  0  0  0  0  0  0  0  0  0  0  0
   16.6731    8.1413    7.2426 C   0  0  0  0  0  0  0  0  0  0  0  0
   17.4498    9.4079    7.5322 C   0  0  0  0  0  0  0  0  0  0  0  0
   14.7091    6.2013    6.3985 C   0  0  0  0  0  0  0  0  0  0  0  0
   13.7197    5.3458    5.9596 C   0  0  0  0  0  0  0  0  0  0  0  0
   11.7824    3.5726    5.0847 N   0  0  0  0  0  0  0  0  0  0  0  0
   10.7319    2.9451    4.5916 N   0  0  0  0  0  0  0  0  0  0  0  0
   10.6957    1.9316    4.6413 H   0  0  0  0  0  0  0  0  0  0  0  0
    9.7605    3.7741    4.0462 C   0  0  0  0  0  0  0  0  0  0  0  0
    8.5338    3.4490    3.4593 C   0  0  0  0  0  0  0  0  0  0  0  0
    5.4071    5.2777    2.5360 C   0  0  0  0  0  0  0  0  0  0  0  0
    0.5518    9.3589    1.0167 H   0  0  0  0  0  0  0  0  0  0  0  0
    1.3710    8.3405   -0.1960 H   0  0  0  0  0  0  0  0  0  0  0  0
    2.2982    9.0215    1.1702 H   0  0  0  0  0  0  0  0  0  0  0  0
    0.0314    6.9481    1.4755 H   0  0  0  0  0  0  0  0  0  0  0  0
    1.0126    7.6333    2.7905 H   0  0  0  0  0  0  0  0  0  0  0  0
    1.9772    5.7238    0.7476 H   0  0  0  0  0  0  0  0  0  0  0  0
    2.7805    3.8412    0.8783 H   0  0  0  0  0  0  0  0  0  0  0  0
    4.5524    2.2207    0.3491 H   0  0  0  0  0  0  0  0  0  0  0  0
    6.7492    1.6265    0.1380 H   0  0  0  0  0  0  0  0  0  0  0  0
    7.3949    1.4334    1.7744 H   0  0  0  0  0  0  0  0  0  0  0  0
    8.0738    2.6677    0.7069 H   0  0  0  0  0  0  0  0  0  0  0  0
    7.6280    6.6763    2.7780 H   0  0  0  0  0  0  0  0  0  0  0  0
    9.7427    7.1956    3.8311 H   0  0  0  0  0  0  0  0  0  0  0  0
   11.5255    7.6409    4.6478 H   0  0  0  0  0  0  0  0  0  0  0  0
   13.3051    9.1794    5.4381 H   0  0  0  0  0  0  0  0  0  0  0  0
   17.2396    7.4629    6.5819 H   0  0  0  0  0  0  0  0  0  0  0  0
   16.4319    7.5950    8.1706 H   0  0  0  0  0  0  0  0  0  0  0  0
   17.6821    9.9464    6.6014 H   0  0  0  0  0  0  0  0  0  0  0  0
   18.3964    9.1563    8.0338 H   0  0  0  0  0  0  0  0  0  0  0  0
   16.8757   10.0779    8.1894 H   0  0  0  0  0  0  0  0  0  0  0  0
   15.5947    5.7953    6.8860 H   0  0  0  0  0  0  0  0  0  0  0  0
   13.8164    4.2691    6.0958 H   0  0  0  0  0  0  0  0  0  0  0  0
    8.1948    2.4168    3.4190 H   0  0  0  0  0  0  0  0  0  0  0  0
    5.5920    6.1402    3.1787 H   0  0  0  0  0  0  0  0  0  0  0  0
  1  2  1  0
  1 32  1  0
  1 33  1  0
  1 34  1  0
  2  3  1  0
  2 35  1  0
  2 36  1  0
  3  4  1  0
  3 37  1  0
  4  5  2  0
  4  6  1  0
  6  7  2  0
  6 31  1  0
  7  8  1  0
  7 38  1  0
  8  9  2  0
  8 39  1  0
  9 10  1  0
  9 11  1  0
 10 40  1  0
 10 41  1  0
 10 42  1  0
 11 12  1  0
 11 31  2  0
 12 13  2  0
 12 30  1  0
 13 14  1  0
 13 43  1  0
 14 15  2  0
 14 44  1  0
 15 16  1  0
 15 29  1  0
 16 17  1  0
 16 26  2  0
 17 18  2  0
 17 25  1  0
 18 19  1  0
 18 45  1  0
 19 20  2  0
 19 46  1  0
 20 21  1  0
 20 24  1  0
 21 22  1  0
 22 23  1  0
 22 47  1  0
 22 48  1  0
 23 49  1  0
 23 50  1  0
 23 51  1  0
 24 25  2  0
 24 52  1  0
 25 53  1  0
 26 27  1  0
 27 28  1  0
 27 29  1  0
 29 30  2  0
 30 54  1  0
 31 55  1  0
M  END

