
     RDKit          3D

 66 70  0  0  0  0  0  0  0  0999 V2000
    6.0870   -1.1926   -6.3815 O   0  0  0  0  0  0  0  0  0  0  0  0
    6.1349   -0.8117   -5.0765 C   0  0  0  0  0  0  0  0  0  0  0  0
    4.9921   -0.6893   -4.2771 C   0  0  0  0  0  0  0  0  0  0  0  0
    5.1124   -0.2912   -2.9432 C   0  0  0  0  0  0  0  0  0  0  0  0
    6.3559   -0.0061   -2.3584 C   0  0  0  0  0  0  0  0  0  0  0  0
    6.4087    0.3805   -0.8852 C   0  0  1  0  0  0  0  0  0  0  0  0
    5.3698    0.6008   -0.5970 H   0  0  0  0  0  0  0  0  0  0  0  0
    6.8915   -0.7726    0.0195 C   0  0  0  0  0  0  0  0  0  0  0  0
    8.3742   -1.0873   -0.1773 C   0  0  0  0  0  0  0  0  0  0  0  0
    9.2530    0.1487   -0.1639 C   0  0  0  0  0  0  0  0  0  0  0  0
   10.6321   -0.0089    0.0544 C   0  0  0  0  0  0  0  0  0  0  0  0
   11.4980    1.0863    0.0858 C   0  0  0  0  0  0  0  0  0  0  0  0
   12.8367    0.9627    0.2941 O   0  0  0  0  0  0  0  0  0  0  0  0
   10.9732    2.3737   -0.0930 C   0  0  0  0  0  0  0  0  0  0  0  0
    9.6089    2.5312   -0.3139 C   0  0  0  0  0  0  0  0  0  0  0  0
    8.7220    1.4386   -0.3752 C   0  0  0  0  0  0  0  0  0  0  0  0
    7.2144    1.6699   -0.5194 C   0  0  1  0  0  0  0  0  0  0  0  0
    6.8604    1.9151    0.4957 H   0  0  0  0  0  0  0  0  0  0  0  0
    6.7967    2.8523   -1.3850 C   0  0  0  0  0  0  0  0  0  0  0  0
    7.4623    3.2177   -2.5604 C   0  0  0  0  0  0  0  0  0  0  0  0
    7.0273    4.2798   -3.3606 C   0  0  0  0  0  0  0  0  0  0  0  0
    5.8957    5.0009   -2.9858 C   0  0  0  0  0  0  0  0  0  0  0  0
    5.2017    4.6627   -1.8197 C   0  0  0  0  0  0  0  0  0  0  0  0
    5.6442    3.5948   -1.0251 C   0  0  0  0  0  0  0  0  0  0  0  0
    5.0067    3.2051    0.1170 O   0  0  0  0  0  0  0  0  0  0  0  0
    3.8678    3.9092    0.5783 C   0  0  0  0  0  0  0  0  0  0  0  0
    3.4382    3.2921    1.9084 C   0  0  0  0  0  0  0  0  0  0  0  0
    2.2246    3.9261    2.4024 N   0  0  0  0  0  0  0  0  0  0  0  0
    0.9766    3.2675    2.0190 C   0  0  0  0  0  0  0  0  0  0  0  0
    0.6172    2.0675    2.9132 C   0  0  0  0  0  0  0  0  0  0  0  0
    0.6042    2.4775    4.3924 C   0  0  0  0  0  0  0  0  0  0  0  0
    1.9184    3.1708    4.7778 C   0  0  0  0  0  0  0  0  0  0  0  0
    2.2187    4.3261    3.8069 C   0  0  0  0  0  0  0  0  0  0  0  0
    7.4901   -0.1335   -3.1841 C   0  0  0  0  0  0  0  0  0  0  0  0
    7.3883   -0.5275   -4.5179 C   0  0  0  0  0  0  0  0  0  0  0  0
    5.1678   -1.3463   -6.6357 H   0  0  0  0  0  0  0  0  0  0  0  0
    4.0041   -0.9004   -4.6995 H   0  0  0  0  0  0  0  0  0  0  0  0
    4.2046   -0.1965   -2.3399 H   0  0  0  0  0  0  0  0  0  0  0  0
    6.2859   -1.6744   -0.1655 H   0  0  0  0  0  0  0  0  0  0  0  0
    6.7161   -0.4809    1.0703 H   0  0  0  0  0  0  0  0  0  0  0  0
    8.5154   -1.6208   -1.1346 H   0  0  0  0  0  0  0  0  0  0  0  0
    8.7172   -1.7876    0.6026 H   0  0  0  0  0  0  0  0  0  0  0  0
   11.0340   -1.0164    0.2129 H   0  0  0  0  0  0  0  0  0  0  0  0
   13.0576    0.0284    0.4021 H   0  0  0  0  0  0  0  0  0  0  0  0
   11.6461    3.2325   -0.0521 H   0  0  0  0  0  0  0  0  0  0  0  0
    9.2153    3.5415   -0.4436 H   0  0  0  0  0  0  0  0  0  0  0  0
    8.3534    2.6615   -2.8551 H   0  0  0  0  0  0  0  0  0  0  0  0
    7.5730    4.5363   -4.2716 H   0  0  0  0  0  0  0  0  0  0  0  0
    5.5412    5.8344   -3.5981 H   0  0  0  0  0  0  0  0  0  0  0  0
    4.3168    5.2328   -1.5376 H   0  0  0  0  0  0  0  0  0  0  0  0
    3.0469    3.8423   -0.1601 H   0  0  0  0  0  0  0  0  0  0  0  0
    4.0955    4.9802    0.7246 H   0  0  0  0  0  0  0  0  0  0  0  0
    4.2573    3.4333    2.6317 H   0  0  0  0  0  0  0  0  0  0  0  0
    3.3388    2.1963    1.7726 H   0  0  0  0  0  0  0  0  0  0  0  0
    1.0399    2.9610    0.9623 H   0  0  0  0  0  0  0  0  0  0  0  0
    0.1611    4.0132    2.0755 H   0  0  0  0  0  0  0  0  0  0  0  0
    1.3561    1.2599    2.7614 H   0  0  0  0  0  0  0  0  0  0  0  0
   -0.3611    1.6554    2.6116 H   0  0  0  0  0  0  0  0  0  0  0  0
    0.4193    1.6024    5.0376 H   0  0  0  0  0  0  0  0  0  0  0  0
   -0.2363    3.1756    4.5672 H   0  0  0  0  0  0  0  0  0  0  0  0
    2.7478    2.4406    4.7468 H   0  0  0  0  0  0  0  0  0  0  0  0
    1.8720    3.5505    5.8131 H   0  0  0  0  0  0  0  0  0  0  0  0
    3.1823    4.8033    4.0465 H   0  0  0  0  0  0  0  0  0  0  0  0
    1.4443    5.1066    3.9352 H   0  0  0  0  0  0  0  0  0  0  0  0
    8.4813    0.0934   -2.7885 H   0  0  0  0  0  0  0  0  0  0  0  0
    8.2758   -0.6176   -5.1480 H   0  0  0  0  0  0  0  0  0  0  0  0
  1  2  1  0
  1 36  1  0
  2  3  2  0
  2 35  1  0
  3  4  1  0
  3 37  1  0
  4  5  2  0
  4 38  1  0
  5  6  1  0
  5 34  1  0
  6  7  1  1
  6  8  1  0
  6 17  1  0
  8  9  1  0
  8 39  1  0
  8 40  1  0
  9 10  1  0
  9 41  1  0
  9 42  1  0
 10 11  2  0
 10 16  1  0
 11 12  1  0
 11 43  1  0
 12 13  1  0
 12 14  2  0
 13 44  1  0
 14 15  1  0
 14 45  1  0
 15 16  2  0
 15 46  1  0
 16 17  1  0
 17 18  1  1
 17 19  1  0
 19 20  2  0
 19 24  1  0
 20 21  1  0
 20 47  1  0
 21 22  2  0
 21 48  1  0
 22 23  1  0
 22 49  1  0
 23 24  2  0
 23 50  1  0
 24 25  1  0
 25 26  1  0
 26 27  1  0
 26 51  1  0
 26 52  1  0
 27 28  1  0
 27 53  1  0
 27 54  1  0
 28 29  1  0
 28 33  1  0
 29 30  1  0
 29 55  1  0
 29 56  1  0
 30 31  1  0
 30 57  1  0
 30 58  1  0
 31 32  1  0
 31 59  1  0
 31 60  1  0
 32 33  1  0
 32 61  1  0
 32 62  1  0
 33 63  1  0
 33 64  1  0
 34 35  2  0
 34 65  1  0
 35 66  1  0
M  END

