
     RDKit          3D

 34 35  0  0  0  0  0  0  0  0999 V2000
    2.9414    1.2103    1.3358 C   0  0  0  0  0  0  0  0  0  0  0  0
    2.5363    0.1573    0.3034 C   0  0  0  0  0  0  0  0  0  0  0  0
    3.0837   -1.2580    0.5990 C   0  0  1  0  0  0  0  0  0  0  0  0
    2.4896   -2.3519   -0.2884 C   0  0  0  0  0  0  0  0  0  0  0  0
    1.9602   -2.1035   -1.5639 C   0  0  0  0  0  0  0  0  0  0  0  0
    1.4469   -3.1452   -2.3465 C   0  0  0  0  0  0  0  0  0  0  0  0
    1.4494   -4.4558   -1.8664 C   0  0  0  0  0  0  0  0  0  0  0  0
    1.9687   -4.7181   -0.5939 C   0  0  0  0  0  0  0  0  0  0  0  0
    2.4807   -3.6773    0.1818 C   0  0  0  0  0  0  0  0  0  0  0  0
    4.6129   -1.2913    0.5669 C   0  0  0  0  0  0  0  0  0  0  0  0
    5.3248   -1.2612   -0.6352 C   0  0  0  0  0  0  0  0  0  0  0  0
    6.7272   -1.2640   -0.6776 C   0  0  0  0  0  0  0  0  0  0  0  0
    7.4377   -1.2318   -1.9733 C   0  0  0  0  0  0  0  0  0  0  0  0
    8.6421   -1.2282   -2.1046 O   0  0  0  0  0  0  0  0  0  0  0  0
    7.4497   -1.3048    0.5270 C   0  0  0  0  0  0  0  0  0  0  0  0
    6.7703   -1.3414    1.7362 C   0  0  0  0  0  0  0  0  0  0  0  0
    5.3627   -1.3329    1.7629 C   0  0  0  0  0  0  0  0  0  0  0  0
    4.6830   -1.3662    2.9375 O   0  0  0  0  0  0  0  0  0  0  0  0
    2.4973    2.1883    1.0918 H   0  0  0  0  0  0  0  0  0  0  0  0
    4.0344    1.3435    1.3742 H   0  0  0  0  0  0  0  0  0  0  0  0
    2.6066    0.9316    2.3479 H   0  0  0  0  0  0  0  0  0  0  0  0
    2.8706    0.4851   -0.6963 H   0  0  0  0  0  0  0  0  0  0  0  0
    1.4357    0.0949    0.2543 H   0  0  0  0  0  0  0  0  0  0  0  0
    2.7889   -1.5017    1.6302 H   0  0  0  0  0  0  0  0  0  0  0  0
    1.9376   -1.0868   -1.9611 H   0  0  0  0  0  0  0  0  0  0  0  0
    1.0400   -2.9254   -3.3372 H   0  0  0  0  0  0  0  0  0  0  0  0
    1.0465   -5.2682   -2.4765 H   0  0  0  0  0  0  0  0  0  0  0  0
    1.9717   -5.7391   -0.2028 H   0  0  0  0  0  0  0  0  0  0  0  0
    2.8842   -3.8928    1.1757 H   0  0  0  0  0  0  0  0  0  0  0  0
    4.7693   -1.2468   -1.5781 H   0  0  0  0  0  0  0  0  0  0  0  0
    6.7623   -1.2091   -2.8695 H   0  0  0  0  0  0  0  0  0  0  0  0
    8.5410   -1.3103    0.4858 H   0  0  0  0  0  0  0  0  0  0  0  0
    7.3221   -1.3770    2.6814 H   0  0  0  0  0  0  0  0  0  0  0  0
    5.3074   -1.3974    3.6746 H   0  0  0  0  0  0  0  0  0  0  0  0
  1  2  1  0
  1 19  1  0
  1 20  1  0
  1 21  1  0
  2  3  1  0
  2 22  1  0
  2 23  1  0
  3  4  1  0
  3 10  1  0
  3 24  1  1
  4  5  2  0
  4  9  1  0
  5  6  1  0
  5 25  1  0
  6  7  2  0
  6 26  1  0
  7  8  1  0
  7 27  1  0
  8  9  2  0
  8 28  1  0
  9 29  1  0
 10 11  2  0
 10 17  1  0
 11 12  1  0
 11 30  1  0
 12 13  1  0
 12 15  2  0
 13 14  2  0
 13 31  1  0
 15 16  1  0
 15 32  1  0
 16 17  2  0
 16 33  1  0
 17 18  1  0
 18 34  1  0
M  END

