
     RDKit          3D

 42 44  0  0  0  0  0  0  0  0999 V2000
    2.2857   -0.8988    0.3179 C   0  0  0  0  0  0  0  0  0  0  0  0
    2.3532    0.0221   -0.8054 N   0  0  0  0  0  0  0  0  0  0  0  0
    1.0370    0.3071   -1.3781 C   0  0  0  0  0  0  0  0  0  0  0  0
    0.3310   -0.9060   -1.9423 C   0  0  0  0  0  0  0  0  0  0  0  0
    0.8715   -1.6473   -3.0034 C   0  0  0  0  0  0  0  0  0  0  0  0
    0.1663   -2.7471   -3.4905 C   0  0  0  0  0  0  0  0  0  0  0  0
   -1.0619   -3.0710   -2.9025 C   0  0  0  0  0  0  0  0  0  0  0  0
   -1.5926   -2.3768   -1.8947 N   0  0  0  0  0  0  0  0  0  0  0  0
   -0.9069   -1.3276   -1.4344 C   0  0  0  0  0  0  0  0  0  0  0  0
    3.0497    1.2729   -0.4825 C   0  0  0  0  0  0  0  0  0  0  0  0
    4.4538    1.1238    0.0351 C   0  0  0  0  0  0  0  0  0  0  0  0
    4.8501    1.3377    1.3474 C   0  0  0  0  0  0  0  0  0  0  0  0
    6.1998    1.1957    1.3962 N   0  0  0  0  0  0  0  0  0  0  0  0
    7.0672    1.2848    2.5522 C   0  0  0  0  0  0  0  0  0  0  0  0
    6.7166    0.9014    0.2007 N   0  0  0  0  0  0  0  0  0  0  0  0
    5.6843    0.8488   -0.6492 C   0  0  0  0  0  0  0  0  0  0  0  0
    5.9402    0.5898   -2.0804 C   0  0  0  0  0  0  0  0  0  0  0  0
    7.2093    0.8689   -2.6240 C   0  0  0  0  0  0  0  0  0  0  0  0
    7.4694    0.6316   -3.9723 C   0  0  0  0  0  0  0  0  0  0  0  0
    6.4769    0.1156   -4.8121 C   0  0  0  0  0  0  0  0  0  0  0  0
    5.2237   -0.1657   -4.2659 C   0  0  0  0  0  0  0  0  0  0  0  0
    3.9736   -0.8282   -5.3099 Cl  0  0  0  0  0  0  0  0  0  0  0  0
    4.9423    0.0582   -2.9167 C   0  0  0  0  0  0  0  0  0  0  0  0
    1.7948   -1.8328    0.0106 H   0  0  0  0  0  0  0  0  0  0  0  0
    1.7165   -0.4834    1.1819 H   0  0  0  0  0  0  0  0  0  0  0  0
    3.2984   -1.1453    0.6658 H   0  0  0  0  0  0  0  0  0  0  0  0
    1.1834    1.0432   -2.1875 H   0  0  0  0  0  0  0  0  0  0  0  0
    0.3685    0.7955   -0.6315 H   0  0  0  0  0  0  0  0  0  0  0  0
    1.8284   -1.3622   -3.4472 H   0  0  0  0  0  0  0  0  0  0  0  0
    0.5582   -3.3437   -4.3177 H   0  0  0  0  0  0  0  0  0  0  0  0
   -1.6396   -3.9298   -3.2658 H   0  0  0  0  0  0  0  0  0  0  0  0
   -1.3644   -0.7743   -0.6035 H   0  0  0  0  0  0  0  0  0  0  0  0
    2.4702    1.8581    0.2687 H   0  0  0  0  0  0  0  0  0  0  0  0
    3.0644    1.8842   -1.4009 H   0  0  0  0  0  0  0  0  0  0  0  0
    4.2657    1.5897    2.2308 H   0  0  0  0  0  0  0  0  0  0  0  0
    6.4910    1.6595    3.4085 H   0  0  0  0  0  0  0  0  0  0  0  0
    7.8970    1.9753    2.3423 H   0  0  0  0  0  0  0  0  0  0  0  0
    7.4861    0.2972    2.8017 H   0  0  0  0  0  0  0  0  0  0  0  0
    7.9826    1.2741   -1.9702 H   0  0  0  0  0  0  0  0  0  0  0  0
    8.4573    0.8544   -4.3835 H   0  0  0  0  0  0  0  0  0  0  0  0
    6.6681   -0.0694   -5.8703 H   0  0  0  0  0  0  0  0  0  0  0  0
    3.9690   -0.2085   -2.4995 H   0  0  0  0  0  0  0  0  0  0  0  0
  1  2  1  0
  1 24  1  0
  1 25  1  0
  1 26  1  0
  2  3  1  0
  2 10  1  0
  3  4  1  0
  3 27  1  0
  3 28  1  0
  4  5  2  0
  4  9  1  0
  5  6  1  0
  5 29  1  0
  6  7  2  0
  6 30  1  0
  7  8  1  0
  7 31  1  0
  8  9  2  0
  9 32  1  0
 10 11  1  0
 10 33  1  0
 10 34  1  0
 11 12  2  0
 11 16  1  0
 12 13  1  0
 12 35  1  0
 13 14  1  0
 13 15  1  0
 14 36  1  0
 14 37  1  0
 14 38  1  0
 15 16  2  0
 16 17  1  0
 17 18  2  0
 17 23  1  0
 18 19  1  0
 18 39  1  0
 19 20  2  0
 19 40  1  0
 20 21  1  0
 20 41  1  0
 21 22  1  0
 21 23  2  0
 23 42  1  0
M  END

