
     RDKit          3D

 47 47  0  0  0  0  0  0  0  0999 V2000
    1.4967    4.6122   -2.7739 C   0  0  0  0  0  0  0  0  0  0  0  0
    2.9035    4.0131   -2.7327 C   0  0  0  0  0  0  0  0  0  0  0  0
    2.9677    2.5831   -3.2832 C   0  0  0  0  0  0  0  0  0  0  0  0
    4.3745    1.9709   -3.3485 C   0  0  0  0  0  0  0  0  0  0  0  0
    5.1128    1.8065   -2.0052 C   0  0  1  0  0  0  0  0  0  0  0  0
    4.3780    0.9188   -0.9760 C   0  0  0  0  0  0  0  0  0  0  0  0
    4.1020   -0.5294   -1.3952 C   0  0  0  0  0  0  0  0  0  0  0  0
    6.5463    1.3029   -2.2222 C   0  0  0  0  0  0  0  0  0  0  0  0
    7.3289    2.2042   -3.0213 O   0  0  0  0  0  0  0  0  0  0  0  0
    7.9627    3.2143   -2.3834 C   0  0  0  0  0  0  0  0  0  0  0  0
    7.8987    3.3968   -1.1867 O   0  0  0  0  0  0  0  0  0  0  0  0
    8.7241    4.0430   -3.3442 C   0  0  0  0  0  0  0  0  0  0  0  0
    9.4229    5.1127   -2.9150 C   0  0  0  0  0  0  0  0  0  0  0  0
   10.2323    6.0388   -3.7123 C   0  0  0  0  0  0  0  0  0  0  0  0
   10.3945    5.9130   -5.1040 C   0  0  0  0  0  0  0  0  0  0  0  0
   11.1826    6.8318   -5.7994 C   0  0  0  0  0  0  0  0  0  0  0  0
   11.8162    7.8802   -5.1344 C   0  0  0  0  0  0  0  0  0  0  0  0
   11.6638    8.0213   -3.7441 C   0  0  0  0  0  0  0  0  0  0  0  0
   12.3112    9.0683   -3.1749 O   0  0  0  0  0  0  0  0  0  0  0  0
   12.2069    9.2743   -1.7837 C   0  0  0  0  0  0  0  0  0  0  0  0
   10.8747    7.1015   -3.0411 C   0  0  0  0  0  0  0  0  0  0  0  0
    1.4813    5.6393   -2.3756 H   0  0  0  0  0  0  0  0  0  0  0  0
    0.7883    4.0138   -2.1762 H   0  0  0  0  0  0  0  0  0  0  0  0
    1.1059    4.6487   -3.8049 H   0  0  0  0  0  0  0  0  0  0  0  0
    3.2760    4.0339   -1.6935 H   0  0  0  0  0  0  0  0  0  0  0  0
    3.5951    4.6533   -3.3108 H   0  0  0  0  0  0  0  0  0  0  0  0
    2.5461    2.5811   -4.3047 H   0  0  0  0  0  0  0  0  0  0  0  0
    2.2962    1.9357   -2.6904 H   0  0  0  0  0  0  0  0  0  0  0  0
    5.0037    2.5949   -4.0057 H   0  0  0  0  0  0  0  0  0  0  0  0
    4.3117    0.9874   -3.8480 H   0  0  0  0  0  0  0  0  0  0  0  0
    5.2146    2.8002   -1.5373 H   0  0  0  0  0  0  0  0  0  0  0  0
    3.4221    1.4034   -0.7155 H   0  0  0  0  0  0  0  0  0  0  0  0
    4.9669    0.9187   -0.0417 H   0  0  0  0  0  0  0  0  0  0  0  0
    3.4601   -0.5884   -2.2888 H   0  0  0  0  0  0  0  0  0  0  0  0
    3.5857   -1.0735   -0.5882 H   0  0  0  0  0  0  0  0  0  0  0  0
    5.0282   -1.0844   -1.6166 H   0  0  0  0  0  0  0  0  0  0  0  0
    6.5584    0.3552   -2.7807 H   0  0  0  0  0  0  0  0  0  0  0  0
    7.0470    1.1605   -1.2530 H   0  0  0  0  0  0  0  0  0  0  0  0
    8.6841    3.7366   -4.3913 H   0  0  0  0  0  0  0  0  0  0  0  0
    9.3807    5.3121   -1.8382 H   0  0  0  0  0  0  0  0  0  0  0  0
    9.9078    5.0991   -5.6436 H   0  0  0  0  0  0  0  0  0  0  0  0
   11.3070    6.7303   -6.8805 H   0  0  0  0  0  0  0  0  0  0  0  0
   12.4353    8.6055   -5.6660 H   0  0  0  0  0  0  0  0  0  0  0  0
   12.8071   10.1648   -1.5537 H   0  0  0  0  0  0  0  0  0  0  0  0
   12.6041    8.4177   -1.2096 H   0  0  0  0  0  0  0  0  0  0  0  0
   11.1626    9.4569   -1.4718 H   0  0  0  0  0  0  0  0  0  0  0  0
   10.7423    7.1896   -1.9625 H   0  0  0  0  0  0  0  0  0  0  0  0
  1  2  1  0
  1 22  1  0
  1 23  1  0
  1 24  1  0
  2  3  1  0
  2 25  1  0
  2 26  1  0
  3  4  1  0
  3 27  1  0
  3 28  1  0
  4  5  1  0
  4 29  1  0
  4 30  1  0
  5  6  1  0
  5  8  1  0
  5 31  1  1
  6  7  1  0
  6 32  1  0
  6 33  1  0
  7 34  1  0
  7 35  1  0
  7 36  1  0
  8  9  1  0
  8 37  1  0
  8 38  1  0
  9 10  1  0
 10 11  2  0
 10 12  1  0
 12 13  2  0
 12 39  1  0
 13 14  1  0
 13 40  1  0
 14 15  2  0
 14 21  1  0
 15 16  1  0
 15 41  1  0
 16 17  2  0
 16 42  1  0
 17 18  1  0
 17 43  1  0
 18 19  1  0
 18 21  2  0
 19 20  1  0
 20 44  1  0
 20 45  1  0
 20 46  1  0
 21 47  1  0
M  END

