
     RDKit          3D

 37 38  0  0  0  0  0  0  0  0999 V2000
    3.3428   -1.5499   -0.2729 O   0  0  0  0  0  0  0  0  0  0  0  0
    2.7478   -0.2223   -0.0540 S   0  0  1  0  0  0  0  0  0  0  0  0
    2.9697    0.5380    1.1788 O   0  0  0  0  0  0  0  0  0  0  0  0
    3.1179    0.8175   -1.4646 C   0  0  0  0  0  0  0  0  0  0  0  0
    3.2362    2.1940   -1.2747 C   0  0  0  0  0  0  0  0  0  0  0  0
    3.5295    2.9786   -2.3932 C   0  0  0  0  0  0  0  0  0  0  0  0
    3.6748    2.3877   -3.6499 C   0  0  0  0  0  0  0  0  0  0  0  0
    3.5463    0.9976   -3.8458 C   0  0  0  0  0  0  0  0  0  0  0  0
    3.7439    0.4108   -5.2454 C   0  0  1  0  0  0  0  0  0  0  0  0
    3.6603   -1.1288   -5.3347 C   0  0  0  0  0  0  0  0  0  0  0  0
    2.2280   -1.6895   -5.2851 C   0  0  0  0  0  0  0  0  0  0  0  0
    1.3175   -1.0204   -6.3221 C   0  0  0  0  0  0  0  0  0  0  0  0
    1.3528    0.5061   -6.1844 C   0  0  0  0  0  0  0  0  0  0  0  0
    2.7872    1.0380   -6.2931 C   0  0  0  0  0  0  0  0  0  0  0  0
    3.2836    0.2137   -2.7153 C   0  0  0  0  0  0  0  0  0  0  0  0
    0.9023   -0.4795   -0.1975 C   0  0  1  0  0  0  0  0  0  0  0  0
    0.5887   -0.7250   -1.5043 F   0  0  0  0  0  0  0  0  0  0  0  0
    0.4791   -1.6838    0.6404 C   0  0  1  0  0  0  0  0  0  0  0  0
    0.7703   -1.4443    1.9369 F   0  0  0  0  0  0  0  0  0  0  0  0
   -0.8606   -1.8417    0.5178 F   0  0  0  0  0  0  0  0  0  0  0  0
    3.1213    2.6239   -0.2783 H   0  0  0  0  0  0  0  0  0  0  0  0
    3.6509    4.0589   -2.2829 H   0  0  0  0  0  0  0  0  0  0  0  0
    3.9084    3.0274   -4.5051 H   0  0  0  0  0  0  0  0  0  0  0  0
    4.7706    0.6974   -5.5376 H   0  0  0  0  0  0  0  0  0  0  0  0
    4.2880   -1.5964   -4.5586 H   0  0  0  0  0  0  0  0  0  0  0  0
    4.1124   -1.4229   -6.2981 H   0  0  0  0  0  0  0  0  0  0  0  0
    1.7892   -1.5442   -4.2832 H   0  0  0  0  0  0  0  0  0  0  0  0
    2.2584   -2.7799   -5.4478 H   0  0  0  0  0  0  0  0  0  0  0  0
    0.2850   -1.3941   -6.2205 H   0  0  0  0  0  0  0  0  0  0  0  0
    1.6510   -1.2991   -7.3392 H   0  0  0  0  0  0  0  0  0  0  0  0
    0.9210    0.7985   -5.2099 H   0  0  0  0  0  0  0  0  0  0  0  0
    0.7220    0.9776   -6.9566 H   0  0  0  0  0  0  0  0  0  0  0  0
    2.7971    2.1370   -6.2179 H   0  0  0  0  0  0  0  0  0  0  0  0
    3.1818    0.7982   -7.2966 H   0  0  0  0  0  0  0  0  0  0  0  0
    3.2127   -0.8704   -2.7788 H   0  0  0  0  0  0  0  0  0  0  0  0
    0.4098    0.4406    0.1556 H   0  0  0  0  0  0  0  0  0  0  0  0
    0.9871   -2.6041    0.3081 H   0  0  0  0  0  0  0  0  0  0  0  0
  1  2  2  0
  2  3  2  0
  2  4  1  6
  2 16  1  0
  4  5  2  0
  4 15  1  0
  5  6  1  0
  5 21  1  0
  6  7  2  0
  6 22  1  0
  7  8  1  0
  7 23  1  0
  8  9  1  0
  8 15  2  0
  9 10  1  0
  9 14  1  0
  9 24  1  6
 10 11  1  0
 10 25  1  0
 10 26  1  0
 11 12  1  0
 11 27  1  0
 11 28  1  0
 12 13  1  0
 12 29  1  0
 12 30  1  0
 13 14  1  0
 13 31  1  0
 13 32  1  0
 14 33  1  0
 14 34  1  0
 15 35  1  0
 16 17  1  0
 16 18  1  0
 16 36  1  1
 18 19  1  0
 18 20  1  0
 18 37  1  6
M  END

