
     RDKit          3D

 41 43  0  0  0  0  0  0  0  0999 V2000
    3.5330    0.9175    0.0983 O   0  0  0  0  0  0  0  0  0  0  0  0
    2.8388   -0.0538   -0.0829 C   0  0  0  0  0  0  0  0  0  0  0  0
    2.7504   -0.7220   -1.4661 C   0  0  0  0  0  0  0  0  0  0  0  0
    1.7390   -1.7431   -1.6528 N   0  0  0  0  0  0  0  0  0  0  0  0
    0.5139   -1.2759   -2.3012 C   0  0  0  0  0  0  0  0  0  0  0  0
   -0.5739   -2.3409   -2.3182 C   0  0  0  0  0  0  0  0  0  0  0  0
   -0.0367   -3.6210   -2.9570 C   0  0  0  0  0  0  0  0  0  0  0  0
    1.2338   -4.0675   -2.2664 C   0  0  0  0  0  0  0  0  0  0  0  0
    1.5921   -5.4185   -2.2205 C   0  0  0  0  0  0  0  0  0  0  0  0
    2.7633   -5.8557   -1.5967 C   0  0  0  0  0  0  0  0  0  0  0  0
    3.5880   -4.9105   -0.9844 C   0  0  0  0  0  0  0  0  0  0  0  0
    3.2491   -3.5571   -1.0004 C   0  0  0  0  0  0  0  0  0  0  0  0
    2.0791   -3.1058   -1.6504 C   0  0  0  0  0  0  0  0  0  0  0  0
    2.0843   -0.6855    0.8945 N   0  0  0  0  0  0  0  0  0  0  0  0
    2.0630   -0.2014    2.1442 N   0  0  0  0  0  0  0  0  0  0  0  0
    1.4675   -0.8003    3.1109 C   0  0  0  0  0  0  0  0  0  0  0  0
    0.7151   -2.0777    3.1703 C   0  0  0  0  0  0  0  0  0  0  0  0
    0.8748   -2.8927    4.3101 C   0  0  0  0  0  0  0  0  0  0  0  0
    1.7360   -2.4891    5.2519 F   0  0  0  0  0  0  0  0  0  0  0  0
    0.1936   -4.0892    4.5002 C   0  0  0  0  0  0  0  0  0  0  0  0
   -0.7122   -4.5105    3.5233 C   0  0  0  0  0  0  0  0  0  0  0  0
   -0.9295   -3.7352    2.3829 C   0  0  0  0  0  0  0  0  0  0  0  0
   -0.2254   -2.5443    2.2386 C   0  0  0  0  0  0  0  0  0  0  0  0
   -0.4748   -1.7907    1.1465 F   0  0  0  0  0  0  0  0  0  0  0  0
    3.7560   -1.1115   -1.6921 H   0  0  0  0  0  0  0  0  0  0  0  0
    2.5888    0.1029   -2.1800 H   0  0  0  0  0  0  0  0  0  0  0  0
    0.7317   -0.9499   -3.3405 H   0  0  0  0  0  0  0  0  0  0  0  0
    0.1579   -0.3825   -1.7608 H   0  0  0  0  0  0  0  0  0  0  0  0
   -1.4459   -1.9549   -2.8695 H   0  0  0  0  0  0  0  0  0  0  0  0
   -0.9027   -2.5414   -1.2854 H   0  0  0  0  0  0  0  0  0  0  0  0
    0.1609   -3.4357   -4.0298 H   0  0  0  0  0  0  0  0  0  0  0  0
   -0.7875   -4.4265   -2.9195 H   0  0  0  0  0  0  0  0  0  0  0  0
    0.9286   -6.1469   -2.6972 H   0  0  0  0  0  0  0  0  0  0  0  0
    3.0214   -6.9168   -1.5820 H   0  0  0  0  0  0  0  0  0  0  0  0
    4.5033   -5.2235   -0.4752 H   0  0  0  0  0  0  0  0  0  0  0  0
    3.8962   -2.8491   -0.4817 H   0  0  0  0  0  0  0  0  0  0  0  0
    1.5143   -1.4790    0.5988 H   0  0  0  0  0  0  0  0  0  0  0  0
    1.5983   -0.3081    4.0811 H   0  0  0  0  0  0  0  0  0  0  0  0
    0.3835   -4.6696    5.4043 H   0  0  0  0  0  0  0  0  0  0  0  0
   -1.2561   -5.4483    3.6539 H   0  0  0  0  0  0  0  0  0  0  0  0
   -1.6416   -4.0292    1.6107 H   0  0  0  0  0  0  0  0  0  0  0  0
  1  2  2  0
  2  3  1  0
  2 14  1  0
  3  4  1  0
  3 25  1  0
  3 26  1  0
  4  5  1  0
  4 13  1  0
  5  6  1  0
  5 27  1  0
  5 28  1  0
  6  7  1  0
  6 29  1  0
  6 30  1  0
  7  8  1  0
  7 31  1  0
  7 32  1  0
  8  9  2  0
  8 13  1  0
  9 10  1  0
  9 33  1  0
 10 11  2  0
 10 34  1  0
 11 12  1  0
 11 35  1  0
 12 13  2  0
 12 36  1  0
 14 15  1  0
 14 37  1  0
 15 16  2  0
 16 17  1  0
 16 38  1  0
 17 18  2  0
 17 23  1  0
 18 19  1  0
 18 20  1  0
 20 21  2  0
 20 39  1  0
 21 22  1  0
 21 40  1  0
 22 23  2  0
 22 41  1  0
 23 24  1  0
M  END

