
     RDKit          3D

 46 47  0  0  0  0  0  0  0  0999 V2000
    0.1007    0.3346    0.1525 C   0  0  0  0  0  0  0  0  0  0  0  0
    1.4807    0.1293    0.3107 O   0  0  0  0  0  0  0  0  0  0  0  0
    2.3048    1.2411    0.4154 C   0  0  0  0  0  0  0  0  0  0  0  0
    1.8590    2.5399    0.2347 C   0  0  0  0  0  0  0  0  0  0  0  0
    2.7989    3.6332    0.3599 C   0  0  0  0  0  0  0  0  0  0  0  0
    2.3449    4.9174    0.1154 O   0  0  0  0  0  0  0  0  0  0  0  0
    2.1540    5.7236    1.2575 C   0  0  0  0  0  0  0  0  0  0  0  0
    4.1464    3.3718    0.6705 C   0  0  0  0  0  0  0  0  0  0  0  0
    4.9543    4.4820    0.7788 O   0  0  0  0  0  0  0  0  0  0  0  0
    6.3095    4.3022    1.0698 C   0  0  0  0  0  0  0  0  0  0  0  0
    4.6044    2.0641    0.8502 C   0  0  0  0  0  0  0  0  0  0  0  0
    3.6591    0.9506    0.7145 C   0  0  0  0  0  0  0  0  0  0  0  0
    4.0562   -0.4366    1.0463 C   0  0  0  0  0  0  0  0  0  0  0  0
    4.6613   -1.1921   -0.0595 N   0  0  0  0  0  0  0  0  0  0  0  0
    5.3641   -2.4335    0.0458 C   0  0  0  0  0  0  0  0  0  0  0  0
    5.0746   -3.3488   -1.1561 C   0  0  1  0  0  0  0  0  0  0  0  0
    5.3709   -2.5315   -2.2633 O   0  0  0  0  0  0  0  0  0  0  0  0
    5.1779   -3.0277   -3.5713 C   0  0  0  0  0  0  0  0  0  0  0  0
    5.7640   -4.7318   -0.9851 C   0  0  0  0  0  0  0  0  0  0  0  0
    4.4179   -5.2969   -0.4613 C   0  0  0  0  0  0  0  0  0  0  0  0
    3.6904   -4.0610   -1.0505 C   0  0  0  0  0  0  0  0  0  0  0  0
   -0.3766   -0.6570    0.1559 H   0  0  0  0  0  0  0  0  0  0  0  0
   -0.1358    0.8386   -0.8032 H   0  0  0  0  0  0  0  0  0  0  0  0
   -0.3232    0.9433    0.9720 H   0  0  0  0  0  0  0  0  0  0  0  0
    0.8400    2.7826   -0.0586 H   0  0  0  0  0  0  0  0  0  0  0  0
    1.7302    6.6835    0.9183 H   0  0  0  0  0  0  0  0  0  0  0  0
    3.1048    5.9232    1.7834 H   0  0  0  0  0  0  0  0  0  0  0  0
    1.4485    5.2607    1.9759 H   0  0  0  0  0  0  0  0  0  0  0  0
    6.7688    5.3016    1.0976 H   0  0  0  0  0  0  0  0  0  0  0  0
    6.8253    3.6961    0.2999 H   0  0  0  0  0  0  0  0  0  0  0  0
    6.4689    3.8127    2.0506 H   0  0  0  0  0  0  0  0  0  0  0  0
    5.6367    1.8639    1.1314 H   0  0  0  0  0  0  0  0  0  0  0  0
    3.1842   -1.0628    1.3288 H   0  0  0  0  0  0  0  0  0  0  0  0
    4.7799   -0.5345    1.8813 H   0  0  0  0  0  0  0  0  0  0  0  0
    4.5772   -0.8043   -1.0023 H   0  0  0  0  0  0  0  0  0  0  0  0
    5.1282   -2.9072    1.0092 H   0  0  0  0  0  0  0  0  0  0  0  0
    6.4470   -2.1980    0.0403 H   0  0  0  0  0  0  0  0  0  0  0  0
    5.5076   -2.2361   -4.2574 H   0  0  0  0  0  0  0  0  0  0  0  0
    4.1183   -3.2531   -3.7842 H   0  0  0  0  0  0  0  0  0  0  0  0
    5.7807   -3.9317   -3.7688 H   0  0  0  0  0  0  0  0  0  0  0  0
    6.6456   -4.7761   -0.3266 H   0  0  0  0  0  0  0  0  0  0  0  0
    6.0410   -5.1624   -1.9575 H   0  0  0  0  0  0  0  0  0  0  0  0
    4.3715   -5.3363    0.6374 H   0  0  0  0  0  0  0  0  0  0  0  0
    4.1121   -6.2778   -0.8502 H   0  0  0  0  0  0  0  0  0  0  0  0
    2.9107   -3.5709   -0.4475 H   0  0  0  0  0  0  0  0  0  0  0  0
    3.2715   -4.2709   -2.0442 H   0  0  0  0  0  0  0  0  0  0  0  0
  1  2  1  0
  1 22  1  0
  1 23  1  0
  1 24  1  0
  2  3  1  0
  3  4  2  0
  3 12  1  0
  4  5  1  0
  4 25  1  0
  5  6  1  0
  5  8  2  0
  6  7  1  0
  7 26  1  0
  7 27  1  0
  7 28  1  0
  8  9  1  0
  8 11  1  0
  9 10  1  0
 10 29  1  0
 10 30  1  0
 10 31  1  0
 11 12  2  0
 11 32  1  0
 12 13  1  0
 13 14  1  0
 13 33  1  0
 13 34  1  0
 14 15  1  0
 14 35  1  0
 15 16  1  0
 15 36  1  0
 15 37  1  0
 16 17  1  6
 16 19  1  0
 16 21  1  0
 17 18  1  0
 18 38  1  0
 18 39  1  0
 18 40  1  0
 19 20  1  0
 19 41  1  0
 19 42  1  0
 20 21  1  0
 20 43  1  0
 20 44  1  0
 21 45  1  0
 21 46  1  0
M  END

