
     RDKit          3D

 67 68  0  0  0  0  0  0  0  0999 V2000
    3.6544    0.9921   -1.4119 C   0  0  0  0  0  0  0  0  0  0  0  0
    3.0918    0.4237   -0.0935 C   0  0  1  0  0  0  0  0  0  0  0  0
    3.6291    1.2146    1.1157 C   0  0  0  0  0  0  0  0  0  0  0  0
    1.5567    0.4724   -0.1136 C   0  0  0  0  0  0  0  0  0  0  0  0
    3.4502   -1.0064    0.0337 N   0  0  0  0  0  0  0  0  0  0  0  0
    4.6579   -1.5623    0.1373 C   0  0  0  0  0  0  0  0  0  0  0  0
    5.7624   -0.8105    0.0518 O   0  0  0  0  0  0  0  0  0  0  0  0
    6.8772   -1.6604    0.1730 C   0  0  0  0  0  0  0  0  0  0  0  0
    8.1385   -1.0430    0.1593 C   0  0  0  0  0  0  0  0  0  0  0  0
    8.3448    0.3202   -0.0395 C   0  0  0  0  0  0  0  0  0  0  0  0
    9.6141    0.9862   -0.0755 C   0  0  0  0  0  0  0  0  0  0  0  0
   10.8592    0.3082    0.0995 C   0  0  0  0  0  0  0  0  0  0  0  0
   12.0626    1.0021    0.0623 C   0  0  0  0  0  0  0  0  0  0  0  0
   12.0873    2.3896   -0.1496 C   0  0  0  0  0  0  0  0  0  0  0  0
   10.8750    3.0787   -0.3255 C   0  0  0  0  0  0  0  0  0  0  0  0
    9.6672    2.3944   -0.2902 C   0  0  0  0  0  0  0  0  0  0  0  0
    6.4196   -3.0079    0.2923 C   0  0  0  0  0  0  0  0  0  0  0  0
    7.2088   -4.2294    0.1872 C   0  0  0  0  0  0  0  0  0  0  0  0
    6.7560   -5.3510   -0.0028 O   0  0  0  0  0  0  0  0  0  0  0  0
    8.5463   -3.9601    0.2955 O   0  0  0  0  0  0  0  0  0  0  0  0
    9.5629   -4.9929    0.1346 C   0  0  1  0  0  0  0  0  0  0  0  0
    9.4745   -5.6201   -1.2630 C   0  0  0  0  0  0  0  0  0  0  0  0
   10.8770   -4.2208    0.2888 C   0  0  0  0  0  0  0  0  0  0  0  0
    9.4276   -6.0435    1.2439 C   0  0  0  0  0  0  0  0  0  0  0  0
    4.9768   -2.9208    0.3415 C   0  0  0  0  0  0  0  0  0  0  0  0
    3.8997   -3.8724    0.6534 C   0  0  0  0  0  0  0  0  0  0  0  0
    2.7248   -3.6194    0.3786 O   0  0  0  0  0  0  0  0  0  0  0  0
    4.3140   -4.9499    1.2952 O   0  0  0  0  0  0  0  0  0  0  0  0
    3.4816   -6.1419    1.5156 C   0  0  1  0  0  0  0  0  0  0  0  0
    2.9998   -6.6740    0.1626 C   0  0  0  0  0  0  0  0  0  0  0  0
    4.4647   -7.1167    2.1648 C   0  0  0  0  0  0  0  0  0  0  0  0
    2.3238   -5.8076    2.4607 C   0  0  0  0  0  0  0  0  0  0  0  0
    3.3477    2.0434   -1.5254 H   0  0  0  0  0  0  0  0  0  0  0  0
    3.2700    0.4261   -2.2743 H   0  0  0  0  0  0  0  0  0  0  0  0
    4.7522    0.9491   -1.4298 H   0  0  0  0  0  0  0  0  0  0  0  0
    3.3188    2.2681    1.0381 H   0  0  0  0  0  0  0  0  0  0  0  0
    4.7264    1.1821    1.1613 H   0  0  0  0  0  0  0  0  0  0  0  0
    3.2286    0.8066    2.0566 H   0  0  0  0  0  0  0  0  0  0  0  0
    1.2142    1.5128   -0.2099 H   0  0  0  0  0  0  0  0  0  0  0  0
    1.1341    0.0588    0.8158 H   0  0  0  0  0  0  0  0  0  0  0  0
    1.1528   -0.0988   -0.9647 H   0  0  0  0  0  0  0  0  0  0  0  0
    2.7160   -1.7262    0.0681 H   0  0  0  0  0  0  0  0  0  0  0  0
    8.9730   -1.7246    0.3046 H   0  0  0  0  0  0  0  0  0  0  0  0
    7.4658    0.9544   -0.1889 H   0  0  0  0  0  0  0  0  0  0  0  0
   10.8692   -0.7708    0.2665 H   0  0  0  0  0  0  0  0  0  0  0  0
   13.0013    0.4579    0.1998 H   0  0  0  0  0  0  0  0  0  0  0  0
   13.0384    2.9273   -0.1781 H   0  0  0  0  0  0  0  0  0  0  0  0
   10.8812    4.1595   -0.4918 H   0  0  0  0  0  0  0  0  0  0  0  0
    8.7290    2.9403   -0.4285 H   0  0  0  0  0  0  0  0  0  0  0  0
    9.5311   -4.8373   -2.0359 H   0  0  0  0  0  0  0  0  0  0  0  0
    8.5344   -6.1713   -1.3883 H   0  0  0  0  0  0  0  0  0  0  0  0
   10.3183   -6.3119   -1.4151 H   0  0  0  0  0  0  0  0  0  0  0  0
   10.9681   -3.4480   -0.4905 H   0  0  0  0  0  0  0  0  0  0  0  0
   11.7356   -4.9038    0.1992 H   0  0  0  0  0  0  0  0  0  0  0  0
   10.9252   -3.7298    1.2730 H   0  0  0  0  0  0  0  0  0  0  0  0
    8.4830   -6.5930    1.1475 H   0  0  0  0  0  0  0  0  0  0  0  0
    9.4558   -5.5589    2.2326 H   0  0  0  0  0  0  0  0  0  0  0  0
   10.2644   -6.7579    1.1880 H   0  0  0  0  0  0  0  0  0  0  0  0
    3.8608   -6.8320   -0.5040 H   0  0  0  0  0  0  0  0  0  0  0  0
    2.3004   -5.9757   -0.3160 H   0  0  0  0  0  0  0  0  0  0  0  0
    2.4871   -7.6378    0.3070 H   0  0  0  0  0  0  0  0  0  0  0  0
    5.3292   -7.2711    1.5041 H   0  0  0  0  0  0  0  0  0  0  0  0
    3.9726   -8.0825    2.3566 H   0  0  0  0  0  0  0  0  0  0  0  0
    4.8311   -6.7147    3.1217 H   0  0  0  0  0  0  0  0  0  0  0  0
    1.6250   -5.0982    1.9994 H   0  0  0  0  0  0  0  0  0  0  0  0
    2.7065   -5.3711    3.3966 H   0  0  0  0  0  0  0  0  0  0  0  0
    1.7782   -6.7302    2.7147 H   0  0  0  0  0  0  0  0  0  0  0  0
  1  2  1  0
  1 33  1  0
  1 34  1  0
  1 35  1  0
  2  3  1  0
  2  4  1  0
  2  5  1  6
  3 36  1  0
  3 37  1  0
  3 38  1  0
  4 39  1  0
  4 40  1  0
  4 41  1  0
  5  6  1  0
  5 42  1  0
  6  7  1  0
  6 25  2  0
  7  8  1  0
  8  9  1  0
  8 17  2  0
  9 10  2  0
  9 43  1  0
 10 11  1  0
 10 44  1  0
 11 12  2  0
 11 16  1  0
 12 13  1  0
 12 45  1  0
 13 14  2  0
 13 46  1  0
 14 15  1  0
 14 47  1  0
 15 16  2  0
 15 48  1  0
 16 49  1  0
 17 18  1  0
 17 25  1  0
 18 19  2  0
 18 20  1  0
 21 20  1  6
 21 22  1  0
 21 23  1  0
 21 24  1  0
 22 50  1  0
 22 51  1  0
 22 52  1  0
 23 53  1  0
 23 54  1  0
 23 55  1  0
 24 56  1  0
 24 57  1  0
 24 58  1  0
 25 26  1  0
 26 27  2  0
 26 28  1  0
 29 28  1  6
 29 30  1  0
 29 31  1  0
 29 32  1  0
 30 59  1  0
 30 60  1  0
 30 61  1  0
 31 62  1  0
 31 63  1  0
 31 64  1  0
 32 65  1  0
 32 66  1  0
 32 67  1  0
M  END

