
     RDKit          3D

 62 64  0  0  0  0  0  0  0  0999 V2000
    2.9387   -0.8450    1.1244 C   0  0  0  0  0  0  0  0  0  0  0  0
    4.3686   -0.4124    0.8482 C   0  0  0  0  0  0  0  0  0  0  0  0
    4.5804   -0.0339   -0.5314 O   0  0  0  0  0  0  0  0  0  0  0  0
    4.7774   -1.0149   -1.4346 C   0  0  0  0  0  0  0  0  0  0  0  0
    4.7142   -2.1906   -1.1177 O   0  0  0  0  0  0  0  0  0  0  0  0
    5.0814   -0.5928   -2.8237 C   0  0  0  0  0  0  0  0  0  0  0  0
    5.3793    0.6606   -3.3028 C   0  0  0  0  0  0  0  0  0  0  0  0
    5.2975    1.9441   -2.4872 C   0  0  0  0  0  0  0  0  0  0  0  0
    4.2119    2.8375   -2.9134 N   0  0  0  0  0  0  0  0  0  0  0  0
    2.8425    2.3316   -2.7808 C   0  0  0  0  0  0  0  0  0  0  0  0
    2.2706    2.4512   -1.3603 C   0  0  0  0  0  0  0  0  0  0  0  0
    2.3907    3.8861   -0.8307 C   0  0  0  0  0  0  0  0  0  0  0  0
    3.8205    4.4338   -0.9751 C   0  0  1  0  0  0  0  0  0  0  0  0
    3.8197    5.5271   -0.8155 H   0  0  0  0  0  0  0  0  0  0  0  0
    4.7647    3.8946    0.0924 C   0  0  0  0  0  0  0  0  0  0  0  0
    4.4696    3.1110    0.9657 O   0  0  0  0  0  0  0  0  0  0  0  0
    5.9924    4.4394   -0.0315 O   0  0  0  0  0  0  0  0  0  0  0  0
    6.9977    4.0819    0.9366 C   0  0  0  0  0  0  0  0  0  0  0  0
    7.8210    2.8904    0.4781 C   0  0  0  0  0  0  0  0  0  0  0  0
    4.3318    4.2047   -2.4272 C   0  0  0  0  0  0  0  0  0  0  0  0
    5.8364    0.8059   -4.6133 N   0  0  0  0  0  0  0  0  0  0  0  0
    6.0704    2.1204   -5.2191 C   0  0  0  0  0  0  0  0  0  0  0  0
    6.3611   -0.2843   -5.3488 C   0  0  0  0  0  0  0  0  0  0  0  0
    6.9750   -0.1174   -6.3878 O   0  0  0  0  0  0  0  0  0  0  0  0
    6.1522   -1.5062   -4.7849 N   0  0  0  0  0  0  0  0  0  0  0  0
    5.1234   -1.7683   -3.7988 C   0  0  2  0  0  0  0  0  0  0  0  0
    5.4244   -2.6519   -3.2212 H   0  0  0  0  0  0  0  0  0  0  0  0
    3.7442   -2.0712   -4.4115 C   0  0  0  0  0  0  0  0  0  0  0  0
    3.4154   -1.7039   -5.7253 C   0  0  0  0  0  0  0  0  0  0  0  0
    2.1440   -1.9784   -6.2426 C   0  0  0  0  0  0  0  0  0  0  0  0
    1.1817   -2.6261   -5.4667 C   0  0  0  0  0  0  0  0  0  0  0  0
    1.5262   -2.9948   -4.1672 C   0  0  0  0  0  0  0  0  0  0  0  0
    0.6174   -3.6309   -3.4104 F   0  0  0  0  0  0  0  0  0  0  0  0
    2.7820   -2.7334   -3.6302 C   0  0  0  0  0  0  0  0  0  0  0  0
    2.8234   -1.0524    2.2007 H   0  0  0  0  0  0  0  0  0  0  0  0
    2.6864   -1.7602    0.5707 H   0  0  0  0  0  0  0  0  0  0  0  0
    2.2244   -0.0520    0.8553 H   0  0  0  0  0  0  0  0  0  0  0  0
    5.0765   -1.2149    1.1028 H   0  0  0  0  0  0  0  0  0  0  0  0
    4.6203    0.4991    1.4072 H   0  0  0  0  0  0  0  0  0  0  0  0
    6.2394    2.4955   -2.6352 H   0  0  0  0  0  0  0  0  0  0  0  0
    5.2460    1.6686   -1.4281 H   0  0  0  0  0  0  0  0  0  0  0  0
    2.8098    1.2877   -3.1267 H   0  0  0  0  0  0  0  0  0  0  0  0
    2.2105    2.9135   -3.4782 H   0  0  0  0  0  0  0  0  0  0  0  0
    2.8082    1.7652   -0.6908 H   0  0  0  0  0  0  0  0  0  0  0  0
    1.2136    2.1354   -1.3630 H   0  0  0  0  0  0  0  0  0  0  0  0
    2.0690    3.9389    0.2204 H   0  0  0  0  0  0  0  0  0  0  0  0
    1.7184    4.5467   -1.4069 H   0  0  0  0  0  0  0  0  0  0  0  0
    6.5066    3.8762    1.8988 H   0  0  0  0  0  0  0  0  0  0  0  0
    7.6237    4.9807    1.0377 H   0  0  0  0  0  0  0  0  0  0  0  0
    7.1986    1.9872    0.3924 H   0  0  0  0  0  0  0  0  0  0  0  0
    8.6196    2.6853    1.2089 H   0  0  0  0  0  0  0  0  0  0  0  0
    8.2935    3.0868   -0.4971 H   0  0  0  0  0  0  0  0  0  0  0  0
    5.3760    4.5388   -2.5173 H   0  0  0  0  0  0  0  0  0  0  0  0
    3.7239    4.8529   -3.0840 H   0  0  0  0  0  0  0  0  0  0  0  0
    5.2599    2.7966   -4.9288 H   0  0  0  0  0  0  0  0  0  0  0  0
    6.1022    1.9891   -6.3055 H   0  0  0  0  0  0  0  0  0  0  0  0
    7.0410    2.5430   -4.9076 H   0  0  0  0  0  0  0  0  0  0  0  0
    6.4907   -2.2762   -5.3515 H   0  0  0  0  0  0  0  0  0  0  0  0
    4.1523   -1.2157   -6.3645 H   0  0  0  0  0  0  0  0  0  0  0  0
    1.9030   -1.6868   -7.2679 H   0  0  0  0  0  0  0  0  0  0  0  0
    0.1848   -2.8555   -5.8475 H   0  0  0  0  0  0  0  0  0  0  0  0
    3.0078   -3.0497   -2.6107 H   0  0  0  0  0  0  0  0  0  0  0  0
  1  2  1  0
  1 35  1  0
  1 36  1  0
  1 37  1  0
  2  3  1  0
  2 38  1  0
  2 39  1  0
  3  4  1  0
  4  5  2  0
  4  6  1  0
  6  7  2  0
  6 26  1  0
  7  8  1  0
  7 21  1  0
  8  9  1  0
  8 40  1  0
  8 41  1  0
  9 10  1  0
  9 20  1  0
 10 11  1  0
 10 42  1  0
 10 43  1  0
 11 12  1  0
 11 44  1  0
 11 45  1  0
 12 13  1  0
 12 46  1  0
 12 47  1  0
 13 14  1  6
 13 15  1  0
 13 20  1  0
 15 16  2  0
 15 17  1  0
 17 18  1  0
 18 19  1  0
 18 48  1  0
 18 49  1  0
 19 50  1  0
 19 51  1  0
 19 52  1  0
 20 53  1  0
 20 54  1  0
 21 22  1  0
 21 23  1  0
 22 55  1  0
 22 56  1  0
 22 57  1  0
 23 24  2  0
 23 25  1  0
 25 26  1  0
 25 58  1  0
 26 27  1  1
 26 28  1  0
 28 29  2  0
 28 34  1  0
 29 30  1  0
 29 59  1  0
 30 31  2  0
 30 60  1  0
 31 32  1  0
 31 61  1  0
 32 33  1  0
 32 34  2  0
 34 62  1  0
M  END

