
     RDKit          3D

 89 91  0  0  0  0  0  0  0  0999 V2000
    8.5763   -0.2865   -0.7355 C   0  0  0  0  0  0  0  0  0  0  0  0
    7.6835    0.6259   -0.0901 O   0  0  0  0  0  0  0  0  0  0  0  0
    6.3823    0.4834   -0.3731 C   0  0  0  0  0  0  0  0  0  0  0  0
    5.9568   -0.3046   -1.1846 O   0  0  0  0  0  0  0  0  0  0  0  0
    5.4983    1.4772    0.3872 C   0  0  2  0  0  0  0  0  0  0  0  0
    4.5580    0.9403    0.5820 H   0  0  0  0  0  0  0  0  0  0  0  0
    5.1833    2.7141   -0.4756 C   0  0  0  0  0  0  0  0  0  0  0  0
    4.3418    2.4515   -1.7292 C   0  0  0  0  0  0  0  0  0  0  0  0
    2.6391    1.8510   -1.3630 S   0  0  0  0  0  0  0  0  0  0  0  0
    2.6846    0.1721   -2.0823 C   0  0  0  0  0  0  0  0  0  0  0  0
    6.0637    1.8943    1.6559 N   0  0  0  0  0  0  0  0  0  0  0  0
    6.2641    0.9809    2.6582 C   0  0  0  0  0  0  0  0  0  0  0  0
    5.9083   -0.1819    2.5475 O   0  0  0  0  0  0  0  0  0  0  0  0
    6.8983    1.5331    3.9093 C   0  0  0  0  0  0  0  0  0  0  0  0
    6.4004    2.7232    4.4607 C   0  0  0  0  0  0  0  0  0  0  0  0
    6.9171    3.2369    5.6518 C   0  0  0  0  0  0  0  0  0  0  0  0
    7.9571    2.5749    6.3129 C   0  0  0  0  0  0  0  0  0  0  0  0
    8.5233    3.0981    7.6204 C   0  0  0  0  0  0  0  0  0  0  0  0
    9.9118    3.3765    7.5896 O   0  0  0  0  0  0  0  0  0  0  0  0
   10.3496    4.4739    6.7897 C   0  0  1  0  0  0  0  0  0  0  0  0
    9.8345    5.8220    7.2986 C   0  0  0  0  0  0  0  0  0  0  0  0
   11.8925    4.4396    6.7374 C   0  0  1  0  0  0  0  0  0  0  0  0
   12.4770    4.9037    7.9565 O   0  0  0  0  0  0  0  0  0  0  0  0
   12.3858    4.1107    9.1342 C   0  0  0  0  0  0  0  0  0  0  0  0
   13.3681    4.7143   10.1352 C   0  0  1  0  0  0  0  0  0  0  0  0
   14.6446    4.8892    9.5274 O   0  0  0  0  0  0  0  0  0  0  0  0
   12.9131    6.0543   10.7234 C   0  0  0  0  0  0  0  0  0  0  0  0
   13.9194    6.6008   11.5378 O   0  0  0  0  0  0  0  0  0  0  0  0
   12.4913    3.0962    6.2526 C   0  0  1  0  0  0  0  0  0  0  0  0
   12.0417    2.7256    4.8197 C   0  0  0  0  0  0  0  0  0  0  0  0
   12.6808    3.6012    3.7308 C   0  0  0  0  0  0  0  0  0  0  0  0
   14.2120    3.5933    3.8279 C   0  0  0  0  0  0  0  0  0  0  0  0
   14.6892    3.9682    5.2371 C   0  0  0  0  0  0  0  0  0  0  0  0
   14.0366    3.0843    6.3105 C   0  0  0  0  0  0  0  0  0  0  0  0
    8.4644    1.3947    5.7473 C   0  0  0  0  0  0  0  0  0  0  0  0
    7.9521    0.8492    4.5616 C   0  0  0  0  0  0  0  0  0  0  0  0
    8.5879   -0.3943    4.0115 C   0  0  0  0  0  0  0  0  0  0  0  0
    9.7102   -0.2612    3.1799 C   0  0  0  0  0  0  0  0  0  0  0  0
   10.3775   -1.3830    2.6797 C   0  0  0  0  0  0  0  0  0  0  0  0
    9.9202   -2.6578    3.0164 C   0  0  0  0  0  0  0  0  0  0  0  0
    8.8033   -2.7965    3.8444 C   0  0  0  0  0  0  0  0  0  0  0  0
    8.1182   -1.6832    4.3537 C   0  0  0  0  0  0  0  0  0  0  0  0
    6.8953   -1.8639    5.2163 C   0  0  0  0  0  0  0  0  0  0  0  0
    9.5820   -0.0287   -0.3837 H   0  0  0  0  0  0  0  0  0  0  0  0
    8.5102   -0.1880   -1.8294 H   0  0  0  0  0  0  0  0  0  0  0  0
    8.3330   -1.3216   -0.4558 H   0  0  0  0  0  0  0  0  0  0  0  0
    6.1308    3.1986   -0.7779 H   0  0  0  0  0  0  0  0  0  0  0  0
    4.6513    3.4311    0.1721 H   0  0  0  0  0  0  0  0  0  0  0  0
    4.8261    1.7181   -2.3894 H   0  0  0  0  0  0  0  0  0  0  0  0
    4.2473    3.3905   -2.2960 H   0  0  0  0  0  0  0  0  0  0  0  0
    1.7657   -0.3320   -1.7496 H   0  0  0  0  0  0  0  0  0  0  0  0
    3.5619   -0.3832   -1.7233 H   0  0  0  0  0  0  0  0  0  0  0  0
    2.6884    0.2109   -3.1823 H   0  0  0  0  0  0  0  0  0  0  0  0
    6.5959    2.7566    1.6850 H   0  0  0  0  0  0  0  0  0  0  0  0
    5.5794    3.2411    3.9589 H   0  0  0  0  0  0  0  0  0  0  0  0
    6.4995    4.1560    6.0727 H   0  0  0  0  0  0  0  0  0  0  0  0
    8.4093    2.3293    8.4016 H   0  0  0  0  0  0  0  0  0  0  0  0
    7.9408    3.9784    7.9468 H   0  0  0  0  0  0  0  0  0  0  0  0
    9.9857    4.3355    5.7537 H   0  0  0  0  0  0  0  0  0  0  0  0
   10.1437    5.9989    8.3383 H   0  0  0  0  0  0  0  0  0  0  0  0
    8.7380    5.8886    7.2403 H   0  0  0  0  0  0  0  0  0  0  0  0
   10.2432    6.6371    6.6815 H   0  0  0  0  0  0  0  0  0  0  0  0
   12.1728    5.2282    6.0211 H   0  0  0  0  0  0  0  0  0  0  0  0
   12.6648    3.0635    8.9308 H   0  0  0  0  0  0  0  0  0  0  0  0
   11.3602    4.1062    9.5404 H   0  0  0  0  0  0  0  0  0  0  0  0
   13.5149    4.0041   10.9665 H   0  0  0  0  0  0  0  0  0  0  0  0
   14.4517    5.2535    8.6471 H   0  0  0  0  0  0  0  0  0  0  0  0
   12.0112    5.9093   11.3427 H   0  0  0  0  0  0  0  0  0  0  0  0
   12.6357    6.7348    9.8903 H   0  0  0  0  0  0  0  0  0  0  0  0
   14.7474    6.4414   11.0567 H   0  0  0  0  0  0  0  0  0  0  0  0
   12.1100    2.3121    6.9248 H   0  0  0  0  0  0  0  0  0  0  0  0
   10.9444    2.7406    4.7331 H   0  0  0  0  0  0  0  0  0  0  0  0
   12.3354    1.6761    4.6415 H   0  0  0  0  0  0  0  0  0  0  0  0
   12.3142    4.6410    3.8119 H   0  0  0  0  0  0  0  0  0  0  0  0
   12.3603    3.2483    2.7356 H   0  0  0  0  0  0  0  0  0  0  0  0
   14.6497    4.2726    3.0769 H   0  0  0  0  0  0  0  0  0  0  0  0
   14.5811    2.5801    3.5823 H   0  0  0  0  0  0  0  0  0  0  0  0
   14.4584    5.0316    5.4333 H   0  0  0  0  0  0  0  0  0  0  0  0
   15.7869    3.8820    5.3026 H   0  0  0  0  0  0  0  0  0  0  0  0
   14.3955    3.3744    7.3086 H   0  0  0  0  0  0  0  0  0  0  0  0
   14.3690    2.0417    6.1574 H   0  0  0  0  0  0  0  0  0  0  0  0
    9.2868    0.8772    6.2483 H   0  0  0  0  0  0  0  0  0  0  0  0
   10.0655    0.7407    2.9251 H   0  0  0  0  0  0  0  0  0  0  0  0
   11.2537   -1.2586    2.0378 H   0  0  0  0  0  0  0  0  0  0  0  0
   10.4322   -3.5466    2.6382 H   0  0  0  0  0  0  0  0  0  0  0  0
    8.4463   -3.7973    4.1032 H   0  0  0  0  0  0  0  0  0  0  0  0
    6.7282   -2.9245    5.4543 H   0  0  0  0  0  0  0  0  0  0  0  0
    6.0103   -1.4809    4.6839 H   0  0  0  0  0  0  0  0  0  0  0  0
    6.9756   -1.3087    6.1647 H   0  0  0  0  0  0  0  0  0  0  0  0
  1  2  1  0
  1 44  1  0
  1 45  1  0
  1 46  1  0
  2  3  1  0
  3  4  2  0
  3  5  1  0
  5  6  1  1
  5  7  1  0
  5 11  1  0
  7  8  1  0
  7 47  1  0
  7 48  1  0
  8  9  1  0
  8 49  1  0
  8 50  1  0
  9 10  1  0
 10 51  1  0
 10 52  1  0
 10 53  1  0
 11 12  1  0
 11 54  1  0
 12 13  2  0
 12 14  1  0
 14 15  2  0
 14 36  1  0
 15 16  1  0
 15 55  1  0
 16 17  2  0
 16 56  1  0
 17 18  1  0
 17 35  1  0
 18 19  1  0
 18 57  1  0
 18 58  1  0
 19 20  1  0
 20 21  1  0
 20 22  1  0
 20 59  1  6
 21 60  1  0
 21 61  1  0
 21 62  1  0
 22 23  1  0
 22 29  1  0
 22 63  1  6
 23 24  1  0
 24 25  1  0
 24 64  1  0
 24 65  1  0
 25 26  1  0
 25 27  1  0
 25 66  1  1
 26 67  1  0
 27 28  1  0
 27 68  1  0
 27 69  1  0
 28 70  1  0
 29 30  1  0
 29 34  1  0
 29 71  1  1
 30 31  1  0
 30 72  1  0
 30 73  1  0
 31 32  1  0
 31 74  1  0
 31 75  1  0
 32 33  1  0
 32 76  1  0
 32 77  1  0
 33 34  1  0
 33 78  1  0
 33 79  1  0
 34 80  1  0
 34 81  1  0
 35 36  2  0
 35 82  1  0
 36 37  1  0
 37 38  2  0
 37 42  1  0
 38 39  1  0
 38 83  1  0
 39 40  2  0
 39 84  1  0
 40 41  1  0
 40 85  1  0
 41 42  2  0
 41 86  1  0
 42 43  1  0
 43 87  1  0
 43 88  1  0
 43 89  1  0
M  END

