
     RDKit          3D

 73 81  0  0  0  0  0  0  0  0999 V2000
   -1.3232   -0.4226    0.1940 C   0  0  0  0  0  0  0  0  0  0  0  0
   -0.7663    0.8598    0.2478 C   0  0  0  0  0  0  0  0  0  0  0  0
    0.6071    1.0350    0.0767 C   0  0  0  0  0  0  0  0  0  0  0  0
    1.4420   -0.0731   -0.1513 C   0  0  0  0  0  0  0  0  0  0  0  0
    2.9054    0.1122   -0.3350 C   0  0  0  0  0  0  0  0  0  0  0  0
    3.3982    1.3560   -0.2702 N   0  0  0  0  0  0  0  0  0  0  0  0
    4.7205    1.4813   -0.4421 C   0  0  0  0  0  0  0  0  0  0  0  0
    5.3109    2.8438   -0.3754 C   0  0  0  0  0  0  0  0  0  0  0  0
    4.4948    3.9628   -0.1334 C   0  0  0  0  0  0  0  0  0  0  0  0
    5.0505    5.2409   -0.0715 C   0  0  0  0  0  0  0  0  0  0  0  0
    6.4268    5.4183   -0.2502 C   0  0  0  0  0  0  0  0  0  0  0  0
    7.2459    4.3099   -0.4912 C   0  0  0  0  0  0  0  0  0  0  0  0
    6.6931    3.0306   -0.5535 C   0  0  0  0  0  0  0  0  0  0  0  0
    5.5404    0.4475   -0.6703 N   0  0  0  0  0  0  0  0  0  0  0  0
    4.9702   -0.7639   -0.7201 C   0  0  0  0  0  0  0  0  0  0  0  0
    5.8419   -1.9378   -0.9709 C   0  0  0  0  0  0  0  0  0  0  0  0
    7.2269   -1.7782   -1.1515 C   0  0  0  0  0  0  0  0  0  0  0  0
    8.0430   -2.8799   -1.3899 C   0  0  0  0  0  0  0  0  0  0  0  0
    7.5110   -4.1833   -1.4589 C   0  0  0  0  0  0  0  0  0  0  0  0
    8.3857   -5.3531   -1.7229 C   0  0  0  0  0  0  0  0  0  0  0  0
    8.1088   -6.6258   -1.1535 C   0  0  0  0  0  0  0  0  0  0  0  0
    8.9373   -7.7099   -1.3656 C   0  0  0  0  0  0  0  0  0  0  0  0
   10.1096   -7.6215   -2.1698 C   0  0  0  0  0  0  0  0  0  0  0  0
   10.3253   -6.3706   -2.8360 C   0  0  0  0  0  0  0  0  0  0  0  0
   11.3569   -6.2791   -3.8159 C   0  0  0  0  0  0  0  0  0  0  0  0
   12.0595   -7.3906   -4.1883 C   0  0  0  0  0  0  0  0  0  0  0  0
   11.8803   -8.6520   -3.5359 C   0  0  0  0  0  0  0  0  0  0  0  0
   12.5519   -9.8542   -4.0352 C   0  0  0  0  0  0  0  0  0  0  0  0
   13.2945   -9.8446   -5.2420 C   0  0  0  0  0  0  0  0  0  0  0  0
   13.8413  -11.0021   -5.7716 C   0  0  0  0  0  0  0  0  0  0  0  0
   13.6564  -12.2268   -5.1096 C   0  0  0  0  0  0  0  0  0  0  0  0
   12.9464  -12.2619   -3.9204 C   0  0  0  0  0  0  0  0  0  0  0  0
   12.3969  -11.0908   -3.3471 C   0  0  0  0  0  0  0  0  0  0  0  0
   11.7318  -11.1018   -2.0441 C   0  0  0  0  0  0  0  0  0  0  0  0
   11.7751  -12.2406   -1.2053 C   0  0  0  0  0  0  0  0  0  0  0  0
   11.2656  -12.2213    0.0829 C   0  0  0  0  0  0  0  0  0  0  0  0
   10.7270  -11.0301    0.5926 C   0  0  0  0  0  0  0  0  0  0  0  0
   10.6499   -9.9076   -0.2168 C   0  0  0  0  0  0  0  0  0  0  0  0
   11.0909   -9.9192   -1.5658 C   0  0  0  0  0  0  0  0  0  0  0  0
   11.0143   -8.7313   -2.4229 C   0  0  0  0  0  0  0  0  0  0  0  0
    9.4850   -5.2622   -2.5680 C   0  0  0  0  0  0  0  0  0  0  0  0
    6.1222   -4.3339   -1.2716 C   0  0  0  0  0  0  0  0  0  0  0  0
    5.3025   -3.2342   -1.0339 C   0  0  0  0  0  0  0  0  0  0  0  0
    3.6573   -0.9735   -0.5558 N   0  0  0  0  0  0  0  0  0  0  0  0
    0.8744   -1.3584   -0.2041 C   0  0  0  0  0  0  0  0  0  0  0  0
   -0.4992   -1.5305   -0.0322 C   0  0  0  0  0  0  0  0  0  0  0  0
   -2.3996   -0.5586    0.3281 H   0  0  0  0  0  0  0  0  0  0  0  0
   -1.4069    1.7277    0.4240 H   0  0  0  0  0  0  0  0  0  0  0  0
    1.0537    2.0288    0.1166 H   0  0  0  0  0  0  0  0  0  0  0  0
    3.4239    3.8110    0.0039 H   0  0  0  0  0  0  0  0  0  0  0  0
    4.4074    6.1043    0.1171 H   0  0  0  0  0  0  0  0  0  0  0  0
    6.8610    6.4204   -0.2013 H   0  0  0  0  0  0  0  0  0  0  0  0
    8.3215    4.4443   -0.6310 H   0  0  0  0  0  0  0  0  0  0  0  0
    7.3204    2.1587   -0.7405 H   0  0  0  0  0  0  0  0  0  0  0  0
    7.6519   -0.7760   -1.0927 H   0  0  0  0  0  0  0  0  0  0  0  0
    9.1195   -2.7321   -1.4997 H   0  0  0  0  0  0  0  0  0  0  0  0
    7.2264   -6.7522   -0.5229 H   0  0  0  0  0  0  0  0  0  0  0  0
    8.6518   -8.6665   -0.9330 H   0  0  0  0  0  0  0  0  0  0  0  0
   11.5413   -5.3186   -4.3039 H   0  0  0  0  0  0  0  0  0  0  0  0
   12.7936   -7.2993   -4.9875 H   0  0  0  0  0  0  0  0  0  0  0  0
   13.4273   -8.9140   -5.7924 H   0  0  0  0  0  0  0  0  0  0  0  0
   14.4016  -10.9604   -6.7089 H   0  0  0  0  0  0  0  0  0  0  0  0
   14.0673  -13.1487   -5.5283 H   0  0  0  0  0  0  0  0  0  0  0  0
   12.8095  -13.2225   -3.4240 H   0  0  0  0  0  0  0  0  0  0  0  0
   12.2541  -13.1530   -1.5597 H   0  0  0  0  0  0  0  0  0  0  0  0
   11.3239  -13.1159    0.7078 H   0  0  0  0  0  0  0  0  0  0  0  0
   10.3869  -10.9761    1.6298 H   0  0  0  0  0  0  0  0  0  0  0  0
   10.2826   -8.9802    0.2172 H   0  0  0  0  0  0  0  0  0  0  0  0
    9.6916   -4.3271   -3.0942 H   0  0  0  0  0  0  0  0  0  0  0  0
    5.6720   -5.3265   -1.3404 H   0  0  0  0  0  0  0  0  0  0  0  0
    4.2280   -3.3632   -0.9015 H   0  0  0  0  0  0  0  0  0  0  0  0
    1.5278   -2.2130   -0.3812 H   0  0  0  0  0  0  0  0  0  0  0  0
   -0.9306   -2.5338   -0.0751 H   0  0  0  0  0  0  0  0  0  0  0  0
  1  2  2  0
  1 46  1  0
  1 47  1  0
  2  3  1  0
  2 48  1  0
  3  4  2  0
  3 49  1  0
  4  5  1  0
  4 45  1  0
  5  6  2  0
  5 44  1  0
  6  7  1  0
  7  8  1  0
  7 14  2  0
  8  9  2  0
  8 13  1  0
  9 10  1  0
  9 50  1  0
 10 11  2  0
 10 51  1  0
 11 12  1  0
 11 52  1  0
 12 13  2  0
 12 53  1  0
 13 54  1  0
 14 15  1  0
 15 16  1  0
 15 44  2  0
 16 17  2  0
 16 43  1  0
 17 18  1  0
 17 55  1  0
 18 19  2  0
 18 56  1  0
 19 20  1  0
 19 42  1  0
 20 21  2  0
 20 41  1  0
 21 22  1  0
 21 57  1  0
 22 23  2  0
 22 58  1  0
 23 24  1  0
 23 40  1  0
 24 25  1  0
 24 41  2  0
 25 26  2  0
 25 59  1  0
 26 27  1  0
 26 60  1  0
 27 28  1  0
 27 40  2  0
 28 29  2  0
 28 33  1  0
 29 30  1  0
 29 61  1  0
 30 31  2  0
 30 62  1  0
 31 32  1  0
 31 63  1  0
 32 33  2  0
 32 64  1  0
 33 34  1  0
 34 35  1  0
 34 39  2  0
 35 36  2  0
 35 65  1  0
 36 37  1  0
 36 66  1  0
 37 38  2  0
 37 67  1  0
 38 39  1  0
 38 68  1  0
 39 40  1  0
 41 69  1  0
 42 43  2  0
 42 70  1  0
 43 71  1  0
 45 46  2  0
 45 72  1  0
 46 73  1  0
M  END

