
     RDKit          3D

 43 45  0  0  0  0  0  0  0  0999 V2000
    2.0717   -0.3008    1.8458 C   0  0  0  0  0  0  0  0  0  0  0  0
    2.7919   -0.0236    0.6150 N   0  0  0  0  0  0  0  0  0  0  0  0
    2.8834   -0.8125   -0.4820 C   0  0  0  0  0  0  0  0  0  0  0  0
    2.5726   -2.1466   -0.6585 C   0  0  0  0  0  0  0  0  0  0  0  0
    2.2445   -3.1787    0.3436 C   0  0  0  0  0  0  0  0  0  0  0  0
    1.2075   -4.1092    0.1192 C   0  0  0  0  0  0  0  0  0  0  0  0
    0.9157   -5.0946    1.0618 C   0  0  0  0  0  0  0  0  0  0  0  0
    1.6453   -5.1838    2.2517 C   0  0  0  0  0  0  0  0  0  0  0  0
    2.6931   -4.2865    2.4733 C   0  0  0  0  0  0  0  0  0  0  0  0
    3.5126   -4.3329    3.7361 C   0  0  1  0  0  0  0  0  0  0  0  0
    3.1233   -5.3097    4.5704 F   0  0  0  0  0  0  0  0  0  0  0  0
    4.8216   -4.5199    3.4803 F   0  0  0  0  0  0  0  0  0  0  0  0
    3.4243   -3.1677    4.4204 F   0  0  0  0  0  0  0  0  0  0  0  0
    3.0015   -3.3101    1.5193 C   0  0  0  0  0  0  0  0  0  0  0  0
    2.6783   -2.4698   -2.0896 C   0  0  0  0  0  0  0  0  0  0  0  0
    2.3600   -3.5112   -2.6353 O   0  0  0  0  0  0  0  0  0  0  0  0
    3.2762   -1.2606   -2.8364 C   0  0  1  0  0  0  0  0  0  0  0  0
    2.5218   -0.9572   -4.1394 C   0  0  1  0  0  0  0  0  0  0  0  0
    1.0563   -0.5035   -4.0216 C   0  0  0  0  0  0  0  0  0  0  0  0
    0.7173   -0.0543   -5.4526 C   0  0  0  0  0  0  0  0  0  0  0  0
    2.0248    0.5822   -5.9999 C   0  0  0  0  0  0  0  0  0  0  0  0
    3.1531    0.1314   -5.0326 C   0  0  0  0  0  0  0  0  0  0  0  0
    3.3407   -0.1550   -1.7707 C   0  0  0  0  0  0  0  0  0  0  0  0
    1.8213    0.6557    2.3265 H   0  0  0  0  0  0  0  0  0  0  0  0
    2.6500   -0.9049    2.5636 H   0  0  0  0  0  0  0  0  0  0  0  0
    1.1341   -0.8379    1.6368 H   0  0  0  0  0  0  0  0  0  0  0  0
    3.0952    0.9336    0.4860 H   0  0  0  0  0  0  0  0  0  0  0  0
    0.6380   -4.0531   -0.8087 H   0  0  0  0  0  0  0  0  0  0  0  0
    0.1046   -5.8018    0.8712 H   0  0  0  0  0  0  0  0  0  0  0  0
    1.4102   -5.9457    2.9961 H   0  0  0  0  0  0  0  0  0  0  0  0
    3.8548   -2.6498    1.6854 H   0  0  0  0  0  0  0  0  0  0  0  0
    4.3001   -1.5648   -3.1185 H   0  0  0  0  0  0  0  0  0  0  0  0
    2.5164   -1.9103   -4.6970 H   0  0  0  0  0  0  0  0  0  0  0  0
    0.9687    0.3529   -3.3279 H   0  0  0  0  0  0  0  0  0  0  0  0
    0.3910   -1.2978   -3.6495 H   0  0  0  0  0  0  0  0  0  0  0  0
   -0.1427    0.6321   -5.4948 H   0  0  0  0  0  0  0  0  0  0  0  0
    0.4483   -0.9379   -6.0543 H   0  0  0  0  0  0  0  0  0  0  0  0
    1.9525    1.6808   -6.0323 H   0  0  0  0  0  0  0  0  0  0  0  0
    2.2207    0.2553   -7.0328 H   0  0  0  0  0  0  0  0  0  0  0  0
    3.4792    0.9823   -4.4095 H   0  0  0  0  0  0  0  0  0  0  0  0
    4.0495   -0.2337   -5.5585 H   0  0  0  0  0  0  0  0  0  0  0  0
    2.6808    0.6986   -2.0027 H   0  0  0  0  0  0  0  0  0  0  0  0
    4.3561    0.2594   -1.6453 H   0  0  0  0  0  0  0  0  0  0  0  0
  1  2  1  0
  1 24  1  0
  1 25  1  0
  1 26  1  0
  2  3  1  0
  2 27  1  0
  3  4  2  0
  3 23  1  0
  4  5  1  0
  4 15  1  0
  5  6  2  0
  5 14  1  0
  6  7  1  0
  6 28  1  0
  7  8  2  0
  7 29  1  0
  8  9  1  0
  8 30  1  0
  9 10  1  0
  9 14  2  0
 10 11  1  1
 10 12  1  0
 10 13  1  0
 14 31  1  0
 15 16  2  0
 15 17  1  0
 17 18  1  0
 17 23  1  0
 17 32  1  6
 18 19  1  0
 18 22  1  0
 18 33  1  6
 19 20  1  0
 19 34  1  0
 19 35  1  0
 20 21  1  0
 20 36  1  0
 20 37  1  0
 21 22  1  0
 21 38  1  0
 21 39  1  0
 22 40  1  0
 22 41  1  0
 23 42  1  0
 23 43  1  0
M  END

