
     RDKit          3D

 35 35  0  0  0  0  0  0  0  0999 V2000
   10.4344    1.7081   -2.6229 C   0  0  0  0  0  0  0  0  0  0  0  0
    9.7067    0.5362   -2.3760 O   0  0  0  0  0  0  0  0  0  0  0  0
    8.4606    0.4877   -3.0319 C   0  0  0  0  0  0  0  0  0  0  0  0
    7.7387   -0.7990   -2.6569 C   0  0  0  0  0  0  0  0  0  0  0  0
    7.4757   -0.9110   -1.1505 C   0  0  0  0  0  0  0  0  0  0  0  0
    6.6233   -2.1134   -0.7108 C   0  0  0  0  0  0  0  0  0  0  0  0
    7.1335   -3.4085   -1.1552 N   0  0  0  0  0  0  0  0  0  0  0  0
    8.1405   -4.1043   -0.3923 C   0  0  0  0  0  0  0  0  0  0  0  0
    7.5114   -5.3655    0.2342 C   0  0  0  0  0  0  0  0  0  0  0  0
    6.8463   -6.1527   -0.7775 N   0  0  0  0  0  0  0  0  0  0  0  0
    5.8178   -5.4447   -1.5156 C   0  0  2  0  0  0  0  0  0  0  0  0
    5.1816   -6.3301   -2.5815 C   0  0  0  0  0  0  0  0  0  0  0  0
    6.4465   -4.1790   -2.1602 C   0  0  0  0  0  0  0  0  0  0  0  0
   11.3815    1.6428   -2.0671 H   0  0  0  0  0  0  0  0  0  0  0  0
    9.8907    2.6150   -2.2867 H   0  0  0  0  0  0  0  0  0  0  0  0
   10.6671    1.8344   -3.7006 H   0  0  0  0  0  0  0  0  0  0  0  0
    8.5995    0.5364   -4.1331 H   0  0  0  0  0  0  0  0  0  0  0  0
    7.8406    1.3664   -2.7472 H   0  0  0  0  0  0  0  0  0  0  0  0
    8.3440   -1.6541   -3.0071 H   0  0  0  0  0  0  0  0  0  0  0  0
    6.7803   -0.8435   -3.2060 H   0  0  0  0  0  0  0  0  0  0  0  0
    6.9091   -0.0171   -0.8165 H   0  0  0  0  0  0  0  0  0  0  0  0
    8.4294   -0.9006   -0.6022 H   0  0  0  0  0  0  0  0  0  0  0  0
    5.5942   -2.0198   -1.1184 H   0  0  0  0  0  0  0  0  0  0  0  0
    6.5992   -2.1610    0.4027 H   0  0  0  0  0  0  0  0  0  0  0  0
    8.5186   -3.4167    0.4041 H   0  0  0  0  0  0  0  0  0  0  0  0
    8.9569   -4.3960   -1.0740 H   0  0  0  0  0  0  0  0  0  0  0  0
    6.8394   -5.0156    1.0508 H   0  0  0  0  0  0  0  0  0  0  0  0
    8.3175   -5.9652    0.7005 H   0  0  0  0  0  0  0  0  0  0  0  0
    6.4846   -7.0436   -0.3889 H   0  0  0  0  0  0  0  0  0  0  0  0
    5.0108   -5.0623   -0.8476 H   0  0  0  0  0  0  0  0  0  0  0  0
    5.9359   -6.7110   -3.2873 H   0  0  0  0  0  0  0  0  0  0  0  0
    4.4134   -5.7632   -3.1379 H   0  0  0  0  0  0  0  0  0  0  0  0
    4.6915   -7.1930   -2.0987 H   0  0  0  0  0  0  0  0  0  0  0  0
    5.6479   -3.5359   -2.6195 H   0  0  0  0  0  0  0  0  0  0  0  0
    7.1731   -4.4924   -2.9273 H   0  0  0  0  0  0  0  0  0  0  0  0
  1  2  1  0
  1 14  1  0
  1 15  1  0
  1 16  1  0
  2  3  1  0
  3  4  1  0
  3 17  1  0
  3 18  1  0
  4  5  1  0
  4 19  1  0
  4 20  1  0
  5  6  1  0
  5 21  1  0
  5 22  1  0
  6  7  1  0
  6 23  1  0
  6 24  1  0
  7  8  1  0
  7 13  1  0
  8  9  1  0
  8 25  1  0
  8 26  1  0
  9 10  1  0
  9 27  1  0
  9 28  1  0
 10 11  1  0
 10 29  1  0
 11 12  1  0
 11 13  1  0
 11 30  1  1
 12 31  1  0
 12 32  1  0
 12 33  1  0
 13 34  1  0
 13 35  1  0
M  END

