
     RDKit          3D

 49 51  0  0  0  0  0  0  0  0999 V2000
    1.0002    0.2145    0.1895 C   0  0  0  0  0  0  0  0  0  0  0  0
    2.5289    0.2679   -0.0118 C   0  0  1  0  0  0  0  0  0  0  0  0
    2.9465    1.6392   -0.5710 C   0  0  0  0  0  0  0  0  0  0  0  0
    3.2546    0.0006    1.3323 C   0  0  0  0  0  0  0  0  0  0  0  0
    2.8893    0.9269    2.3806 N   0  0  0  0  0  0  0  0  0  0  0  0
    3.2219    0.7519    3.7087 C   0  0  0  0  0  0  0  0  0  0  0  0
    3.8746   -0.4229    4.1723 C   0  0  0  0  0  0  0  0  0  0  0  0
    4.2422   -0.5012    5.5079 C   0  0  0  0  0  0  0  0  0  0  0  0
    3.8433    0.4865    6.3089 N   0  0  0  0  0  0  0  0  0  0  0  0
    3.3623    1.6996    5.9987 C   0  0  0  0  0  0  0  0  0  0  0  0
    3.2082    2.7567    6.9157 C   0  0  0  0  0  0  0  0  0  0  0  0
    2.5615    3.9370    6.4785 C   0  0  0  0  0  0  0  0  0  0  0  0
    2.3600    5.2387    7.6319 Cl  0  0  0  0  0  0  0  0  0  0  0  0
    2.0729    4.0733    5.1920 C   0  0  0  0  0  0  0  0  0  0  0  0
    2.2437    3.0144    4.2673 C   0  0  0  0  0  0  0  0  0  0  0  0
    2.9291    1.8294    4.6203 C   0  0  0  0  0  0  0  0  0  0  0  0
    3.0301   -0.7960   -0.9021 N   0  0  0  0  0  0  0  0  0  0  0  0
    2.5661   -0.8441   -2.2809 C   0  0  0  0  0  0  0  0  0  0  0  0
    3.2497   -1.9508   -3.0626 C   0  0  0  0  0  0  0  0  0  0  0  0
    2.5433   -2.6890   -4.0213 C   0  0  0  0  0  0  0  0  0  0  0  0
    3.1757   -3.6802   -4.7763 C   0  0  0  0  0  0  0  0  0  0  0  0
    4.5315   -3.9498   -4.5745 C   0  0  0  0  0  0  0  0  0  0  0  0
    5.2360   -5.0284   -5.3576 C   0  0  1  0  0  0  0  0  0  0  0  0
    4.4608   -5.5435   -6.3268 F   0  0  0  0  0  0  0  0  0  0  0  0
    6.3563   -4.5631   -5.9427 F   0  0  0  0  0  0  0  0  0  0  0  0
    5.6136   -6.0505   -4.5641 F   0  0  0  0  0  0  0  0  0  0  0  0
    5.2489   -3.2228   -3.6140 C   0  0  0  0  0  0  0  0  0  0  0  0
    4.6119   -2.2348   -2.8664 C   0  0  0  0  0  0  0  0  0  0  0  0
    0.6688    0.9526    0.9346 H   0  0  0  0  0  0  0  0  0  0  0  0
    0.6910   -0.7807    0.5498 H   0  0  0  0  0  0  0  0  0  0  0  0
    0.4649    0.4185   -0.7507 H   0  0  0  0  0  0  0  0  0  0  0  0
    2.6672    2.4550    0.1139 H   0  0  0  0  0  0  0  0  0  0  0  0
    2.4434    1.8581   -1.5246 H   0  0  0  0  0  0  0  0  0  0  0  0
    4.0340    1.6770   -0.7380 H   0  0  0  0  0  0  0  0  0  0  0  0
    4.3446   -0.0111    1.1319 H   0  0  0  0  0  0  0  0  0  0  0  0
    2.9837   -1.0168    1.6636 H   0  0  0  0  0  0  0  0  0  0  0  0
    2.8401    1.9013    2.0989 H   0  0  0  0  0  0  0  0  0  0  0  0
    4.1258   -1.2492    3.5098 H   0  0  0  0  0  0  0  0  0  0  0  0
    4.8028   -1.3329    5.9400 H   0  0  0  0  0  0  0  0  0  0  0  0
    3.5729    2.6585    7.9355 H   0  0  0  0  0  0  0  0  0  0  0  0
    1.5480    4.9834    4.8997 H   0  0  0  0  0  0  0  0  0  0  0  0
    1.7725    3.0918    3.2860 H   0  0  0  0  0  0  0  0  0  0  0  0
    2.8628   -1.7034   -0.4666 H   0  0  0  0  0  0  0  0  0  0  0  0
    2.8093    0.1168   -2.7667 H   0  0  0  0  0  0  0  0  0  0  0  0
    1.4677   -0.9662   -2.3869 H   0  0  0  0  0  0  0  0  0  0  0  0
    1.4801   -2.4892   -4.1821 H   0  0  0  0  0  0  0  0  0  0  0  0
    2.6141   -4.2473   -5.5201 H   0  0  0  0  0  0  0  0  0  0  0  0
    6.3099   -3.4297   -3.4548 H   0  0  0  0  0  0  0  0  0  0  0  0
    5.1621   -1.6717   -2.1103 H   0  0  0  0  0  0  0  0  0  0  0  0
  1  2  1  0
  1 29  1  0
  1 30  1  0
  1 31  1  0
  2  3  1  0
  2  4  1  0
  2 17  1  6
  3 32  1  0
  3 33  1  0
  3 34  1  0
  4  5  1  0
  4 35  1  0
  4 36  1  0
  5  6  1  0
  5 37  1  0
  6  7  2  0
  6 16  1  0
  7  8  1  0
  7 38  1  0
  8  9  2  0
  8 39  1  0
  9 10  1  0
 10 11  1  0
 10 16  2  0
 11 12  2  0
 11 40  1  0
 12 13  1  0
 12 14  1  0
 14 15  2  0
 14 41  1  0
 15 16  1  0
 15 42  1  0
 17 18  1  0
 17 43  1  0
 18 19  1  0
 18 44  1  0
 18 45  1  0
 19 20  2  0
 19 28  1  0
 20 21  1  0
 20 46  1  0
 21 22  2  0
 21 47  1  0
 22 23  1  0
 22 27  1  0
 23 24  1  6
 23 25  1  0
 23 26  1  0
 27 28  2  0
 27 48  1  0
 28 49  1  0
M  END

