
     RDKit          3D

 36 36  0  0  0  0  0  0  0  0999 V2000
    0.7607   -0.0674   -0.3616 C   0  0  0  0  0  0  0  0  0  0  0  0
    2.2701   -0.1088   -0.0981 C   0  0  1  0  0  0  0  0  0  0  0  0
    2.9022   -1.3608   -0.7260 C   0  0  0  0  0  0  0  0  0  0  0  0
    4.4019   -1.5638   -0.4462 C   0  0  0  0  0  0  0  0  0  0  0  0
    5.3507   -0.7507   -1.3183 C   0  0  0  0  0  0  0  0  0  0  0  0
    6.1059   -1.3095   -2.1045 O   0  0  0  0  0  0  0  0  0  0  0  0
    5.3121    0.6198   -1.1931 N   0  0  0  0  0  0  0  0  0  0  0  0
    6.2689    1.4080   -1.9581 C   0  0  0  0  0  0  0  0  0  0  0  0
    7.3830    2.0425   -1.1031 C   0  0  0  0  0  0  0  0  0  0  0  0
    7.9909    1.1779   -0.1802 O   0  0  0  0  0  0  0  0  0  0  0  0
    8.8061    0.1490   -0.7126 C   0  0  0  0  0  0  0  0  0  0  0  0
    9.4574   -0.5851    0.4475 C   0  0  0  0  0  0  0  0  0  0  0  0
    8.2637   -1.3825    1.5948 S   0  0  0  0  0  0  0  0  0  0  0  0
    4.4400    1.3141   -0.2480 C   0  0  0  0  0  0  0  0  0  0  0  0
    2.9373    1.2026   -0.5412 C   0  0  0  0  0  0  0  0  0  0  0  0
    0.2638   -0.9790    0.0075 H   0  0  0  0  0  0  0  0  0  0  0  0
    0.5498    0.0119   -1.4417 H   0  0  0  0  0  0  0  0  0  0  0  0
    0.2882    0.7964    0.1335 H   0  0  0  0  0  0  0  0  0  0  0  0
    2.4192   -0.1889    0.9970 H   0  0  0  0  0  0  0  0  0  0  0  0
    2.7317   -1.3582   -1.8181 H   0  0  0  0  0  0  0  0  0  0  0  0
    2.3634   -2.2431   -0.3410 H   0  0  0  0  0  0  0  0  0  0  0  0
    4.6794   -2.6074   -0.6429 H   0  0  0  0  0  0  0  0  0  0  0  0
    4.6232   -1.3705    0.6182 H   0  0  0  0  0  0  0  0  0  0  0  0
    5.7486    2.2228   -2.4945 H   0  0  0  0  0  0  0  0  0  0  0  0
    6.6918    0.7332   -2.7126 H   0  0  0  0  0  0  0  0  0  0  0  0
    6.9743    2.8708   -0.5008 H   0  0  0  0  0  0  0  0  0  0  0  0
    8.1306    2.4877   -1.7938 H   0  0  0  0  0  0  0  0  0  0  0  0
    9.6005    0.5886   -1.3536 H   0  0  0  0  0  0  0  0  0  0  0  0
    8.2163   -0.5544   -1.3260 H   0  0  0  0  0  0  0  0  0  0  0  0
   10.1056    0.0973    1.0190 H   0  0  0  0  0  0  0  0  0  0  0  0
   10.0840   -1.4032    0.0615 H   0  0  0  0  0  0  0  0  0  0  0  0
    7.6260   -0.2350    1.9182 H   0  0  0  0  0  0  0  0  0  0  0  0
    4.7216    2.3758   -0.2837 H   0  0  0  0  0  0  0  0  0  0  0  0
    4.6476    0.9864    0.7868 H   0  0  0  0  0  0  0  0  0  0  0  0
    2.7752    1.3640   -1.6225 H   0  0  0  0  0  0  0  0  0  0  0  0
    2.4310    2.0365   -0.0240 H   0  0  0  0  0  0  0  0  0  0  0  0
  1  2  1  0
  1 16  1  0
  1 17  1  0
  1 18  1  0
  2  3  1  0
  2 15  1  0
  2 19  1  1
  3  4  1  0
  3 20  1  0
  3 21  1  0
  4  5  1  0
  4 22  1  0
  4 23  1  0
  5  6  2  0
  5  7  1  0
  7  8  1  0
  7 14  1  0
  8  9  1  0
  8 24  1  0
  8 25  1  0
  9 10  1  0
  9 26  1  0
  9 27  1  0
 10 11  1  0
 11 12  1  0
 11 28  1  0
 11 29  1  0
 12 13  1  0
 12 30  1  0
 12 31  1  0
 13 32  1  0
 14 15  1  0
 14 33  1  0
 14 34  1  0
 15 35  1  0
 15 36  1  0
M  END

