
     RDKit          3D

 47 47  0  0  0  0  0  0  0  0999 V2000
    1.3325   -0.4543    0.6461 C   0  0  0  0  0  0  0  0  0  0  0  0
    2.7541   -0.2766    0.1131 C   0  0  0  0  0  0  0  0  0  0  0  0
    2.9877    1.1018   -0.4874 C   0  0  0  0  0  0  0  0  0  0  0  0
    4.3252    1.1660   -0.9475 O   0  0  0  0  0  0  0  0  0  0  0  0
    4.7877    2.3057   -1.5243 C   0  0  0  0  0  0  0  0  0  0  0  0
    4.0323    3.4729   -1.7054 C   0  0  0  0  0  0  0  0  0  0  0  0
    4.6205    4.5885   -2.3138 C   0  0  0  0  0  0  0  0  0  0  0  0
    5.9485    4.5861   -2.7543 C   0  0  0  0  0  0  0  0  0  0  0  0
    6.5487    5.8565   -3.3479 C   0  0  1  0  0  0  0  0  0  0  0  0
    7.2441    6.7237   -2.3840 N   0  0  0  0  0  0  0  0  0  0  0  0
    8.2015    6.1119   -1.4767 C   0  0  0  0  0  0  0  0  0  0  0  0
    7.4465    5.6248   -4.5832 C   0  0  1  0  0  0  0  0  0  0  0  0
    6.7653    4.7584   -5.4294 O   0  0  0  0  0  0  0  0  0  0  0  0
    7.4806    4.3316   -6.5753 C   0  0  0  0  0  0  0  0  0  0  0  0
    6.6003    3.3863   -7.3710 C   0  0  0  0  0  0  0  0  0  0  0  0
    7.6775    6.8404   -5.2559 O   0  0  0  0  0  0  0  0  0  0  0  0
    8.9120    7.4959   -5.0251 C   0  0  0  0  0  0  0  0  0  0  0  0
    9.0092    8.6820   -5.9670 C   0  0  0  0  0  0  0  0  0  0  0  0
    6.6871    3.4031   -2.5645 C   0  0  0  0  0  0  0  0  0  0  0  0
    6.1231    2.2826   -1.9636 C   0  0  0  0  0  0  0  0  0  0  0  0
    1.1931   -1.4586    1.0747 H   0  0  0  0  0  0  0  0  0  0  0  0
    0.5812   -0.3282   -0.1514 H   0  0  0  0  0  0  0  0  0  0  0  0
    1.1015    0.2779    1.4379 H   0  0  0  0  0  0  0  0  0  0  0  0
    2.9740   -1.0338   -0.6584 H   0  0  0  0  0  0  0  0  0  0  0  0
    3.4902   -0.4333    0.9196 H   0  0  0  0  0  0  0  0  0  0  0  0
    2.8049    1.8892    0.2701 H   0  0  0  0  0  0  0  0  0  0  0  0
    2.2852    1.2837   -1.3243 H   0  0  0  0  0  0  0  0  0  0  0  0
    2.9911    3.5259   -1.3866 H   0  0  0  0  0  0  0  0  0  0  0  0
    4.0128    5.4881   -2.4545 H   0  0  0  0  0  0  0  0  0  0  0  0
    5.7177    6.4590   -3.7462 H   0  0  0  0  0  0  0  0  0  0  0  0
    6.5567    7.2526   -1.8531 H   0  0  0  0  0  0  0  0  0  0  0  0
    9.0423    5.6732   -2.0395 H   0  0  0  0  0  0  0  0  0  0  0  0
    7.7904    5.3135   -0.8264 H   0  0  0  0  0  0  0  0  0  0  0  0
    8.6281    6.8937   -0.8281 H   0  0  0  0  0  0  0  0  0  0  0  0
    8.4304    5.1876   -4.2951 H   0  0  0  0  0  0  0  0  0  0  0  0
    8.4181    3.8245   -6.2633 H   0  0  0  0  0  0  0  0  0  0  0  0
    7.7702    5.2057   -7.1856 H   0  0  0  0  0  0  0  0  0  0  0  0
    6.3182    2.5110   -6.7655 H   0  0  0  0  0  0  0  0  0  0  0  0
    7.1277    3.0347   -8.2717 H   0  0  0  0  0  0  0  0  0  0  0  0
    5.6761    3.8956   -7.6851 H   0  0  0  0  0  0  0  0  0  0  0  0
    9.7543    6.7940   -5.2015 H   0  0  0  0  0  0  0  0  0  0  0  0
    8.9717    7.8298   -3.9747 H   0  0  0  0  0  0  0  0  0  0  0  0
    8.9619    8.3562   -7.0181 H   0  0  0  0  0  0  0  0  0  0  0  0
    9.9571    9.2212   -5.8111 H   0  0  0  0  0  0  0  0  0  0  0  0
    8.1784    9.3826   -5.7903 H   0  0  0  0  0  0  0  0  0  0  0  0
    7.7244    3.3454   -2.9032 H   0  0  0  0  0  0  0  0  0  0  0  0
    6.6980    1.3650   -1.8218 H   0  0  0  0  0  0  0  0  0  0  0  0
  1  2  1  0
  1 21  1  0
  1 22  1  0
  1 23  1  0
  2  3  1  0
  2 24  1  0
  2 25  1  0
  3  4  1  0
  3 26  1  0
  3 27  1  0
  4  5  1  0
  5  6  2  0
  5 20  1  0
  6  7  1  0
  6 28  1  0
  7  8  2  0
  7 29  1  0
  8  9  1  0
  8 19  1  0
  9 10  1  0
  9 12  1  0
  9 30  1  6
 10 11  1  0
 10 31  1  0
 11 32  1  0
 11 33  1  0
 11 34  1  0
 12 13  1  0
 12 16  1  0
 12 35  1  1
 13 14  1  0
 14 15  1  0
 14 36  1  0
 14 37  1  0
 15 38  1  0
 15 39  1  0
 15 40  1  0
 16 17  1  0
 17 18  1  0
 17 41  1  0
 17 42  1  0
 18 43  1  0
 18 44  1  0
 18 45  1  0
 19 20  2  0
 19 46  1  0
 20 47  1  0
M  END

