
     RDKit          3D

 47 48  0  0  0  0  0  0  0  0999 V2000
    1.3774   -0.2736   -0.0160 C   0  0  0  0  0  0  0  0  0  0  0  0
    2.8944   -0.1072   -0.1145 C   0  0  0  0  0  0  0  0  0  0  0  0
    3.3368    0.7521   -1.3130 C   0  0  1  0  0  0  0  0  0  0  0  0
    2.8009    2.1204   -1.3629 N   0  0  0  0  0  0  0  0  0  0  0  0
    2.8801    2.9795   -0.1717 C   0  0  1  0  0  0  0  0  0  0  0  0
    4.3294    3.3488    0.1829 C   0  0  0  0  0  0  0  0  0  0  0  0
    2.0461    4.2312   -0.4171 C   0  0  0  0  0  0  0  0  0  0  0  0
    1.1374    4.6855    0.5499 C   0  0  0  0  0  0  0  0  0  0  0  0
    0.3948    5.8533    0.3471 C   0  0  0  0  0  0  0  0  0  0  0  0
    0.5482    6.5846   -0.8335 C   0  0  0  0  0  0  0  0  0  0  0  0
    1.4488    6.1397   -1.8073 C   0  0  0  0  0  0  0  0  0  0  0  0
    2.1909    4.9743   -1.6006 C   0  0  0  0  0  0  0  0  0  0  0  0
    4.8756    0.7123   -1.4887 C   0  0  0  0  0  0  0  0  0  0  0  0
    5.5692    0.2080   -0.6221 O   0  0  0  0  0  0  0  0  0  0  0  0
    5.4922    1.2248   -2.7541 C   0  0  0  0  0  0  0  0  0  0  0  0
    6.8762    1.0619   -2.9096 C   0  0  0  0  0  0  0  0  0  0  0  0
    7.5119    1.4817   -4.0800 C   0  0  0  0  0  0  0  0  0  0  0  0
    6.7722    2.0648   -5.1125 C   0  0  0  0  0  0  0  0  0  0  0  0
    7.2916    2.5213   -6.2858 O   0  0  0  0  0  0  0  0  0  0  0  0
    8.6781    2.4107   -6.5196 C   0  0  0  0  0  0  0  0  0  0  0  0
    5.3669    2.2383   -4.9818 C   0  0  0  0  0  0  0  0  0  0  0  0
    4.6572    2.7783   -6.0440 N   0  0  0  0  0  0  0  0  0  0  0  0
    4.7536    1.8170   -3.7985 C   0  0  0  0  0  0  0  0  0  0  0  0
    1.1031   -0.9138    0.8373 H   0  0  0  0  0  0  0  0  0  0  0  0
    0.9632   -0.7424   -0.9253 H   0  0  0  0  0  0  0  0  0  0  0  0
    0.8605    0.6904    0.1210 H   0  0  0  0  0  0  0  0  0  0  0  0
    3.3748   -1.0936   -0.2075 H   0  0  0  0  0  0  0  0  0  0  0  0
    3.2992    0.3175    0.8182 H   0  0  0  0  0  0  0  0  0  0  0  0
    2.9430    0.2674   -2.2258 H   0  0  0  0  0  0  0  0  0  0  0  0
    1.8323    2.0870   -1.6732 H   0  0  0  0  0  0  0  0  0  0  0  0
    2.4471    2.4813    0.7201 H   0  0  0  0  0  0  0  0  0  0  0  0
    4.8310    3.8261   -0.6729 H   0  0  0  0  0  0  0  0  0  0  0  0
    4.9134    2.4656    0.4773 H   0  0  0  0  0  0  0  0  0  0  0  0
    4.3373    4.0546    1.0275 H   0  0  0  0  0  0  0  0  0  0  0  0
    1.0091    4.1155    1.4750 H   0  0  0  0  0  0  0  0  0  0  0  0
   -0.3090    6.1895    1.1133 H   0  0  0  0  0  0  0  0  0  0  0  0
   -0.0326    7.4963   -0.9957 H   0  0  0  0  0  0  0  0  0  0  0  0
    1.5749    6.7069   -2.7337 H   0  0  0  0  0  0  0  0  0  0  0  0
    2.8925    4.6265   -2.3621 H   0  0  0  0  0  0  0  0  0  0  0  0
    7.4416    0.5981   -2.1004 H   0  0  0  0  0  0  0  0  0  0  0  0
    8.5896    1.3505   -4.1822 H   0  0  0  0  0  0  0  0  0  0  0  0
    8.8646    2.8373   -7.5144 H   0  0  0  0  0  0  0  0  0  0  0  0
    9.0100    1.3573   -6.5136 H   0  0  0  0  0  0  0  0  0  0  0  0
    9.2658    2.9727   -5.7717 H   0  0  0  0  0  0  0  0  0  0  0  0
    5.2130    3.3059   -6.7072 H   0  0  0  0  0  0  0  0  0  0  0  0
    3.7666    3.2040   -5.8173 H   0  0  0  0  0  0  0  0  0  0  0  0
    3.6839    1.9855   -3.6761 H   0  0  0  0  0  0  0  0  0  0  0  0
  1  2  1  0
  1 24  1  0
  1 25  1  0
  1 26  1  0
  2  3  1  0
  2 27  1  0
  2 28  1  0
  3  4  1  0
  3 13  1  0
  3 29  1  6
  4  5  1  0
  4 30  1  0
  5  6  1  0
  5  7  1  0
  5 31  1  1
  6 32  1  0
  6 33  1  0
  6 34  1  0
  7  8  2  0
  7 12  1  0
  8  9  1  0
  8 35  1  0
  9 10  2  0
  9 36  1  0
 10 11  1  0
 10 37  1  0
 11 12  2  0
 11 38  1  0
 12 39  1  0
 13 14  2  0
 13 15  1  0
 15 16  2  0
 15 23  1  0
 16 17  1  0
 16 40  1  0
 17 18  2  0
 17 41  1  0
 18 19  1  0
 18 21  1  0
 19 20  1  0
 20 42  1  0
 20 43  1  0
 20 44  1  0
 21 22  1  0
 21 23  2  0
 22 45  1  0
 22 46  1  0
 23 47  1  0
M  END

