
     RDKit          3D

 53 56  0  0  0  0  0  0  0  0999 V2000
    3.4680    0.5192   -0.2613 C   0  0  0  0  0  0  0  0  0  0  0  0
    4.7460    0.6960   -1.0914 C   0  0  1  0  0  0  0  0  0  0  0  0
    5.2679   -0.6277   -1.6849 C   0  0  0  0  0  0  0  0  0  0  0  0
    4.4094   -1.1430   -2.8533 C   0  0  2  0  0  0  0  0  0  0  0  0
    4.9988   -2.4037   -3.4888 C   0  0  0  0  0  0  0  0  0  0  0  0
    4.2335   -0.0278   -3.8967 C   0  0  0  0  0  0  0  0  0  0  0  0
    3.7364    1.2128   -3.3045 N   0  0  0  0  0  0  0  0  0  0  0  0
    2.4735    1.6439   -3.6395 C   0  0  0  0  0  0  0  0  0  0  0  0
    1.7236    0.9956   -4.3554 O   0  0  0  0  0  0  0  0  0  0  0  0
    2.0150    2.9930   -3.1304 C   0  0  0  0  0  0  0  0  0  0  0  0
    0.7626    3.0901   -2.5066 C   0  0  0  0  0  0  0  0  0  0  0  0
    0.3212    4.3626   -2.1481 C   0  0  0  0  0  0  0  0  0  0  0  0
    1.0061    5.4816   -2.3731 N   0  0  0  0  0  0  0  0  0  0  0  0
    2.2022    5.4098   -2.9816 C   0  0  0  0  0  0  0  0  0  0  0  0
    2.8808    6.5967   -3.1867 N   0  0  0  0  0  0  0  0  0  0  0  0
    2.2043    7.8783   -3.0202 C   0  0  0  0  0  0  0  0  0  0  0  0
    3.1183    8.8680   -2.3047 C   0  0  0  0  0  0  0  0  0  0  0  0
    4.4479    8.9868   -3.0132 C   0  0  0  0  0  0  0  0  0  0  0  0
    5.2210   10.1569   -2.9374 C   0  0  0  0  0  0  0  0  0  0  0  0
    6.4400   10.2621   -3.6056 C   0  0  0  0  0  0  0  0  0  0  0  0
    6.9020    9.1881   -4.3751 C   0  0  0  0  0  0  0  0  0  0  0  0
    6.1402    8.0240   -4.4610 C   0  0  0  0  0  0  0  0  0  0  0  0
    4.9167    7.9079   -3.7820 C   0  0  0  0  0  0  0  0  0  0  0  0
    4.1520    6.6002   -3.8863 C   0  0  0  0  0  0  0  0  0  0  0  0
    2.7404    4.1574   -3.3840 C   0  0  0  0  0  0  0  0  0  0  0  0
    4.5637    1.7335   -2.2196 C   0  0  0  0  0  0  0  0  0  0  0  0
    3.6232   -0.2119    0.5484 H   0  0  0  0  0  0  0  0  0  0  0  0
    2.6224    0.1636   -0.8707 H   0  0  0  0  0  0  0  0  0  0  0  0
    3.1611    1.4710    0.2015 H   0  0  0  0  0  0  0  0  0  0  0  0
    5.5272    1.0981   -0.4215 H   0  0  0  0  0  0  0  0  0  0  0  0
    5.3369   -1.3957   -0.8952 H   0  0  0  0  0  0  0  0  0  0  0  0
    6.2991   -0.4709   -2.0541 H   0  0  0  0  0  0  0  0  0  0  0  0
    3.4032   -1.3906   -2.4710 H   0  0  0  0  0  0  0  0  0  0  0  0
    6.0027   -2.2094   -3.9045 H   0  0  0  0  0  0  0  0  0  0  0  0
    4.3634   -2.7750   -4.3090 H   0  0  0  0  0  0  0  0  0  0  0  0
    5.0982   -3.2131   -2.7478 H   0  0  0  0  0  0  0  0  0  0  0  0
    3.5261   -0.3290   -4.6790 H   0  0  0  0  0  0  0  0  0  0  0  0
    5.2122    0.1815   -4.3721 H   0  0  0  0  0  0  0  0  0  0  0  0
    0.1525    2.2035   -2.3309 H   0  0  0  0  0  0  0  0  0  0  0  0
   -0.6504    4.4861   -1.6537 H   0  0  0  0  0  0  0  0  0  0  0  0
    1.2874    7.6915   -2.4520 H   0  0  0  0  0  0  0  0  0  0  0  0
    1.9118    8.2879   -4.0087 H   0  0  0  0  0  0  0  0  0  0  0  0
    3.2713    8.5271   -1.2644 H   0  0  0  0  0  0  0  0  0  0  0  0
    2.6306    9.8548   -2.2452 H   0  0  0  0  0  0  0  0  0  0  0  0
    4.8510   10.9988   -2.3445 H   0  0  0  0  0  0  0  0  0  0  0  0
    7.0265   11.1817   -3.5345 H   0  0  0  0  0  0  0  0  0  0  0  0
    7.8526    9.2605   -4.9095 H   0  0  0  0  0  0  0  0  0  0  0  0
    6.4992    7.1851   -5.0659 H   0  0  0  0  0  0  0  0  0  0  0  0
    4.7929    5.8066   -3.4646 H   0  0  0  0  0  0  0  0  0  0  0  0
    4.0220    6.3435   -4.9603 H   0  0  0  0  0  0  0  0  0  0  0  0
    3.6921    4.0902   -3.9082 H   0  0  0  0  0  0  0  0  0  0  0  0
    4.1158    2.6506   -1.8201 H   0  0  0  0  0  0  0  0  0  0  0  0
    5.5562    2.0020   -2.6291 H   0  0  0  0  0  0  0  0  0  0  0  0
  1  2  1  0
  1 27  1  0
  1 28  1  0
  1 29  1  0
  2  3  1  0
  2 26  1  0
  2 30  1  1
  3  4  1  0
  3 31  1  0
  3 32  1  0
  4  5  1  0
  4  6  1  0
  4 33  1  1
  5 34  1  0
  5 35  1  0
  5 36  1  0
  6  7  1  0
  6 37  1  0
  6 38  1  0
  7  8  1  0
  7 26  1  0
  8  9  2  0
  8 10  1  0
 10 11  2  0
 10 25  1  0
 11 12  1  0
 11 39  1  0
 12 13  2  0
 12 40  1  0
 13 14  1  0
 14 15  1  0
 14 25  2  0
 15 16  1  0
 15 24  1  0
 16 17  1  0
 16 41  1  0
 16 42  1  0
 17 18  1  0
 17 43  1  0
 17 44  1  0
 18 19  2  0
 18 23  1  0
 19 20  1  0
 19 45  1  0
 20 21  2  0
 20 46  1  0
 21 22  1  0
 21 47  1  0
 22 23  2  0
 22 48  1  0
 23 24  1  0
 24 49  1  0
 24 50  1  0
 25 51  1  0
 26 52  1  0
 26 53  1  0
M  END

