
     RDKit          3D

 59 62  0  0  0  0  0  0  0  0999 V2000
    3.3695    7.2364   -1.0291 C   0  0  0  0  0  0  0  0  0  0  0  0
    3.5216    6.0045   -0.2606 N   0  0  0  0  0  0  0  0  0  0  0  0
    4.3455    5.0061   -0.6816 C   0  0  0  0  0  0  0  0  0  0  0  0
    4.4937    3.8281    0.0118 C   0  0  0  0  0  0  0  0  0  0  0  0
    5.4431    2.7323   -0.4157 C   0  0  1  0  0  0  0  0  0  0  0  0
    5.8315    2.7225   -1.8935 C   0  0  0  0  0  0  0  0  0  0  0  0
    6.6919    1.4918   -2.2799 C   0  0  1  0  0  0  0  0  0  0  0  0
    5.9380    0.1665   -2.1505 C   0  0  0  0  0  0  0  0  0  0  0  0
    4.8276   -0.1471   -2.9526 C   0  0  0  0  0  0  0  0  0  0  0  0
    4.1586   -1.3620   -2.8097 C   0  0  0  0  0  0  0  0  0  0  0  0
    4.5673   -2.3179   -1.8601 C   0  0  0  0  0  0  0  0  0  0  0  0
    3.8509   -3.6119   -1.7099 C   0  0  0  0  0  0  0  0  0  0  0  0
    3.3099   -4.2794   -2.8246 C   0  0  0  0  0  0  0  0  0  0  0  0
    2.6364   -5.4926   -2.6829 C   0  0  0  0  0  0  0  0  0  0  0  0
    2.4782   -6.0820   -1.4217 C   0  0  0  0  0  0  0  0  0  0  0  0
    1.7581   -7.4136   -1.2692 C   0  0  0  0  0  0  0  0  0  0  0  0
    2.6524   -8.5741   -1.3829 C   0  0  0  0  0  0  0  0  0  0  0  0
    3.3613   -9.4860   -1.4735 N   0  0  0  0  0  0  0  0  0  0  0  0
    3.0137   -5.4251   -0.3061 C   0  0  0  0  0  0  0  0  0  0  0  0
    3.6869   -4.2117   -0.4473 C   0  0  0  0  0  0  0  0  0  0  0  0
    5.6782   -2.0013   -1.0594 C   0  0  0  0  0  0  0  0  0  0  0  0
    6.3473   -0.7846   -1.2038 C   0  0  0  0  0  0  0  0  0  0  0  0
    7.3888    1.6412   -3.6317 C   0  0  0  0  0  0  0  0  0  0  0  0
    8.7548    1.3346   -3.7518 C   0  0  0  0  0  0  0  0  0  0  0  0
    9.4477    1.4361   -4.9587 C   0  0  0  0  0  0  0  0  0  0  0  0
    8.7635    1.8615   -6.1001 C   0  0  0  0  0  0  0  0  0  0  0  0
    9.6045    2.0018   -7.6226 Cl  0  0  0  0  0  0  0  0  0  0  0  0
    7.4061    2.1797   -6.0329 C   0  0  0  0  0  0  0  0  0  0  0  0
    6.7543    2.0609   -4.8086 C   0  0  0  0  0  0  0  0  0  0  0  0
    5.4404    2.3769   -4.7856 F   0  0  0  0  0  0  0  0  0  0  0  0
    6.7109    2.9827    0.3849 N   0  0  0  0  0  0  0  0  0  0  0  0
    6.8364    2.2684    1.3403 O   0  0  0  0  0  0  0  0  0  0  0  0
    3.7595    3.6996    1.2359 C   0  0  0  0  0  0  0  0  0  0  0  0
    2.9309    4.6909    1.6745 C   0  0  0  0  0  0  0  0  0  0  0  0
    2.7528    5.9293    0.9358 C   0  0  0  0  0  0  0  0  0  0  0  0
    2.0298    6.8636    1.2470 O   0  0  0  0  0  0  0  0  0  0  0  0
    4.0083    7.1937   -1.9202 H   0  0  0  0  0  0  0  0  0  0  0  0
    3.6444    8.1023   -0.4096 H   0  0  0  0  0  0  0  0  0  0  0  0
    2.3186    7.3691   -1.3251 H   0  0  0  0  0  0  0  0  0  0  0  0
    4.8770    5.2015   -1.6140 H   0  0  0  0  0  0  0  0  0  0  0  0
    5.0444    1.7558   -0.0953 H   0  0  0  0  0  0  0  0  0  0  0  0
    6.4180    3.6311   -2.1088 H   0  0  0  0  0  0  0  0  0  0  0  0
    4.9213    2.7689   -2.5065 H   0  0  0  0  0  0  0  0  0  0  0  0
    7.5116    1.4481   -1.5463 H   0  0  0  0  0  0  0  0  0  0  0  0
    4.4773    0.5661   -3.7004 H   0  0  0  0  0  0  0  0  0  0  0  0
    3.2854   -1.5620   -3.4350 H   0  0  0  0  0  0  0  0  0  0  0  0
    3.4377   -3.8551   -3.8228 H   0  0  0  0  0  0  0  0  0  0  0  0
    2.2358   -5.9913   -3.5700 H   0  0  0  0  0  0  0  0  0  0  0  0
    0.9711   -7.5167   -2.0343 H   0  0  0  0  0  0  0  0  0  0  0  0
    1.2547   -7.4694   -0.2901 H   0  0  0  0  0  0  0  0  0  0  0  0
    2.8964   -5.8615    0.6899 H   0  0  0  0  0  0  0  0  0  0  0  0
    4.0697   -3.7089    0.4435 H   0  0  0  0  0  0  0  0  0  0  0  0
    6.0429   -2.7250   -0.3269 H   0  0  0  0  0  0  0  0  0  0  0  0
    7.2087   -0.5733   -0.5640 H   0  0  0  0  0  0  0  0  0  0  0  0
    9.2954    1.0042   -2.8609 H   0  0  0  0  0  0  0  0  0  0  0  0
   10.5089    1.1914   -5.0170 H   0  0  0  0  0  0  0  0  0  0  0  0
    6.8513    2.5143   -6.9097 H   0  0  0  0  0  0  0  0  0  0  0  0
    3.8732    2.7837    1.8234 H   0  0  0  0  0  0  0  0  0  0  0  0
    2.3588    4.6034    2.5993 H   0  0  0  0  0  0  0  0  0  0  0  0
  1  2  1  0
  1 37  1  0
  1 38  1  0
  1 39  1  0
  2  3  1  0
  2 35  1  0
  3  4  2  0
  3 40  1  0
  4  5  1  0
  4 33  1  0
  5  6  1  0
  5 31  1  0
  5 41  1  1
  6  7  1  0
  6 42  1  0
  6 43  1  0
  7  8  1  0
  7 23  1  0
  7 44  1  1
  8  9  2  0
  8 22  1  0
  9 10  1  0
  9 45  1  0
 10 11  2  0
 10 46  1  0
 11 12  1  0
 11 21  1  0
 12 13  2  0
 12 20  1  0
 13 14  1  0
 13 47  1  0
 14 15  2  0
 14 48  1  0
 15 16  1  0
 15 19  1  0
 16 17  1  0
 16 49  1  0
 16 50  1  0
 17 18  3  0
 19 20  2  0
 19 51  1  0
 20 52  1  0
 21 22  2  0
 21 53  1  0
 22 54  1  0
 23 24  2  0
 23 29  1  0
 24 25  1  0
 24 55  1  0
 25 26  2  0
 25 56  1  0
 26 27  1  0
 26 28  1  0
 28 29  2  0
 28 57  1  0
 29 30  1  0
 31 32  2  0
 33 34  2  0
 33 58  1  0
 34 35  1  0
 34 59  1  0
 35 36  2  0
M  END

