
     RDKit          3D

 39 40  0  0  0  0  0  0  0  0999 V2000
    1.0166    2.5856   -2.1647 N   0  0  0  0  0  0  0  0  0  0  0  0
    2.4500    2.3887   -1.9768 C   0  0  0  0  0  0  0  0  0  0  0  0
    2.7075    1.1803   -1.0735 C   0  0  0  0  0  0  0  0  0  0  0  0
    4.1835    0.7573   -0.9499 C   0  0  1  0  0  0  0  0  0  0  0  0
    5.0910    1.7972   -0.2608 C   0  0  0  0  0  0  0  0  0  0  0  0
    4.8273    1.8893    1.2554 C   0  0  0  0  0  0  0  0  0  0  0  0
    4.9228    0.5803    1.8751 N   0  0  0  0  0  0  0  0  0  0  0  0
    5.9154    0.2894    2.8826 C   0  0  0  0  0  0  0  0  0  0  0  0
    7.1700   -0.1390    2.4978 C   0  0  0  0  0  0  0  0  0  0  0  0
    8.1551   -0.4317    3.4677 C   0  0  0  0  0  0  0  0  0  0  0  0
    7.8105   -0.2923    4.8320 C   0  0  0  0  0  0  0  0  0  0  0  0
    6.5546    0.1321    5.2242 C   0  0  0  0  0  0  0  0  0  0  0  0
    5.5361    0.4647    4.2629 C   0  0  0  0  0  0  0  0  0  0  0  0
    4.2160    0.9267    4.5565 C   0  0  0  0  0  0  0  0  0  0  0  0
    3.8368    1.1049    5.8895 N   0  0  0  0  0  0  0  0  0  0  0  0
    3.3591    1.1455    3.6483 O   0  0  0  0  0  0  0  0  0  0  0  0
    4.0926   -0.4628    1.3008 C   0  0  0  0  0  0  0  0  0  0  0  0
    4.3441   -0.5883   -0.2155 C   0  0  0  0  0  0  0  0  0  0  0  0
    0.8420    3.3558   -2.8100 H   0  0  0  0  0  0  0  0  0  0  0  0
    0.5770    2.8519   -1.2822 H   0  0  0  0  0  0  0  0  0  0  0  0
    2.9763    3.2804   -1.5709 H   0  0  0  0  0  0  0  0  0  0  0  0
    2.9006    2.1958   -2.9670 H   0  0  0  0  0  0  0  0  0  0  0  0
    2.1269    0.3372   -1.4836 H   0  0  0  0  0  0  0  0  0  0  0  0
    2.2749    1.3824   -0.0763 H   0  0  0  0  0  0  0  0  0  0  0  0
    4.5650    0.6167   -1.9772 H   0  0  0  0  0  0  0  0  0  0  0  0
    4.9600    2.8009   -0.6923 H   0  0  0  0  0  0  0  0  0  0  0  0
    6.1469    1.5229   -0.4221 H   0  0  0  0  0  0  0  0  0  0  0  0
    3.8125    2.2637    1.4606 H   0  0  0  0  0  0  0  0  0  0  0  0
    5.5403    2.5572    1.7520 H   0  0  0  0  0  0  0  0  0  0  0  0
    7.4028   -0.2531    1.4354 H   0  0  0  0  0  0  0  0  0  0  0  0
    9.1465   -0.7684    3.1642 H   0  0  0  0  0  0  0  0  0  0  0  0
    8.5514   -0.5361    5.5994 H   0  0  0  0  0  0  0  0  0  0  0  0
    6.3200    0.1911    6.2896 H   0  0  0  0  0  0  0  0  0  0  0  0
    4.5634    1.3950    6.5362 H   0  0  0  0  0  0  0  0  0  0  0  0
    2.9829    1.6465    5.9771 H   0  0  0  0  0  0  0  0  0  0  0  0
    3.0469   -0.1868    1.5068 H   0  0  0  0  0  0  0  0  0  0  0  0
    4.3043   -1.3996    1.8286 H   0  0  0  0  0  0  0  0  0  0  0  0
    3.6486   -1.3419   -0.6171 H   0  0  0  0  0  0  0  0  0  0  0  0
    5.3634   -0.9773   -0.3761 H   0  0  0  0  0  0  0  0  0  0  0  0
  1  2  1  0
  1 19  1  0
  1 20  1  0
  2  3  1  0
  2 21  1  0
  2 22  1  0
  3  4  1  0
  3 23  1  0
  3 24  1  0
  4  5  1  0
  4 18  1  0
  4 25  1  6
  5  6  1  0
  5 26  1  0
  5 27  1  0
  6  7  1  0
  6 28  1  0
  6 29  1  0
  7  8  1  0
  7 17  1  0
  8  9  2  0
  8 13  1  0
  9 10  1  0
  9 30  1  0
 10 11  2  0
 10 31  1  0
 11 12  1  0
 11 32  1  0
 12 13  2  0
 12 33  1  0
 13 14  1  0
 14 15  1  0
 14 16  2  0
 15 34  1  0
 15 35  1  0
 17 18  1  0
 17 36  1  0
 17 37  1  0
 18 38  1  0
 18 39  1  0
M  END

