
     RDKit          3D

 29 30  0  0  0  0  0  0  0  0999 V2000
    1.1651   -0.3379   -1.1567 O   0  0  0  0  0  0  0  0  0  0  0  0
    2.4323   -0.4930   -1.0230 C   0  0  0  0  0  0  0  0  0  0  0  0
    3.0056   -1.3609    0.0769 C   0  0  0  0  0  0  0  0  0  0  0  0
    4.5031   -1.6214   -0.1307 C   0  0  0  0  0  0  0  0  0  0  0  0
    5.2874   -0.3192   -0.3343 C   0  0  0  0  0  0  0  0  0  0  0  0
    4.7292    0.5038   -1.4995 C   0  0  2  0  0  0  0  0  0  0  0  0
    5.4580    1.7378   -1.6727 N   0  0  0  0  0  0  0  0  0  0  0  0
    5.4529    2.4936   -2.8861 C   0  0  1  0  0  0  0  0  0  0  0  0
    4.4924    3.7181   -3.0715 C   0  0  0  0  0  0  0  0  0  0  0  0
    5.6480    4.4595   -3.7858 C   0  0  0  0  0  0  0  0  0  0  0  0
    6.6421    3.4608   -3.1428 C   0  0  0  0  0  0  0  0  0  0  0  0
    3.2154    0.8087   -1.2753 C   0  0  0  0  0  0  0  0  0  0  0  0
    2.4455   -2.3094    0.1125 H   0  0  0  0  0  0  0  0  0  0  0  0
    2.8521   -0.8772    1.0734 H   0  0  0  0  0  0  0  0  0  0  0  0
    4.6396   -2.2657   -1.0163 H   0  0  0  0  0  0  0  0  0  0  0  0
    4.9234   -2.1701    0.7291 H   0  0  0  0  0  0  0  0  0  0  0  0
    6.3556   -0.5280   -0.5121 H   0  0  0  0  0  0  0  0  0  0  0  0
    5.2295    0.2916    0.5872 H   0  0  0  0  0  0  0  0  0  0  0  0
    4.8235   -0.0694   -2.4350 H   0  0  0  0  0  0  0  0  0  0  0  0
    5.5772    2.2894   -0.8241 H   0  0  0  0  0  0  0  0  0  0  0  0
    5.3321    1.7877   -3.7221 H   0  0  0  0  0  0  0  0  0  0  0  0
    4.2508    4.1718   -2.0976 H   0  0  0  0  0  0  0  0  0  0  0  0
    3.5558    3.5361   -3.6186 H   0  0  0  0  0  0  0  0  0  0  0  0
    5.7833    5.5254   -3.5534 H   0  0  0  0  0  0  0  0  0  0  0  0
    5.5988    4.3456   -4.8794 H   0  0  0  0  0  0  0  0  0  0  0  0
    7.0463    3.8429   -2.1911 H   0  0  0  0  0  0  0  0  0  0  0  0
    7.4769    3.0760   -3.7477 H   0  0  0  0  0  0  0  0  0  0  0  0
    2.7869    1.3137   -2.1544 H   0  0  0  0  0  0  0  0  0  0  0  0
    3.1171    1.5093   -0.4137 H   0  0  0  0  0  0  0  0  0  0  0  0
  1  2  2  0
  2  3  1  0
  2 12  1  0
  3  4  1  0
  3 13  1  0
  3 14  1  0
  4  5  1  0
  4 15  1  0
  4 16  1  0
  5  6  1  0
  5 17  1  0
  5 18  1  0
  6  7  1  0
  6 12  1  0
  6 19  1  6
  7  8  1  0
  7 20  1  0
  8  9  1  0
  8 11  1  0
  8 21  1  6
  9 10  1  0
  9 22  1  0
  9 23  1  0
 10 11  1  0
 10 24  1  0
 10 25  1  0
 11 26  1  0
 11 27  1  0
 12 28  1  0
 12 29  1  0
M  END

