
     RDKit          3D

 88 99  0  0  0  0  0  0  0  0999 V2000
   -6.4478   -4.4214    3.0175 C   0  0  0  0  0  0  0  0  0  0  0  0
   -5.9007   -4.9609    1.8379 C   0  0  0  0  0  0  0  0  0  0  0  0
   -4.5388   -4.8549    1.5524 C   0  0  0  0  0  0  0  0  0  0  0  0
   -3.7251   -4.1951    2.4822 C   0  0  0  0  0  0  0  0  0  0  0  0
   -4.2636   -3.6348    3.6727 C   0  0  0  0  0  0  0  0  0  0  0  0
   -5.6361   -3.7557    3.9350 C   0  0  0  0  0  0  0  0  0  0  0  0
   -3.1599   -3.0115    4.3771 C   0  0  0  0  0  0  0  0  0  0  0  0
   -3.0527   -2.3220    5.5937 C   0  0  0  0  0  0  0  0  0  0  0  0
   -1.8042   -1.8559    6.0034 C   0  0  0  0  0  0  0  0  0  0  0  0
   -0.6620   -2.0787    5.2111 C   0  0  0  0  0  0  0  0  0  0  0  0
   -0.7405   -2.7615    3.9965 C   0  0  0  0  0  0  0  0  0  0  0  0
   -1.9986   -3.2185    3.5835 C   0  0  0  0  0  0  0  0  0  0  0  0
   -2.3515   -3.9365    2.4369 N   0  0  0  0  0  0  0  0  0  0  0  0
   -1.4639   -4.3352    1.4017 C   0  0  0  0  0  0  0  0  0  0  0  0
   -0.7358   -3.3525    0.6888 C   0  0  0  0  0  0  0  0  0  0  0  0
    0.1491   -3.6994   -0.3278 C   0  0  0  0  0  0  0  0  0  0  0  0
    0.3013   -5.0584   -0.6584 C   0  0  0  0  0  0  0  0  0  0  0  0
    1.0724   -5.8162   -1.6054 C   0  0  0  0  0  0  0  0  0  0  0  0
    0.7559   -7.1371   -1.4047 C   0  0  0  0  0  0  0  0  0  0  0  0
    1.2045   -8.3703   -2.0402 C   0  0  0  0  0  0  0  0  0  0  0  0
    2.1428   -8.3463   -3.0911 C   0  0  0  0  0  0  0  0  0  0  0  0
    2.5718   -9.5244   -3.6920 C   0  0  0  0  0  0  0  0  0  0  0  0
    2.0851  -10.7814   -3.2768 C   0  0  0  0  0  0  0  0  0  0  0  0
    2.5443  -12.0359   -3.9206 C   0  0  0  0  0  0  0  0  0  0  0  0
    3.8595  -12.1684   -4.4125 C   0  0  0  0  0  0  0  0  0  0  0  0
    4.2932  -13.3441   -5.0145 C   0  0  0  0  0  0  0  0  0  0  0  0
    3.4275  -14.4468   -5.1558 C   0  0  0  0  0  0  0  0  0  0  0  0
    3.8787  -15.6803   -5.7889 C   0  0  0  0  0  0  0  0  0  0  0  0
    5.0731  -16.0565   -6.3520 C   0  0  0  0  0  0  0  0  0  0  0  0
    4.9051  -17.4079   -6.8119 C   0  0  0  0  0  0  0  0  0  0  0  0
    5.7036  -18.3676   -7.4604 C   0  0  0  0  0  0  0  0  0  0  0  0
    5.1515  -19.6108   -7.7539 C   0  0  0  0  0  0  0  0  0  0  0  0
    3.8194  -19.9308   -7.3971 C   0  0  0  0  0  0  0  0  0  0  0  0
    3.2982  -21.2149   -7.7090 N   0  0  0  0  0  0  0  0  0  0  0  0
    2.1697  -21.4723   -8.4943 C   0  0  0  0  0  0  0  0  0  0  0  0
    1.3262  -20.5767   -9.1643 C   0  0  0  0  0  0  0  0  0  0  0  0
    0.2681  -21.1069   -9.9038 C   0  0  0  0  0  0  0  0  0  0  0  0
    0.0502  -22.4954   -9.9822 C   0  0  0  0  0  0  0  0  0  0  0  0
    0.8987  -23.3839   -9.3232 C   0  0  0  0  0  0  0  0  0  0  0  0
    1.9705  -22.8777   -8.5736 C   0  0  0  0  0  0  0  0  0  0  0  0
    3.0287  -23.4941   -7.7973 C   0  0  0  0  0  0  0  0  0  0  0  0
    3.3572  -24.8227   -7.4906 C   0  0  0  0  0  0  0  0  0  0  0  0
    4.4605  -25.0802   -6.6781 C   0  0  0  0  0  0  0  0  0  0  0  0
    5.2332  -24.0215   -6.1644 C   0  0  0  0  0  0  0  0  0  0  0  0
    4.9286  -22.6908   -6.4540 C   0  0  0  0  0  0  0  0  0  0  0  0
    3.8265  -22.4369   -7.2807 C   0  0  0  0  0  0  0  0  0  0  0  0
    3.0090  -18.9928   -6.7427 C   0  0  0  0  0  0  0  0  0  0  0  0
    3.5767  -17.7513   -6.4799 C   0  0  0  0  0  0  0  0  0  0  0  0
    2.9643  -16.7066   -5.8635 O   0  0  0  0  0  0  0  0  0  0  0  0
    2.1126  -14.3223   -4.6676 C   0  0  0  0  0  0  0  0  0  0  0  0
    1.6852  -13.1427   -4.0643 C   0  0  0  0  0  0  0  0  0  0  0  0
    1.1457  -10.7972   -2.2273 C   0  0  0  0  0  0  0  0  0  0  0  0
    0.7138   -9.6215   -1.6199 C   0  0  0  0  0  0  0  0  0  0  0  0
   -0.1682   -7.2645   -0.3923 O   0  0  0  0  0  0  0  0  0  0  0  0
   -0.4468   -6.0146    0.0621 C   0  0  0  0  0  0  0  0  0  0  0  0
   -1.3212   -5.6954    1.0948 C   0  0  0  0  0  0  0  0  0  0  0  0
   -7.5182   -4.5230    3.2112 H   0  0  0  0  0  0  0  0  0  0  0  0
   -6.5548   -5.4724    1.1270 H   0  0  0  0  0  0  0  0  0  0  0  0
   -4.1256   -5.2698    0.6318 H   0  0  0  0  0  0  0  0  0  0  0  0
   -6.0636   -3.3299    4.8463 H   0  0  0  0  0  0  0  0  0  0  0  0
   -3.9370   -2.1560    6.2142 H   0  0  0  0  0  0  0  0  0  0  0  0
   -1.7078   -1.3166    6.9487 H   0  0  0  0  0  0  0  0  0  0  0  0
    0.3093   -1.7123    5.5535 H   0  0  0  0  0  0  0  0  0  0  0  0
    0.1514   -2.9353    3.3923 H   0  0  0  0  0  0  0  0  0  0  0  0
   -0.8876   -2.3031    0.9476 H   0  0  0  0  0  0  0  0  0  0  0  0
    0.7024   -2.9259   -0.8649 H   0  0  0  0  0  0  0  0  0  0  0  0
    1.7743   -5.4278   -2.3390 H   0  0  0  0  0  0  0  0  0  0  0  0
    2.5362   -7.3929   -3.4499 H   0  0  0  0  0  0  0  0  0  0  0  0
    3.2802   -9.4667   -4.5210 H   0  0  0  0  0  0  0  0  0  0  0  0
    4.5655  -11.3434   -4.2959 H   0  0  0  0  0  0  0  0  0  0  0  0
    5.3233  -13.4103   -5.3710 H   0  0  0  0  0  0  0  0  0  0  0  0
    5.9676  -15.4436   -6.4306 H   0  0  0  0  0  0  0  0  0  0  0  0
    6.7342  -18.1416   -7.7434 H   0  0  0  0  0  0  0  0  0  0  0  0
    5.7447  -20.3620   -8.2784 H   0  0  0  0  0  0  0  0  0  0  0  0
    1.4907  -19.4992   -9.1162 H   0  0  0  0  0  0  0  0  0  0  0  0
   -0.4033  -20.4267  -10.4343 H   0  0  0  0  0  0  0  0  0  0  0  0
   -0.7890  -22.8774  -10.5684 H   0  0  0  0  0  0  0  0  0  0  0  0
    0.7337  -24.4622   -9.3920 H   0  0  0  0  0  0  0  0  0  0  0  0
    2.7530  -25.6453   -7.8817 H   0  0  0  0  0  0  0  0  0  0  0  0
    4.7270  -26.1110   -6.4328 H   0  0  0  0  0  0  0  0  0  0  0  0
    6.0893  -24.2434   -5.5220 H   0  0  0  0  0  0  0  0  0  0  0  0
    5.5288  -21.8770   -6.0443 H   0  0  0  0  0  0  0  0  0  0  0  0
    1.9867  -19.2296   -6.4468 H   0  0  0  0  0  0  0  0  0  0  0  0
    1.4224  -15.1601   -4.7738 H   0  0  0  0  0  0  0  0  0  0  0  0
    0.6511  -13.0709   -3.7210 H   0  0  0  0  0  0  0  0  0  0  0  0
    0.7638  -11.7518   -1.8590 H   0  0  0  0  0  0  0  0  0  0  0  0
   -0.0064   -9.6645   -0.8018 H   0  0  0  0  0  0  0  0  0  0  0  0
   -1.8630   -6.4645    1.6458 H   0  0  0  0  0  0  0  0  0  0  0  0
  1  2  2  0
  1  6  1  0
  1 57  1  0
  2  3  1  0
  2 58  1  0
  3  4  2  0
  3 59  1  0
  4  5  1  0
  4 13  1  0
  5  6  2  0
  5  7  1  0
  6 60  1  0
  7  8  2  0
  7 12  1  0
  8  9  1  0
  8 61  1  0
  9 10  2  0
  9 62  1  0
 10 11  1  0
 10 63  1  0
 11 12  2  0
 11 64  1  0
 12 13  1  0
 13 14  1  0
 14 15  2  0
 14 56  1  0
 15 16  1  0
 15 65  1  0
 16 17  2  0
 16 66  1  0
 17 18  1  0
 17 55  1  0
 18 19  2  0
 18 67  1  0
 19 20  1  0
 19 54  1  0
 20 21  2  0
 20 53  1  0
 21 22  1  0
 21 68  1  0
 22 23  2  0
 22 69  1  0
 23 24  1  0
 23 52  1  0
 24 25  2  0
 24 51  1  0
 25 26  1  0
 25 70  1  0
 26 27  2  0
 26 71  1  0
 27 28  1  0
 27 50  1  0
 28 29  2  0
 28 49  1  0
 29 30  1  0
 29 72  1  0
 30 31  2  0
 30 48  1  0
 31 32  1  0
 31 73  1  0
 32 33  2  0
 32 74  1  0
 33 34  1  0
 33 47  1  0
 34 35  1  0
 34 46  1  0
 35 36  2  0
 35 40  1  0
 36 37  1  0
 36 75  1  0
 37 38  2  0
 37 76  1  0
 38 39  1  0
 38 77  1  0
 39 40  2  0
 39 78  1  0
 40 41  1  0
 41 42  1  0
 41 46  2  0
 42 43  2  0
 42 79  1  0
 43 44  1  0
 43 80  1  0
 44 45  2  0
 44 81  1  0
 45 46  1  0
 45 82  1  0
 47 48  2  0
 47 83  1  0
 48 49  1  0
 50 51  2  0
 50 84  1  0
 51 85  1  0
 52 53  2  0
 52 86  1  0
 53 87  1  0
 54 55  1  0
 55 56  2  0
 56 88  1  0
M  END

