
     RDKit          3D

 41 41  0  0  0  0  0  0  0  0999 V2000
    1.0146   -0.4805   -0.0249 C   0  0  0  0  0  0  0  0  0  0  0  0
    2.4693   -0.0395    0.1420 C   0  0  0  0  0  0  0  0  0  0  0  0
    2.9620    0.8861   -0.9760 C   0  0  0  0  0  0  0  0  0  0  0  0
    4.4223    1.3162   -0.8066 C   0  0  0  0  0  0  0  0  0  0  0  0
    5.0049    2.1400   -1.9747 C   0  0  1  0  0  0  0  0  0  0  0  0
    4.3446    3.5122   -2.1840 C   0  0  0  0  0  0  0  0  0  0  0  0
    4.6872    4.4277   -1.0940 N   0  0  0  0  0  0  0  0  0  0  0  0
    6.4330    2.3597   -1.8011 N   0  0  0  0  0  0  0  0  0  0  0  0
    7.3767    1.4513   -2.1650 C   0  0  0  0  0  0  0  0  0  0  0  0
    7.0912    0.3781   -2.6850 O   0  0  0  0  0  0  0  0  0  0  0  0
    8.8280    1.8700   -1.9290 C   0  0  1  0  0  0  0  0  0  0  0  0
    9.6489    0.7280   -1.2440 C   0  0  0  0  0  0  0  0  0  0  0  0
   10.8597    0.4661   -2.1531 C   0  0  0  0  0  0  0  0  0  0  0  0
   10.3587    0.8261   -3.5576 C   0  0  2  0  0  0  0  0  0  0  0  0
   11.4229    0.8965   -4.5462 N   0  0  0  0  0  0  0  0  0  0  0  0
    9.5448    2.1118   -3.2891 C   0  0  0  0  0  0  0  0  0  0  0  0
    0.6956   -1.1432    0.7954 H   0  0  0  0  0  0  0  0  0  0  0  0
    0.8685   -1.0287   -0.9708 H   0  0  0  0  0  0  0  0  0  0  0  0
    0.3306    0.3850   -0.0379 H   0  0  0  0  0  0  0  0  0  0  0  0
    3.1233   -0.9288    0.1872 H   0  0  0  0  0  0  0  0  0  0  0  0
    2.5916    0.4706    1.1152 H   0  0  0  0  0  0  0  0  0  0  0  0
    2.2998    1.7703   -1.0224 H   0  0  0  0  0  0  0  0  0  0  0  0
    2.8456    0.3731   -1.9488 H   0  0  0  0  0  0  0  0  0  0  0  0
    5.0507    0.4157   -0.7113 H   0  0  0  0  0  0  0  0  0  0  0  0
    4.5472    1.8783    0.1377 H   0  0  0  0  0  0  0  0  0  0  0  0
    4.8781    1.5448   -2.8938 H   0  0  0  0  0  0  0  0  0  0  0  0
    3.2563    3.3750   -2.3390 H   0  0  0  0  0  0  0  0  0  0  0  0
    4.7438    3.9394   -3.1182 H   0  0  0  0  0  0  0  0  0  0  0  0
    4.1479    4.2150   -0.2546 H   0  0  0  0  0  0  0  0  0  0  0  0
    4.4616    5.3894   -1.3436 H   0  0  0  0  0  0  0  0  0  0  0  0
    6.6829    3.2208   -1.3230 H   0  0  0  0  0  0  0  0  0  0  0  0
    8.8475    2.7884   -1.3216 H   0  0  0  0  0  0  0  0  0  0  0  0
    9.0238   -0.1757   -1.1942 H   0  0  0  0  0  0  0  0  0  0  0  0
    9.9370    0.9918   -0.2150 H   0  0  0  0  0  0  0  0  0  0  0  0
   11.2373   -0.5658   -2.0933 H   0  0  0  0  0  0  0  0  0  0  0  0
   11.7012    1.1356   -1.8925 H   0  0  0  0  0  0  0  0  0  0  0  0
    9.6501    0.0429   -3.8780 H   0  0  0  0  0  0  0  0  0  0  0  0
   12.0531    1.6723   -4.3321 H   0  0  0  0  0  0  0  0  0  0  0  0
   11.0399    1.0867   -5.4725 H   0  0  0  0  0  0  0  0  0  0  0  0
    8.8477    2.3573   -4.1062 H   0  0  0  0  0  0  0  0  0  0  0  0
   10.2489    2.9580   -3.1934 H   0  0  0  0  0  0  0  0  0  0  0  0
  1  2  1  0
  1 17  1  0
  1 18  1  0
  1 19  1  0
  2  3  1  0
  2 20  1  0
  2 21  1  0
  3  4  1  0
  3 22  1  0
  3 23  1  0
  4  5  1  0
  4 24  1  0
  4 25  1  0
  5  6  1  0
  5  8  1  0
  5 26  1  6
  6  7  1  0
  6 27  1  0
  6 28  1  0
  7 29  1  0
  7 30  1  0
  8  9  1  0
  8 31  1  0
  9 10  2  0
  9 11  1  0
 11 12  1  0
 11 16  1  0
 11 32  1  1
 12 13  1  0
 12 33  1  0
 12 34  1  0
 13 14  1  0
 13 35  1  0
 13 36  1  0
 14 15  1  0
 14 16  1  0
 14 37  1  6
 15 38  1  0
 15 39  1  0
 16 40  1  0
 16 41  1  0
M  END

