
     RDKit          3D

 36 37  0  0  0  0  0  0  0  0999 V2000
    2.7813    0.7716   -0.5797 C   0  0  0  0  0  0  0  0  0  0  0  0
    2.3368    0.2725    0.6611 O   0  0  0  0  0  0  0  0  0  0  0  0
    3.1023   -0.6292    1.3272 C   0  0  0  0  0  0  0  0  0  0  0  0
    2.6006   -1.0802    2.5605 C   0  0  0  0  0  0  0  0  0  0  0  0
    3.3183   -2.0032    3.3142 C   0  0  0  0  0  0  0  0  0  0  0  0
    4.5557   -2.5081    2.8738 C   0  0  0  0  0  0  0  0  0  0  0  0
    5.3109   -3.5461    3.6731 C   0  0  0  0  0  0  0  0  0  0  0  0
    4.9601   -4.9861    3.2461 C   0  0  0  0  0  0  0  0  0  0  0  0
    5.6721   -5.9978    4.0040 N   0  0  0  0  0  0  0  0  0  0  0  0
    6.7233   -6.6863    3.5307 C   0  0  0  0  0  0  0  0  0  0  0  0
    7.2149   -6.6021    2.4102 O   0  0  0  0  0  0  0  0  0  0  0  0
    7.2989   -7.6698    4.5813 C   0  0  0  0  0  0  0  0  0  0  0  0
    6.8453   -7.7680    5.6994 O   0  0  0  0  0  0  0  0  0  0  0  0
    8.3486   -8.3546    4.0260 N   0  0  0  0  0  0  0  0  0  0  0  0
    9.1454   -9.3239    4.6048 C   0  0  0  0  0  0  0  0  0  0  0  0
    9.0904   -9.8081    5.8269 N   0  0  0  0  0  0  0  0  0  0  0  0
   10.1021  -10.7210    5.8324 C   0  0  0  0  0  0  0  0  0  0  0  0
   10.7744  -10.8317    4.7017 N   0  0  0  0  0  0  0  0  0  0  0  0
   10.1509   -9.9258    3.9113 N   0  0  0  0  0  0  0  0  0  0  0  0
   10.4553   -9.7846    2.9546 H   0  0  0  0  0  0  0  0  0  0  0  0
    5.0415   -2.0482    1.6438 C   0  0  0  0  0  0  0  0  0  0  0  0
    4.3348   -1.1200    0.8707 C   0  0  0  0  0  0  0  0  0  0  0  0
    2.0129    1.4748   -0.9282 H   0  0  0  0  0  0  0  0  0  0  0  0
    2.8966   -0.0314   -1.3302 H   0  0  0  0  0  0  0  0  0  0  0  0
    3.7421    1.3101   -0.4870 H   0  0  0  0  0  0  0  0  0  0  0  0
    1.6433   -0.6848    2.9065 H   0  0  0  0  0  0  0  0  0  0  0  0
    2.9107   -2.3344    4.2744 H   0  0  0  0  0  0  0  0  0  0  0  0
    5.0918   -3.4275    4.7479 H   0  0  0  0  0  0  0  0  0  0  0  0
    6.3974   -3.4050    3.5532 H   0  0  0  0  0  0  0  0  0  0  0  0
    5.2168   -5.1348    2.1876 H   0  0  0  0  0  0  0  0  0  0  0  0
    3.8754   -5.1528    3.3523 H   0  0  0  0  0  0  0  0  0  0  0  0
    5.4277   -6.1958    4.9724 H   0  0  0  0  0  0  0  0  0  0  0  0
    8.5174   -8.0696    3.0592 H   0  0  0  0  0  0  0  0  0  0  0  0
   10.3488  -11.3244    6.7055 H   0  0  0  0  0  0  0  0  0  0  0  0
    6.0033   -2.4158    1.2730 H   0  0  0  0  0  0  0  0  0  0  0  0
    4.7567   -0.7873   -0.0780 H   0  0  0  0  0  0  0  0  0  0  0  0
  1  2  1  0
  1 23  1  0
  1 24  1  0
  1 25  1  0
  2  3  1  0
  3  4  2  0
  3 22  1  0
  4  5  1  0
  4 26  1  0
  5  6  2  0
  5 27  1  0
  6  7  1  0
  6 21  1  0
  7  8  1  0
  7 28  1  0
  7 29  1  0
  8  9  1  0
  8 30  1  0
  8 31  1  0
  9 10  1  0
  9 32  1  0
 10 11  2  0
 10 12  1  0
 12 13  2  0
 12 14  1  0
 14 15  1  0
 14 33  1  0
 15 16  2  0
 15 19  1  0
 16 17  1  0
 17 18  2  0
 17 34  1  0
 18 19  1  0
 19 20  1  0
 21 22  2  0
 21 35  1  0
 22 36  1  0
M  END

