
     RDKit          3D

 61 65  0  0  0  0  0  0  0  0999 V2000
    6.5922    2.5961    5.1660 C   0  0  0  0  0  0  0  0  0  0  0  0
    5.6470    2.7087    4.1154 O   0  0  0  0  0  0  0  0  0  0  0  0
    5.8312    3.6049    3.1352 C   0  0  0  0  0  0  0  0  0  0  0  0
    6.9292    4.4815    3.0516 C   0  0  0  0  0  0  0  0  0  0  0  0
    7.0184    5.3796    1.9876 C   0  0  0  0  0  0  0  0  0  0  0  0
    6.0263    5.4107    1.0021 C   0  0  0  0  0  0  0  0  0  0  0  0
    6.1232    6.3442   -0.0915 N   0  0  0  0  0  0  0  0  0  0  0  0
    6.7386    6.0647   -1.2478 C   0  0  0  0  0  0  0  0  0  0  0  0
    7.4748    4.4827   -1.3984 S   0  0  0  0  0  0  0  0  0  0  0  0
    6.7967    6.9487   -2.2252 N   0  0  0  0  0  0  0  0  0  0  0  0
    6.3436    8.3527   -2.0630 C   0  0  0  0  0  0  0  0  0  0  0  0
    6.7310    9.0196   -3.3896 C   0  0  0  0  0  0  0  0  0  0  0  0
    7.9019    8.1684   -3.8936 C   0  0  0  0  0  0  0  0  0  0  0  0
    7.4842    6.7291   -3.5278 C   0  0  2  0  0  0  0  0  0  0  0  0
    6.8011    6.0477   -4.7640 C   0  0  0  0  0  0  0  0  0  0  0  0
    7.6547    5.6672   -5.5588 O   0  0  0  0  0  0  0  0  0  0  0  0
    5.4712    5.9962   -4.9914 N   0  0  0  0  0  0  0  0  0  0  0  0
    5.0230    5.6226   -6.3580 C   0  0  0  0  0  0  0  0  0  0  0  0
    3.8981    4.5906   -6.3321 C   0  0  0  0  0  0  0  0  0  0  0  0
    2.6977    5.0597   -5.4797 C   0  0  2  0  0  0  0  0  0  0  0  0
    1.8951    6.1752   -6.1131 C   0  0  0  0  0  0  0  0  0  0  0  0
    2.3540    7.4515   -6.0705 N   0  0  0  0  0  0  0  0  0  0  0  0
    1.3656    8.2175   -6.7503 O   0  0  0  0  0  0  0  0  0  0  0  0
    0.3764    7.3985   -7.1751 C   0  0  0  0  0  0  0  0  0  0  0  0
   -0.7630    7.7813   -7.8689 C   0  0  0  0  0  0  0  0  0  0  0  0
   -1.6576    6.7194   -8.1949 C   0  0  0  0  0  0  0  0  0  0  0  0
   -2.7919    7.0448   -8.8768 F   0  0  0  0  0  0  0  0  0  0  0  0
   -1.4248    5.3982   -7.8558 C   0  0  0  0  0  0  0  0  0  0  0  0
   -0.2586    5.0221   -7.1505 C   0  0  0  0  0  0  0  0  0  0  0  0
    0.6692    6.0592   -6.7958 C   0  0  0  0  0  0  0  0  0  0  0  0
    3.2330    5.4050   -4.0772 C   0  0  0  0  0  0  0  0  0  0  0  0
    4.3708    6.4344   -4.1141 C   0  0  0  0  0  0  0  0  0  0  0  0
    4.9298    4.5339    1.0815 C   0  0  0  0  0  0  0  0  0  0  0  0
    4.8341    3.6409    2.1370 C   0  0  0  0  0  0  0  0  0  0  0  0
    6.2192    1.8078    5.8313 H   0  0  0  0  0  0  0  0  0  0  0  0
    6.6780    3.5379    5.7343 H   0  0  0  0  0  0  0  0  0  0  0  0
    7.5865    2.3065    4.7851 H   0  0  0  0  0  0  0  0  0  0  0  0
    7.7135    4.4734    3.8075 H   0  0  0  0  0  0  0  0  0  0  0  0
    7.8672    6.0641    1.9245 H   0  0  0  0  0  0  0  0  0  0  0  0
    5.6415    7.2338   -0.0120 H   0  0  0  0  0  0  0  0  0  0  0  0
    6.8769    8.7966   -1.2049 H   0  0  0  0  0  0  0  0  0  0  0  0
    5.2603    8.3956   -1.8699 H   0  0  0  0  0  0  0  0  0  0  0  0
    6.9925   10.0766   -3.2461 H   0  0  0  0  0  0  0  0  0  0  0  0
    5.8882    8.9742   -4.0937 H   0  0  0  0  0  0  0  0  0  0  0  0
    8.8299    8.4291   -3.3583 H   0  0  0  0  0  0  0  0  0  0  0  0
    8.0955    8.2628   -4.9684 H   0  0  0  0  0  0  0  0  0  0  0  0
    8.3697    6.1029   -3.3595 H   0  0  0  0  0  0  0  0  0  0  0  0
    5.8996    5.2552   -6.9006 H   0  0  0  0  0  0  0  0  0  0  0  0
    4.6566    6.5435   -6.8385 H   0  0  0  0  0  0  0  0  0  0  0  0
    4.2869    3.6349   -5.9356 H   0  0  0  0  0  0  0  0  0  0  0  0
    3.5754    4.4054   -7.3681 H   0  0  0  0  0  0  0  0  0  0  0  0
    2.0135    4.2033   -5.3705 H   0  0  0  0  0  0  0  0  0  0  0  0
   -0.9732    8.8113   -8.1499 H   0  0  0  0  0  0  0  0  0  0  0  0
   -2.1655    4.6519   -8.1520 H   0  0  0  0  0  0  0  0  0  0  0  0
   -0.0780    3.9777   -6.8957 H   0  0  0  0  0  0  0  0  0  0  0  0
    3.5956    4.4817   -3.5895 H   0  0  0  0  0  0  0  0  0  0  0  0
    2.4236    5.8163   -3.4531 H   0  0  0  0  0  0  0  0  0  0  0  0
    4.7444    6.5844   -3.1003 H   0  0  0  0  0  0  0  0  0  0  0  0
    3.9553    7.3765   -4.5054 H   0  0  0  0  0  0  0  0  0  0  0  0
    4.1562    4.5586    0.3113 H   0  0  0  0  0  0  0  0  0  0  0  0
    3.9929    2.9513    2.2198 H   0  0  0  0  0  0  0  0  0  0  0  0
  1  2  1  0
  1 35  1  0
  1 36  1  0
  1 37  1  0
  2  3  1  0
  3  4  2  0
  3 34  1  0
  4  5  1  0
  4 38  1  0
  5  6  2  0
  5 39  1  0
  6  7  1  0
  6 33  1  0
  7  8  1  0
  7 40  1  0
  8  9  2  0
  8 10  1  0
 10 11  1  0
 10 14  1  0
 11 12  1  0
 11 41  1  0
 11 42  1  0
 12 13  1  0
 12 43  1  0
 12 44  1  0
 13 14  1  0
 13 45  1  0
 13 46  1  0
 14 15  1  0
 14 47  1  1
 15 16  2  0
 15 17  1  0
 17 18  1  0
 17 32  1  0
 18 19  1  0
 18 48  1  0
 18 49  1  0
 19 20  1  0
 19 50  1  0
 19 51  1  0
 20 21  1  0
 20 31  1  0
 20 52  1  1
 21 22  2  0
 21 30  1  0
 22 23  1  0
 23 24  1  0
 24 25  1  0
 24 30  2  0
 25 26  2  0
 25 53  1  0
 26 27  1  0
 26 28  1  0
 28 29  2  0
 28 54  1  0
 29 30  1  0
 29 55  1  0
 31 32  1  0
 31 56  1  0
 31 57  1  0
 32 58  1  0
 32 59  1  0
 33 34  2  0
 33 60  1  0
 34 61  1  0
M  END

