
     RDKit          3D

 43 44  0  0  0  0  0  0  0  0999 V2000
    3.6487    0.5530   -1.5257 C   0  0  0  0  0  0  0  0  0  0  0  0
    3.2028   -0.2026   -0.4217 O   0  0  0  0  0  0  0  0  0  0  0  0
    3.8247   -0.0499    0.7686 C   0  0  0  0  0  0  0  0  0  0  0  0
    4.9000    0.8071    1.0305 C   0  0  0  0  0  0  0  0  0  0  0  0
    5.4639    0.8718    2.3127 C   0  0  0  0  0  0  0  0  0  0  0  0
    4.9734    0.0969    3.3663 C   0  0  0  0  0  0  0  0  0  0  0  0
    5.5808    0.1760    4.7585 C   0  0  1  0  0  0  0  0  0  0  0  0
    4.5849    0.7566    5.7805 C   0  0  0  0  0  0  0  0  0  0  0  0
    6.0587   -1.1462    5.1581 N   0  0  0  0  0  0  0  0  0  0  0  0
    7.0928   -1.3670    6.0561 C   0  0  0  0  0  0  0  0  0  0  0  0
    7.6599   -0.3521    6.8527 C   0  0  0  0  0  0  0  0  0  0  0  0
    8.6935   -0.6448    7.7486 C   0  0  0  0  0  0  0  0  0  0  0  0
    9.2131   -1.9359    7.8987 C   0  0  0  0  0  0  0  0  0  0  0  0
   10.3385   -2.2292    8.8823 C   0  0  1  0  0  0  0  0  0  0  0  0
    9.8982   -3.1956    9.9960 C   0  0  0  0  0  0  0  0  0  0  0  0
   11.6084   -2.7376    8.1776 C   0  0  0  0  0  0  0  0  0  0  0  0
    8.6443   -2.9432    7.0970 C   0  0  0  0  0  0  0  0  0  0  0  0
    7.6147   -2.6733    6.2026 C   0  0  0  0  0  0  0  0  0  0  0  0
    3.8883   -0.7628    3.1048 C   0  0  0  0  0  0  0  0  0  0  0  0
    3.3362   -0.8320    1.8368 C   0  0  0  0  0  0  0  0  0  0  0  0
    2.3075   -1.6559    1.6036 F   0  0  0  0  0  0  0  0  0  0  0  0
    3.0091    0.2737   -2.3734 H   0  0  0  0  0  0  0  0  0  0  0  0
    4.7001    0.3269   -1.7798 H   0  0  0  0  0  0  0  0  0  0  0  0
    3.5515    1.6389   -1.3455 H   0  0  0  0  0  0  0  0  0  0  0  0
    5.3117    1.4288    0.2352 H   0  0  0  0  0  0  0  0  0  0  0  0
    6.3075    1.5450    2.4849 H   0  0  0  0  0  0  0  0  0  0  0  0
    6.4426    0.8676    4.6941 H   0  0  0  0  0  0  0  0  0  0  0  0
    3.6802    0.1324    5.8403 H   0  0  0  0  0  0  0  0  0  0  0  0
    4.2848    1.7764    5.4924 H   0  0  0  0  0  0  0  0  0  0  0  0
    5.0290    0.7964    6.7862 H   0  0  0  0  0  0  0  0  0  0  0  0
    5.9409   -1.8712    4.4613 H   0  0  0  0  0  0  0  0  0  0  0  0
    7.3003    0.6749    6.7826 H   0  0  0  0  0  0  0  0  0  0  0  0
    9.1082    0.1703    8.3501 H   0  0  0  0  0  0  0  0  0  0  0  0
   10.5944   -1.2692    9.3647 H   0  0  0  0  0  0  0  0  0  0  0  0
    9.6349   -4.1854    9.5870 H   0  0  0  0  0  0  0  0  0  0  0  0
    9.0155   -2.8119   10.5310 H   0  0  0  0  0  0  0  0  0  0  0  0
   10.7062   -3.3456   10.7314 H   0  0  0  0  0  0  0  0  0  0  0  0
   11.4319   -3.7069    7.6821 H   0  0  0  0  0  0  0  0  0  0  0  0
   12.4302   -2.8801    8.8992 H   0  0  0  0  0  0  0  0  0  0  0  0
   11.9491   -2.0280    7.4073 H   0  0  0  0  0  0  0  0  0  0  0  0
    9.0130   -3.9706    7.1697 H   0  0  0  0  0  0  0  0  0  0  0  0
    7.1952   -3.4840    5.5986 H   0  0  0  0  0  0  0  0  0  0  0  0
    3.4534   -1.3908    3.8858 H   0  0  0  0  0  0  0  0  0  0  0  0
  1  2  1  0
  1 22  1  0
  1 23  1  0
  1 24  1  0
  2  3  1  0
  3  4  2  0
  3 20  1  0
  4  5  1  0
  4 25  1  0
  5  6  2  0
  5 26  1  0
  6  7  1  0
  6 19  1  0
  7  8  1  0
  7  9  1  0
  7 27  1  6
  8 28  1  0
  8 29  1  0
  8 30  1  0
  9 10  1  0
  9 31  1  0
 10 11  2  0
 10 18  1  0
 11 12  1  0
 11 32  1  0
 12 13  2  0
 12 33  1  0
 13 14  1  0
 13 17  1  0
 14 15  1  0
 14 16  1  0
 14 34  1  1
 15 35  1  0
 15 36  1  0
 15 37  1  0
 16 38  1  0
 16 39  1  0
 16 40  1  0
 17 18  2  0
 17 41  1  0
 18 42  1  0
 19 20  2  0
 19 43  1  0
 20 21  1  0
M  END

