
     RDKit          3D

 51 55  0  0  0  0  0  0  0  0999 V2000
    0.7918    0.2318    0.0914 C   0  0  0  0  0  0  0  0  0  0  0  0
    2.3309    0.0376   -0.0349 C   0  0  1  0  0  0  0  0  0  0  0  0
    2.7009   -0.2347   -1.5220 C   0  0  0  0  0  0  0  0  0  0  0  0
    3.0288    1.3121    0.4234 C   0  0  0  0  0  0  0  0  0  0  0  0
    2.7786    2.5206   -0.2338 C   0  0  0  0  0  0  0  0  0  0  0  0
    3.3944    3.7130    0.1494 C   0  0  0  0  0  0  0  0  0  0  0  0
    4.2959    3.7193    1.2259 C   0  0  0  0  0  0  0  0  0  0  0  0
    4.5685    2.5469    1.9038 C   0  0  0  0  0  0  0  0  0  0  0  0
    3.9433    1.3274    1.5179 C   0  0  0  0  0  0  0  0  0  0  0  0
    4.2374    0.1691    2.2203 N   0  0  0  0  0  0  0  0  0  0  0  0
    5.1712    0.2358    3.3432 C   0  0  0  0  0  0  0  0  0  0  0  0
    4.6960    0.4920    4.6382 C   0  0  0  0  0  0  0  0  0  0  0  0
    5.5831    0.5541    5.7045 C   0  0  0  0  0  0  0  0  0  0  0  0
    6.9880    0.3632    5.5309 C   0  0  0  0  0  0  0  0  0  0  0  0
    7.9478    0.4188    6.6141 C   0  0  0  0  0  0  0  0  0  0  0  0
    7.5905    0.6774    7.9743 C   0  0  0  0  0  0  0  0  0  0  0  0
    8.5550    0.7151    8.9546 C   0  0  0  0  0  0  0  0  0  0  0  0
    9.9241    0.4928    8.6040 C   0  0  0  0  0  0  0  0  0  0  0  0
   10.9685    0.5157    9.5593 C   0  0  0  0  0  0  0  0  0  0  0  0
   11.8324    0.5341   10.3467 N   0  0  0  0  0  0  0  0  0  0  0  0
   10.1851    0.2439    7.2232 C   0  0  0  0  0  0  0  0  0  0  0  0
    9.2690    0.2078    6.2875 N   0  0  0  0  0  0  0  0  0  0  0  0
    7.4293    0.1052    4.1953 C   0  0  0  0  0  0  0  0  0  0  0  0
    6.5488    0.0424    3.1289 C   0  0  0  0  0  0  0  0  0  0  0  0
    3.6709   -1.0514    1.8867 C   0  0  0  0  0  0  0  0  0  0  0  0
    4.0237   -2.2059    2.6413 C   0  0  0  0  0  0  0  0  0  0  0  0
    3.4775   -3.4372    2.3349 C   0  0  0  0  0  0  0  0  0  0  0  0
    2.5665   -3.5551    1.2731 C   0  0  0  0  0  0  0  0  0  0  0  0
    2.2169   -2.4268    0.5297 C   0  0  0  0  0  0  0  0  0  0  0  0
    2.7472   -1.1630    0.8058 C   0  0  0  0  0  0  0  0  0  0  0  0
    0.4537    1.0816   -0.5187 H   0  0  0  0  0  0  0  0  0  0  0  0
    0.5026    0.4223    1.1355 H   0  0  0  0  0  0  0  0  0  0  0  0
    0.2558   -0.6634   -0.2553 H   0  0  0  0  0  0  0  0  0  0  0  0
    2.3942    0.6051   -2.1617 H   0  0  0  0  0  0  0  0  0  0  0  0
    2.1947   -1.1377   -1.8918 H   0  0  0  0  0  0  0  0  0  0  0  0
    3.7854   -0.3767   -1.6388 H   0  0  0  0  0  0  0  0  0  0  0  0
    2.0812    2.5384   -1.0725 H   0  0  0  0  0  0  0  0  0  0  0  0
    3.1730    4.6363   -0.3899 H   0  0  0  0  0  0  0  0  0  0  0  0
    4.7838    4.6463    1.5324 H   0  0  0  0  0  0  0  0  0  0  0  0
    5.2636    2.5386    2.7390 H   0  0  0  0  0  0  0  0  0  0  0  0
    3.6270    0.6429    4.8114 H   0  0  0  0  0  0  0  0  0  0  0  0
    5.1774    0.7551    6.6967 H   0  0  0  0  0  0  0  0  0  0  0  0
    6.5490    0.8492    8.2511 H   0  0  0  0  0  0  0  0  0  0  0  0
    8.2863    0.9128    9.9944 H   0  0  0  0  0  0  0  0  0  0  0  0
   11.2231    0.0691    6.9104 H   0  0  0  0  0  0  0  0  0  0  0  0
    8.4987   -0.0424    4.0445 H   0  0  0  0  0  0  0  0  0  0  0  0
    6.9248   -0.1577    2.1217 H   0  0  0  0  0  0  0  0  0  0  0  0
    4.7303   -2.1017    3.4603 H   0  0  0  0  0  0  0  0  0  0  0  0
    3.7585   -4.3137    2.9216 H   0  0  0  0  0  0  0  0  0  0  0  0
    2.1306   -4.5251    1.0254 H   0  0  0  0  0  0  0  0  0  0  0  0
    1.5080   -2.5410   -0.2916 H   0  0  0  0  0  0  0  0  0  0  0  0
  2  1  1  6
  1 31  1  0
  1 32  1  0
  1 33  1  0
  2  3  1  0
  2  4  1  0
  2 30  1  0
  3 34  1  0
  3 35  1  0
  3 36  1  0
  4  5  1  0
  4  9  2  0
  5  6  2  0
  5 37  1  0
  6  7  1  0
  6 38  1  0
  7  8  2  0
  7 39  1  0
  8  9  1  0
  8 40  1  0
  9 10  1  0
 10 11  1  0
 10 25  1  0
 11 12  2  0
 11 24  1  0
 12 13  1  0
 12 41  1  0
 13 14  2  0
 13 42  1  0
 14 15  1  0
 14 23  1  0
 15 16  2  0
 15 22  1  0
 16 17  1  0
 16 43  1  0
 17 18  2  0
 17 44  1  0
 18 19  1  0
 18 21  1  0
 19 20  3  0
 21 22  2  0
 21 45  1  0
 23 24  2  0
 23 46  1  0
 24 47  1  0
 25 26  1  0
 25 30  2  0
 26 27  2  0
 26 48  1  0
 27 28  1  0
 27 49  1  0
 28 29  2  0
 28 50  1  0
 29 30  1  0
 29 51  1  0
M  END

