
     RDKit          3D

 31 32  0  0  0  0  0  0  0  0999 V2000
    4.1135    3.6680   -0.0733 C   0  0  0  0  0  0  0  0  0  0  0  0
    3.7066    3.3178    1.3333 C   0  0  0  0  0  0  0  0  0  0  0  0
    4.0752    3.9002    2.3208 O   0  0  0  0  0  0  0  0  0  0  0  0
    2.7845    2.0698    1.4556 C   0  0  1  0  0  0  0  0  0  0  0  0
    2.0621    2.0661    0.6246 H   0  0  0  0  0  0  0  0  0  0  0  0
    3.6331    0.8077    1.4443 C   0  0  0  0  0  0  0  0  0  0  0  0
    4.3026    0.3667    0.5521 O   0  0  0  0  0  0  0  0  0  0  0  0
    3.5208    0.1740    2.8477 C   0  0  0  0  0  0  0  0  0  0  0  0
    4.0988   -0.8056    3.2323 O   0  0  0  0  0  0  0  0  0  0  0  0
    2.6083    0.9644    3.5638 N   0  0  0  0  0  0  0  0  0  0  0  0
    2.2340    0.7092    4.9188 C   0  0  0  0  0  0  0  0  0  0  0  0
    2.0245   -0.6089    5.3495 C   0  0  0  0  0  0  0  0  0  0  0  0
    1.6721   -0.8548    6.6759 C   0  0  0  0  0  0  0  0  0  0  0  0
    1.5335    0.2182    7.5579 C   0  0  0  0  0  0  0  0  0  0  0  0
    1.0772   -0.1025    9.2660 S   0  0  1  0  0  0  0  0  0  0  0  0
    2.5654   -0.2539   10.0472 N   0  0  0  0  0  0  0  0  0  0  0  0
    0.4404    1.1095    9.7846 O   0  0  0  0  0  0  0  0  0  0  0  0
    0.4329   -1.4168    9.3065 O   0  0  0  0  0  0  0  0  0  0  0  0
    1.7257    1.5353    7.1344 C   0  0  0  0  0  0  0  0  0  0  0  0
    2.0850    1.7822    5.8106 C   0  0  0  0  0  0  0  0  0  0  0  0
    2.0694    2.0290    2.7976 C   0  0  0  0  0  0  0  0  0  0  0  0
    1.1939    2.7633    3.1630 O   0  0  0  0  0  0  0  0  0  0  0  0
    4.8723    4.4607   -0.0587 H   0  0  0  0  0  0  0  0  0  0  0  0
    3.2294    4.0090   -0.6380 H   0  0  0  0  0  0  0  0  0  0  0  0
    4.4973    2.7690   -0.5831 H   0  0  0  0  0  0  0  0  0  0  0  0
    2.1410   -1.4398    4.6551 H   0  0  0  0  0  0  0  0  0  0  0  0
    1.4880   -1.8723    7.0242 H   0  0  0  0  0  0  0  0  0  0  0  0
    2.6661    0.4706   10.7577 H   0  0  0  0  0  0  0  0  0  0  0  0
    2.6675   -1.1920   10.4338 H   0  0  0  0  0  0  0  0  0  0  0  0
    1.5852    2.3588    7.8364 H   0  0  0  0  0  0  0  0  0  0  0  0
    2.2398    2.8046    5.4680 H   0  0  0  0  0  0  0  0  0  0  0  0
  1  2  1  0
  1 23  1  0
  1 24  1  0
  1 25  1  0
  2  3  2  0
  2  4  1  0
  4  5  1  6
  4  6  1  0
  4 21  1  0
  6  7  2  0
  6  8  1  0
  8  9  2  0
  8 10  1  0
 10 11  1  0
 10 21  1  0
 11 12  2  0
 11 20  1  0
 12 13  1  0
 12 26  1  0
 13 14  2  0
 13 27  1  0
 14 15  1  0
 14 19  1  0
 15 16  1  1
 15 17  2  0
 15 18  2  0
 16 28  1  0
 16 29  1  0
 19 20  2  0
 19 30  1  0
 20 31  1  0
 21 22  2  0
M  END

