
     RDKit          3D

 29 31  0  0  0  0  0  0  0  0999 V2000
    0.8527    0.2827   -0.0352 O   0  0  0  0  0  0  0  0  0  0  0  0
    2.0531    0.1694   -0.0734 C   0  0  0  0  0  0  0  0  0  0  0  0
    2.7111   -1.1964    0.1054 C   0  0  0  0  0  0  0  0  0  0  0  0
    3.9178   -1.3659   -0.8272 C   0  0  0  0  0  0  0  0  0  0  0  0
    4.4162   -2.5417   -0.8432 O   0  0  0  0  0  0  0  0  0  0  0  0
    4.8959   -0.1945   -0.9177 C   0  0  2  0  0  0  0  0  0  0  0  0
    5.5791   -0.4034   -1.7546 H   0  0  0  0  0  0  0  0  0  0  0  0
    5.7741   -0.1128    0.2602 N   0  0  0  0  0  0  0  0  0  0  0  0
    7.0379   -0.5871    0.3806 C   0  0  0  0  0  0  0  0  0  0  0  0
    7.4470   -0.5024    1.6331 N   0  0  0  0  0  0  0  0  0  0  0  0
    6.3699    0.0257    2.2649 C   0  0  0  0  0  0  0  0  0  0  0  0
    5.3280    0.2689    1.4801 N   0  0  0  0  0  0  0  0  0  0  0  0
    4.1221    1.1218   -1.2304 C   0  0  2  0  0  0  0  0  0  0  0  0
    3.6620    0.9226   -2.2104 H   0  0  0  0  0  0  0  0  0  0  0  0
    5.0108    2.3194   -1.3730 C   0  0  0  0  0  0  0  0  0  0  0  0
    5.6808    3.0445   -0.3993 C   0  0  0  0  0  0  0  0  0  0  0  0
    6.4333    4.1263   -0.9261 C   0  0  0  0  0  0  0  0  0  0  0  0
    6.3385    4.2220   -2.2985 C   0  0  0  0  0  0  0  0  0  0  0  0
    5.3247    2.9914   -2.9547 S   0  0  0  0  0  0  0  0  0  0  0  0
    2.9713    1.3703   -0.2263 C   0  0  0  0  0  0  0  0  0  0  0  0
    1.9643   -1.9796   -0.0859 H   0  0  0  0  0  0  0  0  0  0  0  0
    3.0240   -1.2802    1.1709 H   0  0  0  0  0  0  0  0  0  0  0  0
    7.6026   -0.9787   -0.4651 H   0  0  0  0  0  0  0  0  0  0  0  0
    6.3428    0.2388    3.3339 H   0  0  0  0  0  0  0  0  0  0  0  0
    5.6324    2.7925    0.6604 H   0  0  0  0  0  0  0  0  0  0  0  0
    7.0263    4.8109   -0.3181 H   0  0  0  0  0  0  0  0  0  0  0  0
    6.8104    4.9535   -2.9535 H   0  0  0  0  0  0  0  0  0  0  0  0
    2.3669    2.2390   -0.5224 H   0  0  0  0  0  0  0  0  0  0  0  0
    3.3931    1.5505    0.7760 H   0  0  0  0  0  0  0  0  0  0  0  0
  1  2  2  0
  2  3  1  0
  2 20  1  0
  3  4  1  0
  3 21  1  0
  3 22  1  0
  4  5  2  0
  4  6  1  0
  6  7  1  6
  6  8  1  0
  6 13  1  0
  8  9  1  0
  8 12  1  0
  9 10  2  0
  9 23  1  0
 10 11  1  0
 11 12  2  0
 11 24  1  0
 13 14  1  6
 13 15  1  0
 13 20  1  0
 15 16  2  0
 15 19  1  0
 16 17  1  0
 16 25  1  0
 17 18  2  0
 17 26  1  0
 18 19  1  0
 18 27  1  0
 20 28  1  0
 20 29  1  0
M  END

