
     RDKit          3D

100107  0  0  0  0  0  0  0  0999 V2000
    5.1385   -2.5202   -4.0835 N   0  0  0  0  0  0  0  0  0  0  0  0
    5.2356   -2.0145   -3.0417 C   0  0  0  0  0  0  0  0  0  0  0  0
    5.3925   -1.3391   -1.7842 C   0  0  0  0  0  0  0  0  0  0  0  0
    6.0956   -0.1263   -1.8249 C   0  0  0  0  0  0  0  0  0  0  0  0
    6.3288    0.6439   -0.6719 C   0  0  0  0  0  0  0  0  0  0  0  0
    7.0509    1.9150   -0.6755 C   0  0  0  0  0  0  0  0  0  0  0  0
    7.6112    2.5349   -1.7406 C   0  0  0  0  0  0  0  0  0  0  0  0
    8.3238    3.8117   -1.7419 C   0  0  0  0  0  0  0  0  0  0  0  0
    8.8557    4.3091   -2.9540 C   0  0  0  0  0  0  0  0  0  0  0  0
    9.5344    5.5171   -3.0173 C   0  0  0  0  0  0  0  0  0  0  0  0
    9.7357    6.3220   -1.8758 C   0  0  0  0  0  0  0  0  0  0  0  0
   10.4384    7.5996   -1.9036 C   0  0  0  0  0  0  0  0  0  0  0  0
   11.0107    8.1823   -2.9864 C   0  0  0  0  0  0  0  0  0  0  0  0
   11.7048    9.4648   -3.0306 C   0  0  0  0  0  0  0  0  0  0  0  0
   12.2785    9.8992   -4.2445 C   0  0  0  0  0  0  0  0  0  0  0  0
   12.9552   11.1096   -4.3489 C   0  0  0  0  0  0  0  0  0  0  0  0
   13.0792   11.9595   -3.2318 C   0  0  0  0  0  0  0  0  0  0  0  0
   13.7539   13.1936   -3.3266 N   0  0  0  0  0  0  0  0  0  0  0  0
   13.6929   13.9597   -4.5247 C   0  0  0  0  0  0  0  0  0  0  0  0
   12.4683   14.1564   -5.1880 C   0  0  0  0  0  0  0  0  0  0  0  0
   12.4162   14.9076   -6.3631 C   0  0  0  0  0  0  0  0  0  0  0  0
   13.5755   15.4890   -6.8871 C   0  0  0  0  0  0  0  0  0  0  0  0
   14.7930   15.3050   -6.2243 C   0  0  0  0  0  0  0  0  0  0  0  0
   14.8569   14.5416   -5.0572 C   0  0  0  0  0  0  0  0  0  0  0  0
   14.5070   13.6904   -2.2253 C   0  0  0  0  0  0  0  0  0  0  0  0
   15.3755   12.8455   -1.5116 C   0  0  0  0  0  0  0  0  0  0  0  0
   16.1062   13.3381   -0.4290 C   0  0  0  0  0  0  0  0  0  0  0  0
   15.9993   14.6807   -0.0519 C   0  0  0  0  0  0  0  0  0  0  0  0
   15.1456   15.5268   -0.7670 C   0  0  0  0  0  0  0  0  0  0  0  0
   14.3987   15.0384   -1.8404 C   0  0  0  0  0  0  0  0  0  0  0  0
   12.5029   11.5391   -2.0120 C   0  0  0  0  0  0  0  0  0  0  0  0
   11.8400   10.3238   -1.9164 C   0  0  0  0  0  0  0  0  0  0  0  0
    9.2007    5.8204   -0.6508 C   0  0  0  0  0  0  0  0  0  0  0  0
    9.3527    6.5665    0.5681 C   0  0  0  0  0  0  0  0  0  0  0  0
    9.4702    7.1625    1.5585 N   0  0  0  0  0  0  0  0  0  0  0  0
    8.5158    4.5994   -0.5940 C   0  0  0  0  0  0  0  0  0  0  0  0
    5.8210    0.1349    0.5425 C   0  0  0  0  0  0  0  0  0  0  0  0
    5.1250   -1.0640    0.5918 C   0  0  0  0  0  0  0  0  0  0  0  0
    4.8736   -1.8525   -0.5543 C   0  0  0  0  0  0  0  0  0  0  0  0
    4.1181   -3.0857   -0.3599 C   0  0  0  0  0  0  0  0  0  0  0  0
    3.7077   -4.0069   -1.2683 C   0  0  0  0  0  0  0  0  0  0  0  0
    2.9425   -5.2193   -0.9894 C   0  0  0  0  0  0  0  0  0  0  0  0
    2.5514   -5.6324    0.3039 C   0  0  0  0  0  0  0  0  0  0  0  0
    1.8225   -6.7958    0.5072 C   0  0  0  0  0  0  0  0  0  0  0  0
    1.4348   -7.6090   -0.5809 C   0  0  0  0  0  0  0  0  0  0  0  0
    0.6887   -8.7880   -0.3725 N   0  0  0  0  0  0  0  0  0  0  0  0
   -0.3026   -8.8410    0.6469 C   0  0  0  0  0  0  0  0  0  0  0  0
   -1.2079   -7.7789    0.8220 C   0  0  0  0  0  0  0  0  0  0  0  0
   -2.1774   -7.8368    1.8246 C   0  0  0  0  0  0  0  0  0  0  0  0
   -2.2736   -8.9573    2.6562 C   0  0  0  0  0  0  0  0  0  0  0  0
   -1.3814  -10.0196    2.4788 C   0  0  0  0  0  0  0  0  0  0  0  0
   -0.3982   -9.9628    1.4896 C   0  0  0  0  0  0  0  0  0  0  0  0
    0.9087   -9.9341   -1.1870 C   0  0  0  0  0  0  0  0  0  0  0  0
    2.2151  -10.3644   -1.4807 C   0  0  0  0  0  0  0  0  0  0  0  0
    2.4237  -11.4890   -2.2807 C   0  0  0  0  0  0  0  0  0  0  0  0
    1.3387  -12.2129   -2.7860 C   0  0  0  0  0  0  0  0  0  0  0  0
    0.0382  -11.7940   -2.4877 C   0  0  0  0  0  0  0  0  0  0  0  0
   -0.1794  -10.6608   -1.7022 C   0  0  0  0  0  0  0  0  0  0  0  0
    1.8186   -7.2085   -1.8759 C   0  0  0  0  0  0  0  0  0  0  0  0
    2.5584   -6.0465   -2.0668 C   0  0  0  0  0  0  0  0  0  0  0  0
    6.4635    0.2129   -2.7944 H   0  0  0  0  0  0  0  0  0  0  0  0
    7.1255    2.3892    0.3084 H   0  0  0  0  0  0  0  0  0  0  0  0
    7.5413    2.0591   -2.7242 H   0  0  0  0  0  0  0  0  0  0  0  0
    8.7249    3.7235   -3.8682 H   0  0  0  0  0  0  0  0  0  0  0  0
    9.9188    5.8510   -3.9825 H   0  0  0  0  0  0  0  0  0  0  0  0
   10.4948    8.1164   -0.9421 H   0  0  0  0  0  0  0  0  0  0  0  0
   10.9674    7.6628   -3.9494 H   0  0  0  0  0  0  0  0  0  0  0  0
   12.2016    9.2584   -5.1276 H   0  0  0  0  0  0  0  0  0  0  0  0
   13.3973   11.4029   -5.3022 H   0  0  0  0  0  0  0  0  0  0  0  0
   11.5577   13.7174   -4.7757 H   0  0  0  0  0  0  0  0  0  0  0  0
   11.4561   15.0510   -6.8658 H   0  0  0  0  0  0  0  0  0  0  0  0
   13.5298   16.0821   -7.8035 H   0  0  0  0  0  0  0  0  0  0  0  0
   15.7076   15.7500   -6.6248 H   0  0  0  0  0  0  0  0  0  0  0  0
   15.8118   14.3915   -4.5500 H   0  0  0  0  0  0  0  0  0  0  0  0
   15.4736   11.8000   -1.8102 H   0  0  0  0  0  0  0  0  0  0  0  0
   16.7757   12.6674    0.1158 H   0  0  0  0  0  0  0  0  0  0  0  0
   16.5771   15.0646    0.7921 H   0  0  0  0  0  0  0  0  0  0  0  0
   15.0486   16.5770   -0.4798 H   0  0  0  0  0  0  0  0  0  0  0  0
   13.7243   15.7000   -2.3874 H   0  0  0  0  0  0  0  0  0  0  0  0
   12.5738   12.1840   -1.1348 H   0  0  0  0  0  0  0  0  0  0  0  0
   11.4012   10.0465   -0.9556 H   0  0  0  0  0  0  0  0  0  0  0  0
    8.1288    4.2726    0.3721 H   0  0  0  0  0  0  0  0  0  0  0  0
    5.9799    0.7001    1.4650 H   0  0  0  0  0  0  0  0  0  0  0  0
    4.7483   -1.4195    1.5541 H   0  0  0  0  0  0  0  0  0  0  0  0
    3.8530   -3.2535    0.6887 H   0  0  0  0  0  0  0  0  0  0  0  0
    3.9472   -3.8641   -2.3230 H   0  0  0  0  0  0  0  0  0  0  0  0
    2.8373   -5.0412    1.1766 H   0  0  0  0  0  0  0  0  0  0  0  0
    1.5498   -7.0921    1.5213 H   0  0  0  0  0  0  0  0  0  0  0  0
   -1.1475   -6.9088    0.1655 H   0  0  0  0  0  0  0  0  0  0  0  0
   -2.8735   -7.0027    1.9462 H   0  0  0  0  0  0  0  0  0  0  0  0
   -3.0383   -9.0025    3.4352 H   0  0  0  0  0  0  0  0  0  0  0  0
   -1.4417  -10.8992    3.1252 H   0  0  0  0  0  0  0  0  0  0  0  0
    0.3032  -10.7898    1.3636 H   0  0  0  0  0  0  0  0  0  0  0  0
    3.0660   -9.8124   -1.0772 H   0  0  0  0  0  0  0  0  0  0  0  0
    3.4457  -11.8095   -2.4992 H   0  0  0  0  0  0  0  0  0  0  0  0
    1.5055  -13.0965   -3.4065 H   0  0  0  0  0  0  0  0  0  0  0  0
   -0.8190  -12.3470   -2.8806 H   0  0  0  0  0  0  0  0  0  0  0  0
   -1.1966  -10.3310   -1.4827 H   0  0  0  0  0  0  0  0  0  0  0  0
    1.5283   -7.8134   -2.7363 H   0  0  0  0  0  0  0  0  0  0  0  0
    2.8380   -5.7558   -3.0832 H   0  0  0  0  0  0  0  0  0  0  0  0
  1  2  3  0
  2  3  1  0
  3  4  2  0
  3 39  1  0
  4  5  1  0
  4 61  1  0
  5  6  1  0
  5 37  2  0
  6  7  2  0
  6 62  1  0
  7  8  1  0
  7 63  1  0
  8  9  2  0
  8 36  1  0
  9 10  1  0
  9 64  1  0
 10 11  2  0
 10 65  1  0
 11 12  1  0
 11 33  1  0
 12 13  2  0
 12 66  1  0
 13 14  1  0
 13 67  1  0
 14 15  2  0
 14 32  1  0
 15 16  1  0
 15 68  1  0
 16 17  2  0
 16 69  1  0
 17 18  1  0
 17 31  1  0
 18 19  1  0
 18 25  1  0
 19 20  2  0
 19 24  1  0
 20 21  1  0
 20 70  1  0
 21 22  2  0
 21 71  1  0
 22 23  1  0
 22 72  1  0
 23 24  2  0
 23 73  1  0
 24 74  1  0
 25 26  2  0
 25 30  1  0
 26 27  1  0
 26 75  1  0
 27 28  2  0
 27 76  1  0
 28 29  1  0
 28 77  1  0
 29 30  2  0
 29 78  1  0
 30 79  1  0
 31 32  2  0
 31 80  1  0
 32 81  1  0
 33 34  1  0
 33 36  2  0
 34 35  3  0
 36 82  1  0
 37 38  1  0
 37 83  1  0
 38 39  2  0
 38 84  1  0
 39 40  1  0
 40 41  2  0
 40 85  1  0
 41 42  1  0
 41 86  1  0
 42 43  2  0
 42 60  1  0
 43 44  1  0
 43 87  1  0
 44 45  2  0
 44 88  1  0
 45 46  1  0
 45 59  1  0
 46 47  1  0
 46 53  1  0
 47 48  2  0
 47 52  1  0
 48 49  1  0
 48 89  1  0
 49 50  2  0
 49 90  1  0
 50 51  1  0
 50 91  1  0
 51 52  2  0
 51 92  1  0
 52 93  1  0
 53 54  2  0
 53 58  1  0
 54 55  1  0
 54 94  1  0
 55 56  2  0
 55 95  1  0
 56 57  1  0
 56 96  1  0
 57 58  2  0
 57 97  1  0
 58 98  1  0
 59 60  2  0
 59 99  1  0
 60100  1  0
M  END

