
     RDKit          3D

 34 35  0  0  0  0  0  0  0  0999 V2000
    1.6599    1.1136   -0.8249 C   0  0  0  0  0  0  0  0  0  0  0  0
    2.8583    0.3252   -0.4416 C   0  0  0  0  0  0  0  0  0  0  0  0
    3.5969    0.7971    0.5928 O   0  0  0  0  0  0  0  0  0  0  0  0
    4.6501   -0.0388    0.8132 C   0  0  0  0  0  0  0  0  0  0  0  0
    5.5902    0.3284    1.9057 C   0  0  0  0  0  0  0  0  0  0  0  0
    4.6010   -1.0834   -0.0794 C   0  0  0  0  0  0  0  0  0  0  0  0
    5.5786   -2.1890   -0.1781 C   0  0  0  0  0  0  0  0  0  0  0  0
    6.4324   -2.4205   -1.2307 C   0  0  0  0  0  0  0  0  0  0  0  0
    6.6620   -1.7317   -2.5287 C   0  0  0  0  0  0  0  0  0  0  0  0
    7.2000   -3.5135   -0.9616 O   0  0  0  0  0  0  0  0  0  0  0  0
    6.8728   -4.0015    0.2603 C   0  0  0  0  0  0  0  0  0  0  0  0
    7.6148   -5.2008    0.7249 C   0  0  0  0  0  0  0  0  0  0  0  0
    5.8680   -3.2310    0.8047 C   0  0  0  0  0  0  0  0  0  0  0  0
    5.2379   -3.4906    2.1292 C   0  0  0  0  0  0  0  0  0  0  0  0
    5.6168   -4.3437    2.8938 O   0  0  0  0  0  0  0  0  0  0  0  0
    4.1844   -2.7137    2.4547 O   0  0  0  0  0  0  0  0  0  0  0  0
    3.4212   -0.8436   -0.9072 C   0  0  0  0  0  0  0  0  0  0  0  0
    2.8617   -1.6576   -2.0221 C   0  0  0  0  0  0  0  0  0  0  0  0
    1.9260   -1.3101   -2.7000 O   0  0  0  0  0  0  0  0  0  0  0  0
    3.4591   -2.8443   -2.2549 O   0  0  0  0  0  0  0  0  0  0  0  0
    1.9493    2.1353   -1.1225 H   0  0  0  0  0  0  0  0  0  0  0  0
    0.9670    1.2044    0.0280 H   0  0  0  0  0  0  0  0  0  0  0  0
    1.1529    0.6216   -1.6620 H   0  0  0  0  0  0  0  0  0  0  0  0
    5.1101    0.2475    2.8951 H   0  0  0  0  0  0  0  0  0  0  0  0
    5.9368    1.3676    1.7875 H   0  0  0  0  0  0  0  0  0  0  0  0
    6.4645   -0.3360    1.8950 H   0  0  0  0  0  0  0  0  0  0  0  0
    6.0931   -0.7932   -2.5653 H   0  0  0  0  0  0  0  0  0  0  0  0
    6.3461   -2.3580   -3.3797 H   0  0  0  0  0  0  0  0  0  0  0  0
    7.7311   -1.5011   -2.6627 H   0  0  0  0  0  0  0  0  0  0  0  0
    8.6959   -4.9894    0.7754 H   0  0  0  0  0  0  0  0  0  0  0  0
    7.4773   -6.0389    0.0217 H   0  0  0  0  0  0  0  0  0  0  0  0
    7.2543   -5.4893    1.7183 H   0  0  0  0  0  0  0  0  0  0  0  0
    3.9806   -2.0830    1.7421 H   0  0  0  0  0  0  0  0  0  0  0  0
    4.1837   -3.0011   -1.6244 H   0  0  0  0  0  0  0  0  0  0  0  0
  1  2  1  0
  1 21  1  0
  1 22  1  0
  1 23  1  0
  2  3  1  0
  2 17  2  0
  3  4  1  0
  4  5  1  0
  4  6  2  0
  5 24  1  0
  5 25  1  0
  5 26  1  0
  6  7  1  0
  6 17  1  0
  7  8  2  0
  7 13  1  0
  8  9  1  0
  8 10  1  0
  9 27  1  0
  9 28  1  0
  9 29  1  0
 10 11  1  0
 11 12  1  0
 11 13  2  0
 12 30  1  0
 12 31  1  0
 12 32  1  0
 13 14  1  0
 14 15  2  0
 14 16  1  0
 16 33  1  0
 17 18  1  0
 18 19  2  0
 18 20  1  0
 20 34  1  0
M  END

