
     RDKit          3D

 68 72  0  0  0  0  0  0  0  0999 V2000
   12.8935    3.5468    7.1157 C   0  0  0  0  0  0  0  0  0  0  0  0
   12.0068    4.6194    6.7195 N   0  0  0  0  0  0  0  0  0  0  0  0
   12.4466    5.9942    6.8286 C   0  0  0  0  0  0  0  0  0  0  0  0
   10.7238    4.3324    6.2835 C   0  0  0  0  0  0  0  0  0  0  0  0
    9.8242    5.3691    5.9181 C   0  0  0  0  0  0  0  0  0  0  0  0
    8.5374    5.0675    5.4781 C   0  0  0  0  0  0  0  0  0  0  0  0
    8.0955    3.7481    5.3847 C   0  0  0  0  0  0  0  0  0  0  0  0
    8.9620    2.6962    5.7407 C   0  0  0  0  0  0  0  0  0  0  0  0
    8.4677    1.3223    5.6296 C   0  0  0  0  0  0  0  0  0  0  0  0
    9.1348    0.1803    5.9147 C   0  0  0  0  0  0  0  0  0  0  0  0
    8.5502   -1.1318    5.7637 C   0  0  0  0  0  0  0  0  0  0  0  0
    7.3569   -1.4762    5.3517 N   0  0  0  0  0  0  0  0  0  0  0  0
    7.3404   -2.8452    5.4021 C   0  0  0  0  0  0  0  0  0  0  0  0
    8.5545   -3.3113    5.8544 C   0  0  0  0  0  0  0  0  0  0  0  0
    9.1200   -4.6280    6.1097 C   0  0  0  0  0  0  0  0  0  0  0  0
   10.4235   -4.7736    6.6200 C   0  0  0  0  0  0  0  0  0  0  0  0
   10.9559   -6.0420    6.8471 C   0  0  0  0  0  0  0  0  0  0  0  0
   10.2080   -7.1930    6.5829 C   0  0  0  0  0  0  0  0  0  0  0  0
   10.7368   -8.4298    6.8467 O   0  0  0  0  0  0  0  0  0  0  0  0
   11.0433   -9.2595    5.7127 C   0  0  0  0  0  0  0  0  0  0  0  0
   12.3124   -8.8437    5.0027 C   0  0  0  0  0  0  0  0  0  0  0  0
   13.5235   -8.7573    5.7095 C   0  0  0  0  0  0  0  0  0  0  0  0
   14.7007   -8.3846    5.0593 C   0  0  0  0  0  0  0  0  0  0  0  0
   14.6852   -8.0946    3.6894 C   0  0  0  0  0  0  0  0  0  0  0  0
   13.4860   -8.1755    2.9781 C   0  0  0  0  0  0  0  0  0  0  0  0
   12.3063   -8.5436    3.6344 C   0  0  0  0  0  0  0  0  0  0  0  0
    8.8883   -7.0572    6.0933 C   0  0  0  0  0  0  0  0  0  0  0  0
    8.1358   -8.1667    5.8003 O   0  0  0  0  0  0  0  0  0  0  0  0
    7.6435   -8.9242    6.9195 C   0  0  0  0  0  0  0  0  0  0  0  0
    6.4537   -8.2762    7.5910 C   0  0  0  0  0  0  0  0  0  0  0  0
    5.2796   -8.0273    6.8604 C   0  0  0  0  0  0  0  0  0  0  0  0
    4.1751   -7.4314    7.4707 C   0  0  0  0  0  0  0  0  0  0  0  0
    4.2272   -7.0770    8.8244 C   0  0  0  0  0  0  0  0  0  0  0  0
    5.3896   -7.3192    9.5595 C   0  0  0  0  0  0  0  0  0  0  0  0
    6.4973   -7.9118    8.9430 C   0  0  0  0  0  0  0  0  0  0  0  0
    8.3628   -5.7887    5.8565 C   0  0  0  0  0  0  0  0  0  0  0  0
    9.3266   -2.2060    6.0856 O   0  0  0  0  0  0  0  0  0  0  0  0
   10.2621    3.0015    6.1858 C   0  0  0  0  0  0  0  0  0  0  0  0
   13.8584    3.9666    7.4275 H   0  0  0  0  0  0  0  0  0  0  0  0
   13.0893    2.8390    6.2885 H   0  0  0  0  0  0  0  0  0  0  0  0
   12.4929    2.9598    7.9642 H   0  0  0  0  0  0  0  0  0  0  0  0
   13.4869    6.0172    7.1778 H   0  0  0  0  0  0  0  0  0  0  0  0
   11.8392    6.5778    7.5466 H   0  0  0  0  0  0  0  0  0  0  0  0
   12.4093    6.5232    5.8582 H   0  0  0  0  0  0  0  0  0  0  0  0
   10.1291    6.4130    5.9775 H   0  0  0  0  0  0  0  0  0  0  0  0
    7.8663    5.8857    5.2033 H   0  0  0  0  0  0  0  0  0  0  0  0
    7.0841    3.5238    5.0385 H   0  0  0  0  0  0  0  0  0  0  0  0
    7.4385    1.2144    5.2718 H   0  0  0  0  0  0  0  0  0  0  0  0
   10.1655    0.1873    6.2770 H   0  0  0  0  0  0  0  0  0  0  0  0
    6.4631   -3.4221    5.1152 H   0  0  0  0  0  0  0  0  0  0  0  0
   11.0219   -3.8856    6.8275 H   0  0  0  0  0  0  0  0  0  0  0  0
   11.9713   -6.1637    7.2286 H   0  0  0  0  0  0  0  0  0  0  0  0
   10.1926   -9.2751    5.0137 H   0  0  0  0  0  0  0  0  0  0  0  0
   11.1564  -10.2698    6.1363 H   0  0  0  0  0  0  0  0  0  0  0  0
   13.5354   -8.9810    6.7798 H   0  0  0  0  0  0  0  0  0  0  0  0
   15.6369   -8.3223    5.6204 H   0  0  0  0  0  0  0  0  0  0  0  0
   15.6076   -7.8045    3.1798 H   0  0  0  0  0  0  0  0  0  0  0  0
   13.4650   -7.9449    1.9099 H   0  0  0  0  0  0  0  0  0  0  0  0
   11.3673   -8.5967    3.0759 H   0  0  0  0  0  0  0  0  0  0  0  0
    8.4544   -9.0993    7.6442 H   0  0  0  0  0  0  0  0  0  0  0  0
    7.3558   -9.8953    6.4874 H   0  0  0  0  0  0  0  0  0  0  0  0
    5.2380   -8.3025    5.8027 H   0  0  0  0  0  0  0  0  0  0  0  0
    3.2670   -7.2445    6.8914 H   0  0  0  0  0  0  0  0  0  0  0  0
    3.3618   -6.6114    9.3029 H   0  0  0  0  0  0  0  0  0  0  0  0
    5.4391   -7.0407   10.6154 H   0  0  0  0  0  0  0  0  0  0  0  0
    7.4087   -8.0923    9.5201 H   0  0  0  0  0  0  0  0  0  0  0  0
    7.3433   -5.7278    5.4733 H   0  0  0  0  0  0  0  0  0  0  0  0
   10.9246    2.1826    6.4585 H   0  0  0  0  0  0  0  0  0  0  0  0
  1  2  1  0
  1 39  1  0
  1 40  1  0
  1 41  1  0
  2  3  1  0
  2  4  1  0
  3 42  1  0
  3 43  1  0
  3 44  1  0
  4  5  2  0
  4 38  1  0
  5  6  1  0
  5 45  1  0
  6  7  2  0
  6 46  1  0
  7  8  1  0
  7 47  1  0
  8  9  1  0
  8 38  2  0
  9 10  2  0
  9 48  1  0
 10 11  1  0
 10 49  1  0
 11 12  2  0
 11 37  1  0
 12 13  1  0
 13 14  2  0
 13 50  1  0
 14 15  1  0
 14 37  1  0
 15 16  2  0
 15 36  1  0
 16 17  1  0
 16 51  1  0
 17 18  2  0
 17 52  1  0
 18 19  1  0
 18 27  1  0
 19 20  1  0
 20 21  1  0
 20 53  1  0
 20 54  1  0
 21 22  2  0
 21 26  1  0
 22 23  1  0
 22 55  1  0
 23 24  2  0
 23 56  1  0
 24 25  1  0
 24 57  1  0
 25 26  2  0
 25 58  1  0
 26 59  1  0
 27 28  1  0
 27 36  2  0
 28 29  1  0
 29 30  1  0
 29 60  1  0
 29 61  1  0
 30 31  2  0
 30 35  1  0
 31 32  1  0
 31 62  1  0
 32 33  2  0
 32 63  1  0
 33 34  1  0
 33 64  1  0
 34 35  2  0
 34 65  1  0
 35 66  1  0
 36 67  1  0
 38 68  1  0
M  END

