
     RDKit          3D

 51 53  0  0  0  0  0  0  0  0999 V2000
    3.1177   -3.3271   -6.6828 C   0  0  0  0  0  0  0  0  0  0  0  0
    3.9157   -2.1877   -6.0437 C   0  0  0  0  0  0  0  0  0  0  0  0
    3.4269   -1.8082   -4.7146 N   0  0  0  0  0  0  0  0  0  0  0  0
    2.2755   -0.7400   -4.7220 C   0  0  0  0  0  0  0  0  0  0  0  0
    1.0857   -0.9922   -3.8975 C   0  0  0  0  0  0  0  0  0  0  0  0
    0.1298   -2.0344   -4.2516 C   0  0  0  0  0  0  0  0  0  0  0  0
   -1.0522   -2.1581   -3.5468 C   0  0  0  0  0  0  0  0  0  0  0  0
   -1.3885   -1.2904   -2.4832 C   0  0  0  0  0  0  0  0  0  0  0  0
   -0.4802   -0.2188   -2.1518 C   0  0  0  0  0  0  0  0  0  0  0  0
   -0.8565    0.7845   -1.0916 C   0  0  0  0  0  0  0  0  0  0  0  0
   -1.5834    1.9414   -1.6218 N   0  0  0  0  0  0  0  0  0  0  0  0
   -2.9156    1.7908   -2.2457 C   0  0  0  0  0  0  0  0  0  0  0  0
   -3.2240    3.2410   -1.7757 C   0  0  2  0  0  0  0  0  0  0  0  0
   -2.7813    4.2878   -2.7958 C   0  0  0  0  0  0  0  0  0  0  0  0
   -3.4651    5.2210   -3.1323 O   0  0  0  0  0  0  0  0  0  0  0  0
   -1.5490    4.0898   -3.2920 O   0  0  0  0  0  0  0  0  0  0  0  0
   -2.1303    2.9623   -0.7082 C   0  0  0  0  0  0  0  0  0  0  0  0
    0.7050   -0.0929   -2.8514 C   0  0  0  0  0  0  0  0  0  0  0  0
    3.9434   -2.3482   -3.6062 C   0  0  0  0  0  0  0  0  0  0  0  0
    4.8667   -3.4534   -3.6523 C   0  0  0  0  0  0  0  0  0  0  0  0
    5.4086   -3.9714   -2.4991 C   0  0  0  0  0  0  0  0  0  0  0  0
    5.0815   -3.4280   -1.2375 C   0  0  0  0  0  0  0  0  0  0  0  0
    5.8036   -4.1273    0.1531 Cl  0  0  0  0  0  0  0  0  0  0  0  0
    4.1764   -2.3350   -1.1530 C   0  0  0  0  0  0  0  0  0  0  0  0
    3.8266   -1.7038    0.1895 C   0  0  1  0  0  0  0  0  0  0  0  0
    3.2656   -2.5968    1.0117 F   0  0  0  0  0  0  0  0  0  0  0  0
    4.9275   -1.2253    0.7901 F   0  0  0  0  0  0  0  0  0  0  0  0
    2.9742   -0.6870    0.0395 F   0  0  0  0  0  0  0  0  0  0  0  0
    3.6145   -1.8217   -2.3016 C   0  0  0  0  0  0  0  0  0  0  0  0
    3.5288   -3.5441   -7.6803 H   0  0  0  0  0  0  0  0  0  0  0  0
    2.0591   -3.0565   -6.7985 H   0  0  0  0  0  0  0  0  0  0  0  0
    3.1676   -4.2464   -6.0797 H   0  0  0  0  0  0  0  0  0  0  0  0
    3.8320   -1.2834   -6.6658 H   0  0  0  0  0  0  0  0  0  0  0  0
    4.9852   -2.4322   -5.9924 H   0  0  0  0  0  0  0  0  0  0  0  0
    2.0631   -0.6882   -5.8080 H   0  0  0  0  0  0  0  0  0  0  0  0
    2.7786    0.2039   -4.4544 H   0  0  0  0  0  0  0  0  0  0  0  0
    0.3389   -2.7177   -5.0792 H   0  0  0  0  0  0  0  0  0  0  0  0
   -1.7528   -2.9533   -3.8240 H   0  0  0  0  0  0  0  0  0  0  0  0
   -2.3136   -1.4253   -1.9210 H   0  0  0  0  0  0  0  0  0  0  0  0
    0.0423    1.1833   -0.5899 H   0  0  0  0  0  0  0  0  0  0  0  0
   -1.4701    0.2878   -0.3067 H   0  0  0  0  0  0  0  0  0  0  0  0
   -3.5542    1.0522   -1.7222 H   0  0  0  0  0  0  0  0  0  0  0  0
   -2.9144    1.5644   -3.3227 H   0  0  0  0  0  0  0  0  0  0  0  0
   -4.2382    3.4767   -1.4344 H   0  0  0  0  0  0  0  0  0  0  0  0
   -1.1834    3.2633   -2.8767 H   0  0  0  0  0  0  0  0  0  0  0  0
   -2.5683    2.5255    0.2129 H   0  0  0  0  0  0  0  0  0  0  0  0
   -1.4393    3.7761   -0.4297 H   0  0  0  0  0  0  0  0  0  0  0  0
    1.3662    0.7490   -2.6046 H   0  0  0  0  0  0  0  0  0  0  0  0
    5.1293   -3.9148   -4.6015 H   0  0  0  0  0  0  0  0  0  0  0  0
    6.0978   -4.8155   -2.5434 H   0  0  0  0  0  0  0  0  0  0  0  0
    2.9113   -1.0023   -2.2187 H   0  0  0  0  0  0  0  0  0  0  0  0
  1  2  1  0
  1 30  1  0
  1 31  1  0
  1 32  1  0
  2  3  1  0
  2 33  1  0
  2 34  1  0
  3  4  1  0
  3 19  1  0
  4  5  1  0
  4 35  1  0
  4 36  1  0
  5  6  2  0
  5 18  1  0
  6  7  1  0
  6 37  1  0
  7  8  2  0
  7 38  1  0
  8  9  1  0
  8 39  1  0
  9 10  1  0
  9 18  2  0
 10 11  1  0
 10 40  1  0
 10 41  1  0
 11 12  1  0
 11 17  1  0
 12 13  1  0
 12 42  1  0
 12 43  1  0
 13 14  1  0
 13 17  1  0
 13 44  1  1
 14 15  2  0
 14 16  1  0
 16 45  1  0
 17 46  1  0
 17 47  1  0
 18 48  1  0
 19 20  2  0
 19 29  1  0
 20 21  1  0
 20 49  1  0
 21 22  2  0
 21 50  1  0
 22 23  1  0
 22 24  1  0
 24 25  1  0
 24 29  2  0
 25 26  1  1
 25 27  1  0
 25 28  1  0
 29 51  1  0
M  END

