
     RDKit          3D

 73 74  0  0  0  0  0  0  0  0999 V2000
    4.4543    3.5194   -1.5521 C   0  0  0  0  0  0  0  0  0  0  0  0
    4.3796    2.1876   -1.6203 C   0  0  0  0  0  0  0  0  0  0  0  0
    4.9579    1.3609   -2.7343 C   0  0  1  0  0  0  0  0  0  0  0  0
    4.1771    0.6881   -3.1306 H   0  0  0  0  0  0  0  0  0  0  0  0
    5.3832    2.1813   -3.7680 F   0  0  0  0  0  0  0  0  0  0  0  0
    6.1576    0.4850   -2.3142 C   0  0  2  0  0  0  0  0  0  0  0  0
    6.5315    0.0026   -3.2297 H   0  0  0  0  0  0  0  0  0  0  0  0
    5.7888   -0.5964   -1.2858 C   0  0  0  0  0  0  0  0  0  0  0  0
    4.7213   -1.4293   -1.7155 O   0  0  0  0  0  0  0  0  0  0  0  0
    5.1141   -2.6244   -2.3648 C   0  0  1  0  0  0  0  0  0  0  0  0
    5.7285   -2.3902   -3.2535 H   0  0  0  0  0  0  0  0  0  0  0  0
    5.9647   -3.3985   -1.5557 O   0  0  0  0  0  0  0  0  0  0  0  0
    5.3799   -3.8385   -0.3268 C   0  0  2  0  0  0  0  0  0  0  0  0
    6.5133   -4.3820    0.5252 C   0  0  0  0  0  0  0  0  0  0  0  0
    7.2808   -3.2899    0.9810 O   0  0  0  0  0  0  0  0  0  0  0  0
    8.4901   -3.6240    1.6007 C   0  0  0  0  0  0  0  0  0  0  0  0
    9.3149   -2.4214    1.9146 C   0  0  0  0  0  0  0  0  0  0  0  0
   10.3750   -2.5392    2.8715 C   0  0  0  0  0  0  0  0  0  0  0  0
   11.2434   -1.4302    3.1153 C   0  0  0  0  0  0  0  0  0  0  0  0
   11.0515   -0.2082    2.4070 C   0  0  0  0  0  0  0  0  0  0  0  0
    9.9975   -0.0809    1.4580 C   0  0  0  0  0  0  0  0  0  0  0  0
    9.1204   -1.1840    1.2196 C   0  0  0  0  0  0  0  0  0  0  0  0
    4.2146   -4.8033   -0.6071 C   0  0  2  0  0  0  0  0  0  0  0  0
    3.6982   -4.9697    0.3565 H   0  0  0  0  0  0  0  0  0  0  0  0
    4.6864   -6.1740   -1.1172 C   0  0  0  0  0  0  0  0  0  0  0  0
    3.1997   -4.0383   -1.5086 C   0  0  2  0  0  0  0  0  0  0  0  0
    2.8810   -3.1785   -0.8936 H   0  0  0  0  0  0  0  0  0  0  0  0
    1.9313   -4.8375   -1.8190 C   0  0  0  0  0  0  0  0  0  0  0  0
    3.8441   -3.3926   -2.7688 C   0  0  2  0  0  0  0  0  0  0  0  0
    4.1506   -4.3343   -3.9422 C   0  0  0  0  0  0  0  0  0  0  0  0
    7.2536    1.2866   -1.8152 N   0  0  0  0  0  0  0  0  0  0  0  0
    8.4433    1.3933   -2.4887 C   0  0  0  0  0  0  0  0  0  0  0  0
    8.7410    0.7410   -3.4677 O   0  0  0  0  0  0  0  0  0  0  0  0
    9.2234    2.3096   -1.8745 O   0  0  0  0  0  0  0  0  0  0  0  0
   10.5591    2.6460   -2.3769 C   0  0  1  0  0  0  0  0  0  0  0  0
   10.4515    3.2357   -3.7873 C   0  0  0  0  0  0  0  0  0  0  0  0
   11.0400    3.7064   -1.3842 C   0  0  0  0  0  0  0  0  0  0  0  0
   11.4659    1.4115   -2.3340 C   0  0  0  0  0  0  0  0  0  0  0  0
    4.0119    4.0708   -0.7183 H   0  0  0  0  0  0  0  0  0  0  0  0
    4.9433    4.0957   -2.3417 H   0  0  0  0  0  0  0  0  0  0  0  0
    3.8662    1.6208   -0.8356 H   0  0  0  0  0  0  0  0  0  0  0  0
    5.4711   -0.1271   -0.3398 H   0  0  0  0  0  0  0  0  0  0  0  0
    6.6825   -1.1994   -1.0661 H   0  0  0  0  0  0  0  0  0  0  0  0
    4.9759   -2.9623    0.2104 H   0  0  0  0  0  0  0  0  0  0  0  0
    7.1371   -5.0749   -0.0714 H   0  0  0  0  0  0  0  0  0  0  0  0
    6.0976   -4.9509    1.3826 H   0  0  0  0  0  0  0  0  0  0  0  0
    9.0784   -4.3149    0.9430 H   0  0  0  0  0  0  0  0  0  0  0  0
    8.3151   -4.2068    2.5363 H   0  0  0  0  0  0  0  0  0  0  0  0
   10.5151   -3.4758    3.4157 H   0  0  0  0  0  0  0  0  0  0  0  0
   12.0534   -1.5196    3.8412 H   0  0  0  0  0  0  0  0  0  0  0  0
   11.7222    0.6340    2.5911 H   0  0  0  0  0  0  0  0  0  0  0  0
    9.8543    0.8513    0.9090 H   0  0  0  0  0  0  0  0  0  0  0  0
    8.3037   -1.0964    0.5061 H   0  0  0  0  0  0  0  0  0  0  0  0
    5.1910   -6.7361   -0.3152 H   0  0  0  0  0  0  0  0  0  0  0  0
    5.3969   -6.0812   -1.9506 H   0  0  0  0  0  0  0  0  0  0  0  0
    3.8440   -6.7940   -1.4579 H   0  0  0  0  0  0  0  0  0  0  0  0
    1.4445   -5.1721   -0.8882 H   0  0  0  0  0  0  0  0  0  0  0  0
    2.1246   -5.7335   -2.4285 H   0  0  0  0  0  0  0  0  0  0  0  0
    1.2047   -4.2176   -2.3693 H   0  0  0  0  0  0  0  0  0  0  0  0
    3.1309   -2.6332   -3.1320 H   0  0  0  0  0  0  0  0  0  0  0  0
    4.9720   -5.0283   -3.7151 H   0  0  0  0  0  0  0  0  0  0  0  0
    4.4508   -3.7512   -4.8278 H   0  0  0  0  0  0  0  0  0  0  0  0
    3.2718   -4.9301   -4.2286 H   0  0  0  0  0  0  0  0  0  0  0  0
    7.0713    1.9726   -1.0902 H   0  0  0  0  0  0  0  0  0  0  0  0
    9.7654    4.0974   -3.7915 H   0  0  0  0  0  0  0  0  0  0  0  0
   10.0831    2.4875   -4.5004 H   0  0  0  0  0  0  0  0  0  0  0  0
   11.4412    3.5854   -4.1205 H   0  0  0  0  0  0  0  0  0  0  0  0
   10.3557    4.5683   -1.3753 H   0  0  0  0  0  0  0  0  0  0  0  0
   12.0441    4.0605   -1.6629 H   0  0  0  0  0  0  0  0  0  0  0  0
   11.0881    3.2929   -0.3653 H   0  0  0  0  0  0  0  0  0  0  0  0
   11.1195    0.6444   -3.0377 H   0  0  0  0  0  0  0  0  0  0  0  0
   11.4802    0.9800   -1.3207 H   0  0  0  0  0  0  0  0  0  0  0  0
   12.4956    1.6988   -2.5994 H   0  0  0  0  0  0  0  0  0  0  0  0
  1  2  2  0
  1 39  1  0
  1 40  1  0
  2  3  1  0
  2 41  1  0
  3  4  1  6
  3  5  1  0
  3  6  1  0
  6  7  1  6
  6  8  1  0
  6 31  1  0
  8  9  1  0
  8 42  1  0
  8 43  1  0
  9 10  1  0
 10 11  1  6
 10 12  1  0
 10 29  1  0
 12 13  1  0
 13 14  1  0
 13 23  1  0
 13 44  1  1
 14 15  1  0
 14 45  1  0
 14 46  1  0
 15 16  1  0
 16 17  1  0
 16 47  1  0
 16 48  1  0
 17 18  2  0
 17 22  1  0
 18 19  1  0
 18 49  1  0
 19 20  2  0
 19 50  1  0
 20 21  1  0
 20 51  1  0
 21 22  2  0
 21 52  1  0
 22 53  1  0
 23 24  1  1
 23 25  1  0
 23 26  1  0
 25 54  1  0
 25 55  1  0
 25 56  1  0
 26 27  1  1
 26 28  1  0
 26 29  1  0
 28 57  1  0
 28 58  1  0
 28 59  1  0
 29 30  1  0
 29 60  1  6
 30 61  1  0
 30 62  1  0
 30 63  1  0
 31 32  1  0
 31 64  1  0
 32 33  2  0
 32 34  1  0
 35 34  1  1
 35 36  1  0
 35 37  1  0
 35 38  1  0
 36 65  1  0
 36 66  1  0
 36 67  1  0
 37 68  1  0
 37 69  1  0
 37 70  1  0
 38 71  1  0
 38 72  1  0
 38 73  1  0
M  END

