
     RDKit          3D

 66 72  0  0  0  0  0  0  0  0999 V2000
    2.3384   -0.0576    2.5995 C   0  0  0  0  0  0  0  0  0  0  0  0
    1.6482   -1.4148    2.3791 C   0  0  1  0  0  0  0  0  0  0  0  0
    0.3390   -1.2535    1.5869 C   0  0  0  0  0  0  0  0  0  0  0  0
    2.5819   -2.4319    1.7355 C   0  0  0  0  0  0  0  0  0  0  0  0
    2.9282   -3.6139    2.4035 C   0  0  0  0  0  0  0  0  0  0  0  0
    3.7863   -4.5509    1.8212 C   0  0  0  0  0  0  0  0  0  0  0  0
    4.3327   -4.3374    0.5479 C   0  0  0  0  0  0  0  0  0  0  0  0
    5.2525   -5.3861   -0.0420 C   0  0  1  0  0  0  0  0  0  0  0  0
    5.2333   -6.2646    0.6248 H   0  0  0  0  0  0  0  0  0  0  0  0
    4.8326   -5.9345   -1.4348 C   0  0  2  0  0  0  0  0  0  0  0  0
    4.7077   -5.1144   -2.1577 H   0  0  0  0  0  0  0  0  0  0  0  0
    3.5685   -6.7996   -1.2841 C   0  0  0  0  0  0  0  0  0  0  0  0
    3.6295   -7.8593   -0.6893 O   0  0  0  0  0  0  0  0  0  0  0  0
    2.2976   -6.3021   -1.8323 C   0  0  0  0  0  0  0  0  0  0  0  0
    1.0673   -6.9131   -1.6458 C   0  0  0  0  0  0  0  0  0  0  0  0
    0.0085   -6.2402   -2.3015 C   0  0  0  0  0  0  0  0  0  0  0  0
    0.4413   -5.1248   -2.9888 C   0  0  0  0  0  0  0  0  0  0  0  0
    2.1335   -4.8775   -2.8321 S   0  0  0  0  0  0  0  0  0  0  0  0
    6.0295   -6.7081   -1.8086 N   0  0  0  0  0  0  0  0  0  0  0  0
    6.0994   -7.8187   -2.5581 C   0  0  0  0  0  0  0  0  0  0  0  0
    5.0520   -8.2305   -3.4389 C   0  0  0  0  0  0  0  0  0  0  0  0
    5.1730   -9.3780   -4.1879 C   0  0  0  0  0  0  0  0  0  0  0  0
    6.3361  -10.1791   -4.0756 C   0  0  0  0  0  0  0  0  0  0  0  0
    6.4560  -11.6243   -5.0145 Cl  0  0  0  0  0  0  0  0  0  0  0  0
    7.3757   -9.8123   -3.2211 C   0  0  0  0  0  0  0  0  0  0  0  0
    7.2928   -8.6437   -2.4603 C   0  0  0  0  0  0  0  0  0  0  0  0
    8.3313   -8.2644   -1.5263 C   0  0  0  0  0  0  0  0  0  0  0  0
    8.3051   -7.0564   -0.9264 C   0  0  0  0  0  0  0  0  0  0  0  0
    7.2423   -6.0633   -1.2588 C   0  0  2  0  0  0  0  0  0  0  0  0
    6.7654   -5.0422   -0.2033 C   0  0  2  0  0  0  0  0  0  0  0  0
    7.4413   -5.0942    1.2097 C   0  0  0  0  0  0  0  0  0  0  0  0
    7.4867   -6.1191    1.8922 O   0  0  0  0  0  0  0  0  0  0  0  0
    7.8889   -3.7563    1.4847 C   0  0  0  0  0  0  0  0  0  0  0  0
    8.5178   -3.2516    2.6440 C   0  0  0  0  0  0  0  0  0  0  0  0
    8.9092   -1.9261    2.6791 C   0  0  0  0  0  0  0  0  0  0  0  0
    8.6864   -1.0692    1.5474 C   0  0  0  0  0  0  0  0  0  0  0  0
    8.0752   -1.5365    0.4036 C   0  0  0  0  0  0  0  0  0  0  0  0
    7.6538   -2.8928    0.3463 C   0  0  0  0  0  0  0  0  0  0  0  0
    7.0305   -3.6049   -0.7165 C   0  0  0  0  0  0  0  0  0  0  0  0
    6.7597   -3.2770   -1.8917 O   0  0  0  0  0  0  0  0  0  0  0  0
    3.9939   -3.1503   -0.1249 C   0  0  0  0  0  0  0  0  0  0  0  0
    3.1333   -2.2215    0.4597 C   0  0  0  0  0  0  0  0  0  0  0  0
    1.6693    0.6384    3.1320 H   0  0  0  0  0  0  0  0  0  0  0  0
    2.6142    0.4141    1.6420 H   0  0  0  0  0  0  0  0  0  0  0  0
    3.2591   -0.1689    3.1926 H   0  0  0  0  0  0  0  0  0  0  0  0
    1.3824   -1.8137    3.3737 H   0  0  0  0  0  0  0  0  0  0  0  0
    0.5270   -0.8477    0.5791 H   0  0  0  0  0  0  0  0  0  0  0  0
   -0.3467   -0.5600    2.1012 H   0  0  0  0  0  0  0  0  0  0  0  0
   -0.1784   -2.2185    1.4674 H   0  0  0  0  0  0  0  0  0  0  0  0
    2.5232   -3.8068    3.4013 H   0  0  0  0  0  0  0  0  0  0  0  0
    4.0450   -5.4605    2.3698 H   0  0  0  0  0  0  0  0  0  0  0  0
    0.9654   -7.8169   -1.0443 H   0  0  0  0  0  0  0  0  0  0  0  0
   -1.0345   -6.5583   -2.2723 H   0  0  0  0  0  0  0  0  0  0  0  0
   -0.1562   -4.4279   -3.5760 H   0  0  0  0  0  0  0  0  0  0  0  0
    4.1672   -7.6087   -3.5580 H   0  0  0  0  0  0  0  0  0  0  0  0
    4.3832   -9.6741   -4.8791 H   0  0  0  0  0  0  0  0  0  0  0  0
    8.2585  -10.4473   -3.1371 H   0  0  0  0  0  0  0  0  0  0  0  0
    9.1369   -8.9747   -1.3297 H   0  0  0  0  0  0  0  0  0  0  0  0
    9.0950   -6.7408   -0.2452 H   0  0  0  0  0  0  0  0  0  0  0  0
    7.6327   -5.4574   -2.1087 H   0  0  0  0  0  0  0  0  0  0  0  0
    8.6852   -3.9165    3.4953 H   0  0  0  0  0  0  0  0  0  0  0  0
    9.3928   -1.5185    3.5699 H   0  0  0  0  0  0  0  0  0  0  0  0
    9.0128   -0.0271    1.6022 H   0  0  0  0  0  0  0  0  0  0  0  0
    7.9078   -0.8853   -0.4576 H   0  0  0  0  0  0  0  0  0  0  0  0
    4.4302   -2.9318   -1.1017 H   0  0  0  0  0  0  0  0  0  0  0  0
    2.8991   -1.3064   -0.0910 H   0  0  0  0  0  0  0  0  0  0  0  0
  1  2  1  0
  1 43  1  0
  1 44  1  0
  1 45  1  0
  2  3  1  0
  2  4  1  0
  2 46  1  1
  3 47  1  0
  3 48  1  0
  3 49  1  0
  4  5  2  0
  4 42  1  0
  5  6  1  0
  5 50  1  0
  6  7  2  0
  6 51  1  0
  7  8  1  0
  7 41  1  0
  8  9  1  1
  8 10  1  0
  8 30  1  0
 10 11  1  6
 10 12  1  0
 10 19  1  0
 12 13  2  0
 12 14  1  0
 14 15  2  0
 14 18  1  0
 15 16  1  0
 15 52  1  0
 16 17  2  0
 16 53  1  0
 17 18  1  0
 17 54  1  0
 19 20  1  0
 19 29  1  0
 20 21  2  0
 20 26  1  0
 21 22  1  0
 21 55  1  0
 22 23  2  0
 22 56  1  0
 23 24  1  0
 23 25  1  0
 25 26  2  0
 25 57  1  0
 26 27  1  0
 27 28  2  0
 27 58  1  0
 28 29  1  0
 28 59  1  0
 29 30  1  0
 29 60  1  6
 30 31  1  1
 30 39  1  0
 31 32  2  0
 31 33  1  0
 33 34  1  0
 33 38  2  0
 34 35  2  0
 34 61  1  0
 35 36  1  0
 35 62  1  0
 36 37  2  0
 36 63  1  0
 37 38  1  0
 37 64  1  0
 38 39  1  0
 39 40  2  0
 41 42  2  0
 41 65  1  0
 42 66  1  0
M  END

