
     RDKit          3D

 72 75  0  0  0  0  0  0  0  0999 V2000
   -0.0817    0.1569   -7.6797 C   0  0  0  0  0  0  0  0  0  0  0  0
    1.4303    0.3885   -7.7090 C   0  0  0  0  0  0  0  0  0  0  0  0
    2.2234   -0.7077   -6.9877 C   0  0  0  0  0  0  0  0  0  0  0  0
    3.7575   -0.5588   -7.0579 C   0  0  1  0  0  0  0  0  0  0  0  0
    4.3096    0.6638   -6.2934 C   0  0  0  0  0  0  0  0  0  0  0  0
    4.2812    0.4930   -4.7643 C   0  0  0  0  0  0  0  0  0  0  0  0
    4.9657   -0.7943   -4.2571 C   0  0  2  0  0  0  0  0  0  0  0  0
    6.4755   -0.7451   -4.2238 C   0  0  0  0  0  0  0  0  0  0  0  0
    7.2935    0.3333   -4.6935 C   0  0  0  0  0  0  0  0  0  0  0  0
    8.7189    0.3135   -4.6280 C   0  0  0  0  0  0  0  0  0  0  0  0
    9.4388   -0.7833   -4.0577 C   0  0  0  0  0  0  0  0  0  0  0  0
   10.9322   -0.9290   -4.0782 C   0  0  1  0  0  0  0  0  0  0  0  0
   11.4707   -1.5528   -5.3964 C   0  0  0  0  0  0  0  0  0  0  0  0
   11.4048   -0.6278   -6.4625 O   0  0  0  0  0  0  0  0  0  0  0  0
   12.0882    0.5856   -6.2436 C   0  0  2  0  0  0  0  0  0  0  0  0
   13.6279    0.4601   -6.3236 C   0  0  1  0  0  0  0  0  0  0  0  0
   14.1025   -0.3484   -7.5468 C   0  0  0  0  0  0  0  0  0  0  0  0
   13.8974    0.4290   -8.8555 C   0  0  0  0  0  0  0  0  0  0  0  0
   14.4635    1.8583   -8.7796 C   0  0  2  0  0  0  0  0  0  0  0  0
   15.9952    1.9586   -8.8964 C   0  0  0  0  0  0  0  0  0  0  0  0
   16.5375    1.7092  -10.3081 C   0  0  0  0  0  0  0  0  0  0  0  0
   18.0543    1.8801  -10.4086 C   0  0  0  0  0  0  0  0  0  0  0  0
   13.9804    2.5168   -7.6055 O   0  0  0  0  0  0  0  0  0  0  0  0
   14.2526    1.8638   -6.3797 C   0  0  0  0  0  0  0  0  0  0  0  0
   11.6711    1.2069   -5.0400 O   0  0  0  0  0  0  0  0  0  0  0  0
   11.7034    0.3909   -3.8798 C   0  0  0  0  0  0  0  0  0  0  0  0
    8.6260   -1.8301   -3.5280 C   0  0  0  0  0  0  0  0  0  0  0  0
    9.1975   -2.8765   -2.9199 F   0  0  0  0  0  0  0  0  0  0  0  0
    7.2025   -1.8038   -3.5928 C   0  0  0  0  0  0  0  0  0  0  0  0
    6.5472   -2.7899   -2.9671 F   0  0  0  0  0  0  0  0  0  0  0  0
    4.4081   -2.0157   -5.0500 C   0  0  0  0  0  0  0  0  0  0  0  0
    4.4938   -1.8230   -6.5683 C   0  0  0  0  0  0  0  0  0  0  0  0
   -0.6252    0.9578   -8.2062 H   0  0  0  0  0  0  0  0  0  0  0  0
   -0.4622    0.1220   -6.6449 H   0  0  0  0  0  0  0  0  0  0  0  0
   -0.3509   -0.7991   -8.1598 H   0  0  0  0  0  0  0  0  0  0  0  0
    1.6527    1.3726   -7.2608 H   0  0  0  0  0  0  0  0  0  0  0  0
    1.7730    0.4526   -8.7580 H   0  0  0  0  0  0  0  0  0  0  0  0
    1.9529   -1.6834   -7.4321 H   0  0  0  0  0  0  0  0  0  0  0  0
    1.8853   -0.7606   -5.9375 H   0  0  0  0  0  0  0  0  0  0  0  0
    4.0096   -0.4213   -8.1255 H   0  0  0  0  0  0  0  0  0  0  0  0
    3.7576    1.5775   -6.5687 H   0  0  0  0  0  0  0  0  0  0  0  0
    5.3473    0.8285   -6.6282 H   0  0  0  0  0  0  0  0  0  0  0  0
    3.2316    0.4618   -4.4259 H   0  0  0  0  0  0  0  0  0  0  0  0
    4.7208    1.3784   -4.2761 H   0  0  0  0  0  0  0  0  0  0  0  0
    4.6407   -0.9492   -3.2078 H   0  0  0  0  0  0  0  0  0  0  0  0
    6.8199    1.2218   -5.1078 H   0  0  0  0  0  0  0  0  0  0  0  0
    9.2824    1.1570   -5.0248 H   0  0  0  0  0  0  0  0  0  0  0  0
   11.2209   -1.6168   -3.2660 H   0  0  0  0  0  0  0  0  0  0  0  0
   10.8665   -2.4208   -5.6955 H   0  0  0  0  0  0  0  0  0  0  0  0
   12.5103   -1.9044   -5.2324 H   0  0  0  0  0  0  0  0  0  0  0  0
   11.7457    1.2621   -7.0383 H   0  0  0  0  0  0  0  0  0  0  0  0
   13.9966   -0.0337   -5.4092 H   0  0  0  0  0  0  0  0  0  0  0  0
   13.5763   -1.3133   -7.5983 H   0  0  0  0  0  0  0  0  0  0  0  0
   15.1734   -0.5810   -7.4127 H   0  0  0  0  0  0  0  0  0  0  0  0
   12.8197    0.4918   -9.0790 H   0  0  0  0  0  0  0  0  0  0  0  0
   14.3529   -0.1158   -9.6985 H   0  0  0  0  0  0  0  0  0  0  0  0
   14.0345    2.4496   -9.6060 H   0  0  0  0  0  0  0  0  0  0  0  0
   16.4913    1.2671   -8.1927 H   0  0  0  0  0  0  0  0  0  0  0  0
   16.2731    2.9775   -8.5745 H   0  0  0  0  0  0  0  0  0  0  0  0
   16.0417    2.4002  -11.0141 H   0  0  0  0  0  0  0  0  0  0  0  0
   16.2650    0.6926  -10.6425 H   0  0  0  0  0  0  0  0  0  0  0  0
   18.3625    2.8995  -10.1222 H   0  0  0  0  0  0  0  0  0  0  0  0
   18.4142    1.6988  -11.4339 H   0  0  0  0  0  0  0  0  0  0  0  0
   18.5822    1.1778   -9.7417 H   0  0  0  0  0  0  0  0  0  0  0  0
   13.8276    2.5051   -5.5942 H   0  0  0  0  0  0  0  0  0  0  0  0
   15.3429    1.7881   -6.1993 H   0  0  0  0  0  0  0  0  0  0  0  0
   11.2635    0.9922   -3.0714 H   0  0  0  0  0  0  0  0  0  0  0  0
   12.7469    0.1546   -3.5925 H   0  0  0  0  0  0  0  0  0  0  0  0
    3.3556   -2.1610   -4.7496 H   0  0  0  0  0  0  0  0  0  0  0  0
    4.9376   -2.9313   -4.7496 H   0  0  0  0  0  0  0  0  0  0  0  0
    4.0914   -2.7152   -7.0786 H   0  0  0  0  0  0  0  0  0  0  0  0
    5.5564   -1.7513   -6.8611 H   0  0  0  0  0  0  0  0  0  0  0  0
  1  2  1  0
  1 33  1  0
  1 34  1  0
  1 35  1  0
  2  3  1  0
  2 36  1  0
  2 37  1  0
  3  4  1  0
  3 38  1  0
  3 39  1  0
  4  5  1  0
  4 32  1  0
  4 40  1  6
  5  6  1  0
  5 41  1  0
  5 42  1  0
  6  7  1  0
  6 43  1  0
  6 44  1  0
  7  8  1  0
  7 31  1  0
  7 45  1  1
  8  9  2  0
  8 29  1  0
  9 10  1  0
  9 46  1  0
 10 11  2  0
 10 47  1  0
 11 12  1  0
 11 27  1  0
 12 13  1  0
 12 26  1  0
 12 48  1  1
 13 14  1  0
 13 49  1  0
 13 50  1  0
 14 15  1  0
 15 16  1  0
 15 25  1  0
 15 51  1  6
 16 17  1  0
 16 24  1  0
 16 52  1  1
 17 18  1  0
 17 53  1  0
 17 54  1  0
 18 19  1  0
 18 55  1  0
 18 56  1  0
 19 20  1  0
 19 23  1  0
 19 57  1  6
 20 21  1  0
 20 58  1  0
 20 59  1  0
 21 22  1  0
 21 60  1  0
 21 61  1  0
 22 62  1  0
 22 63  1  0
 22 64  1  0
 23 24  1  0
 24 65  1  0
 24 66  1  0
 25 26  1  0
 26 67  1  0
 26 68  1  0
 27 28  1  0
 27 29  2  0
 29 30  1  0
 31 32  1  0
 31 69  1  0
 31 70  1  0
 32 71  1  0
 32 72  1  0
M  END

