
     RDKit          3D

 94102  0  0  0  0  0  0  0  0999 V2000
    1.4797    0.1239   -2.7060 C   0  0  0  0  0  0  0  0  0  0  0  0
    2.8075    0.0509   -1.9896 C   0  0  0  0  0  0  0  0  0  0  0  0
    3.3499    1.2508   -1.5382 C   0  0  0  0  0  0  0  0  0  0  0  0
    4.5674    1.3108   -0.8329 C   0  0  0  0  0  0  0  0  0  0  0  0
    5.0887    2.5994   -0.3868 N   0  0  0  0  0  0  0  0  0  0  0  0
    4.7288    3.0772    0.8641 C   0  0  0  0  0  0  0  0  0  0  0  0
    3.8573    2.2963    1.6746 C   0  0  0  0  0  0  0  0  0  0  0  0
    3.4750    2.7431    2.9248 C   0  0  0  0  0  0  0  0  0  0  0  0
    3.9479    3.9754    3.4029 C   0  0  0  0  0  0  0  0  0  0  0  0
    4.8038    4.7448    2.6132 C   0  0  0  0  0  0  0  0  0  0  0  0
    5.2151    4.3293    1.3430 C   0  0  0  0  0  0  0  0  0  0  0  0
    6.1557    5.2031    0.5228 C   0  0  1  0  0  0  0  0  0  0  0  0
    5.4886    6.5900    0.2944 C   0  0  0  0  0  0  0  0  0  0  0  0
    7.4857    5.3872    1.3101 C   0  0  0  0  0  0  0  0  0  0  0  0
    6.4671    4.5750   -0.8301 C   0  0  0  0  0  0  0  0  0  0  0  0
    7.3098    5.2349   -1.7296 C   0  0  0  0  0  0  0  0  0  0  0  0
    7.6230    4.6990   -2.9798 C   0  0  0  0  0  0  0  0  0  0  0  0
    7.0851    3.4604   -3.3641 C   0  0  0  0  0  0  0  0  0  0  0  0
    6.2497    2.7746   -2.5034 C   0  0  0  0  0  0  0  0  0  0  0  0
    5.9277    3.3156   -1.2265 C   0  0  0  0  0  0  0  0  0  0  0  0
    5.2695    0.1271   -0.5657 C   0  0  0  0  0  0  0  0  0  0  0  0
    4.7472   -1.0775   -1.0030 C   0  0  0  0  0  0  0  0  0  0  0  0
    3.5117   -1.1931   -1.7263 C   0  0  0  0  0  0  0  0  0  0  0  0
    3.0511   -2.5015   -2.1441 C   0  0  0  0  0  0  0  0  0  0  0  0
    3.6307   -3.7173   -1.6577 C   0  0  0  0  0  0  0  0  0  0  0  0
    3.1572   -4.9352   -2.1228 C   0  0  0  0  0  0  0  0  0  0  0  0
    3.7537   -6.2179   -1.6410 C   0  0  0  0  0  0  0  0  0  0  0  0
    5.1528   -6.3182   -1.5352 C   0  0  0  0  0  0  0  0  0  0  0  0
    5.7825   -7.4820   -1.0932 C   0  0  0  0  0  0  0  0  0  0  0  0
    5.0063   -8.5896   -0.7459 C   0  0  0  0  0  0  0  0  0  0  0  0
    5.6272   -9.8058   -0.2939 N   0  0  0  0  0  0  0  0  0  0  0  0
    5.8749   -9.9817    1.0757 C   0  0  0  0  0  0  0  0  0  0  0  0
    5.5147   -8.9672    1.9920 C   0  0  0  0  0  0  0  0  0  0  0  0
    5.7483   -9.1117    3.3559 C   0  0  0  0  0  0  0  0  0  0  0  0
    6.3488  -10.2732    3.8457 C   0  0  0  0  0  0  0  0  0  0  0  0
    6.7038  -11.2743    2.9421 C   0  0  0  0  0  0  0  0  0  0  0  0
    6.4833  -11.1637    1.5604 C   0  0  0  0  0  0  0  0  0  0  0  0
    6.9053  -12.3153    0.6370 C   0  0  1  0  0  0  0  0  0  0  0  0
    8.4336  -12.5446    0.7806 C   0  0  0  0  0  0  0  0  0  0  0  0
    6.1510  -13.6048    1.0577 C   0  0  0  0  0  0  0  0  0  0  0  0
    6.5817  -12.0010   -0.8303 C   0  0  0  0  0  0  0  0  0  0  0  0
    6.8993  -12.9427   -1.8216 C   0  0  0  0  0  0  0  0  0  0  0  0
    6.6389  -12.7302   -3.1749 C   0  0  0  0  0  0  0  0  0  0  0  0
    6.0371  -11.5309   -3.5611 C   0  0  0  0  0  0  0  0  0  0  0  0
    5.7080  -10.5747   -2.6057 C   0  0  0  0  0  0  0  0  0  0  0  0
    5.9714  -10.7902   -1.2339 C   0  0  0  0  0  0  0  0  0  0  0  0
    3.6131   -8.5054   -0.8450 C   0  0  0  0  0  0  0  0  0  0  0  0
    2.9629   -7.3442   -1.2864 C   0  0  0  0  0  0  0  0  0  0  0  0
    1.4548   -7.3248   -1.3400 C   0  0  0  0  0  0  0  0  0  0  0  0
    2.1482   -5.0097   -3.0359 N   0  0  0  0  0  0  0  0  0  0  0  0
    1.6530   -3.8255   -3.4221 C   0  0  0  0  0  0  0  0  0  0  0  0
    2.0217   -2.6160   -3.0508 N   0  0  0  0  0  0  0  0  0  0  0  0
    1.1072    1.1613   -2.7137 H   0  0  0  0  0  0  0  0  0  0  0  0
    0.7274   -0.5203   -2.2273 H   0  0  0  0  0  0  0  0  0  0  0  0
    1.5496   -0.2475   -3.7372 H   0  0  0  0  0  0  0  0  0  0  0  0
    2.8019    2.1769   -1.7336 H   0  0  0  0  0  0  0  0  0  0  0  0
    3.4988    1.3451    1.2903 H   0  0  0  0  0  0  0  0  0  0  0  0
    2.8055    2.1340    3.5348 H   0  0  0  0  0  0  0  0  0  0  0  0
    3.6502    4.3353    4.3899 H   0  0  0  0  0  0  0  0  0  0  0  0
    5.1594    5.6987    3.0059 H   0  0  0  0  0  0  0  0  0  0  0  0
    5.2694    7.0817    1.2531 H   0  0  0  0  0  0  0  0  0  0  0  0
    4.5454    6.4863   -0.2620 H   0  0  0  0  0  0  0  0  0  0  0  0
    6.1528    7.2543   -0.2767 H   0  0  0  0  0  0  0  0  0  0  0  0
    7.2994    5.8547    2.2875 H   0  0  0  0  0  0  0  0  0  0  0  0
    8.1814    6.0338    0.7562 H   0  0  0  0  0  0  0  0  0  0  0  0
    7.9791    4.4190    1.4815 H   0  0  0  0  0  0  0  0  0  0  0  0
    7.7388    6.1987   -1.4517 H   0  0  0  0  0  0  0  0  0  0  0  0
    8.2850    5.2459   -3.6544 H   0  0  0  0  0  0  0  0  0  0  0  0
    7.3227    3.0339   -4.3403 H   0  0  0  0  0  0  0  0  0  0  0  0
    5.8255    1.8149   -2.7864 H   0  0  0  0  0  0  0  0  0  0  0  0
    6.2222    0.1497   -0.0303 H   0  0  0  0  0  0  0  0  0  0  0  0
    5.3313   -1.9759   -0.8075 H   0  0  0  0  0  0  0  0  0  0  0  0
    4.4050   -3.7115   -0.8915 H   0  0  0  0  0  0  0  0  0  0  0  0
    5.7630   -5.4626   -1.8331 H   0  0  0  0  0  0  0  0  0  0  0  0
    6.8713   -7.5397   -1.0277 H   0  0  0  0  0  0  0  0  0  0  0  0
    5.0450   -8.0572    1.6225 H   0  0  0  0  0  0  0  0  0  0  0  0
    5.4560   -8.3075    4.0365 H   0  0  0  0  0  0  0  0  0  0  0  0
    6.5383  -10.4010    4.9140 H   0  0  0  0  0  0  0  0  0  0  0  0
    7.1735  -12.1821    3.3279 H   0  0  0  0  0  0  0  0  0  0  0  0
    8.7041  -12.7898    1.8192 H   0  0  0  0  0  0  0  0  0  0  0  0
    8.9914  -11.6420    0.4878 H   0  0  0  0  0  0  0  0  0  0  0  0
    8.7733  -13.3754    0.1435 H   0  0  0  0  0  0  0  0  0  0  0  0
    6.3716  -13.8729    2.1024 H   0  0  0  0  0  0  0  0  0  0  0  0
    6.4404  -14.4594    0.4271 H   0  0  0  0  0  0  0  0  0  0  0  0
    5.0630  -13.4670    0.9645 H   0  0  0  0  0  0  0  0  0  0  0  0
    7.3702  -13.8822   -1.5226 H   0  0  0  0  0  0  0  0  0  0  0  0
    6.9023  -13.4906   -3.9138 H   0  0  0  0  0  0  0  0  0  0  0  0
    5.8184  -11.3319   -4.6136 H   0  0  0  0  0  0  0  0  0  0  0  0
    5.2382   -9.6443   -2.9202 H   0  0  0  0  0  0  0  0  0  0  0  0
    3.0179   -9.3772   -0.5614 H   0  0  0  0  0  0  0  0  0  0  0  0
    1.0374   -8.2563   -0.9291 H   0  0  0  0  0  0  0  0  0  0  0  0
    1.1027   -7.1813   -2.3706 H   0  0  0  0  0  0  0  0  0  0  0  0
    1.0467   -6.4777   -0.7651 H   0  0  0  0  0  0  0  0  0  0  0  0
    0.8294   -3.8737   -4.1502 H   0  0  0  0  0  0  0  0  0  0  0  0
  1  2  1  0
  1 53  1  0
  1 54  1  0
  1 55  1  0
  2  3  2  0
  2 23  1  0
  3  4  1  0
  3 56  1  0
  4  5  1  0
  4 21  2  0
  5  6  1  0
  5 20  1  0
  6  7  2  0
  6 11  1  0
  7  8  1  0
  7 57  1  0
  8  9  2  0
  8 58  1  0
  9 10  1  0
  9 59  1  0
 10 11  2  0
 10 60  1  0
 11 12  1  0
 12 13  1  6
 12 14  1  0
 12 15  1  0
 13 61  1  0
 13 62  1  0
 13 63  1  0
 14 64  1  0
 14 65  1  0
 14 66  1  0
 15 16  2  0
 15 20  1  0
 16 17  1  0
 16 67  1  0
 17 18  2  0
 17 68  1  0
 18 19  1  0
 18 69  1  0
 19 20  2  0
 19 70  1  0
 21 22  1  0
 21 71  1  0
 22 23  2  0
 22 72  1  0
 23 24  1  0
 24 25  2  0
 24 52  1  0
 25 26  1  0
 25 73  1  0
 26 27  1  0
 26 50  2  0
 27 28  2  0
 27 48  1  0
 28 29  1  0
 28 74  1  0
 29 30  2  0
 29 75  1  0
 30 31  1  0
 30 47  1  0
 31 32  1  0
 31 46  1  0
 32 33  2  0
 32 37  1  0
 33 34  1  0
 33 76  1  0
 34 35  2  0
 34 77  1  0
 35 36  1  0
 35 78  1  0
 36 37  2  0
 36 79  1  0
 37 38  1  0
 38 39  1  1
 38 40  1  0
 38 41  1  0
 39 80  1  0
 39 81  1  0
 39 82  1  0
 40 83  1  0
 40 84  1  0
 40 85  1  0
 41 42  2  0
 41 46  1  0
 42 43  1  0
 42 86  1  0
 43 44  2  0
 43 87  1  0
 44 45  1  0
 44 88  1  0
 45 46  2  0
 45 89  1  0
 47 48  2  0
 47 90  1  0
 48 49  1  0
 49 91  1  0
 49 92  1  0
 49 93  1  0
 50 51  1  0
 51 52  2  0
 51 94  1  0
M  END

