
     RDKit          3D

 41 44  0  0  0  0  0  0  0  0999 V2000
    4.0466    2.5087    0.9672 O   0  0  0  0  0  0  0  0  0  0  0  0
    3.0283    3.1405    0.7671 C   0  0  0  0  0  0  0  0  0  0  0  0
    1.6760    2.8035    1.3911 C   0  0  0  0  0  0  0  0  0  0  0  0
    1.7265    1.3024    2.4160 S   0  0  0  0  0  0  0  0  0  0  0  0
    2.6351    1.9609    3.7753 C   0  0  0  0  0  0  0  0  0  0  0  0
    2.6092    3.2076    4.1858 N   0  0  0  0  0  0  0  0  0  0  0  0
    3.4226    3.2987    5.2758 N   0  0  0  0  0  0  0  0  0  0  0  0
    3.9162    2.1037    5.5227 C   0  0  0  0  0  0  0  0  0  0  0  0
    4.8356    1.8285    6.6374 C   0  0  0  0  0  0  0  0  0  0  0  0
    5.8034    2.7926    6.9810 C   0  0  0  0  0  0  0  0  0  0  0  0
    6.6671    2.5995    8.0584 C   0  0  0  0  0  0  0  0  0  0  0  0
    6.5805    1.4321    8.8251 C   0  0  0  0  0  0  0  0  0  0  0  0
    5.6176    0.4683    8.5190 C   0  0  0  0  0  0  0  0  0  0  0  0
    4.7589    0.6843    7.4452 C   0  0  0  0  0  0  0  0  0  0  0  0
    3.8080   -0.2354    7.1986 F   0  0  0  0  0  0  0  0  0  0  0  0
    3.4636    1.2030    4.5711 N   0  0  0  0  0  0  0  0  0  0  0  0
    3.8678   -0.1623    4.3427 C   0  0  1  0  0  0  0  0  0  0  0  0
    4.4794   -0.5220    3.0126 C   0  0  0  0  0  0  0  0  0  0  0  0
    5.3371   -0.4863    4.2467 C   0  0  0  0  0  0  0  0  0  0  0  0
    3.0795    4.2689   -0.0423 N   0  0  0  0  0  0  0  0  0  0  0  0
    4.3525    4.6925   -0.6296 C   0  0  0  0  0  0  0  0  0  0  0  0
    4.0243    6.0969   -1.1718 C   0  0  0  0  0  0  0  0  0  0  0  0
    2.5795    6.0325   -1.3041 N   0  0  0  0  0  0  0  0  0  0  0  0
    2.0070    5.0618   -0.5220 C   0  0  0  0  0  0  0  0  0  0  0  0
    0.8284    4.9008   -0.2984 O   0  0  0  0  0  0  0  0  0  0  0  0
    0.9124    2.6450    0.6179 H   0  0  0  0  0  0  0  0  0  0  0  0
    1.3305    3.6483    2.0022 H   0  0  0  0  0  0  0  0  0  0  0  0
    5.8536    3.7004    6.3775 H   0  0  0  0  0  0  0  0  0  0  0  0
    7.4118    3.3611    8.3003 H   0  0  0  0  0  0  0  0  0  0  0  0
    7.2573    1.2719    9.6678 H   0  0  0  0  0  0  0  0  0  0  0  0
    5.5048   -0.4448    9.1067 H   0  0  0  0  0  0  0  0  0  0  0  0
    3.2248   -0.8989    4.8323 H   0  0  0  0  0  0  0  0  0  0  0  0
    4.5910    0.2854    2.2845 H   0  0  0  0  0  0  0  0  0  0  0  0
    4.2002   -1.4888    2.5857 H   0  0  0  0  0  0  0  0  0  0  0  0
    6.0452    0.3399    4.3462 H   0  0  0  0  0  0  0  0  0  0  0  0
    5.6679   -1.4237    4.7016 H   0  0  0  0  0  0  0  0  0  0  0  0
    4.6510    3.9982   -1.4331 H   0  0  0  0  0  0  0  0  0  0  0  0
    5.1479    4.6885    0.1267 H   0  0  0  0  0  0  0  0  0  0  0  0
    4.5185    6.2908   -2.1358 H   0  0  0  0  0  0  0  0  0  0  0  0
    4.3372    6.8853   -0.4619 H   0  0  0  0  0  0  0  0  0  0  0  0
    2.0076    6.8176   -1.5914 H   0  0  0  0  0  0  0  0  0  0  0  0
  1  2  2  0
  2  3  1  0
  2 20  1  0
  3  4  1  0
  3 26  1  0
  3 27  1  0
  4  5  1  0
  5  6  2  0
  5 16  1  0
  6  7  1  0
  7  8  2  0
  8  9  1  0
  8 16  1  0
  9 10  2  0
  9 14  1  0
 10 11  1  0
 10 28  1  0
 11 12  2  0
 11 29  1  0
 12 13  1  0
 12 30  1  0
 13 14  2  0
 13 31  1  0
 14 15  1  0
 16 17  1  0
 17 18  1  0
 17 19  1  0
 17 32  1  1
 18 19  1  0
 18 33  1  0
 18 34  1  0
 19 35  1  0
 19 36  1  0
 20 21  1  0
 20 24  1  0
 21 22  1  0
 21 37  1  0
 21 38  1  0
 22 23  1  0
 22 39  1  0
 22 40  1  0
 23 24  1  0
 23 41  1  0
 24 25  2  0
M  END

