
     RDKit          3D

 74 78  0  0  0  0  0  0  0  0999 V2000
    0.1321   -1.1308    1.1960 C   0  0  0  0  0  0  0  0  0  0  0  0
    1.4909   -0.7308    0.6744 C   0  0  0  0  0  0  0  0  0  0  0  0
    2.6628   -1.2722    1.2337 C   0  0  0  0  0  0  0  0  0  0  0  0
    3.9233   -0.9160    0.7583 C   0  0  0  0  0  0  0  0  0  0  0  0
    4.0627   -0.0014   -0.2999 C   0  0  0  0  0  0  0  0  0  0  0  0
    5.4360    0.4052   -0.7938 C   0  0  0  0  0  0  0  0  0  0  0  0
    6.2821   -0.7229   -1.1913 N   0  0  0  0  0  0  0  0  0  0  0  0
    5.7800   -1.4176   -2.3779 C   0  0  0  0  0  0  0  0  0  0  0  0
    6.4023   -2.7819   -2.5951 C   0  0  0  0  0  0  0  0  0  0  0  0
    6.4336   -3.7324   -1.5662 C   0  0  0  0  0  0  0  0  0  0  0  0
    6.9733   -5.0043   -1.7742 C   0  0  0  0  0  0  0  0  0  0  0  0
    7.5053   -5.3853   -3.0179 C   0  0  0  0  0  0  0  0  0  0  0  0
    8.1081   -6.7790   -3.2836 C   0  0  1  0  0  0  0  0  0  0  0  0
    8.0416   -7.6887   -2.0436 C   0  0  0  0  0  0  0  0  0  0  0  0
    7.3289   -7.4664   -4.4288 C   0  0  0  0  0  0  0  0  0  0  0  0
    9.5920   -6.6270   -3.6916 C   0  0  0  0  0  0  0  0  0  0  0  0
    7.4722   -4.4233   -4.0434 C   0  0  0  0  0  0  0  0  0  0  0  0
    6.9359   -3.1509   -3.8378 C   0  0  0  0  0  0  0  0  0  0  0  0
    7.6832   -0.3475   -1.3082 C   0  0  0  0  0  0  0  0  0  0  0  0
    8.3580   -0.1631    0.0226 C   0  0  0  0  0  0  0  0  0  0  0  0
    9.2808    0.7134    0.2831 N   0  0  0  0  0  0  0  0  0  0  0  0
    9.7643    0.5820    1.5656 C   0  0  0  0  0  0  0  0  0  0  0  0
   10.8348    1.4872    2.0934 C   0  0  0  0  0  0  0  0  0  0  0  0
   11.2692    1.3795    3.2311 O   0  0  0  0  0  0  0  0  0  0  0  0
   11.2549    2.4173    1.1894 N   0  0  0  0  0  0  0  0  0  0  0  0
   12.2886    3.3856    1.4775 C   0  0  0  0  0  0  0  0  0  0  0  0
   11.8873    4.8231    1.1901 C   0  0  0  0  0  0  0  0  0  0  0  0
   10.5717    5.2629    1.3821 C   0  0  0  0  0  0  0  0  0  0  0  0
   10.1935    6.6030    1.1653 C   0  0  0  0  0  0  0  0  0  0  0  0
   11.1835    7.4784    0.7585 C   0  0  0  0  0  0  0  0  0  0  0  0
   12.4990    7.0504    0.5623 C   0  0  0  0  0  0  0  0  0  0  0  0
   12.8789    5.7362    0.7615 C   0  0  0  0  0  0  0  0  0  0  0  0
   13.2555    8.1035    0.1246 O   0  0  0  0  0  0  0  0  0  0  0  0
   12.4246    9.2557    0.2345 C   0  0  0  0  0  0  0  0  0  0  0  0
   11.0897    8.8087    0.4473 O   0  0  0  0  0  0  0  0  0  0  0  0
    9.1925   -0.4198    2.3079 C   0  0  0  0  0  0  0  0  0  0  0  0
    7.9990   -1.2385    1.3713 S   0  0  0  0  0  0  0  0  0  0  0  0
    2.8991    0.5388   -0.8592 C   0  0  0  0  0  0  0  0  0  0  0  0
    1.6341    0.1818   -0.3784 C   0  0  0  0  0  0  0  0  0  0  0  0
   -0.0479   -2.2104    1.0576 H   0  0  0  0  0  0  0  0  0  0  0  0
   -0.6751   -0.5883    0.6819 H   0  0  0  0  0  0  0  0  0  0  0  0
    0.0407   -0.9272    2.2760 H   0  0  0  0  0  0  0  0  0  0  0  0
    2.5828   -1.9847    2.0605 H   0  0  0  0  0  0  0  0  0  0  0  0
    4.8190   -1.3479    1.2113 H   0  0  0  0  0  0  0  0  0  0  0  0
    5.9626    0.9389    0.0154 H   0  0  0  0  0  0  0  0  0  0  0  0
    5.3262    1.1378   -1.6241 H   0  0  0  0  0  0  0  0  0  0  0  0
    5.9113   -0.8030   -3.2965 H   0  0  0  0  0  0  0  0  0  0  0  0
    4.6929   -1.5374   -2.2430 H   0  0  0  0  0  0  0  0  0  0  0  0
    6.0304   -3.4698   -0.5854 H   0  0  0  0  0  0  0  0  0  0  0  0
    6.9710   -5.7059   -0.9397 H   0  0  0  0  0  0  0  0  0  0  0  0
    7.0049   -7.8584   -1.7130 H   0  0  0  0  0  0  0  0  0  0  0  0
    8.6074   -7.2713   -1.1960 H   0  0  0  0  0  0  0  0  0  0  0  0
    8.4783   -8.6719   -2.2793 H   0  0  0  0  0  0  0  0  0  0  0  0
    6.2678   -7.5962   -4.1625 H   0  0  0  0  0  0  0  0  0  0  0  0
    7.7517   -8.4627   -4.6388 H   0  0  0  0  0  0  0  0  0  0  0  0
    7.3705   -6.8842   -5.3620 H   0  0  0  0  0  0  0  0  0  0  0  0
   10.1741   -6.1437   -2.8908 H   0  0  0  0  0  0  0  0  0  0  0  0
    9.7073   -6.0197   -4.6022 H   0  0  0  0  0  0  0  0  0  0  0  0
   10.0404   -7.6145   -3.8901 H   0  0  0  0  0  0  0  0  0  0  0  0
    7.8769   -4.6638   -5.0295 H   0  0  0  0  0  0  0  0  0  0  0  0
    6.9318   -2.4306   -4.6617 H   0  0  0  0  0  0  0  0  0  0  0  0
    7.8467    0.5828   -1.8932 H   0  0  0  0  0  0  0  0  0  0  0  0
    8.2073   -1.1543   -1.8473 H   0  0  0  0  0  0  0  0  0  0  0  0
   10.8223    2.3901    0.2705 H   0  0  0  0  0  0  0  0  0  0  0  0
   13.2092    3.1493    0.9129 H   0  0  0  0  0  0  0  0  0  0  0  0
   12.5336    3.2554    2.5446 H   0  0  0  0  0  0  0  0  0  0  0  0
    9.8162    4.5452    1.7081 H   0  0  0  0  0  0  0  0  0  0  0  0
    9.1654    6.9388    1.3097 H   0  0  0  0  0  0  0  0  0  0  0  0
   13.9099    5.4197    0.5897 H   0  0  0  0  0  0  0  0  0  0  0  0
   12.4771    9.8421   -0.6972 H   0  0  0  0  0  0  0  0  0  0  0  0
   12.7544    9.8722    1.0951 H   0  0  0  0  0  0  0  0  0  0  0  0
    9.4225   -0.6771    3.3397 H   0  0  0  0  0  0  0  0  0  0  0  0
    2.9787    1.2515   -1.6856 H   0  0  0  0  0  0  0  0  0  0  0  0
    0.7426    0.6206   -0.8358 H   0  0  0  0  0  0  0  0  0  0  0  0
  1  2  1  0
  1 40  1  0
  1 41  1  0
  1 42  1  0
  2  3  2  0
  2 39  1  0
  3  4  1  0
  3 43  1  0
  4  5  2  0
  4 44  1  0
  5  6  1  0
  5 38  1  0
  6  7  1  0
  6 45  1  0
  6 46  1  0
  7  8  1  0
  7 19  1  0
  8  9  1  0
  8 47  1  0
  8 48  1  0
  9 10  2  0
  9 18  1  0
 10 11  1  0
 10 49  1  0
 11 12  2  0
 11 50  1  0
 12 13  1  0
 12 17  1  0
 13 14  1  1
 13 15  1  0
 13 16  1  0
 14 51  1  0
 14 52  1  0
 14 53  1  0
 15 54  1  0
 15 55  1  0
 15 56  1  0
 16 57  1  0
 16 58  1  0
 16 59  1  0
 17 18  2  0
 17 60  1  0
 18 61  1  0
 19 20  1  0
 19 62  1  0
 19 63  1  0
 20 21  2  0
 20 37  1  0
 21 22  1  0
 22 23  1  0
 22 36  2  0
 23 24  2  0
 23 25  1  0
 25 26  1  0
 25 64  1  0
 26 27  1  0
 26 65  1  0
 26 66  1  0
 27 28  2  0
 27 32  1  0
 28 29  1  0
 28 67  1  0
 29 30  2  0
 29 68  1  0
 30 31  1  0
 30 35  1  0
 31 32  2  0
 31 33  1  0
 32 69  1  0
 33 34  1  0
 34 35  1  0
 34 70  1  0
 34 71  1  0
 36 37  1  0
 36 72  1  0
 38 39  2  0
 38 73  1  0
 39 74  1  0
M  END

