
     RDKit          3D

 32 32  0  0  0  0  0  0  0  0999 V2000
    2.7521   -1.3225   -0.2087 N   0  0  0  0  0  0  0  0  0  0  0  0
    2.6477    0.0520   -0.0516 C   0  0  0  0  0  0  0  0  0  0  0  0
    3.3156    0.6616    1.1578 C   0  0  0  0  0  0  0  0  0  0  0  0
    2.3120    1.0829    2.2451 C   0  0  0  0  0  0  0  0  0  0  0  0
    2.9866    1.7097    3.4664 C   0  0  0  0  0  0  0  0  0  0  0  0
    1.9935    2.1374    4.5459 C   0  0  0  0  0  0  0  0  0  0  0  0
    2.6766    2.7047    5.6882 N   0  0  0  0  0  0  0  0  0  0  0  0
    2.0347    3.1593    6.8211 C   0  0  0  0  0  0  0  0  0  0  0  0
    2.7593    3.8730    7.8068 C   0  0  0  0  0  0  0  0  0  0  0  0
    2.1334    4.3127    8.9688 C   0  0  0  0  0  0  0  0  0  0  0  0
    0.7743    4.0668    9.2033 C   0  0  0  0  0  0  0  0  0  0  0  0
    0.0747    3.3688    8.2247 C   0  0  0  0  0  0  0  0  0  0  0  0
   -1.2329    3.1185    8.4113 F   0  0  0  0  0  0  0  0  0  0  0  0
    0.6632    2.9164    7.0463 C   0  0  0  0  0  0  0  0  0  0  0  0
    2.0244    0.7192   -0.9575 N   0  0  0  0  0  0  0  0  0  0  0  0
    2.0996    2.1058   -0.7206 O   0  0  0  0  0  0  0  0  0  0  0  0
    2.7250   -1.8653    0.6485 H   0  0  0  0  0  0  0  0  0  0  0  0
    2.1551   -1.7011   -0.9393 H   0  0  0  0  0  0  0  0  0  0  0  0
    3.8758    1.5486    0.8228 H   0  0  0  0  0  0  0  0  0  0  0  0
    4.0472   -0.0561    1.5641 H   0  0  0  0  0  0  0  0  0  0  0  0
    1.7204    0.2050    2.5623 H   0  0  0  0  0  0  0  0  0  0  0  0
    1.6011    1.7974    1.8004 H   0  0  0  0  0  0  0  0  0  0  0  0
    3.5736    2.5901    3.1436 H   0  0  0  0  0  0  0  0  0  0  0  0
    3.7091    0.9997    3.9077 H   0  0  0  0  0  0  0  0  0  0  0  0
    1.4116    1.2555    4.8707 H   0  0  0  0  0  0  0  0  0  0  0  0
    1.2578    2.8480    4.1130 H   0  0  0  0  0  0  0  0  0  0  0  0
    3.5848    3.1143    5.5054 H   0  0  0  0  0  0  0  0  0  0  0  0
    3.8230    4.0715    7.6492 H   0  0  0  0  0  0  0  0  0  0  0  0
    2.7157    4.8609    9.7141 H   0  0  0  0  0  0  0  0  0  0  0  0
    0.2645    4.4017   10.1074 H   0  0  0  0  0  0  0  0  0  0  0  0
    0.0415    2.3840    6.3276 H   0  0  0  0  0  0  0  0  0  0  0  0
    1.6280    2.4670   -1.4807 H   0  0  0  0  0  0  0  0  0  0  0  0
  1  2  1  0
  1 17  1  0
  1 18  1  0
  2  3  1  0
  2 15  2  0
  3  4  1  0
  3 19  1  0
  3 20  1  0
  4  5  1  0
  4 21  1  0
  4 22  1  0
  5  6  1  0
  5 23  1  0
  5 24  1  0
  6  7  1  0
  6 25  1  0
  6 26  1  0
  7  8  1  0
  7 27  1  0
  8  9  2  0
  8 14  1  0
  9 10  1  0
  9 28  1  0
 10 11  2  0
 10 29  1  0
 11 12  1  0
 11 30  1  0
 12 13  1  0
 12 14  2  0
 14 31  1  0
 15 16  1  0
 16 32  1  0
M  END

