
     RDKit          3D

 29 30  0  0  0  0  0  0  0  0999 V2000
    3.6334   -2.3077    5.2585 N   0  0  0  0  0  0  0  0  0  0  0  0
    2.7903   -2.7552    4.1515 C   0  0  0  0  0  0  0  0  0  0  0  0
    3.0619   -1.9026    2.9118 C   0  0  0  0  0  0  0  0  0  0  0  0
    4.4743   -1.9142    2.5900 N   0  0  0  0  0  0  0  0  0  0  0  0
    4.9496   -2.1228    1.3313 C   0  0  0  0  0  0  0  0  0  0  0  0
    4.2350   -2.2411    0.3489 O   0  0  0  0  0  0  0  0  0  0  0  0
    6.4840   -2.2185    1.2140 C   0  0  1  0  0  0  0  0  0  0  0  0
    7.2821   -1.1632    2.0196 C   0  0  0  0  0  0  0  0  0  0  0  0
    7.7130   -1.8039    3.2382 O   0  0  0  0  0  0  0  0  0  0  0  0
    7.6931   -3.1489    3.0163 C   0  0  0  0  0  0  0  0  0  0  0  0
    8.2549   -4.1071    3.8563 C   0  0  0  0  0  0  0  0  0  0  0  0
    8.1200   -5.4515    3.4810 C   0  0  0  0  0  0  0  0  0  0  0  0
    7.4474   -5.8159    2.3080 C   0  0  0  0  0  0  0  0  0  0  0  0
    6.8842   -4.8334    1.4786 C   0  0  0  0  0  0  0  0  0  0  0  0
    7.0180   -3.4959    1.8387 C   0  0  0  0  0  0  0  0  0  0  0  0
    3.6617   -2.9985    6.0067 H   0  0  0  0  0  0  0  0  0  0  0  0
    3.2706   -1.4460    5.6683 H   0  0  0  0  0  0  0  0  0  0  0  0
    1.7011   -2.7369    4.3650 H   0  0  0  0  0  0  0  0  0  0  0  0
    3.0539   -3.8014    3.9241 H   0  0  0  0  0  0  0  0  0  0  0  0
    2.7128   -0.8664    3.0934 H   0  0  0  0  0  0  0  0  0  0  0  0
    2.5103   -2.2773    2.0377 H   0  0  0  0  0  0  0  0  0  0  0  0
    5.0986   -1.9136    3.3943 H   0  0  0  0  0  0  0  0  0  0  0  0
    6.6941   -2.1512    0.1381 H   0  0  0  0  0  0  0  0  0  0  0  0
    6.6992   -0.2717    2.2897 H   0  0  0  0  0  0  0  0  0  0  0  0
    8.1775   -0.8458    1.4574 H   0  0  0  0  0  0  0  0  0  0  0  0
    8.7807   -3.8111    4.7658 H   0  0  0  0  0  0  0  0  0  0  0  0
    8.5555   -6.2276    4.1161 H   0  0  0  0  0  0  0  0  0  0  0  0
    7.3608   -6.8706    2.0368 H   0  0  0  0  0  0  0  0  0  0  0  0
    6.3479   -5.1111    0.5676 H   0  0  0  0  0  0  0  0  0  0  0  0
  1  2  1  0
  1 16  1  0
  1 17  1  0
  2  3  1  0
  2 18  1  0
  2 19  1  0
  3  4  1  0
  3 20  1  0
  3 21  1  0
  4  5  1  0
  4 22  1  0
  5  6  2  0
  5  7  1  0
  7  8  1  0
  7 15  1  0
  7 23  1  6
  8  9  1  0
  8 24  1  0
  8 25  1  0
  9 10  1  0
 10 11  2  0
 10 15  1  0
 11 12  1  0
 11 26  1  0
 12 13  2  0
 12 27  1  0
 13 14  1  0
 13 28  1  0
 14 15  2  0
 14 29  1  0
M  END

