
     RDKit          3D

 49 51  0  0  0  0  0  0  0  0999 V2000
    2.9426    1.9600    1.7940 C   0  0  0  0  0  0  0  0  0  0  0  0
    4.1170    1.4444    0.9981 C   0  0  0  0  0  0  0  0  0  0  0  0
    4.7082    2.1937   -0.0276 C   0  0  0  0  0  0  0  0  0  0  0  0
    5.7877    1.7141   -0.7718 C   0  0  0  0  0  0  0  0  0  0  0  0
    6.3353    0.4327   -0.5317 C   0  0  0  0  0  0  0  0  0  0  0  0
    7.3862   -0.0668   -1.3047 N   0  0  0  0  0  0  0  0  0  0  0  0
    7.9403   -1.3981   -1.0876 C   0  0  0  0  0  0  0  0  0  0  0  0
    9.0875   -1.4723   -0.0672 C   0  0  0  0  0  0  0  0  0  0  0  0
   10.2131   -0.4570   -0.3161 C   0  0  0  0  0  0  0  0  0  0  0  0
    9.7800    0.9276   -0.1057 N   0  0  0  0  0  0  0  0  0  0  0  0
    9.9274    1.4350    1.1619 C   0  0  0  0  0  0  0  0  0  0  0  0
   10.4271    0.7881    2.0715 O   0  0  0  0  0  0  0  0  0  0  0  0
    9.4633    2.8488    1.4363 C   0  0  0  0  0  0  0  0  0  0  0  0
    8.1360    3.1125    1.7805 C   0  0  0  0  0  0  0  0  0  0  0  0
    7.7670    4.4105    2.1439 C   0  0  0  0  0  0  0  0  0  0  0  0
    8.7616    5.3864    2.1444 C   0  0  0  0  0  0  0  0  0  0  0  0
    8.4552    6.8303    2.5025 C   0  0  1  0  0  0  0  0  0  0  0  0
    7.1522    6.9943    2.8034 F   0  0  0  0  0  0  0  0  0  0  0  0
    9.1668    7.2391    3.5613 F   0  0  0  0  0  0  0  0  0  0  0  0
    8.7377    7.6547    1.4826 F   0  0  0  0  0  0  0  0  0  0  0  0
   10.0349    5.1433    1.8341 N   0  0  0  0  0  0  0  0  0  0  0  0
   10.4032    3.9074    1.4931 C   0  0  0  0  0  0  0  0  0  0  0  0
   11.8605    3.6747    1.1894 C   0  0  0  0  0  0  0  0  0  0  0  0
    9.2197    1.6687   -1.2301 C   0  0  0  0  0  0  0  0  0  0  0  0
    8.2322    0.8235   -2.0723 C   0  0  0  0  0  0  0  0  0  0  0  0
    5.7481   -0.3184    0.5150 C   0  0  0  0  0  0  0  0  0  0  0  0
    4.6707    0.1786    1.2468 C   0  0  0  0  0  0  0  0  0  0  0  0
    2.7180    3.0085    1.5466 H   0  0  0  0  0  0  0  0  0  0  0  0
    3.1299    1.9046    2.8794 H   0  0  0  0  0  0  0  0  0  0  0  0
    2.0296    1.3716    1.5971 H   0  0  0  0  0  0  0  0  0  0  0  0
    4.3166    3.1886   -0.2604 H   0  0  0  0  0  0  0  0  0  0  0  0
    6.1936    2.3513   -1.5573 H   0  0  0  0  0  0  0  0  0  0  0  0
    8.3092   -1.7582   -2.0647 H   0  0  0  0  0  0  0  0  0  0  0  0
    7.1326   -2.0877   -0.8040 H   0  0  0  0  0  0  0  0  0  0  0  0
    9.5135   -2.4909   -0.0914 H   0  0  0  0  0  0  0  0  0  0  0  0
    8.7102   -1.3138    0.9560 H   0  0  0  0  0  0  0  0  0  0  0  0
   10.6137   -0.5490   -1.3401 H   0  0  0  0  0  0  0  0  0  0  0  0
   11.0351   -0.6516    0.3848 H   0  0  0  0  0  0  0  0  0  0  0  0
    7.3888    2.3154    1.7601 H   0  0  0  0  0  0  0  0  0  0  0  0
    6.7395    4.6526    2.4145 H   0  0  0  0  0  0  0  0  0  0  0  0
   12.4039    4.6262    1.2465 H   0  0  0  0  0  0  0  0  0  0  0  0
   11.9989    3.2389    0.1863 H   0  0  0  0  0  0  0  0  0  0  0  0
   12.2924    2.9623    1.9102 H   0  0  0  0  0  0  0  0  0  0  0  0
   10.0218    2.0317   -1.9025 H   0  0  0  0  0  0  0  0  0  0  0  0
    8.7120    2.5559   -0.8341 H   0  0  0  0  0  0  0  0  0  0  0  0
    8.7972    0.2011   -2.7823 H   0  0  0  0  0  0  0  0  0  0  0  0
    7.6357    1.5078   -2.6969 H   0  0  0  0  0  0  0  0  0  0  0  0
    6.1382   -1.3017    0.7759 H   0  0  0  0  0  0  0  0  0  0  0  0
    4.2537   -0.4427    2.0455 H   0  0  0  0  0  0  0  0  0  0  0  0
  1  2  1  0
  1 28  1  0
  1 29  1  0
  1 30  1  0
  2  3  2  0
  2 27  1  0
  3  4  1  0
  3 31  1  0
  4  5  2  0
  4 32  1  0
  5  6  1  0
  5 26  1  0
  6  7  1  0
  6 25  1  0
  7  8  1  0
  7 33  1  0
  7 34  1  0
  8  9  1  0
  8 35  1  0
  8 36  1  0
  9 10  1  0
  9 37  1  0
  9 38  1  0
 10 11  1  0
 10 24  1  0
 11 12  2  0
 11 13  1  0
 13 14  2  0
 13 22  1  0
 14 15  1  0
 14 39  1  0
 15 16  2  0
 15 40  1  0
 16 17  1  0
 16 21  1  0
 17 18  1  1
 17 19  1  0
 17 20  1  0
 21 22  2  0
 22 23  1  0
 23 41  1  0
 23 42  1  0
 23 43  1  0
 24 25  1  0
 24 44  1  0
 24 45  1  0
 25 46  1  0
 25 47  1  0
 26 27  2  0
 26 48  1  0
 27 49  1  0
M  END

