
     RDKit          3D

 31 33  0  0  0  0  0  0  0  0999 V2000
    1.0122   -0.0167    0.4905 C   0  0  0  0  0  0  0  0  0  0  0  0
    2.4824   -0.0596    0.1520 C   0  0  0  0  0  0  0  0  0  0  0  0
    3.0749    0.9499   -0.6281 C   0  0  0  0  0  0  0  0  0  0  0  0
    4.4270    0.9179   -0.9566 C   0  0  0  0  0  0  0  0  0  0  0  0
    5.2583   -0.1344   -0.5203 C   0  0  0  0  0  0  0  0  0  0  0  0
    6.6827   -0.1289   -0.8881 C   0  0  0  0  0  0  0  0  0  0  0  0
    7.3039    1.0276   -1.3251 N   0  0  0  0  0  0  0  0  0  0  0  0
    8.5457    0.7132   -1.5724 C   0  0  0  0  0  0  0  0  0  0  0  0
    8.7993   -0.6197   -1.3347 N   0  0  0  0  0  0  0  0  0  0  0  0
   10.0033   -1.3541   -1.5909 C   0  0  1  0  0  0  0  0  0  0  0  0
   11.3352   -0.6918   -1.3771 C   0  0  0  0  0  0  0  0  0  0  0  0
   10.8853   -1.7867   -0.4434 C   0  0  0  0  0  0  0  0  0  0  0  0
    7.6040   -1.1734   -0.9034 C   0  0  0  0  0  0  0  0  0  0  0  0
    7.5006   -2.5553   -0.7292 N   0  0  0  0  0  0  0  0  0  0  0  0
    4.6703   -1.1344    0.2768 C   0  0  0  0  0  0  0  0  0  0  0  0
    3.3110   -1.0968    0.5998 C   0  0  0  0  0  0  0  0  0  0  0  0
    0.7390    0.9309    0.9844 H   0  0  0  0  0  0  0  0  0  0  0  0
    0.7268   -0.8399    1.1627 H   0  0  0  0  0  0  0  0  0  0  0  0
    0.3877   -0.0952   -0.4162 H   0  0  0  0  0  0  0  0  0  0  0  0
    2.4588    1.7807   -0.9865 H   0  0  0  0  0  0  0  0  0  0  0  0
    4.8738    1.7126   -1.5565 H   0  0  0  0  0  0  0  0  0  0  0  0
    9.3268    1.3929   -1.9119 H   0  0  0  0  0  0  0  0  0  0  0  0
    9.9135   -2.0539   -2.4295 H   0  0  0  0  0  0  0  0  0  0  0  0
   11.3451    0.3287   -0.9864 H   0  0  0  0  0  0  0  0  0  0  0  0
   12.1260   -0.9050   -2.1009 H   0  0  0  0  0  0  0  0  0  0  0  0
   10.5798   -1.4889    0.5636 H   0  0  0  0  0  0  0  0  0  0  0  0
   11.3610   -2.7689   -0.5091 H   0  0  0  0  0  0  0  0  0  0  0  0
    8.0156   -2.9244    0.0696 H   0  0  0  0  0  0  0  0  0  0  0  0
    6.5368   -2.8705   -0.6948 H   0  0  0  0  0  0  0  0  0  0  0  0
    5.2836   -1.9414    0.6839 H   0  0  0  0  0  0  0  0  0  0  0  0
    2.8897   -1.8894    1.2258 H   0  0  0  0  0  0  0  0  0  0  0  0
  1  2  1  0
  1 17  1  0
  1 18  1  0
  1 19  1  0
  2  3  2  0
  2 16  1  0
  3  4  1  0
  3 20  1  0
  4  5  2  0
  4 21  1  0
  5  6  1  0
  5 15  1  0
  6  7  1  0
  6 13  2  0
  7  8  2  0
  8  9  1  0
  8 22  1  0
  9 10  1  0
  9 13  1  0
 10 11  1  0
 10 12  1  0
 10 23  1  6
 11 12  1  0
 11 24  1  0
 11 25  1  0
 12 26  1  0
 12 27  1  0
 13 14  1  0
 14 28  1  0
 14 29  1  0
 15 16  2  0
 15 30  1  0
 16 31  1  0
M  END

