
     RDKit          3D

 28 30  0  0  0  0  0  0  0  0999 V2000
    2.9672    2.2152   -0.2717 O   0  0  0  0  0  0  0  0  0  0  0  0
    3.1830    1.0401   -0.3465 C   0  0  0  0  0  0  0  0  0  0  0  0
    3.0030    0.0672    0.6077 N   0  0  0  0  0  0  0  0  0  0  0  0
    3.5984   -1.1959    0.2376 C   0  0  0  0  0  0  0  0  0  0  0  0
    3.7394   -0.9871   -1.2886 C   0  0  2  0  0  0  0  0  0  0  0  0
    5.0591   -1.4740   -1.9032 C   0  0  0  0  0  0  0  0  0  0  0  0
    5.2397   -2.9038   -1.7735 N   0  0  0  0  0  0  0  0  0  0  0  0
    6.0942   -3.5142   -0.9352 C   0  0  0  0  0  0  0  0  0  0  0  0
    5.9157   -4.9249   -1.0857 C   0  0  0  0  0  0  0  0  0  0  0  0
    4.8942   -5.1503   -2.0653 C   0  0  0  0  0  0  0  0  0  0  0  0
    4.3144   -6.3382   -2.6067 C   0  0  0  0  0  0  0  0  0  0  0  0
    3.3062   -6.1506   -3.6102 C   0  0  0  0  0  0  0  0  0  0  0  0
    2.9453   -4.8766   -4.0082 C   0  0  0  0  0  0  0  0  0  0  0  0
    2.0032   -4.7335   -4.9557 F   0  0  0  0  0  0  0  0  0  0  0  0
    3.4937   -3.6590   -3.4850 C   0  0  0  0  0  0  0  0  0  0  0  0
    4.4845   -3.8816   -2.4981 C   0  0  0  0  0  0  0  0  0  0  0  0
    3.6749    0.4259   -1.4755 O   0  0  0  0  0  0  0  0  0  0  0  0
    2.8105    0.3435    1.5623 H   0  0  0  0  0  0  0  0  0  0  0  0
    2.9544   -2.0571    0.4730 H   0  0  0  0  0  0  0  0  0  0  0  0
    4.5805   -1.3620    0.7232 H   0  0  0  0  0  0  0  0  0  0  0  0
    2.8933   -1.4553   -1.8192 H   0  0  0  0  0  0  0  0  0  0  0  0
    5.9007   -0.9630   -1.4132 H   0  0  0  0  0  0  0  0  0  0  0  0
    5.0709   -1.2047   -2.9707 H   0  0  0  0  0  0  0  0  0  0  0  0
    6.7827   -2.9576   -0.3036 H   0  0  0  0  0  0  0  0  0  0  0  0
    6.4828   -5.6803   -0.5430 H   0  0  0  0  0  0  0  0  0  0  0  0
    4.6230   -7.3303   -2.2812 H   0  0  0  0  0  0  0  0  0  0  0  0
    2.8012   -6.9983   -4.0759 H   0  0  0  0  0  0  0  0  0  0  0  0
    3.2324   -2.6971   -3.9195 H   0  0  0  0  0  0  0  0  0  0  0  0
  1  2  2  0
  2  3  1  0
  2 17  1  0
  3  4  1  0
  3 18  1  0
  4  5  1  0
  4 19  1  0
  4 20  1  0
  5  6  1  0
  5 17  1  0
  5 21  1  6
  6  7  1  0
  6 22  1  0
  6 23  1  0
  7  8  1  0
  7 16  1  0
  8  9  2  0
  8 24  1  0
  9 10  1  0
  9 25  1  0
 10 11  1  0
 10 16  2  0
 11 12  2  0
 11 26  1  0
 12 13  1  0
 12 27  1  0
 13 14  1  0
 13 15  2  0
 15 16  1  0
 15 28  1  0
M  END

