
     RDKit          3D

 29 29  0  0  0  0  0  0  0  0999 V2000
    0.9436    0.2800   -0.1777 C   0  0  0  0  0  0  0  0  0  0  0  0
    1.9072    0.4611    0.8485 O   0  0  0  0  0  0  0  0  0  0  0  0
    2.7239    1.5385    0.8000 C   0  0  0  0  0  0  0  0  0  0  0  0
    3.5145    1.7705    1.9436 C   0  0  0  0  0  0  0  0  0  0  0  0
    4.3493    2.9358    1.9646 C   0  0  0  0  0  0  0  0  0  0  0  0
    4.3228    3.7504    0.7963 C   0  0  0  0  0  0  0  0  0  0  0  0
    5.2024    4.9544    0.6805 C   0  0  0  0  0  0  0  0  0  0  0  0
    6.7228    4.6412    0.6174 C   0  0  1  0  0  0  0  0  0  0  0  0
    7.0945    3.8093   -0.6119 C   0  0  0  0  0  0  0  0  0  0  0  0
    7.5188    5.9578    0.6873 C   0  0  0  0  0  0  0  0  0  0  0  0
    8.9489    5.7285    0.7769 N   0  0  0  0  0  0  0  0  0  0  0  0
    3.4935    3.3807   -0.2998 C   0  0  0  0  0  0  0  0  0  0  0  0
    2.6931    2.2822   -0.3235 N   0  0  0  0  0  0  0  0  0  0  0  0
    0.5728   -0.7481   -0.0725 H   0  0  0  0  0  0  0  0  0  0  0  0
    1.3914    0.4537   -1.1675 H   0  0  0  0  0  0  0  0  0  0  0  0
    0.1106    0.9930   -0.0563 H   0  0  0  0  0  0  0  0  0  0  0  0
    3.4013    1.1054    2.8011 H   0  0  0  0  0  0  0  0  0  0  0  0
    4.8847    3.2370    2.8652 H   0  0  0  0  0  0  0  0  0  0  0  0
    5.0331    5.5965    1.5687 H   0  0  0  0  0  0  0  0  0  0  0  0
    4.9194    5.5485   -0.2048 H   0  0  0  0  0  0  0  0  0  0  0  0
    6.9756    4.0550    1.5208 H   0  0  0  0  0  0  0  0  0  0  0  0
    6.7849    4.3213   -1.5399 H   0  0  0  0  0  0  0  0  0  0  0  0
    6.6012    2.8257   -0.5918 H   0  0  0  0  0  0  0  0  0  0  0  0
    8.1828    3.6592   -0.6568 H   0  0  0  0  0  0  0  0  0  0  0  0
    7.1187    6.5637    1.5310 H   0  0  0  0  0  0  0  0  0  0  0  0
    7.3227    6.5432   -0.2285 H   0  0  0  0  0  0  0  0  0  0  0  0
    9.2358    5.4191    1.7032 H   0  0  0  0  0  0  0  0  0  0  0  0
    9.4967    6.5487    0.5322 H   0  0  0  0  0  0  0  0  0  0  0  0
    3.5490    3.9622   -1.2269 H   0  0  0  0  0  0  0  0  0  0  0  0
  1  2  1  0
  1 14  1  0
  1 15  1  0
  1 16  1  0
  2  3  1  0
  3  4  2  0
  3 13  1  0
  4  5  1  0
  4 17  1  0
  5  6  2  0
  5 18  1  0
  6  7  1  0
  6 12  1  0
  7  8  1  0
  7 19  1  0
  7 20  1  0
  8  9  1  0
  8 10  1  0
  8 21  1  1
  9 22  1  0
  9 23  1  0
  9 24  1  0
 10 11  1  0
 10 25  1  0
 10 26  1  0
 11 27  1  0
 11 28  1  0
 12 13  2  0
 12 29  1  0
M  END

