
     RDKit          3D

 32 33  0  0  0  0  0  0  0  0999 V2000
    1.1394    0.2536   -0.3296 O   0  0  0  0  0  0  0  0  0  0  0  0
    2.3994    0.0527   -0.1753 C   0  0  0  0  0  0  0  0  0  0  0  0
    3.0861   -1.1580   -0.0187 C   0  0  0  0  0  0  0  0  0  0  0  0
    4.5079   -1.1521    0.1442 C   0  0  0  0  0  0  0  0  0  0  0  0
    5.1557   -2.3629    0.2988 C   0  0  0  0  0  0  0  0  0  0  0  0
    6.4899   -2.3648    0.4522 F   0  0  0  0  0  0  0  0  0  0  0  0
    4.4908   -3.5905    0.3028 C   0  0  0  0  0  0  0  0  0  0  0  0
    3.0858   -3.5996    0.1416 C   0  0  0  0  0  0  0  0  0  0  0  0
    2.5158   -4.8291    0.1608 O   0  0  0  0  0  0  0  0  0  0  0  0
    1.1117   -4.9565   -0.0313 C   0  0  0  0  0  0  0  0  0  0  0  0
    0.7628   -6.4110   -0.0348 C   0  0  0  0  0  0  0  0  0  0  0  0
   -0.1948   -6.9495    0.7378 C   0  0  0  0  0  0  0  0  0  0  0  0
   -0.6402   -8.3521    0.7720 C   0  0  0  0  0  0  0  0  0  0  0  0
   -0.1120   -9.3502   -0.0723 C   0  0  0  0  0  0  0  0  0  0  0  0
   -0.5633  -10.6664    0.0061 C   0  0  0  0  0  0  0  0  0  0  0  0
   -1.5564  -11.0217    0.9275 C   0  0  0  0  0  0  0  0  0  0  0  0
   -2.0933  -10.0451    1.7699 C   0  0  0  0  0  0  0  0  0  0  0  0
   -1.6392   -8.7269    1.6910 C   0  0  0  0  0  0  0  0  0  0  0  0
    2.3799   -2.4101   -0.0170 C   0  0  0  0  0  0  0  0  0  0  0  0
    2.9591    1.0143   -0.1711 H   0  0  0  0  0  0  0  0  0  0  0  0
    5.0842   -0.2262    0.1498 H   0  0  0  0  0  0  0  0  0  0  0  0
    5.0361   -4.5251    0.4275 H   0  0  0  0  0  0  0  0  0  0  0  0
    0.8348   -4.4930   -0.9999 H   0  0  0  0  0  0  0  0  0  0  0  0
    0.5595   -4.4211    0.7630 H   0  0  0  0  0  0  0  0  0  0  0  0
    1.3380   -7.0255   -0.7354 H   0  0  0  0  0  0  0  0  0  0  0  0
   -0.7226   -6.2858    1.4339 H   0  0  0  0  0  0  0  0  0  0  0  0
    0.6602   -9.0942   -0.8009 H   0  0  0  0  0  0  0  0  0  0  0  0
   -0.1389  -11.4236   -0.6583 H   0  0  0  0  0  0  0  0  0  0  0  0
   -1.9089  -12.0546    0.9854 H   0  0  0  0  0  0  0  0  0  0  0  0
   -2.8693  -10.3099    2.4927 H   0  0  0  0  0  0  0  0  0  0  0  0
   -2.0632   -7.9678    2.3546 H   0  0  0  0  0  0  0  0  0  0  0  0
    1.2988   -2.4052   -0.1364 H   0  0  0  0  0  0  0  0  0  0  0  0
  1  2  2  0
  2  3  1  0
  2 20  1  0
  3  4  2  0
  3 19  1  0
  4  5  1  0
  4 21  1  0
  5  6  1  0
  5  7  2  0
  7  8  1  0
  7 22  1  0
  8  9  1  0
  8 19  2  0
  9 10  1  0
 10 11  1  0
 10 23  1  0
 10 24  1  0
 11 12  2  0
 11 25  1  0
 12 13  1  0
 12 26  1  0
 13 14  2  0
 13 18  1  0
 14 15  1  0
 14 27  1  0
 15 16  2  0
 15 28  1  0
 16 17  1  0
 16 29  1  0
 17 18  2  0
 17 30  1  0
 18 31  1  0
 19 32  1  0
M  END

