
     RDKit          3D

 34 36  0  0  0  0  0  0  0  0999 V2000
    0.9459    0.3065    0.5504 C   0  0  0  0  0  0  0  0  0  0  0  0
    2.4000    0.0039    0.3425 C   0  0  0  0  0  0  0  0  0  0  0  0
    3.5414    1.3377    0.4793 S   0  0  0  0  0  0  0  0  0  0  0  0
    4.8870    0.2797    0.1400 C   0  0  0  0  0  0  0  0  0  0  0  0
    6.1555    0.7083    0.0913 N   0  0  0  0  0  0  0  0  0  0  0  0
    7.0355   -0.2448   -0.1808 C   0  0  0  0  0  0  0  0  0  0  0  0
    8.5033    0.1495   -0.1904 C   0  0  0  0  0  0  0  0  0  0  0  0
    9.2271   -0.3412   -1.3565 N   0  0  0  0  0  0  0  0  0  0  0  0
    9.4130    0.3295   -2.5361 C   0  0  0  0  0  0  0  0  0  0  0  0
   10.0786   -0.5455   -3.3765 C   0  0  0  0  0  0  0  0  0  0  0  0
   10.2970   -1.7328   -2.7490 N   0  0  0  0  0  0  0  0  0  0  0  0
    9.7741   -1.5924   -1.5409 C   0  0  0  0  0  0  0  0  0  0  0  0
    9.7513   -2.6043   -0.5353 C   0  0  0  0  0  0  0  0  0  0  0  0
    9.7265   -3.4331    0.2784 N   0  0  0  0  0  0  0  0  0  0  0  0
    6.7754   -1.5348   -0.4079 N   0  0  0  0  0  0  0  0  0  0  0  0
    5.5112   -1.9672   -0.3532 C   0  0  0  0  0  0  0  0  0  0  0  0
    5.3076   -3.2947   -0.5671 N   0  0  0  0  0  0  0  0  0  0  0  0
    6.3325   -4.2136   -0.7954 N   0  0  0  0  0  0  0  0  0  0  0  0
    4.4514   -1.0441   -0.0678 C   0  0  0  0  0  0  0  0  0  0  0  0
    3.0129   -1.1925    0.0522 C   0  0  0  0  0  0  0  0  0  0  0  0
    2.2869   -2.5010   -0.1233 C   0  0  0  0  0  0  0  0  0  0  0  0
    0.7570    0.7044    1.5618 H   0  0  0  0  0  0  0  0  0  0  0  0
    0.3272   -0.5924    0.4266 H   0  0  0  0  0  0  0  0  0  0  0  0
    0.5844    1.0618   -0.1676 H   0  0  0  0  0  0  0  0  0  0  0  0
    8.9899   -0.2587    0.7097 H   0  0  0  0  0  0  0  0  0  0  0  0
    8.5803    1.2429   -0.1548 H   0  0  0  0  0  0  0  0  0  0  0  0
    9.0686    1.3519   -2.6717 H   0  0  0  0  0  0  0  0  0  0  0  0
   10.4108   -0.3662   -4.3982 H   0  0  0  0  0  0  0  0  0  0  0  0
    4.3814   -3.6870   -0.4849 H   0  0  0  0  0  0  0  0  0  0  0  0
    7.0424   -4.1162   -0.0640 H   0  0  0  0  0  0  0  0  0  0  0  0
    6.8118   -3.9649   -1.6640 H   0  0  0  0  0  0  0  0  0  0  0  0
    2.6072   -3.2468    0.6250 H   0  0  0  0  0  0  0  0  0  0  0  0
    2.4609   -2.9296   -1.1250 H   0  0  0  0  0  0  0  0  0  0  0  0
    1.2011   -2.3869   -0.0108 H   0  0  0  0  0  0  0  0  0  0  0  0
  1  2  1  0
  1 22  1  0
  1 23  1  0
  1 24  1  0
  2  3  1  0
  2 20  2  0
  3  4  1  0
  4  5  2  0
  4 19  1  0
  5  6  1  0
  6  7  1  0
  6 15  2  0
  7  8  1  0
  7 25  1  0
  7 26  1  0
  8  9  1  0
  8 12  1  0
  9 10  2  0
  9 27  1  0
 10 11  1  0
 10 28  1  0
 11 12  2  0
 12 13  1  0
 13 14  3  0
 15 16  1  0
 16 17  1  0
 16 19  2  0
 17 18  1  0
 17 29  1  0
 18 30  1  0
 18 31  1  0
 19 20  1  0
 20 21  1  0
 21 32  1  0
 21 33  1  0
 21 34  1  0
M  END

