
     RDKit          3D

 24 25  0  0  0  0  0  0  0  0999 V2000
    1.8887    1.6373    1.0760 O   0  0  0  0  0  0  0  0  0  0  0  0
    2.5275    0.6627    0.4409 C   0  0  0  0  0  0  0  0  0  0  0  0
    2.7188   -0.3783    1.2455 O   0  0  0  0  0  0  0  0  0  0  0  0
    2.9069    0.7687   -0.8882 C   0  0  0  0  0  0  0  0  0  0  0  0
    2.7557    1.8855   -1.7668 C   0  0  0  0  0  0  0  0  0  0  0  0
    3.3512    1.5482   -2.9965 C   0  0  0  0  0  0  0  0  0  0  0  0
    3.8553    0.2626   -2.9170 C   0  0  0  0  0  0  0  0  0  0  0  0
    3.6092   -0.2354   -1.6278 N   0  0  0  0  0  0  0  0  0  0  0  0
    3.7985   -1.8639   -1.1992 S   0  0  0  0  0  0  0  0  0  0  0  0
    2.2485   -2.6617   -1.6899 C   0  0  0  0  0  0  0  0  0  0  0  0
    1.2130   -1.9737   -2.3305 C   0  0  0  0  0  0  0  0  0  0  0  0
    0.0505   -2.6672   -2.6835 C   0  0  0  0  0  0  0  0  0  0  0  0
   -0.0796   -4.0302   -2.4033 C   0  0  0  0  0  0  0  0  0  0  0  0
    0.9630   -4.7083   -1.7634 C   0  0  0  0  0  0  0  0  0  0  0  0
    2.1294   -4.0288   -1.4045 C   0  0  0  0  0  0  0  0  0  0  0  0
    3.1439   -1.1016    0.7321 H   0  0  0  0  0  0  0  0  0  0  0  0
    2.2861    2.8298   -1.5037 H   0  0  0  0  0  0  0  0  0  0  0  0
    3.4221    2.1916   -3.8724 H   0  0  0  0  0  0  0  0  0  0  0  0
    4.3792   -0.3536   -3.6427 H   0  0  0  0  0  0  0  0  0  0  0  0
    1.3089   -0.9099   -2.5537 H   0  0  0  0  0  0  0  0  0  0  0  0
   -0.7601   -2.1306   -3.1830 H   0  0  0  0  0  0  0  0  0  0  0  0
   -0.9913   -4.5637   -2.6824 H   0  0  0  0  0  0  0  0  0  0  0  0
    0.8708   -5.7744   -1.5405 H   0  0  0  0  0  0  0  0  0  0  0  0
    2.9423   -4.5646   -0.9052 H   0  0  0  0  0  0  0  0  0  0  0  0
  1  2  2  0
  2  3  1  0
  2  4  1  0
  3 16  1  0
  4  5  2  0
  4  8  1  0
  5  6  1  0
  5 17  1  0
  6  7  2  0
  6 18  1  0
  7  8  1  0
  7 19  1  0
  8  9  1  0
  9 10  1  0
 10 11  2  0
 10 15  1  0
 11 12  1  0
 11 20  1  0
 12 13  2  0
 12 21  1  0
 13 14  1  0
 13 22  1  0
 14 15  2  0
 14 23  1  0
 15 24  1  0
M  END

