
     RDKit          3D

 53 57  0  0  0  0  0  0  0  0999 V2000
    6.3015    2.5607    5.2577 N   0  0  0  0  0  0  0  0  0  0  0  0
    5.5265    1.4383    4.8486 C   0  0  2  0  0  0  0  0  0  0  0  0
    4.7463    1.2223    5.5972 H   0  0  0  0  0  0  0  0  0  0  0  0
    6.1886    0.0932    4.4347 C   0  0  0  0  0  0  0  0  0  0  0  0
    6.9422   -0.7001    4.8980 O   0  0  0  0  0  0  0  0  0  0  0  0
    5.5095    0.1347    3.1613 N   0  0  0  0  0  0  0  0  0  0  0  0
    5.1508   -0.7790    2.2296 C   0  0  0  0  0  0  0  0  0  0  0  0
    5.9792   -2.0484    2.1301 C   0  0  0  0  0  0  0  0  0  0  0  0
    5.4750   -3.1375    2.0512 O   0  0  0  0  0  0  0  0  0  0  0  0
    7.2742   -1.7634    2.0959 O   0  0  0  0  0  0  0  0  0  0  0  0
    8.2171   -2.8794    1.9224 C   0  0  1  0  0  0  0  0  0  0  0  0
    9.4022   -2.3563    1.1347 C   0  0  0  0  0  0  0  0  0  0  0  0
    9.7468   -0.9985    1.1008 C   0  0  0  0  0  0  0  0  0  0  0  0
   10.8677   -0.5707    0.3810 C   0  0  0  0  0  0  0  0  0  0  0  0
   11.6553   -1.4934   -0.3107 C   0  0  0  0  0  0  0  0  0  0  0  0
   11.3146   -2.8500   -0.2835 C   0  0  0  0  0  0  0  0  0  0  0  0
   10.1954   -3.2773    0.4324 C   0  0  0  0  0  0  0  0  0  0  0  0
    8.5611   -3.4879    3.2729 C   0  0  0  0  0  0  0  0  0  0  0  0
    9.5099   -2.8946    4.1193 C   0  0  0  0  0  0  0  0  0  0  0  0
    9.8013   -3.4612    5.3608 C   0  0  0  0  0  0  0  0  0  0  0  0
    9.1518   -4.6312    5.7690 C   0  0  0  0  0  0  0  0  0  0  0  0
    8.2076   -5.2300    4.9310 C   0  0  0  0  0  0  0  0  0  0  0  0
    7.9121   -4.6599    3.6894 C   0  0  0  0  0  0  0  0  0  0  0  0
    4.0315   -0.5552    1.3973 C   0  0  0  0  0  0  0  0  0  0  0  0
    3.7010   -1.6774    0.1454 S   0  0  0  0  0  0  0  0  0  0  0  0
    2.3101   -0.9286   -0.8705 C   0  0  0  0  0  0  0  0  0  0  0  0
    1.9697   -1.7916   -2.0391 C   0  0  0  0  0  0  0  0  0  0  0  0
    2.7151   -1.9452   -3.2260 C   0  0  0  0  0  0  0  0  0  0  0  0
    1.8251   -3.0233   -4.2765 S   0  0  0  0  0  0  0  0  0  0  0  0
    0.4813   -3.1779   -2.9986 N   0  0  0  0  0  0  0  0  0  0  0  0
    0.8124   -2.4581   -1.9720 N   0  0  0  0  0  0  0  0  0  0  0  0
    3.1570    0.6715    1.5637 C   0  0  0  0  0  0  0  0  0  0  0  0
    3.1036    1.3843    3.2535 S   0  0  0  0  0  0  0  0  0  0  0  0
    4.9071    1.4505    3.4164 C   0  0  1  0  0  0  0  0  0  0  0  0
    5.3422    2.2254    2.7647 H   0  0  0  0  0  0  0  0  0  0  0  0
    7.2115    2.6174    4.8049 H   0  0  0  0  0  0  0  0  0  0  0  0
    6.4306    2.6081    6.2647 H   0  0  0  0  0  0  0  0  0  0  0  0
    7.6913   -3.6383    1.3272 H   0  0  0  0  0  0  0  0  0  0  0  0
    9.1289   -0.2716    1.6298 H   0  0  0  0  0  0  0  0  0  0  0  0
   11.1231    0.4919    0.3587 H   0  0  0  0  0  0  0  0  0  0  0  0
   12.5287   -1.1579   -0.8750 H   0  0  0  0  0  0  0  0  0  0  0  0
   11.9199   -3.5784   -0.8286 H   0  0  0  0  0  0  0  0  0  0  0  0
    9.9343   -4.3391    0.4470 H   0  0  0  0  0  0  0  0  0  0  0  0
   10.0294   -1.9884    3.8006 H   0  0  0  0  0  0  0  0  0  0  0  0
   10.5427   -2.9910    6.0117 H   0  0  0  0  0  0  0  0  0  0  0  0
    9.3853   -5.0775    6.7390 H   0  0  0  0  0  0  0  0  0  0  0  0
    7.6982   -6.1451    5.2428 H   0  0  0  0  0  0  0  0  0  0  0  0
    7.1632   -5.1212    3.0413 H   0  0  0  0  0  0  0  0  0  0  0  0
    2.6639    0.0771   -1.1422 H   0  0  0  0  0  0  0  0  0  0  0  0
    1.4358   -0.8694   -0.2090 H   0  0  0  0  0  0  0  0  0  0  0  0
    3.6417   -1.4580   -3.5119 H   0  0  0  0  0  0  0  0  0  0  0  0
    2.1152    0.4236    1.3279 H   0  0  0  0  0  0  0  0  0  0  0  0
    3.4659    1.4506    0.8458 H   0  0  0  0  0  0  0  0  0  0  0  0
  1  2  1  0
  1 36  1  0
  1 37  1  0
  2  3  1  1
  2  4  1  0
  2 34  1  0
  4  5  2  0
  4  6  1  0
  6  7  1  0
  6 34  1  0
  7  8  1  0
  7 24  2  0
  8  9  2  0
  8 10  1  0
 10 11  1  0
 11 12  1  0
 11 18  1  0
 11 38  1  6
 12 13  2  0
 12 17  1  0
 13 14  1  0
 13 39  1  0
 14 15  2  0
 14 40  1  0
 15 16  1  0
 15 41  1  0
 16 17  2  0
 16 42  1  0
 17 43  1  0
 18 19  2  0
 18 23  1  0
 19 20  1  0
 19 44  1  0
 20 21  2  0
 20 45  1  0
 21 22  1  0
 21 46  1  0
 22 23  2  0
 22 47  1  0
 23 48  1  0
 24 25  1  0
 24 32  1  0
 25 26  1  0
 26 27  1  0
 26 49  1  0
 26 50  1  0
 27 28  2  0
 27 31  1  0
 28 29  1  0
 28 51  1  0
 29 30  1  0
 30 31  2  0
 32 33  1  0
 32 52  1  0
 32 53  1  0
 33 34  1  0
 34 35  1  6
M  END

