
     RDKit          3D

 37 38  0  0  0  0  0  0  0  0999 V2000
    0.8763    0.2976   -0.4164 N   0  0  0  0  0  0  0  0  0  0  0  0
    2.3109    0.0635   -0.2329 C   0  0  1  0  0  0  0  0  0  0  0  0
    2.7429   -1.4191   -0.3289 C   0  0  0  0  0  0  0  0  0  0  0  0
    2.6435   -1.9710   -1.7574 C   0  0  0  0  0  0  0  0  0  0  0  0
    3.4330   -1.1055   -2.7485 C   0  0  0  0  0  0  0  0  0  0  0  0
    3.0169    0.3704   -2.6662 C   0  0  0  0  0  0  0  0  0  0  0  0
    3.1024    0.9449   -1.2344 C   0  0  2  0  0  0  0  0  0  0  0  0
    4.5624    1.1601   -0.7589 C   0  0  0  0  0  0  0  0  0  0  0  0
    5.3361    2.1282   -1.6394 C   0  0  0  0  0  0  0  0  0  0  0  0
    6.0939    1.7641   -2.5168 O   0  0  0  0  0  0  0  0  0  0  0  0
    5.0633    3.4725   -1.3689 N   0  0  0  0  0  0  0  0  0  0  0  0
    5.5232    4.6367   -1.9665 C   0  0  0  0  0  0  0  0  0  0  0  0
    5.0069    5.8502   -1.4112 C   0  0  0  0  0  0  0  0  0  0  0  0
    5.4260    7.1018   -1.9595 C   0  0  0  0  0  0  0  0  0  0  0  0
    6.3433    7.0711   -3.0348 C   0  0  0  0  0  0  0  0  0  0  0  0
    6.9064    8.7166   -3.7621 Br  0  0  0  0  0  0  0  0  0  0  0  0
    6.8644    5.8834   -3.5967 C   0  0  0  0  0  0  0  0  0  0  0  0
    6.4422    4.6284   -3.0486 C   0  0  0  0  0  0  0  0  0  0  0  0
    0.3446   -0.2130    0.2893 H   0  0  0  0  0  0  0  0  0  0  0  0
    0.5594   -0.0598   -1.3176 H   0  0  0  0  0  0  0  0  0  0  0  0
    2.5477    0.4201    0.7855 H   0  0  0  0  0  0  0  0  0  0  0  0
    2.1250   -2.0177    0.3630 H   0  0  0  0  0  0  0  0  0  0  0  0
    3.7833   -1.5224    0.0286 H   0  0  0  0  0  0  0  0  0  0  0  0
    1.5821   -2.0041   -2.0669 H   0  0  0  0  0  0  0  0  0  0  0  0
    2.9971   -3.0149   -1.7861 H   0  0  0  0  0  0  0  0  0  0  0  0
    3.2898   -1.4736   -3.7779 H   0  0  0  0  0  0  0  0  0  0  0  0
    4.5140   -1.1981   -2.5440 H   0  0  0  0  0  0  0  0  0  0  0  0
    1.9754    0.4743   -3.0192 H   0  0  0  0  0  0  0  0  0  0  0  0
    3.6267    0.9738   -3.3571 H   0  0  0  0  0  0  0  0  0  0  0  0
    2.5995    1.9271   -1.2296 H   0  0  0  0  0  0  0  0  0  0  0  0
    5.1287    0.2193   -0.7716 H   0  0  0  0  0  0  0  0  0  0  0  0
    4.5503    1.5239    0.2833 H   0  0  0  0  0  0  0  0  0  0  0  0
    4.4116    3.6301   -0.6056 H   0  0  0  0  0  0  0  0  0  0  0  0
    4.2992    5.8175   -0.5804 H   0  0  0  0  0  0  0  0  0  0  0  0
    5.0555    8.0470   -1.5667 H   0  0  0  0  0  0  0  0  0  0  0  0
    7.5700    5.9224   -4.4246 H   0  0  0  0  0  0  0  0  0  0  0  0
    6.8134    3.6870   -3.4405 H   0  0  0  0  0  0  0  0  0  0  0  0
  1  2  1  0
  1 19  1  0
  1 20  1  0
  2  3  1  0
  2  7  1  0
  2 21  1  1
  3  4  1  0
  3 22  1  0
  3 23  1  0
  4  5  1  0
  4 24  1  0
  4 25  1  0
  5  6  1  0
  5 26  1  0
  5 27  1  0
  6  7  1  0
  6 28  1  0
  6 29  1  0
  7  8  1  0
  7 30  1  6
  8  9  1  0
  8 31  1  0
  8 32  1  0
  9 10  2  0
  9 11  1  0
 11 12  1  0
 11 33  1  0
 12 13  2  0
 12 18  1  0
 13 14  1  0
 13 34  1  0
 14 15  2  0
 14 35  1  0
 15 16  1  0
 15 17  1  0
 17 18  2  0
 17 36  1  0
 18 37  1  0
M  END

