
     RDKit          3D

 30 31  0  0  0  0  0  0  0  0999 V2000
    0.8333    0.4519   -0.0954 C   0  0  0  0  0  0  0  0  0  0  0  0
    2.2995    0.2355   -0.0875 C   0  0  0  0  0  0  0  0  0  0  0  0
    3.2036    1.2325   -0.2055 N   0  0  0  0  0  0  0  0  0  0  0  0
    2.9737    2.2155   -0.3001 H   0  0  0  0  0  0  0  0  0  0  0  0
    4.5059    0.7088   -0.1770 C   0  0  0  0  0  0  0  0  0  0  0  0
    5.7339    1.3380   -0.2244 C   0  0  0  0  0  0  0  0  0  0  0  0
    6.8804    0.5099   -0.1389 C   0  0  0  0  0  0  0  0  0  0  0  0
    6.7807   -0.8806    0.0048 C   0  0  0  0  0  0  0  0  0  0  0  0
    5.5309   -1.5076    0.0513 C   0  0  0  0  0  0  0  0  0  0  0  0
    4.3751   -0.7024   -0.0524 C   0  0  0  0  0  0  0  0  0  0  0  0
    2.9896   -1.0305   -0.0083 C   0  0  0  0  0  0  0  0  0  0  0  0
    2.3682   -2.3651    0.0996 C   0  0  0  0  0  0  0  0  0  0  0  0
    2.1663   -3.0872   -1.1062 C   0  0  0  0  0  0  0  0  0  0  0  0
    2.2110   -4.5113   -1.2386 C   0  0  0  0  0  0  0  0  0  0  0  0
    2.6108   -5.3274   -0.3925 O   0  0  0  0  0  0  0  0  0  0  0  0
    1.7756   -5.0343   -2.4395 O   0  0  0  0  0  0  0  0  0  0  0  0
    2.5867   -3.0838    1.4185 C   0  0  0  0  0  0  0  0  0  0  0  0
    3.7877   -3.8398    1.4780 O   0  0  0  0  0  0  0  0  0  0  0  0
    0.5533    1.4268    0.3320 H   0  0  0  0  0  0  0  0  0  0  0  0
    0.3498   -0.3640    0.4605 H   0  0  0  0  0  0  0  0  0  0  0  0
    0.4415    0.4047   -1.1271 H   0  0  0  0  0  0  0  0  0  0  0  0
    5.8347    2.4218   -0.3149 H   0  0  0  0  0  0  0  0  0  0  0  0
    7.8671    0.9773   -0.1760 H   0  0  0  0  0  0  0  0  0  0  0  0
    7.6908   -1.4780    0.0846 H   0  0  0  0  0  0  0  0  0  0  0  0
    5.4038   -2.5811    0.2096 H   0  0  0  0  0  0  0  0  0  0  0  0
    2.0166   -2.5169   -2.0314 H   0  0  0  0  0  0  0  0  0  0  0  0
    1.3966   -4.3180   -2.9644 H   0  0  0  0  0  0  0  0  0  0  0  0
    1.7211   -3.7473    1.6028 H   0  0  0  0  0  0  0  0  0  0  0  0
    2.6177   -2.3558    2.2480 H   0  0  0  0  0  0  0  0  0  0  0  0
    3.5952   -4.5719    0.8405 H   0  0  0  0  0  0  0  0  0  0  0  0
  1  2  1  0
  1 19  1  0
  1 20  1  0
  1 21  1  0
  2  3  1  0
  2 11  2  0
  3  4  1  0
  3  5  1  0
  5  6  2  0
  5 10  1  0
  6  7  1  0
  6 22  1  0
  7  8  2  0
  7 23  1  0
  8  9  1  0
  8 24  1  0
  9 10  2  0
  9 25  1  0
 10 11  1  0
 11 12  1  0
 12 13  2  0
 12 17  1  0
 13 14  1  0
 13 26  1  0
 14 15  2  0
 14 16  1  0
 16 27  1  0
 17 18  1  0
 17 28  1  0
 17 29  1  0
 18 30  1  0
M  END

