
     RDKit          3D

 39 42  0  0  0  0  0  0  0  0999 V2000
    1.7572    0.3107    0.3696 C   0  0  0  0  0  0  0  0  0  0  0  0
    3.1228   -0.0974    0.1170 N   0  0  0  0  0  0  0  0  0  0  0  0
    4.0572    0.8965   -0.0451 N   0  0  0  0  0  0  0  0  0  0  0  0
    5.2390    0.3100   -0.0792 C   0  0  0  0  0  0  0  0  0  0  0  0
    6.4293    1.1571   -0.2711 C   0  0  0  0  0  0  0  0  0  0  0  0
    6.3053    2.2962   -1.0964 C   0  0  0  0  0  0  0  0  0  0  0  0
    7.3703    3.1792   -1.2544 C   0  0  0  0  0  0  0  0  0  0  0  0
    8.5760    2.9519   -0.5794 C   0  0  0  0  0  0  0  0  0  0  0  0
    8.7052    1.8355    0.2533 C   0  0  0  0  0  0  0  0  0  0  0  0
    7.6468    0.9398    0.4048 C   0  0  0  0  0  0  0  0  0  0  0  0
    5.0511   -1.1389   -0.0102 C   0  0  0  0  0  0  0  0  0  0  0  0
    5.9423   -2.1376   -0.3122 N   0  0  0  0  0  0  0  0  0  0  0  0
    5.6374   -3.4069   -0.8358 C   0  0  0  0  0  0  0  0  0  0  0  0
    6.8380   -4.0172   -1.0816 C   0  0  0  0  0  0  0  0  0  0  0  0
    7.8239   -3.0689   -0.6684 C   0  0  0  0  0  0  0  0  0  0  0  0
    7.2805   -1.9530   -0.2082 N   0  0  0  0  0  0  0  0  0  0  0  0
    3.6221   -1.3523    0.1237 C   0  0  0  0  0  0  0  0  0  0  0  0
    2.8614   -2.5636    0.3281 C   0  0  0  0  0  0  0  0  0  0  0  0
    3.3764   -3.6070    1.1986 C   0  0  0  0  0  0  0  0  0  0  0  0
    2.6831   -4.8018    1.3362 C   0  0  0  0  0  0  0  0  0  0  0  0
    1.4895   -5.0510    0.6369 C   0  0  0  0  0  0  0  0  0  0  0  0
    0.9772   -4.0354   -0.2281 C   0  0  0  0  0  0  0  0  0  0  0  0
    1.6376   -2.8329   -0.3743 C   0  0  0  0  0  0  0  0  0  0  0  0
    1.7882    1.2491    0.9391 H   0  0  0  0  0  0  0  0  0  0  0  0
    1.2471   -0.4775    0.9370 H   0  0  0  0  0  0  0  0  0  0  0  0
    1.2146    0.4868   -0.5733 H   0  0  0  0  0  0  0  0  0  0  0  0
    5.3583    2.4716   -1.6089 H   0  0  0  0  0  0  0  0  0  0  0  0
    7.2620    4.0497   -1.9061 H   0  0  0  0  0  0  0  0  0  0  0  0
    9.4125    3.6448   -0.7019 H   0  0  0  0  0  0  0  0  0  0  0  0
    9.6401    1.6601    0.7914 H   0  0  0  0  0  0  0  0  0  0  0  0
    7.7568    0.0687    1.0466 H   0  0  0  0  0  0  0  0  0  0  0  0
    4.6092   -3.7133   -0.9863 H   0  0  0  0  0  0  0  0  0  0  0  0
    6.9971   -5.0114   -1.4910 H   0  0  0  0  0  0  0  0  0  0  0  0
    8.9092   -3.1717   -0.6855 H   0  0  0  0  0  0  0  0  0  0  0  0
    4.2698   -3.4243    1.7993 H   0  0  0  0  0  0  0  0  0  0  0  0
    3.0763   -5.5638    2.0168 H   0  0  0  0  0  0  0  0  0  0  0  0
    0.9633   -6.0000    0.7516 H   0  0  0  0  0  0  0  0  0  0  0  0
    0.0545   -4.2118   -0.7875 H   0  0  0  0  0  0  0  0  0  0  0  0
    1.2396   -2.0895   -1.0708 H   0  0  0  0  0  0  0  0  0  0  0  0
  1  2  1  0
  1 24  1  0
  1 25  1  0
  1 26  1  0
  2  3  1  0
  2 17  1  0
  3  4  2  0
  4  5  1  0
  4 11  1  0
  5  6  2  0
  5 10  1  0
  6  7  1  0
  6 27  1  0
  7  8  2  0
  7 28  1  0
  8  9  1  0
  8 29  1  0
  9 10  2  0
  9 30  1  0
 10 31  1  0
 11 12  1  0
 11 17  2  0
 12 13  1  0
 12 16  1  0
 13 14  2  0
 13 32  1  0
 14 15  1  0
 14 33  1  0
 15 16  2  0
 15 34  1  0
 17 18  1  0
 18 19  2  0
 18 23  1  0
 19 20  1  0
 19 35  1  0
 20 21  2  0
 20 36  1  0
 21 22  1  0
 21 37  1  0
 22 23  2  0
 22 38  1  0
 23 39  1  0
M  END

