
     RDKit          3D

 43 45  0  0  0  0  0  0  0  0999 V2000
    0.4617    0.3978   -1.3414 O   0  0  0  0  0  0  0  0  0  0  0  0
    1.1250    0.4263   -0.3394 C   0  0  0  0  0  0  0  0  0  0  0  0
    0.6733   -0.0135    0.8239 O   0  0  0  0  0  0  0  0  0  0  0  0
    2.5847    0.9995   -0.3281 C   0  0  2  0  0  0  0  0  0  0  0  0
    2.9832    1.5976   -1.6941 C   0  0  0  0  0  0  0  0  0  0  0  0
    3.2679    0.5231   -2.7402 C   0  0  0  0  0  0  0  0  0  0  0  0
    4.2397   -0.5436   -2.2301 C   0  0  2  0  0  0  0  0  0  0  0  0
    4.4343   -1.6880   -3.2355 C   0  0  0  0  0  0  0  0  0  0  0  0
    5.3202   -2.8168   -2.7015 C   0  0  0  0  0  0  0  0  0  0  0  0
    4.7803   -3.3544   -1.3733 C   0  0  0  0  0  0  0  0  0  0  0  0
    4.6425   -2.2375   -0.3313 C   0  0  0  0  0  0  0  0  0  0  0  0
    3.7374   -1.1163   -0.8558 C   0  0  1  0  0  0  0  0  0  0  0  0
    3.5163   -0.0192    0.0754 N   0  0  0  0  0  0  0  0  0  0  0  0
    4.3103    0.1212    1.3564 C   0  0  0  0  0  0  0  0  0  0  0  0
    4.0599    1.3435    2.1591 C   0  0  0  0  0  0  0  0  0  0  0  0
    5.0238    2.4365    2.2685 C   0  0  0  0  0  0  0  0  0  0  0  0
    4.9209    3.3712    3.2800 C   0  0  0  0  0  0  0  0  0  0  0  0
    3.8921    3.3265    4.2550 C   0  0  0  0  0  0  0  0  0  0  0  0
    2.9196    2.2670    4.1690 C   0  0  0  0  0  0  0  0  0  0  0  0
    3.0596    1.3450    3.1758 C   0  0  0  0  0  0  0  0  0  0  0  0
    2.1003    0.3239    3.0637 F   0  0  0  0  0  0  0  0  0  0  0  0
    1.2547    0.1668    1.5986 H   0  0  0  0  0  0  0  0  0  0  0  0
    2.6371    1.7719    0.4551 H   0  0  0  0  0  0  0  0  0  0  0  0
    3.8745    2.2234   -1.5291 H   0  0  0  0  0  0  0  0  0  0  0  0
    2.1660    2.2574   -2.0176 H   0  0  0  0  0  0  0  0  0  0  0  0
    3.6861    0.9917   -3.6467 H   0  0  0  0  0  0  0  0  0  0  0  0
    2.3210    0.0452   -3.0370 H   0  0  0  0  0  0  0  0  0  0  0  0
    5.2225   -0.0775   -2.0286 H   0  0  0  0  0  0  0  0  0  0  0  0
    4.8565   -1.2693   -4.1640 H   0  0  0  0  0  0  0  0  0  0  0  0
    3.4420   -2.0945   -3.5032 H   0  0  0  0  0  0  0  0  0  0  0  0
    6.3494   -2.4424   -2.5543 H   0  0  0  0  0  0  0  0  0  0  0  0
    5.3875   -3.6271   -3.4450 H   0  0  0  0  0  0  0  0  0  0  0  0
    5.4388   -4.1424   -0.9754 H   0  0  0  0  0  0  0  0  0  0  0  0
    3.7955   -3.8276   -1.5390 H   0  0  0  0  0  0  0  0  0  0  0  0
    5.6424   -1.8371   -0.0988 H   0  0  0  0  0  0  0  0  0  0  0  0
    4.2364   -2.6437    0.6077 H   0  0  0  0  0  0  0  0  0  0  0  0
    2.7374   -1.5469   -1.0650 H   0  0  0  0  0  0  0  0  0  0  0  0
    5.3605    0.0670    1.0241 H   0  0  0  0  0  0  0  0  0  0  0  0
    4.1162   -0.8240    1.8924 H   0  0  0  0  0  0  0  0  0  0  0  0
    5.8370    2.5079    1.5405 H   0  0  0  0  0  0  0  0  0  0  0  0
    5.6613    4.1760    3.3279 H   0  0  0  0  0  0  0  0  0  0  0  0
    3.8376    4.0622    5.0564 H   0  0  0  0  0  0  0  0  0  0  0  0
    2.0711    2.2011    4.8524 H   0  0  0  0  0  0  0  0  0  0  0  0
  1  2  2  0
  2  3  1  0
  2  4  1  0
  3 22  1  0
  4  5  1  0
  4 13  1  0
  4 23  1  1
  5  6  1  0
  5 24  1  0
  5 25  1  0
  6  7  1  0
  6 26  1  0
  6 27  1  0
  7  8  1  0
  7 12  1  0
  7 28  1  1
  8  9  1  0
  8 29  1  0
  8 30  1  0
  9 10  1  0
  9 31  1  0
  9 32  1  0
 10 11  1  0
 10 33  1  0
 10 34  1  0
 11 12  1  0
 11 35  1  0
 11 36  1  0
 12 13  1  0
 12 37  1  6
 13 14  1  0
 14 15  1  0
 14 38  1  0
 14 39  1  0
 15 16  2  0
 15 20  1  0
 16 17  1  0
 16 40  1  0
 17 18  2  0
 17 41  1  0
 18 19  1  0
 18 42  1  0
 19 20  2  0
 19 43  1  0
 20 21  1  0
M  END

