
     RDKit          3D

 30 31  0  0  0  0  0  0  0  0999 V2000
    3.0480    0.6938    1.7228 C   0  0  0  0  0  0  0  0  0  0  0  0
    2.5730   -0.7576    1.5684 C   0  0  1  0  0  0  0  0  0  0  0  0
    1.0432   -0.8425    1.6525 C   0  0  0  0  0  0  0  0  0  0  0  0
    3.0669   -1.4145    0.2649 C   0  0  0  0  0  0  0  0  0  0  0  0
    4.5919   -1.5317    0.1023 C   0  0  1  0  0  0  0  0  0  0  0  0
    5.2258   -2.3681    1.1289 N   0  0  0  0  0  0  0  0  0  0  0  0
    5.9489   -3.4199    0.6291 C   0  0  0  0  0  0  0  0  0  0  0  0
    6.5937   -4.2590    1.2528 O   0  0  0  0  0  0  0  0  0  0  0  0
    5.7999   -3.3388   -0.8307 C   0  0  0  0  0  0  0  0  0  0  0  0
    6.3610   -4.2136   -1.7690 C   0  0  0  0  0  0  0  0  0  0  0  0
    7.1153   -5.2522   -1.3812 O   0  0  0  0  0  0  0  0  0  0  0  0
    6.0968   -3.9469   -3.1236 C   0  0  0  0  0  0  0  0  0  0  0  0
    5.3058   -2.8459   -3.4740 C   0  0  0  0  0  0  0  0  0  0  0  0
    4.7504   -1.9733   -2.5194 C   0  0  0  0  0  0  0  0  0  0  0  0
    5.0146   -2.2404   -1.1779 C   0  0  0  0  0  0  0  0  0  0  0  0
    2.6651    1.1355    2.6566 H   0  0  0  0  0  0  0  0  0  0  0  0
    2.6848    1.3182    0.8882 H   0  0  0  0  0  0  0  0  0  0  0  0
    4.1459    0.7807    1.7491 H   0  0  0  0  0  0  0  0  0  0  0  0
    2.9792   -1.3435    2.4148 H   0  0  0  0  0  0  0  0  0  0  0  0
    0.5716   -0.2772    0.8304 H   0  0  0  0  0  0  0  0  0  0  0  0
    0.6707   -0.4234    2.6007 H   0  0  0  0  0  0  0  0  0  0  0  0
    0.6927   -1.8848    1.5838 H   0  0  0  0  0  0  0  0  0  0  0  0
    2.6779   -0.8401   -0.5952 H   0  0  0  0  0  0  0  0  0  0  0  0
    2.6401   -2.4283    0.1828 H   0  0  0  0  0  0  0  0  0  0  0  0
    5.0388   -0.5200    0.1207 H   0  0  0  0  0  0  0  0  0  0  0  0
    5.2139   -2.1528    2.1180 H   0  0  0  0  0  0  0  0  0  0  0  0
    7.1636   -5.2297   -0.3995 H   0  0  0  0  0  0  0  0  0  0  0  0
    6.5160   -4.6048   -3.8875 H   0  0  0  0  0  0  0  0  0  0  0  0
    5.1161   -2.6586   -4.5345 H   0  0  0  0  0  0  0  0  0  0  0  0
    4.1424   -1.1228   -2.8357 H   0  0  0  0  0  0  0  0  0  0  0  0
  1  2  1  0
  1 16  1  0
  1 17  1  0
  1 18  1  0
  2  3  1  0
  2  4  1  0
  2 19  1  1
  3 20  1  0
  3 21  1  0
  3 22  1  0
  4  5  1  0
  4 23  1  0
  4 24  1  0
  5  6  1  0
  5 15  1  0
  5 25  1  6
  6  7  1  0
  6 26  1  0
  7  8  2  0
  7  9  1  0
  9 10  2  0
  9 15  1  0
 10 11  1  0
 10 12  1  0
 11 27  1  0
 12 13  2  0
 12 28  1  0
 13 14  1  0
 13 29  1  0
 14 15  2  0
 14 30  1  0
M  END

