
     RDKit          3D

 31 33  0  0  0  0  0  0  0  0999 V2000
    2.6206    1.6232   -0.8987 N   0  0  0  0  0  0  0  0  0  0  0  0
    2.3235    0.3746   -0.4346 C   0  0  0  0  0  0  0  0  0  0  0  0
    1.5232    0.1766    0.4582 O   0  0  0  0  0  0  0  0  0  0  0  0
    3.0343   -0.7702   -1.1315 C   0  0  0  0  0  0  0  0  0  0  0  0
    4.3813   -0.7301   -1.5191 C   0  0  0  0  0  0  0  0  0  0  0  0
    5.0829    0.4123   -1.3479 F   0  0  0  0  0  0  0  0  0  0  0  0
    5.0360   -1.8211   -2.0781 C   0  0  0  0  0  0  0  0  0  0  0  0
    4.3328   -3.0108   -2.2576 C   0  0  0  0  0  0  0  0  0  0  0  0
    2.9798   -3.1121   -1.9054 C   0  0  0  0  0  0  0  0  0  0  0  0
    2.3339   -4.2760   -2.1597 O   0  0  0  0  0  0  0  0  0  0  0  0
    1.4486   -4.8446   -1.1466 C   0  0  0  0  0  0  0  0  0  0  0  0
    1.3227   -6.3008   -1.3414 C   0  0  0  0  0  0  0  0  0  0  0  0
    0.2920   -6.9059   -1.9433 N   0  0  0  0  0  0  0  0  0  0  0  0
    0.4809   -8.2000   -2.0734 C   0  0  0  0  0  0  0  0  0  0  0  0
   -0.3141   -9.1635   -2.5834 N   0  0  0  0  0  0  0  0  0  0  0  0
   -0.1052  -10.4554   -2.7144 C   0  0  0  0  0  0  0  0  0  0  0  0
    1.0994  -10.9911   -2.2609 C   0  0  0  0  0  0  0  0  0  0  0  0
    1.4159  -12.6902   -2.4118 Cl  0  0  0  0  0  0  0  0  0  0  0  0
    2.0533  -10.0990   -1.6762 C   0  0  0  0  0  0  0  0  0  0  0  0
    1.7492   -8.7571   -1.5895 C   0  0  0  0  0  0  0  0  0  0  0  0
    2.6714   -7.4151   -0.9448 S   0  0  0  0  0  0  0  0  0  0  0  0
    2.3533   -1.9784   -1.3560 C   0  0  0  0  0  0  0  0  0  0  0  0
    1.0490   -2.0577   -1.0772 F   0  0  0  0  0  0  0  0  0  0  0  0
    2.2405    2.4040   -0.3752 H   0  0  0  0  0  0  0  0  0  0  0  0
    3.4150    1.7872   -1.5028 H   0  0  0  0  0  0  0  0  0  0  0  0
    6.0880   -1.7289   -2.3527 H   0  0  0  0  0  0  0  0  0  0  0  0
    4.8125   -3.8923   -2.6869 H   0  0  0  0  0  0  0  0  0  0  0  0
    0.4479   -4.3987   -1.2302 H   0  0  0  0  0  0  0  0  0  0  0  0
    1.8676   -4.5982   -0.1546 H   0  0  0  0  0  0  0  0  0  0  0  0
   -0.8902  -11.0640   -3.1751 H   0  0  0  0  0  0  0  0  0  0  0  0
    3.0030  -10.4918   -1.3103 H   0  0  0  0  0  0  0  0  0  0  0  0
  1  2  1  0
  1 24  1  0
  1 25  1  0
  2  3  2  0
  2  4  1  0
  4  5  2  0
  4 22  1  0
  5  6  1  0
  5  7  1  0
  7  8  2  0
  7 26  1  0
  8  9  1  0
  8 27  1  0
  9 10  1  0
  9 22  2  0
 10 11  1  0
 11 12  1  0
 11 28  1  0
 11 29  1  0
 12 13  2  0
 12 21  1  0
 13 14  1  0
 14 15  2  0
 14 20  1  0
 15 16  1  0
 16 17  2  0
 16 30  1  0
 17 18  1  0
 17 19  1  0
 19 20  2  0
 19 31  1  0
 20 21  1  0
 22 23  1  0
M  END

