
     RDKit          3D

 59 62  0  0  0  0  0  0  0  0999 V2000
    3.5249    3.7753    6.2148 C   0  0  0  0  0  0  0  0  0  0  0  0
    3.5406    2.7425    5.2569 O   0  0  0  0  0  0  0  0  0  0  0  0
    3.9396    3.0186    3.9876 C   0  0  0  0  0  0  0  0  0  0  0  0
    4.3553    4.2839    3.5413 C   0  0  0  0  0  0  0  0  0  0  0  0
    4.7444    4.4604    2.2101 C   0  0  0  0  0  0  0  0  0  0  0  0
    4.7335    3.3948    1.2981 C   0  0  0  0  0  0  0  0  0  0  0  0
    5.1768    3.5978   -0.1390 C   0  0  0  0  0  0  0  0  0  0  0  0
    6.6121    3.8028   -0.3092 N   0  0  0  0  0  0  0  0  0  0  0  0
    7.1387    5.0818   -0.2888 C   0  0  0  0  0  0  0  0  0  0  0  0
    6.4260    6.0765   -0.2007 O   0  0  0  0  0  0  0  0  0  0  0  0
    8.5161    5.1761   -0.4084 N   0  0  0  0  0  0  0  0  0  0  0  0
    9.4212    4.0517   -0.5975 C   0  0  0  0  0  0  0  0  0  0  0  0
   10.5617    4.4380   -1.5600 C   0  0  0  0  0  0  0  0  0  0  0  0
   11.2580    5.6679   -1.2128 N   0  0  0  0  0  0  0  0  0  0  0  0
   12.2537    5.6484   -0.1281 C   0  0  1  0  0  0  0  0  0  0  0  0
   13.0696    4.3453   -0.0903 C   0  0  0  0  0  0  0  0  0  0  0  0
   13.2184    6.8340   -0.2679 C   0  0  0  0  0  0  0  0  0  0  0  0
   13.5660    7.2828   -1.5303 C   0  0  0  0  0  0  0  0  0  0  0  0
   14.4960    8.3322   -1.7201 C   0  0  0  0  0  0  0  0  0  0  0  0
   15.0839    8.9411   -0.6347 C   0  0  0  0  0  0  0  0  0  0  0  0
   14.7661    8.5200    0.6859 C   0  0  0  0  0  0  0  0  0  0  0  0
   15.3672    9.1401    1.8176 C   0  0  0  0  0  0  0  0  0  0  0  0
   15.0692    8.7314    3.0993 C   0  0  0  0  0  0  0  0  0  0  0  0
   14.1485    7.6751    3.3019 C   0  0  0  0  0  0  0  0  0  0  0  0
   13.5465    7.0535    2.2268 C   0  0  0  0  0  0  0  0  0  0  0  0
   13.8241    7.4481    0.8834 C   0  0  0  0  0  0  0  0  0  0  0  0
   10.2802    6.7554   -1.1049 C   0  0  0  0  0  0  0  0  0  0  0  0
    9.1507    6.4588   -0.1132 C   0  0  0  0  0  0  0  0  0  0  0  0
    4.3140    2.1369    1.7610 C   0  0  0  0  0  0  0  0  0  0  0  0
    3.9213    1.9440    3.0835 C   0  0  0  0  0  0  0  0  0  0  0  0
    3.1726    3.3271    7.1539 H   0  0  0  0  0  0  0  0  0  0  0  0
    2.8376    4.5928    5.9303 H   0  0  0  0  0  0  0  0  0  0  0  0
    4.5312    4.2022    6.3793 H   0  0  0  0  0  0  0  0  0  0  0  0
    4.3742    5.1391    4.2174 H   0  0  0  0  0  0  0  0  0  0  0  0
    5.0653    5.4465    1.8646 H   0  0  0  0  0  0  0  0  0  0  0  0
    4.6885    4.4846   -0.5648 H   0  0  0  0  0  0  0  0  0  0  0  0
    4.8774    2.7259   -0.7435 H   0  0  0  0  0  0  0  0  0  0  0  0
    7.2062    3.0398   -0.0091 H   0  0  0  0  0  0  0  0  0  0  0  0
    8.8745    3.2093   -1.0443 H   0  0  0  0  0  0  0  0  0  0  0  0
    9.8386    3.7066    0.3724 H   0  0  0  0  0  0  0  0  0  0  0  0
   10.1147    4.5858   -2.5596 H   0  0  0  0  0  0  0  0  0  0  0  0
   11.2663    3.6008   -1.6501 H   0  0  0  0  0  0  0  0  0  0  0  0
   11.7520    5.7377    0.8552 H   0  0  0  0  0  0  0  0  0  0  0  0
   13.5378    4.1497   -1.0676 H   0  0  0  0  0  0  0  0  0  0  0  0
   12.4593    3.4734    0.1918 H   0  0  0  0  0  0  0  0  0  0  0  0
   13.8742    4.4383    0.6531 H   0  0  0  0  0  0  0  0  0  0  0  0
   13.0889    6.8115   -2.3918 H   0  0  0  0  0  0  0  0  0  0  0  0
   14.7412    8.6566   -2.7348 H   0  0  0  0  0  0  0  0  0  0  0  0
   15.8014    9.7550   -0.7703 H   0  0  0  0  0  0  0  0  0  0  0  0
   16.0778    9.9540    1.6482 H   0  0  0  0  0  0  0  0  0  0  0  0
   15.5396    9.2175    3.9577 H   0  0  0  0  0  0  0  0  0  0  0  0
   13.9120    7.3498    4.3183 H   0  0  0  0  0  0  0  0  0  0  0  0
   12.8435    6.2420    2.4186 H   0  0  0  0  0  0  0  0  0  0  0  0
    9.8396    6.9209   -2.1041 H   0  0  0  0  0  0  0  0  0  0  0  0
   10.7942    7.6842   -0.8172 H   0  0  0  0  0  0  0  0  0  0  0  0
    8.3732    7.2310   -0.1613 H   0  0  0  0  0  0  0  0  0  0  0  0
    9.5460    6.4519    0.9231 H   0  0  0  0  0  0  0  0  0  0  0  0
    4.2876    1.2885    1.0698 H   0  0  0  0  0  0  0  0  0  0  0  0
    3.5917    0.9673    3.4440 H   0  0  0  0  0  0  0  0  0  0  0  0
  1  2  1  0
  1 31  1  0
  1 32  1  0
  1 33  1  0
  2  3  1  0
  3  4  2  0
  3 30  1  0
  4  5  1  0
  4 34  1  0
  5  6  2  0
  5 35  1  0
  6  7  1  0
  6 29  1  0
  7  8  1  0
  7 36  1  0
  7 37  1  0
  8  9  1  0
  8 38  1  0
  9 10  2  0
  9 11  1  0
 11 12  1  0
 11 28  1  0
 12 13  1  0
 12 39  1  0
 12 40  1  0
 13 14  1  0
 13 41  1  0
 13 42  1  0
 14 15  1  0
 14 27  1  0
 15 16  1  0
 15 17  1  0
 15 43  1  1
 16 44  1  0
 16 45  1  0
 16 46  1  0
 17 18  2  0
 17 26  1  0
 18 19  1  0
 18 47  1  0
 19 20  2  0
 19 48  1  0
 20 21  1  0
 20 49  1  0
 21 22  1  0
 21 26  2  0
 22 23  2  0
 22 50  1  0
 23 24  1  0
 23 51  1  0
 24 25  2  0
 24 52  1  0
 25 26  1  0
 25 53  1  0
 27 28  1  0
 27 54  1  0
 27 55  1  0
 28 56  1  0
 28 57  1  0
 29 30  2  0
 29 58  1  0
 30 59  1  0
M  END

