
     RDKit          3D

 67 69  0  0  0  0  0  0  0  0999 V2000
    2.1715    2.4853   -1.6853 C   0  0  0  0  0  0  0  0  0  0  0  0
    1.5713    1.0913   -1.8976 C   0  0  1  0  0  0  0  0  0  0  0  0
    1.0030    0.5044   -0.6008 C   0  0  0  0  0  0  0  0  0  0  0  0
    0.4981    1.1269   -2.9880 C   0  0  0  0  0  0  0  0  0  0  0  0
    2.5787    0.1900   -2.4611 O   0  0  0  0  0  0  0  0  0  0  0  0
    3.7134   -0.1172   -1.7923 C   0  0  0  0  0  0  0  0  0  0  0  0
    4.0086    0.3115   -0.6911 O   0  0  0  0  0  0  0  0  0  0  0  0
    4.4985   -0.9838   -2.5096 N   0  0  0  0  0  0  0  0  0  0  0  0
    5.7837   -1.4020   -1.9624 C   0  0  0  0  0  0  0  0  0  0  0  0
    5.9012   -2.9303   -1.9676 C   0  0  0  0  0  0  0  0  0  0  0  0
    5.6344   -3.5390   -3.3552 C   0  0  2  0  0  0  0  0  0  0  0  0
    6.7275   -3.1914   -4.2682 N   0  0  0  0  0  0  0  0  0  0  0  0
    6.8189   -3.9992   -5.4753 C   0  0  0  0  0  0  0  0  0  0  0  0
    7.9741   -3.5820   -6.3567 C   0  0  0  0  0  0  0  0  0  0  0  0
    8.3109   -2.2371   -6.5606 C   0  0  0  0  0  0  0  0  0  0  0  0
    9.3651   -1.9089   -7.4085 C   0  0  0  0  0  0  0  0  0  0  0  0
   10.0820   -2.9343   -8.0547 C   0  0  0  0  0  0  0  0  0  0  0  0
   11.2195   -2.6656   -8.9827 C   0  0  0  0  0  0  0  0  0  0  0  0
   11.6630   -1.3673   -9.2901 C   0  0  0  0  0  0  0  0  0  0  0  0
   12.7438   -1.1673  -10.1528 C   0  0  0  0  0  0  0  0  0  0  0  0
   13.3993   -2.2547  -10.7283 C   0  0  0  0  0  0  0  0  0  0  0  0
   12.9616   -3.5595  -10.4519 C   0  0  0  0  0  0  0  0  0  0  0  0
   13.7106   -4.6941  -11.1053 C   0  0  0  0  0  0  0  0  0  0  0  0
   14.8131   -4.5306  -11.6070 O   0  0  0  0  0  0  0  0  0  0  0  0
   13.0845   -5.9138  -11.1109 N   0  0  0  0  0  0  0  0  0  0  0  0
   13.6713   -7.0678  -11.7805 C   0  0  0  0  0  0  0  0  0  0  0  0
   14.5872   -7.8751  -10.8586 C   0  0  0  0  0  0  0  0  0  0  0  0
   13.9109   -8.3582   -9.7183 O   0  0  0  0  0  0  0  0  0  0  0  0
   11.8870   -3.7511   -9.5767 C   0  0  0  0  0  0  0  0  0  0  0  0
    9.7615   -4.2224   -7.8494 N   0  0  0  0  0  0  0  0  0  0  0  0
    8.7570   -4.5284   -7.0341 C   0  0  0  0  0  0  0  0  0  0  0  0
    4.2787   -3.0210   -3.8756 C   0  0  0  0  0  0  0  0  0  0  0  0
    4.1901   -1.4913   -3.8432 C   0  0  0  0  0  0  0  0  0  0  0  0
    1.3831    3.1859   -1.3682 H   0  0  0  0  0  0  0  0  0  0  0  0
    2.6045    2.8618   -2.6255 H   0  0  0  0  0  0  0  0  0  0  0  0
    2.9554    2.4627   -0.9181 H   0  0  0  0  0  0  0  0  0  0  0  0
    0.1701    1.1304   -0.2440 H   0  0  0  0  0  0  0  0  0  0  0  0
    1.7721    0.4578    0.1801 H   0  0  0  0  0  0  0  0  0  0  0  0
    0.6141   -0.5107   -0.7790 H   0  0  0  0  0  0  0  0  0  0  0  0
   -0.3333    1.7810   -2.6840 H   0  0  0  0  0  0  0  0  0  0  0  0
    0.0974    0.1182   -3.1717 H   0  0  0  0  0  0  0  0  0  0  0  0
    0.9155    1.5102   -3.9316 H   0  0  0  0  0  0  0  0  0  0  0  0
    5.8615   -1.0014   -0.9446 H   0  0  0  0  0  0  0  0  0  0  0  0
    6.5994   -0.9607   -2.5648 H   0  0  0  0  0  0  0  0  0  0  0  0
    5.1722   -3.3492   -1.2546 H   0  0  0  0  0  0  0  0  0  0  0  0
    6.9026   -3.2282   -1.6093 H   0  0  0  0  0  0  0  0  0  0  0  0
    5.5583   -4.6430   -3.2389 H   0  0  0  0  0  0  0  0  0  0  0  0
    7.6158   -3.2404   -3.7697 H   0  0  0  0  0  0  0  0  0  0  0  0
    5.8798   -3.8804   -6.0455 H   0  0  0  0  0  0  0  0  0  0  0  0
    6.8996   -5.0895   -5.2651 H   0  0  0  0  0  0  0  0  0  0  0  0
    7.7478   -1.4571   -6.0433 H   0  0  0  0  0  0  0  0  0  0  0  0
    9.6236   -0.8609   -7.5615 H   0  0  0  0  0  0  0  0  0  0  0  0
   11.1724   -0.4953   -8.8548 H   0  0  0  0  0  0  0  0  0  0  0  0
   13.0770   -0.1502  -10.3734 H   0  0  0  0  0  0  0  0  0  0  0  0
   14.2538   -2.1230  -11.3944 H   0  0  0  0  0  0  0  0  0  0  0  0
   12.1115   -5.9583  -10.8380 H   0  0  0  0  0  0  0  0  0  0  0  0
   14.2441   -6.7159  -12.6534 H   0  0  0  0  0  0  0  0  0  0  0  0
   12.8492   -7.7107  -12.1319 H   0  0  0  0  0  0  0  0  0  0  0  0
   15.4635   -7.2544  -10.5882 H   0  0  0  0  0  0  0  0  0  0  0  0
   14.9633   -8.7545  -11.4068 H   0  0  0  0  0  0  0  0  0  0  0  0
   13.6310   -7.5857   -9.2083 H   0  0  0  0  0  0  0  0  0  0  0  0
   11.5372   -4.7467   -9.3008 H   0  0  0  0  0  0  0  0  0  0  0  0
    8.5505   -5.5984   -6.8992 H   0  0  0  0  0  0  0  0  0  0  0  0
    3.4791   -3.4452   -3.2451 H   0  0  0  0  0  0  0  0  0  0  0  0
    4.0910   -3.3771   -4.9017 H   0  0  0  0  0  0  0  0  0  0  0  0
    3.1889   -1.1538   -4.1285 H   0  0  0  0  0  0  0  0  0  0  0  0
    4.9109   -1.0687   -4.5673 H   0  0  0  0  0  0  0  0  0  0  0  0
  1  2  1  0
  1 34  1  0
  1 35  1  0
  1 36  1  0
  2  3  1  0
  2  4  1  0
  2  5  1  6
  3 37  1  0
  3 38  1  0
  3 39  1  0
  4 40  1  0
  4 41  1  0
  4 42  1  0
  5  6  1  0
  6  7  2  0
  6  8  1  0
  8  9  1  0
  8 33  1  0
  9 10  1  0
  9 43  1  0
  9 44  1  0
 10 11  1  0
 10 45  1  0
 10 46  1  0
 11 12  1  0
 11 32  1  0
 11 47  1  1
 12 13  1  0
 12 48  1  0
 13 14  1  0
 13 49  1  0
 13 50  1  0
 14 15  2  0
 14 31  1  0
 15 16  1  0
 15 51  1  0
 16 17  2  0
 16 52  1  0
 17 18  1  0
 17 30  1  0
 18 19  2  0
 18 29  1  0
 19 20  1  0
 19 53  1  0
 20 21  2  0
 20 54  1  0
 21 22  1  0
 21 55  1  0
 22 23  1  0
 22 29  2  0
 23 24  2  0
 23 25  1  0
 25 26  1  0
 25 56  1  0
 26 27  1  0
 26 57  1  0
 26 58  1  0
 27 28  1  0
 27 59  1  0
 27 60  1  0
 28 61  1  0
 29 62  1  0
 30 31  2  0
 31 63  1  0
 32 33  1  0
 32 64  1  0
 32 65  1  0
 33 66  1  0
 33 67  1  0
M  END

