
     RDKit          3D

 75 79  0  0  0  0  0  0  0  0999 V2000
    1.7120    1.6448    1.9274 C   0  0  0  0  0  0  0  0  0  0  0  0
    3.1091    1.3157    1.3995 C   0  0  0  0  0  0  0  0  0  0  0  0
    3.2300    1.4241   -0.1234 C   0  0  0  0  0  0  0  0  0  0  0  0
    4.6449    1.1094   -0.6482 C   0  0  0  0  0  0  0  0  0  0  0  0
    4.7783    1.2332   -2.1551 C   0  0  0  0  0  0  0  0  0  0  0  0
    4.5306    0.1087   -3.0164 C   0  0  0  0  0  0  0  0  0  0  0  0
    4.4988   -1.2165   -2.4417 N   0  0  0  0  0  0  0  0  0  0  0  0
    5.7477   -1.9493   -2.3310 C   0  0  0  0  0  0  0  0  0  0  0  0
    5.7433   -3.0910   -1.3072 C   0  0  0  0  0  0  0  0  0  0  0  0
    4.4756   -3.9471   -1.3672 C   0  0  2  0  0  0  0  0  0  0  0  0
    4.4452   -4.7022   -2.6204 N   0  0  0  0  0  0  0  0  0  0  0  0
    3.5020   -5.6734   -2.8430 C   0  0  0  0  0  0  0  0  0  0  0  0
    2.5138   -5.8523   -2.1730 O   0  0  0  0  0  0  0  0  0  0  0  0
    3.8588   -6.3880   -3.9467 O   0  0  0  0  0  0  0  0  0  0  0  0
    3.0715   -7.4251   -4.4394 C   0  0  0  0  0  0  0  0  0  0  0  0
    1.6831   -7.3289   -4.5651 C   0  0  0  0  0  0  0  0  0  0  0  0
    0.9836   -8.3971   -5.1341 C   0  0  0  0  0  0  0  0  0  0  0  0
    1.6571   -9.5396   -5.5764 C   0  0  0  0  0  0  0  0  0  0  0  0
    3.0472   -9.6165   -5.4480 C   0  0  0  0  0  0  0  0  0  0  0  0
    3.7590   -8.5597   -4.8762 C   0  0  0  0  0  0  0  0  0  0  0  0
    3.2596   -3.0212   -1.2177 C   0  0  0  0  0  0  0  0  0  0  0  0
    3.2420   -1.9104   -2.2686 C   0  0  0  0  0  0  0  0  0  0  0  0
    4.5883    0.2182   -4.4295 C   0  0  0  0  0  0  0  0  0  0  0  0
    4.8312    1.4373   -5.0317 C   0  0  0  0  0  0  0  0  0  0  0  0
    5.0819    2.5824   -4.2184 C   0  0  0  0  0  0  0  0  0  0  0  0
    5.0580    2.4325   -2.7824 C   0  0  0  0  0  0  0  0  0  0  0  0
    5.4496    3.7741   -2.1448 C   0  0  1  0  0  0  0  0  0  0  0  0
    6.7740    3.5928   -1.3861 C   0  0  0  0  0  0  0  0  0  0  0  0
    6.8470    3.5608   -0.1668 O   0  0  0  0  0  0  0  0  0  0  0  0
    7.8711    3.4036   -2.1889 N   0  0  0  0  0  0  0  0  0  0  0  0
    9.1208    2.9454   -1.6574 C   0  0  0  0  0  0  0  0  0  0  0  0
    9.3528    1.4619   -1.9046 C   0  0  1  0  0  0  0  0  0  0  0  0
    8.3849    0.6965   -1.3566 F   0  0  0  0  0  0  0  0  0  0  0  0
    9.3838    1.1739   -3.2184 F   0  0  0  0  0  0  0  0  0  0  0  0
   10.5233    1.0673   -1.3760 F   0  0  0  0  0  0  0  0  0  0  0  0
    5.5529    4.6997   -3.3526 C   0  0  0  0  0  0  0  0  0  0  0  0
    5.8159    6.0569   -3.3862 C   0  0  0  0  0  0  0  0  0  0  0  0
    5.9060    6.7193   -4.6336 C   0  0  0  0  0  0  0  0  0  0  0  0
    5.7291    5.9834   -5.8203 C   0  0  0  0  0  0  0  0  0  0  0  0
    5.4633    4.6162   -5.8053 C   0  0  0  0  0  0  0  0  0  0  0  0
    5.3649    3.9416   -4.5557 C   0  0  0  0  0  0  0  0  0  0  0  0
    1.6630    1.5608    3.0249 H   0  0  0  0  0  0  0  0  0  0  0  0
    0.9509    0.9650    1.5076 H   0  0  0  0  0  0  0  0  0  0  0  0
    1.4160    2.6726    1.6594 H   0  0  0  0  0  0  0  0  0  0  0  0
    3.3929    0.2948    1.7186 H   0  0  0  0  0  0  0  0  0  0  0  0
    3.8504    1.9890    1.8649 H   0  0  0  0  0  0  0  0  0  0  0  0
    2.9536    2.4438   -0.4424 H   0  0  0  0  0  0  0  0  0  0  0  0
    2.4883    0.7583   -0.6033 H   0  0  0  0  0  0  0  0  0  0  0  0
    4.9263    0.0940   -0.3129 H   0  0  0  0  0  0  0  0  0  0  0  0
    5.3548    1.7853   -0.1517 H   0  0  0  0  0  0  0  0  0  0  0  0
    6.5401   -1.2147   -2.1312 H   0  0  0  0  0  0  0  0  0  0  0  0
    5.9488   -2.3275   -3.3553 H   0  0  0  0  0  0  0  0  0  0  0  0
    5.8220   -2.6660   -0.2949 H   0  0  0  0  0  0  0  0  0  0  0  0
    6.6485   -3.7011   -1.4568 H   0  0  0  0  0  0  0  0  0  0  0  0
    4.4749   -4.6496   -0.5156 H   0  0  0  0  0  0  0  0  0  0  0  0
    5.3102   -4.8145   -3.1389 H   0  0  0  0  0  0  0  0  0  0  0  0
    1.1566   -6.4430   -4.2136 H   0  0  0  0  0  0  0  0  0  0  0  0
   -0.1027   -8.3301   -5.2322 H   0  0  0  0  0  0  0  0  0  0  0  0
    1.0998  -10.3674   -6.0210 H   0  0  0  0  0  0  0  0  0  0  0  0
    3.5837  -10.5038   -5.7927 H   0  0  0  0  0  0  0  0  0  0  0  0
    4.8447   -8.5974   -4.7671 H   0  0  0  0  0  0  0  0  0  0  0  0
    3.2858   -2.5740   -0.2110 H   0  0  0  0  0  0  0  0  0  0  0  0
    2.3309   -3.6015   -1.2927 H   0  0  0  0  0  0  0  0  0  0  0  0
    2.4729   -1.1511   -2.0779 H   0  0  0  0  0  0  0  0  0  0  0  0
    3.0045   -2.3380   -3.2673 H   0  0  0  0  0  0  0  0  0  0  0  0
    4.4260   -0.6703   -5.0476 H   0  0  0  0  0  0  0  0  0  0  0  0
    4.8319    1.5134   -6.1211 H   0  0  0  0  0  0  0  0  0  0  0  0
    4.7274    4.1263   -1.3918 H   0  0  0  0  0  0  0  0  0  0  0  0
    7.7378    3.4421   -3.1952 H   0  0  0  0  0  0  0  0  0  0  0  0
    9.1093    3.1105   -0.5708 H   0  0  0  0  0  0  0  0  0  0  0  0
    9.9784    3.4848   -2.0917 H   0  0  0  0  0  0  0  0  0  0  0  0
    5.9552    6.6181   -2.4567 H   0  0  0  0  0  0  0  0  0  0  0  0
    6.1104    7.7911   -4.6741 H   0  0  0  0  0  0  0  0  0  0  0  0
    5.8002    6.5001   -6.7827 H   0  0  0  0  0  0  0  0  0  0  0  0
    5.3243    4.0729   -6.7436 H   0  0  0  0  0  0  0  0  0  0  0  0
  1  2  1  0
  1 42  1  0
  1 43  1  0
  1 44  1  0
  2  3  1  0
  2 45  1  0
  2 46  1  0
  3  4  1  0
  3 47  1  0
  3 48  1  0
  4  5  1  0
  4 49  1  0
  4 50  1  0
  5  6  2  0
  5 26  1  0
  6  7  1  0
  6 23  1  0
  7  8  1  0
  7 22  1  0
  8  9  1  0
  8 51  1  0
  8 52  1  0
  9 10  1  0
  9 53  1  0
  9 54  1  0
 10 11  1  0
 10 21  1  0
 10 55  1  1
 11 12  1  0
 11 56  1  0
 12 13  2  0
 12 14  1  0
 14 15  1  0
 15 16  2  0
 15 20  1  0
 16 17  1  0
 16 57  1  0
 17 18  2  0
 17 58  1  0
 18 19  1  0
 18 59  1  0
 19 20  2  0
 19 60  1  0
 20 61  1  0
 21 22  1  0
 21 62  1  0
 21 63  1  0
 22 64  1  0
 22 65  1  0
 23 24  2  0
 23 66  1  0
 24 25  1  0
 24 67  1  0
 25 26  2  0
 25 41  1  0
 26 27  1  0
 27 28  1  0
 27 36  1  0
 27 68  1  1
 28 29  2  0
 28 30  1  0
 30 31  1  0
 30 69  1  0
 31 32  1  0
 31 70  1  0
 31 71  1  0
 32 33  1  1
 32 34  1  0
 32 35  1  0
 36 37  1  0
 36 41  2  0
 37 38  2  0
 37 72  1  0
 38 39  1  0
 38 73  1  0
 39 40  2  0
 39 74  1  0
 40 41  1  0
 40 75  1  0
M  END

