
     RDKit          3D

 37 40  0  0  0  0  0  0  0  0999 V2000
    1.6170    0.6467   -0.8266 C   0  0  0  0  0  0  0  0  0  0  0  0
    1.5592   -0.6887   -0.9338 C   0  0  0  0  0  0  0  0  0  0  0  0
    0.9744   -1.4940    0.1993 C   0  0  0  0  0  0  0  0  0  0  0  0
   -0.3216   -0.8526    0.7397 C   0  0  2  0  0  0  0  0  0  0  0  0
   -1.5242   -1.0930   -0.1948 C   0  0  0  0  0  0  0  0  0  0  0  0
   -2.2863    0.1276   -0.1580 N   0  0  0  0  0  0  0  0  0  0  0  0
   -3.6630    0.1970   -0.4995 C   0  0  0  0  0  0  0  0  0  0  0  0
   -4.2623    1.4230   -0.8197 C   0  0  0  0  0  0  0  0  0  0  0  0
   -5.6506    1.3695   -1.1493 C   0  0  0  0  0  0  0  0  0  0  0  0
   -6.3338    0.1400   -1.1402 C   0  0  0  0  0  0  0  0  0  0  0  0
   -7.7188   -0.0185   -1.4459 C   0  0  0  0  0  0  0  0  0  0  0  0
   -8.3217   -1.2780   -1.4236 C   0  0  0  0  0  0  0  0  0  0  0  0
   -7.5950   -2.4333   -1.0923 C   0  0  0  0  0  0  0  0  0  0  0  0
   -6.2313   -2.3135   -0.7715 C   0  0  0  0  0  0  0  0  0  0  0  0
   -5.5877   -1.0623   -0.7918 C   0  0  0  0  0  0  0  0  0  0  0  0
   -4.2573   -0.9884   -0.4677 N   0  0  0  0  0  0  0  0  0  0  0  0
   -1.4431    1.2622    0.1069 C   0  0  0  0  0  0  0  0  0  0  0  0
   -0.2345    0.7067    0.9001 C   0  0  2  0  0  0  0  0  0  0  0  0
    1.1097    1.3078    0.4304 C   0  0  0  0  0  0  0  0  0  0  0  0
    2.0512    1.2590   -1.6226 H   0  0  0  0  0  0  0  0  0  0  0  0
    1.9426   -1.2006   -1.8215 H   0  0  0  0  0  0  0  0  0  0  0  0
    1.7094   -1.5525    1.0240 H   0  0  0  0  0  0  0  0  0  0  0  0
    0.7793   -2.5353   -0.1028 H   0  0  0  0  0  0  0  0  0  0  0  0
   -0.5519   -1.2969    1.7197 H   0  0  0  0  0  0  0  0  0  0  0  0
   -2.1854   -1.9328    0.0640 H   0  0  0  0  0  0  0  0  0  0  0  0
   -1.1860   -1.2723   -1.2391 H   0  0  0  0  0  0  0  0  0  0  0  0
   -3.6964    2.3495   -0.8930 H   0  0  0  0  0  0  0  0  0  0  0  0
   -6.1866    2.2815   -1.4204 H   0  0  0  0  0  0  0  0  0  0  0  0
   -8.3068    0.8674   -1.7002 H   0  0  0  0  0  0  0  0  0  0  0  0
   -9.3850   -1.3625   -1.6683 H   0  0  0  0  0  0  0  0  0  0  0  0
   -8.0831   -3.4099   -1.0799 H   0  0  0  0  0  0  0  0  0  0  0  0
   -5.6319   -3.1867   -0.5043 H   0  0  0  0  0  0  0  0  0  0  0  0
   -2.0124    2.0353    0.6448 H   0  0  0  0  0  0  0  0  0  0  0  0
   -1.1206    1.7137   -0.8560 H   0  0  0  0  0  0  0  0  0  0  0  0
   -0.3757    0.9633    1.9605 H   0  0  0  0  0  0  0  0  0  0  0  0
    1.8539    1.1667    1.2368 H   0  0  0  0  0  0  0  0  0  0  0  0
    1.0115    2.3980    0.3042 H   0  0  0  0  0  0  0  0  0  0  0  0
  1  2  2  0
  1 19  1  0
  1 20  1  0
  2  3  1  0
  2 21  1  0
  3  4  1  0
  3 22  1  0
  3 23  1  0
  4  5  1  0
  4 18  1  0
  4 24  1  1
  5  6  1  0
  5 25  1  0
  5 26  1  0
  6  7  1  0
  6 17  1  0
  7  8  2  0
  7 16  1  0
  8  9  1  0
  8 27  1  0
  9 10  2  0
  9 28  1  0
 10 11  1  0
 10 15  1  0
 11 12  2  0
 11 29  1  0
 12 13  1  0
 12 30  1  0
 13 14  2  0
 13 31  1  0
 14 15  1  0
 14 32  1  0
 15 16  2  0
 17 18  1  0
 17 33  1  0
 17 34  1  0
 18 19  1  0
 18 35  1  1
 19 36  1  0
 19 37  1  0
M  END

