
     RDKit          3D

 40 40  0  0  0  0  0  0  0  0999 V2000
    5.5488   -3.3156   -2.0825 C   0  0  0  0  0  0  0  0  0  0  0  0
    4.9327   -1.9264   -2.2649 C   0  0  0  0  0  0  0  0  0  0  0  0
    5.2627   -0.9835   -1.1039 C   0  0  0  0  0  0  0  0  0  0  0  0
    4.7406    0.4734   -1.2140 C   0  0  1  0  0  0  0  0  0  0  0  0
    3.2069    0.5110   -1.3103 C   0  0  0  0  0  0  0  0  0  0  0  0
    5.1897    1.2653    0.0299 C   0  0  0  0  0  0  0  0  0  0  0  0
    5.2516    1.1279   -2.4384 N   0  0  0  0  0  0  0  0  0  0  0  0
    6.5650    1.2948   -2.7791 C   0  0  0  0  0  0  0  0  0  0  0  0
    7.4944    0.9432   -2.0612 O   0  0  0  0  0  0  0  0  0  0  0  0
    6.7863    1.9049   -4.1429 C   0  0  0  0  0  0  0  0  0  0  0  0
    6.0180    1.4212   -5.2270 C   0  0  0  0  0  0  0  0  0  0  0  0
    6.2852    1.8285   -6.5293 C   0  0  0  0  0  0  0  0  0  0  0  0
    7.3185    2.7338   -6.7819 C   0  0  0  0  0  0  0  0  0  0  0  0
    8.0878    3.2522   -5.7316 C   0  0  0  0  0  0  0  0  0  0  0  0
    9.0756    4.1982   -5.9356 N   0  0  0  0  0  0  0  0  0  0  0  0
    7.8104    2.8362   -4.3961 C   0  0  0  0  0  0  0  0  0  0  0  0
    8.6328    3.4166   -3.4784 O   0  0  0  0  0  0  0  0  0  0  0  0
    8.1923    3.7837   -2.1820 C   0  0  0  0  0  0  0  0  0  0  0  0
    5.3068   -3.9792   -2.9281 H   0  0  0  0  0  0  0  0  0  0  0  0
    5.1807   -3.8012   -1.1628 H   0  0  0  0  0  0  0  0  0  0  0  0
    6.6472   -3.2575   -2.0069 H   0  0  0  0  0  0  0  0  0  0  0  0
    3.8393   -2.0298   -2.3791 H   0  0  0  0  0  0  0  0  0  0  0  0
    5.2996   -1.4883   -3.2090 H   0  0  0  0  0  0  0  0  0  0  0  0
    6.3556   -0.9356   -0.9834 H   0  0  0  0  0  0  0  0  0  0  0  0
    4.8598   -1.4058   -0.1659 H   0  0  0  0  0  0  0  0  0  0  0  0
    2.7581    0.0144   -0.4371 H   0  0  0  0  0  0  0  0  0  0  0  0
    2.8388    0.0025   -2.2149 H   0  0  0  0  0  0  0  0  0  0  0  0
    2.8424    1.5514   -1.3288 H   0  0  0  0  0  0  0  0  0  0  0  0
    4.7839    0.8057    0.9451 H   0  0  0  0  0  0  0  0  0  0  0  0
    4.8272    2.3046   -0.0213 H   0  0  0  0  0  0  0  0  0  0  0  0
    6.2854    1.2791    0.1008 H   0  0  0  0  0  0  0  0  0  0  0  0
    4.5663    1.5274   -3.0678 H   0  0  0  0  0  0  0  0  0  0  0  0
    5.2428    0.6759   -5.0395 H   0  0  0  0  0  0  0  0  0  0  0  0
    5.6974    1.4301   -7.3598 H   0  0  0  0  0  0  0  0  0  0  0  0
    7.5281    3.0614   -7.8041 H   0  0  0  0  0  0  0  0  0  0  0  0
    9.4897    4.2312   -6.8588 H   0  0  0  0  0  0  0  0  0  0  0  0
    9.7304    4.3034   -5.1696 H   0  0  0  0  0  0  0  0  0  0  0  0
    8.7734    4.6715   -1.8897 H   0  0  0  0  0  0  0  0  0  0  0  0
    8.3587    2.9699   -1.4629 H   0  0  0  0  0  0  0  0  0  0  0  0
    7.1201    4.0460   -2.1862 H   0  0  0  0  0  0  0  0  0  0  0  0
  1  2  1  0
  1 19  1  0
  1 20  1  0
  1 21  1  0
  2  3  1  0
  2 22  1  0
  2 23  1  0
  3  4  1  0
  3 24  1  0
  3 25  1  0
  4  5  1  0
  4  6  1  0
  4  7  1  6
  5 26  1  0
  5 27  1  0
  5 28  1  0
  6 29  1  0
  6 30  1  0
  6 31  1  0
  7  8  1  0
  7 32  1  0
  8  9  2  0
  8 10  1  0
 10 11  2  0
 10 16  1  0
 11 12  1  0
 11 33  1  0
 12 13  2  0
 12 34  1  0
 13 14  1  0
 13 35  1  0
 14 15  1  0
 14 16  2  0
 15 36  1  0
 15 37  1  0
 16 17  1  0
 17 18  1  0
 18 38  1  0
 18 39  1  0
 18 40  1  0
M  END

