
     RDKit          3D

 23 24  0  0  0  0  0  0  0  0999 V2000
    1.3730    2.1892   -0.7262 C   0  0  0  0  0  0  0  0  0  0  0  0
    2.7640    1.8751   -0.7897 O   0  0  0  0  0  0  0  0  0  0  0  0
    3.0643    0.5877   -1.0741 C   0  0  0  0  0  0  0  0  0  0  0  0
    2.2450   -0.2792   -1.2703 O   0  0  0  0  0  0  0  0  0  0  0  0
    4.4306    0.4199   -1.1049 N   0  0  0  0  0  0  0  0  0  0  0  0
    5.3674    1.5133   -0.8553 C   0  0  0  0  0  0  0  0  0  0  0  0
    6.7204    0.8188   -0.9958 C   0  0  0  0  0  0  0  0  0  0  0  0
    7.7909    1.5152   -0.8317 O   0  0  0  0  0  0  0  0  0  0  0  0
    6.5282   -0.5308   -1.2978 C   0  0  0  0  0  0  0  0  0  0  0  0
    7.4476   -1.5988   -1.5271 C   0  0  0  0  0  0  0  0  0  0  0  0
    6.9313   -2.8569   -1.8122 C   0  0  0  0  0  0  0  0  0  0  0  0
    5.5445   -3.0859   -1.8764 C   0  0  0  0  0  0  0  0  0  0  0  0
    4.6167   -2.0424   -1.6524 C   0  0  0  0  0  0  0  0  0  0  0  0
    5.1116   -0.7839   -1.3673 C   0  0  0  0  0  0  0  0  0  0  0  0
    1.3147    3.2593   -0.4920 H   0  0  0  0  0  0  0  0  0  0  0  0
    0.8734    1.6001    0.0574 H   0  0  0  0  0  0  0  0  0  0  0  0
    0.8800    1.9823   -1.6878 H   0  0  0  0  0  0  0  0  0  0  0  0
    5.2422    1.9527    0.1510 H   0  0  0  0  0  0  0  0  0  0  0  0
    5.2594    2.3347   -1.5870 H   0  0  0  0  0  0  0  0  0  0  0  0
    8.5232   -1.4261   -1.4787 H   0  0  0  0  0  0  0  0  0  0  0  0
    7.6194   -3.6874   -1.9907 H   0  0  0  0  0  0  0  0  0  0  0  0
    5.1713   -4.0866   -2.1028 H   0  0  0  0  0  0  0  0  0  0  0  0
    3.5424   -2.2104   -1.6994 H   0  0  0  0  0  0  0  0  0  0  0  0
  1  2  1  0
  1 15  1  0
  1 16  1  0
  1 17  1  0
  2  3  1  0
  3  4  2  0
  3  5  1  0
  5  6  1  0
  5 14  1  0
  6  7  1  0
  6 18  1  0
  6 19  1  0
  7  8  2  0
  7  9  1  0
  9 10  2  0
  9 14  1  0
 10 11  1  0
 10 20  1  0
 11 12  2  0
 11 21  1  0
 12 13  1  0
 12 22  1  0
 13 14  2  0
 13 23  1  0
M  END

