
     RDKit          3D

 45 48  0  0  0  0  0  0  0  0999 V2000
    2.7259   -2.3307    1.8972 O   0  0  0  0  0  0  0  0  0  0  0  0
    2.3268   -1.8767    0.8361 C   0  0  0  0  0  0  0  0  0  0  0  0
    0.8425   -1.7384    0.5184 C   0  0  0  0  0  0  0  0  0  0  0  0
    0.0355   -1.3712    1.7687 C   0  0  0  0  0  0  0  0  0  0  0  0
   -1.4019   -1.4304    1.5606 N   0  0  0  0  0  0  0  0  0  0  0  0
   -2.0610   -0.4606    0.8580 C   0  0  0  0  0  0  0  0  0  0  0  0
   -1.4741    0.4825    0.3436 O   0  0  0  0  0  0  0  0  0  0  0  0
   -3.5467   -0.6097    0.7471 C   0  0  0  0  0  0  0  0  0  0  0  0
   -4.3719    0.5014    0.3743 C   0  0  0  0  0  0  0  0  0  0  0  0
   -5.6984    0.1744    0.3002 C   0  0  0  0  0  0  0  0  0  0  0  0
   -5.9658   -1.4990    0.6646 S   0  0  0  0  0  0  0  0  0  0  0  0
   -4.2822   -1.7625    0.9303 C   0  0  0  0  0  0  0  0  0  0  0  0
    3.1746   -1.4648   -0.1558 N   0  0  0  0  0  0  0  0  0  0  0  0
    4.6167   -1.6388   -0.0602 C   0  0  0  0  0  0  0  0  0  0  0  0
    5.1430   -2.7668   -0.8870 C   0  0  0  0  0  0  0  0  0  0  0  0
    5.6196   -4.0175   -0.5855 C   0  0  0  0  0  0  0  0  0  0  0  0
    5.9353   -4.6458   -1.8271 C   0  0  0  0  0  0  0  0  0  0  0  0
    5.6236   -3.7330   -2.8074 C   0  0  0  0  0  0  0  0  0  0  0  0
    5.7183   -3.7869   -4.2485 C   0  0  0  0  0  0  0  0  0  0  0  0
    6.1582   -4.8131   -4.9120 N   0  0  0  0  0  0  0  0  0  0  0  0
    6.1311   -4.5842   -6.2688 C   0  0  0  0  0  0  0  0  0  0  0  0
    6.5411   -5.4956   -7.2596 C   0  0  0  0  0  0  0  0  0  0  0  0
    6.4560   -5.1255   -8.5977 C   0  0  0  0  0  0  0  0  0  0  0  0
    5.9676   -3.8573   -8.9686 C   0  0  0  0  0  0  0  0  0  0  0  0
    5.5557   -2.9366   -8.0054 C   0  0  0  0  0  0  0  0  0  0  0  0
    5.6402   -3.3070   -6.6584 C   0  0  0  0  0  0  0  0  0  0  0  0
    5.2095   -2.3913   -5.2317 S   0  0  0  0  0  0  0  0  0  0  0  0
    5.1435   -2.5903   -2.2378 O   0  0  0  0  0  0  0  0  0  0  0  0
    0.4970   -2.7157    0.1362 H   0  0  0  0  0  0  0  0  0  0  0  0
    0.6634   -0.9946   -0.2724 H   0  0  0  0  0  0  0  0  0  0  0  0
    0.3128   -0.3532    2.0888 H   0  0  0  0  0  0  0  0  0  0  0  0
    0.3046   -2.0590    2.5815 H   0  0  0  0  0  0  0  0  0  0  0  0
   -1.9404   -2.1007    2.0932 H   0  0  0  0  0  0  0  0  0  0  0  0
   -3.9610    1.4911    0.1761 H   0  0  0  0  0  0  0  0  0  0  0  0
   -6.5401    0.8189    0.0501 H   0  0  0  0  0  0  0  0  0  0  0  0
   -3.9263   -2.7640    1.1695 H   0  0  0  0  0  0  0  0  0  0  0  0
    2.7845   -1.1404   -1.0327 H   0  0  0  0  0  0  0  0  0  0  0  0
    4.8397   -1.8382    0.9959 H   0  0  0  0  0  0  0  0  0  0  0  0
    5.1184   -0.7000   -0.3507 H   0  0  0  0  0  0  0  0  0  0  0  0
    5.7238   -4.4343    0.4140 H   0  0  0  0  0  0  0  0  0  0  0  0
    6.3396   -5.6399   -1.9995 H   0  0  0  0  0  0  0  0  0  0  0  0
    6.9173   -6.4746   -6.9567 H   0  0  0  0  0  0  0  0  0  0  0  0
    6.7718   -5.8269   -9.3738 H   0  0  0  0  0  0  0  0  0  0  0  0
    5.9100   -3.5887  -10.0263 H   0  0  0  0  0  0  0  0  0  0  0  0
    5.1781   -1.9544   -8.2978 H   0  0  0  0  0  0  0  0  0  0  0  0
  1  2  2  0
  2  3  1  0
  2 13  1  0
  3  4  1  0
  3 29  1  0
  3 30  1  0
  4  5  1  0
  4 31  1  0
  4 32  1  0
  5  6  1  0
  5 33  1  0
  6  7  2  0
  6  8  1  0
  8  9  1  0
  8 12  2  0
  9 10  2  0
  9 34  1  0
 10 11  1  0
 10 35  1  0
 11 12  1  0
 12 36  1  0
 13 14  1  0
 13 37  1  0
 14 15  1  0
 14 38  1  0
 14 39  1  0
 15 16  2  0
 15 28  1  0
 16 17  1  0
 16 40  1  0
 17 18  2  0
 17 41  1  0
 18 19  1  0
 18 28  1  0
 19 20  2  0
 19 27  1  0
 20 21  1  0
 21 22  2  0
 21 26  1  0
 22 23  1  0
 22 42  1  0
 23 24  2  0
 23 43  1  0
 24 25  1  0
 24 44  1  0
 25 26  2  0
 25 45  1  0
 26 27  1  0
M  END

