
     RDKit          3D

 35 36  0  0  0  0  0  0  0  0999 V2000
    1.5528   -1.5868    0.2980 C   0  0  0  0  0  0  0  0  0  0  0  0
    2.1491   -0.1764    0.3485 C   0  0  0  0  0  0  0  0  0  0  0  0
    3.1076    0.0580    1.5265 C   0  0  1  0  0  0  0  0  0  0  0  0
    4.3775   -0.8120    1.5135 C   0  0  0  0  0  0  0  0  0  0  0  0
    5.2889   -0.4814    0.4280 N   0  0  0  0  0  0  0  0  0  0  0  0
    5.6135   -1.4164   -0.5349 C   0  0  0  0  0  0  0  0  0  0  0  0
    6.5212   -1.1706   -1.6062 C   0  0  0  0  0  0  0  0  0  0  0  0
    6.7974   -2.1642   -2.5041 C   0  0  0  0  0  0  0  0  0  0  0  0
    6.1736   -3.4486   -2.3706 C   0  0  0  0  0  0  0  0  0  0  0  0
    6.4008   -4.5253   -3.2353 C   0  0  0  0  0  0  0  0  0  0  0  0
    7.3491   -4.4675   -4.4283 C   0  0  0  0  0  0  0  0  0  0  0  0
    5.8368   -5.6911   -3.1343 O   0  0  0  0  0  0  0  0  0  0  0  0
    5.2655   -3.5652   -1.2641 C   0  0  0  0  0  0  0  0  0  0  0  0
    5.0176   -2.6117   -0.4224 N   0  0  0  0  0  0  0  0  0  0  0  0
    5.8807    0.8414    0.5157 C   0  0  0  0  0  0  0  0  0  0  0  0
    4.8316    1.9509    0.3999 C   0  0  0  0  0  0  0  0  0  0  0  0
    3.5623    1.8438    1.7172 S   0  0  0  0  0  0  0  0  0  0  0  0
    0.8091   -1.6626   -0.5113 H   0  0  0  0  0  0  0  0  0  0  0  0
    1.0396   -1.8399    1.2416 H   0  0  0  0  0  0  0  0  0  0  0  0
    2.3232   -2.3506    0.1106 H   0  0  0  0  0  0  0  0  0  0  0  0
    1.3405    0.5688    0.4215 H   0  0  0  0  0  0  0  0  0  0  0  0
    2.6747    0.0348   -0.5983 H   0  0  0  0  0  0  0  0  0  0  0  0
    2.5743   -0.1596    2.4680 H   0  0  0  0  0  0  0  0  0  0  0  0
    4.1136   -1.8723    1.4157 H   0  0  0  0  0  0  0  0  0  0  0  0
    4.9022   -0.6751    2.4772 H   0  0  0  0  0  0  0  0  0  0  0  0
    7.0032   -0.2029   -1.7363 H   0  0  0  0  0  0  0  0  0  0  0  0
    7.4928   -1.9630   -3.3215 H   0  0  0  0  0  0  0  0  0  0  0  0
    8.3638   -4.2104   -4.0853 H   0  0  0  0  0  0  0  0  0  0  0  0
    7.0058   -3.7024   -5.1432 H   0  0  0  0  0  0  0  0  0  0  0  0
    7.3861   -5.4371   -4.9421 H   0  0  0  0  0  0  0  0  0  0  0  0
    4.7374   -4.5122   -1.1043 H   0  0  0  0  0  0  0  0  0  0  0  0
    6.6377    0.9753   -0.2657 H   0  0  0  0  0  0  0  0  0  0  0  0
    6.4007    0.9456    1.4883 H   0  0  0  0  0  0  0  0  0  0  0  0
    4.3562    1.9272   -0.5939 H   0  0  0  0  0  0  0  0  0  0  0  0
    5.3043    2.9375    0.5256 H   0  0  0  0  0  0  0  0  0  0  0  0
  1  2  1  0
  1 18  1  0
  1 19  1  0
  1 20  1  0
  2  3  1  0
  2 21  1  0
  2 22  1  0
  3  4  1  0
  3 17  1  0
  3 23  1  1
  4  5  1  0
  4 24  1  0
  4 25  1  0
  5  6  1  0
  5 15  1  0
  6  7  2  0
  6 14  1  0
  7  8  1  0
  7 26  1  0
  8  9  2  0
  8 27  1  0
  9 10  1  0
  9 13  1  0
 10 11  1  0
 10 12  2  0
 11 28  1  0
 11 29  1  0
 11 30  1  0
 13 14  2  0
 13 31  1  0
 15 16  1  0
 15 32  1  0
 15 33  1  0
 16 17  1  0
 16 34  1  0
 16 35  1  0
M  END

