
     RDKit          3D

 68 71  0  0  0  0  0  0  0  0999 V2000
    0.8817   -1.5156   -6.6120 C   0  0  0  0  0  0  0  0  0  0  0  0
   -0.3111   -2.2246   -6.8425 O   0  0  0  0  0  0  0  0  0  0  0  0
   -0.4943   -3.4222   -6.2231 C   0  0  0  0  0  0  0  0  0  0  0  0
   -1.7486   -4.0528   -6.5362 C   0  0  0  0  0  0  0  0  0  0  0  0
   -2.1039   -5.2650   -6.0029 C   0  0  0  0  0  0  0  0  0  0  0  0
   -1.1918   -5.9030   -5.1152 C   0  0  0  0  0  0  0  0  0  0  0  0
   -1.3301   -7.0828   -4.4839 N   0  0  0  0  0  0  0  0  0  0  0  0
   -0.1984   -7.2039   -3.7892 N   0  0  0  0  0  0  0  0  0  0  0  0
   -0.0445   -8.0345   -3.2284 H   0  0  0  0  0  0  0  0  0  0  0  0
    0.6900   -6.1772   -3.9220 C   0  0  0  0  0  0  0  0  0  0  0  0
    1.9912   -6.0804   -3.1625 C   0  0  1  0  0  0  0  0  0  0  0  0
    1.8570   -5.7821   -1.7319 N   0  0  0  0  0  0  0  0  0  0  0  0
    2.9000   -7.3075   -3.3572 C   0  0  1  0  0  0  0  0  0  0  0  0
    4.2871   -7.1425   -2.7524 C   0  0  0  0  0  0  0  0  0  0  0  0
    2.2151   -8.4312   -2.7275 O   0  0  0  0  0  0  0  0  0  0  0  0
    2.5209   -9.6760   -3.1588 C   0  0  0  0  0  0  0  0  0  0  0  0
    3.2890   -9.9097   -4.0599 O   0  0  0  0  0  0  0  0  0  0  0  0
    1.7761  -10.7014   -2.3780 C   0  0  0  0  0  0  0  0  0  0  0  0
    1.8657  -12.0026   -2.6852 C   0  0  0  0  0  0  0  0  0  0  0  0
    1.1218  -13.0251   -1.8982 C   0  0  0  0  0  0  0  0  0  0  0  0
    0.4176  -12.7898   -0.9451 O   0  0  0  0  0  0  0  0  0  0  0  0
    1.3357  -14.2578   -2.3964 O   0  0  0  0  0  0  0  0  0  0  0  0
    0.7293  -15.3823   -1.7168 C   0  0  1  0  0  0  0  0  0  0  0  0
   -0.7011  -15.5753   -2.2024 C   0  0  0  0  0  0  0  0  0  0  0  0
    1.6503  -16.5908   -1.9967 C   0  0  1  0  0  0  0  0  0  0  0  0
    1.8378  -16.8806   -3.4205 N   0  0  0  0  0  0  0  0  0  0  0  0
    3.0063  -16.4440   -1.3472 C   0  0  0  0  0  0  0  0  0  0  0  0
    4.1156  -16.8545   -2.0105 N   0  0  0  0  0  0  0  0  0  0  0  0
    4.0691  -17.2385   -2.9511 H   0  0  0  0  0  0  0  0  0  0  0  0
    5.2664  -16.7415   -1.3585 N   0  0  0  0  0  0  0  0  0  0  0  0
    4.9012  -16.2224   -0.1674 C   0  0  0  0  0  0  0  0  0  0  0  0
    5.7307  -15.8966    0.9336 C   0  0  0  0  0  0  0  0  0  0  0  0
    5.1500  -15.3856    2.0750 C   0  0  0  0  0  0  0  0  0  0  0  0
    3.7339  -15.1821    2.1622 C   0  0  0  0  0  0  0  0  0  0  0  0
    3.1275  -14.6845    3.2790 O   0  0  0  0  0  0  0  0  0  0  0  0
    3.8984  -14.3340    4.4023 C   0  0  0  0  0  0  0  0  0  0  0  0
    2.9012  -15.4884    1.0981 C   0  0  0  0  0  0  0  0  0  0  0  0
    3.4753  -16.0112   -0.0895 C   0  0  0  0  0  0  0  0  0  0  0  0
    0.0640   -5.2767   -4.8001 C   0  0  0  0  0  0  0  0  0  0  0  0
    0.4135   -4.0149   -5.3649 C   0  0  0  0  0  0  0  0  0  0  0  0
    0.8202   -0.5910   -7.2019 H   0  0  0  0  0  0  0  0  0  0  0  0
    1.7703   -2.0888   -6.9355 H   0  0  0  0  0  0  0  0  0  0  0  0
    1.0040   -1.2522   -5.5449 H   0  0  0  0  0  0  0  0  0  0  0  0
   -2.4090   -3.5191   -7.2229 H   0  0  0  0  0  0  0  0  0  0  0  0
   -3.0572   -5.7390   -6.2451 H   0  0  0  0  0  0  0  0  0  0  0  0
    2.5424   -5.2409   -3.6174 H   0  0  0  0  0  0  0  0  0  0  0  0
    1.3527   -6.5389   -1.2683 H   0  0  0  0  0  0  0  0  0  0  0  0
    1.2927   -4.9424   -1.6052 H   0  0  0  0  0  0  0  0  0  0  0  0
    2.9797   -7.5341   -4.4305 H   0  0  0  0  0  0  0  0  0  0  0  0
    4.2125   -6.9129   -1.6811 H   0  0  0  0  0  0  0  0  0  0  0  0
    4.8080   -6.3080   -3.2473 H   0  0  0  0  0  0  0  0  0  0  0  0
    4.8834   -8.0524   -2.9066 H   0  0  0  0  0  0  0  0  0  0  0  0
    1.1544  -10.3745   -1.5404 H   0  0  0  0  0  0  0  0  0  0  0  0
    2.4906  -12.3368   -3.5170 H   0  0  0  0  0  0  0  0  0  0  0  0
    0.7195  -15.1581   -0.6413 H   0  0  0  0  0  0  0  0  0  0  0  0
   -0.7301  -15.7572   -3.2876 H   0  0  0  0  0  0  0  0  0  0  0  0
   -1.3039  -14.6845   -1.9777 H   0  0  0  0  0  0  0  0  0  0  0  0
   -1.1613  -16.4356   -1.6914 H   0  0  0  0  0  0  0  0  0  0  0  0
    1.1435  -17.4658   -1.5478 H   0  0  0  0  0  0  0  0  0  0  0  0
    1.9651  -16.0089   -3.9370 H   0  0  0  0  0  0  0  0  0  0  0  0
    1.0312  -17.3574   -3.8165 H   0  0  0  0  0  0  0  0  0  0  0  0
    6.8092  -16.0548    0.8697 H   0  0  0  0  0  0  0  0  0  0  0  0
    5.7859  -15.1361    2.9246 H   0  0  0  0  0  0  0  0  0  0  0  0
    3.1952  -13.9568    5.1578 H   0  0  0  0  0  0  0  0  0  0  0  0
    4.6313  -13.5380    4.1748 H   0  0  0  0  0  0  0  0  0  0  0  0
    4.4390  -15.2004    4.8264 H   0  0  0  0  0  0  0  0  0  0  0  0
    1.8310  -15.3138    1.2175 H   0  0  0  0  0  0  0  0  0  0  0  0
    1.3665   -3.5441   -5.1232 H   0  0  0  0  0  0  0  0  0  0  0  0
  1  2  1  0
  1 41  1  0
  1 42  1  0
  1 43  1  0
  2  3  1  0
  3  4  1  0
  3 40  2  0
  4  5  2  0
  4 44  1  0
  5  6  1  0
  5 45  1  0
  6  7  2  0
  6 39  1  0
  7  8  1  0
  8  9  1  0
  8 10  1  0
 10 11  1  0
 10 39  2  0
 11 12  1  0
 11 13  1  0
 11 46  1  6
 12 47  1  0
 12 48  1  0
 13 14  1  0
 13 15  1  0
 13 49  1  6
 14 50  1  0
 14 51  1  0
 14 52  1  0
 15 16  1  0
 16 17  2  0
 16 18  1  0
 18 19  2  0
 18 53  1  0
 19 20  1  0
 19 54  1  0
 20 21  2  0
 20 22  1  0
 22 23  1  0
 23 24  1  0
 23 25  1  0
 23 55  1  1
 24 56  1  0
 24 57  1  0
 24 58  1  0
 25 26  1  0
 25 27  1  0
 25 59  1  1
 26 60  1  0
 26 61  1  0
 27 28  1  0
 27 38  2  0
 28 29  1  0
 28 30  1  0
 30 31  2  0
 31 32  1  0
 31 38  1  0
 32 33  2  0
 32 62  1  0
 33 34  1  0
 33 63  1  0
 34 35  1  0
 34 37  2  0
 35 36  1  0
 36 64  1  0
 36 65  1  0
 36 66  1  0
 37 38  1  0
 37 67  1  0
 39 40  1  0
 40 68  1  0
M  END

