
     RDKit          3D

 35 36  0  0  0  0  0  0  0  0999 V2000
    5.6290   -3.4047   -0.9664 C   0  0  0  0  0  0  0  0  0  0  0  0
    4.2992   -3.2930   -0.4462 O   0  0  0  0  0  0  0  0  0  0  0  0
    3.9168   -2.5753    0.6159 C   0  0  0  0  0  0  0  0  0  0  0  0
    4.5213   -2.6390    1.8898 C   0  0  0  0  0  0  0  0  0  0  0  0
    5.7023   -4.0511    2.3254 Br  0  0  0  0  0  0  0  0  0  0  0  0
    4.1918   -1.7362    2.9250 C   0  0  0  0  0  0  0  0  0  0  0  0
    3.2201   -0.7868    2.6202 C   0  0  0  0  0  0  0  0  0  0  0  0
    2.7756    0.3849    3.8186 Cl  0  0  0  0  0  0  0  0  0  0  0  0
    2.5375   -0.7474    1.3838 C   0  0  0  0  0  0  0  0  0  0  0  0
    2.7651   -1.6956    0.3674 C   0  0  0  0  0  0  0  0  0  0  0  0
    1.9711   -1.9020   -0.8052 C   0  0  1  0  0  0  0  0  0  0  0  0
    0.5749   -3.7048   -0.1482 Cl  0  0  0  0  0  0  0  0  0  0  0  0
    1.0343   -0.8562   -1.4026 C   0  0  1  0  0  0  0  0  0  0  0  0
    1.8592    0.3893   -1.8169 C   0  0  0  0  0  0  0  0  0  0  0  0
    0.3468   -1.4296   -2.6807 C   0  0  0  0  0  0  0  0  0  0  0  0
   -1.0034   -0.7131   -2.7651 C   0  0  0  0  0  0  0  0  0  0  0  0
   -1.4621   -0.6852   -1.3001 C   0  0  0  0  0  0  0  0  0  0  0  0
   -0.1730   -0.4408   -0.4811 C   0  0  0  0  0  0  0  0  0  0  0  0
    5.5601   -4.1486   -1.7691 H   0  0  0  0  0  0  0  0  0  0  0  0
    6.3595   -3.7267   -0.2148 H   0  0  0  0  0  0  0  0  0  0  0  0
    5.9195   -2.4305   -1.3925 H   0  0  0  0  0  0  0  0  0  0  0  0
    4.6521   -1.7965    3.9078 H   0  0  0  0  0  0  0  0  0  0  0  0
    1.8147    0.0546    1.2440 H   0  0  0  0  0  0  0  0  0  0  0  0
    2.4721   -2.4975   -1.5693 H   0  0  0  0  0  0  0  0  0  0  0  0
    2.6913    0.1079   -2.4827 H   0  0  0  0  0  0  0  0  0  0  0  0
    2.2881    0.9171   -0.9509 H   0  0  0  0  0  0  0  0  0  0  0  0
    1.2278    1.1129   -2.3592 H   0  0  0  0  0  0  0  0  0  0  0  0
    0.1786   -2.5081   -2.5377 H   0  0  0  0  0  0  0  0  0  0  0  0
    0.9736   -1.2980   -3.5783 H   0  0  0  0  0  0  0  0  0  0  0  0
   -1.7167   -1.2244   -3.4314 H   0  0  0  0  0  0  0  0  0  0  0  0
   -0.8805    0.3139   -3.1526 H   0  0  0  0  0  0  0  0  0  0  0  0
   -1.8754   -1.6708   -1.0314 H   0  0  0  0  0  0  0  0  0  0  0  0
   -2.2425    0.0670   -1.1028 H   0  0  0  0  0  0  0  0  0  0  0  0
   -0.1869   -1.0415    0.4375 H   0  0  0  0  0  0  0  0  0  0  0  0
   -0.0899    0.6217   -0.1965 H   0  0  0  0  0  0  0  0  0  0  0  0
  1  2  1  0
  1 19  1  0
  1 20  1  0
  1 21  1  0
  2  3  1  0
  3  4  2  0
  3 10  1  0
  4  5  1  0
  4  6  1  0
  6  7  2  0
  6 22  1  0
  7  8  1  0
  7  9  1  0
  9 10  2  0
  9 23  1  0
 10 11  1  0
 11 12  1  0
 11 13  1  0
 11 24  1  6
 13 14  1  6
 13 15  1  0
 13 18  1  0
 14 25  1  0
 14 26  1  0
 14 27  1  0
 15 16  1  0
 15 28  1  0
 15 29  1  0
 16 17  1  0
 16 30  1  0
 16 31  1  0
 17 18  1  0
 17 32  1  0
 17 33  1  0
 18 34  1  0
 18 35  1  0
M  END

