
     RDKit          3D

 48 49  0  0  0  0  0  0  0  0999 V2000
    5.7020    7.5059   -2.9463 C   0  0  0  0  0  0  0  0  0  0  0  0
    5.4271    6.1382   -2.7094 O   0  0  0  0  0  0  0  0  0  0  0  0
    5.5331    5.2231   -3.6947 C   0  0  0  0  0  0  0  0  0  0  0  0
    5.9368    5.5562   -5.0204 C   0  0  0  0  0  0  0  0  0  0  0  0
    5.9953    4.4982   -5.9764 C   0  0  0  0  0  0  0  0  0  0  0  0
    5.6828    3.1705   -5.5852 C   0  0  0  0  0  0  0  0  0  0  0  0
    5.2815    2.8266   -4.2583 C   0  0  0  0  0  0  0  0  0  0  0  0
    4.9361    1.4205   -3.8765 C   0  0  0  0  0  0  0  0  0  0  0  0
    6.0954    0.3689   -3.8909 C   0  0  1  0  0  0  0  0  0  0  0  0
    6.4991    0.1419   -5.2444 O   0  0  0  0  0  0  0  0  0  0  0  0
    7.3570    0.8519   -3.1634 C   0  0  0  0  0  0  0  0  0  0  0  0
    7.1892    0.8975   -1.6420 C   0  0  0  0  0  0  0  0  0  0  0  0
    6.7396   -0.4556   -1.0768 C   0  0  0  0  0  0  0  0  0  0  0  0
    5.4530   -0.9688   -1.7467 C   0  0  2  0  0  0  0  0  0  0  0  0
    5.0302   -2.3675   -1.2622 C   0  0  0  0  0  0  0  0  0  0  0  0
    4.7138   -2.5367    0.2370 C   0  0  1  0  0  0  0  0  0  0  0  0
    3.5686   -1.6304    0.7078 C   0  0  0  0  0  0  0  0  0  0  0  0
    4.4036   -4.0074    0.5482 C   0  0  0  0  0  0  0  0  0  0  0  0
    5.6216   -0.9664   -3.2781 C   0  0  0  0  0  0  0  0  0  0  0  0
    5.2049    3.8932   -3.2982 C   0  0  0  0  0  0  0  0  0  0  0  0
    5.5268    8.0263   -1.9962 H   0  0  0  0  0  0  0  0  0  0  0  0
    5.0343    7.9167   -3.7217 H   0  0  0  0  0  0  0  0  0  0  0  0
    6.7498    7.6520   -3.2581 H   0  0  0  0  0  0  0  0  0  0  0  0
    6.2150    6.5716   -5.2963 H   0  0  0  0  0  0  0  0  0  0  0  0
    6.2963    4.7056   -7.0041 H   0  0  0  0  0  0  0  0  0  0  0  0
    5.7768    2.3679   -6.3188 H   0  0  0  0  0  0  0  0  0  0  0  0
    4.1661    1.0104   -4.5652 H   0  0  0  0  0  0  0  0  0  0  0  0
    4.4661    1.4281   -2.8806 H   0  0  0  0  0  0  0  0  0  0  0  0
    5.7462   -0.2454   -5.7134 H   0  0  0  0  0  0  0  0  0  0  0  0
    7.6503    1.8358   -3.5607 H   0  0  0  0  0  0  0  0  0  0  0  0
    8.1651    0.1483   -3.4270 H   0  0  0  0  0  0  0  0  0  0  0  0
    6.4574    1.6778   -1.3675 H   0  0  0  0  0  0  0  0  0  0  0  0
    8.1413    1.2019   -1.1759 H   0  0  0  0  0  0  0  0  0  0  0  0
    6.6002   -0.3772    0.0140 H   0  0  0  0  0  0  0  0  0  0  0  0
    7.5427   -1.2008   -1.2345 H   0  0  0  0  0  0  0  0  0  0  0  0
    4.6409   -0.2619   -1.4967 H   0  0  0  0  0  0  0  0  0  0  0  0
    5.8291   -3.0826   -1.5335 H   0  0  0  0  0  0  0  0  0  0  0  0
    4.1403   -2.6828   -1.8395 H   0  0  0  0  0  0  0  0  0  0  0  0
    5.6174   -2.2644    0.8125 H   0  0  0  0  0  0  0  0  0  0  0  0
    2.6448   -1.8337    0.1382 H   0  0  0  0  0  0  0  0  0  0  0  0
    3.8050   -0.5616    0.5875 H   0  0  0  0  0  0  0  0  0  0  0  0
    3.3439   -1.7982    1.7737 H   0  0  0  0  0  0  0  0  0  0  0  0
    3.5014   -4.3441    0.0084 H   0  0  0  0  0  0  0  0  0  0  0  0
    4.2232   -4.1620    1.6245 H   0  0  0  0  0  0  0  0  0  0  0  0
    5.2341   -4.6675    0.2489 H   0  0  0  0  0  0  0  0  0  0  0  0
    4.6710   -1.2675   -3.7580 H   0  0  0  0  0  0  0  0  0  0  0  0
    6.3696   -1.7283   -3.5610 H   0  0  0  0  0  0  0  0  0  0  0  0
    4.8772    3.7271   -2.2717 H   0  0  0  0  0  0  0  0  0  0  0  0
  1  2  1  0
  1 21  1  0
  1 22  1  0
  1 23  1  0
  2  3  1  0
  3  4  2  0
  3 20  1  0
  4  5  1  0
  4 24  1  0
  5  6  2  0
  5 25  1  0
  6  7  1  0
  6 26  1  0
  7  8  1  0
  7 20  2  0
  8  9  1  0
  8 27  1  0
  8 28  1  0
  9 10  1  6
  9 11  1  0
  9 19  1  0
 10 29  1  0
 11 12  1  0
 11 30  1  0
 11 31  1  0
 12 13  1  0
 12 32  1  0
 12 33  1  0
 13 14  1  0
 13 34  1  0
 13 35  1  0
 14 15  1  0
 14 19  1  0
 14 36  1  6
 15 16  1  0
 15 37  1  0
 15 38  1  0
 16 17  1  0
 16 18  1  0
 16 39  1  1
 17 40  1  0
 17 41  1  0
 17 42  1  0
 18 43  1  0
 18 44  1  0
 18 45  1  0
 19 46  1  0
 19 47  1  0
 20 48  1  0
M  END

