
     RDKit          3D

 57 59  0  0  0  0  0  0  0  0999 V2000
    6.3521   -1.4495    0.0026 C   0  0  0  0  0  0  0  0  0  0  0  0
    4.9409   -1.0907   -0.4636 C   0  0  0  0  0  0  0  0  0  0  0  0
    4.8575    0.2035   -1.2903 C   0  0  1  0  0  0  0  0  0  0  0  0
    3.4459    0.4017   -1.8731 C   0  0  0  0  0  0  0  0  0  0  0  0
    5.2176    1.4175   -0.4144 C   0  0  0  0  0  0  0  0  0  0  0  0
    4.9484    1.4086    0.7797 O   0  0  0  0  0  0  0  0  0  0  0  0
    5.8205    2.5083   -1.0036 N   0  0  0  0  0  0  0  0  0  0  0  0
    6.0932    2.7029   -2.4221 C   0  0  0  0  0  0  0  0  0  0  0  0
    5.3586    3.9401   -2.9570 C   0  0  0  0  0  0  0  0  0  0  0  0
    5.6619    5.1844   -2.1155 C   0  0  0  0  0  0  0  0  0  0  0  0
    5.4092    4.9182   -0.6151 C   0  0  2  0  0  0  0  0  0  0  0  0
    5.8616    6.1121    0.2315 C   0  0  0  0  0  0  0  0  0  0  0  0
    7.0078    6.1579    0.6583 O   0  0  0  0  0  0  0  0  0  0  0  0
    4.9623    7.1282    0.4782 N   0  0  0  0  0  0  0  0  0  0  0  0
    5.3734    8.2483    1.3228 C   0  0  0  0  0  0  0  0  0  0  0  0
    5.1813    9.5838    0.6000 C   0  0  0  0  0  0  0  0  0  0  0  0
    3.7507    9.7291    0.0690 C   0  0  0  0  0  0  0  0  0  0  0  0
    3.3538    8.5184   -0.7926 C   0  0  2  0  0  0  0  0  0  0  0  0
    1.9012    8.6450   -1.2768 C   0  0  0  0  0  0  0  0  0  0  0  0
    1.5569    7.7704   -2.3886 N   0  0  0  0  0  0  0  0  0  0  0  0
    1.2793    8.1008   -3.6739 C   0  0  0  0  0  0  0  0  0  0  0  0
    1.0184    7.0185   -4.3814 N   0  0  0  0  0  0  0  0  0  0  0  0
    1.1521    6.0242   -3.4666 C   0  0  0  0  0  0  0  0  0  0  0  0
    1.4756    6.4308   -2.2470 N   0  0  0  0  0  0  0  0  0  0  0  0
    3.5943    7.2107   -0.0087 C   0  0  0  0  0  0  0  0  0  0  0  0
    6.1743    3.6568   -0.1722 C   0  0  0  0  0  0  0  0  0  0  0  0
    6.3552   -2.4022    0.5560 H   0  0  0  0  0  0  0  0  0  0  0  0
    6.7555   -0.6765    0.6748 H   0  0  0  0  0  0  0  0  0  0  0  0
    7.0458   -1.5598   -0.8488 H   0  0  0  0  0  0  0  0  0  0  0  0
    4.2801   -0.9826    0.4108 H   0  0  0  0  0  0  0  0  0  0  0  0
    4.5334   -1.9124   -1.0783 H   0  0  0  0  0  0  0  0  0  0  0  0
    5.5738    0.1135   -2.1232 H   0  0  0  0  0  0  0  0  0  0  0  0
    2.7103    0.5035   -1.0595 H   0  0  0  0  0  0  0  0  0  0  0  0
    3.1540   -0.4626   -2.4907 H   0  0  0  0  0  0  0  0  0  0  0  0
    3.3766    1.3038   -2.5015 H   0  0  0  0  0  0  0  0  0  0  0  0
    5.8049    1.8149   -2.9946 H   0  0  0  0  0  0  0  0  0  0  0  0
    7.1837    2.8381   -2.5618 H   0  0  0  0  0  0  0  0  0  0  0  0
    4.2720    3.7453   -2.9467 H   0  0  0  0  0  0  0  0  0  0  0  0
    5.6454    4.1098   -4.0084 H   0  0  0  0  0  0  0  0  0  0  0  0
    5.0577    6.0359   -2.4690 H   0  0  0  0  0  0  0  0  0  0  0  0
    6.7207    5.4728   -2.2412 H   0  0  0  0  0  0  0  0  0  0  0  0
    4.3369    4.7166   -0.4686 H   0  0  0  0  0  0  0  0  0  0  0  0
    6.4206    8.0839    1.6019 H   0  0  0  0  0  0  0  0  0  0  0  0
    4.7657    8.2368    2.2490 H   0  0  0  0  0  0  0  0  0  0  0  0
    5.8958    9.6437   -0.2392 H   0  0  0  0  0  0  0  0  0  0  0  0
    5.4224   10.4121    1.2863 H   0  0  0  0  0  0  0  0  0  0  0  0
    3.6470   10.6615   -0.5119 H   0  0  0  0  0  0  0  0  0  0  0  0
    3.0484    9.8100    0.9206 H   0  0  0  0  0  0  0  0  0  0  0  0
    4.0053    8.5023   -1.6854 H   0  0  0  0  0  0  0  0  0  0  0  0
    1.7150    9.6730   -1.6225 H   0  0  0  0  0  0  0  0  0  0  0  0
    1.1993    8.4441   -0.4504 H   0  0  0  0  0  0  0  0  0  0  0  0
    1.2763    9.1306   -4.0322 H   0  0  0  0  0  0  0  0  0  0  0  0
    1.0026    4.9693   -3.6975 H   0  0  0  0  0  0  0  0  0  0  0  0
    3.3441    6.3515   -0.6362 H   0  0  0  0  0  0  0  0  0  0  0  0
    2.8955    7.1860    0.8525 H   0  0  0  0  0  0  0  0  0  0  0  0
    5.9442    3.3998    0.8674 H   0  0  0  0  0  0  0  0  0  0  0  0
    7.2568    3.8519   -0.2470 H   0  0  0  0  0  0  0  0  0  0  0  0
  1  2  1  0
  1 27  1  0
  1 28  1  0
  1 29  1  0
  2  3  1  0
  2 30  1  0
  2 31  1  0
  3  4  1  0
  3  5  1  0
  3 32  1  6
  4 33  1  0
  4 34  1  0
  4 35  1  0
  5  6  2  0
  5  7  1  0
  7  8  1  0
  7 26  1  0
  8  9  1  0
  8 36  1  0
  8 37  1  0
  9 10  1  0
  9 38  1  0
  9 39  1  0
 10 11  1  0
 10 40  1  0
 10 41  1  0
 11 12  1  0
 11 26  1  0
 11 42  1  6
 12 13  2  0
 12 14  1  0
 14 15  1  0
 14 25  1  0
 15 16  1  0
 15 43  1  0
 15 44  1  0
 16 17  1  0
 16 45  1  0
 16 46  1  0
 17 18  1  0
 17 47  1  0
 17 48  1  0
 18 19  1  0
 18 25  1  0
 18 49  1  6
 19 20  1  0
 19 50  1  0
 19 51  1  0
 20 21  1  0
 20 24  1  0
 21 22  2  0
 21 52  1  0
 22 23  1  0
 23 24  2  0
 23 53  1  0
 25 54  1  0
 25 55  1  0
 26 56  1  0
 26 57  1  0
M  END

