
     RDKit          3D

 33 34  0  0  0  0  0  0  0  0999 V2000
    6.7041    2.7626    1.7409 O   0  0  0  0  0  0  0  0  0  0  0  0
    5.5001    2.7325    1.7168 C   0  0  0  0  0  0  0  0  0  0  0  0
    4.7624    3.3288    2.6888 O   0  0  0  0  0  0  0  0  0  0  0  0
    4.7638    2.0939    0.7413 N   0  0  0  0  0  0  0  0  0  0  0  0
    5.4299    1.4440   -0.3731 C   0  0  0  0  0  0  0  0  0  0  0  0
    5.8973    2.4259   -1.4474 C   0  0  0  0  0  0  0  0  0  0  0  0
    6.4334    1.6530   -2.5037 O   0  0  0  0  0  0  0  0  0  0  0  0
    6.9640    2.2551   -3.5992 C   0  0  0  0  0  0  0  0  0  0  0  0
    7.0480    3.6622   -3.7442 C   0  0  0  0  0  0  0  0  0  0  0  0
    7.6145    4.2039   -4.9198 C   0  0  0  0  0  0  0  0  0  0  0  0
    8.0869    3.3881   -5.9285 C   0  0  0  0  0  0  0  0  0  0  0  0
    8.0095    1.9480   -5.7972 C   0  0  0  0  0  0  0  0  0  0  0  0
    8.4842    1.1283   -6.8103 C   0  0  0  0  0  0  0  0  0  0  0  0
    8.9177    0.3943   -7.7342 C   0  0  0  0  0  0  0  0  0  0  0  0
    9.3870   -0.4391   -8.7346 C   0  0  0  0  0  0  0  0  0  0  0  0
    9.9886    0.0132   -9.9771 C   0  0  0  0  0  0  0  0  0  0  0  0
   10.3690   -1.0044  -10.7951 C   0  0  0  0  0  0  0  0  0  0  0  0
   10.0157   -2.5763  -10.0987 S   0  0  0  0  0  0  0  0  0  0  0  0
    9.3458   -1.8669   -8.6852 C   0  0  0  0  0  0  0  0  0  0  0  0
    7.4319    1.4066   -4.5993 C   0  0  0  0  0  0  0  0  0  0  0  0
    3.8349    3.0581    2.6472 H   0  0  0  0  0  0  0  0  0  0  0  0
    3.7821    2.3212    0.6312 H   0  0  0  0  0  0  0  0  0  0  0  0
    4.7428    0.7100   -0.8215 H   0  0  0  0  0  0  0  0  0  0  0  0
    6.3010    0.8964    0.0134 H   0  0  0  0  0  0  0  0  0  0  0  0
    6.6575    3.1023   -1.0202 H   0  0  0  0  0  0  0  0  0  0  0  0
    5.0472    3.0381   -1.8062 H   0  0  0  0  0  0  0  0  0  0  0  0
    6.6906    4.3299   -2.9611 H   0  0  0  0  0  0  0  0  0  0  0  0
    7.6789    5.2898   -5.0258 H   0  0  0  0  0  0  0  0  0  0  0  0
    8.5249    3.8099   -6.8352 H   0  0  0  0  0  0  0  0  0  0  0  0
   10.1174    1.0693  -10.2180 H   0  0  0  0  0  0  0  0  0  0  0  0
   10.8405   -0.9416  -11.7750 H   0  0  0  0  0  0  0  0  0  0  0  0
    8.9523   -2.4808   -7.8775 H   0  0  0  0  0  0  0  0  0  0  0  0
    7.3558    0.3279   -4.4600 H   0  0  0  0  0  0  0  0  0  0  0  0
  1  2  2  0
  2  3  1  0
  2  4  1  0
  3 21  1  0
  4  5  1  0
  4 22  1  0
  5  6  1  0
  5 23  1  0
  5 24  1  0
  6  7  1  0
  6 25  1  0
  6 26  1  0
  7  8  1  0
  8  9  2  0
  8 20  1  0
  9 10  1  0
  9 27  1  0
 10 11  2  0
 10 28  1  0
 11 12  1  0
 11 29  1  0
 12 13  1  0
 12 20  2  0
 13 14  3  0
 14 15  1  0
 15 16  1  0
 15 19  2  0
 16 17  2  0
 16 30  1  0
 17 18  1  0
 17 31  1  0
 18 19  1  0
 19 32  1  0
 20 33  1  0
M  END

