
     RDKit          3D

108117  0  0  0  0  0  0  0  0999 V2000
    1.1672    0.3472   -0.7931 C   0  0  0  0  0  0  0  0  0  0  0  0
    2.6233    0.1288   -0.3783 C   0  0  0  0  0  0  0  0  0  0  0  0
    3.0090    0.6505    1.0413 C   0  0  2  0  0  0  0  0  0  0  0  0
    4.4977    0.3092    1.3631 C   0  0  0  0  0  0  0  0  0  0  0  0
    5.0025    0.7692    2.7318 C   0  0  0  0  0  0  0  0  0  0  0  0
    2.1240   -0.0268    2.0746 C   0  0  0  0  0  0  0  0  0  0  0  0
    2.0571   -1.3890    2.3345 C   0  0  0  0  0  0  0  0  0  0  0  0
    1.2098   -1.8748    3.3550 C   0  0  0  0  0  0  0  0  0  0  0  0
    1.1356   -3.2678    3.6430 C   0  0  0  0  0  0  0  0  0  0  0  0
    1.0801   -4.4631    3.8914 C   0  0  0  0  0  0  0  0  0  0  0  0
    1.0083   -5.8391    4.1911 C   0  0  0  0  0  0  0  0  0  0  0  0
    1.6889   -6.8949    3.6019 C   0  0  0  0  0  0  0  0  0  0  0  0
    1.3639   -8.1561    4.1703 C   0  0  0  0  0  0  0  0  0  0  0  0
    0.4415   -8.0614    5.1857 C   0  0  0  0  0  0  0  0  0  0  0  0
   -0.0458   -6.4295    5.4652 S   0  0  0  0  0  0  0  0  0  0  0  0
    0.4490   -0.9407    4.0915 C   0  0  0  0  0  0  0  0  0  0  0  0
    0.5190    0.4235    3.8192 C   0  0  0  0  0  0  0  0  0  0  0  0
    1.3539    0.9083    2.7948 C   0  0  0  0  0  0  0  0  0  0  0  0
    1.6637    2.2645    2.2721 C   0  0  0  0  0  0  0  0  0  0  0  0
    2.6571    2.1319    1.2555 C   0  0  0  0  0  0  0  0  0  0  0  0
    3.1614    3.2800    0.6152 C   0  0  0  0  0  0  0  0  0  0  0  0
    2.6831    4.5751    0.9855 C   0  0  0  0  0  0  0  0  0  0  0  0
    1.6802    4.7015    1.9660 C   0  0  0  0  0  0  0  0  0  0  0  0
    1.1590    3.5355    2.6004 C   0  0  0  0  0  0  0  0  0  0  0  0
    0.0674    3.9066    3.6140 C   0  0  1  0  0  0  0  0  0  0  0  0
   -1.3174    3.2649    3.3079 C   0  0  0  0  0  0  0  0  0  0  0  0
   -1.8220    3.4636    1.8764 C   0  0  0  0  0  0  0  0  0  0  0  0
    0.6092    3.6028    5.0577 C   0  0  0  0  0  0  0  0  0  0  0  0
   -0.3806    3.6890    6.2214 C   0  0  0  0  0  0  0  0  0  0  0  0
   -0.0190    5.4135    3.4282 C   0  0  0  0  0  0  0  0  0  0  0  0
   -0.9159    6.2817    4.0390 C   0  0  0  0  0  0  0  0  0  0  0  0
   -0.8419    7.6713    3.7939 C   0  0  0  0  0  0  0  0  0  0  0  0
   -1.7638    8.5694    4.4043 C   0  0  0  0  0  0  0  0  0  0  0  0
   -2.5641    9.3335    4.9233 C   0  0  0  0  0  0  0  0  0  0  0  0
   -3.4853   10.2248    5.5109 C   0  0  0  0  0  0  0  0  0  0  0  0
   -4.5363    9.9465    6.3727 C   0  0  0  0  0  0  0  0  0  0  0  0
   -5.2623   11.1047    6.7613 C   0  0  0  0  0  0  0  0  0  0  0  0
   -4.7670   12.2577    6.1993 C   0  0  0  0  0  0  0  0  0  0  0  0
   -3.4051   11.9483    5.1851 S   0  0  0  0  0  0  0  0  0  0  0  0
    0.1646    8.1430    2.9252 C   0  0  0  0  0  0  0  0  0  0  0  0
    1.0422    7.2634    2.2958 C   0  0  0  0  0  0  0  0  0  0  0  0
    0.9550    5.8774    2.5162 C   0  0  0  0  0  0  0  0  0  0  0  0
    3.4073    5.6657    0.1805 C   0  0  1  0  0  0  0  0  0  0  0  0
    2.4620    6.4931   -0.7447 C   0  0  0  0  0  0  0  0  0  0  0  0
    1.5723    5.6785   -1.6855 C   0  0  0  0  0  0  0  0  0  0  0  0
    4.2616    6.6157    1.0778 C   0  0  0  0  0  0  0  0  0  0  0  0
    5.2794    5.9288    1.9901 C   0  0  0  0  0  0  0  0  0  0  0  0
    4.3352    4.8382   -0.6912 C   0  0  0  0  0  0  0  0  0  0  0  0
    5.2345    5.3272   -1.6293 C   0  0  0  0  0  0  0  0  0  0  0  0
    6.0303    4.4345   -2.3806 C   0  0  0  0  0  0  0  0  0  0  0  0
    6.9622    4.9161   -3.3441 C   0  0  0  0  0  0  0  0  0  0  0  0
    7.7635    5.3312   -4.1683 C   0  0  0  0  0  0  0  0  0  0  0  0
    8.6935    5.7936   -5.1220 C   0  0  0  0  0  0  0  0  0  0  0  0
    8.9973    7.0987   -5.4816 C   0  0  0  0  0  0  0  0  0  0  0  0
    9.9973    7.1829   -6.4878 C   0  0  0  0  0  0  0  0  0  0  0  0
   10.4520    5.9498   -6.8920 C   0  0  0  0  0  0  0  0  0  0  0  0
    9.6665    4.6643   -6.0499 S   0  0  0  0  0  0  0  0  0  0  0  0
    5.8755    3.0500   -2.1511 C   0  0  0  0  0  0  0  0  0  0  0  0
    4.9720    2.5712   -1.2055 C   0  0  0  0  0  0  0  0  0  0  0  0
    4.1853    3.4580   -0.4484 C   0  0  0  0  0  0  0  0  0  0  0  0
    0.9924   -0.0616   -1.8010 H   0  0  0  0  0  0  0  0  0  0  0  0
    0.9110    1.4179   -0.8213 H   0  0  0  0  0  0  0  0  0  0  0  0
    0.4642   -0.1495   -0.1068 H   0  0  0  0  0  0  0  0  0  0  0  0
    3.2742    0.5914   -1.1318 H   0  0  0  0  0  0  0  0  0  0  0  0
    2.8552   -0.9502   -0.4060 H   0  0  0  0  0  0  0  0  0  0  0  0
    5.1530    0.7284    0.5889 H   0  0  0  0  0  0  0  0  0  0  0  0
    4.6056   -0.7859    1.2808 H   0  0  0  0  0  0  0  0  0  0  0  0
    4.9776    1.8661    2.8256 H   0  0  0  0  0  0  0  0  0  0  0  0
    6.0456    0.4481    2.8809 H   0  0  0  0  0  0  0  0  0  0  0  0
    4.4044    0.3472    3.5543 H   0  0  0  0  0  0  0  0  0  0  0  0
    2.6596   -2.0990    1.7641 H   0  0  0  0  0  0  0  0  0  0  0  0
    2.3978   -6.7487    2.7865 H   0  0  0  0  0  0  0  0  0  0  0  0
    1.7969   -9.1017    3.8406 H   0  0  0  0  0  0  0  0  0  0  0  0
    0.0210   -8.8667    5.7867 H   0  0  0  0  0  0  0  0  0  0  0  0
   -0.2020   -1.2985    4.8915 H   0  0  0  0  0  0  0  0  0  0  0  0
   -0.0807    1.0890    4.4314 H   0  0  0  0  0  0  0  0  0  0  0  0
   -2.0497    3.6951    4.0103 H   0  0  0  0  0  0  0  0  0  0  0  0
   -1.2971    2.1896    3.5257 H   0  0  0  0  0  0  0  0  0  0  0  0
   -1.9021    4.5300    1.6132 H   0  0  0  0  0  0  0  0  0  0  0  0
   -2.8218    3.0164    1.7582 H   0  0  0  0  0  0  0  0  0  0  0  0
   -1.1563    2.9850    1.1415 H   0  0  0  0  0  0  0  0  0  0  0  0
    1.4428    4.3013    5.2376 H   0  0  0  0  0  0  0  0  0  0  0  0
    1.0678    2.6047    5.0617 H   0  0  0  0  0  0  0  0  0  0  0  0
   -0.8191    4.6921    6.3294 H   0  0  0  0  0  0  0  0  0  0  0  0
    0.1376    3.4605    7.1665 H   0  0  0  0  0  0  0  0  0  0  0  0
   -1.2072    2.9677    6.1223 H   0  0  0  0  0  0  0  0  0  0  0  0
   -1.6957    5.9086    4.7039 H   0  0  0  0  0  0  0  0  0  0  0  0
   -4.7650    8.9335    6.7049 H   0  0  0  0  0  0  0  0  0  0  0  0
   -6.1217   11.0870    7.4333 H   0  0  0  0  0  0  0  0  0  0  0  0
   -5.1313   13.2763    6.3275 H   0  0  0  0  0  0  0  0  0  0  0  0
    0.2454    9.2150    2.7352 H   0  0  0  0  0  0  0  0  0  0  0  0
    1.7861    7.6890    1.6310 H   0  0  0  0  0  0  0  0  0  0  0  0
    3.0983    7.1722   -1.3378 H   0  0  0  0  0  0  0  0  0  0  0  0
    1.8220    7.1448   -0.1369 H   0  0  0  0  0  0  0  0  0  0  0  0
    2.1617    5.0387   -2.3605 H   0  0  0  0  0  0  0  0  0  0  0  0
    0.9646    6.3506   -2.3118 H   0  0  0  0  0  0  0  0  0  0  0  0
    0.8789    5.0302   -1.1273 H   0  0  0  0  0  0  0  0  0  0  0  0
    3.5975    7.2330    1.6973 H   0  0  0  0  0  0  0  0  0  0  0  0
    4.7846    7.3201    0.4078 H   0  0  0  0  0  0  0  0  0  0  0  0
    4.7879    5.2518    2.7063 H   0  0  0  0  0  0  0  0  0  0  0  0
    5.8373    6.6791    2.5726 H   0  0  0  0  0  0  0  0  0  0  0  0
    6.0128    5.3396    1.4183 H   0  0  0  0  0  0  0  0  0  0  0  0
    5.3384    6.4008   -1.7992 H   0  0  0  0  0  0  0  0  0  0  0  0
    8.5062    7.9584   -5.0249 H   0  0  0  0  0  0  0  0  0  0  0  0
   10.3684    8.1227   -6.8995 H   0  0  0  0  0  0  0  0  0  0  0  0
   11.2097    5.7274   -7.6424 H   0  0  0  0  0  0  0  0  0  0  0  0
    6.4777    2.3448   -2.7273 H   0  0  0  0  0  0  0  0  0  0  0  0
    4.9004    1.4962   -1.0810 H   0  0  0  0  0  0  0  0  0  0  0  0
  1  2  1  0
  1 61  1  0
  1 62  1  0
  1 63  1  0
  3  2  1  6
  2 64  1  0
  2 65  1  0
  3  4  1  0
  3  6  1  0
  3 20  1  0
  4  5  1  0
  4 66  1  0
  4 67  1  0
  5 68  1  0
  5 69  1  0
  5 70  1  0
  6  7  2  0
  6 18  1  0
  7  8  1  0
  7 71  1  0
  8  9  1  0
  8 16  2  0
  9 10  3  0
 10 11  1  0
 11 12  2  0
 11 15  1  0
 12 13  1  0
 12 72  1  0
 13 14  2  0
 13 73  1  0
 14 15  1  0
 14 74  1  0
 16 17  1  0
 16 75  1  0
 17 18  2  0
 17 76  1  0
 18 19  1  0
 19 20  2  0
 19 24  1  0
 20 21  1  0
 21 22  2  0
 21 60  1  0
 22 23  1  0
 22 43  1  0
 23 24  2  0
 23 42  1  0
 24 25  1  0
 25 26  1  6
 25 28  1  0
 25 30  1  0
 26 27  1  0
 26 77  1  0
 26 78  1  0
 27 79  1  0
 27 80  1  0
 27 81  1  0
 28 29  1  0
 28 82  1  0
 28 83  1  0
 29 84  1  0
 29 85  1  0
 29 86  1  0
 30 31  1  0
 30 42  2  0
 31 32  2  0
 31 87  1  0
 32 33  1  0
 32 40  1  0
 33 34  3  0
 34 35  1  0
 35 36  2  0
 35 39  1  0
 36 37  1  0
 36 88  1  0
 37 38  2  0
 37 89  1  0
 38 39  1  0
 38 90  1  0
 40 41  2  0
 40 91  1  0
 41 42  1  0
 41 92  1  0
 43 44  1  6
 43 46  1  0
 43 48  1  0
 44 45  1  0
 44 93  1  0
 44 94  1  0
 45 95  1  0
 45 96  1  0
 45 97  1  0
 46 47  1  0
 46 98  1  0
 46 99  1  0
 47100  1  0
 47101  1  0
 47102  1  0
 48 49  1  0
 48 60  2  0
 49 50  2  0
 49103  1  0
 50 51  1  0
 50 58  1  0
 51 52  3  0
 52 53  1  0
 53 54  2  0
 53 57  1  0
 54 55  1  0
 54104  1  0
 55 56  2  0
 55105  1  0
 56 57  1  0
 56106  1  0
 58 59  2  0
 58107  1  0
 59 60  1  0
 59108  1  0
M  END

