
     RDKit          3D

 35 35  0  0  0  0  0  0  0  0999 V2000
    0.9354    1.9413   -1.0588 C   0  0  0  0  0  0  0  0  0  0  0  0
    2.4633    1.9631   -0.9873 C   0  0  0  0  0  0  0  0  0  0  0  0
    3.0526    1.5209    0.3657 C   0  0  1  0  0  0  0  0  0  0  0  0
    2.7222    0.0712    0.7372 C   0  0  0  0  0  0  0  0  0  0  0  0
    4.4990    1.7307    0.3772 N   0  0  0  0  0  0  0  0  0  0  0  0
    5.1293    2.6148    1.2018 C   0  0  0  0  0  0  0  0  0  0  0  0
    4.5416    3.3315    1.9981 O   0  0  0  0  0  0  0  0  0  0  0  0
    6.6535    2.6425    1.0855 C   0  0  0  0  0  0  0  0  0  0  0  0
    7.1946    4.0702    1.2609 C   0  0  0  0  0  0  0  0  0  0  0  0
    8.6397    4.1587    1.3753 N   0  0  0  0  0  0  0  0  0  0  0  0
    9.4974    3.9824    0.3296 C   0  0  0  0  0  0  0  0  0  0  0  0
    8.9123    3.9372   -0.8680 O   0  0  0  0  0  0  0  0  0  0  0  0
   10.8690    3.8539    0.5062 C   0  0  0  0  0  0  0  0  0  0  0  0
   11.9703    3.6866   -0.3699 C   0  0  0  0  0  0  0  0  0  0  0  0
   13.1110    3.6183    0.4610 C   0  0  0  0  0  0  0  0  0  0  0  0
   12.6898    3.7408    1.7647 C   0  0  0  0  0  0  0  0  0  0  0  0
   11.3255    3.8863    1.8205 O   0  0  0  0  0  0  0  0  0  0  0  0
    0.5829    2.3532   -2.0174 H   0  0  0  0  0  0  0  0  0  0  0  0
    0.4900    2.5488   -0.2534 H   0  0  0  0  0  0  0  0  0  0  0  0
    0.5278    0.9218   -0.9725 H   0  0  0  0  0  0  0  0  0  0  0  0
    2.8248    2.9853   -1.1886 H   0  0  0  0  0  0  0  0  0  0  0  0
    2.8832    1.3250   -1.7881 H   0  0  0  0  0  0  0  0  0  0  0  0
    2.6675    2.1902    1.1505 H   0  0  0  0  0  0  0  0  0  0  0  0
    3.1116   -0.6333   -0.0187 H   0  0  0  0  0  0  0  0  0  0  0  0
    1.6357   -0.0863    0.8104 H   0  0  0  0  0  0  0  0  0  0  0  0
    3.1671   -0.1900    1.7093 H   0  0  0  0  0  0  0  0  0  0  0  0
    5.0628    1.1846   -0.2648 H   0  0  0  0  0  0  0  0  0  0  0  0
    6.9984    2.2178    0.1292 H   0  0  0  0  0  0  0  0  0  0  0  0
    7.0556    2.0031    1.8913 H   0  0  0  0  0  0  0  0  0  0  0  0
    6.7486    4.5060    2.1650 H   0  0  0  0  0  0  0  0  0  0  0  0
    6.8711    4.6959    0.4132 H   0  0  0  0  0  0  0  0  0  0  0  0
    9.0723    4.0344    2.2842 H   0  0  0  0  0  0  0  0  0  0  0  0
   11.9330    3.6286   -1.4539 H   0  0  0  0  0  0  0  0  0  0  0  0
   14.1436    3.4930    0.1393 H   0  0  0  0  0  0  0  0  0  0  0  0
   13.2081    3.7506    2.7188 H   0  0  0  0  0  0  0  0  0  0  0  0
  1  2  1  0
  1 18  1  0
  1 19  1  0
  1 20  1  0
  2  3  1  0
  2 21  1  0
  2 22  1  0
  3  4  1  0
  3  5  1  0
  3 23  1  1
  4 24  1  0
  4 25  1  0
  4 26  1  0
  5  6  1  0
  5 27  1  0
  6  7  2  0
  6  8  1  0
  8  9  1  0
  8 28  1  0
  8 29  1  0
  9 10  1  0
  9 30  1  0
  9 31  1  0
 10 11  1  0
 10 32  1  0
 11 12  2  0
 11 13  1  0
 13 14  2  0
 13 17  1  0
 14 15  1  0
 14 33  1  0
 15 16  2  0
 15 34  1  0
 16 17  1  0
 16 35  1  0
M  END

