
     RDKit          3D

 51 52  0  0  0  0  0  0  0  0999 V2000
    8.6878    0.9005   -0.6427 C   0  0  0  0  0  0  0  0  0  0  0  0
    7.1762    0.7317   -0.4704 C   0  0  1  0  0  0  0  0  0  0  0  0
    6.5138    0.0903   -1.6945 C   0  0  0  0  0  0  0  0  0  0  0  0
    6.9231   -0.0255    0.7684 N   0  0  0  0  0  0  0  0  0  0  0  0
    5.4828    0.1355    1.6142 S   0  0  1  0  0  0  0  0  0  0  0  0
    4.4697    0.7711    0.7638 O   0  0  0  0  0  0  0  0  0  0  0  0
    5.2625   -1.1670    2.2470 O   0  0  0  0  0  0  0  0  0  0  0  0
    5.8834    1.3168    2.9117 C   0  0  0  0  0  0  0  0  0  0  0  0
    5.4169    2.6302    2.8185 C   0  0  0  0  0  0  0  0  0  0  0  0
    5.7273    3.5334    3.8355 C   0  0  0  0  0  0  0  0  0  0  0  0
    6.5038    3.1351    4.9335 C   0  0  0  0  0  0  0  0  0  0  0  0
    6.7799    4.1745    5.9942 C   0  0  0  0  0  0  0  0  0  0  0  0
    6.0830    5.1715    6.0959 O   0  0  0  0  0  0  0  0  0  0  0  0
    7.8636    3.8990    6.7942 N   0  0  0  0  0  0  0  0  0  0  0  0
    8.3315    4.6103    7.9177 C   0  0  0  0  0  0  0  0  0  0  0  0
    7.8868    5.9035    8.2379 C   0  0  0  0  0  0  0  0  0  0  0  0
    8.3774    6.5836    9.3475 C   0  0  0  0  0  0  0  0  0  0  0  0
    9.3516    6.0153   10.2023 C   0  0  0  0  0  0  0  0  0  0  0  0
    9.8523    6.6957   11.2967 N   0  0  0  0  0  0  0  0  0  0  0  0
    9.3391    8.0092   11.6261 C   0  0  0  0  0  0  0  0  0  0  0  0
   10.8084    6.0516   12.1726 C   0  0  0  0  0  0  0  0  0  0  0  0
    9.7858    4.7084    9.8843 C   0  0  0  0  0  0  0  0  0  0  0  0
    9.2880    4.0200    8.7766 C   0  0  0  0  0  0  0  0  0  0  0  0
    9.7531    2.6044    8.5434 C   0  0  1  0  0  0  0  0  0  0  0  0
   10.2691    2.4407    7.2928 F   0  0  0  0  0  0  0  0  0  0  0  0
   10.6981    2.2107    9.4034 F   0  0  0  0  0  0  0  0  0  0  0  0
    8.7374    1.7174    8.6331 F   0  0  0  0  0  0  0  0  0  0  0  0
    6.9359    1.7989    5.0224 C   0  0  0  0  0  0  0  0  0  0  0  0
    6.6258    0.8863    4.0155 C   0  0  0  0  0  0  0  0  0  0  0  0
    8.9111    1.5026   -1.5373 H   0  0  0  0  0  0  0  0  0  0  0  0
    9.1797   -0.0789   -0.7689 H   0  0  0  0  0  0  0  0  0  0  0  0
    9.1323    1.3944    0.2341 H   0  0  0  0  0  0  0  0  0  0  0  0
    6.7278    1.7261   -0.3133 H   0  0  0  0  0  0  0  0  0  0  0  0
    6.9243   -0.9183   -1.8758 H   0  0  0  0  0  0  0  0  0  0  0  0
    6.6946    0.6928   -2.5990 H   0  0  0  0  0  0  0  0  0  0  0  0
    5.4285    0.0068   -1.5430 H   0  0  0  0  0  0  0  0  0  0  0  0
    7.1799   -1.0126    0.7496 H   0  0  0  0  0  0  0  0  0  0  0  0
    4.8065    2.9256    1.9636 H   0  0  0  0  0  0  0  0  0  0  0  0
    5.3669    4.5631    3.8031 H   0  0  0  0  0  0  0  0  0  0  0  0
    8.4320    3.1137    6.5050 H   0  0  0  0  0  0  0  0  0  0  0  0
    7.1373    6.3672    7.6011 H   0  0  0  0  0  0  0  0  0  0  0  0
    7.9891    7.5825    9.5424 H   0  0  0  0  0  0  0  0  0  0  0  0
    9.4980    8.7338   10.8066 H   0  0  0  0  0  0  0  0  0  0  0  0
    9.8615    8.3925   12.5118 H   0  0  0  0  0  0  0  0  0  0  0  0
    8.2556    7.9962   11.8525 H   0  0  0  0  0  0  0  0  0  0  0  0
   10.3987    5.1420   12.6526 H   0  0  0  0  0  0  0  0  0  0  0  0
   11.0994    6.7476   12.9697 H   0  0  0  0  0  0  0  0  0  0  0  0
   11.7288    5.7572   11.6359 H   0  0  0  0  0  0  0  0  0  0  0  0
   10.5180    4.2030   10.5084 H   0  0  0  0  0  0  0  0  0  0  0  0
    7.4878    1.4465    5.8970 H   0  0  0  0  0  0  0  0  0  0  0  0
    6.9374   -0.1569    4.0910 H   0  0  0  0  0  0  0  0  0  0  0  0
  1  2  1  0
  1 30  1  0
  1 31  1  0
  1 32  1  0
  2  3  1  0
  2  4  1  0
  2 33  1  1
  3 34  1  0
  3 35  1  0
  3 36  1  0
  5  4  1  6
  4 37  1  0
  5  6  2  0
  5  7  2  0
  5  8  1  0
  8  9  2  0
  8 29  1  0
  9 10  1  0
  9 38  1  0
 10 11  2  0
 10 39  1  0
 11 12  1  0
 11 28  1  0
 12 13  2  0
 12 14  1  0
 14 15  1  0
 14 40  1  0
 15 16  2  0
 15 23  1  0
 16 17  1  0
 16 41  1  0
 17 18  2  0
 17 42  1  0
 18 19  1  0
 18 22  1  0
 19 20  1  0
 19 21  1  0
 20 43  1  0
 20 44  1  0
 20 45  1  0
 21 46  1  0
 21 47  1  0
 21 48  1  0
 22 23  2  0
 22 49  1  0
 23 24  1  0
 24 25  1  6
 24 26  1  0
 24 27  1  0
 28 29  2  0
 28 50  1  0
 29 51  1  0
M  END

