
     RDKit          3D

 47 48  0  0  0  0  0  0  0  0999 V2000
    1.0703   -0.0120    0.5299 C   0  0  0  0  0  0  0  0  0  0  0  0
    2.4393   -0.2047   -0.1236 C   0  0  0  0  0  0  0  0  0  0  0  0
    3.2450   -1.2422    0.5173 N   0  0  0  0  0  0  0  0  0  0  0  0
    2.7878   -2.6078    0.2804 C   0  0  0  0  0  0  0  0  0  0  0  0
    3.0649   -3.5600    1.4489 C   0  0  0  0  0  0  0  0  0  0  0  0
    2.5790   -4.9836    1.1660 C   0  0  0  0  0  0  0  0  0  0  0  0
    2.6744   -5.8695    2.3089 N   0  0  0  0  0  0  0  0  0  0  0  0
    2.0118   -7.1559    2.1401 C   0  0  0  0  0  0  0  0  0  0  0  0
    2.4374   -7.9561    3.3820 C   0  0  0  0  0  0  0  0  0  0  0  0
    3.8029   -7.3339    3.7840 C   0  0  0  0  0  0  0  0  0  0  0  0
    4.0188   -6.1927    2.7705 C   0  0  0  0  0  0  0  0  0  0  0  0
    4.6906   -1.0426    0.4293 C   0  0  0  0  0  0  0  0  0  0  0  0
    5.3144   -1.2049   -0.9545 C   0  0  0  0  0  0  0  0  0  0  0  0
    5.8423   -2.4398   -1.3701 C   0  0  0  0  0  0  0  0  0  0  0  0
    6.3693   -2.6055   -2.6538 C   0  0  0  0  0  0  0  0  0  0  0  0
    6.3935   -1.5303   -3.5435 C   0  0  0  0  0  0  0  0  0  0  0  0
    5.8939   -0.2804   -3.1439 C   0  0  0  0  0  0  0  0  0  0  0  0
    5.8842    0.9267   -4.0420 C   0  0  0  0  0  0  0  0  0  0  0  0
    5.1888    1.8886   -3.8468 O   0  0  0  0  0  0  0  0  0  0  0  0
    6.7174    0.8935   -5.1079 O   0  0  0  0  0  0  0  0  0  0  0  0
    5.3481   -0.1367   -1.8601 C   0  0  0  0  0  0  0  0  0  0  0  0
    0.5359    0.8253    0.0530 H   0  0  0  0  0  0  0  0  0  0  0  0
    1.1828    0.2084    1.6030 H   0  0  0  0  0  0  0  0  0  0  0  0
    0.4296   -0.9027    0.4341 H   0  0  0  0  0  0  0  0  0  0  0  0
    2.9948    0.7433   -0.0386 H   0  0  0  0  0  0  0  0  0  0  0  0
    2.3095   -0.3810   -1.2146 H   0  0  0  0  0  0  0  0  0  0  0  0
    3.2088   -3.0324   -0.6584 H   0  0  0  0  0  0  0  0  0  0  0  0
    1.6995   -2.5749    0.1198 H   0  0  0  0  0  0  0  0  0  0  0  0
    2.5645   -3.1783    2.3537 H   0  0  0  0  0  0  0  0  0  0  0  0
    4.1446   -3.5772    1.6737 H   0  0  0  0  0  0  0  0  0  0  0  0
    3.1318   -5.3971    0.2853 H   0  0  0  0  0  0  0  0  0  0  0  0
    1.5175   -4.9436    0.8634 H   0  0  0  0  0  0  0  0  0  0  0  0
    2.3552   -7.6740    1.2121 H   0  0  0  0  0  0  0  0  0  0  0  0
    0.9200   -7.0284    2.0541 H   0  0  0  0  0  0  0  0  0  0  0  0
    2.5045   -9.0336    3.1694 H   0  0  0  0  0  0  0  0  0  0  0  0
    1.7025   -7.8269    4.1906 H   0  0  0  0  0  0  0  0  0  0  0  0
    4.6276   -8.0615    3.7488 H   0  0  0  0  0  0  0  0  0  0  0  0
    3.7625   -6.9391    4.8100 H   0  0  0  0  0  0  0  0  0  0  0  0
    4.6627   -6.5423    1.9269 H   0  0  0  0  0  0  0  0  0  0  0  0
    4.5154   -5.3164    3.2155 H   0  0  0  0  0  0  0  0  0  0  0  0
    5.1811   -1.7462    1.1207 H   0  0  0  0  0  0  0  0  0  0  0  0
    4.9127   -0.0309    0.8059 H   0  0  0  0  0  0  0  0  0  0  0  0
    5.8472   -3.2844   -0.6752 H   0  0  0  0  0  0  0  0  0  0  0  0
    6.7606   -3.5778   -2.9632 H   0  0  0  0  0  0  0  0  0  0  0  0
    6.7807   -1.6880   -4.5548 H   0  0  0  0  0  0  0  0  0  0  0  0
    7.3024    0.1251   -5.0556 H   0  0  0  0  0  0  0  0  0  0  0  0
    4.9583    0.8449   -1.5835 H   0  0  0  0  0  0  0  0  0  0  0  0
  1  2  1  0
  1 22  1  0
  1 23  1  0
  1 24  1  0
  2  3  1  0
  2 25  1  0
  2 26  1  0
  3  4  1  0
  3 12  1  0
  4  5  1  0
  4 27  1  0
  4 28  1  0
  5  6  1  0
  5 29  1  0
  5 30  1  0
  6  7  1  0
  6 31  1  0
  6 32  1  0
  7  8  1  0
  7 11  1  0
  8  9  1  0
  8 33  1  0
  8 34  1  0
  9 10  1  0
  9 35  1  0
  9 36  1  0
 10 11  1  0
 10 37  1  0
 10 38  1  0
 11 39  1  0
 11 40  1  0
 12 13  1  0
 12 41  1  0
 12 42  1  0
 13 14  2  0
 13 21  1  0
 14 15  1  0
 14 43  1  0
 15 16  2  0
 15 44  1  0
 16 17  1  0
 16 45  1  0
 17 18  1  0
 17 21  2  0
 18 19  2  0
 18 20  1  0
 20 46  1  0
 21 47  1  0
M  END

