
     RDKit          3D

 25 27  0  0  0  0  0  0  0  0999 V2000
   -3.3155    0.3603   -0.0011 C   0  0  0  0  0  0  0  0  0  0  0  0
   -2.6776    1.5584   -0.3353 C   0  0  0  0  0  0  0  0  0  0  0  0
   -1.2831    1.6283   -0.3400 C   0  0  0  0  0  0  0  0  0  0  0  0
   -0.5101    0.5109    0.0062 C   0  0  0  0  0  0  0  0  0  0  0  0
   -1.1563   -0.7004    0.3468 C   0  0  0  0  0  0  0  0  0  0  0  0
   -2.5546   -0.7624    0.3313 C   0  0  0  0  0  0  0  0  0  0  0  0
   -0.4533   -1.7760    0.8060 O   0  0  0  0  0  0  0  0  0  0  0  0
    0.4002   -2.5144   -0.0675 C   0  0  0  0  0  0  0  0  0  0  0  0
    1.1767   -1.6432   -1.0616 C   0  0  0  0  0  0  0  0  0  0  0  0
    1.7492   -0.4068   -0.4478 C   0  0  0  0  0  0  0  0  0  0  0  0
    3.0477    0.0345   -0.2826 C   0  0  0  0  0  0  0  0  0  0  0  0
    2.9923    1.3306    0.3139 C   0  0  0  0  0  0  0  0  0  0  0  0
    1.6627    1.6445    0.4925 C   0  0  0  0  0  0  0  0  0  0  0  0
    0.9025    0.5834    0.0324 N   0  0  0  0  0  0  0  0  0  0  0  0
   -4.4064    0.2981    0.0009 H   0  0  0  0  0  0  0  0  0  0  0  0
   -3.2641    2.4403   -0.6034 H   0  0  0  0  0  0  0  0  0  0  0  0
   -0.7767    2.5538   -0.6209 H   0  0  0  0  0  0  0  0  0  0  0  0
   -3.0252   -1.7063    0.6145 H   0  0  0  0  0  0  0  0  0  0  0  0
   -0.1941   -3.2723   -0.6137 H   0  0  0  0  0  0  0  0  0  0  0  0
    1.0946   -3.0429    0.6024 H   0  0  0  0  0  0  0  0  0  0  0  0
    0.5122   -1.3701   -1.9017 H   0  0  0  0  0  0  0  0  0  0  0  0
    1.9882   -2.2481   -1.4940 H   0  0  0  0  0  0  0  0  0  0  0  0
    3.9416   -0.5163   -0.5711 H   0  0  0  0  0  0  0  0  0  0  0  0
    3.8363    1.9579    0.5947 H   0  0  0  0  0  0  0  0  0  0  0  0
    1.1891    2.5122    0.9449 H   0  0  0  0  0  0  0  0  0  0  0  0
  1  2  2  0
  1  6  1  0
  1 15  1  0
  2  3  1  0
  2 16  1  0
  3  4  2  0
  3 17  1  0
  4  5  1  0
  4 14  1  0
  5  6  2  0
  5  7  1  0
  6 18  1  0
  7  8  1  0
  8  9  1  0
  8 19  1  0
  8 20  1  0
  9 10  1  0
  9 21  1  0
  9 22  1  0
 10 11  2  0
 10 14  1  0
 11 12  1  0
 11 23  1  0
 12 13  2  0
 12 24  1  0
 13 14  1  0
 13 25  1  0
M  END

