
     RDKit          3D

 32 33  0  0  0  0  0  0  0  0999 V2000
    1.8921    1.1615   -0.3579 N   0  0  0  0  0  0  0  0  0  0  0  0
    2.0311    0.0217    0.3797 C   0  0  0  0  0  0  0  0  0  0  0  0
    1.3351   -0.9606    0.1418 O   0  0  0  0  0  0  0  0  0  0  0  0
    3.0460   -0.0156    1.4903 C   0  0  0  0  0  0  0  0  0  0  0  0
    3.0812   -1.2345    2.2162 C   0  0  0  0  0  0  0  0  0  0  0  0
    3.9300   -1.4872    3.2773 C   0  0  0  0  0  0  0  0  0  0  0  0
    4.8425   -0.4848    3.6931 C   0  0  0  0  0  0  0  0  0  0  0  0
    5.7458   -0.6346    4.7325 N   0  0  0  0  0  0  0  0  0  0  0  0
    5.9052   -1.6993    5.6180 C   0  0  0  0  0  0  0  0  0  0  0  0
    5.1760   -2.7092    5.6217 O   0  0  0  0  0  0  0  0  0  0  0  0
    7.0091   -1.5803    6.5898 C   0  0  0  0  0  0  0  0  0  0  0  0
    7.9984   -0.5488    6.6610 C   0  0  0  0  0  0  0  0  0  0  0  0
    9.0047   -0.5253    7.6336 C   0  0  0  0  0  0  0  0  0  0  0  0
    9.0904   -1.5422    8.5843 C   0  0  0  0  0  0  0  0  0  0  0  0
   10.3315   -1.5440    9.8060 Cl  0  0  0  0  0  0  0  0  0  0  0  0
    8.1320   -2.6057    8.5293 C   0  0  0  0  0  0  0  0  0  0  0  0
    8.1976   -3.6144    9.4327 N   0  0  0  0  0  0  0  0  0  0  0  0
    7.1180   -2.6132    7.5403 C   0  0  0  0  0  0  0  0  0  0  0  0
    4.8373    0.7449    2.9917 C   0  0  0  0  0  0  0  0  0  0  0  0
    3.9692    0.9646    1.9306 C   0  0  0  0  0  0  0  0  0  0  0  0
    4.1304    2.5691    1.1846 Cl  0  0  0  0  0  0  0  0  0  0  0  0
    1.1868    1.1426   -1.0832 H   0  0  0  0  0  0  0  0  0  0  0  0
    2.4275    2.0004   -0.1864 H   0  0  0  0  0  0  0  0  0  0  0  0
    2.3754   -1.9983    1.8854 H   0  0  0  0  0  0  0  0  0  0  0  0
    3.9107   -2.4360    3.8075 H   0  0  0  0  0  0  0  0  0  0  0  0
    6.3194    0.1819    4.8977 H   0  0  0  0  0  0  0  0  0  0  0  0
    8.0065    0.2607    5.9274 H   0  0  0  0  0  0  0  0  0  0  0  0
    9.7344    0.2856    7.6462 H   0  0  0  0  0  0  0  0  0  0  0  0
    8.9228   -3.6120   10.1449 H   0  0  0  0  0  0  0  0  0  0  0  0
    7.5286   -4.3762    9.4055 H   0  0  0  0  0  0  0  0  0  0  0  0
    6.3906   -3.4257    7.4882 H   0  0  0  0  0  0  0  0  0  0  0  0
    5.5246    1.5439    3.2798 H   0  0  0  0  0  0  0  0  0  0  0  0
  1  2  1  0
  1 22  1  0
  1 23  1  0
  2  3  2  0
  2  4  1  0
  4  5  2  0
  4 20  1  0
  5  6  1  0
  5 24  1  0
  6  7  2  0
  6 25  1  0
  7  8  1  0
  7 19  1  0
  8  9  1  0
  8 26  1  0
  9 10  2  0
  9 11  1  0
 11 12  2  0
 11 18  1  0
 12 13  1  0
 12 27  1  0
 13 14  2  0
 13 28  1  0
 14 15  1  0
 14 16  1  0
 16 17  1  0
 16 18  2  0
 17 29  1  0
 17 30  1  0
 18 31  1  0
 19 20  2  0
 19 32  1  0
 20 21  1  0
M  END

