
     RDKit          3D

 48 49  0  0  0  0  0  0  0  0999 V2000
    0.8238   -0.0060    0.0445 C   0  0  0  0  0  0  0  0  0  0  0  0
    2.3101    0.1577    0.0443 C   0  0  0  0  0  0  0  0  0  0  0  0
    3.0855    1.3058    0.0891 C   0  0  0  0  0  0  0  0  0  0  0  0
    4.4279    0.8349    0.0662 C   0  0  0  0  0  0  0  0  0  0  0  0
    5.6060    1.5565    0.0708 N   0  0  0  0  0  0  0  0  0  0  0  0
    5.7218    2.9385    0.1274 C   0  0  0  0  0  0  0  0  0  0  0  0
    5.1984    3.6959    1.6843 S   0  0  0  0  0  0  0  0  0  0  0  0
    6.9037    3.4377   -0.4197 N   0  0  0  0  0  0  0  0  0  0  0  0
    7.3947    3.0118   -1.7209 C   0  0  0  0  0  0  0  0  0  0  0  0
    8.8383    2.4800   -1.6889 C   0  0  0  0  0  0  0  0  0  0  0  0
    9.1352    1.4442   -0.5968 C   0  0  0  0  0  0  0  0  0  0  0  0
    8.2079    0.3132   -0.5381 N   0  0  0  0  0  0  0  0  0  0  0  0
    8.1748   -0.5016   -1.7437 C   0  0  0  0  0  0  0  0  0  0  0  0
    8.4216   -0.5040    0.6504 C   0  0  0  0  0  0  0  0  0  0  0  0
    4.4787   -0.4979    0.0167 N   0  0  0  0  0  0  0  0  0  0  0  0
    3.1791   -0.8963   -0.0102 N   0  0  0  0  0  0  0  0  0  0  0  0
    2.8701   -2.3064    0.0008 C   0  0  0  0  0  0  0  0  0  0  0  0
    2.7950   -2.9344    1.3847 C   0  0  0  0  0  0  0  0  0  0  0  0
    3.2743   -2.2698    2.5230 C   0  0  0  0  0  0  0  0  0  0  0  0
    3.2062   -2.8573    3.7885 C   0  0  0  0  0  0  0  0  0  0  0  0
    2.6567   -4.1328    3.9400 C   0  0  0  0  0  0  0  0  0  0  0  0
    2.1787   -4.8200    2.8224 C   0  0  0  0  0  0  0  0  0  0  0  0
    2.2540   -4.2189    1.5636 C   0  0  0  0  0  0  0  0  0  0  0  0
    1.6539   -5.1145    0.1734 Cl  0  0  0  0  0  0  0  0  0  0  0  0
    0.3408    0.9789    0.1021 H   0  0  0  0  0  0  0  0  0  0  0  0
    0.4747   -0.6043    0.9026 H   0  0  0  0  0  0  0  0  0  0  0  0
    0.4631   -0.5030   -0.8722 H   0  0  0  0  0  0  0  0  0  0  0  0
    2.7455    2.3362    0.1382 H   0  0  0  0  0  0  0  0  0  0  0  0
    6.4766    1.0126   -0.0992 H   0  0  0  0  0  0  0  0  0  0  0  0
    7.1436    4.3790   -0.1331 H   0  0  0  0  0  0  0  0  0  0  0  0
    7.3367    3.8414   -2.4516 H   0  0  0  0  0  0  0  0  0  0  0  0
    6.7157    2.2304   -2.0904 H   0  0  0  0  0  0  0  0  0  0  0  0
    9.5383    3.3190   -1.5290 H   0  0  0  0  0  0  0  0  0  0  0  0
    9.0801    2.0832   -2.6903 H   0  0  0  0  0  0  0  0  0  0  0  0
    9.0761    1.9519    0.3791 H   0  0  0  0  0  0  0  0  0  0  0  0
   10.1865    1.0953   -0.7141 H   0  0  0  0  0  0  0  0  0  0  0  0
    7.9339    0.1103   -2.6252 H   0  0  0  0  0  0  0  0  0  0  0  0
    7.3884   -1.2653   -1.6455 H   0  0  0  0  0  0  0  0  0  0  0  0
    9.1415   -1.0167   -1.9394 H   0  0  0  0  0  0  0  0  0  0  0  0
    8.3702    0.1254    1.5522 H   0  0  0  0  0  0  0  0  0  0  0  0
    9.4072   -1.0192    0.6442 H   0  0  0  0  0  0  0  0  0  0  0  0
    7.6291   -1.2644    0.7229 H   0  0  0  0  0  0  0  0  0  0  0  0
    3.6434   -2.8153   -0.5967 H   0  0  0  0  0  0  0  0  0  0  0  0
    1.9178   -2.4667   -0.5253 H   0  0  0  0  0  0  0  0  0  0  0  0
    3.7171   -1.2799    2.4017 H   0  0  0  0  0  0  0  0  0  0  0  0
    3.5868   -2.3155    4.6576 H   0  0  0  0  0  0  0  0  0  0  0  0
    2.5991   -4.5990    4.9266 H   0  0  0  0  0  0  0  0  0  0  0  0
    1.7467   -5.8179    2.9146 H   0  0  0  0  0  0  0  0  0  0  0  0
  1  2  1  0
  1 25  1  0
  1 26  1  0
  1 27  1  0
  2  3  2  0
  2 16  1  0
  3  4  1  0
  3 28  1  0
  4  5  1  0
  4 15  2  0
  5  6  1  0
  5 29  1  0
  6  7  2  0
  6  8  1  0
  8  9  1  0
  8 30  1  0
  9 10  1  0
  9 31  1  0
  9 32  1  0
 10 11  1  0
 10 33  1  0
 10 34  1  0
 11 12  1  0
 11 35  1  0
 11 36  1  0
 12 13  1  0
 12 14  1  0
 13 37  1  0
 13 38  1  0
 13 39  1  0
 14 40  1  0
 14 41  1  0
 14 42  1  0
 15 16  1  0
 16 17  1  0
 17 18  1  0
 17 43  1  0
 17 44  1  0
 18 19  2  0
 18 23  1  0
 19 20  1  0
 19 45  1  0
 20 21  2  0
 20 46  1  0
 21 22  1  0
 21 47  1  0
 22 23  2  0
 22 48  1  0
 23 24  1  0
M  END

