
     RDKit          3D

 35 38  0  0  0  0  0  0  0  0999 V2000
    2.9427    1.6325    0.8611 C   0  0  0  0  0  0  0  0  0  0  0  0
    2.4549    0.3397    0.5589 O   0  0  0  0  0  0  0  0  0  0  0  0
    2.8990   -0.7330    1.2425 C   0  0  0  0  0  0  0  0  0  0  0  0
    3.8883   -0.6675    2.2555 C   0  0  0  0  0  0  0  0  0  0  0  0
    4.2519   -1.8265    2.9195 C   0  0  0  0  0  0  0  0  0  0  0  0
    5.4695   -1.9388    4.2195 S   0  0  0  0  0  0  0  0  0  0  0  0
    5.1810   -3.6636    4.3466 C   0  0  0  0  0  0  0  0  0  0  0  0
    5.7526   -4.5384    5.1581 N   0  0  0  0  0  0  0  0  0  0  0  0
    5.2436   -5.7695    4.9341 C   0  0  0  0  0  0  0  0  0  0  0  0
    5.6236   -6.9523    5.6257 C   0  0  0  0  0  0  0  0  0  0  0  0
    5.0401   -8.2255    5.3367 C   0  0  0  0  0  0  0  0  0  0  0  0
    5.4361   -9.3583    6.0341 C   0  0  0  0  0  0  0  0  0  0  0  0
    6.4174   -9.2770    7.0366 C   0  0  0  0  0  0  0  0  0  0  0  0
    7.0024   -8.0300    7.3336 C   0  0  0  0  0  0  0  0  0  0  0  0
    6.6215   -6.8870    6.6497 C   0  0  0  0  0  0  0  0  0  0  0  0
    3.9649   -5.8332    3.6177 S   0  0  0  0  0  0  0  0  0  0  0  0
    4.1873   -4.1112    3.4230 C   0  0  0  0  0  0  0  0  0  0  0  0
    3.6531   -3.0932    2.6096 C   0  0  0  0  0  0  0  0  0  0  0  0
    2.6729   -3.1377    1.5819 C   0  0  0  0  0  0  0  0  0  0  0  0
    2.2996   -1.9857    0.9056 C   0  0  0  0  0  0  0  0  0  0  0  0
    1.3099   -2.0516   -0.0277 O   0  0  0  0  0  0  0  0  0  0  0  0
    1.6747   -1.8418   -1.3856 C   0  0  0  0  0  0  0  0  0  0  0  0
    2.4127    2.3258    0.1956 H   0  0  0  0  0  0  0  0  0  0  0  0
    4.0282    1.7124    0.6750 H   0  0  0  0  0  0  0  0  0  0  0  0
    2.7338    1.9073    1.9096 H   0  0  0  0  0  0  0  0  0  0  0  0
    4.3529    0.2838    2.5139 H   0  0  0  0  0  0  0  0  0  0  0  0
    4.2747   -8.3084    4.5599 H   0  0  0  0  0  0  0  0  0  0  0  0
    4.9779  -10.3229    5.7987 H   0  0  0  0  0  0  0  0  0  0  0  0
    6.7238  -10.1735    7.5810 H   0  0  0  0  0  0  0  0  0  0  0  0
    7.7663   -7.9616    8.1132 H   0  0  0  0  0  0  0  0  0  0  0  0
    7.0683   -5.9168    6.8729 H   0  0  0  0  0  0  0  0  0  0  0  0
    2.1872   -4.0772    1.3124 H   0  0  0  0  0  0  0  0  0  0  0  0
    0.7634   -1.9902   -1.9813 H   0  0  0  0  0  0  0  0  0  0  0  0
    2.4369   -2.5737   -1.7088 H   0  0  0  0  0  0  0  0  0  0  0  0
    2.0543   -0.8217   -1.5565 H   0  0  0  0  0  0  0  0  0  0  0  0
  1  2  1  0
  1 23  1  0
  1 24  1  0
  1 25  1  0
  2  3  1  0
  3  4  2  0
  3 20  1  0
  4  5  1  0
  4 26  1  0
  5  6  1  0
  5 18  2  0
  6  7  1  0
  7  8  1  0
  7 17  2  0
  8  9  2  0
  9 10  1  0
  9 16  1  0
 10 11  2  0
 10 15  1  0
 11 12  1  0
 11 27  1  0
 12 13  2  0
 12 28  1  0
 13 14  1  0
 13 29  1  0
 14 15  2  0
 14 30  1  0
 15 31  1  0
 16 17  1  0
 17 18  1  0
 18 19  1  0
 19 20  2  0
 19 32  1  0
 20 21  1  0
 21 22  1  0
 22 33  1  0
 22 34  1  0
 22 35  1  0
M  END

