
     RDKit          3D

 67 70  0  0  0  0  0  0  0  0999 V2000
    3.1003   -0.0706    0.9616 C   0  0  0  0  0  0  0  0  0  0  0  0
    4.2417   -0.5138    0.1796 N   0  0  0  0  0  0  0  0  0  0  0  0
    5.3532   -1.1660    0.8484 C   0  0  0  0  0  0  0  0  0  0  0  0
    4.2669   -0.3203   -1.1806 C   0  0  0  0  0  0  0  0  0  0  0  0
    3.1854    0.3070   -1.8611 C   0  0  0  0  0  0  0  0  0  0  0  0
    3.2265    0.5185   -3.2287 C   0  0  0  0  0  0  0  0  0  0  0  0
    4.3287    0.1112   -4.0210 C   0  0  0  0  0  0  0  0  0  0  0  0
    4.3509    0.3003   -5.4857 C   0  0  0  0  0  0  0  0  0  0  0  0
    3.9453    1.4698   -6.1116 C   0  0  0  0  0  0  0  0  0  0  0  0
    3.6513    2.7860   -5.5767 C   0  0  0  0  0  0  0  0  0  0  0  0
    4.1894    3.2952   -4.3628 C   0  0  0  0  0  0  0  0  0  0  0  0
    3.8548    4.5588   -3.9051 C   0  0  0  0  0  0  0  0  0  0  0  0
    2.9633    5.4125   -4.6118 C   0  0  0  0  0  0  0  0  0  0  0  0
    2.6356    6.7119   -4.0683 C   0  0  0  0  0  0  0  0  0  0  0  0
    1.7665    7.6285   -4.6183 C   0  0  0  0  0  0  0  0  0  0  0  0
    1.4104    8.9214   -4.0987 C   0  0  0  0  0  0  0  0  0  0  0  0
    1.9379    9.4574   -2.8834 C   0  0  0  0  0  0  0  0  0  0  0  0
    1.5633   10.7038   -2.4190 C   0  0  0  0  0  0  0  0  0  0  0  0
    0.6351   11.5033   -3.1367 C   0  0  0  0  0  0  0  0  0  0  0  0
    0.2503   12.7867   -2.6532 C   0  0  0  0  0  0  0  0  0  0  0  0
   -0.0648   13.8372   -2.2562 N   0  0  0  0  0  0  0  0  0  0  0  0
    0.1017   10.9873   -4.3482 C   0  0  0  0  0  0  0  0  0  0  0  0
    0.4814    9.7391   -4.8062 C   0  0  0  0  0  0  0  0  0  0  0  0
    2.4580    4.9127   -5.8485 C   0  0  0  0  0  0  0  0  0  0  0  0
    2.8026    3.6535   -6.3113 C   0  0  0  0  0  0  0  0  0  0  0  0
    4.7888   -0.8357   -6.3187 C   0  0  0  0  0  0  0  0  0  0  0  0
    5.4634   -0.6496   -7.5496 C   0  0  0  0  0  0  0  0  0  0  0  0
    5.8398   -1.7122   -8.3580 C   0  0  0  0  0  0  0  0  0  0  0  0
    5.5668   -3.0553   -7.9816 C   0  0  0  0  0  0  0  0  0  0  0  0
    5.9305   -4.1156   -8.7808 N   0  0  0  0  0  0  0  0  0  0  0  0
    5.6564   -5.4761   -8.3583 C   0  0  0  0  0  0  0  0  0  0  0  0
    6.6032   -3.8812  -10.0449 C   0  0  0  0  0  0  0  0  0  0  0  0
    4.9003   -3.2522   -6.7410 C   0  0  0  0  0  0  0  0  0  0  0  0
    4.5337   -2.1780   -5.9448 C   0  0  0  0  0  0  0  0  0  0  0  0
    5.3910   -0.5312   -3.3423 C   0  0  0  0  0  0  0  0  0  0  0  0
    5.3755   -0.7350   -1.9706 C   0  0  0  0  0  0  0  0  0  0  0  0
    3.2775   -0.2916    2.0210 H   0  0  0  0  0  0  0  0  0  0  0  0
    2.1693   -0.5820    0.6585 H   0  0  0  0  0  0  0  0  0  0  0  0
    2.9343    1.0165    0.8643 H   0  0  0  0  0  0  0  0  0  0  0  0
    5.1488   -1.2207    1.9244 H   0  0  0  0  0  0  0  0  0  0  0  0
    6.2985   -0.6114    0.7113 H   0  0  0  0  0  0  0  0  0  0  0  0
    5.5100   -2.1953    0.4793 H   0  0  0  0  0  0  0  0  0  0  0  0
    2.3039    0.6343   -1.3118 H   0  0  0  0  0  0  0  0  0  0  0  0
    2.3763    1.0023   -3.7122 H   0  0  0  0  0  0  0  0  0  0  0  0
    3.8216    1.3950   -7.1984 H   0  0  0  0  0  0  0  0  0  0  0  0
    4.9069    2.6983   -3.7984 H   0  0  0  0  0  0  0  0  0  0  0  0
    4.2960    4.9227   -2.9728 H   0  0  0  0  0  0  0  0  0  0  0  0
    3.1337    6.9587   -3.1262 H   0  0  0  0  0  0  0  0  0  0  0  0
    1.2698    7.3649   -5.5583 H   0  0  0  0  0  0  0  0  0  0  0  0
    2.6549    8.8742   -2.3019 H   0  0  0  0  0  0  0  0  0  0  0  0
    1.9834   11.0873   -1.4861 H   0  0  0  0  0  0  0  0  0  0  0  0
   -0.6132   11.5871   -4.9157 H   0  0  0  0  0  0  0  0  0  0  0  0
    0.0572    9.3619   -5.7415 H   0  0  0  0  0  0  0  0  0  0  0  0
    1.7948    5.5340   -6.4528 H   0  0  0  0  0  0  0  0  0  0  0  0
    2.3953    3.3078   -7.2666 H   0  0  0  0  0  0  0  0  0  0  0  0
    5.7251    0.3623   -7.8665 H   0  0  0  0  0  0  0  0  0  0  0  0
    6.3644   -1.4960   -9.2878 H   0  0  0  0  0  0  0  0  0  0  0  0
    6.1592   -5.7231   -7.4056 H   0  0  0  0  0  0  0  0  0  0  0  0
    6.0194   -6.1750   -9.1218 H   0  0  0  0  0  0  0  0  0  0  0  0
    4.5747   -5.6562   -8.2222 H   0  0  0  0  0  0  0  0  0  0  0  0
    5.9968   -3.2555  -10.7239 H   0  0  0  0  0  0  0  0  0  0  0  0
    6.7840   -4.8407  -10.5448 H   0  0  0  0  0  0  0  0  0  0  0  0
    7.5793   -3.3804   -9.9100 H   0  0  0  0  0  0  0  0  0  0  0  0
    4.6505   -4.2575   -6.4039 H   0  0  0  0  0  0  0  0  0  0  0  0
    4.0032   -2.3784   -5.0117 H   0  0  0  0  0  0  0  0  0  0  0  0
    6.2635   -0.8579   -3.9125 H   0  0  0  0  0  0  0  0  0  0  0  0
    6.2374   -1.2111   -1.5051 H   0  0  0  0  0  0  0  0  0  0  0  0
  1  2  1  0
  1 37  1  0
  1 38  1  0
  1 39  1  0
  2  3  1  0
  2  4  1  0
  3 40  1  0
  3 41  1  0
  3 42  1  0
  4  5  2  0
  4 36  1  0
  5  6  1  0
  5 43  1  0
  6  7  2  0
  6 44  1  0
  7  8  1  0
  7 35  1  0
  8  9  2  0
  8 26  1  0
  9 10  1  0
  9 45  1  0
 10 11  2  0
 10 25  1  0
 11 12  1  0
 11 46  1  0
 12 13  2  0
 12 47  1  0
 13 14  1  0
 13 24  1  0
 14 15  2  0
 14 48  1  0
 15 16  1  0
 15 49  1  0
 16 17  2  0
 16 23  1  0
 17 18  1  0
 17 50  1  0
 18 19  2  0
 18 51  1  0
 19 20  1  0
 19 22  1  0
 20 21  3  0
 22 23  2  0
 22 52  1  0
 23 53  1  0
 24 25  2  0
 24 54  1  0
 25 55  1  0
 26 27  2  0
 26 34  1  0
 27 28  1  0
 27 56  1  0
 28 29  2  0
 28 57  1  0
 29 30  1  0
 29 33  1  0
 30 31  1  0
 30 32  1  0
 31 58  1  0
 31 59  1  0
 31 60  1  0
 32 61  1  0
 32 62  1  0
 32 63  1  0
 33 34  2  0
 33 64  1  0
 34 65  1  0
 35 36  2  0
 35 66  1  0
 36 67  1  0
M  END

