
     RDKit          3D

 69 72  0  0  0  0  0  0  0  0999 V2000
    1.1759    0.1823    0.5842 C   0  0  0  0  0  0  0  0  0  0  0  0
    2.5623    0.3155   -0.0099 C   0  0  0  0  0  0  0  0  0  0  0  0
    3.0390   -0.9932   -0.3349 O   0  0  0  0  0  0  0  0  0  0  0  0
    4.2540   -1.1755   -0.8762 C   0  0  0  0  0  0  0  0  0  0  0  0
    5.1455   -0.1656   -1.1833 C   0  0  0  0  0  0  0  0  0  0  0  0
    6.4134   -0.4534   -1.7733 C   0  0  0  0  0  0  0  0  0  0  0  0
    7.3019    0.5480   -2.0703 N   0  0  0  0  0  0  0  0  0  0  0  0
    7.2121    1.9075   -1.5404 C   0  0  0  0  0  0  0  0  0  0  0  0
    8.4950    2.2375   -0.7353 C   0  0  0  0  0  0  0  0  0  0  0  0
    9.7203    2.0423   -1.4816 N   0  0  0  0  0  0  0  0  0  0  0  0
   10.1365    3.1335   -2.3635 C   0  0  0  0  0  0  0  0  0  0  0  0
   11.6483    3.1846   -2.5765 C   0  0  0  0  0  0  0  0  0  0  0  0
    9.7713    0.7047   -2.0450 C   0  0  0  0  0  0  0  0  0  0  0  0
    8.5120    0.3626   -2.8716 C   0  0  0  0  0  0  0  0  0  0  0  0
    6.7153   -1.8237   -2.0418 C   0  0  0  0  0  0  0  0  0  0  0  0
    5.8331   -2.8392   -1.7355 C   0  0  0  0  0  0  0  0  0  0  0  0
    4.5762   -2.5639   -1.1413 C   0  0  0  0  0  0  0  0  0  0  0  0
    3.6463   -3.4804   -0.7997 N   0  0  0  0  0  0  0  0  0  0  0  0
    3.6279   -4.9034   -0.9162 C   0  0  0  0  0  0  0  0  0  0  0  0
    4.6622   -5.5077   -1.4580 N   0  0  0  0  0  0  0  0  0  0  0  0
    4.5432   -6.8612   -1.5136 C   0  0  0  0  0  0  0  0  0  0  0  0
    3.4403   -7.5306   -1.0442 C   0  0  0  0  0  0  0  0  0  0  0  0
    3.3686   -9.2638   -1.1315 Cl  0  0  0  0  0  0  0  0  0  0  0  0
    2.3543   -6.7705   -0.4679 C   0  0  0  0  0  0  0  0  0  0  0  0
    1.2636   -7.3698    0.0042 N   0  0  0  0  0  0  0  0  0  0  0  0
    0.0999   -6.8469    0.6528 C   0  0  0  0  0  0  0  0  0  0  0  0
   -0.3057   -5.5259    0.5560 C   0  0  0  0  0  0  0  0  0  0  0  0
   -1.4944   -5.0583    1.1614 C   0  0  0  0  0  0  0  0  0  0  0  0
   -2.3178   -5.9790    1.8601 C   0  0  0  0  0  0  0  0  0  0  0  0
   -1.9586   -7.3033    1.9671 C   0  0  0  0  0  0  0  0  0  0  0  0
   -0.7418   -7.8003    1.3767 C   0  0  0  0  0  0  0  0  0  0  0  0
   -0.2718   -9.4046    1.8004 S   0  0  1  0  0  0  0  0  0  0  0  0
   -1.4611  -10.2025    2.1276 O   0  0  0  0  0  0  0  0  0  0  0  0
    0.7176   -9.8863    0.7947 O   0  0  0  0  0  0  0  0  0  0  0  0
    0.6335   -9.5010    3.2773 N   0  0  0  0  0  0  0  0  0  0  0  0
    1.8754   -8.7513    3.3433 C   0  0  0  0  0  0  0  0  0  0  0  0
    2.5112   -5.4201   -0.4361 N   0  0  0  0  0  0  0  0  0  0  0  0
    0.7850    1.1780    0.8428 H   0  0  0  0  0  0  0  0  0  0  0  0
    1.1966   -0.4303    1.4976 H   0  0  0  0  0  0  0  0  0  0  0  0
    0.4854   -0.2855   -0.1329 H   0  0  0  0  0  0  0  0  0  0  0  0
    3.2621    0.7854    0.7048 H   0  0  0  0  0  0  0  0  0  0  0  0
    2.5470    0.9310   -0.9276 H   0  0  0  0  0  0  0  0  0  0  0  0
    4.8490    0.8621   -1.0007 H   0  0  0  0  0  0  0  0  0  0  0  0
    6.3396    2.0151   -0.8889 H   0  0  0  0  0  0  0  0  0  0  0  0
    7.0970    2.6152   -2.3806 H   0  0  0  0  0  0  0  0  0  0  0  0
    8.5077    1.5826    0.1550 H   0  0  0  0  0  0  0  0  0  0  0  0
    8.4359    3.2762   -0.3767 H   0  0  0  0  0  0  0  0  0  0  0  0
    9.8146    4.0738   -1.8881 H   0  0  0  0  0  0  0  0  0  0  0  0
    9.6270    3.1057   -3.3529 H   0  0  0  0  0  0  0  0  0  0  0  0
   12.1713    3.2636   -1.6114 H   0  0  0  0  0  0  0  0  0  0  0  0
   11.9167    4.0553   -3.1949 H   0  0  0  0  0  0  0  0  0  0  0  0
   12.0272    2.2894   -3.0948 H   0  0  0  0  0  0  0  0  0  0  0  0
    9.8622   -0.0319   -1.2268 H   0  0  0  0  0  0  0  0  0  0  0  0
   10.6620    0.5935   -2.6796 H   0  0  0  0  0  0  0  0  0  0  0  0
    8.5671   -0.6552   -3.2679 H   0  0  0  0  0  0  0  0  0  0  0  0
    8.4444    1.0404   -3.7413 H   0  0  0  0  0  0  0  0  0  0  0  0
    7.6746   -2.1042   -2.4708 H   0  0  0  0  0  0  0  0  0  0  0  0
    6.0744   -3.8820   -1.9294 H   0  0  0  0  0  0  0  0  0  0  0  0
    2.7982   -3.1191   -0.3713 H   0  0  0  0  0  0  0  0  0  0  0  0
    5.3737   -7.4209   -1.9519 H   0  0  0  0  0  0  0  0  0  0  0  0
    1.2615   -8.4048   -0.0037 H   0  0  0  0  0  0  0  0  0  0  0  0
    0.3071   -4.8387   -0.0192 H   0  0  0  0  0  0  0  0  0  0  0  0
   -1.7774   -4.0092    1.0695 H   0  0  0  0  0  0  0  0  0  0  0  0
   -3.2601   -5.6438    2.3035 H   0  0  0  0  0  0  0  0  0  0  0  0
   -2.6034   -8.0201    2.4771 H   0  0  0  0  0  0  0  0  0  0  0  0
   -0.0114   -9.2877    4.0383 H   0  0  0  0  0  0  0  0  0  0  0  0
    1.7549   -7.6498    3.2894 H   0  0  0  0  0  0  0  0  0  0  0  0
    2.5223   -9.0695    2.5128 H   0  0  0  0  0  0  0  0  0  0  0  0
    2.3942   -8.9943    4.2848 H   0  0  0  0  0  0  0  0  0  0  0  0
  1  2  1  0
  1 38  1  0
  1 39  1  0
  1 40  1  0
  2  3  1  0
  2 41  1  0
  2 42  1  0
  3  4  1  0
  4  5  2  0
  4 17  1  0
  5  6  1  0
  5 43  1  0
  6  7  1  0
  6 15  2  0
  7  8  1  0
  7 14  1  0
  8  9  1  0
  8 44  1  0
  8 45  1  0
  9 10  1  0
  9 46  1  0
  9 47  1  0
 10 11  1  0
 10 13  1  0
 11 12  1  0
 11 48  1  0
 11 49  1  0
 12 50  1  0
 12 51  1  0
 12 52  1  0
 13 14  1  0
 13 53  1  0
 13 54  1  0
 14 55  1  0
 14 56  1  0
 15 16  1  0
 15 57  1  0
 16 17  2  0
 16 58  1  0
 17 18  1  0
 18 19  1  0
 18 59  1  0
 19 20  2  0
 19 37  1  0
 20 21  1  0
 21 22  2  0
 21 60  1  0
 22 23  1  0
 22 24  1  0
 24 25  1  0
 24 37  2  0
 25 26  1  0
 25 61  1  0
 26 27  2  0
 26 31  1  0
 27 28  1  0
 27 62  1  0
 28 29  2  0
 28 63  1  0
 29 30  1  0
 29 64  1  0
 30 31  2  0
 30 65  1  0
 31 32  1  0
 32 33  2  0
 32 34  2  0
 32 35  1  1
 35 36  1  0
 35 66  1  0
 36 67  1  0
 36 68  1  0
 36 69  1  0
M  END

