
     RDKit          3D

 48 51  0  0  0  0  0  0  0  0999 V2000
    0.6288    1.1501    0.2292 C   0  0  0  0  0  0  0  0  0  0  0  0
    2.1057    0.7260    0.2904 C   0  0  1  0  0  0  0  0  0  0  0  0
    2.9671    1.5516   -0.6795 C   0  0  0  0  0  0  0  0  0  0  0  0
    2.6357    0.8286    1.6949 C   0  0  0  0  0  0  0  0  0  0  0  0
    2.7103    2.0098    2.3794 N   0  0  0  0  0  0  0  0  0  0  0  0
    3.2237    1.6620    3.5454 C   0  0  0  0  0  0  0  0  0  0  0  0
    3.4363    0.3190    3.5632 N   0  0  0  0  0  0  0  0  0  0  0  0
    3.0713   -0.2224    2.3792 N   0  0  0  0  0  0  0  0  0  0  0  0
    4.0767   -0.4557    4.6152 C   0  0  0  0  0  0  0  0  0  0  0  0
    4.0034    0.3125    5.9396 C   0  0  2  0  0  0  0  0  0  0  0  0
    2.6726    0.2055    6.5268 N   0  0  0  0  0  0  0  0  0  0  0  0
    2.4876    0.1107    7.8813 C   0  0  0  0  0  0  0  0  0  0  0  0
    3.4186    0.1088    8.6779 O   0  0  0  0  0  0  0  0  0  0  0  0
    1.0621    0.0180    8.3205 C   0  0  1  0  0  0  0  0  0  0  0  0
    0.7558   -0.4659    9.6876 C   0  0  0  0  0  0  0  0  0  0  0  0
    0.6779    1.0371    9.5125 C   0  0  2  0  0  0  0  0  0  0  0  0
   -0.5630    1.7799    9.4157 C   0  0  0  0  0  0  0  0  0  0  0  0
   -0.5257    3.1823    9.6810 C   0  0  0  0  0  0  0  0  0  0  0  0
   -1.6769    4.0011    9.5984 C   0  0  0  0  0  0  0  0  0  0  0  0
   -2.8728    3.3656    9.1706 C   0  0  0  0  0  0  0  0  0  0  0  0
   -3.9724    4.0933    8.9957 F   0  0  0  0  0  0  0  0  0  0  0  0
   -2.9321    1.9832    8.8978 C   0  0  0  0  0  0  0  0  0  0  0  0
   -4.0921    1.4694    8.4796 F   0  0  0  0  0  0  0  0  0  0  0  0
   -1.7968    1.1440    9.0122 C   0  0  0  0  0  0  0  0  0  0  0  0
    4.4368    1.7798    5.7301 C   0  0  0  0  0  0  0  0  0  0  0  0
    3.5142    2.5131    4.7438 C   0  0  0  0  0  0  0  0  0  0  0  0
    0.2396    1.0618   -0.7979 H   0  0  0  0  0  0  0  0  0  0  0  0
    0.5138    2.1968    0.5527 H   0  0  0  0  0  0  0  0  0  0  0  0
    0.0044    0.5226    0.8848 H   0  0  0  0  0  0  0  0  0  0  0  0
    2.1810   -0.3384    0.0144 H   0  0  0  0  0  0  0  0  0  0  0  0
    2.9565    2.6155   -0.3944 H   0  0  0  0  0  0  0  0  0  0  0  0
    2.5853    1.4662   -1.7097 H   0  0  0  0  0  0  0  0  0  0  0  0
    4.0143    1.2104   -0.6744 H   0  0  0  0  0  0  0  0  0  0  0  0
    5.1302   -0.6401    4.3453 H   0  0  0  0  0  0  0  0  0  0  0  0
    3.5741   -1.4311    4.6876 H   0  0  0  0  0  0  0  0  0  0  0  0
    4.6880   -0.1573    6.6598 H   0  0  0  0  0  0  0  0  0  0  0  0
    1.8622    0.2282    5.9184 H   0  0  0  0  0  0  0  0  0  0  0  0
    0.2850   -0.0701    7.5566 H   0  0  0  0  0  0  0  0  0  0  0  0
    1.6117   -0.8089   10.2747 H   0  0  0  0  0  0  0  0  0  0  0  0
   -0.1819   -1.0032    9.8437 H   0  0  0  0  0  0  0  0  0  0  0  0
    1.5524    1.5867    9.8687 H   0  0  0  0  0  0  0  0  0  0  0  0
    0.4348    3.6308    9.9453 H   0  0  0  0  0  0  0  0  0  0  0  0
   -1.6775    5.0605    9.8480 H   0  0  0  0  0  0  0  0  0  0  0  0
   -1.9227    0.0637    8.9551 H   0  0  0  0  0  0  0  0  0  0  0  0
    5.4725    1.7796    5.3489 H   0  0  0  0  0  0  0  0  0  0  0  0
    4.4534    2.2934    6.7022 H   0  0  0  0  0  0  0  0  0  0  0  0
    3.9513    3.4675    4.4137 H   0  0  0  0  0  0  0  0  0  0  0  0
    2.5598    2.7724    5.2357 H   0  0  0  0  0  0  0  0  0  0  0  0
  1  2  1  0
  1 27  1  0
  1 28  1  0
  1 29  1  0
  2  3  1  0
  2  4  1  0
  2 30  1  6
  3 31  1  0
  3 32  1  0
  3 33  1  0
  4  5  1  0
  4  8  2  0
  5  6  2  0
  6  7  1  0
  6 26  1  0
  7  8  1  0
  7  9  1  0
  9 10  1  0
  9 34  1  0
  9 35  1  0
 10 11  1  0
 10 25  1  0
 10 36  1  1
 11 12  1  0
 11 37  1  0
 12 13  2  0
 12 14  1  0
 14 15  1  0
 14 16  1  0
 14 38  1  6
 15 16  1  0
 15 39  1  0
 15 40  1  0
 16 17  1  0
 16 41  1  1
 17 18  2  0
 17 24  1  0
 18 19  1  0
 18 42  1  0
 19 20  2  0
 19 43  1  0
 20 21  1  0
 20 22  1  0
 22 23  1  0
 22 24  2  0
 24 44  1  0
 25 26  1  0
 25 45  1  0
 25 46  1  0
 26 47  1  0
 26 48  1  0
M  END

