
     RDKit          3D

 76 76  0  0  0  0  0  0  0  0999 V2000
    0.4845    0.1388    0.6589 C   0  0  0  0  0  0  0  0  0  0  0  0
    2.0075    0.2047    0.7831 C   0  0  0  0  0  0  0  0  0  0  0  0
    2.6319    1.3967    0.0510 C   0  0  0  0  0  0  0  0  0  0  0  0
    4.1570    1.4709    0.1690 C   0  0  0  0  0  0  0  0  0  0  0  0
    4.7788    2.6637   -0.5632 C   0  0  0  0  0  0  0  0  0  0  0  0
    6.3043    2.7386   -0.4487 C   0  0  0  0  0  0  0  0  0  0  0  0
    6.9225    3.9337   -1.1802 C   0  0  0  0  0  0  0  0  0  0  0  0
    8.4484    4.0095   -1.0724 C   0  0  0  0  0  0  0  0  0  0  0  0
    9.0613    5.2085   -1.8020 C   0  0  0  0  0  0  0  0  0  0  0  0
   10.5879    5.2844   -1.7045 C   0  0  0  0  0  0  0  0  0  0  0  0
   11.1940    6.4889   -2.4308 C   0  0  0  0  0  0  0  0  0  0  0  0
   12.7215    6.5624   -2.3491 C   0  0  0  0  0  0  0  0  0  0  0  0
   13.3196    7.7733   -3.0712 C   0  0  0  0  0  0  0  0  0  0  0  0
   14.8483    7.8343   -3.0087 C   0  0  0  0  0  0  0  0  0  0  0  0
   15.4190    9.0503   -3.7371 C   0  0  0  0  0  0  0  0  0  0  0  0
   16.9400    9.0924   -3.7102 C   0  0  0  0  0  0  0  0  0  0  0  0
   17.5953    8.2482   -3.1373 O   0  0  0  0  0  0  0  0  0  0  0  0
   17.5790   10.1651   -4.3802 N   0  0  0  0  0  0  0  0  0  0  0  0
   16.8434   11.2317   -5.0598 C   0  0  0  0  0  0  0  0  0  0  0  0
   16.6802   10.9946   -6.5741 C   0  0  1  0  0  0  0  0  0  0  0  0
   15.6641   10.0476   -6.8966 O   0  0  0  0  0  0  0  0  0  0  0  0
   16.4141   12.2968   -7.3327 C   0  0  0  0  0  0  0  0  0  0  0  0
   16.2781   12.0615   -8.7080 O   0  0  0  0  0  0  0  0  0  0  0  0
   18.9830   10.2269   -4.4918 C   0  0  0  0  0  0  0  0  0  0  0  0
   19.7393    9.0990   -4.8368 C   0  0  0  0  0  0  0  0  0  0  0  0
   21.1452    9.1790   -4.9574 C   0  0  0  0  0  0  0  0  0  0  0  0
   21.7698   10.4328   -4.6848 C   0  0  0  0  0  0  0  0  0  0  0  0
   23.1158   10.4206   -4.7874 O   0  0  0  0  0  0  0  0  0  0  0  0
   23.8593   11.6077   -4.6098 C   0  0  0  0  0  0  0  0  0  0  0  0
   21.0318   11.5715   -4.3093 C   0  0  0  0  0  0  0  0  0  0  0  0
   19.6035   11.5326   -4.2824 C   0  0  0  0  0  0  0  0  0  0  0  0
    0.0704   -0.7292    1.1965 H   0  0  0  0  0  0  0  0  0  0  0  0
    0.1714    0.0572   -0.3957 H   0  0  0  0  0  0  0  0  0  0  0  0
    0.0088    1.0440    1.0728 H   0  0  0  0  0  0  0  0  0  0  0  0
    2.4500   -0.7312    0.3954 H   0  0  0  0  0  0  0  0  0  0  0  0
    2.2890    0.2473    1.8512 H   0  0  0  0  0  0  0  0  0  0  0  0
    2.1898    2.3338    0.4387 H   0  0  0  0  0  0  0  0  0  0  0  0
    2.3504    1.3551   -1.0180 H   0  0  0  0  0  0  0  0  0  0  0  0
    4.5987    0.5341   -0.2192 H   0  0  0  0  0  0  0  0  0  0  0  0
    4.4384    1.5120    1.2379 H   0  0  0  0  0  0  0  0  0  0  0  0
    4.3379    3.6004   -0.1738 H   0  0  0  0  0  0  0  0  0  0  0  0
    4.4956    2.6234   -1.6317 H   0  0  0  0  0  0  0  0  0  0  0  0
    6.7458    1.8031   -0.8401 H   0  0  0  0  0  0  0  0  0  0  0  0
    6.5885    2.7777    0.6195 H   0  0  0  0  0  0  0  0  0  0  0  0
    6.4825    4.8690   -0.7864 H   0  0  0  0  0  0  0  0  0  0  0  0
    6.6346    3.8962   -2.2476 H   0  0  0  0  0  0  0  0  0  0  0  0
    8.8890    3.0762   -1.4699 H   0  0  0  0  0  0  0  0  0  0  0  0
    8.7377    4.0446   -0.0055 H   0  0  0  0  0  0  0  0  0  0  0  0
    8.6237    6.1416   -1.4003 H   0  0  0  0  0  0  0  0  0  0  0  0
    8.7662    5.1763   -2.8675 H   0  0  0  0  0  0  0  0  0  0  0  0
   11.0264    4.3543   -2.1117 H   0  0  0  0  0  0  0  0  0  0  0  0
   10.8854    5.3127   -0.6397 H   0  0  0  0  0  0  0  0  0  0  0  0
   10.7611    7.4189   -2.0170 H   0  0  0  0  0  0  0  0  0  0  0  0
   10.8877    6.4651   -3.4935 H   0  0  0  0  0  0  0  0  0  0  0  0
   13.1557    5.6370   -2.7704 H   0  0  0  0  0  0  0  0  0  0  0  0
   13.0319    6.5814   -1.2881 H   0  0  0  0  0  0  0  0  0  0  0  0
   12.8942    8.6994   -2.6402 H   0  0  0  0  0  0  0  0  0  0  0  0
   12.9970    7.7611   -4.1294 H   0  0  0  0  0  0  0  0  0  0  0  0
   15.2810    6.9188   -3.4447 H   0  0  0  0  0  0  0  0  0  0  0  0
   15.1861    7.8462   -1.9591 H   0  0  0  0  0  0  0  0  0  0  0  0
   15.0227    9.9797   -3.2889 H   0  0  0  0  0  0  0  0  0  0  0  0
   15.1005    9.0582   -4.7915 H   0  0  0  0  0  0  0  0  0  0  0  0
   17.4604   12.1396   -4.9540 H   0  0  0  0  0  0  0  0  0  0  0  0
   15.8699   11.4042   -4.5824 H   0  0  0  0  0  0  0  0  0  0  0  0
   17.6154   10.5543   -6.9546 H   0  0  0  0  0  0  0  0  0  0  0  0
   14.8099   10.4148   -6.6220 H   0  0  0  0  0  0  0  0  0  0  0  0
   17.2551   12.9940   -7.1858 H   0  0  0  0  0  0  0  0  0  0  0  0
   15.5074   12.7841   -6.9014 H   0  0  0  0  0  0  0  0  0  0  0  0
   15.7788   11.2356   -8.7990 H   0  0  0  0  0  0  0  0  0  0  0  0
   19.2262    8.1676   -5.0758 H   0  0  0  0  0  0  0  0  0  0  0  0
   21.7534    8.3342   -5.2752 H   0  0  0  0  0  0  0  0  0  0  0  0
   24.9082   11.3527   -4.8115 H   0  0  0  0  0  0  0  0  0  0  0  0
   23.7722   11.9858   -3.5759 H   0  0  0  0  0  0  0  0  0  0  0  0
   23.5299   12.3970   -5.3069 H   0  0  0  0  0  0  0  0  0  0  0  0
   21.5421   12.4722   -3.9678 H   0  0  0  0  0  0  0  0  0  0  0  0
   19.0724   12.2713   -3.6703 H   0  0  0  0  0  0  0  0  0  0  0  0
  1  2  1  0
  1 32  1  0
  1 33  1  0
  1 34  1  0
  2  3  1  0
  2 35  1  0
  2 36  1  0
  3  4  1  0
  3 37  1  0
  3 38  1  0
  4  5  1  0
  4 39  1  0
  4 40  1  0
  5  6  1  0
  5 41  1  0
  5 42  1  0
  6  7  1  0
  6 43  1  0
  6 44  1  0
  7  8  1  0
  7 45  1  0
  7 46  1  0
  8  9  1  0
  8 47  1  0
  8 48  1  0
  9 10  1  0
  9 49  1  0
  9 50  1  0
 10 11  1  0
 10 51  1  0
 10 52  1  0
 11 12  1  0
 11 53  1  0
 11 54  1  0
 12 13  1  0
 12 55  1  0
 12 56  1  0
 13 14  1  0
 13 57  1  0
 13 58  1  0
 14 15  1  0
 14 59  1  0
 14 60  1  0
 15 16  1  0
 15 61  1  0
 15 62  1  0
 16 17  2  0
 16 18  1  0
 18 19  1  0
 18 24  1  0
 19 20  1  0
 19 63  1  0
 19 64  1  0
 20 21  1  0
 20 22  1  0
 20 65  1  1
 21 66  1  0
 22 23  1  0
 22 67  1  0
 22 68  1  0
 23 69  1  0
 24 25  2  0
 24 31  1  0
 25 26  1  0
 25 70  1  0
 26 27  2  0
 26 71  1  0
 27 28  1  0
 27 30  1  0
 28 29  1  0
 29 72  1  0
 29 73  1  0
 29 74  1  0
 30 31  2  0
 30 75  1  0
 31 76  1  0
M  END

