
     RDKit          3D

 36 36  0  0  0  0  0  0  0  0999 V2000
    3.6838   -2.5453    2.2943 C   0  0  0  0  0  0  0  0  0  0  0  0
    4.4388   -2.1988    1.0103 C   0  0  0  0  0  0  0  0  0  0  0  0
    3.5115   -1.7764   -0.1331 C   0  0  0  0  0  0  0  0  0  0  0  0
    4.2316   -1.3519   -1.4222 C   0  0  0  0  0  0  0  0  0  0  0  0
    5.0202   -2.4154   -2.0498 N   0  0  0  0  0  0  0  0  0  0  0  0
    4.3088   -3.4867   -2.7353 C   0  0  0  0  0  0  0  0  0  0  0  0
    6.3973   -2.3476   -1.9254 C   0  0  0  0  0  0  0  0  0  0  0  0
    6.9814   -1.4549   -1.3453 O   0  0  0  0  0  0  0  0  0  0  0  0
    7.0583   -3.4262   -2.5431 N   0  0  0  0  0  0  0  0  0  0  0  0
    8.4195   -3.6924   -2.6352 C   0  0  0  0  0  0  0  0  0  0  0  0
    9.4196   -2.8385   -2.0939 C   0  0  0  0  0  0  0  0  0  0  0  0
   10.7495   -3.2523   -2.2867 C   0  0  0  0  0  0  0  0  0  0  0  0
   11.0444   -4.4335   -2.9670 C   0  0  0  0  0  0  0  0  0  0  0  0
   12.3511   -4.7473   -3.0998 F   0  0  0  0  0  0  0  0  0  0  0  0
   10.0770   -5.3255   -3.5252 C   0  0  0  0  0  0  0  0  0  0  0  0
   10.2877   -6.5776   -4.2485 C   0  0  0  0  0  0  0  0  0  0  0  0
    9.3452   -7.2425   -4.6703 O   0  0  0  0  0  0  0  0  0  0  0  0
   11.5690   -7.0134   -4.4579 O   0  0  0  0  0  0  0  0  0  0  0  0
    8.7352   -4.8897   -3.3227 C   0  0  0  0  0  0  0  0  0  0  0  0
    4.3753   -2.8503    3.0951 H   0  0  0  0  0  0  0  0  0  0  0  0
    2.9738   -3.3742    2.1347 H   0  0  0  0  0  0  0  0  0  0  0  0
    3.1053   -1.6828    2.6654 H   0  0  0  0  0  0  0  0  0  0  0  0
    5.0398   -3.0695    0.6935 H   0  0  0  0  0  0  0  0  0  0  0  0
    5.1660   -1.3923    1.2052 H   0  0  0  0  0  0  0  0  0  0  0  0
    2.8944   -0.9175    0.1859 H   0  0  0  0  0  0  0  0  0  0  0  0
    2.7956   -2.5900   -0.3540 H   0  0  0  0  0  0  0  0  0  0  0  0
    4.9226   -0.5257   -1.2139 H   0  0  0  0  0  0  0  0  0  0  0  0
    3.4919   -1.0002   -2.1618 H   0  0  0  0  0  0  0  0  0  0  0  0
    3.2380   -3.2480   -2.7468 H   0  0  0  0  0  0  0  0  0  0  0  0
    4.4191   -4.4627   -2.2307 H   0  0  0  0  0  0  0  0  0  0  0  0
    4.6266   -3.5869   -3.7873 H   0  0  0  0  0  0  0  0  0  0  0  0
    6.4804   -4.1348   -2.9840 H   0  0  0  0  0  0  0  0  0  0  0  0
    9.1601   -1.9274   -1.5666 H   0  0  0  0  0  0  0  0  0  0  0  0
   11.5860   -2.6617   -1.9082 H   0  0  0  0  0  0  0  0  0  0  0  0
   12.2031   -6.3934   -4.0733 H   0  0  0  0  0  0  0  0  0  0  0  0
    7.9535   -5.5345   -3.7325 H   0  0  0  0  0  0  0  0  0  0  0  0
  1  2  1  0
  1 20  1  0
  1 21  1  0
  1 22  1  0
  2  3  1  0
  2 23  1  0
  2 24  1  0
  3  4  1  0
  3 25  1  0
  3 26  1  0
  4  5  1  0
  4 27  1  0
  4 28  1  0
  5  6  1  0
  5  7  1  0
  6 29  1  0
  6 30  1  0
  6 31  1  0
  7  8  2  0
  7  9  1  0
  9 10  1  0
  9 32  1  0
 10 11  2  0
 10 19  1  0
 11 12  1  0
 11 33  1  0
 12 13  2  0
 12 34  1  0
 13 14  1  0
 13 15  1  0
 15 16  1  0
 15 19  2  0
 16 17  2  0
 16 18  1  0
 18 35  1  0
 19 36  1  0
M  END

