
     RDKit          3D

 86 89  0  0  0  0  0  0  0  0999 V2000
    9.0168    0.4406   -2.9718 C   0  0  0  0  0  0  0  0  0  0  0  0
   10.3335    0.2939   -2.4469 O   0  0  0  0  0  0  0  0  0  0  0  0
   10.7975   -0.8960   -2.0887 C   0  0  0  0  0  0  0  0  0  0  0  0
   12.1306   -0.8894   -1.5651 C   0  0  0  0  0  0  0  0  0  0  0  0
   12.7105   -2.0626   -1.1456 C   0  0  0  0  0  0  0  0  0  0  0  0
   12.0089   -3.2890   -1.1989 C   0  0  0  0  0  0  0  0  0  0  0  0
   12.7089   -4.5856   -0.8926 C   0  0  0  0  0  0  0  0  0  0  0  0
   12.0200   -5.4188    0.0908 N   0  0  0  0  0  0  0  0  0  0  0  0
   12.4336   -6.8147    0.1486 C   0  0  0  0  0  0  0  0  0  0  0  0
   13.8395   -6.9456    0.7608 C   0  0  0  0  0  0  0  0  0  0  0  0
   14.4329   -5.9754    1.1780 O   0  0  0  0  0  0  0  0  0  0  0  0
   14.3573   -8.1553    0.7789 O   0  0  0  0  0  0  0  0  0  0  0  0
   11.3039   -4.7621    1.0258 C   0  0  0  0  0  0  0  0  0  0  0  0
   11.1308   -3.5354    0.9156 O   0  0  0  0  0  0  0  0  0  0  0  0
   10.6289   -5.5285    2.1765 C   0  0  2  0  0  0  0  0  0  0  0  0
   10.0176   -6.3080    1.6988 H   0  0  0  0  0  0  0  0  0  0  0  0
    9.6955   -4.6323    3.0087 C   0  0  0  0  0  0  0  0  0  0  0  0
    8.4290   -4.1964    2.2745 C   0  0  0  0  0  0  0  0  0  0  0  0
    7.4482   -3.4618    3.1712 C   0  0  0  0  0  0  0  0  0  0  0  0
    7.5610   -3.3567    4.3694 O   0  0  0  0  0  0  0  0  0  0  0  0
    6.4375   -2.9591    2.4406 O   0  0  0  0  0  0  0  0  0  0  0  0
    5.2935   -2.2635    3.0468 C   0  0  1  0  0  0  0  0  0  0  0  0
    5.7688   -0.9896    3.7533 C   0  0  0  0  0  0  0  0  0  0  0  0
    4.4230   -1.9204    1.8364 C   0  0  0  0  0  0  0  0  0  0  0  0
    4.5497   -3.2075    3.9973 C   0  0  0  0  0  0  0  0  0  0  0  0
   11.6085   -6.2266    2.9882 N   0  0  0  0  0  0  0  0  0  0  0  0
   11.4286   -7.5051    3.4830 C   0  0  0  0  0  0  0  0  0  0  0  0
   12.1368   -8.0104    4.3203 O   0  0  0  0  0  0  0  0  0  0  0  0
   10.3802   -8.0891    2.8752 O   0  0  0  0  0  0  0  0  0  0  0  0
   10.0818   -9.4699    3.1407 C   0  0  0  0  0  0  0  0  0  0  0  0
    9.6796  -10.1570    1.8380 C   0  0  2  0  0  0  0  0  0  0  0  0
   10.7709  -10.1820    0.7692 C   0  0  0  0  0  0  0  0  0  0  0  0
   12.0806  -10.5880    0.8738 C   0  0  0  0  0  0  0  0  0  0  0  0
   12.9492  -10.5025   -0.2696 C   0  0  0  0  0  0  0  0  0  0  0  0
   12.3923  -10.0894   -1.5128 C   0  0  0  0  0  0  0  0  0  0  0  0
   11.0736   -9.6777   -1.6288 C   0  0  0  0  0  0  0  0  0  0  0  0
   10.2266   -9.6915   -0.4719 C   0  0  0  0  0  0  0  0  0  0  0  0
    8.8698   -9.2949   -0.2713 C   0  0  0  0  0  0  0  0  0  0  0  0
    7.8953   -8.7435   -1.1523 C   0  0  0  0  0  0  0  0  0  0  0  0
    6.6248   -8.4336   -0.6615 C   0  0  0  0  0  0  0  0  0  0  0  0
    6.2772   -8.6512    0.6817 C   0  0  0  0  0  0  0  0  0  0  0  0
    7.2384   -9.2134    1.5632 C   0  0  0  0  0  0  0  0  0  0  0  0
    8.4998   -9.5264    1.0970 C   0  0  0  0  0  0  0  0  0  0  0  0
   10.6818   -3.2853   -1.7949 C   0  0  0  0  0  0  0  0  0  0  0  0
   10.1253   -4.4788   -1.8892 O   0  0  0  0  0  0  0  0  0  0  0  0
    8.7784   -4.6502   -2.3335 C   0  0  0  0  0  0  0  0  0  0  0  0
   10.0795   -2.0965   -2.2067 C   0  0  0  0  0  0  0  0  0  0  0  0
    8.8863    1.5110   -3.1667 H   0  0  0  0  0  0  0  0  0  0  0  0
    8.2647    0.1040   -2.2415 H   0  0  0  0  0  0  0  0  0  0  0  0
    8.9053   -0.1211   -3.9124 H   0  0  0  0  0  0  0  0  0  0  0  0
   12.6510    0.0668   -1.5107 H   0  0  0  0  0  0  0  0  0  0  0  0
   13.7206   -2.0583   -0.7349 H   0  0  0  0  0  0  0  0  0  0  0  0
   13.7283   -4.3769   -0.5337 H   0  0  0  0  0  0  0  0  0  0  0  0
   12.7896   -5.1665   -1.8253 H   0  0  0  0  0  0  0  0  0  0  0  0
   12.4227   -7.2380   -0.8675 H   0  0  0  0  0  0  0  0  0  0  0  0
   11.7120   -7.4196    0.7091 H   0  0  0  0  0  0  0  0  0  0  0  0
   13.7781   -8.8797    0.3934 H   0  0  0  0  0  0  0  0  0  0  0  0
   10.2451   -3.7507    3.3733 H   0  0  0  0  0  0  0  0  0  0  0  0
    9.4051   -5.2119    3.8965 H   0  0  0  0  0  0  0  0  0  0  0  0
    7.8931   -5.0709    1.8630 H   0  0  0  0  0  0  0  0  0  0  0  0
    8.6572   -3.5440    1.4190 H   0  0  0  0  0  0  0  0  0  0  0  0
    6.3404   -0.3547    3.0578 H   0  0  0  0  0  0  0  0  0  0  0  0
    6.4032   -1.2276    4.6162 H   0  0  0  0  0  0  0  0  0  0  0  0
    4.8982   -0.4130    4.1033 H   0  0  0  0  0  0  0  0  0  0  0  0
    4.9726   -1.2740    1.1349 H   0  0  0  0  0  0  0  0  0  0  0  0
    3.5129   -1.3913    2.1573 H   0  0  0  0  0  0  0  0  0  0  0  0
    4.1251   -2.8354    1.3025 H   0  0  0  0  0  0  0  0  0  0  0  0
    5.1678   -3.4679    4.8657 H   0  0  0  0  0  0  0  0  0  0  0  0
    4.2654   -4.1336    3.4737 H   0  0  0  0  0  0  0  0  0  0  0  0
    3.6284   -2.7216    4.3548 H   0  0  0  0  0  0  0  0  0  0  0  0
   12.3316   -5.6956    3.4614 H   0  0  0  0  0  0  0  0  0  0  0  0
    9.2582   -9.4972    3.8733 H   0  0  0  0  0  0  0  0  0  0  0  0
   10.9648   -9.9394    3.5970 H   0  0  0  0  0  0  0  0  0  0  0  0
    9.4185  -11.1956    2.1242 H   0  0  0  0  0  0  0  0  0  0  0  0
   12.4758  -10.9660    1.8219 H   0  0  0  0  0  0  0  0  0  0  0  0
   13.9428  -10.9561   -0.2381 H   0  0  0  0  0  0  0  0  0  0  0  0
   13.0281  -10.1010   -2.4045 H   0  0  0  0  0  0  0  0  0  0  0  0
   10.6789   -9.3640   -2.5992 H   0  0  0  0  0  0  0  0  0  0  0  0
    8.1285   -8.5950   -2.2109 H   0  0  0  0  0  0  0  0  0  0  0  0
    5.8737   -8.0248   -1.3461 H   0  0  0  0  0  0  0  0  0  0  0  0
    5.2737   -8.4131    1.0403 H   0  0  0  0  0  0  0  0  0  0  0  0
    6.9679   -9.4036    2.6073 H   0  0  0  0  0  0  0  0  0  0  0  0
    8.5570   -5.7160   -2.2152 H   0  0  0  0  0  0  0  0  0  0  0  0
    8.6795   -4.3543   -3.3898 H   0  0  0  0  0  0  0  0  0  0  0  0
    8.0908   -4.0617   -1.7069 H   0  0  0  0  0  0  0  0  0  0  0  0
    9.0759   -2.1072   -2.6210 H   0  0  0  0  0  0  0  0  0  0  0  0
  1  2  1  0
  1 48  1  0
  1 49  1  0
  1 50  1  0
  2  3  1  0
  3  4  2  0
  3 47  1  0
  4  5  1  0
  4 51  1  0
  5  6  2  0
  5 52  1  0
  6  7  1  0
  6 44  1  0
  7  8  1  0
  7 53  1  0
  7 54  1  0
  8  9  1  0
  8 13  1  0
  9 10  1  0
  9 55  1  0
  9 56  1  0
 10 11  2  0
 10 12  1  0
 12 57  1  0
 13 14  2  0
 13 15  1  0
 15 16  1  6
 15 17  1  0
 15 26  1  0
 17 18  1  0
 17 58  1  0
 17 59  1  0
 18 19  1  0
 18 60  1  0
 18 61  1  0
 19 20  2  0
 19 21  1  0
 22 21  1  6
 22 23  1  0
 22 24  1  0
 22 25  1  0
 23 62  1  0
 23 63  1  0
 23 64  1  0
 24 65  1  0
 24 66  1  0
 24 67  1  0
 25 68  1  0
 25 69  1  0
 25 70  1  0
 26 27  1  0
 26 71  1  0
 27 28  2  0
 27 29  1  0
 29 30  1  0
 30 31  1  0
 30 72  1  0
 30 73  1  0
 31 32  1  0
 31 43  1  0
 31 74  1  1
 32 33  2  0
 32 37  1  0
 33 34  1  0
 33 75  1  0
 34 35  2  0
 34 76  1  0
 35 36  1  0
 35 77  1  0
 36 37  2  0
 36 78  1  0
 37 38  1  0
 38 39  2  0
 38 43  1  0
 39 40  1  0
 39 79  1  0
 40 41  2  0
 40 80  1  0
 41 42  1  0
 41 81  1  0
 42 43  2  0
 42 82  1  0
 44 45  1  0
 44 47  2  0
 45 46  1  0
 46 83  1  0
 46 84  1  0
 46 85  1  0
 47 86  1  0
M  END

