
     RDKit          3D

 40 42  0  0  0  0  0  0  0  0999 V2000
    5.7211    2.3024   -0.9077 C   0  0  0  0  0  0  0  0  0  0  0  0
    4.9034    1.0325   -0.8493 C   0  0  0  0  0  0  0  0  0  0  0  0
    3.5420    1.0722   -1.2313 C   0  0  0  0  0  0  0  0  0  0  0  0
    2.7515   -0.0872   -1.1477 C   0  0  0  0  0  0  0  0  0  0  0  0
    3.3006   -1.2820   -0.7315 C   0  0  0  0  0  0  0  0  0  0  0  0
    4.6986   -1.3826   -0.3820 C   0  0  0  0  0  0  0  0  0  0  0  0
    5.2095   -2.6502   -0.0063 C   0  0  0  0  0  0  0  0  0  0  0  0
    6.3178   -2.8491    0.6562 O   0  0  0  0  0  0  0  0  0  0  0  0
    4.5912   -3.8618   -0.3538 N   0  0  0  0  0  0  0  0  0  0  0  0
    4.8249   -5.0816    0.4383 C   0  0  0  0  0  0  0  0  0  0  0  0
    4.4821   -6.2266   -0.5227 C   0  0  0  0  0  0  0  0  0  0  0  0
    3.5249   -5.5916   -1.5387 C   0  0  1  0  0  0  0  0  0  0  0  0
    3.3322   -6.3453   -2.8705 C   0  0  0  0  0  0  0  0  0  0  0  0
    1.8992   -5.9634   -3.3148 C   0  0  0  0  0  0  0  0  0  0  0  0
    1.3258   -5.2166   -2.2456 O   0  0  0  0  0  0  0  0  0  0  0  0
    2.0571   -5.4907   -1.0717 C   0  0  0  0  0  0  0  0  0  0  0  0
    4.1317   -4.1871   -1.7040 C   0  0  0  0  0  0  0  0  0  0  0  0
    5.4964   -0.1635   -0.4182 C   0  0  0  0  0  0  0  0  0  0  0  0
    6.9513   -0.1246   -0.0194 C   0  0  0  0  0  0  0  0  0  0  0  0
    5.1129    3.1470   -1.2629 H   0  0  0  0  0  0  0  0  0  0  0  0
    6.5873    2.2046   -1.5845 H   0  0  0  0  0  0  0  0  0  0  0  0
    6.1279    2.5755    0.0811 H   0  0  0  0  0  0  0  0  0  0  0  0
    3.1047    2.0135   -1.5728 H   0  0  0  0  0  0  0  0  0  0  0  0
    1.6880   -0.0467   -1.3983 H   0  0  0  0  0  0  0  0  0  0  0  0
    2.6470   -2.1467   -0.6100 H   0  0  0  0  0  0  0  0  0  0  0  0
    4.1647   -5.0777    1.3263 H   0  0  0  0  0  0  0  0  0  0  0  0
    5.8628   -5.1446    0.8017 H   0  0  0  0  0  0  0  0  0  0  0  0
    4.0490   -7.0965   -0.0055 H   0  0  0  0  0  0  0  0  0  0  0  0
    5.3911   -6.5708   -1.0430 H   0  0  0  0  0  0  0  0  0  0  0  0
    3.4104   -7.4295   -2.6935 H   0  0  0  0  0  0  0  0  0  0  0  0
    4.0968   -6.0796   -3.6162 H   0  0  0  0  0  0  0  0  0  0  0  0
    1.2924   -6.8642   -3.5246 H   0  0  0  0  0  0  0  0  0  0  0  0
    1.8815   -5.3316   -4.2173 H   0  0  0  0  0  0  0  0  0  0  0  0
    1.7397   -6.4487   -0.6062 H   0  0  0  0  0  0  0  0  0  0  0  0
    1.8731   -4.6801   -0.3502 H   0  0  0  0  0  0  0  0  0  0  0  0
    3.3984   -3.4565   -2.0760 H   0  0  0  0  0  0  0  0  0  0  0  0
    4.9850   -4.1993   -2.4115 H   0  0  0  0  0  0  0  0  0  0  0  0
    7.3254   -1.1103    0.2969 H   0  0  0  0  0  0  0  0  0  0  0  0
    7.1335    0.5753    0.8149 H   0  0  0  0  0  0  0  0  0  0  0  0
    7.6007    0.1967   -0.8540 H   0  0  0  0  0  0  0  0  0  0  0  0
  1  2  1  0
  1 20  1  0
  1 21  1  0
  1 22  1  0
  2  3  2  0
  2 18  1  0
  3  4  1  0
  3 23  1  0
  4  5  2  0
  4 24  1  0
  5  6  1  0
  5 25  1  0
  6  7  1  0
  6 18  2  0
  7  8  2  0
  7  9  1  0
  9 10  1  0
  9 17  1  0
 10 11  1  0
 10 26  1  0
 10 27  1  0
 12 11  1  1
 11 28  1  0
 11 29  1  0
 12 13  1  0
 12 16  1  0
 12 17  1  0
 13 14  1  0
 13 30  1  0
 13 31  1  0
 14 15  1  0
 14 32  1  0
 14 33  1  0
 15 16  1  0
 16 34  1  0
 16 35  1  0
 17 36  1  0
 17 37  1  0
 18 19  1  0
 19 38  1  0
 19 39  1  0
 19 40  1  0
M  END

