
     RDKit          3D

 98102  0  0  0  0  0  0  0  0999 V2000
    1.1169    0.0177    0.7076 C   0  0  0  0  0  0  0  0  0  0  0  0
    2.6554   -0.0342    0.6893 C   0  0  1  0  0  0  0  0  0  0  0  0
    3.2359    1.3477    0.3480 C   0  0  0  0  0  0  0  0  0  0  0  0
    3.3715   -0.8289    2.2908 Si  0  0  1  0  0  4  0  0  0  0  0  0
    2.7868    0.1572    3.7454 C   0  0  0  0  0  0  0  0  0  0  0  0
    2.3930    0.7347    4.7560 C   0  0  0  0  0  0  0  0  0  0  0  0
    1.9482    1.4138    5.9113 C   0  0  0  0  0  0  0  0  0  0  0  0
    1.9060    2.8480    5.9444 C   0  0  0  0  0  0  0  0  0  0  0  0
    2.2939    3.6195    4.8388 C   0  0  0  0  0  0  0  0  0  0  0  0
    2.2591    5.0332    4.8450 C   0  0  0  0  0  0  0  0  0  0  0  0
    2.6508    5.8084    3.7237 C   0  0  0  0  0  0  0  0  0  0  0  0
    2.6019    7.1950    3.7669 C   0  0  0  0  0  0  0  0  0  0  0  0
    2.1594    7.8562    4.9339 C   0  0  0  0  0  0  0  0  0  0  0  0
    1.7697    7.1249    6.0477 C   0  0  0  0  0  0  0  0  0  0  0  0
    1.8085    5.7071    6.0347 C   0  0  0  0  0  0  0  0  0  0  0  0
    1.4204    4.9277    7.1490 C   0  0  0  0  0  0  0  0  0  0  0  0
    1.4559    3.5253    7.1409 C   0  0  0  0  0  0  0  0  0  0  0  0
    1.0583    2.7583    8.2868 C   0  0  0  0  0  0  0  0  0  0  0  0
    0.6339    3.4002    9.4707 C   0  0  0  0  0  0  0  0  0  0  0  0
    0.2690    3.9641   10.4995 C   0  0  0  0  0  0  0  0  0  0  0  0
   -0.3101    4.6726   12.1109 Si  0  0  1  0  0  4  0  0  0  0  0  0
   -0.2159    3.2413   13.3840 C   0  0  1  0  0  0  0  0  0  0  0  0
   -0.6820    3.6380   14.7960 C   0  0  0  0  0  0  0  0  0  0  0  0
   -0.8788    1.9347   12.9126 C   0  0  0  0  0  0  0  0  0  0  0  0
    0.9018    6.0776   12.6064 C   0  0  1  0  0  0  0  0  0  0  0  0
    2.3271    5.5645   12.8747 C   0  0  0  0  0  0  0  0  0  0  0  0
    0.9179    7.2253   11.5818 C   0  0  0  0  0  0  0  0  0  0  0  0
   -2.0518    5.4167   11.7817 C   0  0  1  0  0  0  0  0  0  0  0  0
   -3.0913    4.3821   11.3184 C   0  0  0  0  0  0  0  0  0  0  0  0
   -2.5951    6.2677   12.9434 C   0  0  0  0  0  0  0  0  0  0  0  0
    1.0885    1.3191    8.2535 C   0  0  0  0  0  0  0  0  0  0  0  0
    0.6999    0.6342    9.3344 N   0  0  0  0  0  0  0  0  0  0  0  0
    0.7450   -0.7168    9.2754 C   0  0  0  0  0  0  0  0  0  0  0  0
    0.3454   -1.4924   10.3945 C   0  0  0  0  0  0  0  0  0  0  0  0
    0.3886   -2.8772   10.3444 C   0  0  0  0  0  0  0  0  0  0  0  0
    0.8318   -3.5394    9.1756 C   0  0  0  0  0  0  0  0  0  0  0  0
    1.2293   -2.8129    8.0637 C   0  0  0  0  0  0  0  0  0  0  0  0
    1.1983   -1.3944    8.0795 C   0  0  0  0  0  0  0  0  0  0  0  0
    1.5873   -0.6943    6.9890 N   0  0  0  0  0  0  0  0  0  0  0  0
    1.5399    0.6405    7.0550 C   0  0  0  0  0  0  0  0  0  0  0  0
    2.6059   -2.5786    2.4774 C   0  0  1  0  0  0  0  0  0  0  0  0
    3.0306   -3.5494    1.3609 C   0  0  0  0  0  0  0  0  0  0  0  0
    2.7613   -3.2047    3.8750 C   0  0  0  0  0  0  0  0  0  0  0  0
    5.2987   -0.7788    2.2641 C   0  0  1  0  0  0  0  0  0  0  0  0
    5.8660    0.5956    2.6660 C   0  0  0  0  0  0  0  0  0  0  0  0
    5.9707   -1.8807    3.1020 C   0  0  0  0  0  0  0  0  0  0  0  0
    0.7270    0.4345   -0.2376 H   0  0  0  0  0  0  0  0  0  0  0  0
    0.7478    0.6574    1.5267 H   0  0  0  0  0  0  0  0  0  0  0  0
    0.6614   -0.9762    0.8376 H   0  0  0  0  0  0  0  0  0  0  0  0
    2.9597   -0.7275   -0.1194 H   0  0  0  0  0  0  0  0  0  0  0  0
    3.0330    2.0806    1.1478 H   0  0  0  0  0  0  0  0  0  0  0  0
    2.7818    1.7449   -0.5770 H   0  0  0  0  0  0  0  0  0  0  0  0
    4.3243    1.3188    0.1889 H   0  0  0  0  0  0  0  0  0  0  0  0
    2.6359    3.1045    3.9387 H   0  0  0  0  0  0  0  0  0  0  0  0
    2.9933    5.2968    2.8204 H   0  0  0  0  0  0  0  0  0  0  0  0
    2.9067    7.7789    2.8952 H   0  0  0  0  0  0  0  0  0  0  0  0
    2.1243    8.9478    4.9586 H   0  0  0  0  0  0  0  0  0  0  0  0
    1.4274    7.6364    6.9511 H   0  0  0  0  0  0  0  0  0  0  0  0
    1.0775    5.4344    8.0536 H   0  0  0  0  0  0  0  0  0  0  0  0
    0.8713    3.0426   13.4384 H   0  0  0  0  0  0  0  0  0  0  0  0
   -1.7694    3.8169   14.8301 H   0  0  0  0  0  0  0  0  0  0  0  0
   -0.1853    4.5498   15.1668 H   0  0  0  0  0  0  0  0  0  0  0  0
   -0.4674    2.8323   15.5198 H   0  0  0  0  0  0  0  0  0  0  0  0
   -1.9754    2.0286   12.8542 H   0  0  0  0  0  0  0  0  0  0  0  0
   -0.6645    1.1171   13.6239 H   0  0  0  0  0  0  0  0  0  0  0  0
   -0.5133    1.6232   11.9215 H   0  0  0  0  0  0  0  0  0  0  0  0
    0.5044    6.4820   13.5573 H   0  0  0  0  0  0  0  0  0  0  0  0
    2.7618    5.0961   11.9756 H   0  0  0  0  0  0  0  0  0  0  0  0
    2.3583    4.8172   13.6827 H   0  0  0  0  0  0  0  0  0  0  0  0
    2.9951    6.3928   13.1695 H   0  0  0  0  0  0  0  0  0  0  0  0
    1.2772    6.8758   10.5988 H   0  0  0  0  0  0  0  0  0  0  0  0
    1.5943    8.0354   11.9064 H   0  0  0  0  0  0  0  0  0  0  0  0
   -0.0780    7.6711   11.4308 H   0  0  0  0  0  0  0  0  0  0  0  0
   -1.8683    6.0982   10.9290 H   0  0  0  0  0  0  0  0  0  0  0  0
   -3.3765    3.7013   12.1367 H   0  0  0  0  0  0  0  0  0  0  0  0
   -2.7203    3.7629   10.4868 H   0  0  0  0  0  0  0  0  0  0  0  0
   -4.0156    4.8814   10.9783 H   0  0  0  0  0  0  0  0  0  0  0  0
   -2.7995    5.6557   13.8369 H   0  0  0  0  0  0  0  0  0  0  0  0
   -3.5467    6.7514   12.6606 H   0  0  0  0  0  0  0  0  0  0  0  0
   -1.9004    7.0680   13.2447 H   0  0  0  0  0  0  0  0  0  0  0  0
    0.0071   -0.9621   11.2868 H   0  0  0  0  0  0  0  0  0  0  0  0
    0.0783   -3.4633   11.2132 H   0  0  0  0  0  0  0  0  0  0  0  0
    0.8602   -4.6318    9.1510 H   0  0  0  0  0  0  0  0  0  0  0  0
    1.5741   -3.3045    7.1520 H   0  0  0  0  0  0  0  0  0  0  0  0
    1.5269   -2.3762    2.3414 H   0  0  0  0  0  0  0  0  0  0  0  0
    4.1041   -3.7959    1.4151 H   0  0  0  0  0  0  0  0  0  0  0  0
    2.8367   -3.1454    0.3538 H   0  0  0  0  0  0  0  0  0  0  0  0
    2.4792   -4.5027    1.4399 H   0  0  0  0  0  0  0  0  0  0  0  0
    3.8035   -3.4931    4.0838 H   0  0  0  0  0  0  0  0  0  0  0  0
    2.1522   -4.1229    3.9530 H   0  0  0  0  0  0  0  0  0  0  0  0
    2.4380   -2.5167    4.6719 H   0  0  0  0  0  0  0  0  0  0  0  0
    5.5585   -0.9585    1.2021 H   0  0  0  0  0  0  0  0  0  0  0  0
    5.6535    0.8138    3.7252 H   0  0  0  0  0  0  0  0  0  0  0  0
    5.4507    1.4231    2.0727 H   0  0  0  0  0  0  0  0  0  0  0  0
    6.9626    0.6151    2.5381 H   0  0  0  0  0  0  0  0  0  0  0  0
    5.7157   -1.7865    4.1704 H   0  0  0  0  0  0  0  0  0  0  0  0
    7.0698   -1.8088    3.0233 H   0  0  0  0  0  0  0  0  0  0  0  0
    5.6860   -2.8932    2.7797 H   0  0  0  0  0  0  0  0  0  0  0  0
  1  2  1  0
  1 47  1  0
  1 48  1  0
  1 49  1  0
  2  3  1  0
  2  4  1  0
  2 50  1  6
  3 51  1  0
  3 52  1  0
  3 53  1  0
  4  5  1  1
  4 41  1  0
  4 44  1  0
  5  6  3  0
  6  7  1  0
  7  8  2  0
  7 40  1  0
  8  9  1  0
  8 17  1  0
  9 10  2  0
  9 54  1  0
 10 11  1  0
 10 15  1  0
 11 12  2  0
 11 55  1  0
 12 13  1  0
 12 56  1  0
 13 14  2  0
 13 57  1  0
 14 15  1  0
 14 58  1  0
 15 16  2  0
 16 17  1  0
 16 59  1  0
 17 18  2  0
 18 19  1  0
 18 31  1  0
 19 20  3  0
 21 20  1  6
 21 22  1  0
 21 25  1  0
 21 28  1  0
 22 23  1  0
 22 24  1  0
 22 60  1  1
 23 61  1  0
 23 62  1  0
 23 63  1  0
 24 64  1  0
 24 65  1  0
 24 66  1  0
 25 26  1  0
 25 27  1  0
 25 67  1  1
 26 68  1  0
 26 69  1  0
 26 70  1  0
 27 71  1  0
 27 72  1  0
 27 73  1  0
 28 29  1  0
 28 30  1  0
 28 74  1  6
 29 75  1  0
 29 76  1  0
 29 77  1  0
 30 78  1  0
 30 79  1  0
 30 80  1  0
 31 32  1  0
 31 40  2  0
 32 33  2  0
 33 34  1  0
 33 38  1  0
 34 35  2  0
 34 81  1  0
 35 36  1  0
 35 82  1  0
 36 37  2  0
 36 83  1  0
 37 38  1  0
 37 84  1  0
 38 39  2  0
 39 40  1  0
 41 42  1  0
 41 43  1  0
 41 85  1  6
 42 86  1  0
 42 87  1  0
 42 88  1  0
 43 89  1  0
 43 90  1  0
 43 91  1  0
 44 45  1  0
 44 46  1  0
 44 92  1  6
 45 93  1  0
 45 94  1  0
 45 95  1  0
 46 96  1  0
 46 97  1  0
 46 98  1  0
M  END

