
     RDKit          3D

 46 46  0  0  0  0  0  0  0  0999 V2000
    3.4518   -0.8411    0.3880 C   0  0  0  0  0  0  0  0  0  0  0  0
    2.5600    0.2887   -0.1397 C   0  0  1  0  0  0  0  0  0  0  0  0
    2.2486    0.0845   -1.6330 C   0  0  0  0  0  0  0  0  0  0  0  0
    1.2218    0.4105    0.6555 C   0  0  0  0  0  0  0  0  0  0  0  0
    1.3541    0.6795    2.1517 C   0  0  0  0  0  0  0  0  0  0  0  0
    0.0175    0.5021    2.8746 C   0  0  0  0  0  0  0  0  0  0  0  0
   -0.9949    0.1906    2.3035 O   0  0  0  0  0  0  0  0  0  0  0  0
    0.0443    0.7162    4.1934 O   0  0  0  0  0  0  0  0  0  0  0  0
    3.2352    1.5951    0.0105 N   0  0  0  0  0  0  0  0  0  0  0  0
    4.6153    1.7679    0.4481 C   0  0  0  0  0  0  0  0  0  0  0  0
    5.3645    1.6252   -0.5064 O   0  0  0  0  0  0  0  0  0  0  0  0
    4.8244    2.0301    1.7125 N   0  0  0  0  0  0  0  0  0  0  0  0
    6.1407    2.2729    2.3554 C   0  0  1  0  0  0  0  0  0  0  0  0
    6.1046    3.4336    3.2971 C   0  0  0  0  0  0  0  0  0  0  0  0
    7.2707    4.2919    3.4267 C   0  0  0  0  0  0  0  0  0  0  0  0
    7.4070    5.1691    4.4793 C   0  0  0  0  0  0  0  0  0  0  0  0
    6.4156    5.2888    5.4928 C   0  0  0  0  0  0  0  0  0  0  0  0
    5.2363    4.4805    5.3728 C   0  0  0  0  0  0  0  0  0  0  0  0
    5.1338    3.5821    4.3427 C   0  0  0  0  0  0  0  0  0  0  0  0
    3.9305    2.7971    4.1919 O   0  0  0  0  0  0  0  0  0  0  0  0
    3.4769    2.1518    5.2793 C   0  0  1  0  0  0  0  0  0  0  0  0
    2.5100    2.8534    5.9187 F   0  0  0  0  0  0  0  0  0  0  0  0
    2.8353    1.0005    4.8394 F   0  0  0  0  0  0  0  0  0  0  0  0
    6.5893    0.9180    2.9485 C   0  0  1  0  0  0  0  0  0  0  0  0
    6.5845   -0.0625    2.0058 F   0  0  0  0  0  0  0  0  0  0  0  0
    7.8230    0.9989    3.4353 F   0  0  0  0  0  0  0  0  0  0  0  0
    5.7710    0.4931    3.9329 F   0  0  0  0  0  0  0  0  0  0  0  0
    2.8918   -1.7845    0.3341 H   0  0  0  0  0  0  0  0  0  0  0  0
    3.7658   -0.6890    1.4282 H   0  0  0  0  0  0  0  0  0  0  0  0
    4.3588   -0.9409   -0.2243 H   0  0  0  0  0  0  0  0  0  0  0  0
    1.7073   -0.8625   -1.7634 H   0  0  0  0  0  0  0  0  0  0  0  0
    3.1775    0.0452   -2.2200 H   0  0  0  0  0  0  0  0  0  0  0  0
    1.6109    0.8916   -2.0275 H   0  0  0  0  0  0  0  0  0  0  0  0
    0.6808   -0.5341    0.4981 H   0  0  0  0  0  0  0  0  0  0  0  0
    0.5926    1.1874    0.1930 H   0  0  0  0  0  0  0  0  0  0  0  0
    1.7055    1.7042    2.3600 H   0  0  0  0  0  0  0  0  0  0  0  0
    2.0856    0.0094    2.6288 H   0  0  0  0  0  0  0  0  0  0  0  0
    0.9410    0.9226    4.5128 H   0  0  0  0  0  0  0  0  0  0  0  0
    2.9154    2.3318   -0.6219 H   0  0  0  0  0  0  0  0  0  0  0  0
    4.0327    2.1737    2.3436 H   0  0  0  0  0  0  0  0  0  0  0  0
    6.8746    2.4781    1.5631 H   0  0  0  0  0  0  0  0  0  0  0  0
    8.0517    4.2358    2.6630 H   0  0  0  0  0  0  0  0  0  0  0  0
    8.2978    5.8026    4.5260 H   0  0  0  0  0  0  0  0  0  0  0  0
    6.5327    5.9764    6.3286 H   0  0  0  0  0  0  0  0  0  0  0  0
    4.3985    4.6145    6.0598 H   0  0  0  0  0  0  0  0  0  0  0  0
    4.2637    1.8698    5.9946 H   0  0  0  0  0  0  0  0  0  0  0  0
  1  2  1  0
  1 28  1  0
  1 29  1  0
  1 30  1  0
  2  3  1  0
  2  4  1  0
  2  9  1  1
  3 31  1  0
  3 32  1  0
  3 33  1  0
  4  5  1  0
  4 34  1  0
  4 35  1  0
  5  6  1  0
  5 36  1  0
  5 37  1  0
  6  7  2  0
  6  8  1  0
  8 38  1  0
  9 10  1  0
  9 39  1  0
 10 11  2  0
 10 12  1  0
 12 13  1  0
 12 40  1  0
 13 14  1  0
 13 24  1  0
 13 41  1  6
 14 15  2  0
 14 19  1  0
 15 16  1  0
 15 42  1  0
 16 17  2  0
 16 43  1  0
 17 18  1  0
 17 44  1  0
 18 19  2  0
 18 45  1  0
 19 20  1  0
 20 21  1  0
 21 22  1  0
 21 23  1  0
 21 46  1  1
 24 25  1  6
 24 26  1  0
 24 27  1  0
M  END

