
     RDKit          3D

 43 46  0  0  0  0  0  0  0  0999 V2000
    1.4286   -1.5276   -2.3877 O   0  0  0  0  0  0  0  0  0  0  0  0
    2.5878   -1.6000   -2.7448 C   0  0  0  0  0  0  0  0  0  0  0  0
    3.3605   -0.4968   -2.9992 N   0  0  0  0  0  0  0  0  0  0  0  0
    2.9422    0.8213   -2.8728 C   0  0  0  0  0  0  0  0  0  0  0  0
    3.7369    1.8130   -3.1168 N   0  0  0  0  0  0  0  0  0  0  0  0
    3.1449    3.0309   -2.9616 N   0  0  0  0  0  0  0  0  0  0  0  0
    1.8957    2.9443   -2.5849 C   0  0  0  0  0  0  0  0  0  0  0  0
    1.1015    4.0162   -2.3096 N   0  0  0  0  0  0  0  0  0  0  0  0
    1.5601    5.3747   -2.5664 C   0  0  0  0  0  0  0  0  0  0  0  0
    1.4970    5.7965   -4.0503 C   0  0  0  0  0  0  0  0  0  0  0  0
    2.1641    7.1154   -4.3085 C   0  0  0  0  0  0  0  0  0  0  0  0
    1.5636    8.3232   -4.5847 C   0  0  0  0  0  0  0  0  0  0  0  0
    2.5222    9.3065   -4.7403 N   0  0  0  0  0  0  0  0  0  0  0  0
    2.3350   10.2741   -4.9634 H   0  0  0  0  0  0  0  0  0  0  0  0
    3.7731    8.7541   -4.5678 C   0  0  0  0  0  0  0  0  0  0  0  0
    5.0473    9.3362   -4.6333 C   0  0  0  0  0  0  0  0  0  0  0  0
    6.1454    8.5081   -4.4156 C   0  0  0  0  0  0  0  0  0  0  0  0
    5.9832    7.1320   -4.1398 C   0  0  0  0  0  0  0  0  0  0  0  0
    4.7188    6.5541   -4.0751 C   0  0  0  0  0  0  0  0  0  0  0  0
    3.5884    7.3687   -4.2901 C   0  0  0  0  0  0  0  0  0  0  0  0
    1.3107    1.2783   -2.3904 S   0  0  0  0  0  0  0  0  0  0  0  0
    3.2940   -2.9243   -2.9526 C   0  0  0  0  0  0  0  0  0  0  0  0
    3.0483   -3.6992   -4.0993 C   0  0  0  0  0  0  0  0  0  0  0  0
    2.0081   -3.0783   -5.3566 Cl  0  0  0  0  0  0  0  0  0  0  0  0
    3.6338   -4.9560   -4.2707 C   0  0  0  0  0  0  0  0  0  0  0  0
    4.4788   -5.4578   -3.2796 C   0  0  0  0  0  0  0  0  0  0  0  0
    4.7453   -4.7142   -2.1295 C   0  0  0  0  0  0  0  0  0  0  0  0
    4.1529   -3.4579   -1.9771 C   0  0  0  0  0  0  0  0  0  0  0  0
    4.4947   -2.5383   -0.5289 Cl  0  0  0  0  0  0  0  0  0  0  0  0
    4.3303   -0.6053   -3.2817 H   0  0  0  0  0  0  0  0  0  0  0  0
    0.1040    3.8520   -2.2611 H   0  0  0  0  0  0  0  0  0  0  0  0
    2.5967    5.4451   -2.2089 H   0  0  0  0  0  0  0  0  0  0  0  0
    0.9556    6.0604   -1.9518 H   0  0  0  0  0  0  0  0  0  0  0  0
    0.4429    5.8329   -4.3747 H   0  0  0  0  0  0  0  0  0  0  0  0
    1.9896    5.0096   -4.6451 H   0  0  0  0  0  0  0  0  0  0  0  0
    0.5057    8.5591   -4.6932 H   0  0  0  0  0  0  0  0  0  0  0  0
    5.1764   10.4004   -4.8480 H   0  0  0  0  0  0  0  0  0  0  0  0
    7.1522    8.9316   -4.4593 H   0  0  0  0  0  0  0  0  0  0  0  0
    6.8685    6.5128   -3.9746 H   0  0  0  0  0  0  0  0  0  0  0  0
    4.6012    5.4883   -3.8591 H   0  0  0  0  0  0  0  0  0  0  0  0
    3.4230   -5.5266   -5.1760 H   0  0  0  0  0  0  0  0  0  0  0  0
    4.9372   -6.4414   -3.4064 H   0  0  0  0  0  0  0  0  0  0  0  0
    5.4036   -5.0958   -1.3481 H   0  0  0  0  0  0  0  0  0  0  0  0
  1  2  2  0
  2  3  1  0
  2 22  1  0
  3  4  1  0
  3 30  1  0
  4  5  2  0
  4 21  1  0
  5  6  1  0
  6  7  2  0
  7  8  1  0
  7 21  1  0
  8  9  1  0
  8 31  1  0
  9 10  1  0
  9 32  1  0
  9 33  1  0
 10 11  1  0
 10 34  1  0
 10 35  1  0
 11 12  2  0
 11 20  1  0
 12 13  1  0
 12 36  1  0
 13 14  1  0
 13 15  1  0
 15 16  1  0
 15 20  2  0
 16 17  2  0
 16 37  1  0
 17 18  1  0
 17 38  1  0
 18 19  2  0
 18 39  1  0
 19 20  1  0
 19 40  1  0
 22 23  2  0
 22 28  1  0
 23 24  1  0
 23 25  1  0
 25 26  2  0
 25 41  1  0
 26 27  1  0
 26 42  1  0
 27 28  2  0
 27 43  1  0
 28 29  1  0
M  END

