
     RDKit          3D

 33 34  0  0  0  0  0  0  0  0999 V2000
    0.9040   -0.1030    0.0541 C   0  0  0  0  0  0  0  0  0  0  0  0
    2.4269   -0.0801    0.1511 C   0  0  1  0  0  0  0  0  0  0  0  0
    3.0116    1.1081    0.9347 C   0  0  0  0  0  0  0  0  0  0  0  0
    4.4466    0.6657    1.2786 C   0  0  2  0  0  0  0  0  0  0  0  0
    5.4773    1.0712    0.2150 C   0  0  0  0  0  0  0  0  0  0  0  0
    4.3019   -0.7910    1.4118 N   0  0  0  0  0  0  0  0  0  0  0  0
    5.1466   -1.6003    2.1124 C   0  0  0  0  0  0  0  0  0  0  0  0
    6.3266   -1.1213    2.7467 C   0  0  0  0  0  0  0  0  0  0  0  0
    7.1146   -2.0212    3.4442 C   0  0  0  0  0  0  0  0  0  0  0  0
    6.7550   -3.3837    3.5268 C   0  0  0  0  0  0  0  0  0  0  0  0
    7.5546   -4.3874    4.2623 C   0  0  0  0  0  0  0  0  0  0  0  0
    8.8618   -4.0712    4.4555 N   0  0  0  0  0  0  0  0  0  0  0  0
    6.9238   -5.8072    4.8665 S   0  0  0  0  0  0  0  0  0  0  0  0
    5.5606   -3.7421    2.8716 C   0  0  0  0  0  0  0  0  0  0  0  0
    4.7945   -2.9015    2.1926 N   0  0  0  0  0  0  0  0  0  0  0  0
    3.0303   -1.2897    0.8814 C   0  0  0  0  0  0  0  0  0  0  0  0
    0.5251    0.7828   -0.4807 H   0  0  0  0  0  0  0  0  0  0  0  0
    0.4417   -0.1150    1.0555 H   0  0  0  0  0  0  0  0  0  0  0  0
    0.5500   -0.9946   -0.4882 H   0  0  0  0  0  0  0  0  0  0  0  0
    2.8408   -0.0553   -0.8728 H   0  0  0  0  0  0  0  0  0  0  0  0
    2.4336    1.2564    1.8630 H   0  0  0  0  0  0  0  0  0  0  0  0
    2.9862    2.0547    0.3732 H   0  0  0  0  0  0  0  0  0  0  0  0
    4.7550    1.0924    2.2490 H   0  0  0  0  0  0  0  0  0  0  0  0
    5.1696    0.7331   -0.7869 H   0  0  0  0  0  0  0  0  0  0  0  0
    6.4651    0.6338    0.4239 H   0  0  0  0  0  0  0  0  0  0  0  0
    5.5901    2.1671    0.1890 H   0  0  0  0  0  0  0  0  0  0  0  0
    6.6056   -0.0690    2.7061 H   0  0  0  0  0  0  0  0  0  0  0  0
    8.0022   -1.6495    3.9635 H   0  0  0  0  0  0  0  0  0  0  0  0
    9.3203   -3.3577    3.9014 H   0  0  0  0  0  0  0  0  0  0  0  0
    9.4405   -4.7579    4.9258 H   0  0  0  0  0  0  0  0  0  0  0  0
    5.2358   -4.7870    2.9199 H   0  0  0  0  0  0  0  0  0  0  0  0
    2.3775   -1.6326    1.7064 H   0  0  0  0  0  0  0  0  0  0  0  0
    3.1882   -2.1614    0.2289 H   0  0  0  0  0  0  0  0  0  0  0  0
  1  2  1  0
  1 17  1  0
  1 18  1  0
  1 19  1  0
  2  3  1  0
  2 16  1  0
  2 20  1  6
  3  4  1  0
  3 21  1  0
  3 22  1  0
  4  5  1  0
  4  6  1  0
  4 23  1  1
  5 24  1  0
  5 25  1  0
  5 26  1  0
  6  7  1  0
  6 16  1  0
  7  8  2  0
  7 15  1  0
  8  9  1  0
  8 27  1  0
  9 10  2  0
  9 28  1  0
 10 11  1  0
 10 14  1  0
 11 12  1  0
 11 13  2  0
 12 29  1  0
 12 30  1  0
 14 15  2  0
 14 31  1  0
 16 32  1  0
 16 33  1  0
M  END

