
     RDKit          3D

 37 38  0  0  0  0  0  0  0  0999 V2000
    0.8892    0.2706   -0.2327 C   0  0  0  0  0  0  0  0  0  0  0  0
    2.3756    0.0496    0.0644 C   0  0  1  0  0  0  0  0  0  0  0  0
    3.1770    0.0033   -1.2493 C   0  0  0  0  0  0  0  0  0  0  0  0
    2.9572    1.1100    1.0302 C   0  0  0  0  0  0  0  0  0  0  0  0
    4.1801    0.4380    1.6655 C   0  0  0  0  0  0  0  0  0  0  0  0
    3.9013   -1.0054    1.5476 N   0  0  0  0  0  0  0  0  0  0  0  0
    4.8518   -1.8644    2.0173 C   0  0  0  0  0  0  0  0  0  0  0  0
    5.8598   -1.4227    2.5510 O   0  0  0  0  0  0  0  0  0  0  0  0
    4.6674   -3.4129    1.8709 C   0  0  1  0  0  0  0  0  0  0  0  0
    5.0967   -3.8324    0.4582 C   0  0  1  0  0  0  0  0  0  0  0  0
    6.3832   -3.5287    0.2305 F   0  0  0  0  0  0  0  0  0  0  0  0
    4.9504   -5.1517    0.2628 F   0  0  0  0  0  0  0  0  0  0  0  0
    4.3791   -3.2231   -0.5171 F   0  0  0  0  0  0  0  0  0  0  0  0
    5.5838   -4.1471    2.9030 C   0  0  0  0  0  0  0  0  0  0  0  0
    4.6076   -4.7427    3.9188 C   0  0  0  0  0  0  0  0  0  0  0  0
    3.4725   -5.0902    3.0753 N   0  0  0  0  0  0  0  0  0  0  0  0
    3.2370   -3.9337    2.2262 C   0  0  0  0  0  0  0  0  0  0  0  0
    2.6142   -1.2378    0.8861 C   0  0  0  0  0  0  0  0  0  0  0  0
    0.7349    1.2185   -0.7733 H   0  0  0  0  0  0  0  0  0  0  0  0
    0.2925    0.3109    0.6934 H   0  0  0  0  0  0  0  0  0  0  0  0
    0.4830   -0.5384   -0.8622 H   0  0  0  0  0  0  0  0  0  0  0  0
    3.0981    0.9625   -1.7861 H   0  0  0  0  0  0  0  0  0  0  0  0
    2.7957   -0.7880   -1.9145 H   0  0  0  0  0  0  0  0  0  0  0  0
    4.2438   -0.2021   -1.0740 H   0  0  0  0  0  0  0  0  0  0  0  0
    2.2083    1.3484    1.8037 H   0  0  0  0  0  0  0  0  0  0  0  0
    3.2140    2.0520    0.5219 H   0  0  0  0  0  0  0  0  0  0  0  0
    4.3355    0.7181    2.7191 H   0  0  0  0  0  0  0  0  0  0  0  0
    5.1222    0.6718    1.1432 H   0  0  0  0  0  0  0  0  0  0  0  0
    6.3073   -3.4450    3.3313 H   0  0  0  0  0  0  0  0  0  0  0  0
    6.1327   -4.9584    2.4074 H   0  0  0  0  0  0  0  0  0  0  0  0
    4.3645   -3.9887    4.7018 H   0  0  0  0  0  0  0  0  0  0  0  0
    5.0148   -5.6309    4.4276 H   0  0  0  0  0  0  0  0  0  0  0  0
    2.6428   -5.3635    3.5983 H   0  0  0  0  0  0  0  0  0  0  0  0
    2.6898   -3.1237    2.7503 H   0  0  0  0  0  0  0  0  0  0  0  0
    2.6453   -4.2069    1.3385 H   0  0  0  0  0  0  0  0  0  0  0  0
    1.8055   -1.3558    1.6320 H   0  0  0  0  0  0  0  0  0  0  0  0
    2.6328   -2.1329    0.2570 H   0  0  0  0  0  0  0  0  0  0  0  0
  2  1  1  6
  1 19  1  0
  1 20  1  0
  1 21  1  0
  2  3  1  0
  2  4  1  0
  2 18  1  0
  3 22  1  0
  3 23  1  0
  3 24  1  0
  4  5  1  0
  4 25  1  0
  4 26  1  0
  5  6  1  0
  5 27  1  0
  5 28  1  0
  6  7  1  0
  6 18  1  0
  7  8  2  0
  9  7  1  6
  9 10  1  0
  9 14  1  0
  9 17  1  0
 10 11  1  6
 10 12  1  0
 10 13  1  0
 14 15  1  0
 14 29  1  0
 14 30  1  0
 15 16  1  0
 15 31  1  0
 15 32  1  0
 16 17  1  0
 16 33  1  0
 17 34  1  0
 17 35  1  0
 18 36  1  0
 18 37  1  0
M  END

