
     RDKit          3D

 33 34  0  0  0  0  0  0  0  0999 V2000
    3.1340   -1.6388   -0.4331 C   0  0  0  0  0  0  0  0  0  0  0  0
    2.5894   -0.2681   -0.0178 C   0  0  1  0  0  0  0  0  0  0  0  0
    2.7986    0.7895   -1.1066 C   0  0  0  0  0  0  0  0  0  0  0  0
    1.1120   -0.3649    0.3676 C   0  0  0  0  0  0  0  0  0  0  0  0
    3.2244    0.1649    1.2305 O   0  0  0  0  0  0  0  0  0  0  0  0
    4.5494    0.3894    1.3151 C   0  0  0  0  0  0  0  0  0  0  0  0
    5.3663    0.2434    0.4242 O   0  0  0  0  0  0  0  0  0  0  0  0
    4.8761    0.8344    2.5656 N   0  0  0  0  0  0  0  0  0  0  0  0
    6.2607    0.9062    2.9742 C   0  0  1  0  0  0  0  0  0  0  0  0
    7.1150    1.9577    2.2183 C   0  0  0  0  0  0  0  0  0  0  0  0
    7.9565    2.6064    3.2114 O   0  0  0  0  0  0  0  0  0  0  0  0
    7.4243    2.3604    4.4257 C   0  0  0  0  0  0  0  0  0  0  0  0
    7.7759    2.9438    5.6396 C   0  0  0  0  0  0  0  0  0  0  0  0
    7.0358    2.5296    6.7572 C   0  0  0  0  0  0  0  0  0  0  0  0
    6.0058    1.5918    6.6173 C   0  0  0  0  0  0  0  0  0  0  0  0
    5.6852    1.0270    5.4404 N   0  0  0  0  0  0  0  0  0  0  0  0
    6.3949    1.4095    4.3948 C   0  0  0  0  0  0  0  0  0  0  0  0
    2.5821   -2.0073   -1.3119 H   0  0  0  0  0  0  0  0  0  0  0  0
    3.0013   -2.3668    0.3827 H   0  0  0  0  0  0  0  0  0  0  0  0
    4.2006   -1.5793   -0.6843 H   0  0  0  0  0  0  0  0  0  0  0  0
    2.2313    0.5112   -2.0085 H   0  0  0  0  0  0  0  0  0  0  0  0
    3.8599    0.8788   -1.3709 H   0  0  0  0  0  0  0  0  0  0  0  0
    2.4335    1.7702   -0.7632 H   0  0  0  0  0  0  0  0  0  0  0  0
    0.5129   -0.6894   -0.4967 H   0  0  0  0  0  0  0  0  0  0  0  0
    0.7355    0.6118    0.7073 H   0  0  0  0  0  0  0  0  0  0  0  0
    0.9713   -1.0908    1.1828 H   0  0  0  0  0  0  0  0  0  0  0  0
    4.1822    0.7653    3.3044 H   0  0  0  0  0  0  0  0  0  0  0  0
    6.7371   -0.0905    2.8863 H   0  0  0  0  0  0  0  0  0  0  0  0
    6.4625    2.7199    1.7621 H   0  0  0  0  0  0  0  0  0  0  0  0
    7.7643    1.5276    1.4478 H   0  0  0  0  0  0  0  0  0  0  0  0
    8.5717    3.6878    5.7091 H   0  0  0  0  0  0  0  0  0  0  0  0
    7.2531    2.9475    7.7430 H   0  0  0  0  0  0  0  0  0  0  0  0
    5.4176    1.2833    7.4876 H   0  0  0  0  0  0  0  0  0  0  0  0
  1  2  1  0
  1 18  1  0
  1 19  1  0
  1 20  1  0
  2  3  1  0
  2  4  1  0
  2  5  1  1
  3 21  1  0
  3 22  1  0
  3 23  1  0
  4 24  1  0
  4 25  1  0
  4 26  1  0
  5  6  1  0
  6  7  2  0
  6  8  1  0
  8  9  1  0
  8 27  1  0
  9 10  1  0
  9 17  1  0
  9 28  1  1
 10 11  1  0
 10 29  1  0
 10 30  1  0
 11 12  1  0
 12 13  2  0
 12 17  1  0
 13 14  1  0
 13 31  1  0
 14 15  2  0
 14 32  1  0
 15 16  1  0
 15 33  1  0
 16 17  2  0
M  END

