
     RDKit          3D

 54 57  0  0  0  0  0  0  0  0999 V2000
    1.9056    0.5712    3.1216 C   0  0  0  0  0  0  0  0  0  0  0  0
    3.0493    0.4255    2.1622 C   0  0  0  0  0  0  0  0  0  0  0  0
    3.3623    1.3528    1.1300 C   0  0  0  0  0  0  0  0  0  0  0  0
    4.5974    1.1648    0.4108 C   0  0  0  0  0  0  0  0  0  0  0  0
    5.3463   -0.0004    0.6005 C   0  0  0  0  0  0  0  0  0  0  0  0
    6.4801   -0.3401   -0.0994 N   0  0  0  0  0  0  0  0  0  0  0  0
    6.7793    0.4321   -1.2942 C   0  0  0  0  0  0  0  0  0  0  0  0
    7.6120   -1.1042    0.4779 C   0  0  1  0  0  0  0  0  0  0  0  0
    8.2432   -0.4896    1.7550 C   0  0  0  0  0  0  0  0  0  0  0  0
    7.7160   -1.0533    3.0791 C   0  0  0  0  0  0  0  0  0  0  0  0
    7.7615   -2.5149    3.0665 N   0  0  0  0  0  0  0  0  0  0  0  0
    8.4863   -3.1710    4.0284 C   0  0  0  0  0  0  0  0  0  0  0  0
    9.0915   -2.5747    4.9083 O   0  0  0  0  0  0  0  0  0  0  0  0
    8.5145   -4.7153    3.9844 C   0  0  1  0  0  0  0  0  0  0  0  0
    9.7402   -5.2508    4.7437 C   0  0  0  0  0  0  0  0  0  0  0  0
    7.2305   -5.2676    4.5333 C   0  0  0  0  0  0  0  0  0  0  0  0
    6.4366   -4.8934    5.5773 C   0  0  0  0  0  0  0  0  0  0  0  0
    5.3649   -5.8590    5.6428 C   0  0  0  0  0  0  0  0  0  0  0  0
    4.2351   -6.0627    6.4545 C   0  0  0  0  0  0  0  0  0  0  0  0
    3.4103   -7.1545    6.1850 C   0  0  0  0  0  0  0  0  0  0  0  0
    3.6899   -8.0416    5.1257 C   0  0  0  0  0  0  0  0  0  0  0  0
    4.8058   -7.8600    4.3052 C   0  0  0  0  0  0  0  0  0  0  0  0
    5.6173   -6.7657    4.5912 C   0  0  0  0  0  0  0  0  0  0  0  0
    6.7497   -6.4015    3.9219 O   0  0  0  0  0  0  0  0  0  0  0  0
    6.9383   -3.1131    2.0201 C   0  0  0  0  0  0  0  0  0  0  0  0
    7.3828   -2.6326    0.6313 C   0  0  0  0  0  0  0  0  0  0  0  0
    4.8436   -0.9037    1.5068 N   0  0  0  0  0  0  0  0  0  0  0  0
    3.8789   -0.5877    2.2686 N   0  0  0  0  0  0  0  0  0  0  0  0
    0.9477    0.5744    2.5764 H   0  0  0  0  0  0  0  0  0  0  0  0
    1.9729    1.5255    3.6687 H   0  0  0  0  0  0  0  0  0  0  0  0
    1.8953   -0.2528    3.8473 H   0  0  0  0  0  0  0  0  0  0  0  0
    2.7811    2.2695    1.0366 H   0  0  0  0  0  0  0  0  0  0  0  0
    4.9832    1.9571   -0.2290 H   0  0  0  0  0  0  0  0  0  0  0  0
    5.8568    0.6158   -1.8634 H   0  0  0  0  0  0  0  0  0  0  0  0
    7.4680   -0.1352   -1.9363 H   0  0  0  0  0  0  0  0  0  0  0  0
    7.2459    1.4141   -1.0761 H   0  0  0  0  0  0  0  0  0  0  0  0
    8.3749   -1.0099   -0.3057 H   0  0  0  0  0  0  0  0  0  0  0  0
    8.1212    0.6055    1.7357 H   0  0  0  0  0  0  0  0  0  0  0  0
    9.3279   -0.6878    1.7175 H   0  0  0  0  0  0  0  0  0  0  0  0
    6.6777   -0.7298    3.2571 H   0  0  0  0  0  0  0  0  0  0  0  0
    8.3333   -0.7106    3.9180 H   0  0  0  0  0  0  0  0  0  0  0  0
    8.5846   -5.0546    2.9398 H   0  0  0  0  0  0  0  0  0  0  0  0
    9.7372   -4.8846    5.7787 H   0  0  0  0  0  0  0  0  0  0  0  0
   10.6714   -4.9072    4.2679 H   0  0  0  0  0  0  0  0  0  0  0  0
    9.7319   -6.3511    4.7472 H   0  0  0  0  0  0  0  0  0  0  0  0
    6.6045   -4.0331    6.2217 H   0  0  0  0  0  0  0  0  0  0  0  0
    4.0088   -5.3817    7.2785 H   0  0  0  0  0  0  0  0  0  0  0  0
    2.5281   -7.3288    6.8061 H   0  0  0  0  0  0  0  0  0  0  0  0
    3.0223   -8.8872    4.9429 H   0  0  0  0  0  0  0  0  0  0  0  0
    5.0377   -8.5370    3.4811 H   0  0  0  0  0  0  0  0  0  0  0  0
    5.8876   -2.8317    2.1933 H   0  0  0  0  0  0  0  0  0  0  0  0
    6.9923   -4.2063    2.0640 H   0  0  0  0  0  0  0  0  0  0  0  0
    6.6622   -2.9706   -0.1293 H   0  0  0  0  0  0  0  0  0  0  0  0
    8.3459   -3.1214    0.4028 H   0  0  0  0  0  0  0  0  0  0  0  0
  1  2  1  0
  1 29  1  0
  1 30  1  0
  1 31  1  0
  2  3  2  0
  2 28  1  0
  3  4  1  0
  3 32  1  0
  4  5  2  0
  4 33  1  0
  5  6  1  0
  5 27  1  0
  6  7  1  0
  6  8  1  0
  7 34  1  0
  7 35  1  0
  7 36  1  0
  8  9  1  0
  8 26  1  0
  8 37  1  6
  9 10  1  0
  9 38  1  0
  9 39  1  0
 10 11  1  0
 10 40  1  0
 10 41  1  0
 11 12  1  0
 11 25  1  0
 12 13  2  0
 12 14  1  0
 14 15  1  0
 14 16  1  0
 14 42  1  6
 15 43  1  0
 15 44  1  0
 15 45  1  0
 16 17  2  0
 16 24  1  0
 17 18  1  0
 17 46  1  0
 18 19  2  0
 18 23  1  0
 19 20  1  0
 19 47  1  0
 20 21  2  0
 20 48  1  0
 21 22  1  0
 21 49  1  0
 22 23  2  0
 22 50  1  0
 23 24  1  0
 25 26  1  0
 25 51  1  0
 25 52  1  0
 26 53  1  0
 26 54  1  0
 27 28  2  0
M  END

