
     RDKit          3D

 51 52  0  0  0  0  0  0  0  0999 V2000
    1.4233    1.7000   -2.4610 C   0  0  0  0  0  0  0  0  0  0  0  0
    1.5516    2.3872   -1.0986 C   0  0  0  0  0  0  0  0  0  0  0  0
    2.7052    1.9757   -0.3122 N   0  0  0  0  0  0  0  0  0  0  0  0
    4.0335    2.2588   -0.5745 C   0  0  0  0  0  0  0  0  0  0  0  0
    5.0266    1.6144   -0.0390 N   0  0  0  0  0  0  0  0  0  0  0  0
    4.7454    0.4242    0.7187 C   0  0  0  0  0  0  0  0  0  0  0  0
    5.9944   -0.3590    1.0925 C   0  0  0  0  0  0  0  0  0  0  0  0
    5.9260   -1.3672    2.0695 C   0  0  0  0  0  0  0  0  0  0  0  0
    7.0572   -2.1161    2.4008 C   0  0  0  0  0  0  0  0  0  0  0  0
    8.2810   -1.8734    1.7674 C   0  0  0  0  0  0  0  0  0  0  0  0
    8.3332   -0.8713    0.8020 C   0  0  0  0  0  0  0  0  0  0  0  0
    9.4987   -0.6258    0.1825 F   0  0  0  0  0  0  0  0  0  0  0  0
    7.2161   -0.1132    0.4554 C   0  0  0  0  0  0  0  0  0  0  0  0
    4.2378    3.2845   -1.4633 N   0  0  0  0  0  0  0  0  0  0  0  0
    5.5257    3.7133   -1.9852 C   0  0  0  0  0  0  0  0  0  0  0  0
    5.7966    5.2092   -1.7819 C   0  0  0  0  0  0  0  0  0  0  0  0
    5.8871    5.6910   -0.3449 C   0  0  0  0  0  0  0  0  0  0  0  0
    5.6677    7.0613   -0.0436 C   0  0  0  0  0  0  0  0  0  0  0  0
    5.8046    7.5116    1.2872 C   0  0  0  0  0  0  0  0  0  0  0  0
    6.1190    6.6455    2.3188 C   0  0  0  0  0  0  0  0  0  0  0  0
    6.3174    5.2479    2.0399 C   0  0  0  0  0  0  0  0  0  0  0  0
    6.5693    4.3024    3.0573 C   0  0  0  0  0  0  0  0  0  0  0  0
    6.7560    4.6515    4.3184 O   0  0  0  0  0  0  0  0  0  0  0  0
    6.6215    2.9632    2.8533 N   0  0  0  0  0  0  0  0  0  0  0  0
    6.9323    1.9985    3.8904 C   0  0  0  0  0  0  0  0  0  0  0  0
    6.2129    4.8142    0.6716 C   0  0  0  0  0  0  0  0  0  0  0  0
    0.5217    2.0500   -2.9894 H   0  0  0  0  0  0  0  0  0  0  0  0
    1.3496    0.6070   -2.3435 H   0  0  0  0  0  0  0  0  0  0  0  0
    2.2984    1.9161   -3.0924 H   0  0  0  0  0  0  0  0  0  0  0  0
    0.6605    2.1764   -0.4860 H   0  0  0  0  0  0  0  0  0  0  0  0
    1.5507    3.4848   -1.2243 H   0  0  0  0  0  0  0  0  0  0  0  0
    2.5480    1.2292    0.3492 H   0  0  0  0  0  0  0  0  0  0  0  0
    4.0809   -0.2746    0.1592 H   0  0  0  0  0  0  0  0  0  0  0  0
    4.1990    0.6373    1.6666 H   0  0  0  0  0  0  0  0  0  0  0  0
    4.9769   -1.5660    2.5762 H   0  0  0  0  0  0  0  0  0  0  0  0
    6.9909   -2.8973    3.1625 H   0  0  0  0  0  0  0  0  0  0  0  0
    9.1819   -2.4413    2.0071 H   0  0  0  0  0  0  0  0  0  0  0  0
    7.2898    0.6658   -0.3030 H   0  0  0  0  0  0  0  0  0  0  0  0
    3.4641    3.9184   -1.6132 H   0  0  0  0  0  0  0  0  0  0  0  0
    5.5770    3.4957   -3.0688 H   0  0  0  0  0  0  0  0  0  0  0  0
    6.2955    3.0954   -1.5070 H   0  0  0  0  0  0  0  0  0  0  0  0
    5.0148    5.7904   -2.3061 H   0  0  0  0  0  0  0  0  0  0  0  0
    6.7341    5.4506   -2.3172 H   0  0  0  0  0  0  0  0  0  0  0  0
    5.4077    7.7637   -0.8391 H   0  0  0  0  0  0  0  0  0  0  0  0
    5.6505    8.5713    1.5118 H   0  0  0  0  0  0  0  0  0  0  0  0
    6.1993    7.0223    3.3398 H   0  0  0  0  0  0  0  0  0  0  0  0
    6.2352    2.6252    1.9726 H   0  0  0  0  0  0  0  0  0  0  0  0
    7.7158    2.3993    4.5509 H   0  0  0  0  0  0  0  0  0  0  0  0
    7.3022    1.0769    3.4222 H   0  0  0  0  0  0  0  0  0  0  0  0
    6.0575    1.7433    4.5161 H   0  0  0  0  0  0  0  0  0  0  0  0
    6.3993    3.7706    0.4264 H   0  0  0  0  0  0  0  0  0  0  0  0
  1  2  1  0
  1 27  1  0
  1 28  1  0
  1 29  1  0
  2  3  1  0
  2 30  1  0
  2 31  1  0
  3  4  1  0
  3 32  1  0
  4  5  2  0
  4 14  1  0
  5  6  1  0
  6  7  1  0
  6 33  1  0
  6 34  1  0
  7  8  2  0
  7 13  1  0
  8  9  1  0
  8 35  1  0
  9 10  2  0
  9 36  1  0
 10 11  1  0
 10 37  1  0
 11 12  1  0
 11 13  2  0
 13 38  1  0
 14 15  1  0
 14 39  1  0
 15 16  1  0
 15 40  1  0
 15 41  1  0
 16 17  1  0
 16 42  1  0
 16 43  1  0
 17 18  2  0
 17 26  1  0
 18 19  1  0
 18 44  1  0
 19 20  2  0
 19 45  1  0
 20 21  1  0
 20 46  1  0
 21 22  1  0
 21 26  2  0
 22 23  2  0
 22 24  1  0
 24 25  1  0
 24 47  1  0
 25 48  1  0
 25 49  1  0
 25 50  1  0
 26 51  1  0
M  END

