
     RDKit          3D

 65 69  0  0  0  0  0  0  0  0999 V2000
    1.8924   -1.0273   -0.0715 C   0  0  0  0  0  0  0  0  0  0  0  0
    2.0127    0.3647    0.1302 O   0  0  0  0  0  0  0  0  0  0  0  0
    2.7326    1.1035   -0.7476 C   0  0  0  0  0  0  0  0  0  0  0  0
    3.4056    0.5679   -1.8587 C   0  0  0  0  0  0  0  0  0  0  0  0
    4.0959    1.4089   -2.7234 C   0  0  0  0  0  0  0  0  0  0  0  0
    4.7120    0.8196   -3.7950 O   0  0  0  0  0  0  0  0  0  0  0  0
    5.4716    1.5262   -4.6561 C   0  0  0  0  0  0  0  0  0  0  0  0
    6.1445    0.8475   -5.6817 C   0  0  0  0  0  0  0  0  0  0  0  0
    6.1167   -0.9629   -5.6672 S   0  0  1  0  0  0  0  0  0  0  0  0
    7.0473   -1.4730   -6.6726 O   0  0  0  0  0  0  0  0  0  0  0  0
    6.2406   -1.4214   -4.2825 O   0  0  0  0  0  0  0  0  0  0  0  0
    4.5194   -1.2838   -6.1373 N   0  0  0  0  0  0  0  0  0  0  0  0
    3.8566   -2.3898   -5.4482 C   0  0  0  0  0  0  0  0  0  0  0  0
    2.4433   -2.5570   -5.9278 C   0  0  0  0  0  0  0  0  0  0  0  0
    1.9060   -1.9245   -6.9893 C   0  0  0  0  0  0  0  0  0  0  0  0
    0.4897   -2.1241   -7.3969 C   0  0  0  0  0  0  0  0  0  0  0  0
   -0.2222   -1.0998   -8.0520 C   0  0  0  0  0  0  0  0  0  0  0  0
   -1.5592   -1.2690   -8.4207 C   0  0  0  0  0  0  0  0  0  0  0  0
   -2.2173   -2.4723   -8.1561 C   0  0  0  0  0  0  0  0  0  0  0  0
   -1.5216   -3.5068   -7.5212 C   0  0  0  0  0  0  0  0  0  0  0  0
   -0.1876   -3.3357   -7.1509 C   0  0  0  0  0  0  0  0  0  0  0  0
    2.7588   -0.9590   -7.7909 C   0  0  0  0  0  0  0  0  0  0  0  0
    4.2506   -1.2074   -7.5732 C   0  0  0  0  0  0  0  0  0  0  0  0
    6.8802    1.6112   -6.6495 C   0  0  0  0  0  0  0  0  0  0  0  0
    7.4017    0.9502   -7.6991 O   0  0  0  0  0  0  0  0  0  0  0  0
    8.2242    1.6222   -8.6254 C   0  0  0  0  0  0  0  0  0  0  0  0
    6.9856    3.0020   -6.5039 C   0  0  0  0  0  0  0  0  0  0  0  0
    6.3537    3.6531   -5.4456 C   0  0  0  0  0  0  0  0  0  0  0  0
    6.4135    5.0148   -5.3030 O   0  0  0  0  0  0  0  0  0  0  0  0
    7.6202    5.5575   -4.7761 C   0  0  0  0  0  0  0  0  0  0  0  0
    5.5666    2.9365   -4.5111 C   0  0  0  0  0  0  0  0  0  0  0  0
    4.8884    3.5994   -3.4500 C   0  0  0  0  0  0  0  0  0  0  0  0
    4.9728    4.8963   -3.3158 O   0  0  0  0  0  0  0  0  0  0  0  0
    4.1534    2.8073   -2.5139 C   0  0  0  0  0  0  0  0  0  0  0  0
    3.4782    3.3308   -1.3806 C   0  0  0  0  0  0  0  0  0  0  0  0
    2.7793    2.5058   -0.5097 C   0  0  0  0  0  0  0  0  0  0  0  0
    2.0962    3.0703    0.5270 O   0  0  0  0  0  0  0  0  0  0  0  0
    2.5472    2.7784    1.8419 C   0  0  0  0  0  0  0  0  0  0  0  0
    1.2607   -1.4065    0.7426 H   0  0  0  0  0  0  0  0  0  0  0  0
    2.8731   -1.5340   -0.0315 H   0  0  0  0  0  0  0  0  0  0  0  0
    1.4095   -1.2577   -1.0376 H   0  0  0  0  0  0  0  0  0  0  0  0
    3.4069   -0.4984   -2.0765 H   0  0  0  0  0  0  0  0  0  0  0  0
    3.8698   -2.1854   -4.3669 H   0  0  0  0  0  0  0  0  0  0  0  0
    4.4010   -3.3509   -5.5803 H   0  0  0  0  0  0  0  0  0  0  0  0
    1.8349   -3.2452   -5.3335 H   0  0  0  0  0  0  0  0  0  0  0  0
    0.2670   -0.1466   -8.2624 H   0  0  0  0  0  0  0  0  0  0  0  0
   -2.0892   -0.4524   -8.9182 H   0  0  0  0  0  0  0  0  0  0  0  0
   -3.2614   -2.6075   -8.4493 H   0  0  0  0  0  0  0  0  0  0  0  0
   -2.0187   -4.4603   -7.3236 H   0  0  0  0  0  0  0  0  0  0  0  0
    0.3474   -4.1657   -6.6843 H   0  0  0  0  0  0  0  0  0  0  0  0
    2.5167    0.0818   -7.5105 H   0  0  0  0  0  0  0  0  0  0  0  0
    2.5278   -1.0555   -8.8649 H   0  0  0  0  0  0  0  0  0  0  0  0
    4.8476   -0.3914   -8.0048 H   0  0  0  0  0  0  0  0  0  0  0  0
    4.5651   -2.1376   -8.0853 H   0  0  0  0  0  0  0  0  0  0  0  0
    8.5744    0.8591   -9.3324 H   0  0  0  0  0  0  0  0  0  0  0  0
    9.0972    2.0857   -8.1330 H   0  0  0  0  0  0  0  0  0  0  0  0
    7.6694    2.4006   -9.1800 H   0  0  0  0  0  0  0  0  0  0  0  0
    7.5291    3.6020   -7.2315 H   0  0  0  0  0  0  0  0  0  0  0  0
    7.4711    6.6423   -4.6986 H   0  0  0  0  0  0  0  0  0  0  0  0
    8.4705    5.3510   -5.4493 H   0  0  0  0  0  0  0  0  0  0  0  0
    7.8384    5.1447   -3.7776 H   0  0  0  0  0  0  0  0  0  0  0  0
    3.4891    4.4016   -1.1789 H   0  0  0  0  0  0  0  0  0  0  0  0
    1.9221    3.3691    2.5262 H   0  0  0  0  0  0  0  0  0  0  0  0
    3.6029    3.0775    1.9754 H   0  0  0  0  0  0  0  0  0  0  0  0
    2.4393    1.7098    2.0858 H   0  0  0  0  0  0  0  0  0  0  0  0
  1  2  1  0
  1 39  1  0
  1 40  1  0
  1 41  1  0
  2  3  1  0
  3  4  2  0
  3 36  1  0
  4  5  1  0
  4 42  1  0
  5  6  1  0
  5 34  2  0
  6  7  1  0
  7  8  2  0
  7 31  1  0
  9  8  1  1
  8 24  1  0
  9 10  2  0
  9 11  2  0
  9 12  1  0
 12 13  1  0
 12 23  1  0
 13 14  1  0
 13 43  1  0
 13 44  1  0
 14 15  2  0
 14 45  1  0
 15 16  1  0
 15 22  1  0
 16 17  2  0
 16 21  1  0
 17 18  1  0
 17 46  1  0
 18 19  2  0
 18 47  1  0
 19 20  1  0
 19 48  1  0
 20 21  2  0
 20 49  1  0
 21 50  1  0
 22 23  1  0
 22 51  1  0
 22 52  1  0
 23 53  1  0
 23 54  1  0
 24 25  1  0
 24 27  2  0
 25 26  1  0
 26 55  1  0
 26 56  1  0
 26 57  1  0
 27 28  1  0
 27 58  1  0
 28 29  1  0
 28 31  2  0
 29 30  1  0
 30 59  1  0
 30 60  1  0
 30 61  1  0
 31 32  1  0
 32 33  2  0
 32 34  1  0
 34 35  1  0
 35 36  2  0
 35 62  1  0
 36 37  1  0
 37 38  1  0
 38 63  1  0
 38 64  1  0
 38 65  1  0
M  END

