
     RDKit          3D

 46 47  0  0  0  0  0  0  0  0999 V2000
    2.6725    0.9903   -0.6819 C   0  0  0  0  0  0  0  0  0  0  0  0
    2.1079   -0.1139   -0.0140 O   0  0  0  0  0  0  0  0  0  0  0  0
    2.8693   -0.8470    0.8356 C   0  0  0  0  0  0  0  0  0  0  0  0
    2.2181   -1.9044    1.4986 C   0  0  0  0  0  0  0  0  0  0  0  0
    2.8800   -2.7398    2.3856 C   0  0  0  0  0  0  0  0  0  0  0  0
    2.0618   -3.7664    3.1271 C   0  0  0  0  0  0  0  0  0  0  0  0
    4.3075   -2.5553    2.6216 C   0  0  0  0  0  0  0  0  0  0  0  0
    5.1043   -3.4090    3.4331 C   0  0  0  0  0  0  0  0  0  0  0  0
    4.8520   -4.7498    3.8355 C   0  0  0  0  0  0  0  0  0  0  0  0
    5.4727   -5.5010    4.8712 C   0  0  0  0  0  0  0  0  0  0  0  0
    6.1910   -4.9144    5.9969 C   0  0  0  0  0  0  0  0  0  0  0  0
    6.1958   -3.4318    6.2716 C   0  0  0  0  0  0  0  0  0  0  0  0
    6.8435   -5.7411    6.8990 C   0  0  0  0  0  0  0  0  0  0  0  0
    6.8094   -7.1442    6.7913 C   0  0  0  0  0  0  0  0  0  0  0  0
    7.5012   -7.8333    7.7324 O   0  0  0  0  0  0  0  0  0  0  0  0
    7.4921   -9.2418    7.7152 C   0  0  0  0  0  0  0  0  0  0  0  0
    6.0548   -7.7352    5.7591 C   0  0  0  0  0  0  0  0  0  0  0  0
    5.3869   -6.9531    4.8246 C   0  0  0  0  0  0  0  0  0  0  0  0
    4.5988   -7.6363    3.7404 C   0  0  0  0  0  0  0  0  0  0  0  0
    4.9410   -1.4104    1.9845 C   0  0  0  0  0  0  0  0  0  0  0  0
    6.3918   -1.1024    2.2365 C   0  0  0  0  0  0  0  0  0  0  0  0
    4.2287   -0.5993    1.1093 C   0  0  0  0  0  0  0  0  0  0  0  0
    1.8759    1.4225   -1.3028 H   0  0  0  0  0  0  0  0  0  0  0  0
    3.5128    0.6914   -1.3353 H   0  0  0  0  0  0  0  0  0  0  0  0
    3.0320    1.7598    0.0259 H   0  0  0  0  0  0  0  0  0  0  0  0
    1.1483   -2.0309    1.3150 H   0  0  0  0  0  0  0  0  0  0  0  0
    0.9882   -3.5600    3.0026 H   0  0  0  0  0  0  0  0  0  0  0  0
    2.2903   -3.7726    4.2040 H   0  0  0  0  0  0  0  0  0  0  0  0
    2.2364   -4.7973    2.7687 H   0  0  0  0  0  0  0  0  0  0  0  0
    6.0871   -3.0177    3.6943 H   0  0  0  0  0  0  0  0  0  0  0  0
    4.1681   -5.3111    3.1994 H   0  0  0  0  0  0  0  0  0  0  0  0
    6.8490   -2.8672    5.5815 H   0  0  0  0  0  0  0  0  0  0  0  0
    6.5583   -3.2349    7.2916 H   0  0  0  0  0  0  0  0  0  0  0  0
    5.1909   -2.9937    6.1708 H   0  0  0  0  0  0  0  0  0  0  0  0
    7.3832   -5.3148    7.7483 H   0  0  0  0  0  0  0  0  0  0  0  0
    8.1137   -9.5699    8.5595 H   0  0  0  0  0  0  0  0  0  0  0  0
    7.9192   -9.6449    6.7785 H   0  0  0  0  0  0  0  0  0  0  0  0
    6.4723   -9.6493    7.8422 H   0  0  0  0  0  0  0  0  0  0  0  0
    5.9874   -8.8207    5.6751 H   0  0  0  0  0  0  0  0  0  0  0  0
    4.6515   -8.7301    3.8406 H   0  0  0  0  0  0  0  0  0  0  0  0
    4.9686   -7.3667    2.7348 H   0  0  0  0  0  0  0  0  0  0  0  0
    3.5309   -7.3498    3.7631 H   0  0  0  0  0  0  0  0  0  0  0  0
    7.0445   -1.9478    1.9532 H   0  0  0  0  0  0  0  0  0  0  0  0
    6.5922   -0.9028    3.3057 H   0  0  0  0  0  0  0  0  0  0  0  0
    6.7142   -0.2183    1.6677 H   0  0  0  0  0  0  0  0  0  0  0  0
    4.7459    0.2345    0.6327 H   0  0  0  0  0  0  0  0  0  0  0  0
  1  2  1  0
  1 23  1  0
  1 24  1  0
  1 25  1  0
  2  3  1  0
  3  4  2  0
  3 22  1  0
  4  5  1  0
  4 26  1  0
  5  6  1  0
  5  7  2  0
  6 27  1  0
  6 28  1  0
  6 29  1  0
  7  8  1  0
  7 20  1  0
  8  9  2  0
  8 30  1  0
  9 10  1  0
  9 31  1  0
 10 11  2  0
 10 18  1  0
 11 12  1  0
 11 13  1  0
 12 32  1  0
 12 33  1  0
 12 34  1  0
 13 14  2  0
 13 35  1  0
 14 15  1  0
 14 17  1  0
 15 16  1  0
 16 36  1  0
 16 37  1  0
 16 38  1  0
 17 18  2  0
 17 39  1  0
 18 19  1  0
 19 40  1  0
 19 41  1  0
 19 42  1  0
 20 21  1  0
 20 22  2  0
 21 43  1  0
 21 44  1  0
 21 45  1  0
 22 46  1  0
M  END

