
     RDKit          3D

 48 53  0  0  0  0  0  0  0  0999 V2000
    0.6713   -0.2185    0.2135 C   0  0  0  0  0  0  0  0  0  0  0  0
    2.1525   -0.6495    0.2828 C   0  0  1  0  0  0  0  0  0  0  0  0
    2.9658    0.0750   -0.8119 C   0  0  0  0  0  0  0  0  0  0  0  0
    2.7413   -0.3940    1.6712 C   0  0  0  0  0  0  0  0  0  0  0  0
    2.8881    0.8148    2.3485 C   0  0  0  0  0  0  0  0  0  0  0  0
    3.4628    0.8186    3.6274 C   0  0  0  0  0  0  0  0  0  0  0  0
    3.8856   -0.3781    4.2210 C   0  0  0  0  0  0  0  0  0  0  0  0
    3.7409   -1.5949    3.5473 C   0  0  0  0  0  0  0  0  0  0  0  0
    3.1675   -1.5991    2.2704 C   0  0  0  0  0  0  0  0  0  0  0  0
    2.8957   -2.7060    1.3442 C   0  0  0  0  0  0  0  0  0  0  0  0
    3.1385   -4.0739    1.4892 C   0  0  0  0  0  0  0  0  0  0  0  0
    2.7710   -4.9009    0.4206 C   0  0  0  0  0  0  0  0  0  0  0  0
    2.1543   -4.3812   -0.7518 C   0  0  0  0  0  0  0  0  0  0  0  0
    1.9213   -3.0000   -0.8738 C   0  0  0  0  0  0  0  0  0  0  0  0
    2.2977   -2.1693    0.1726 C   0  0  0  0  0  0  0  0  0  0  0  0
    1.8700   -5.5107   -1.6133 C   0  0  0  0  0  0  0  0  0  0  0  0
    1.2980   -5.6298   -2.8886 C   0  0  0  0  0  0  0  0  0  0  0  0
    1.1866   -6.8924   -3.4688 C   0  0  0  0  0  0  0  0  0  0  0  0
    1.6510   -8.0338   -2.7898 C   0  0  0  0  0  0  0  0  0  0  0  0
    2.2233   -7.9428   -1.5195 C   0  0  0  0  0  0  0  0  0  0  0  0
    2.3173   -6.6749   -0.9326 C   0  0  0  0  0  0  0  0  0  0  0  0
    2.8656   -6.2964    0.3015 N   0  0  0  0  0  0  0  0  0  0  0  0
    3.4231   -7.1709    1.2597 C   0  0  0  0  0  0  0  0  0  0  0  0
    4.6969   -6.9391    1.8002 C   0  0  0  0  0  0  0  0  0  0  0  0
    5.1939   -7.8352    2.7498 C   0  0  0  0  0  0  0  0  0  0  0  0
    4.5336   -8.9170    3.1706 N   0  0  0  0  0  0  0  0  0  0  0  0
    3.3250   -9.1366    2.6469 C   0  0  0  0  0  0  0  0  0  0  0  0
    2.7216   -8.3024    1.7024 C   0  0  0  0  0  0  0  0  0  0  0  0
    0.5727    0.8701    0.3541 H   0  0  0  0  0  0  0  0  0  0  0  0
    0.0749   -0.7201    0.9905 H   0  0  0  0  0  0  0  0  0  0  0  0
    0.2377   -0.4709   -0.7676 H   0  0  0  0  0  0  0  0  0  0  0  0
    2.9099    1.1680   -0.6827 H   0  0  0  0  0  0  0  0  0  0  0  0
    2.5732   -0.1652   -1.8132 H   0  0  0  0  0  0  0  0  0  0  0  0
    4.0256   -0.2201   -0.7801 H   0  0  0  0  0  0  0  0  0  0  0  0
    2.5620    1.7551    1.8951 H   0  0  0  0  0  0  0  0  0  0  0  0
    3.5817    1.7624    4.1659 H   0  0  0  0  0  0  0  0  0  0  0  0
    4.3313   -0.3601    5.2189 H   0  0  0  0  0  0  0  0  0  0  0  0
    4.0720   -2.5256    4.0156 H   0  0  0  0  0  0  0  0  0  0  0  0
    3.5858   -4.4760    2.3991 H   0  0  0  0  0  0  0  0  0  0  0  0
    1.4477   -2.6007   -1.7748 H   0  0  0  0  0  0  0  0  0  0  0  0
    0.9489   -4.7420   -3.4219 H   0  0  0  0  0  0  0  0  0  0  0  0
    0.7417   -6.9982   -4.4610 H   0  0  0  0  0  0  0  0  0  0  0  0
    1.5667   -9.0144   -3.2650 H   0  0  0  0  0  0  0  0  0  0  0  0
    2.5900   -8.8353   -1.0110 H   0  0  0  0  0  0  0  0  0  0  0  0
    5.2946   -6.0867    1.4738 H   0  0  0  0  0  0  0  0  0  0  0  0
    6.1879   -7.6688    3.1820 H   0  0  0  0  0  0  0  0  0  0  0  0
    2.7903  -10.0249    3.0037 H   0  0  0  0  0  0  0  0  0  0  0  0
    1.7189   -8.5177    1.3301 H   0  0  0  0  0  0  0  0  0  0  0  0
  2  1  1  1
  1 29  1  0
  1 30  1  0
  1 31  1  0
  2  3  1  0
  2  4  1  0
  2 15  1  0
  3 32  1  0
  3 33  1  0
  3 34  1  0
  4  5  2  0
  4  9  1  0
  5  6  1  0
  5 35  1  0
  6  7  2  0
  6 36  1  0
  7  8  1  0
  7 37  1  0
  8  9  2  0
  8 38  1  0
  9 10  1  0
 10 11  2  0
 10 15  1  0
 11 12  1  0
 11 39  1  0
 12 13  2  0
 12 22  1  0
 13 14  1  0
 13 16  1  0
 14 15  2  0
 14 40  1  0
 16 17  2  0
 16 21  1  0
 17 18  1  0
 17 41  1  0
 18 19  2  0
 18 42  1  0
 19 20  1  0
 19 43  1  0
 20 21  2  0
 20 44  1  0
 21 22  1  0
 22 23  1  0
 23 24  2  0
 23 28  1  0
 24 25  1  0
 24 45  1  0
 25 26  2  0
 25 46  1  0
 26 27  1  0
 27 28  2  0
 27 47  1  0
 28 48  1  0
M  END

