
     RDKit          3D

 36 38  0  0  0  0  0  0  0  0999 V2000
    2.3233    5.0814    0.8233 C   0  0  0  0  0  0  0  0  0  0  0  0
    3.4410    4.4305    1.3810 O   0  0  0  0  0  0  0  0  0  0  0  0
    3.3917    3.0870    1.5880 C   0  0  0  0  0  0  0  0  0  0  0  0
    2.2881    2.2753    1.2866 C   0  0  0  0  0  0  0  0  0  0  0  0
    2.3739    0.9033    1.5509 C   0  0  0  0  0  0  0  0  0  0  0  0
    3.5126    0.3182    2.1001 C   0  0  0  0  0  0  0  0  0  0  0  0
    4.6180    1.1402    2.4029 C   0  0  0  0  0  0  0  0  0  0  0  0
    5.8093    0.6568    2.9677 N   0  0  0  0  0  0  0  0  0  0  0  0
    6.1629   -0.6426    3.2967 C   0  0  0  0  0  0  0  0  0  0  0  0
    5.4600   -1.6126    3.0521 O   0  0  0  0  0  0  0  0  0  0  0  0
    7.4769   -0.7765    3.9669 C   0  0  0  0  0  0  0  0  0  0  0  0
    8.2276    0.1958    4.6042 C   0  0  0  0  0  0  0  0  0  0  0  0
    9.3724   -0.3689    5.1157 N   0  0  0  0  0  0  0  0  0  0  0  0
   10.0765    0.1280    5.6444 H   0  0  0  0  0  0  0  0  0  0  0  0
    9.3942   -1.7215    4.8317 C   0  0  0  0  0  0  0  0  0  0  0  0
   10.3525   -2.6912    5.1544 C   0  0  0  0  0  0  0  0  0  0  0  0
   10.1165   -4.0099    4.7426 C   0  0  0  0  0  0  0  0  0  0  0  0
   11.0515   -5.0122    4.9837 N   0  0  0  0  0  0  0  0  0  0  0  0
    8.9265   -4.3173    4.0226 C   0  0  0  0  0  0  0  0  0  0  0  0
    7.9840   -3.3491    3.7109 C   0  0  0  0  0  0  0  0  0  0  0  0
    8.2076   -2.0181    4.1121 C   0  0  0  0  0  0  0  0  0  0  0  0
    4.5450    2.5169    2.1436 C   0  0  0  0  0  0  0  0  0  0  0  0
    2.5860    6.1454    0.7467 H   0  0  0  0  0  0  0  0  0  0  0  0
    1.4254    4.9812    1.4601 H   0  0  0  0  0  0  0  0  0  0  0  0
    2.0839    4.7001   -0.1862 H   0  0  0  0  0  0  0  0  0  0  0  0
    1.3781    2.6898    0.8539 H   0  0  0  0  0  0  0  0  0  0  0  0
    1.5167    0.2664    1.3159 H   0  0  0  0  0  0  0  0  0  0  0  0
    3.5701   -0.7492    2.2928 H   0  0  0  0  0  0  0  0  0  0  0  0
    6.5309    1.3551    3.0944 H   0  0  0  0  0  0  0  0  0  0  0  0
    8.0194    1.2517    4.7697 H   0  0  0  0  0  0  0  0  0  0  0  0
   11.2601   -2.4327    5.7066 H   0  0  0  0  0  0  0  0  0  0  0  0
   11.6962   -4.8482    5.7484 H   0  0  0  0  0  0  0  0  0  0  0  0
   10.6944   -5.9608    4.9750 H   0  0  0  0  0  0  0  0  0  0  0  0
    8.7598   -5.3521    3.7102 H   0  0  0  0  0  0  0  0  0  0  0  0
    7.0709   -3.6023    3.1713 H   0  0  0  0  0  0  0  0  0  0  0  0
    5.3844    3.1799    2.3687 H   0  0  0  0  0  0  0  0  0  0  0  0
  1  2  1  0
  1 23  1  0
  1 24  1  0
  1 25  1  0
  2  3  1  0
  3  4  2  0
  3 22  1  0
  4  5  1  0
  4 26  1  0
  5  6  2  0
  5 27  1  0
  6  7  1  0
  6 28  1  0
  7  8  1  0
  7 22  2  0
  8  9  1  0
  8 29  1  0
  9 10  2  0
  9 11  1  0
 11 12  2  0
 11 21  1  0
 12 13  1  0
 12 30  1  0
 13 14  1  0
 13 15  1  0
 15 16  1  0
 15 21  2  0
 16 17  2  0
 16 31  1  0
 17 18  1  0
 17 19  1  0
 18 32  1  0
 18 33  1  0
 19 20  2  0
 19 34  1  0
 20 21  1  0
 20 35  1  0
 22 36  1  0
M  END

