
     RDKit          3D

 32 33  0  0  0  0  0  0  0  0999 V2000
    3.3964   -1.4306    0.7954 C   0  0  0  0  0  0  0  0  0  0  0  0
    3.1408   -0.0705    0.1852 C   0  0  0  0  0  0  0  0  0  0  0  0
    2.6185    0.8079    0.8462 O   0  0  0  0  0  0  0  0  0  0  0  0
    3.5267    0.2246   -1.2489 C   0  0  0  0  0  0  0  0  0  0  0  0
    3.2335    1.5247   -1.6981 C   0  0  0  0  0  0  0  0  0  0  0  0
    3.5287    1.9039   -2.9953 C   0  0  0  0  0  0  0  0  0  0  0  0
    3.2337    3.1451   -3.4146 F   0  0  0  0  0  0  0  0  0  0  0  0
    4.1392    1.0198   -3.8819 C   0  0  0  0  0  0  0  0  0  0  0  0
    4.4642   -0.2736   -3.4622 C   0  0  0  0  0  0  0  0  0  0  0  0
    5.1999   -1.2087   -4.3819 C   0  0  0  0  0  0  0  0  0  0  0  0
    4.0973   -2.6442   -4.8504 S   0  0  0  0  0  0  0  0  0  0  0  0
    5.2806   -3.8626   -5.3987 C   0  0  0  0  0  0  0  0  0  0  0  0
    5.2296   -4.3512   -6.7126 C   0  0  0  0  0  0  0  0  0  0  0  0
    6.1017   -5.3647   -7.1051 C   0  0  0  0  0  0  0  0  0  0  0  0
    6.0402   -5.8228   -8.3612 F   0  0  0  0  0  0  0  0  0  0  0  0
    7.0403   -5.9061   -6.2286 C   0  0  0  0  0  0  0  0  0  0  0  0
    7.1000   -5.4224   -4.9194 C   0  0  0  0  0  0  0  0  0  0  0  0
    6.2207   -4.4217   -4.5201 C   0  0  0  0  0  0  0  0  0  0  0  0
    6.2793   -3.9744   -3.2519 F   0  0  0  0  0  0  0  0  0  0  0  0
    4.1367   -0.6852   -2.1437 C   0  0  0  0  0  0  0  0  0  0  0  0
    4.4307   -1.9385   -1.7257 O   0  0  0  0  0  0  0  0  0  0  0  0
    3.0407   -1.4107    1.8336 H   0  0  0  0  0  0  0  0  0  0  0  0
    4.4662   -1.6849    0.7598 H   0  0  0  0  0  0  0  0  0  0  0  0
    2.8807   -2.2187    0.2267 H   0  0  0  0  0  0  0  0  0  0  0  0
    2.7616    2.2187   -1.0012 H   0  0  0  0  0  0  0  0  0  0  0  0
    4.3756    1.3559   -4.8939 H   0  0  0  0  0  0  0  0  0  0  0  0
    6.0859   -1.6311   -3.8858 H   0  0  0  0  0  0  0  0  0  0  0  0
    5.5153   -0.6964   -5.3001 H   0  0  0  0  0  0  0  0  0  0  0  0
    4.5141   -3.9430   -7.4282 H   0  0  0  0  0  0  0  0  0  0  0  0
    7.7102   -6.6947   -6.5755 H   0  0  0  0  0  0  0  0  0  0  0  0
    7.8156   -5.8203   -4.1975 H   0  0  0  0  0  0  0  0  0  0  0  0
    4.5081   -2.5430   -2.4863 H   0  0  0  0  0  0  0  0  0  0  0  0
  1  2  1  0
  1 22  1  0
  1 23  1  0
  1 24  1  0
  2  3  2  0
  2  4  1  0
  4  5  2  0
  4 20  1  0
  5  6  1  0
  5 25  1  0
  6  7  1  0
  6  8  2  0
  8  9  1  0
  8 26  1  0
  9 10  1  0
  9 20  2  0
 10 11  1  0
 10 27  1  0
 10 28  1  0
 11 12  1  0
 12 13  2  0
 12 18  1  0
 13 14  1  0
 13 29  1  0
 14 15  1  0
 14 16  2  0
 16 17  1  0
 16 30  1  0
 17 18  2  0
 17 31  1  0
 18 19  1  0
 20 21  1  0
 21 32  1  0
M  END

