
     RDKit          3D

 52 54  0  0  0  0  0  0  0  0999 V2000
    1.3698    2.0214    4.6331 C   0  0  0  0  0  0  0  0  0  0  0  0
    1.3412    3.0340    3.6526 O   0  0  0  0  0  0  0  0  0  0  0  0
    2.5098    3.4898    3.1355 C   0  0  0  0  0  0  0  0  0  0  0  0
    3.7811    3.0261    3.5012 C   0  0  0  0  0  0  0  0  0  0  0  0
    4.9280    3.5628    2.9063 C   0  0  0  0  0  0  0  0  0  0  0  0
    4.8259    4.5619    1.9301 C   0  0  0  0  0  0  0  0  0  0  0  0
    5.9478    5.1612    1.3275 N   0  0  0  0  0  0  0  0  0  0  0  0
    7.2255    4.7393    1.1777 C   0  0  0  0  0  0  0  0  0  0  0  0
    7.9198    3.5513    1.2172 C   0  0  0  0  0  0  0  0  0  0  0  0
    7.4705    2.1537    1.2791 C   0  0  0  0  0  0  0  0  0  0  0  0
    6.2628    1.7537    0.6696 C   0  0  0  0  0  0  0  0  0  0  0  0
    5.8462    0.4219    0.7046 C   0  0  0  0  0  0  0  0  0  0  0  0
    6.6268   -0.5439    1.3460 C   0  0  0  0  0  0  0  0  0  0  0  0
    7.8329   -0.1652    1.9457 C   0  0  0  0  0  0  0  0  0  0  0  0
    8.2543    1.1645    1.9115 C   0  0  0  0  0  0  0  0  0  0  0  0
    9.3571    3.9032    1.0288 C   0  0  0  0  0  0  0  0  0  0  0  0
   10.3302    3.1800    1.0186 O   0  0  0  0  0  0  0  0  0  0  0  0
    9.4464    5.3044    0.8394 N   0  0  0  0  0  0  0  0  0  0  0  0
   10.6744    6.0083    0.5213 C   0  0  0  0  0  0  0  0  0  0  0  0
   11.1460    5.7702   -0.9094 C   0  0  0  0  0  0  0  0  0  0  0  0
   10.1628    6.2470   -1.7909 O   0  0  0  0  0  0  0  0  0  0  0  0
   10.4460    6.1228   -3.1810 C   0  0  1  0  0  0  0  0  0  0  0  0
   10.2405    4.6895   -3.6766 C   0  0  0  0  0  0  0  0  0  0  0  0
    9.5448    7.1204   -3.8982 C   0  0  0  0  0  0  0  0  0  0  0  0
    8.1988    5.8703    0.9030 C   0  0  0  0  0  0  0  0  0  0  0  0
    7.8935    7.0395    0.7979 O   0  0  0  0  0  0  0  0  0  0  0  0
    3.5453    5.0279    1.5709 C   0  0  0  0  0  0  0  0  0  0  0  0
    2.4061    4.5048    2.1659 C   0  0  0  0  0  0  0  0  0  0  0  0
    0.3246    1.8121    4.8978 H   0  0  0  0  0  0  0  0  0  0  0  0
    1.9107    2.3430    5.5416 H   0  0  0  0  0  0  0  0  0  0  0  0
    1.8352    1.0937    4.2535 H   0  0  0  0  0  0  0  0  0  0  0  0
    3.9008    2.2478    4.2546 H   0  0  0  0  0  0  0  0  0  0  0  0
    5.9071    3.2055    3.2231 H   0  0  0  0  0  0  0  0  0  0  0  0
    5.8589    6.1543    1.1071 H   0  0  0  0  0  0  0  0  0  0  0  0
    5.6556    2.4918    0.1426 H   0  0  0  0  0  0  0  0  0  0  0  0
    4.9078    0.1374    0.2214 H   0  0  0  0  0  0  0  0  0  0  0  0
    6.3015   -1.5871    1.3724 H   0  0  0  0  0  0  0  0  0  0  0  0
    8.4544   -0.9138    2.4442 H   0  0  0  0  0  0  0  0  0  0  0  0
    9.2031    1.4467    2.3676 H   0  0  0  0  0  0  0  0  0  0  0  0
   11.4612    5.6814    1.2184 H   0  0  0  0  0  0  0  0  0  0  0  0
   10.4764    7.0789    0.6754 H   0  0  0  0  0  0  0  0  0  0  0  0
   11.3452    4.6914   -1.0510 H   0  0  0  0  0  0  0  0  0  0  0  0
   12.1085    6.3054   -1.0556 H   0  0  0  0  0  0  0  0  0  0  0  0
   11.5050    6.4106   -3.3533 H   0  0  0  0  0  0  0  0  0  0  0  0
    9.1963    4.3772   -3.5138 H   0  0  0  0  0  0  0  0  0  0  0  0
   10.8956    3.9759   -3.1539 H   0  0  0  0  0  0  0  0  0  0  0  0
   10.4617    4.6152   -4.7532 H   0  0  0  0  0  0  0  0  0  0  0  0
    8.4864    6.8726   -3.7180 H   0  0  0  0  0  0  0  0  0  0  0  0
    9.7267    7.1063   -4.9840 H   0  0  0  0  0  0  0  0  0  0  0  0
    9.7240    8.1387   -3.5223 H   0  0  0  0  0  0  0  0  0  0  0  0
    3.4509    5.8087    0.8113 H   0  0  0  0  0  0  0  0  0  0  0  0
    1.4118    4.8623    1.8915 H   0  0  0  0  0  0  0  0  0  0  0  0
  1  2  1  0
  1 29  1  0
  1 30  1  0
  1 31  1  0
  2  3  1  0
  3  4  2  0
  3 28  1  0
  4  5  1  0
  4 32  1  0
  5  6  2  0
  5 33  1  0
  6  7  1  0
  6 27  1  0
  7  8  1  0
  7 34  1  0
  8  9  2  0
  8 25  1  0
  9 10  1  0
  9 16  1  0
 10 11  2  0
 10 15  1  0
 11 12  1  0
 11 35  1  0
 12 13  2  0
 12 36  1  0
 13 14  1  0
 13 37  1  0
 14 15  2  0
 14 38  1  0
 15 39  1  0
 16 17  2  0
 16 18  1  0
 18 19  1  0
 18 25  1  0
 19 20  1  0
 19 40  1  0
 19 41  1  0
 20 21  1  0
 20 42  1  0
 20 43  1  0
 21 22  1  0
 22 23  1  0
 22 24  1  0
 22 44  1  1
 23 45  1  0
 23 46  1  0
 23 47  1  0
 24 48  1  0
 24 49  1  0
 24 50  1  0
 25 26  2  0
 27 28  2  0
 27 51  1  0
 28 52  1  0
M  END

