
     RDKit          3D

 38 39  0  0  0  0  0  0  0  0999 V2000
    1.0700    1.3814   -0.3194 C   0  0  0  0  0  0  0  0  0  0  0  0
    2.0519    0.5171    0.2104 O   0  0  0  0  0  0  0  0  0  0  0  0
    2.8932    0.9567    1.1807 C   0  0  0  0  0  0  0  0  0  0  0  0
    2.8475    2.2635    1.6880 C   0  0  0  0  0  0  0  0  0  0  0  0
    3.7379    2.6721    2.6856 C   0  0  0  0  0  0  0  0  0  0  0  0
    4.6845    1.7799    3.1881 C   0  0  0  0  0  0  0  0  0  0  0  0
    4.7265    0.4807    2.6822 C   0  0  0  0  0  0  0  0  0  0  0  0
    3.8490    0.0259    1.6792 C   0  0  0  0  0  0  0  0  0  0  0  0
    3.9912   -1.3665    1.2332 C   0  0  0  0  0  0  0  0  0  0  0  0
    3.2963   -2.0719    0.3205 C   0  0  0  0  0  0  0  0  0  0  0  0
    3.5659   -3.5195    0.0218 C   0  0  0  0  0  0  0  0  0  0  0  0
    3.8110   -3.7621   -1.4026 N   0  0  0  0  0  0  0  0  0  0  0  0
    5.0104   -3.1200   -1.9652 C   0  0  0  0  0  0  0  0  0  0  0  0
    5.2932   -3.9284   -3.2310 C   0  0  0  0  0  0  0  0  0  0  0  0
    4.9846   -5.3608   -2.7737 C   0  0  0  0  0  0  0  0  0  0  0  0
    3.7699   -5.1772   -1.8357 C   0  0  2  0  0  0  0  0  0  0  0  0
    3.8263   -5.8765   -0.9842 H   0  0  0  0  0  0  0  0  0  0  0  0
    2.4356   -5.4763   -2.5583 C   0  0  0  0  0  0  0  0  0  0  0  0
    2.1374   -6.5745   -2.9503 O   0  0  0  0  0  0  0  0  0  0  0  0
    1.6753   -4.3919   -2.7138 O   0  0  0  0  0  0  0  0  0  0  0  0
    0.5183    0.8011   -1.0710 H   0  0  0  0  0  0  0  0  0  0  0  0
    1.5202    2.2637   -0.8079 H   0  0  0  0  0  0  0  0  0  0  0  0
    0.3637    1.7245    0.4571 H   0  0  0  0  0  0  0  0  0  0  0  0
    2.1151    2.9744    1.3067 H   0  0  0  0  0  0  0  0  0  0  0  0
    3.6837    3.6955    3.0654 H   0  0  0  0  0  0  0  0  0  0  0  0
    5.3842    2.0899    3.9672 H   0  0  0  0  0  0  0  0  0  0  0  0
    5.4656   -0.2239    3.0739 H   0  0  0  0  0  0  0  0  0  0  0  0
    4.8008   -1.8967    1.7514 H   0  0  0  0  0  0  0  0  0  0  0  0
    2.4808   -1.6063   -0.2346 H   0  0  0  0  0  0  0  0  0  0  0  0
    2.6787   -4.1156    0.3035 H   0  0  0  0  0  0  0  0  0  0  0  0
    4.4107   -3.8882    0.6435 H   0  0  0  0  0  0  0  0  0  0  0  0
    5.8663   -3.1930   -1.2609 H   0  0  0  0  0  0  0  0  0  0  0  0
    4.8335   -2.0496   -2.1509 H   0  0  0  0  0  0  0  0  0  0  0  0
    6.3223   -3.7987   -3.5973 H   0  0  0  0  0  0  0  0  0  0  0  0
    4.6079   -3.6230   -4.0392 H   0  0  0  0  0  0  0  0  0  0  0  0
    5.8356   -5.7645   -2.2021 H   0  0  0  0  0  0  0  0  0  0  0  0
    4.7687   -6.0651   -3.5892 H   0  0  0  0  0  0  0  0  0  0  0  0
    2.2249   -3.6719   -2.3021 H   0  0  0  0  0  0  0  0  0  0  0  0
  1  2  1  0
  1 21  1  0
  1 22  1  0
  1 23  1  0
  2  3  1  0
  3  4  2  0
  3  8  1  0
  4  5  1  0
  4 24  1  0
  5  6  2  0
  5 25  1  0
  6  7  1  0
  6 26  1  0
  7  8  2  0
  7 27  1  0
  8  9  1  0
  9 10  2  0
  9 28  1  0
 10 11  1  0
 10 29  1  0
 11 12  1  0
 11 30  1  0
 11 31  1  0
 12 13  1  0
 12 16  1  0
 13 14  1  0
 13 32  1  0
 13 33  1  0
 14 15  1  0
 14 34  1  0
 14 35  1  0
 15 16  1  0
 15 36  1  0
 15 37  1  0
 16 17  1  1
 16 18  1  0
 18 19  2  0
 18 20  1  0
 20 38  1  0
M  END

