
     RDKit          3D

140152  0  0  0  0  0  0  0  0999 V2000
    5.8598   10.1927    2.8549 C   0  0  0  0  0  0  0  0  0  0  0  0
    5.1863    9.6077    1.6127 C   0  0  0  0  0  0  0  0  0  0  0  0
    4.8197    8.1265    1.7580 C   0  0  0  0  0  0  0  0  0  0  0  0
    4.1409    7.5549    0.5108 C   0  0  0  0  0  0  0  0  0  0  0  0
    3.7342    6.0539    0.5629 C   0  0  2  0  0  0  0  0  0  0  0  0
    3.0577    5.6911   -0.7909 C   0  0  0  0  0  0  0  0  0  0  0  0
    2.5844    4.2448   -0.9562 C   0  0  0  0  0  0  0  0  0  0  0  0
    1.9114    3.9869   -2.3092 C   0  0  0  0  0  0  0  0  0  0  0  0
    1.4340    2.5448   -2.4866 C   0  0  0  0  0  0  0  0  0  0  0  0
    2.8243    5.7474    1.7536 C   0  0  0  0  0  0  0  0  0  0  0  0
    1.5665    6.2686    2.0496 C   0  0  0  0  0  0  0  0  0  0  0  0
    0.9024    5.8402    3.2080 C   0  0  0  0  0  0  0  0  0  0  0  0
    1.4934    4.8987    4.0609 C   0  0  0  0  0  0  0  0  0  0  0  0
    2.7559    4.3712    3.7700 C   0  0  0  0  0  0  0  0  0  0  0  0
    3.4184    4.7990    2.6142 C   0  0  0  0  0  0  0  0  0  0  0  0
    4.7296    4.4296    2.0619 C   0  0  0  0  0  0  0  0  0  0  0  0
    5.7105    3.5475    2.5257 C   0  0  0  0  0  0  0  0  0  0  0  0
    6.8903    3.3937    1.7914 C   0  0  0  0  0  0  0  0  0  0  0  0
    7.1015    4.1038    0.5947 C   0  0  0  0  0  0  0  0  0  0  0  0
    8.3717    3.9298   -0.1785 C   0  0  0  0  0  0  0  0  0  0  0  0
    8.4159    3.1491   -1.3258 C   0  0  0  0  0  0  0  0  0  0  0  0
    9.6634    3.0356   -2.0356 C   0  0  0  0  0  0  0  0  0  0  0  0
   10.7673    3.6497   -1.6533 N   0  0  0  0  0  0  0  0  0  0  0  0
   10.7513    4.4158   -0.5357 C   0  0  0  0  0  0  0  0  0  0  0  0
   11.9550    5.0664   -0.1407 C   0  0  0  0  0  0  0  0  0  0  0  0
   11.9897    5.8585    0.9867 C   0  0  0  0  0  0  0  0  0  0  0  0
   10.8206    6.0374    1.7679 C   0  0  0  0  0  0  0  0  0  0  0  0
    9.6382    5.4198    1.4112 C   0  0  0  0  0  0  0  0  0  0  0  0
    9.5690    4.5910    0.2566 C   0  0  0  0  0  0  0  0  0  0  0  0
    9.7229    2.2034   -3.2638 C   0  0  0  0  0  0  0  0  0  0  0  0
   10.7980    2.3275   -4.1580 C   0  0  0  0  0  0  0  0  0  0  0  0
   10.8798    1.5491   -5.3121 C   0  0  0  0  0  0  0  0  0  0  0  0
    9.8602    0.6075   -5.5801 C   0  0  0  0  0  0  0  0  0  0  0  0
    8.7852    0.4834   -4.6857 C   0  0  0  0  0  0  0  0  0  0  0  0
    8.7029    1.2624   -3.5321 C   0  0  0  0  0  0  0  0  0  0  0  0
    7.5799    1.0991   -2.5353 C   0  0  0  0  0  0  0  0  0  0  0  0
    7.2053    2.4363   -1.8894 C   0  0  0  0  0  0  0  0  0  0  0  0
    9.9186   -0.2241   -6.8088 C   0  0  0  0  0  0  0  0  0  0  0  0
    8.8151   -0.8408   -7.1880 N   0  0  0  0  0  0  0  0  0  0  0  0
    8.8292   -1.6055   -8.3065 C   0  0  0  0  0  0  0  0  0  0  0  0
    7.6262   -2.2601   -8.6970 C   0  0  0  0  0  0  0  0  0  0  0  0
    7.5895   -3.0511   -9.8251 C   0  0  0  0  0  0  0  0  0  0  0  0
    8.7560   -3.2248  -10.6115 C   0  0  0  0  0  0  0  0  0  0  0  0
    9.9375   -2.6030  -10.2594 C   0  0  0  0  0  0  0  0  0  0  0  0
   10.0087   -1.7752   -9.1041 C   0  0  0  0  0  0  0  0  0  0  0  0
   11.2056   -1.1104   -8.6731 C   0  0  0  0  0  0  0  0  0  0  0  0
   12.4720   -1.2762   -9.4543 C   0  0  0  0  0  0  0  0  0  0  0  0
   12.6669   -0.5704  -10.6554 C   0  0  0  0  0  0  0  0  0  0  0  0
   13.8346   -0.7334  -11.4060 C   0  0  0  0  0  0  0  0  0  0  0  0
   14.8223   -1.6110  -10.9490 C   0  0  0  0  0  0  0  0  0  0  0  0
   14.6522   -2.3110   -9.7339 C   0  0  0  0  0  0  0  0  0  0  0  0
   13.4774   -2.1527   -9.0008 C   0  0  0  0  0  0  0  0  0  0  0  0
   15.8673   -3.1986   -9.4420 C   0  0  1  0  0  0  0  0  0  0  0  0
   16.6980   -2.6746   -8.2248 C   0  0  0  0  0  0  0  0  0  0  0  0
   16.0542   -2.7095   -6.8351 C   0  0  0  0  0  0  0  0  0  0  0  0
   17.0043   -2.2164   -5.7364 C   0  0  0  0  0  0  0  0  0  0  0  0
   16.3804   -2.2302   -4.3402 C   0  0  0  0  0  0  0  0  0  0  0  0
   15.4871   -4.6902   -9.2462 C   0  0  0  0  0  0  0  0  0  0  0  0
   14.7671   -5.3618  -10.4195 C   0  0  0  0  0  0  0  0  0  0  0  0
   14.4234   -6.8309  -10.1500 C   0  0  0  0  0  0  0  0  0  0  0  0
   13.7029   -7.5111  -11.3150 C   0  0  0  0  0  0  0  0  0  0  0  0
   16.7068   -2.9667  -10.7025 C   0  0  0  0  0  0  0  0  0  0  0  0
   17.9313   -3.5327  -11.0529 C   0  0  0  0  0  0  0  0  0  0  0  0
   18.5465   -3.1474  -12.2524 C   0  0  0  0  0  0  0  0  0  0  0  0
   17.9441   -2.1992  -13.0898 C   0  0  0  0  0  0  0  0  0  0  0  0
   16.7164   -1.6259  -12.7435 C   0  0  0  0  0  0  0  0  0  0  0  0
   16.1003   -2.0153  -11.5491 C   0  0  0  0  0  0  0  0  0  0  0  0
   11.1638   -0.3330   -7.5234 C   0  0  0  0  0  0  0  0  0  0  0  0
   12.3748    0.3816   -6.9629 C   0  0  0  0  0  0  0  0  0  0  0  0
   12.0005    1.7158   -6.3109 C   0  0  0  0  0  0  0  0  0  0  0  0
    6.1053    4.9882    0.1369 C   0  0  0  0  0  0  0  0  0  0  0  0
    4.9306    5.1505    0.8657 C   0  0  0  0  0  0  0  0  0  0  0  0
    6.1090   11.2571    2.7179 H   0  0  0  0  0  0  0  0  0  0  0  0
    6.7960    9.6596    3.0914 H   0  0  0  0  0  0  0  0  0  0  0  0
    5.2055   10.1147    3.7394 H   0  0  0  0  0  0  0  0  0  0  0  0
    5.8512    9.7355    0.7388 H   0  0  0  0  0  0  0  0  0  0  0  0
    4.2743   10.1881    1.3810 H   0  0  0  0  0  0  0  0  0  0  0  0
    4.1575    8.0014    2.6323 H   0  0  0  0  0  0  0  0  0  0  0  0
    5.7332    7.5483    1.9826 H   0  0  0  0  0  0  0  0  0  0  0  0
    4.8048    7.6958   -0.3611 H   0  0  0  0  0  0  0  0  0  0  0  0
    3.2325    8.1441    0.2901 H   0  0  0  0  0  0  0  0  0  0  0  0
    3.7671    5.9367   -1.6016 H   0  0  0  0  0  0  0  0  0  0  0  0
    2.1990    6.3720   -0.9312 H   0  0  0  0  0  0  0  0  0  0  0  0
    1.8786    3.9893   -0.1468 H   0  0  0  0  0  0  0  0  0  0  0  0
    3.4410    3.5578   -0.8409 H   0  0  0  0  0  0  0  0  0  0  0  0
    2.6143    4.2452   -3.1224 H   0  0  0  0  0  0  0  0  0  0  0  0
    1.0543    4.6753   -2.4262 H   0  0  0  0  0  0  0  0  0  0  0  0
    2.2732    1.8328   -2.4139 H   0  0  0  0  0  0  0  0  0  0  0  0
    0.9545    2.3942   -3.4671 H   0  0  0  0  0  0  0  0  0  0  0  0
    0.7007    2.2676   -1.7108 H   0  0  0  0  0  0  0  0  0  0  0  0
    1.0950    7.0042    1.3917 H   0  0  0  0  0  0  0  0  0  0  0  0
   -0.0845    6.2441    3.4480 H   0  0  0  0  0  0  0  0  0  0  0  0
    0.9637    4.5742    4.9602 H   0  0  0  0  0  0  0  0  0  0  0  0
    3.2134    3.6369    4.4382 H   0  0  0  0  0  0  0  0  0  0  0  0
    5.5657    2.9830    3.4504 H   0  0  0  0  0  0  0  0  0  0  0  0
    7.6648    2.7095    2.1470 H   0  0  0  0  0  0  0  0  0  0  0  0
   12.8369    4.9095   -0.7649 H   0  0  0  0  0  0  0  0  0  0  0  0
   12.9189    6.3532    1.2815 H   0  0  0  0  0  0  0  0  0  0  0  0
   10.8561    6.6712    2.6577 H   0  0  0  0  0  0  0  0  0  0  0  0
    8.7413    5.5657    2.0155 H   0  0  0  0  0  0  0  0  0  0  0  0
   11.5754    3.0573   -3.9242 H   0  0  0  0  0  0  0  0  0  0  0  0
    8.0077   -0.2464   -4.9196 H   0  0  0  0  0  0  0  0  0  0  0  0
    7.8951    0.3915   -1.7447 H   0  0  0  0  0  0  0  0  0  0  0  0
    6.7009    0.6488   -3.0216 H   0  0  0  0  0  0  0  0  0  0  0  0
    6.4485    2.2893   -1.1061 H   0  0  0  0  0  0  0  0  0  0  0  0
    6.7372    3.0824   -2.6564 H   0  0  0  0  0  0  0  0  0  0  0  0
    6.7464   -2.1073   -8.0687 H   0  0  0  0  0  0  0  0  0  0  0  0
    6.6610   -3.5491  -10.1163 H   0  0  0  0  0  0  0  0  0  0  0  0
    8.7191   -3.8579  -11.5017 H   0  0  0  0  0  0  0  0  0  0  0  0
   10.8323   -2.7451  -10.8677 H   0  0  0  0  0  0  0  0  0  0  0  0
   11.8860    0.1087  -11.0067 H   0  0  0  0  0  0  0  0  0  0  0  0
   13.9620   -0.1864  -12.3436 H   0  0  0  0  0  0  0  0  0  0  0  0
   13.3122   -2.7148   -8.0792 H   0  0  0  0  0  0  0  0  0  0  0  0
   17.0036   -1.6381   -8.4484 H   0  0  0  0  0  0  0  0  0  0  0  0
   17.6329   -3.2621   -8.1936 H   0  0  0  0  0  0  0  0  0  0  0  0
   15.7260   -3.7338   -6.5862 H   0  0  0  0  0  0  0  0  0  0  0  0
   15.1463   -2.0830   -6.8244 H   0  0  0  0  0  0  0  0  0  0  0  0
   17.3407   -1.1924   -5.9806 H   0  0  0  0  0  0  0  0  0  0  0  0
   17.9177   -2.8388   -5.7386 H   0  0  0  0  0  0  0  0  0  0  0  0
   15.4866   -1.5856   -4.2929 H   0  0  0  0  0  0  0  0  0  0  0  0
   17.0888   -1.8709   -3.5769 H   0  0  0  0  0  0  0  0  0  0  0  0
   16.0670   -3.2473   -4.0503 H   0  0  0  0  0  0  0  0  0  0  0  0
   14.8567   -4.7791   -8.3451 H   0  0  0  0  0  0  0  0  0  0  0  0
   16.4119   -5.2509   -9.0176 H   0  0  0  0  0  0  0  0  0  0  0  0
   15.3923   -5.2957  -11.3267 H   0  0  0  0  0  0  0  0  0  0  0  0
   13.8388   -4.8095  -10.6491 H   0  0  0  0  0  0  0  0  0  0  0  0
   13.7983   -6.8990   -9.2407 H   0  0  0  0  0  0  0  0  0  0  0  0
   15.3510   -7.3854   -9.9165 H   0  0  0  0  0  0  0  0  0  0  0  0
   12.7518   -7.0037  -11.5481 H   0  0  0  0  0  0  0  0  0  0  0  0
   13.4714   -8.5643  -11.0894 H   0  0  0  0  0  0  0  0  0  0  0  0
   14.3171   -7.4937  -12.2310 H   0  0  0  0  0  0  0  0  0  0  0  0
   18.4131   -4.2727  -10.4079 H   0  0  0  0  0  0  0  0  0  0  0  0
   19.5045   -3.5904  -12.5366 H   0  0  0  0  0  0  0  0  0  0  0  0
   18.4366   -1.9071  -14.0208 H   0  0  0  0  0  0  0  0  0  0  0  0
   16.2480   -0.8881  -13.4003 H   0  0  0  0  0  0  0  0  0  0  0  0
   13.1279    0.5328   -7.7488 H   0  0  0  0  0  0  0  0  0  0  0  0
   12.8479   -0.2662   -6.1999 H   0  0  0  0  0  0  0  0  0  0  0  0
   11.6829    2.4260   -7.0982 H   0  0  0  0  0  0  0  0  0  0  0  0
   12.8804    2.1652   -5.8253 H   0  0  0  0  0  0  0  0  0  0  0  0
    6.2704    5.5459   -0.7891 H   0  0  0  0  0  0  0  0  0  0  0  0
  1  2  1  0
  1 73  1  0
  1 74  1  0
  1 75  1  0
  2  3  1  0
  2 76  1  0
  2 77  1  0
  3  4  1  0
  3 78  1  0
  3 79  1  0
  5  4  1  6
  4 80  1  0
  4 81  1  0
  5  6  1  0
  5 10  1  0
  5 72  1  0
  6  7  1  0
  6 82  1  0
  6 83  1  0
  7  8  1  0
  7 84  1  0
  7 85  1  0
  8  9  1  0
  8 86  1  0
  8 87  1  0
  9 88  1  0
  9 89  1  0
  9 90  1  0
 10 11  2  0
 10 15  1  0
 11 12  1  0
 11 91  1  0
 12 13  2  0
 12 92  1  0
 13 14  1  0
 13 93  1  0
 14 15  2  0
 14 94  1  0
 15 16  1  0
 16 17  2  0
 16 72  1  0
 17 18  1  0
 17 95  1  0
 18 19  2  0
 18 96  1  0
 19 20  1  0
 19 71  1  0
 20 21  2  0
 20 29  1  0
 21 22  1  0
 21 37  1  0
 22 23  2  0
 22 30  1  0
 23 24  1  0
 24 25  2  0
 24 29  1  0
 25 26  1  0
 25 97  1  0
 26 27  2  0
 26 98  1  0
 27 28  1  0
 27 99  1  0
 28 29  2  0
 28100  1  0
 30 31  2  0
 30 35  1  0
 31 32  1  0
 31101  1  0
 32 33  2  0
 32 70  1  0
 33 34  1  0
 33 38  1  0
 34 35  2  0
 34102  1  0
 35 36  1  0
 36 37  1  0
 36103  1  0
 36104  1  0
 37105  1  0
 37106  1  0
 38 39  2  0
 38 68  1  0
 39 40  1  0
 40 41  2  0
 40 45  1  0
 41 42  1  0
 41107  1  0
 42 43  2  0
 42108  1  0
 43 44  1  0
 43109  1  0
 44 45  2  0
 44110  1  0
 45 46  1  0
 46 47  1  0
 46 68  2  0
 47 48  2  0
 47 52  1  0
 48 49  1  0
 48111  1  0
 49 50  2  0
 49112  1  0
 50 51  1  0
 50 67  1  0
 51 52  2  0
 51 53  1  0
 52113  1  0
 53 54  1  1
 53 58  1  0
 53 62  1  0
 54 55  1  0
 54114  1  0
 54115  1  0
 55 56  1  0
 55116  1  0
 55117  1  0
 56 57  1  0
 56118  1  0
 56119  1  0
 57120  1  0
 57121  1  0
 57122  1  0
 58 59  1  0
 58123  1  0
 58124  1  0
 59 60  1  0
 59125  1  0
 59126  1  0
 60 61  1  0
 60127  1  0
 60128  1  0
 61129  1  0
 61130  1  0
 61131  1  0
 62 63  1  0
 62 67  2  0
 63 64  2  0
 63132  1  0
 64 65  1  0
 64133  1  0
 65 66  2  0
 65134  1  0
 66 67  1  0
 66135  1  0
 68 69  1  0
 69 70  1  0
 69136  1  0
 69137  1  0
 70138  1  0
 70139  1  0
 71 72  2  0
 71140  1  0
M  END

