
     RDKit          3D

 29 29  0  0  0  0  0  0  0  0999 V2000
    1.2213   -0.5510   -0.6495 C   0  0  0  0  0  0  0  0  0  0  0  0
    1.7031    0.2193    0.4476 O   0  0  0  0  0  0  0  0  0  0  0  0
    2.4467    1.3098    0.1404 C   0  0  0  0  0  0  0  0  0  0  0  0
    1.8569    2.5771   -0.0351 C   0  0  0  0  0  0  0  0  0  0  0  0
    0.1200    2.7152    0.0819 Cl  0  0  0  0  0  0  0  0  0  0  0  0
    2.6236    3.7145   -0.2877 C   0  0  0  0  0  0  0  0  0  0  0  0
    4.0210    3.6275   -0.3859 C   0  0  0  0  0  0  0  0  0  0  0  0
    4.8509    4.8718   -0.6313 C   0  0  0  0  0  0  0  0  0  0  0  0
    4.9479    5.8286    0.5717 C   0  0  0  0  0  0  0  0  0  0  0  0
    5.6679    5.2267    1.7829 C   0  0  0  0  0  0  0  0  0  0  0  0
    5.8528    6.1940    2.9426 C   0  0  0  0  0  0  0  0  0  0  0  0
    5.5483    5.6851    4.1525 N   0  0  0  0  0  0  0  0  0  0  0  0
    6.4194    7.7420    2.7534 S   0  0  0  0  0  0  0  0  0  0  0  0
    4.6222    2.3720   -0.2269 C   0  0  0  0  0  0  0  0  0  0  0  0
    3.8465    1.2376    0.0252 C   0  0  0  0  0  0  0  0  0  0  0  0
    4.6257   -0.3130    0.2226 Cl  0  0  0  0  0  0  0  0  0  0  0  0
    0.6526   -1.3868   -0.2202 H   0  0  0  0  0  0  0  0  0  0  0  0
    2.0543   -0.9526   -1.2510 H   0  0  0  0  0  0  0  0  0  0  0  0
    0.5541    0.0467   -1.2933 H   0  0  0  0  0  0  0  0  0  0  0  0
    2.1157    4.6728   -0.4133 H   0  0  0  0  0  0  0  0  0  0  0  0
    4.4172    5.4294   -1.4784 H   0  0  0  0  0  0  0  0  0  0  0  0
    5.8661    4.5751   -0.9438 H   0  0  0  0  0  0  0  0  0  0  0  0
    3.9362    6.1518    0.8725 H   0  0  0  0  0  0  0  0  0  0  0  0
    5.4852    6.7417    0.2727 H   0  0  0  0  0  0  0  0  0  0  0  0
    6.6780    4.8999    1.4759 H   0  0  0  0  0  0  0  0  0  0  0  0
    5.1388    4.3215    2.1281 H   0  0  0  0  0  0  0  0  0  0  0  0
    5.1975    4.7410    4.2656 H   0  0  0  0  0  0  0  0  0  0  0  0
    5.6777    6.2655    4.9743 H   0  0  0  0  0  0  0  0  0  0  0  0
    5.7056    2.2615   -0.3031 H   0  0  0  0  0  0  0  0  0  0  0  0
  1  2  1  0
  1 17  1  0
  1 18  1  0
  1 19  1  0
  2  3  1  0
  3  4  2  0
  3 15  1  0
  4  5  1  0
  4  6  1  0
  6  7  2  0
  6 20  1  0
  7  8  1  0
  7 14  1  0
  8  9  1  0
  8 21  1  0
  8 22  1  0
  9 10  1  0
  9 23  1  0
  9 24  1  0
 10 11  1  0
 10 25  1  0
 10 26  1  0
 11 12  1  0
 11 13  2  0
 12 27  1  0
 12 28  1  0
 14 15  2  0
 14 29  1  0
 15 16  1  0
M  END

