
     RDKit          3D

 72 76  0  0  0  0  0  0  0  0999 V2000
    5.5259   -4.3055    3.2137 C   0  0  0  0  0  0  0  0  0  0  0  0
    4.6639   -3.1943    3.1709 O   0  0  0  0  0  0  0  0  0  0  0  0
    3.5970   -3.2033    2.3261 C   0  0  0  0  0  0  0  0  0  0  0  0
    2.8022   -2.0474    2.3220 C   0  0  0  0  0  0  0  0  0  0  0  0
    1.6973   -1.9938    1.4778 C   0  0  0  0  0  0  0  0  0  0  0  0
    1.3572   -3.0563    0.6359 C   0  0  0  0  0  0  0  0  0  0  0  0
    2.1519   -4.2175    0.6394 C   0  0  0  0  0  0  0  0  0  0  0  0
    1.8589   -5.3289   -0.1859 N   0  0  0  0  0  0  0  0  0  0  0  0
    2.7207   -6.5129   -0.1944 C   0  0  0  0  0  0  0  0  0  0  0  0
    2.2176   -7.3901   -1.3561 C   0  0  2  0  0  0  0  0  0  0  0  0
    3.1311   -7.2401   -2.5931 C   0  0  0  0  0  0  0  0  0  0  0  0
    4.0242   -6.4031   -2.6107 O   0  0  0  0  0  0  0  0  0  0  0  0
    2.8853   -8.0680   -3.6544 N   0  0  0  0  0  0  0  0  0  0  0  0
    3.6728   -7.9264   -4.8774 C   0  0  0  0  0  0  0  0  0  0  0  0
    4.2838   -9.2607   -5.3134 C   0  0  0  0  0  0  0  0  0  0  0  0
    3.2686  -10.2903   -5.3897 N   0  0  0  0  0  0  0  0  0  0  0  0
    3.4005  -11.3982   -6.2490 C   0  0  0  0  0  0  0  0  0  0  0  0
    4.4289  -11.4724   -7.2078 C   0  0  0  0  0  0  0  0  0  0  0  0
    4.4167  -12.6259   -8.0718 C   0  0  0  0  0  0  0  0  0  0  0  0
    3.4093  -13.5369   -7.8390 C   0  0  0  0  0  0  0  0  0  0  0  0
    3.2991  -14.7490   -8.6573 N   0  0  0  0  0  0  0  0  0  0  0  0
    3.6109  -15.9883   -8.0339 C   0  0  0  0  0  0  0  0  0  0  0  0
    2.3278  -16.5356   -7.2437 C   0  0  0  0  0  0  0  0  0  0  0  0
    1.2319  -16.6010   -8.1632 N   0  0  0  0  0  0  0  0  0  0  0  0
    0.8844  -17.8456   -8.8242 C   0  0  0  0  0  0  0  0  0  0  0  0
   -0.5378  -18.3195   -8.4679 C   0  0  0  0  0  0  0  0  0  0  0  0
   -1.5314  -17.4208   -8.8936 O   0  0  0  0  0  0  0  0  0  0  0  0
    0.9018  -15.3589   -8.8015 C   0  0  0  0  0  0  0  0  0  0  0  0
    2.2054  -14.8282   -9.5632 C   0  0  0  0  0  0  0  0  0  0  0  0
    2.4643  -13.4484   -6.9017 N   0  0  0  0  0  0  0  0  0  0  0  0
    2.4619  -12.3412   -6.0780 N   0  0  0  0  0  0  0  0  0  0  0  0
    2.5034  -10.4435   -4.1659 C   0  0  0  0  0  0  0  0  0  0  0  0
    1.8727   -9.1176   -3.7441 C   0  0  0  0  0  0  0  0  0  0  0  0
    0.7892   -6.8719   -1.6123 C   0  0  0  0  0  0  0  0  0  0  0  0
    0.7433   -5.4781   -0.9941 C   0  0  0  0  0  0  0  0  0  0  0  0
   -0.1476   -4.6743   -1.1785 O   0  0  0  0  0  0  0  0  0  0  0  0
    3.2750   -4.2833    1.4939 C   0  0  0  0  0  0  0  0  0  0  0  0
    6.3099   -4.0669    3.9455 H   0  0  0  0  0  0  0  0  0  0  0  0
    6.0009   -4.4999    2.2346 H   0  0  0  0  0  0  0  0  0  0  0  0
    5.0039   -5.2238    3.5410 H   0  0  0  0  0  0  0  0  0  0  0  0
    3.0730   -1.2192    2.9791 H   0  0  0  0  0  0  0  0  0  0  0  0
    1.0747   -1.0950    1.4675 H   0  0  0  0  0  0  0  0  0  0  0  0
    0.4915   -3.0001   -0.0167 H   0  0  0  0  0  0  0  0  0  0  0  0
    2.6483   -7.0456    0.7708 H   0  0  0  0  0  0  0  0  0  0  0  0
    3.7652   -6.2238   -0.3696 H   0  0  0  0  0  0  0  0  0  0  0  0
    2.2134   -8.4448   -1.0467 H   0  0  0  0  0  0  0  0  0  0  0  0
    4.4522   -7.1785   -4.6896 H   0  0  0  0  0  0  0  0  0  0  0  0
    3.0132   -7.5548   -5.6839 H   0  0  0  0  0  0  0  0  0  0  0  0
    5.1006   -9.5385   -4.6107 H   0  0  0  0  0  0  0  0  0  0  0  0
    4.7368   -9.1098   -6.3011 H   0  0  0  0  0  0  0  0  0  0  0  0
    5.2089  -10.7230   -7.3015 H   0  0  0  0  0  0  0  0  0  0  0  0
    5.1596  -12.7740   -8.8539 H   0  0  0  0  0  0  0  0  0  0  0  0
    4.4286  -15.8683   -7.3145 H   0  0  0  0  0  0  0  0  0  0  0  0
    3.8873  -16.7517   -8.7828 H   0  0  0  0  0  0  0  0  0  0  0  0
    2.1283  -15.7863   -6.4686 H   0  0  0  0  0  0  0  0  0  0  0  0
    2.5376  -17.5267   -6.8186 H   0  0  0  0  0  0  0  0  0  0  0  0
    1.6047  -18.6258   -8.5346 H   0  0  0  0  0  0  0  0  0  0  0  0
    0.9412  -17.7126   -9.9185 H   0  0  0  0  0  0  0  0  0  0  0  0
   -0.5942  -18.5192   -7.3823 H   0  0  0  0  0  0  0  0  0  0  0  0
   -0.7061  -19.2769   -8.9878 H   0  0  0  0  0  0  0  0  0  0  0  0
   -1.7061  -16.7805   -8.1923 H   0  0  0  0  0  0  0  0  0  0  0  0
    0.6781  -14.5953   -8.0472 H   0  0  0  0  0  0  0  0  0  0  0  0
    0.0767  -15.5058   -9.5097 H   0  0  0  0  0  0  0  0  0  0  0  0
    1.9759  -13.8431   -9.9841 H   0  0  0  0  0  0  0  0  0  0  0  0
    2.4188  -15.5378  -10.3827 H   0  0  0  0  0  0  0  0  0  0  0  0
    3.1501  -10.8078   -3.3355 H   0  0  0  0  0  0  0  0  0  0  0  0
    1.7342  -11.2033   -4.3478 H   0  0  0  0  0  0  0  0  0  0  0  0
    1.3629   -9.2459   -2.7825 H   0  0  0  0  0  0  0  0  0  0  0  0
    1.1116   -8.8237   -4.4915 H   0  0  0  0  0  0  0  0  0  0  0  0
    0.0229   -7.4878   -1.1118 H   0  0  0  0  0  0  0  0  0  0  0  0
    0.5047   -6.8052   -2.6716 H   0  0  0  0  0  0  0  0  0  0  0  0
    3.8985   -5.1722    1.5063 H   0  0  0  0  0  0  0  0  0  0  0  0
  1  2  1  0
  1 38  1  0
  1 39  1  0
  1 40  1  0
  2  3  1  0
  3  4  2  0
  3 37  1  0
  4  5  1  0
  4 41  1  0
  5  6  2  0
  5 42  1  0
  6  7  1  0
  6 43  1  0
  7  8  1  0
  7 37  2  0
  8  9  1  0
  8 35  1  0
  9 10  1  0
  9 44  1  0
  9 45  1  0
 10 11  1  0
 10 34  1  0
 10 46  1  1
 11 12  2  0
 11 13  1  0
 13 14  1  0
 13 33  1  0
 14 15  1  0
 14 47  1  0
 14 48  1  0
 15 16  1  0
 15 49  1  0
 15 50  1  0
 16 17  1  0
 16 32  1  0
 17 18  2  0
 17 31  1  0
 18 19  1  0
 18 51  1  0
 19 20  2  0
 19 52  1  0
 20 21  1  0
 20 30  1  0
 21 22  1  0
 21 29  1  0
 22 23  1  0
 22 53  1  0
 22 54  1  0
 23 24  1  0
 23 55  1  0
 23 56  1  0
 24 25  1  0
 24 28  1  0
 25 26  1  0
 25 57  1  0
 25 58  1  0
 26 27  1  0
 26 59  1  0
 26 60  1  0
 27 61  1  0
 28 29  1  0
 28 62  1  0
 28 63  1  0
 29 64  1  0
 29 65  1  0
 30 31  2  0
 32 33  1  0
 32 66  1  0
 32 67  1  0
 33 68  1  0
 33 69  1  0
 34 35  1  0
 34 70  1  0
 34 71  1  0
 35 36  2  0
 37 72  1  0
M  END

