
     RDKit          3D

 42 43  0  0  0  0  0  0  0  0999 V2000
    1.8183    2.0230    0.8506 C   0  0  0  0  0  0  0  0  0  0  0  0
    2.6694    0.7579    0.6841 C   0  0  1  0  0  0  0  0  0  0  0  0
    3.1012    0.5765   -0.7781 C   0  0  0  0  0  0  0  0  0  0  0  0
    3.8625    0.7971    1.6572 C   0  0  0  0  0  0  0  0  0  0  0  0
    4.6891   -0.4910    1.6908 C   0  0  0  0  0  0  0  0  0  0  0  0
    5.6871   -0.4847    2.7100 N   0  0  0  0  0  0  0  0  0  0  0  0
    6.9503   -1.2011    2.6948 C   0  0  0  0  0  0  0  0  0  0  0  0
    7.5365   -1.0463    4.0713 C   0  0  0  0  0  0  0  0  0  0  0  0
    8.3009   -1.8938    4.8538 C   0  0  0  0  0  0  0  0  0  0  0  0
    8.5582   -1.1806    6.0467 C   0  0  0  0  0  0  0  0  0  0  0  0
    7.7717    0.0146    5.9775 N   0  0  0  0  0  0  0  0  0  0  0  0
    8.2642    1.2398    6.5803 C   0  0  1  0  0  0  0  0  0  0  0  0
    9.3842    1.9855    5.8234 C   0  0  0  0  0  0  0  0  0  0  0  0
    9.4069    3.3582    6.5010 C   0  0  0  0  0  0  0  0  0  0  0  0
    7.9140    3.6844    6.7728 C   0  0  0  0  0  0  0  0  0  0  0  0
    7.1738    2.3197    6.7711 C   0  0  0  0  0  0  0  0  0  0  0  0
    7.2358    0.1424    4.6786 N   0  0  0  0  0  0  0  0  0  0  0  0
    0.9326    1.9922    0.1973 H   0  0  0  0  0  0  0  0  0  0  0  0
    2.3955    2.9253    0.5871 H   0  0  0  0  0  0  0  0  0  0  0  0
    1.4669    2.1418    1.8880 H   0  0  0  0  0  0  0  0  0  0  0  0
    2.0408   -0.1093    0.9642 H   0  0  0  0  0  0  0  0  0  0  0  0
    3.7641    1.3982   -1.0992 H   0  0  0  0  0  0  0  0  0  0  0  0
    2.2255    0.5784   -1.4454 H   0  0  0  0  0  0  0  0  0  0  0  0
    3.6335   -0.3725   -0.9513 H   0  0  0  0  0  0  0  0  0  0  0  0
    3.4914    0.9956    2.6768 H   0  0  0  0  0  0  0  0  0  0  0  0
    4.5245    1.6407    1.3956 H   0  0  0  0  0  0  0  0  0  0  0  0
    5.1734   -0.7201    0.7280 H   0  0  0  0  0  0  0  0  0  0  0  0
    4.0265   -1.3583    1.9062 H   0  0  0  0  0  0  0  0  0  0  0  0
    5.6568    0.1079    3.5712 H   0  0  0  0  0  0  0  0  0  0  0  0
    7.5385   -0.7251    1.8797 H   0  0  0  0  0  0  0  0  0  0  0  0
    6.7680   -2.2414    2.3796 H   0  0  0  0  0  0  0  0  0  0  0  0
    8.6505   -2.8955    4.6071 H   0  0  0  0  0  0  0  0  0  0  0  0
    8.8471   -1.5757    7.0223 H   0  0  0  0  0  0  0  0  0  0  0  0
    8.6574    0.9473    7.5701 H   0  0  0  0  0  0  0  0  0  0  0  0
    9.0797    2.0642    4.7656 H   0  0  0  0  0  0  0  0  0  0  0  0
   10.3438    1.4472    5.8591 H   0  0  0  0  0  0  0  0  0  0  0  0
    9.9107    4.1368    5.9051 H   0  0  0  0  0  0  0  0  0  0  0  0
    9.9550    3.2887    7.4572 H   0  0  0  0  0  0  0  0  0  0  0  0
    7.5155    4.3403    5.9815 H   0  0  0  0  0  0  0  0  0  0  0  0
    7.7860    4.2319    7.7204 H   0  0  0  0  0  0  0  0  0  0  0  0
    6.4803    2.2497    5.9210 H   0  0  0  0  0  0  0  0  0  0  0  0
    6.5862    2.1455    7.6860 H   0  0  0  0  0  0  0  0  0  0  0  0
  1  2  1  0
  1 18  1  0
  1 19  1  0
  1 20  1  0
  2  3  1  0
  2  4  1  0
  2 21  1  6
  3 22  1  0
  3 23  1  0
  3 24  1  0
  4  5  1  0
  4 25  1  0
  4 26  1  0
  5  6  1  0
  5 27  1  0
  5 28  1  0
  6  7  1  0
  6 29  1  0
  7  8  1  0
  7 30  1  0
  7 31  1  0
  8  9  1  0
  8 17  2  0
  9 10  2  0
  9 32  1  0
 10 11  1  0
 10 33  1  0
 11 12  1  0
 11 17  1  0
 12 13  1  0
 12 16  1  0
 12 34  1  1
 13 14  1  0
 13 35  1  0
 13 36  1  0
 14 15  1  0
 14 37  1  0
 14 38  1  0
 15 16  1  0
 15 39  1  0
 15 40  1  0
 16 41  1  0
 16 42  1  0
M  END

