
     RDKit          3D

 35 38  0  0  0  0  0  0  0  0999 V2000
    4.0566   -2.0790    0.1508 C   0  0  0  0  0  0  0  0  0  0  0  0
    4.5476   -0.7389   -0.3679 C   0  0  0  0  0  0  0  0  0  0  0  0
    4.9676    0.1215    0.7173 O   0  0  0  0  0  0  0  0  0  0  0  0
    4.0402    0.8270    1.3500 C   0  0  0  0  0  0  0  0  0  0  0  0
    2.8830    0.9434    1.0185 O   0  0  0  0  0  0  0  0  0  0  0  0
    4.5899    1.5231    2.5522 C   0  0  0  0  0  0  0  0  0  0  0  0
    5.1580    0.9399    3.7122 C   0  0  0  0  0  0  0  0  0  0  0  0
    5.4794    1.9650    4.5964 C   0  0  0  0  0  0  0  0  0  0  0  0
    5.0997    3.1877    4.0370 N   0  0  0  0  0  0  0  0  0  0  0  0
    5.2256    4.4449    4.5606 C   0  0  0  0  0  0  0  0  0  0  0  0
    4.7819    5.5267    3.8224 C   0  0  0  0  0  0  0  0  0  0  0  0
    4.2200    5.3273    2.5466 C   0  0  0  0  0  0  0  0  0  0  0  0
    4.1140    4.0347    2.0357 C   0  0  0  0  0  0  0  0  0  0  0  0
    3.6125    3.8431    0.8289 F   0  0  0  0  0  0  0  0  0  0  0  0
    4.5427    2.9240    2.7795 C   0  0  0  0  0  0  0  0  0  0  0  0
    6.1324    1.7819    5.9317 C   0  0  0  0  0  0  0  0  0  0  0  0
    6.3855    2.7504    6.6374 O   0  0  0  0  0  0  0  0  0  0  0  0
    6.3960    0.3693    6.2502 C   0  0  0  0  0  0  0  0  0  0  0  0
    6.9982    0.1235    7.4251 N   0  0  0  0  0  0  0  0  0  0  0  0
    7.2351   -1.1327    7.7455 C   0  0  0  0  0  0  0  0  0  0  0  0
    6.8544   -2.1978    6.8754 C   0  0  0  0  0  0  0  0  0  0  0  0
    6.2655   -1.9919    5.7229 N   0  0  0  0  0  0  0  0  0  0  0  0
    6.0157   -0.7047    5.3547 C   0  0  0  0  0  0  0  0  0  0  0  0
    5.3598   -0.4939    4.0668 C   0  0  0  0  0  0  0  0  0  0  0  0
    4.9593   -1.3806    3.3031 O   0  0  0  0  0  0  0  0  0  0  0  0
    3.8600   -2.7513   -0.7001 H   0  0  0  0  0  0  0  0  0  0  0  0
    3.1253   -1.9622    0.7232 H   0  0  0  0  0  0  0  0  0  0  0  0
    4.8040   -2.5380    0.8128 H   0  0  0  0  0  0  0  0  0  0  0  0
    3.7730   -0.2194   -0.9516 H   0  0  0  0  0  0  0  0  0  0  0  0
    5.4499   -0.8502   -0.9856 H   0  0  0  0  0  0  0  0  0  0  0  0
    5.6818    4.4876    5.5505 H   0  0  0  0  0  0  0  0  0  0  0  0
    4.8765    6.5295    4.2388 H   0  0  0  0  0  0  0  0  0  0  0  0
    3.8666    6.1612    1.9376 H   0  0  0  0  0  0  0  0  0  0  0  0
    7.7300   -1.3388    8.7012 H   0  0  0  0  0  0  0  0  0  0  0  0
    7.0532   -3.2380    7.1657 H   0  0  0  0  0  0  0  0  0  0  0  0
  1  2  1  0
  1 26  1  0
  1 27  1  0
  1 28  1  0
  2  3  1  0
  2 29  1  0
  2 30  1  0
  3  4  1  0
  4  5  2  0
  4  6  1  0
  6  7  1  0
  6 15  2  0
  7  8  2  0
  7 24  1  0
  8  9  1  0
  8 16  1  0
  9 10  1  0
  9 15  1  0
 10 11  2  0
 10 31  1  0
 11 12  1  0
 11 32  1  0
 12 13  2  0
 12 33  1  0
 13 14  1  0
 13 15  1  0
 16 17  2  0
 16 18  1  0
 18 19  2  0
 18 23  1  0
 19 20  1  0
 20 21  2  0
 20 34  1  0
 21 22  1  0
 21 35  1  0
 22 23  2  0
 23 24  1  0
 24 25  2  0
M  END

