
     RDKit          3D

 38 40  0  0  0  0  0  0  0  0999 V2000
    3.2049    2.1010    0.6970 C   0  0  0  0  0  0  0  0  0  0  0  0
    2.9725    0.6730    0.8686 N   0  0  0  0  0  0  0  0  0  0  0  0
    2.5785   -0.0935   -0.3055 C   0  0  0  0  0  0  0  0  0  0  0  0
    3.6502   -0.1198    2.1755 S   0  0  1  0  0  0  0  0  0  0  0  0
    3.6741    0.8305    3.2843 O   0  0  0  0  0  0  0  0  0  0  0  0
    3.0011   -1.4261    2.2658 O   0  0  0  0  0  0  0  0  0  0  0  0
    5.3664   -0.4312    1.7242 C   0  0  0  0  0  0  0  0  0  0  0  0
    6.3268    0.5922    1.9273 C   0  0  0  0  0  0  0  0  0  0  0  0
    7.6389    0.4123    1.5415 C   0  0  0  0  0  0  0  0  0  0  0  0
    7.9893   -0.8369    0.9491 C   0  0  0  0  0  0  0  0  0  0  0  0
    7.0136   -1.8806    0.7710 C   0  0  0  0  0  0  0  0  0  0  0  0
    5.7052   -1.6768    1.1593 C   0  0  0  0  0  0  0  0  0  0  0  0
    7.7010   -3.0657    0.1485 C   0  0  0  0  0  0  0  0  0  0  0  0
    9.1459   -2.5645   -0.0719 C   0  0  0  0  0  0  0  0  0  0  0  0
    9.1819   -1.2171    0.5005 N   0  0  0  0  0  0  0  0  0  0  0  0
   10.3725   -0.2915    0.2295 C   0  0  0  0  0  0  0  0  0  0  0  0
   10.2975    0.2555   -0.8771 O   0  0  0  0  0  0  0  0  0  0  0  0
   11.3415   -0.2518    1.2342 C   0  0  0  0  0  0  0  0  0  0  0  0
   12.5550    0.4933    1.1822 C   0  0  0  0  0  0  0  0  0  0  0  0
   13.3604    0.3325    2.3167 C   0  0  0  0  0  0  0  0  0  0  0  0
   12.8189   -0.5175    3.2676 C   0  0  0  0  0  0  0  0  0  0  0  0
   13.5638   -1.0083    4.9242 Br  0  0  0  0  0  0  0  0  0  0  0  0
   11.2548   -1.1541    2.7799 S   0  0  0  0  0  0  0  0  0  0  0  0
    2.3065    2.5533    0.2479 H   0  0  0  0  0  0  0  0  0  0  0  0
    4.0666    2.3135    0.0357 H   0  0  0  0  0  0  0  0  0  0  0  0
    3.3669    2.5675    1.6759 H   0  0  0  0  0  0  0  0  0  0  0  0
    1.6897    0.3785   -0.7537 H   0  0  0  0  0  0  0  0  0  0  0  0
    2.3069   -1.1132   -0.0070 H   0  0  0  0  0  0  0  0  0  0  0  0
    3.3742   -0.1297   -1.0742 H   0  0  0  0  0  0  0  0  0  0  0  0
    6.0158    1.5179    2.4138 H   0  0  0  0  0  0  0  0  0  0  0  0
    8.3961    1.1807    1.6884 H   0  0  0  0  0  0  0  0  0  0  0  0
    4.9400   -2.4481    1.0582 H   0  0  0  0  0  0  0  0  0  0  0  0
    7.2154   -3.3708   -0.7924 H   0  0  0  0  0  0  0  0  0  0  0  0
    7.6660   -3.9400    0.8195 H   0  0  0  0  0  0  0  0  0  0  0  0
    9.4255   -2.4846   -1.1350 H   0  0  0  0  0  0  0  0  0  0  0  0
    9.9106   -3.1805    0.4266 H   0  0  0  0  0  0  0  0  0  0  0  0
   12.8073    1.1125    0.3231 H   0  0  0  0  0  0  0  0  0  0  0  0
   14.3264    0.8198    2.4557 H   0  0  0  0  0  0  0  0  0  0  0  0
  1  2  1  0
  1 24  1  0
  1 25  1  0
  1 26  1  0
  2  3  1  0
  4  2  1  6
  3 27  1  0
  3 28  1  0
  3 29  1  0
  4  5  2  0
  4  6  2  0
  4  7  1  0
  7  8  2  0
  7 12  1  0
  8  9  1  0
  8 30  1  0
  9 10  2  0
  9 31  1  0
 10 11  1  0
 10 15  1  0
 11 12  2  0
 11 13  1  0
 12 32  1  0
 13 14  1  0
 13 33  1  0
 13 34  1  0
 14 15  1  0
 14 35  1  0
 14 36  1  0
 15 16  1  0
 16 17  2  0
 16 18  1  0
 18 19  2  0
 18 23  1  0
 19 20  1  0
 19 37  1  0
 20 21  2  0
 20 38  1  0
 21 22  1  0
 21 23  1  0
M  END

