
     RDKit          3D

 46 46  0  0  0  0  0  0  0  0999 V2000
    2.7911    3.4986   -0.2691 C   0  0  0  0  0  0  0  0  0  0  0  0
    2.2186    2.1063    0.0167 C   0  0  1  0  0  0  0  0  0  0  0  0
    0.6887    2.0951   -0.0943 C   0  0  0  0  0  0  0  0  0  0  0  0
    2.8020    1.0254   -0.9179 C   0  0  0  0  0  0  0  0  0  0  0  0
    4.2600    0.8651   -0.8510 N   0  0  0  0  0  0  0  0  0  0  0  0
    4.7655    0.1197    0.2973 C   0  0  0  0  0  0  0  0  0  0  0  0
    4.4348   -1.3910    0.3046 C   0  0  0  0  0  0  0  0  0  0  0  0
    5.0353   -2.1831   -0.8263 C   0  0  0  0  0  0  0  0  0  0  0  0
    4.4750   -2.0838   -2.0745 N   0  0  0  0  0  0  0  0  0  0  0  0
    6.0433   -2.9385   -0.5443 N   0  0  0  0  0  0  0  0  0  0  0  0
    6.5191   -3.5644   -1.7194 O   0  0  0  0  0  0  0  0  0  0  0  0
    5.0119    1.4277   -1.8756 C   0  0  0  0  0  0  0  0  0  0  0  0
    4.4421    1.9050   -2.8485 O   0  0  0  0  0  0  0  0  0  0  0  0
    6.5594    1.5419   -1.7826 C   0  0  1  0  0  0  0  0  0  0  0  0
    6.9305    2.5001   -0.6273 C   0  0  0  0  0  0  0  0  0  0  0  0
    7.3501    0.2019   -1.7121 C   0  0  0  0  0  0  0  0  0  0  0  0
    8.7507    0.5052   -2.2971 C   0  0  0  0  0  0  0  0  0  0  0  0
    8.5957    1.7969   -3.1432 C   0  0  0  0  0  0  0  0  0  0  0  0
    7.0926    2.1206   -3.1212 C   0  0  0  0  0  0  0  0  0  0  0  0
    2.3535    4.2482    0.4099 H   0  0  0  0  0  0  0  0  0  0  0  0
    2.5806    3.8088   -1.3053 H   0  0  0  0  0  0  0  0  0  0  0  0
    3.8828    3.5240   -0.1319 H   0  0  0  0  0  0  0  0  0  0  0  0
    2.4774    1.8384    1.0589 H   0  0  0  0  0  0  0  0  0  0  0  0
    0.3659    2.3547   -1.1171 H   0  0  0  0  0  0  0  0  0  0  0  0
    0.2346    2.8262    0.5931 H   0  0  0  0  0  0  0  0  0  0  0  0
    0.2688    1.1044    0.1464 H   0  0  0  0  0  0  0  0  0  0  0  0
    2.5523    1.2722   -1.9584 H   0  0  0  0  0  0  0  0  0  0  0  0
    2.3252    0.0599   -0.6803 H   0  0  0  0  0  0  0  0  0  0  0  0
    4.3487    0.5590    1.2206 H   0  0  0  0  0  0  0  0  0  0  0  0
    5.8494    0.2356    0.3627 H   0  0  0  0  0  0  0  0  0  0  0  0
    3.3429   -1.5451    0.3158 H   0  0  0  0  0  0  0  0  0  0  0  0
    4.8297   -1.8131    1.2398 H   0  0  0  0  0  0  0  0  0  0  0  0
    3.9480   -1.2519   -2.3057 H   0  0  0  0  0  0  0  0  0  0  0  0
    5.0029   -2.5105   -2.8279 H   0  0  0  0  0  0  0  0  0  0  0  0
    7.2655   -4.0813   -1.3946 H   0  0  0  0  0  0  0  0  0  0  0  0
    6.6629    2.1051    0.3635 H   0  0  0  0  0  0  0  0  0  0  0  0
    6.4228    3.4697   -0.7515 H   0  0  0  0  0  0  0  0  0  0  0  0
    8.0138    2.6947   -0.6172 H   0  0  0  0  0  0  0  0  0  0  0  0
    6.8374   -0.5518   -2.3284 H   0  0  0  0  0  0  0  0  0  0  0  0
    7.4203   -0.2258   -0.7028 H   0  0  0  0  0  0  0  0  0  0  0  0
    9.1140   -0.3445   -2.8953 H   0  0  0  0  0  0  0  0  0  0  0  0
    9.4886    0.6501   -1.4922 H   0  0  0  0  0  0  0  0  0  0  0  0
    8.9652    1.6722   -4.1727 H   0  0  0  0  0  0  0  0  0  0  0  0
    9.1830    2.6195   -2.7045 H   0  0  0  0  0  0  0  0  0  0  0  0
    6.5748    1.6143   -3.9485 H   0  0  0  0  0  0  0  0  0  0  0  0
    6.8691    3.1921   -3.2298 H   0  0  0  0  0  0  0  0  0  0  0  0
  1  2  1  0
  1 20  1  0
  1 21  1  0
  1 22  1  0
  2  3  1  0
  2  4  1  0
  2 23  1  1
  3 24  1  0
  3 25  1  0
  3 26  1  0
  4  5  1  0
  4 27  1  0
  4 28  1  0
  5  6  1  0
  5 12  1  0
  6  7  1  0
  6 29  1  0
  6 30  1  0
  7  8  1  0
  7 31  1  0
  7 32  1  0
  8  9  1  0
  8 10  2  0
  9 33  1  0
  9 34  1  0
 10 11  1  0
 11 35  1  0
 12 13  2  0
 14 12  1  6
 14 15  1  0
 14 16  1  0
 14 19  1  0
 15 36  1  0
 15 37  1  0
 15 38  1  0
 16 17  1  0
 16 39  1  0
 16 40  1  0
 17 18  1  0
 17 41  1  0
 17 42  1  0
 18 19  1  0
 18 43  1  0
 18 44  1  0
 19 45  1  0
 19 46  1  0
M  END

