
     RDKit          3D

 36 36  0  0  0  0  0  0  0  0999 V2000
    4.6046   -1.5425    1.7906 C   0  0  0  0  0  0  0  0  0  0  0  0
    4.4994   -0.4021    0.9464 O   0  0  0  0  0  0  0  0  0  0  0  0
    4.9443   -0.7203   -0.3139 N   0  0  0  0  0  0  0  0  0  0  0  0
    4.9311    0.2368   -1.1807 C   0  0  0  0  0  0  0  0  0  0  0  0
    4.5247    1.6925   -0.9385 C   0  0  0  0  0  0  0  0  0  0  0  0
    3.6069    1.9051    0.0374 N   0  0  0  0  0  0  0  0  0  0  0  0
    4.9742    2.5981   -1.6240 O   0  0  0  0  0  0  0  0  0  0  0  0
    5.3890   -0.1481   -2.5374 C   0  0  0  0  0  0  0  0  0  0  0  0
    5.6885    0.7148   -3.5671 C   0  0  0  0  0  0  0  0  0  0  0  0
    6.1780   -0.1721   -4.9717 S   0  0  0  0  0  0  0  0  0  0  0  0
    5.9451   -1.6672   -4.0398 C   0  0  0  0  0  0  0  0  0  0  0  0
    6.1970   -2.8735   -4.6727 N   0  0  0  0  0  0  0  0  0  0  0  0
    5.9507   -4.1565   -4.1872 C   0  0  0  0  0  0  0  0  0  0  0  0
    5.4585   -4.4315   -3.1258 O   0  0  0  0  0  0  0  0  0  0  0  0
    6.3688   -5.0205   -5.1392 O   0  0  0  0  0  0  0  0  0  0  0  0
    6.2554   -6.4735   -4.9646 C   0  0  1  0  0  0  0  0  0  0  0  0
    4.7819   -6.8694   -4.8236 C   0  0  0  0  0  0  0  0  0  0  0  0
    6.8414   -7.0181   -6.2684 C   0  0  0  0  0  0  0  0  0  0  0  0
    7.0916   -6.9223   -3.7619 C   0  0  0  0  0  0  0  0  0  0  0  0
    5.5456   -1.4901   -2.8289 N   0  0  0  0  0  0  0  0  0  0  0  0
    4.2266   -1.2261    2.7725 H   0  0  0  0  0  0  0  0  0  0  0  0
    5.6541   -1.8649    1.8779 H   0  0  0  0  0  0  0  0  0  0  0  0
    3.9995   -2.3760    1.4004 H   0  0  0  0  0  0  0  0  0  0  0  0
    3.4145    1.1794    0.7183 H   0  0  0  0  0  0  0  0  0  0  0  0
    3.3770    2.8719    0.2389 H   0  0  0  0  0  0  0  0  0  0  0  0
    5.6601    1.7994   -3.5464 H   0  0  0  0  0  0  0  0  0  0  0  0
    6.5936   -2.8380   -5.6044 H   0  0  0  0  0  0  0  0  0  0  0  0
    4.2001   -6.4937   -5.6799 H   0  0  0  0  0  0  0  0  0  0  0  0
    4.3497   -6.4683   -3.8981 H   0  0  0  0  0  0  0  0  0  0  0  0
    4.6938   -7.9670   -4.8072 H   0  0  0  0  0  0  0  0  0  0  0  0
    6.2643   -6.6577   -7.1335 H   0  0  0  0  0  0  0  0  0  0  0  0
    6.8164   -8.1182   -6.2664 H   0  0  0  0  0  0  0  0  0  0  0  0
    7.8859   -6.6933   -6.3902 H   0  0  0  0  0  0  0  0  0  0  0  0
    6.6874   -6.5187   -2.8248 H   0  0  0  0  0  0  0  0  0  0  0  0
    8.1346   -6.5864   -3.8726 H   0  0  0  0  0  0  0  0  0  0  0  0
    7.0919   -8.0218   -3.7017 H   0  0  0  0  0  0  0  0  0  0  0  0
  1  2  1  0
  1 21  1  0
  1 22  1  0
  1 23  1  0
  2  3  1  0
  3  4  2  0
  4  5  1  0
  4  8  1  0
  5  6  1  0
  5  7  2  0
  6 24  1  0
  6 25  1  0
  8  9  2  0
  8 20  1  0
  9 10  1  0
  9 26  1  0
 10 11  1  0
 11 12  1  0
 11 20  2  0
 12 13  1  0
 12 27  1  0
 13 14  2  0
 13 15  1  0
 16 15  1  6
 16 17  1  0
 16 18  1  0
 16 19  1  0
 17 28  1  0
 17 29  1  0
 17 30  1  0
 18 31  1  0
 18 32  1  0
 18 33  1  0
 19 34  1  0
 19 35  1  0
 19 36  1  0
M  END

