
     RDKit          3D

 88 94  0  0  0  0  0  0  0  0999 V2000
    4.5700    2.4188    2.6886 O   0  0  0  0  0  0  0  0  0  0  0  0
    4.4236    1.6822    3.6261 C   0  0  0  0  0  0  0  0  0  0  0  0
    3.1992    1.5239    4.1820 O   0  0  0  0  0  0  0  0  0  0  0  0
    5.5343    0.8533    4.2608 C   0  0  0  0  0  0  0  0  0  0  0  0
    6.9280    1.1756    3.7211 C   0  0  0  0  0  0  0  0  0  0  0  0
    7.4539    2.5372    4.1831 C   0  0  0  0  0  0  0  0  0  0  0  0
    7.4792    2.6779    5.5995 O   0  0  0  0  0  0  0  0  0  0  0  0
    8.4439    2.0704    6.3451 C   0  0  0  0  0  0  0  0  0  0  0  0
    8.3065    2.1910    7.7405 C   0  0  0  0  0  0  0  0  0  0  0  0
    9.2476    1.5978    8.5778 C   0  0  0  0  0  0  0  0  0  0  0  0
   10.3236    0.8758    8.0534 C   0  0  0  0  0  0  0  0  0  0  0  0
   10.4781    0.7504    6.6592 C   0  0  0  0  0  0  0  0  0  0  0  0
   11.5986   -0.0021    6.0608 C   0  0  0  0  0  0  0  0  0  0  0  0
   11.5133   -0.6310    4.8237 C   0  0  0  0  0  0  0  0  0  0  0  0
   10.3422   -1.2166    4.3385 N   0  0  0  0  0  0  0  0  0  0  0  0
   10.6689   -2.2414    3.5889 C   0  0  0  0  0  0  0  0  0  0  0  0
    9.7547   -3.3236    3.2501 C   0  0  0  0  0  0  0  0  0  0  0  0
   10.0645   -4.6406    3.5151 C   0  0  0  0  0  0  0  0  0  0  0  0
    9.3606   -5.8730    3.2024 C   0  0  0  0  0  0  0  0  0  0  0  0
   10.0139   -6.9239    3.7861 C   0  0  0  0  0  0  0  0  0  0  0  0
   11.1614   -6.4188    4.5246 C   0  0  0  0  0  0  0  0  0  0  0  0
   11.1696   -5.0456    4.2624 N   0  0  0  0  0  0  0  0  0  0  0  0
   11.6058   -4.4091    4.9131 H   0  0  0  0  0  0  0  0  0  0  0  0
   12.0954   -7.0099    5.3632 C   0  0  0  0  0  0  0  0  0  0  0  0
   11.9798   -8.3671    5.9220 C   0  0  0  0  0  0  0  0  0  0  0  0
   13.1465   -9.0982    6.2172 C   0  0  0  0  0  0  0  0  0  0  0  0
   13.0579  -10.3922    6.7348 C   0  0  0  0  0  0  0  0  0  0  0  0
   11.8198  -10.9806    6.9787 C   0  0  0  0  0  0  0  0  0  0  0  0
   10.6443  -10.2565    6.7131 C   0  0  0  0  0  0  0  0  0  0  0  0
    9.4766  -10.8868    7.0111 O   0  0  0  0  0  0  0  0  0  0  0  0
    8.2380  -10.2241    6.8128 C   0  0  0  0  0  0  0  0  0  0  0  0
    7.1192  -11.1591    7.2419 C   0  0  0  0  0  0  0  0  0  0  0  0
    7.1948  -11.5557    8.7141 C   0  0  0  0  0  0  0  0  0  0  0  0
    6.0586  -12.4745    9.1427 C   0  0  0  0  0  0  0  0  0  0  0  0
    5.1457  -12.8033    8.4370 O   0  0  0  0  0  0  0  0  0  0  0  0
    6.1273  -12.9139   10.4222 O   0  0  0  0  0  0  0  0  0  0  0  0
   10.7245   -8.9594    6.1919 C   0  0  0  0  0  0  0  0  0  0  0  0
   13.1916   -6.1104    5.8034 C   0  0  0  0  0  0  0  0  0  0  0  0
   13.3117   -5.6999    7.0313 N   0  0  0  0  0  0  0  0  0  0  0  0
   14.0338   -4.4954    7.0347 C   0  0  0  0  0  0  0  0  0  0  0  0
   13.9502   -3.6223    8.0804 C   0  0  0  0  0  0  0  0  0  0  0  0
   13.8730   -2.1717    7.8662 C   0  0  0  0  0  0  0  0  0  0  0  0
   14.2924   -0.9862    8.4788 C   0  0  0  0  0  0  0  0  0  0  0  0
   13.5917    0.0973    7.8747 C   0  0  0  0  0  0  0  0  0  0  0  0
   12.7375   -0.4256    6.8971 C   0  0  0  0  0  0  0  0  0  0  0  0
   12.9684   -1.7861    6.9022 N   0  0  0  0  0  0  0  0  0  0  0  0
   12.3100   -2.4367    6.4953 H   0  0  0  0  0  0  0  0  0  0  0  0
   14.6628   -4.2418    5.6627 C   0  0  0  0  0  0  0  0  0  0  0  0
   14.1454   -5.4276    4.8277 C   0  0  0  0  0  0  0  0  0  0  0  0
   12.1539   -2.2765    3.2173 C   0  0  0  0  0  0  0  0  0  0  0  0
   12.6902   -1.0378    3.9464 C   0  0  0  0  0  0  0  0  0  0  0  0
    9.5340    1.3760    5.8151 C   0  0  0  0  0  0  0  0  0  0  0  0
    3.2472    0.9169    4.9344 H   0  0  0  0  0  0  0  0  0  0  0  0
    5.2906   -0.2101    4.0849 H   0  0  0  0  0  0  0  0  0  0  0  0
    5.5062    0.9984    5.3551 H   0  0  0  0  0  0  0  0  0  0  0  0
    6.8956    1.1876    2.6197 H   0  0  0  0  0  0  0  0  0  0  0  0
    7.6252    0.3770    4.0192 H   0  0  0  0  0  0  0  0  0  0  0  0
    6.7828    3.3330    3.8312 H   0  0  0  0  0  0  0  0  0  0  0  0
    8.4518    2.7324    3.7537 H   0  0  0  0  0  0  0  0  0  0  0  0
    7.4607    2.7577    8.1352 H   0  0  0  0  0  0  0  0  0  0  0  0
    9.1368    1.6909    9.6615 H   0  0  0  0  0  0  0  0  0  0  0  0
   11.0356    0.3944    8.7242 H   0  0  0  0  0  0  0  0  0  0  0  0
    8.7440   -3.0890    2.9068 H   0  0  0  0  0  0  0  0  0  0  0  0
    8.4828   -5.9274    2.5598 H   0  0  0  0  0  0  0  0  0  0  0  0
    9.7635   -7.9776    3.6865 H   0  0  0  0  0  0  0  0  0  0  0  0
   14.1260   -8.6547    6.0288 H   0  0  0  0  0  0  0  0  0  0  0  0
   13.9712  -10.9525    6.9508 H   0  0  0  0  0  0  0  0  0  0  0  0
   11.7332  -11.9893    7.3872 H   0  0  0  0  0  0  0  0  0  0  0  0
    8.1170   -9.9513    5.7480 H   0  0  0  0  0  0  0  0  0  0  0  0
    8.2123   -9.2863    7.4012 H   0  0  0  0  0  0  0  0  0  0  0  0
    7.1415  -12.0665    6.6179 H   0  0  0  0  0  0  0  0  0  0  0  0
    6.1526  -10.6715    7.0392 H   0  0  0  0  0  0  0  0  0  0  0  0
    7.1696  -10.6592    9.3626 H   0  0  0  0  0  0  0  0  0  0  0  0
    8.1578  -12.0527    8.9239 H   0  0  0  0  0  0  0  0  0  0  0  0
    6.9230  -12.5739   10.8560 H   0  0  0  0  0  0  0  0  0  0  0  0
    9.8219   -8.3724    6.0357 H   0  0  0  0  0  0  0  0  0  0  0  0
   13.6106   -4.0203    9.0434 H   0  0  0  0  0  0  0  0  0  0  0  0
   15.0401   -0.9102    9.2665 H   0  0  0  0  0  0  0  0  0  0  0  0
   13.7051    1.1525    8.1165 H   0  0  0  0  0  0  0  0  0  0  0  0
   15.7598   -4.2362    5.7555 H   0  0  0  0  0  0  0  0  0  0  0  0
   14.3880   -3.2673    5.2370 H   0  0  0  0  0  0  0  0  0  0  0  0
   14.9470   -6.1470    4.5841 H   0  0  0  0  0  0  0  0  0  0  0  0
   13.6815   -5.1572    3.8692 H   0  0  0  0  0  0  0  0  0  0  0  0
   12.2558   -2.2175    2.1218 H   0  0  0  0  0  0  0  0  0  0  0  0
   12.6560   -3.2093    3.5092 H   0  0  0  0  0  0  0  0  0  0  0  0
   12.8660   -0.2123    3.2338 H   0  0  0  0  0  0  0  0  0  0  0  0
   13.6344   -1.1903    4.4822 H   0  0  0  0  0  0  0  0  0  0  0  0
    9.6718    1.2971    4.7397 H   0  0  0  0  0  0  0  0  0  0  0  0
  1  2  2  0
  2  3  1  0
  2  4  1  0
  3 53  1  0
  4  5  1  0
  4 54  1  0
  4 55  1  0
  5  6  1  0
  5 56  1  0
  5 57  1  0
  6  7  1  0
  6 58  1  0
  6 59  1  0
  7  8  1  0
  8  9  2  0
  8 52  1  0
  9 10  1  0
  9 60  1  0
 10 11  2  0
 10 61  1  0
 11 12  1  0
 11 62  1  0
 12 13  1  0
 12 52  2  0
 13 14  1  0
 13 45  2  0
 14 15  2  0
 14 51  1  0
 15 16  1  0
 16 17  2  0
 16 50  1  0
 17 18  1  0
 17 63  1  0
 18 19  2  0
 18 22  1  0
 19 20  1  0
 19 64  1  0
 20 21  2  0
 20 65  1  0
 21 22  1  0
 21 24  1  0
 22 23  1  0
 24 25  1  0
 24 38  2  0
 25 26  2  0
 25 37  1  0
 26 27  1  0
 26 66  1  0
 27 28  2  0
 27 67  1  0
 28 29  1  0
 28 68  1  0
 29 30  1  0
 29 37  2  0
 30 31  1  0
 31 32  1  0
 31 69  1  0
 31 70  1  0
 32 33  1  0
 32 71  1  0
 32 72  1  0
 33 34  1  0
 33 73  1  0
 33 74  1  0
 34 35  2  0
 34 36  1  0
 36 75  1  0
 37 76  1  0
 38 39  1  0
 38 49  1  0
 39 40  2  0
 40 41  1  0
 40 48  1  0
 41 42  2  0
 41 77  1  0
 42 43  1  0
 42 46  1  0
 43 44  2  0
 43 78  1  0
 44 45  1  0
 44 79  1  0
 45 46  1  0
 46 47  1  0
 48 49  1  0
 48 80  1  0
 48 81  1  0
 49 82  1  0
 49 83  1  0
 50 51  1  0
 50 84  1  0
 50 85  1  0
 51 86  1  0
 51 87  1  0
 52 88  1  0
M  END

