
     RDKit          3D

 69 72  0  0  0  0  0  0  0  0999 V2000
    5.4568    9.1897    7.0662 C   0  0  0  0  0  0  0  0  0  0  0  0
    6.0747    7.9193    6.4964 C   0  0  0  0  0  0  0  0  0  0  0  0
    6.0610    7.9056    5.0745 O   0  0  0  0  0  0  0  0  0  0  0  0
    4.9008    7.4567    4.4681 C   0  0  0  0  0  0  0  0  0  0  0  0
    3.9361    7.0786    5.1294 O   0  0  0  0  0  0  0  0  0  0  0  0
    4.9965    7.4949    3.0430 C   0  0  0  0  0  0  0  0  0  0  0  0
    6.4406    8.0827    2.1918 S   0  0  0  0  0  0  0  0  0  0  0  0
    5.5502    7.8412    0.6648 C   0  0  0  0  0  0  0  0  0  0  0  0
    6.3124    7.5897   -0.5267 N   0  0  0  0  0  0  0  0  0  0  0  0
    6.4602    8.3917   -1.5745 C   0  0  0  0  0  0  0  0  0  0  0  0
    5.8762    9.6090   -1.5647 N   0  0  0  0  0  0  0  0  0  0  0  0
    6.0064   10.3553   -2.6391 C   0  0  0  0  0  0  0  0  0  0  0  0
    5.4194   11.5684   -2.6737 N   0  0  0  0  0  0  0  0  0  0  0  0
    4.5535   12.0690   -1.5940 C   0  0  0  0  0  0  0  0  0  0  0  0
    3.1205   11.5842   -1.6994 C   0  0  0  0  0  0  0  0  0  0  0  0
    2.7064   10.4110   -1.0463 C   0  0  0  0  0  0  0  0  0  0  0  0
    1.3908    9.9684   -1.1580 C   0  0  0  0  0  0  0  0  0  0  0  0
    0.4495   10.6899   -1.9149 C   0  0  0  0  0  0  0  0  0  0  0  0
   -0.8778   10.2211   -1.9580 N   0  0  0  0  0  0  0  0  0  0  0  0
   -2.0063   10.4042   -3.1986 S   0  0  1  0  0  0  0  0  0  0  0  0
   -3.2000    9.7226   -2.7032 O   0  0  0  0  0  0  0  0  0  0  0  0
   -2.0354   11.8078   -3.6107 O   0  0  0  0  0  0  0  0  0  0  0  0
   -1.3359    9.4438   -4.5879 C   0  0  0  0  0  0  0  0  0  0  0  0
   -2.2411    9.5584   -5.8090 C   0  0  0  0  0  0  0  0  0  0  0  0
    0.8544   11.8683   -2.5684 C   0  0  0  0  0  0  0  0  0  0  0  0
    2.1787   12.2936   -2.4586 C   0  0  0  0  0  0  0  0  0  0  0  0
    6.7628    9.9188   -3.7878 C   0  0  0  0  0  0  0  0  0  0  0  0
    7.3618    8.6118   -3.6908 C   0  0  0  0  0  0  0  0  0  0  0  0
    8.1153    8.1165   -4.7161 N   0  0  0  0  0  0  0  0  0  0  0  0
    8.7938    6.8291   -4.5944 C   0  0  0  0  0  0  0  0  0  0  0  0
    8.2309    5.8554   -5.6231 C   0  0  0  0  0  0  0  0  0  0  0  0
    8.2286    6.4666   -6.9448 N   0  0  0  0  0  0  0  0  0  0  0  0
    8.1975    7.8007   -7.2123 C   0  0  0  0  0  0  0  0  0  0  0  0
    8.1260    8.2680   -8.3309 O   0  0  0  0  0  0  0  0  0  0  0  0
    8.3054    8.7551   -6.0085 C   0  0  0  0  0  0  0  0  0  0  0  0
    7.2033    7.8800   -2.6053 N   0  0  0  0  0  0  0  0  0  0  0  0
    4.3639    7.2223    0.8103 N   0  0  0  0  0  0  0  0  0  0  0  0
    4.0205    7.0812    2.0883 C   0  0  0  0  0  0  0  0  0  0  0  0
    2.6753    6.5231    2.4603 C   0  0  0  0  0  0  0  0  0  0  0  0
    5.5554    9.2078    8.1645 H   0  0  0  0  0  0  0  0  0  0  0  0
    4.3871    9.2362    6.8143 H   0  0  0  0  0  0  0  0  0  0  0  0
    5.9546   10.0843    6.6586 H   0  0  0  0  0  0  0  0  0  0  0  0
    5.5405    7.0356    6.8794 H   0  0  0  0  0  0  0  0  0  0  0  0
    7.1370    7.8419    6.7797 H   0  0  0  0  0  0  0  0  0  0  0  0
    6.7494    6.6744   -0.6519 H   0  0  0  0  0  0  0  0  0  0  0  0
    5.4522   12.0888   -3.5427 H   0  0  0  0  0  0  0  0  0  0  0  0
    4.5967   13.1669   -1.6409 H   0  0  0  0  0  0  0  0  0  0  0  0
    5.0015   11.7416   -0.6479 H   0  0  0  0  0  0  0  0  0  0  0  0
    3.4145    9.8261   -0.4550 H   0  0  0  0  0  0  0  0  0  0  0  0
    1.0921    9.0514   -0.6435 H   0  0  0  0  0  0  0  0  0  0  0  0
   -1.1219    9.4435   -1.3502 H   0  0  0  0  0  0  0  0  0  0  0  0
   -1.2554    8.4111   -4.2169 H   0  0  0  0  0  0  0  0  0  0  0  0
   -0.3259    9.8400   -4.7739 H   0  0  0  0  0  0  0  0  0  0  0  0
   -3.2510    9.1868   -5.5811 H   0  0  0  0  0  0  0  0  0  0  0  0
   -1.8302    8.9600   -6.6367 H   0  0  0  0  0  0  0  0  0  0  0  0
   -2.3206   10.6045   -6.1385 H   0  0  0  0  0  0  0  0  0  0  0  0
    0.1261   12.4540   -3.1280 H   0  0  0  0  0  0  0  0  0  0  0  0
    2.4703   13.2239   -2.9572 H   0  0  0  0  0  0  0  0  0  0  0  0
    6.8756   10.5622   -4.6568 H   0  0  0  0  0  0  0  0  0  0  0  0
    8.6484    6.4522   -3.5772 H   0  0  0  0  0  0  0  0  0  0  0  0
    9.8724    6.9878   -4.7709 H   0  0  0  0  0  0  0  0  0  0  0  0
    7.2115    5.5499   -5.3239 H   0  0  0  0  0  0  0  0  0  0  0  0
    8.8547    4.9479   -5.6420 H   0  0  0  0  0  0  0  0  0  0  0  0
    8.1221    5.8720   -7.7624 H   0  0  0  0  0  0  0  0  0  0  0  0
    7.5606    9.5358   -6.1931 H   0  0  0  0  0  0  0  0  0  0  0  0
    9.3019    9.2310   -6.0715 H   0  0  0  0  0  0  0  0  0  0  0  0
    2.1597    6.1829    1.5505 H   0  0  0  0  0  0  0  0  0  0  0  0
    2.0525    7.2762    2.9712 H   0  0  0  0  0  0  0  0  0  0  0  0
    2.7693    5.6881    3.1707 H   0  0  0  0  0  0  0  0  0  0  0  0
  1  2  1  0
  1 40  1  0
  1 41  1  0
  1 42  1  0
  2  3  1  0
  2 43  1  0
  2 44  1  0
  3  4  1  0
  4  5  2  0
  4  6  1  0
  6  7  1  0
  6 38  2  0
  7  8  1  0
  8  9  1  0
  8 37  2  0
  9 10  1  0
  9 45  1  0
 10 11  2  0
 10 36  1  0
 11 12  1  0
 12 13  1  0
 12 27  2  0
 13 14  1  0
 13 46  1  0
 14 15  1  0
 14 47  1  0
 14 48  1  0
 15 16  2  0
 15 26  1  0
 16 17  1  0
 16 49  1  0
 17 18  2  0
 17 50  1  0
 18 19  1  0
 18 25  1  0
 20 19  1  1
 19 51  1  0
 20 21  2  0
 20 22  2  0
 20 23  1  0
 23 24  1  0
 23 52  1  0
 23 53  1  0
 24 54  1  0
 24 55  1  0
 24 56  1  0
 25 26  2  0
 25 57  1  0
 26 58  1  0
 27 28  1  0
 27 59  1  0
 28 29  1  0
 28 36  2  0
 29 30  1  0
 29 35  1  0
 30 31  1  0
 30 60  1  0
 30 61  1  0
 31 32  1  0
 31 62  1  0
 31 63  1  0
 32 33  1  0
 32 64  1  0
 33 34  2  0
 33 35  1  0
 35 65  1  0
 35 66  1  0
 37 38  1  0
 38 39  1  0
 39 67  1  0
 39 68  1  0
 39 69  1  0
M  END

