
     RDKit          3D

 42 43  0  0  0  0  0  0  0  0999 V2000
    1.3129   -0.9046   -2.1957 C   0  0  0  0  0  0  0  0  0  0  0  0
    2.7284   -0.9324   -1.9854 O   0  0  0  0  0  0  0  0  0  0  0  0
    3.3475    0.2788   -1.8214 C   0  0  0  0  0  0  0  0  0  0  0  0
    2.7080    1.3042   -1.8652 O   0  0  0  0  0  0  0  0  0  0  0  0
    4.8140    0.2024   -1.5970 C   0  0  0  0  0  0  0  0  0  0  0  0
    5.4327    1.4672   -1.4470 C   0  0  0  0  0  0  0  0  0  0  0  0
    6.7925    1.6147   -1.2346 C   0  0  0  0  0  0  0  0  0  0  0  0
    7.4418    2.7921   -1.0815 O   0  0  0  0  0  0  0  0  0  0  0  0
    6.6953    3.9866   -1.1348 C   0  0  0  0  0  0  0  0  0  0  0  0
    7.5939    0.4390   -1.1665 C   0  0  0  0  0  0  0  0  0  0  0  0
    8.9072    0.6329   -0.9582 O   0  0  0  0  0  0  0  0  0  0  0  0
    9.7663   -0.4873   -0.8681 C   0  0  0  0  0  0  0  0  0  0  0  0
    7.0063   -0.8162   -1.3102 C   0  0  0  0  0  0  0  0  0  0  0  0
    5.6232   -0.9668   -1.5245 C   0  0  0  0  0  0  0  0  0  0  0  0
    5.0204   -2.2233   -1.6785 N   0  0  0  0  0  0  0  0  0  0  0  0
    5.4696   -3.5204   -1.6450 C   0  0  0  0  0  0  0  0  0  0  0  0
    6.9960   -4.0469   -1.2155 S   0  0  0  0  0  0  0  0  0  0  0  0
    4.4370   -4.3574   -2.0442 N   0  0  0  0  0  0  0  0  0  0  0  0
    4.2562   -5.7409   -2.0244 C   0  0  0  0  0  0  0  0  0  0  0  0
    5.0851   -6.6642   -1.3596 C   0  0  0  0  0  0  0  0  0  0  0  0
    4.8057   -8.0301   -1.3717 C   0  0  0  0  0  0  0  0  0  0  0  0
    3.6839   -8.5131   -2.0470 C   0  0  0  0  0  0  0  0  0  0  0  0
    3.3038  -10.3787   -2.0672 Br  0  0  0  0  0  0  0  0  0  0  0  0
    2.8315   -7.6292   -2.7110 C   0  0  0  0  0  0  0  0  0  0  0  0
    3.1232   -6.2675   -2.6945 C   0  0  0  0  0  0  0  0  0  0  0  0
    2.0223   -5.1784   -3.5374 Cl  0  0  0  0  0  0  0  0  0  0  0  0
    1.0064   -1.9503   -2.3245 H   0  0  0  0  0  0  0  0  0  0  0  0
    1.0664   -0.3176   -3.0921 H   0  0  0  0  0  0  0  0  0  0  0  0
    0.8016   -0.4574   -1.3308 H   0  0  0  0  0  0  0  0  0  0  0  0
    4.7778    2.3344   -1.5088 H   0  0  0  0  0  0  0  0  0  0  0  0
    7.4090    4.8080   -0.9873 H   0  0  0  0  0  0  0  0  0  0  0  0
    5.9294    4.0283   -0.3389 H   0  0  0  0  0  0  0  0  0  0  0  0
    6.1953    4.1158   -2.1118 H   0  0  0  0  0  0  0  0  0  0  0  0
   10.7736   -0.0895   -0.6888 H   0  0  0  0  0  0  0  0  0  0  0  0
    9.7685   -1.0747   -1.8027 H   0  0  0  0  0  0  0  0  0  0  0  0
    9.4827   -1.1516   -0.0336 H   0  0  0  0  0  0  0  0  0  0  0  0
    7.6074   -1.7176   -1.2474 H   0  0  0  0  0  0  0  0  0  0  0  0
    4.0142   -2.1225   -1.8117 H   0  0  0  0  0  0  0  0  0  0  0  0
    3.6665   -3.8867   -2.5128 H   0  0  0  0  0  0  0  0  0  0  0  0
    5.9647   -6.2924   -0.8395 H   0  0  0  0  0  0  0  0  0  0  0  0
    5.4702   -8.7187   -0.8481 H   0  0  0  0  0  0  0  0  0  0  0  0
    1.9476   -7.9857   -3.2392 H   0  0  0  0  0  0  0  0  0  0  0  0
  1  2  1  0
  1 27  1  0
  1 28  1  0
  1 29  1  0
  2  3  1  0
  3  4  2  0
  3  5  1  0
  5  6  2  0
  5 14  1  0
  6  7  1  0
  6 30  1  0
  7  8  1  0
  7 10  2  0
  8  9  1  0
  9 31  1  0
  9 32  1  0
  9 33  1  0
 10 11  1  0
 10 13  1  0
 11 12  1  0
 12 34  1  0
 12 35  1  0
 12 36  1  0
 13 14  2  0
 13 37  1  0
 14 15  1  0
 15 16  1  0
 15 38  1  0
 16 17  2  0
 16 18  1  0
 18 19  1  0
 18 39  1  0
 19 20  2  0
 19 25  1  0
 20 21  1  0
 20 40  1  0
 21 22  2  0
 21 41  1  0
 22 23  1  0
 22 24  1  0
 24 25  2  0
 24 42  1  0
 25 26  1  0
M  END

