
     RDKit          3D

 39 41  0  0  0  0  0  0  0  0999 V2000
    0.7960    0.7949    0.1833 C   0  0  0  0  0  0  0  0  0  0  0  0
    2.2714    0.6951   -0.1037 C   0  0  0  0  0  0  0  0  0  0  0  0
    2.8839   -0.5202   -0.4730 C   0  0  0  0  0  0  0  0  0  0  0  0
    4.2435   -0.5670   -0.7281 C   0  0  0  0  0  0  0  0  0  0  0  0
    5.0033    0.6284   -0.6105 C   0  0  0  0  0  0  0  0  0  0  0  0
    6.3588    0.5685   -0.8676 N   0  0  0  0  0  0  0  0  0  0  0  0
    7.3491    1.5450   -0.8474 C   0  0  0  0  0  0  0  0  0  0  0  0
    7.2243    2.7586   -0.5790 O   0  0  0  0  0  0  0  0  0  0  0  0
    8.6720    0.9875   -1.2019 C   0  0  0  0  0  0  0  0  0  0  0  0
    8.9244   -0.1858   -1.4858 O   0  0  0  0  0  0  0  0  0  0  0  0
    9.6352    2.0446   -1.1617 N   0  0  0  0  0  0  0  0  0  0  0  0
   10.9673    2.0211   -1.4106 C   0  0  0  0  0  0  0  0  0  0  0  0
   11.6444    0.8366   -1.8016 C   0  0  0  0  0  0  0  0  0  0  0  0
   13.0117    0.8490   -2.0584 C   0  0  0  0  0  0  0  0  0  0  0  0
   13.7805    2.0119   -1.9465 C   0  0  0  0  0  0  0  0  0  0  0  0
   13.1507    3.2107   -1.5558 C   0  0  0  0  0  0  0  0  0  0  0  0
   13.8818    4.4442   -1.4167 C   0  0  0  0  0  0  0  0  0  0  0  0
   15.1888    4.5179   -1.6573 O   0  0  0  0  0  0  0  0  0  0  0  0
   13.2513    5.6407   -1.0171 C   0  0  0  0  0  0  0  0  0  0  0  0
   11.8899    5.6420   -0.7474 C   0  0  0  0  0  0  0  0  0  0  0  0
   11.1457    4.4590   -0.8758 C   0  0  0  0  0  0  0  0  0  0  0  0
   11.7448    3.2367   -1.2788 C   0  0  0  0  0  0  0  0  0  0  0  0
    4.4349    1.7869   -0.2608 N   0  0  0  0  0  0  0  0  0  0  0  0
    3.1247    1.8030   -0.0213 C   0  0  0  0  0  0  0  0  0  0  0  0
    0.4939    0.1335    1.0142 H   0  0  0  0  0  0  0  0  0  0  0  0
    0.1871    0.5069   -0.6916 H   0  0  0  0  0  0  0  0  0  0  0  0
    0.5131    1.8224    0.4590 H   0  0  0  0  0  0  0  0  0  0  0  0
    2.2851   -1.4325   -0.5595 H   0  0  0  0  0  0  0  0  0  0  0  0
    4.7284   -1.5041   -1.0154 H   0  0  0  0  0  0  0  0  0  0  0  0
    6.7306   -0.3424   -1.1228 H   0  0  0  0  0  0  0  0  0  0  0  0
    9.1342    2.8977   -0.9024 H   0  0  0  0  0  0  0  0  0  0  0  0
   11.0566   -0.0748   -1.8932 H   0  0  0  0  0  0  0  0  0  0  0  0
   13.4966   -0.0833   -2.3588 H   0  0  0  0  0  0  0  0  0  0  0  0
   14.8509    1.9582   -2.1636 H   0  0  0  0  0  0  0  0  0  0  0  0
   15.5402    3.6558   -1.9266 H   0  0  0  0  0  0  0  0  0  0  0  0
   13.8627    6.5401   -0.9303 H   0  0  0  0  0  0  0  0  0  0  0  0
   11.3931    6.5617   -0.4346 H   0  0  0  0  0  0  0  0  0  0  0  0
   10.0807    4.5032   -0.6499 H   0  0  0  0  0  0  0  0  0  0  0  0
    2.7059    2.7788    0.2624 H   0  0  0  0  0  0  0  0  0  0  0  0
  1  2  1  0
  1 25  1  0
  1 26  1  0
  1 27  1  0
  2  3  2  0
  2 24  1  0
  3  4  1  0
  3 28  1  0
  4  5  2  0
  4 29  1  0
  5  6  1  0
  5 23  1  0
  6  7  1  0
  6 30  1  0
  7  8  2  0
  7  9  1  0
  9 10  2  0
  9 11  1  0
 11 12  1  0
 11 31  1  0
 12 13  2  0
 12 22  1  0
 13 14  1  0
 13 32  1  0
 14 15  2  0
 14 33  1  0
 15 16  1  0
 15 34  1  0
 16 17  1  0
 16 22  2  0
 17 18  1  0
 17 19  2  0
 18 35  1  0
 19 20  1  0
 19 36  1  0
 20 21  2  0
 20 37  1  0
 21 22  1  0
 21 38  1  0
 23 24  2  0
 24 39  1  0
M  END

