
     RDKit          3D

 67 72  0  0  0  0  0  0  0  0999 V2000
    6.3792    1.2976    2.3747 C   0  0  0  0  0  0  0  0  0  0  0  0
    6.2075   -0.0055    2.0023 C   0  0  0  0  0  0  0  0  0  0  0  0
    6.4233   -0.3092    0.6797 O   0  0  0  0  0  0  0  0  0  0  0  0
    6.1254   -1.6695    0.4236 C   0  0  0  0  0  0  0  0  0  0  0  0
    5.7056   -2.2430    1.7352 C   0  0  0  0  0  0  0  0  0  0  0  0
    5.8604   -1.2260    2.7161 C   0  0  0  0  0  0  0  0  0  0  0  0
    5.5882   -1.4983    4.0967 C   0  0  0  0  0  0  0  0  0  0  0  0
    5.8423   -0.4977    5.1485 C   0  0  0  0  0  0  0  0  0  0  0  0
    7.0944    0.1636    5.2180 C   0  0  0  0  0  0  0  0  0  0  0  0
    7.3922    1.1215    6.1969 C   0  0  0  0  0  0  0  0  0  0  0  0
    6.3902    1.4279    7.1071 C   0  0  0  0  0  0  0  0  0  0  0  0
    5.1448    0.7904    7.0588 C   0  0  0  0  0  0  0  0  0  0  0  0
    4.8406   -0.1617    6.1083 C   0  0  0  0  0  0  0  0  0  0  0  0
    4.3539    1.2773    8.0657 O   0  0  0  0  0  0  0  0  0  0  0  0
    5.1111    2.2812    8.7315 C   0  0  0  0  0  0  0  0  0  0  0  0
    6.4087    2.3163    8.1419 O   0  0  0  0  0  0  0  0  0  0  0  0
    5.1189   -2.8233    4.4339 C   0  0  0  0  0  0  0  0  0  0  0  0
    4.9159   -3.2384    5.7713 C   0  0  0  0  0  0  0  0  0  0  0  0
    4.4625   -4.5266    6.1126 C   0  0  0  0  0  0  0  0  0  0  0  0
    4.2812   -4.9409    7.3861 O   0  0  0  0  0  0  0  0  0  0  0  0
    4.5706   -4.0775    8.4675 C   0  0  0  0  0  0  0  0  0  0  0  0
    4.1908   -5.4841    5.0937 C   0  0  0  0  0  0  0  0  0  0  0  0
    3.7931   -6.7585    5.3783 O   0  0  0  0  0  0  0  0  0  0  0  0
    2.5206   -6.9329    5.9823 C   0  0  0  0  0  0  0  0  0  0  0  0
    4.4366   -5.1216    3.7736 C   0  0  0  0  0  0  0  0  0  0  0  0
    4.9098   -3.8373    3.4058 C   0  0  0  0  0  0  0  0  0  0  0  0
    5.2291   -3.5321    2.0532 C   0  0  0  0  0  0  0  0  0  0  0  0
    5.1146   -4.5739    1.1443 O   0  0  0  0  0  0  0  0  0  0  0  0
    4.3008   -4.4825   -0.0141 C   0  0  1  0  0  0  0  0  0  0  0  0
    5.0504   -4.2120   -1.1717 O   0  0  0  0  0  0  0  0  0  0  0  0
    6.0441   -5.2034   -1.4918 C   0  0  2  0  0  0  0  0  0  0  0  0
    6.8122   -4.6832   -2.7038 C   0  0  0  0  0  0  0  0  0  0  0  0
    7.3701   -3.4086   -2.4842 O   0  0  0  0  0  0  0  0  0  0  0  0
    5.3809   -6.5627   -1.7318 C   0  0  2  0  0  0  0  0  0  0  0  0
    4.5856   -6.5910   -2.9098 O   0  0  0  0  0  0  0  0  0  0  0  0
    4.5119   -6.9697   -0.5255 C   0  0  2  0  0  0  0  0  0  0  0  0
    3.7492   -8.1180   -0.8453 O   0  0  0  0  0  0  0  0  0  0  0  0
    3.5587   -5.8188   -0.1453 C   0  0  2  0  0  0  0  0  0  0  0  0
    2.5799   -5.6523   -1.1642 O   0  0  0  0  0  0  0  0  0  0  0  0
    6.7387    2.0108    1.6314 H   0  0  0  0  0  0  0  0  0  0  0  0
    6.0671    1.6606    3.3494 H   0  0  0  0  0  0  0  0  0  0  0  0
    7.0147   -2.1754   -0.0013 H   0  0  0  0  0  0  0  0  0  0  0  0
    5.3407   -1.7195   -0.3528 H   0  0  0  0  0  0  0  0  0  0  0  0
    7.8830   -0.1442    4.5302 H   0  0  0  0  0  0  0  0  0  0  0  0
    8.3646    1.6147    6.2388 H   0  0  0  0  0  0  0  0  0  0  0  0
    3.8466   -0.6074    6.0662 H   0  0  0  0  0  0  0  0  0  0  0  0
    5.1995    2.0344    9.8047 H   0  0  0  0  0  0  0  0  0  0  0  0
    4.6209    3.2654    8.6079 H   0  0  0  0  0  0  0  0  0  0  0  0
    5.1511   -2.5434    6.5724 H   0  0  0  0  0  0  0  0  0  0  0  0
    4.3476   -4.6429    9.3817 H   0  0  0  0  0  0  0  0  0  0  0  0
    3.9460   -3.1675    8.4427 H   0  0  0  0  0  0  0  0  0  0  0  0
    5.6336   -3.7813    8.4756 H   0  0  0  0  0  0  0  0  0  0  0  0
    2.3311   -8.0156    6.0118 H   0  0  0  0  0  0  0  0  0  0  0  0
    1.7254   -6.4484    5.3859 H   0  0  0  0  0  0  0  0  0  0  0  0
    2.4931   -6.5343    7.0091 H   0  0  0  0  0  0  0  0  0  0  0  0
    4.2801   -5.8765    3.0037 H   0  0  0  0  0  0  0  0  0  0  0  0
    3.5728   -3.6616    0.0842 H   0  0  0  0  0  0  0  0  0  0  0  0
    6.7386   -5.2930   -0.6378 H   0  0  0  0  0  0  0  0  0  0  0  0
    6.1458   -4.6979   -3.5853 H   0  0  0  0  0  0  0  0  0  0  0  0
    7.6457   -5.3736   -2.9097 H   0  0  0  0  0  0  0  0  0  0  0  0
    6.6332   -2.8038   -2.3320 H   0  0  0  0  0  0  0  0  0  0  0  0
    6.1704   -7.3191   -1.8792 H   0  0  0  0  0  0  0  0  0  0  0  0
    3.8521   -5.9671   -2.7537 H   0  0  0  0  0  0  0  0  0  0  0  0
    5.1619   -7.1930    0.3365 H   0  0  0  0  0  0  0  0  0  0  0  0
    3.7547   -8.1696   -1.8166 H   0  0  0  0  0  0  0  0  0  0  0  0
    3.0722   -6.0390    0.8214 H   0  0  0  0  0  0  0  0  0  0  0  0
    2.1309   -6.5097   -1.2305 H   0  0  0  0  0  0  0  0  0  0  0  0
  1  2  2  0
  1 40  1  0
  1 41  1  0
  2  3  1  0
  2  6  1  0
  3  4  1  0
  4  5  1  0
  4 42  1  0
  4 43  1  0
  5  6  2  0
  5 27  1  0
  6  7  1  0
  7  8  1  0
  7 17  2  0
  8  9  2  0
  8 13  1  0
  9 10  1  0
  9 44  1  0
 10 11  2  0
 10 45  1  0
 11 12  1  0
 11 16  1  0
 12 13  2  0
 12 14  1  0
 13 46  1  0
 14 15  1  0
 15 16  1  0
 15 47  1  0
 15 48  1  0
 17 18  1  0
 17 26  1  0
 18 19  2  0
 18 49  1  0
 19 20  1  0
 19 22  1  0
 20 21  1  0
 21 50  1  0
 21 51  1  0
 21 52  1  0
 22 23  1  0
 22 25  2  0
 23 24  1  0
 24 53  1  0
 24 54  1  0
 24 55  1  0
 25 26  1  0
 25 56  1  0
 26 27  2  0
 27 28  1  0
 28 29  1  0
 29 30  1  0
 29 38  1  0
 29 57  1  6
 30 31  1  0
 31 32  1  0
 31 34  1  0
 31 58  1  1
 32 33  1  0
 32 59  1  0
 32 60  1  0
 33 61  1  0
 34 35  1  0
 34 36  1  0
 34 62  1  1
 35 63  1  0
 36 37  1  0
 36 38  1  0
 36 64  1  1
 37 65  1  0
 38 39  1  0
 38 66  1  1
 39 67  1  0
M  END

