
     RDKit          3D

 66 70  0  0  0  0  0  0  0  0999 V2000
    8.0421    0.3413    3.4405 C   0  0  0  0  0  0  0  0  0  0  0  0
    7.0220    0.0454    2.3401 C   0  0  0  0  0  0  0  0  0  0  0  0
    7.5131   -0.9735    1.3072 C   0  0  0  0  0  0  0  0  0  0  0  0
    6.4956   -1.2734    0.2025 C   0  0  0  0  0  0  0  0  0  0  0  0
    6.9850   -2.3014   -0.8208 C   0  0  0  0  0  0  0  0  0  0  0  0
    5.9466   -2.5785   -1.9135 C   0  0  0  0  0  0  0  0  0  0  0  0
    6.3813   -3.5648   -2.8911 N   0  0  0  0  0  0  0  0  0  0  0  0
    6.1691   -4.9427   -2.7510 C   0  0  0  0  0  0  0  0  0  0  0  0
    5.5956   -5.4742   -1.8242 O   0  0  0  0  0  0  0  0  0  0  0  0
    6.7805   -5.5568   -3.9537 C   0  0  0  0  0  0  0  0  0  0  0  0
    6.8194   -6.9319   -4.2783 C   0  0  0  0  0  0  0  0  0  0  0  0
    6.3244   -7.9076   -3.5631 N   0  0  0  0  0  0  0  0  0  0  0  0
    6.3731   -9.1985   -3.8891 C   0  0  0  0  0  0  0  0  0  0  0  0
    5.8270  -10.2319   -3.0933 C   0  0  0  0  0  0  0  0  0  0  0  0
    5.9164  -11.5540   -3.4958 C   0  0  0  0  0  0  0  0  0  0  0  0
    6.5534  -11.8989   -4.7078 C   0  0  0  0  0  0  0  0  0  0  0  0
    7.1034  -10.9232   -5.5223 C   0  0  0  0  0  0  0  0  0  0  0  0
    7.0384   -9.5589   -5.1562 C   0  0  0  0  0  0  0  0  0  0  0  0
    7.5447   -8.5692   -5.8906 N   0  0  0  0  0  0  0  0  0  0  0  0
    7.5000   -7.3010   -5.5770 C   0  0  0  0  0  0  0  0  0  0  0  0
    8.0289   -6.2340   -6.3382 C   0  0  0  0  0  0  0  0  0  0  0  0
    8.7419   -6.3313   -7.6342 C   0  0  0  0  0  0  0  0  0  0  0  0
    9.0169   -7.3158   -8.2872 O   0  0  0  0  0  0  0  0  0  0  0  0
    9.0602   -5.0126   -7.9833 N   0  0  0  0  0  0  0  0  0  0  0  0
    9.7886   -4.6546   -9.1943 C   0  0  0  0  0  0  0  0  0  0  0  0
    8.9362   -4.6748  -10.4690 C   0  0  0  0  0  0  0  0  0  0  0  0
    7.7681   -3.6851  -10.4769 C   0  0  0  0  0  0  0  0  0  0  0  0
    6.9747   -3.6934  -11.7870 C   0  0  0  0  0  0  0  0  0  0  0  0
    5.7893   -2.7230  -11.7971 C   0  0  0  0  0  0  0  0  0  0  0  0
    5.0026   -2.7320  -13.1085 C   0  0  0  0  0  0  0  0  0  0  0  0
    8.6360   -4.0754   -7.0214 C   0  0  0  0  0  0  0  0  0  0  0  0
    8.8183   -2.8849   -7.0922 O   0  0  0  0  0  0  0  0  0  0  0  0
    7.9555   -4.8850   -5.9546 C   0  0  0  0  0  0  0  0  0  0  0  0
    7.3291   -4.5449   -4.7587 C   0  0  0  0  0  0  0  0  0  0  0  0
    7.0738   -3.2340   -4.0696 C   0  0  0  0  0  0  0  0  0  0  0  0
    7.3643   -2.1112   -4.4028 O   0  0  0  0  0  0  0  0  0  0  0  0
    7.6555    1.0761    4.1648 H   0  0  0  0  0  0  0  0  0  0  0  0
    8.9775    0.7484    3.0213 H   0  0  0  0  0  0  0  0  0  0  0  0
    8.3037   -0.5720    4.0011 H   0  0  0  0  0  0  0  0  0  0  0  0
    6.7538    0.9850    1.8234 H   0  0  0  0  0  0  0  0  0  0  0  0
    6.0847   -0.3235    2.7953 H   0  0  0  0  0  0  0  0  0  0  0  0
    7.7800   -1.9152    1.8223 H   0  0  0  0  0  0  0  0  0  0  0  0
    8.4507   -0.6066    0.8496 H   0  0  0  0  0  0  0  0  0  0  0  0
    6.2356   -0.3331   -0.3183 H   0  0  0  0  0  0  0  0  0  0  0  0
    5.5558   -1.6334    0.6611 H   0  0  0  0  0  0  0  0  0  0  0  0
    7.2275   -3.2497   -0.3105 H   0  0  0  0  0  0  0  0  0  0  0  0
    7.9156   -1.9445   -1.2947 H   0  0  0  0  0  0  0  0  0  0  0  0
    5.7213   -1.6546   -2.4673 H   0  0  0  0  0  0  0  0  0  0  0  0
    5.0141   -2.9542   -1.4656 H   0  0  0  0  0  0  0  0  0  0  0  0
    5.3389   -9.9446   -2.1609 H   0  0  0  0  0  0  0  0  0  0  0  0
    5.4884  -12.3379   -2.8672 H   0  0  0  0  0  0  0  0  0  0  0  0
    6.6139  -12.9472   -5.0082 H   0  0  0  0  0  0  0  0  0  0  0  0
    7.5998  -11.1691   -6.4622 H   0  0  0  0  0  0  0  0  0  0  0  0
   10.6268   -5.3604   -9.2986 H   0  0  0  0  0  0  0  0  0  0  0  0
   10.1982   -3.6491   -9.0175 H   0  0  0  0  0  0  0  0  0  0  0  0
    8.5664   -5.7015  -10.6335 H   0  0  0  0  0  0  0  0  0  0  0  0
    9.6126   -4.4551  -11.3145 H   0  0  0  0  0  0  0  0  0  0  0  0
    8.1457   -2.6661  -10.2780 H   0  0  0  0  0  0  0  0  0  0  0  0
    7.0833   -3.9159   -9.6412 H   0  0  0  0  0  0  0  0  0  0  0  0
    6.6095   -4.7183  -11.9870 H   0  0  0  0  0  0  0  0  0  0  0  0
    7.6521   -3.4493  -12.6270 H   0  0  0  0  0  0  0  0  0  0  0  0
    6.1561   -1.7007  -11.5930 H   0  0  0  0  0  0  0  0  0  0  0  0
    5.1130   -2.9696  -10.9585 H   0  0  0  0  0  0  0  0  0  0  0  0
    5.6427   -2.4521  -13.9622 H   0  0  0  0  0  0  0  0  0  0  0  0
    4.1589   -2.0240  -13.0801 H   0  0  0  0  0  0  0  0  0  0  0  0
    4.5902   -3.7326  -13.3223 H   0  0  0  0  0  0  0  0  0  0  0  0
  1  2  1  0
  1 37  1  0
  1 38  1  0
  1 39  1  0
  2  3  1  0
  2 40  1  0
  2 41  1  0
  3  4  1  0
  3 42  1  0
  3 43  1  0
  4  5  1  0
  4 44  1  0
  4 45  1  0
  5  6  1  0
  5 46  1  0
  5 47  1  0
  6  7  1  0
  6 48  1  0
  6 49  1  0
  7  8  1  0
  7 35  1  0
  8  9  2  0
  8 10  1  0
 10 11  2  0
 10 34  1  0
 11 12  1  0
 11 20  1  0
 12 13  2  0
 13 14  1  0
 13 18  1  0
 14 15  2  0
 14 50  1  0
 15 16  1  0
 15 51  1  0
 16 17  2  0
 16 52  1  0
 17 18  1  0
 17 53  1  0
 18 19  2  0
 19 20  1  0
 20 21  2  0
 21 22  1  0
 21 33  1  0
 22 23  2  0
 22 24  1  0
 24 25  1  0
 24 31  1  0
 25 26  1  0
 25 54  1  0
 25 55  1  0
 26 27  1  0
 26 56  1  0
 26 57  1  0
 27 28  1  0
 27 58  1  0
 27 59  1  0
 28 29  1  0
 28 60  1  0
 28 61  1  0
 29 30  1  0
 29 62  1  0
 29 63  1  0
 30 64  1  0
 30 65  1  0
 30 66  1  0
 31 32  2  0
 31 33  1  0
 33 34  2  0
 34 35  1  0
 35 36  2  0
M  END

