
     RDKit          3D

 75 80  0  0  0  0  0  0  0  0999 V2000
    0.4070    0.4464   -0.3609 C   0  0  0  0  0  0  0  0  0  0  0  0
    1.8530   -0.0271   -0.1931 C   0  0  0  0  0  0  0  0  0  0  0  0
    2.7221    1.0119    0.3513 N   0  0  0  0  0  0  0  0  0  0  0  0
    3.4450    0.7889    1.5673 C   0  0  0  0  0  0  0  0  0  0  0  0
    4.9121    0.2670    1.1905 C   0  0  0  0  0  0  0  0  0  0  0  0
    5.5333    1.1761    0.2913 N   0  0  0  0  0  0  0  0  0  0  0  0
    6.5222    2.1244    0.7514 C   0  0  0  0  0  0  0  0  0  0  0  0
    7.9135    1.8570    0.5306 C   0  0  0  0  0  0  0  0  0  0  0  0
    8.8816    2.7530    0.9844 C   0  0  0  0  0  0  0  0  0  0  0  0
    8.5028    3.9587    1.6600 C   0  0  0  0  0  0  0  0  0  0  0  0
    7.1082    4.2077    1.8751 C   0  0  0  0  0  0  0  0  0  0  0  0
    6.1787    3.2971    1.4209 C   0  0  0  0  0  0  0  0  0  0  0  0
    4.8439    3.5503    1.6334 F   0  0  0  0  0  0  0  0  0  0  0  0
    9.4664    4.9298    2.1201 C   0  0  0  0  0  0  0  0  0  0  0  0
    9.1083    5.9809    2.7294 O   0  0  0  0  0  0  0  0  0  0  0  0
   10.8679    4.6126    1.8070 C   0  0  0  0  0  0  0  0  0  0  0  0
   12.0100    5.5060    2.1621 C   0  0  0  0  0  0  0  0  0  0  0  0
   13.1818    5.2335    1.9117 O   0  0  0  0  0  0  0  0  0  0  0  0
   11.6323    6.6615    2.7993 N   0  0  0  0  0  0  0  0  0  0  0  0
   12.6042    7.5820    3.2548 C   0  0  2  0  0  0  0  0  0  0  0  0
   13.5970    7.1245    3.1088 H   0  0  0  0  0  0  0  0  0  0  0  0
   12.4471    8.1877    4.6597 C   0  0  0  0  0  0  0  0  0  0  0  0
   12.2325    7.7765    5.7815 O   0  0  0  0  0  0  0  0  0  0  0  0
   12.6076    9.4782    4.1863 N   0  0  0  0  0  0  0  0  0  0  0  0
   12.3148   10.7640    4.6868 C   0  0  0  0  0  0  0  0  0  0  0  0
   12.7137   11.0601    6.1315 C   0  0  0  0  0  0  0  0  0  0  0  0
   13.0466   12.1676    6.4821 O   0  0  0  0  0  0  0  0  0  0  0  0
   12.6861   10.0538    6.9930 O   0  0  0  0  0  0  0  0  0  0  0  0
   11.7506   11.6864    3.8616 C   0  0  0  0  0  0  0  0  0  0  0  0
   11.4704   13.1081    4.3097 C   0  0  0  0  0  0  0  0  0  0  0  0
   10.2980   13.1936    5.1517 O   0  0  0  0  0  0  0  0  0  0  0  0
    9.0951   13.3273    4.5660 C   0  0  0  0  0  0  0  0  0  0  0  0
    8.0007   13.4128    5.6013 C   0  0  0  0  0  0  0  0  0  0  0  0
    8.9247   13.3678    3.3695 O   0  0  0  0  0  0  0  0  0  0  0  0
   11.3423   11.4020    2.4288 C   0  0  0  0  0  0  0  0  0  0  0  0
   11.0746    9.6511    1.9595 S   0  0  0  0  0  0  0  0  0  0  0  0
   12.5966    9.0794    2.7754 C   0  0  2  0  0  0  0  0  0  0  0  0
   13.4890    9.4225    2.2289 H   0  0  0  0  0  0  0  0  0  0  0  0
   11.1871    3.4512    1.1665 C   0  0  0  0  0  0  0  0  0  0  0  0
   10.2583    2.5069    0.7917 N   0  0  0  0  0  0  0  0  0  0  0  0
   10.6770    1.3314    0.0778 C   0  0  1  0  0  0  0  0  0  0  0  0
   11.9446    0.6239    0.4664 C   0  0  0  0  0  0  0  0  0  0  0  0
   10.6134   -0.0218    0.7464 C   0  0  0  0  0  0  0  0  0  0  0  0
    4.7985    1.4049   -0.9039 C   0  0  0  0  0  0  0  0  0  0  0  0
    3.3325    1.9415   -0.5533 C   0  0  0  0  0  0  0  0  0  0  0  0
   -0.2011   -0.3668   -0.7830 H   0  0  0  0  0  0  0  0  0  0  0  0
    0.3423    1.3083   -1.0421 H   0  0  0  0  0  0  0  0  0  0  0  0
   -0.0267    0.7388    0.6067 H   0  0  0  0  0  0  0  0  0  0  0  0
    2.2577   -0.3543   -1.1682 H   0  0  0  0  0  0  0  0  0  0  0  0
    1.8908   -0.8945    0.4818 H   0  0  0  0  0  0  0  0  0  0  0  0
    2.9318    0.0456    2.1911 H   0  0  0  0  0  0  0  0  0  0  0  0
    3.5696    1.7308    2.1123 H   0  0  0  0  0  0  0  0  0  0  0  0
    4.7769   -0.7312    0.7344 H   0  0  0  0  0  0  0  0  0  0  0  0
    5.4970    0.1687    2.1109 H   0  0  0  0  0  0  0  0  0  0  0  0
    8.1927    0.9410    0.0167 H   0  0  0  0  0  0  0  0  0  0  0  0
    6.8154    5.1210    2.3899 H   0  0  0  0  0  0  0  0  0  0  0  0
   10.6049    6.7442    2.9689 H   0  0  0  0  0  0  0  0  0  0  0  0
   12.4139    9.1686    6.6238 H   0  0  0  0  0  0  0  0  0  0  0  0
   11.3185   13.7509    3.4311 H   0  0  0  0  0  0  0  0  0  0  0  0
   12.2848   13.4836    4.9332 H   0  0  0  0  0  0  0  0  0  0  0  0
    8.2390   14.1876    6.3450 H   0  0  0  0  0  0  0  0  0  0  0  0
    7.9341   12.4548    6.1407 H   0  0  0  0  0  0  0  0  0  0  0  0
    7.0446   13.6291    5.1102 H   0  0  0  0  0  0  0  0  0  0  0  0
   12.0809   11.8568    1.7427 H   0  0  0  0  0  0  0  0  0  0  0  0
   10.3853   11.9102    2.2369 H   0  0  0  0  0  0  0  0  0  0  0  0
   12.2289    3.2347    0.9340 H   0  0  0  0  0  0  0  0  0  0  0  0
   10.4319    1.3534   -0.9936 H   0  0  0  0  0  0  0  0  0  0  0  0
   12.5086    1.0088    1.3192 H   0  0  0  0  0  0  0  0  0  0  0  0
   12.5669    0.2283   -0.3406 H   0  0  0  0  0  0  0  0  0  0  0  0
   10.2739   -0.0403    1.7853 H   0  0  0  0  0  0  0  0  0  0  0  0
   10.3017   -0.8810    0.1453 H   0  0  0  0  0  0  0  0  0  0  0  0
    4.6563    0.4711   -1.4802 H   0  0  0  0  0  0  0  0  0  0  0  0
    5.3017    2.1451   -1.5348 H   0  0  0  0  0  0  0  0  0  0  0  0
    2.7402    2.0313   -1.4736 H   0  0  0  0  0  0  0  0  0  0  0  0
    3.4494    2.9194   -0.0740 H   0  0  0  0  0  0  0  0  0  0  0  0
  1  2  1  0
  1 46  1  0
  1 47  1  0
  1 48  1  0
  2  3  1  0
  2 49  1  0
  2 50  1  0
  3  4  1  0
  3 45  1  0
  4  5  1  0
  4 51  1  0
  4 52  1  0
  5  6  1  0
  5 53  1  0
  5 54  1  0
  6  7  1  0
  6 44  1  0
  7  8  2  0
  7 12  1  0
  8  9  1  0
  8 55  1  0
  9 10  2  0
  9 40  1  0
 10 11  1  0
 10 14  1  0
 11 12  2  0
 11 56  1  0
 12 13  1  0
 14 15  2  0
 14 16  1  0
 16 17  1  0
 16 39  2  0
 17 18  2  0
 17 19  1  0
 19 20  1  0
 19 57  1  0
 20 21  1  1
 20 22  1  0
 20 37  1  0
 22 23  2  0
 22 24  1  0
 24 25  1  0
 24 37  1  0
 25 26  1  0
 25 29  2  0
 26 27  2  0
 26 28  1  0
 28 58  1  0
 29 30  1  0
 29 35  1  0
 30 31  1  0
 30 59  1  0
 30 60  1  0
 31 32  1  0
 32 33  1  0
 32 34  2  0
 33 61  1  0
 33 62  1  0
 33 63  1  0
 35 36  1  0
 35 64  1  0
 35 65  1  0
 36 37  1  0
 37 38  1  6
 39 40  1  0
 39 66  1  0
 40 41  1  0
 41 42  1  0
 41 43  1  0
 41 67  1  6
 42 43  1  0
 42 68  1  0
 42 69  1  0
 43 70  1  0
 43 71  1  0
 44 45  1  0
 44 72  1  0
 44 73  1  0
 45 74  1  0
 45 75  1  0
M  END

