
     RDKit          3D

 45 47  0  0  0  0  0  0  0  0999 V2000
    2.7591    0.5931   -0.6397 O   0  0  0  0  0  0  0  0  0  0  0  0
    3.7578    1.2093   -0.2828 C   0  0  0  0  0  0  0  0  0  0  0  0
    4.1068    2.4517   -0.6616 N   0  0  0  0  0  0  0  0  0  0  0  0
    3.3446    3.2469   -1.6116 C   0  0  0  0  0  0  0  0  0  0  0  0
    3.9523    3.2800   -3.0026 C   0  0  0  0  0  0  0  0  0  0  0  0
    3.9443    2.1249   -3.8029 C   0  0  0  0  0  0  0  0  0  0  0  0
    4.5136    2.1418   -5.0773 C   0  0  0  0  0  0  0  0  0  0  0  0
    5.0965    3.3143   -5.5726 C   0  0  0  0  0  0  0  0  0  0  0  0
    5.1059    4.4683   -4.7860 C   0  0  0  0  0  0  0  0  0  0  0  0
    4.5372    4.4486   -3.5076 C   0  0  0  0  0  0  0  0  0  0  0  0
    4.7802    0.5944    0.7010 C   0  0  0  0  0  0  0  0  0  0  0  0
    5.7903    1.1995    1.0352 O   0  0  0  0  0  0  0  0  0  0  0  0
    4.3825   -0.6389    1.0901 N   0  0  0  0  0  0  0  0  0  0  0  0
    5.0046   -1.5438    1.9678 C   0  0  0  0  0  0  0  0  0  0  0  0
    6.2278   -1.2769    2.6058 C   0  0  0  0  0  0  0  0  0  0  0  0
    6.7966   -2.2176    3.4636 C   0  0  0  0  0  0  0  0  0  0  0  0
    6.1620   -3.4469    3.7285 C   0  0  0  0  0  0  0  0  0  0  0  0
    6.7053   -4.4361    4.5499 N   0  0  0  0  0  0  0  0  0  0  0  0
    7.6388   -4.3381    5.5836 C   0  0  0  0  0  0  0  0  0  0  0  0
    7.8530   -3.1573    6.3228 C   0  0  0  0  0  0  0  0  0  0  0  0
    8.7811   -3.1384    7.3661 C   0  0  0  0  0  0  0  0  0  0  0  0
    9.5039   -4.2839    7.7110 C   0  0  0  0  0  0  0  0  0  0  0  0
    9.2817   -5.4637    6.9930 C   0  0  0  0  0  0  0  0  0  0  0  0
    8.3688   -5.4917    5.9402 C   0  0  0  0  0  0  0  0  0  0  0  0
    4.9356   -3.7034    3.0814 C   0  0  0  0  0  0  0  0  0  0  0  0
    4.3731   -2.7750    2.2131 C   0  0  0  0  0  0  0  0  0  0  0  0
    5.0039    2.7771   -0.3074 H   0  0  0  0  0  0  0  0  0  0  0  0
    3.2479    4.2720   -1.2199 H   0  0  0  0  0  0  0  0  0  0  0  0
    2.3390    2.8026   -1.6477 H   0  0  0  0  0  0  0  0  0  0  0  0
    3.4823    1.2111   -3.4187 H   0  0  0  0  0  0  0  0  0  0  0  0
    4.4985    1.2372   -5.6909 H   0  0  0  0  0  0  0  0  0  0  0  0
    5.5400    3.3270   -6.5716 H   0  0  0  0  0  0  0  0  0  0  0  0
    5.5575    5.3883   -5.1663 H   0  0  0  0  0  0  0  0  0  0  0  0
    4.5467    5.3561   -2.8963 H   0  0  0  0  0  0  0  0  0  0  0  0
    3.5000   -0.9162    0.6597 H   0  0  0  0  0  0  0  0  0  0  0  0
    6.7341   -0.3331    2.4122 H   0  0  0  0  0  0  0  0  0  0  0  0
    7.7643   -1.9957    3.9133 H   0  0  0  0  0  0  0  0  0  0  0  0
    6.3839   -5.3763    4.3553 H   0  0  0  0  0  0  0  0  0  0  0  0
    7.2758   -2.2599    6.0994 H   0  0  0  0  0  0  0  0  0  0  0  0
    8.9284   -2.2108    7.9259 H   0  0  0  0  0  0  0  0  0  0  0  0
   10.2266   -4.2595    8.5296 H   0  0  0  0  0  0  0  0  0  0  0  0
    9.8321   -6.3733    7.2476 H   0  0  0  0  0  0  0  0  0  0  0  0
    8.2153   -6.4161    5.3754 H   0  0  0  0  0  0  0  0  0  0  0  0
    4.4160   -4.6475    3.2681 H   0  0  0  0  0  0  0  0  0  0  0  0
    3.4216   -3.0037    1.7244 H   0  0  0  0  0  0  0  0  0  0  0  0
  1  2  2  0
  2  3  1  0
  2 11  1  0
  3  4  1  0
  3 27  1  0
  4  5  1  0
  4 28  1  0
  4 29  1  0
  5  6  2  0
  5 10  1  0
  6  7  1  0
  6 30  1  0
  7  8  2  0
  7 31  1  0
  8  9  1  0
  8 32  1  0
  9 10  2  0
  9 33  1  0
 10 34  1  0
 11 12  2  0
 11 13  1  0
 13 14  1  0
 13 35  1  0
 14 15  2  0
 14 26  1  0
 15 16  1  0
 15 36  1  0
 16 17  2  0
 16 37  1  0
 17 18  1  0
 17 25  1  0
 18 19  1  0
 18 38  1  0
 19 20  2  0
 19 24  1  0
 20 21  1  0
 20 39  1  0
 21 22  2  0
 21 40  1  0
 22 23  1  0
 22 41  1  0
 23 24  2  0
 23 42  1  0
 24 43  1  0
 25 26  2  0
 25 44  1  0
 26 45  1  0
M  END

