
     RDKit          3D

 70 74  0  0  0  0  0  0  0  0999 V2000
   -3.8396   -9.8808   -2.5965 C   0  0  0  0  0  0  0  0  0  0  0  0
   -2.5330  -10.1158   -3.3614 C   0  0  1  0  0  0  0  0  0  0  0  0
   -2.3842   -9.1537   -4.5616 C   0  0  0  0  0  0  0  0  0  0  0  0
   -2.0933   -7.7911   -4.1166 N   0  0  0  0  0  0  0  0  0  0  0  0
   -2.8863   -6.7175   -4.4193 C   0  0  0  0  0  0  0  0  0  0  0  0
   -3.9728   -7.0018   -5.1936 N   0  0  0  0  0  0  0  0  0  0  0  0
   -4.7439   -5.9638   -5.5010 C   0  0  0  0  0  0  0  0  0  0  0  0
   -4.4822   -4.6639   -5.0721 C   0  0  0  0  0  0  0  0  0  0  0  0
   -3.3038   -4.4675   -4.2459 C   0  0  0  0  0  0  0  0  0  0  0  0
   -2.9540   -3.2815   -3.7697 N   0  0  0  0  0  0  0  0  0  0  0  0
   -3.5622   -1.9529   -3.9091 C   0  0  0  0  0  0  0  0  0  0  0  0
   -2.9096   -0.9369   -3.1657 C   0  0  0  0  0  0  0  0  0  0  0  0
   -3.5087    0.3405   -3.3099 C   0  0  0  0  0  0  0  0  0  0  0  0
   -4.6347    0.5356   -4.1510 C   0  0  0  0  0  0  0  0  0  0  0  0
   -5.1834   -0.5893   -4.8358 C   0  0  0  0  0  0  0  0  0  0  0  0
   -4.6037   -1.8259   -4.6816 N   0  0  0  0  0  0  0  0  0  0  0  0
   -4.9923    1.8449   -4.1480 N   0  0  0  0  0  0  0  0  0  0  0  0
   -4.1377    2.4789   -3.3299 C   0  0  0  0  0  0  0  0  0  0  0  0
   -4.2657    3.9246   -3.0168 C   0  0  0  0  0  0  0  0  0  0  0  0
   -3.1552    4.7652   -3.3993 O   0  0  0  0  0  0  0  0  0  0  0  0
   -2.8795    4.8299   -4.7846 C   0  0  1  0  0  0  0  0  0  0  0  0
   -3.6378    5.9903   -5.4444 C   0  0  0  0  0  0  0  0  0  0  0  0
   -3.1143    7.3437   -4.9515 C   0  0  0  0  0  0  0  0  0  0  0  0
   -1.5913    7.4026   -5.1229 C   0  0  0  0  0  0  0  0  0  0  0  0
   -0.9407    6.1840   -4.4696 C   0  0  0  0  0  0  0  0  0  0  0  0
   -1.4896    4.9651   -4.9606 O   0  0  0  0  0  0  0  0  0  0  0  0
   -3.2104    1.5662   -2.7778 N   0  0  0  0  0  0  0  0  0  0  0  0
   -2.0059    1.7944   -1.9664 C   0  0  1  0  0  0  0  0  0  0  0  0
   -0.7840    2.0675   -2.8550 C   0  0  0  0  0  0  0  0  0  0  0  0
   -2.1832    2.8645   -0.8866 C   0  0  0  0  0  0  0  0  0  0  0  0
   -2.5289   -5.5274   -3.9441 N   0  0  0  0  0  0  0  0  0  0  0  0
   -0.8953   -7.6559   -3.2900 C   0  0  0  0  0  0  0  0  0  0  0  0
   -0.9728   -8.5828   -2.0676 C   0  0  0  0  0  0  0  0  0  0  0  0
   -1.2786  -10.0355   -2.4610 C   0  0  2  0  0  0  0  0  0  0  0  0
   -0.1603  -10.6698   -3.0584 O   0  0  0  0  0  0  0  0  0  0  0  0
   -4.7104  -10.0206   -3.2552 H   0  0  0  0  0  0  0  0  0  0  0  0
   -3.9060   -8.8641   -2.1779 H   0  0  0  0  0  0  0  0  0  0  0  0
   -3.9349  -10.5912   -1.7606 H   0  0  0  0  0  0  0  0  0  0  0  0
   -2.5485  -11.1350   -3.7810 H   0  0  0  0  0  0  0  0  0  0  0  0
   -3.2851   -9.1311   -5.1818 H   0  0  0  0  0  0  0  0  0  0  0  0
   -1.5402   -9.4790   -5.1973 H   0  0  0  0  0  0  0  0  0  0  0  0
   -5.6201   -6.1682   -6.1245 H   0  0  0  0  0  0  0  0  0  0  0  0
   -5.0830   -3.7857   -5.3109 H   0  0  0  0  0  0  0  0  0  0  0  0
   -2.1081   -3.2998   -3.2095 H   0  0  0  0  0  0  0  0  0  0  0  0
   -2.0329   -1.1312   -2.5477 H   0  0  0  0  0  0  0  0  0  0  0  0
   -6.0488   -0.5040   -5.4917 H   0  0  0  0  0  0  0  0  0  0  0  0
   -4.3821    4.1358   -1.9419 H   0  0  0  0  0  0  0  0  0  0  0  0
   -5.1917    4.2481   -3.5213 H   0  0  0  0  0  0  0  0  0  0  0  0
   -3.1458    3.8717   -5.2617 H   0  0  0  0  0  0  0  0  0  0  0  0
   -4.7160    5.8788   -5.2455 H   0  0  0  0  0  0  0  0  0  0  0  0
   -3.5030    5.9061   -6.5369 H   0  0  0  0  0  0  0  0  0  0  0  0
   -3.3685    7.4604   -3.8841 H   0  0  0  0  0  0  0  0  0  0  0  0
   -3.6037    8.1712   -5.4916 H   0  0  0  0  0  0  0  0  0  0  0  0
   -1.1733    8.3248   -4.6834 H   0  0  0  0  0  0  0  0  0  0  0  0
   -1.3381    7.4117   -6.1983 H   0  0  0  0  0  0  0  0  0  0  0  0
   -1.0585    6.2342   -3.3712 H   0  0  0  0  0  0  0  0  0  0  0  0
    0.1365    6.1378   -4.6924 H   0  0  0  0  0  0  0  0  0  0  0  0
   -1.8428    0.8377   -1.4422 H   0  0  0  0  0  0  0  0  0  0  0  0
   -0.9182    2.9961   -3.4304 H   0  0  0  0  0  0  0  0  0  0  0  0
   -0.6271    1.2407   -3.5651 H   0  0  0  0  0  0  0  0  0  0  0  0
    0.1239    2.1654   -2.2372 H   0  0  0  0  0  0  0  0  0  0  0  0
   -2.2182    3.8722   -1.3222 H   0  0  0  0  0  0  0  0  0  0  0  0
   -1.3242    2.8249   -0.1983 H   0  0  0  0  0  0  0  0  0  0  0  0
   -3.0976    2.6922   -0.2981 H   0  0  0  0  0  0  0  0  0  0  0  0
   -0.7902   -6.6049   -3.0059 H   0  0  0  0  0  0  0  0  0  0  0  0
   -0.0264   -7.9244   -3.9198 H   0  0  0  0  0  0  0  0  0  0  0  0
   -1.7481   -8.2060   -1.3818 H   0  0  0  0  0  0  0  0  0  0  0  0
   -0.0137   -8.5451   -1.5295 H   0  0  0  0  0  0  0  0  0  0  0  0
   -1.4698  -10.6175   -1.5455 H   0  0  0  0  0  0  0  0  0  0  0  0
    0.1057  -10.1894   -3.8527 H   0  0  0  0  0  0  0  0  0  0  0  0
  1  2  1  0
  1 36  1  0
  1 37  1  0
  1 38  1  0
  2  3  1  0
  2 34  1  0
  2 39  1  6
  3  4  1  0
  3 40  1  0
  3 41  1  0
  4  5  1  0
  4 32  1  0
  5  6  2  0
  5 31  1  0
  6  7  1  0
  7  8  2  0
  7 42  1  0
  8  9  1  0
  8 43  1  0
  9 10  1  0
  9 31  2  0
 10 11  1  0
 10 44  1  0
 11 12  2  0
 11 16  1  0
 12 13  1  0
 12 45  1  0
 13 14  2  0
 13 27  1  0
 14 15  1  0
 14 17  1  0
 15 16  2  0
 15 46  1  0
 17 18  2  0
 18 19  1  0
 18 27  1  0
 19 20  1  0
 19 47  1  0
 19 48  1  0
 20 21  1  0
 21 22  1  0
 21 26  1  0
 21 49  1  6
 22 23  1  0
 22 50  1  0
 22 51  1  0
 23 24  1  0
 23 52  1  0
 23 53  1  0
 24 25  1  0
 24 54  1  0
 24 55  1  0
 25 26  1  0
 25 56  1  0
 25 57  1  0
 27 28  1  0
 28 29  1  0
 28 30  1  0
 28 58  1  1
 29 59  1  0
 29 60  1  0
 29 61  1  0
 30 62  1  0
 30 63  1  0
 30 64  1  0
 32 33  1  0
 32 65  1  0
 32 66  1  0
 33 34  1  0
 33 67  1  0
 33 68  1  0
 34 35  1  0
 34 69  1  1
 35 70  1  0
M  END

