
     RDKit          3D

 73 77  0  0  0  0  0  0  0  0999 V2000
    4.7850   -0.6506    0.8415 C   0  0  0  0  0  0  0  0  0  0  0  0
    3.5395   -0.2632    0.0444 C   0  0  0  0  0  0  0  0  0  0  0  0
    3.6818   -0.2888   -1.5040 C   0  0  2  0  0  0  0  0  0  0  0  0
    2.3101    0.1044   -2.1253 C   0  0  0  0  0  0  0  0  0  0  0  0
    2.2425    0.1230   -3.6522 C   0  0  0  0  0  0  0  0  0  0  0  0
    4.1746   -1.6456   -2.0154 C   0  0  0  0  0  0  0  0  0  0  0  0
    3.5729   -2.8897   -1.8741 C   0  0  0  0  0  0  0  0  0  0  0  0
    4.1750   -4.0574   -2.4132 C   0  0  0  0  0  0  0  0  0  0  0  0
    3.5181   -5.3419   -2.2356 C   0  0  0  0  0  0  0  0  0  0  0  0
    3.9802   -6.5611   -2.6655 C   0  0  0  0  0  0  0  0  0  0  0  0
    3.3509   -7.8274   -2.4935 C   0  0  0  0  0  0  0  0  0  0  0  0
    2.1282   -8.1539   -1.8739 C   0  0  0  0  0  0  0  0  0  0  0  0
    1.8165   -9.5081   -1.8778 C   0  0  0  0  0  0  0  0  0  0  0  0
    2.7912  -10.3248   -2.5080 C   0  0  0  0  0  0  0  0  0  0  0  0
    2.8465  -11.7121   -2.7106 C   0  0  0  0  0  0  0  0  0  0  0  0
    1.9342  -12.7144   -2.3402 C   0  0  0  0  0  0  0  0  0  0  0  0
    0.7193  -12.4777   -1.6537 C   0  0  0  0  0  0  0  0  0  0  0  0
   -0.2984  -12.3525   -1.0892 N   0  0  0  0  0  0  0  0  0  0  0  0
    2.2647  -14.1152   -2.6900 C   0  0  0  0  0  0  0  0  0  0  0  0
    3.2716  -14.4544   -3.2720 O   0  0  0  0  0  0  0  0  0  0  0  0
    1.3569  -15.0590   -2.3192 O   0  0  0  0  0  0  0  0  0  0  0  0
    4.1105   -9.2992   -3.0933 S   0  0  0  0  0  0  0  0  0  0  0  0
    5.4085   -3.8915   -3.1044 C   0  0  0  0  0  0  0  0  0  0  0  0
    6.0130   -2.6476   -3.2482 C   0  0  0  0  0  0  0  0  0  0  0  0
    5.3985   -1.5131   -2.7008 C   0  0  0  0  0  0  0  0  0  0  0  0
    5.7911   -0.1014   -2.6867 C   0  0  0  0  0  0  0  0  0  0  0  0
    6.9061    0.5563   -3.2191 C   0  0  0  0  0  0  0  0  0  0  0  0
    7.0356    1.9411   -3.0556 C   0  0  0  0  0  0  0  0  0  0  0  0
    6.0586    2.6527   -2.3559 C   0  0  0  0  0  0  0  0  0  0  0  0
    6.1889    4.0976   -2.2147 N   0  0  0  0  0  0  0  0  0  0  0  0
    5.6010    4.9231   -3.2757 C   0  0  0  0  0  0  0  0  0  0  0  0
    6.8118    4.6573   -1.1612 C   0  0  0  0  0  0  0  0  0  0  0  0
    6.9242    6.0858   -1.0240 C   0  0  0  0  0  0  0  0  0  0  0  0
    7.5663    6.6388    0.0536 C   0  0  0  0  0  0  0  0  0  0  0  0
    8.1379    5.8145    1.0650 C   0  0  0  0  0  0  0  0  0  0  0  0
    8.7354    6.4492    2.0601 O   0  0  0  0  0  0  0  0  0  0  0  0
    9.3473    5.7355    3.1370 C   0  0  0  0  0  0  0  0  0  0  0  0
    8.0357    4.4018    0.9494 C   0  0  0  0  0  0  0  0  0  0  0  0
    7.3936    3.8409   -0.1282 C   0  0  0  0  0  0  0  0  0  0  0  0
    4.9301    2.0078   -1.8214 C   0  0  0  0  0  0  0  0  0  0  0  0
    4.8027    0.6341   -1.9870 C   0  0  0  0  0  0  0  0  0  0  0  0
    4.5837   -0.5953    1.9233 H   0  0  0  0  0  0  0  0  0  0  0  0
    5.6351    0.0169    0.6248 H   0  0  0  0  0  0  0  0  0  0  0  0
    5.1044   -1.6783    0.6133 H   0  0  0  0  0  0  0  0  0  0  0  0
    3.2020    0.7460    0.3435 H   0  0  0  0  0  0  0  0  0  0  0  0
    2.7134   -0.9434    0.3121 H   0  0  0  0  0  0  0  0  0  0  0  0
    2.0219    1.0942   -1.7263 H   0  0  0  0  0  0  0  0  0  0  0  0
    1.5580   -0.6035   -1.7375 H   0  0  0  0  0  0  0  0  0  0  0  0
    2.9479    0.8495   -4.0869 H   0  0  0  0  0  0  0  0  0  0  0  0
    1.2308    0.3995   -3.9890 H   0  0  0  0  0  0  0  0  0  0  0  0
    2.4770   -0.8649   -4.0763 H   0  0  0  0  0  0  0  0  0  0  0  0
    2.6230   -2.9916   -1.3410 H   0  0  0  0  0  0  0  0  0  0  0  0
    2.5666   -5.3076   -1.6966 H   0  0  0  0  0  0  0  0  0  0  0  0
    4.9374   -6.5900   -3.1975 H   0  0  0  0  0  0  0  0  0  0  0  0
    1.4812   -7.3959   -1.4286 H   0  0  0  0  0  0  0  0  0  0  0  0
    0.9084   -9.9207   -1.4402 H   0  0  0  0  0  0  0  0  0  0  0  0
    3.7198  -12.1133   -3.2328 H   0  0  0  0  0  0  0  0  0  0  0  0
    0.6073  -14.6391   -1.8678 H   0  0  0  0  0  0  0  0  0  0  0  0
    5.8989   -4.7646   -3.5380 H   0  0  0  0  0  0  0  0  0  0  0  0
    6.9612   -2.5678   -3.7879 H   0  0  0  0  0  0  0  0  0  0  0  0
    7.6759    0.0024   -3.7609 H   0  0  0  0  0  0  0  0  0  0  0  0
    7.9014    2.4641   -3.4698 H   0  0  0  0  0  0  0  0  0  0  0  0
    5.1702    4.2562   -4.0280 H   0  0  0  0  0  0  0  0  0  0  0  0
    6.3658    5.5526   -3.7561 H   0  0  0  0  0  0  0  0  0  0  0  0
    4.8034    5.5692   -2.8770 H   0  0  0  0  0  0  0  0  0  0  0  0
    6.4976    6.7445   -1.7771 H   0  0  0  0  0  0  0  0  0  0  0  0
    7.6558    7.7200    0.1656 H   0  0  0  0  0  0  0  0  0  0  0  0
    9.7591    6.4988    3.8060 H   0  0  0  0  0  0  0  0  0  0  0  0
   10.1590    5.0919    2.7658 H   0  0  0  0  0  0  0  0  0  0  0  0
    8.6021    5.1327    3.6776 H   0  0  0  0  0  0  0  0  0  0  0  0
    8.4632    3.7496    1.7095 H   0  0  0  0  0  0  0  0  0  0  0  0
    7.3188    2.7593   -0.2123 H   0  0  0  0  0  0  0  0  0  0  0  0
    4.1719    2.5848   -1.2845 H   0  0  0  0  0  0  0  0  0  0  0  0
  1  2  1  0
  1 42  1  0
  1 43  1  0
  1 44  1  0
  3  2  1  1
  2 45  1  0
  2 46  1  0
  3  4  1  0
  3  6  1  0
  3 41  1  0
  4  5  1  0
  4 47  1  0
  4 48  1  0
  5 49  1  0
  5 50  1  0
  5 51  1  0
  6  7  2  0
  6 25  1  0
  7  8  1  0
  7 52  1  0
  8  9  1  0
  8 23  2  0
  9 10  2  0
  9 53  1  0
 10 11  1  0
 10 54  1  0
 11 12  2  0
 11 22  1  0
 12 13  1  0
 12 55  1  0
 13 14  2  0
 13 56  1  0
 14 15  1  0
 14 22  1  0
 15 16  2  0
 15 57  1  0
 16 17  1  0
 16 19  1  0
 17 18  3  0
 19 20  2  0
 19 21  1  0
 21 58  1  0
 23 24  1  0
 23 59  1  0
 24 25  2  0
 24 60  1  0
 25 26  1  0
 26 27  2  0
 26 41  1  0
 27 28  1  0
 27 61  1  0
 28 29  2  0
 28 62  1  0
 29 30  1  0
 29 40  1  0
 30 31  1  0
 30 32  1  0
 31 63  1  0
 31 64  1  0
 31 65  1  0
 32 33  2  0
 32 39  1  0
 33 34  1  0
 33 66  1  0
 34 35  2  0
 34 67  1  0
 35 36  1  0
 35 38  1  0
 36 37  1  0
 37 68  1  0
 37 69  1  0
 37 70  1  0
 38 39  2  0
 38 71  1  0
 39 72  1  0
 40 41  2  0
 40 73  1  0
M  END

