
     RDKit          3D

 41 41  0  0  0  0  0  0  0  0999 V2000
    0.9049   -0.1590    0.3508 C   0  0  0  0  0  0  0  0  0  0  0  0
    2.4316   -0.0987    0.2838 C   0  0  0  0  0  0  0  0  0  0  0  0
    2.9613    0.8759   -0.7728 C   0  0  0  0  0  0  0  0  0  0  0  0
    4.4893    0.9456   -0.8440 C   0  0  0  0  0  0  0  0  0  0  0  0
    5.0183    1.9122   -1.9078 C   0  0  0  0  0  0  0  0  0  0  0  0
    6.5466    1.9847   -1.9716 C   0  0  0  0  0  0  0  0  0  0  0  0
    7.0696    2.9430   -3.0463 C   0  0  0  0  0  0  0  0  0  0  0  0
    8.6079    3.0105   -3.1435 C   0  0  1  0  0  0  0  0  0  0  0  0
    9.1135    1.7121   -3.5126 O   0  0  0  0  0  0  0  0  0  0  0  0
    9.0933    4.1486   -4.0127 C   0  0  0  0  0  0  0  0  0  0  0  0
    8.6872    5.4962   -3.6335 C   0  0  0  0  0  0  0  0  0  0  0  0
    9.1087    6.5740   -4.4367 C   0  0  0  0  0  0  0  0  0  0  0  0
    8.6874    7.9759   -4.1101 C   0  0  0  0  0  0  0  0  0  0  0  0
    9.9414    6.3285   -5.5526 C   0  0  0  0  0  0  0  0  0  0  0  0
   10.4141    5.0982   -5.8810 N   0  0  0  0  0  0  0  0  0  0  0  0
    9.9994    4.0813   -5.1042 C   0  0  0  0  0  0  0  0  0  0  0  0
   10.5935    2.8906   -5.4724 N   0  0  0  0  0  0  0  0  0  0  0  0
    0.5603   -0.8703    1.1183 H   0  0  0  0  0  0  0  0  0  0  0  0
    0.4731   -0.4757   -0.6137 H   0  0  0  0  0  0  0  0  0  0  0  0
    0.4748    0.8271    0.5945 H   0  0  0  0  0  0  0  0  0  0  0  0
    2.8322   -1.1083    0.0787 H   0  0  0  0  0  0  0  0  0  0  0  0
    2.8333    0.1861    1.2734 H   0  0  0  0  0  0  0  0  0  0  0  0
    2.5590    1.8862   -0.5701 H   0  0  0  0  0  0  0  0  0  0  0  0
    2.5619    0.5901   -1.7641 H   0  0  0  0  0  0  0  0  0  0  0  0
    4.8926   -0.0657   -1.0397 H   0  0  0  0  0  0  0  0  0  0  0  0
    4.8879    1.2386    0.1452 H   0  0  0  0  0  0  0  0  0  0  0  0
    4.6134    2.9235   -1.7175 H   0  0  0  0  0  0  0  0  0  0  0  0
    4.6237    1.6163   -2.8979 H   0  0  0  0  0  0  0  0  0  0  0  0
    6.9551    0.9718   -2.1409 H   0  0  0  0  0  0  0  0  0  0  0  0
    6.9420    2.2985   -0.9883 H   0  0  0  0  0  0  0  0  0  0  0  0
    6.6825    3.9579   -2.8662 H   0  0  0  0  0  0  0  0  0  0  0  0
    6.6848    2.6579   -4.0459 H   0  0  0  0  0  0  0  0  0  0  0  0
    8.9872    3.1871   -2.1106 H   0  0  0  0  0  0  0  0  0  0  0  0
    8.4045    1.2475   -3.9794 H   0  0  0  0  0  0  0  0  0  0  0  0
    8.1108    5.6717   -2.7240 H   0  0  0  0  0  0  0  0  0  0  0  0
    7.5861    8.0569   -4.0698 H   0  0  0  0  0  0  0  0  0  0  0  0
    9.0649    8.7052   -4.8415 H   0  0  0  0  0  0  0  0  0  0  0  0
    9.0527    8.2677   -3.1081 H   0  0  0  0  0  0  0  0  0  0  0  0
   10.2552    7.1609   -6.1906 H   0  0  0  0  0  0  0  0  0  0  0  0
   11.2607    2.9440   -6.2368 H   0  0  0  0  0  0  0  0  0  0  0  0
   10.4324    2.0632   -4.8937 H   0  0  0  0  0  0  0  0  0  0  0  0
  1  2  1  0
  1 18  1  0
  1 19  1  0
  1 20  1  0
  2  3  1  0
  2 21  1  0
  2 22  1  0
  3  4  1  0
  3 23  1  0
  3 24  1  0
  4  5  1  0
  4 25  1  0
  4 26  1  0
  5  6  1  0
  5 27  1  0
  5 28  1  0
  6  7  1  0
  6 29  1  0
  6 30  1  0
  7  8  1  0
  7 31  1  0
  7 32  1  0
  8  9  1  0
  8 10  1  0
  8 33  1  1
  9 34  1  0
 10 11  2  0
 10 16  1  0
 11 12  1  0
 11 35  1  0
 12 13  1  0
 12 14  2  0
 13 36  1  0
 13 37  1  0
 13 38  1  0
 14 15  1  0
 14 39  1  0
 15 16  2  0
 16 17  1  0
 17 40  1  0
 17 41  1  0
M  END

