
     RDKit          3D

 58 60  0  0  0  0  0  0  0  0999 V2000
    4.4038   -9.2865   -1.4618 C   0  0  0  0  0  0  0  0  0  0  0  0
    3.2396   -8.3216   -1.6784 C   0  0  0  0  0  0  0  0  0  0  0  0
    3.6196   -6.8625   -1.4812 C   0  0  1  0  0  0  0  0  0  0  0  0
    4.0754   -6.7266   -0.4759 H   0  0  0  0  0  0  0  0  0  0  0  0
    4.5985   -6.5148   -2.4683 O   0  0  0  0  0  0  0  0  0  0  0  0
    4.9822   -5.1992   -2.4861 C   0  0  0  0  0  0  0  0  0  0  0  0
    6.2579   -4.8493   -2.8609 C   0  0  0  0  0  0  0  0  0  0  0  0
    6.6406   -3.4487   -2.9193 C   0  0  0  0  0  0  0  0  0  0  0  0
    8.0428   -3.1224   -3.8081 S   0  0  1  0  0  0  0  0  0  0  0  0
    8.5128   -1.7192   -3.6995 O   0  0  0  0  0  0  0  0  0  0  0  0
    9.0960   -4.1698   -3.5401 O   0  0  0  0  0  0  0  0  0  0  0  0
    7.8417   -3.4187   -5.5619 N   0  0  0  0  0  0  0  0  0  0  0  0
    7.2306   -2.3386   -6.3090 C   0  0  0  0  0  0  0  0  0  0  0  0
    8.7469   -4.3011   -6.2518 C   0  0  0  0  0  0  0  0  0  0  0  0
   10.1433   -3.7535   -6.5761 C   0  0  0  0  0  0  0  0  0  0  0  0
   10.5816   -3.6412   -7.6930 O   0  0  0  0  0  0  0  0  0  0  0  0
   10.9040   -3.3931   -5.4102 N   0  0  0  0  0  0  0  0  0  0  0  0
   12.1204   -2.8168   -5.3391 C   0  0  0  0  0  0  0  0  0  0  0  0
   12.9096   -2.5700   -6.5189 C   0  0  0  0  0  0  0  0  0  0  0  0
   14.1536   -2.0072   -6.3912 C   0  0  0  0  0  0  0  0  0  0  0  0
   14.6519   -1.6656   -5.1146 C   0  0  0  0  0  0  0  0  0  0  0  0
   13.9069   -1.8736   -3.9332 C   0  0  0  0  0  0  0  0  0  0  0  0
   14.5076   -1.4580   -2.6111 C   0  0  0  0  0  0  0  0  0  0  0  0
   12.6333   -2.4447   -4.0192 C   0  0  0  0  0  0  0  0  0  0  0  0
   11.7689   -2.6440   -2.8117 C   0  0  0  0  0  0  0  0  0  0  0  0
    5.6720   -2.4253   -2.5463 C   0  0  0  0  0  0  0  0  0  0  0  0
    6.0003   -0.9533   -2.4995 C   0  0  0  0  0  0  0  0  0  0  0  0
    4.4189   -2.8491   -2.1459 C   0  0  0  0  0  0  0  0  0  0  0  0
    4.0303   -4.2129   -2.1337 C   0  0  0  0  0  0  0  0  0  0  0  0
    2.7287   -4.6387   -1.8237 N   0  0  0  0  0  0  0  0  0  0  0  0
    2.3973   -5.9307   -1.5398 C   0  0  0  0  0  0  0  0  0  0  0  0
    1.2526   -6.3019   -1.3174 O   0  0  0  0  0  0  0  0  0  0  0  0
    4.0900  -10.3291   -1.6286 H   0  0  0  0  0  0  0  0  0  0  0  0
    4.7968   -9.2169   -0.4333 H   0  0  0  0  0  0  0  0  0  0  0  0
    5.2329   -9.0643   -2.1505 H   0  0  0  0  0  0  0  0  0  0  0  0
    2.4078   -8.5362   -0.9909 H   0  0  0  0  0  0  0  0  0  0  0  0
    2.8326   -8.4307   -2.6978 H   0  0  0  0  0  0  0  0  0  0  0  0
    6.9821   -5.6327   -3.0758 H   0  0  0  0  0  0  0  0  0  0  0  0
    6.4191   -1.8986   -5.7102 H   0  0  0  0  0  0  0  0  0  0  0  0
    6.7762   -2.7329   -7.2339 H   0  0  0  0  0  0  0  0  0  0  0  0
    7.9255   -1.5188   -6.5796 H   0  0  0  0  0  0  0  0  0  0  0  0
    8.3188   -4.5812   -7.2276 H   0  0  0  0  0  0  0  0  0  0  0  0
    8.8812   -5.2230   -5.6645 H   0  0  0  0  0  0  0  0  0  0  0  0
   10.3749   -3.6141   -4.5291 H   0  0  0  0  0  0  0  0  0  0  0  0
   12.4992   -2.8483   -7.4842 H   0  0  0  0  0  0  0  0  0  0  0  0
   14.7641   -1.8240   -7.2767 H   0  0  0  0  0  0  0  0  0  0  0  0
   15.6452   -1.2189   -5.0361 H   0  0  0  0  0  0  0  0  0  0  0  0
   15.5189   -1.0525   -2.7512 H   0  0  0  0  0  0  0  0  0  0  0  0
   14.5797   -2.3072   -1.9145 H   0  0  0  0  0  0  0  0  0  0  0  0
   13.9007   -0.6823   -2.1191 H   0  0  0  0  0  0  0  0  0  0  0  0
   12.2723   -2.3292   -1.8930 H   0  0  0  0  0  0  0  0  0  0  0  0
   11.4645   -3.6949   -2.6914 H   0  0  0  0  0  0  0  0  0  0  0  0
   10.8292   -2.0766   -2.9085 H   0  0  0  0  0  0  0  0  0  0  0  0
    6.2437   -0.5398   -3.4910 H   0  0  0  0  0  0  0  0  0  0  0  0
    6.8838   -0.7561   -1.8732 H   0  0  0  0  0  0  0  0  0  0  0  0
    5.1470   -0.3897   -2.0937 H   0  0  0  0  0  0  0  0  0  0  0  0
    3.6937   -2.0998   -1.8142 H   0  0  0  0  0  0  0  0  0  0  0  0
    1.9624   -3.9721   -1.8315 H   0  0  0  0  0  0  0  0  0  0  0  0
  1  2  1  0
  1 33  1  0
  1 34  1  0
  1 35  1  0
  2  3  1  0
  2 36  1  0
  2 37  1  0
  3  4  1  1
  3  5  1  0
  3 31  1  0
  5  6  1  0
  6  7  1  0
  6 29  2  0
  7  8  2  0
  7 38  1  0
  8  9  1  0
  8 26  1  0
  9 10  2  0
  9 11  2  0
  9 12  1  6
 12 13  1  0
 12 14  1  0
 13 39  1  0
 13 40  1  0
 13 41  1  0
 14 15  1  0
 14 42  1  0
 14 43  1  0
 15 16  2  0
 15 17  1  0
 17 18  1  0
 17 44  1  0
 18 19  2  0
 18 24  1  0
 19 20  1  0
 19 45  1  0
 20 21  2  0
 20 46  1  0
 21 22  1  0
 21 47  1  0
 22 23  1  0
 22 24  2  0
 23 48  1  0
 23 49  1  0
 23 50  1  0
 24 25  1  0
 25 51  1  0
 25 52  1  0
 25 53  1  0
 26 27  1  0
 26 28  2  0
 27 54  1  0
 27 55  1  0
 27 56  1  0
 28 29  1  0
 28 57  1  0
 29 30  1  0
 30 31  1  0
 30 58  1  0
 31 32  2  0
M  END

