
     RDKit          3D

 48 50  0  0  0  0  0  0  0  0999 V2000
    0.7561    0.6725   -0.9935 C   0  0  0  0  0  0  0  0  0  0  0  0
    2.2152    0.3871   -0.7867 C   0  0  0  0  0  0  0  0  0  0  0  0
    3.2179    1.2794   -1.3067 C   0  0  0  0  0  0  0  0  0  0  0  0
    4.5676    1.0862   -1.0867 C   0  0  0  0  0  0  0  0  0  0  0  0
    5.5351    2.1028   -1.6574 C   0  0  0  0  0  0  0  0  0  0  0  0
    5.0444   -0.0606   -0.3404 C   0  0  0  0  0  0  0  0  0  0  0  0
    6.4143    0.0397    0.2891 C   0  0  1  0  0  0  0  0  0  0  0  0
    6.5345    0.4839    1.7520 C   0  0  1  0  0  0  0  0  0  0  0  0
    5.5821    1.5361    2.2695 C   0  0  0  0  0  0  0  0  0  0  0  0
    5.5459    0.1536    2.8526 C   0  0  0  0  0  0  0  0  0  0  0  0
    7.3171   -1.1461   -0.0183 N   0  0  0  0  0  0  0  0  0  0  0  0
    8.2643   -1.6613    0.9576 C   0  0  0  0  0  0  0  0  0  0  0  0
    9.2521   -2.7126    0.4502 C   0  0  0  0  0  0  0  0  0  0  0  0
    8.6147   -4.0754    0.0736 C   0  0  0  0  0  0  0  0  0  0  0  0
    7.2766   -4.0188   -0.4768 N   0  0  0  0  0  0  0  0  0  0  0  0
    7.0197   -3.1279   -1.5700 C   0  0  0  0  0  0  0  0  0  0  0  0
    7.3883   -1.6036   -1.3775 C   0  0  0  0  0  0  0  0  0  0  0  0
    4.0238   -0.9985    0.1703 C   0  0  0  0  0  0  0  0  0  0  0  0
    4.3784   -2.3368    0.7741 C   0  0  0  0  0  0  0  0  0  0  0  0
    2.6788   -0.7293   -0.0717 C   0  0  0  0  0  0  0  0  0  0  0  0
    0.5071    0.8343   -2.0616 H   0  0  0  0  0  0  0  0  0  0  0  0
    0.4128    1.5868   -0.4649 H   0  0  0  0  0  0  0  0  0  0  0  0
    0.1269   -0.1585   -0.6344 H   0  0  0  0  0  0  0  0  0  0  0  0
    2.9000    2.1325   -1.9156 H   0  0  0  0  0  0  0  0  0  0  0  0
    5.0041    2.8437   -2.2722 H   0  0  0  0  0  0  0  0  0  0  0  0
    6.3070    1.6407   -2.3027 H   0  0  0  0  0  0  0  0  0  0  0  0
    6.0748    2.6694   -0.8747 H   0  0  0  0  0  0  0  0  0  0  0  0
    6.9572    0.8233   -0.2725 H   0  0  0  0  0  0  0  0  0  0  0  0
    7.5629    0.6414    2.1000 H   0  0  0  0  0  0  0  0  0  0  0  0
    4.7507    1.8139    1.6176 H   0  0  0  0  0  0  0  0  0  0  0  0
    6.0061    2.3518    2.8621 H   0  0  0  0  0  0  0  0  0  0  0  0
    4.6775   -0.4537    2.5970 H   0  0  0  0  0  0  0  0  0  0  0  0
    5.9486   -0.0053    3.8578 H   0  0  0  0  0  0  0  0  0  0  0  0
    7.6716   -2.0298    1.8144 H   0  0  0  0  0  0  0  0  0  0  0  0
    8.8188   -0.7968    1.3585 H   0  0  0  0  0  0  0  0  0  0  0  0
    9.9954   -2.8699    1.2488 H   0  0  0  0  0  0  0  0  0  0  0  0
    9.8216   -2.2964   -0.3962 H   0  0  0  0  0  0  0  0  0  0  0  0
    8.5701   -4.7154    0.9692 H   0  0  0  0  0  0  0  0  0  0  0  0
    9.2879   -4.5913   -0.6346 H   0  0  0  0  0  0  0  0  0  0  0  0
    6.5590   -3.9493    0.2384 H   0  0  0  0  0  0  0  0  0  0  0  0
    5.9474   -3.1706   -1.8006 H   0  0  0  0  0  0  0  0  0  0  0  0
    7.5640   -3.4591   -2.4708 H   0  0  0  0  0  0  0  0  0  0  0  0
    6.6911   -0.9925   -1.9623 H   0  0  0  0  0  0  0  0  0  0  0  0
    8.4199   -1.4378   -1.7305 H   0  0  0  0  0  0  0  0  0  0  0  0
    4.6067   -3.1146    0.0133 H   0  0  0  0  0  0  0  0  0  0  0  0
    3.5357   -2.7381    1.3596 H   0  0  0  0  0  0  0  0  0  0  0  0
    5.2407   -2.2993    1.4643 H   0  0  0  0  0  0  0  0  0  0  0  0
    1.9380   -1.4522    0.2950 H   0  0  0  0  0  0  0  0  0  0  0  0
  1  2  1  0
  1 21  1  0
  1 22  1  0
  1 23  1  0
  2  3  2  0
  2 20  1  0
  3  4  1  0
  3 24  1  0
  4  5  1  0
  4  6  2  0
  5 25  1  0
  5 26  1  0
  5 27  1  0
  6  7  1  0
  6 18  1  0
  7  8  1  0
  7 11  1  0
  7 28  1  6
  8  9  1  0
  8 10  1  0
  8 29  1  1
  9 10  1  0
  9 30  1  0
  9 31  1  0
 10 32  1  0
 10 33  1  0
 11 12  1  0
 11 17  1  0
 12 13  1  0
 12 34  1  0
 12 35  1  0
 13 14  1  0
 13 36  1  0
 13 37  1  0
 14 15  1  0
 14 38  1  0
 14 39  1  0
 15 16  1  0
 15 40  1  0
 16 17  1  0
 16 41  1  0
 16 42  1  0
 17 43  1  0
 17 44  1  0
 18 19  1  0
 18 20  2  0
 19 45  1  0
 19 46  1  0
 19 47  1  0
 20 48  1  0
M  END

