
     RDKit          3D

 75 80  0  0  0  0  0  0  0  0999 V2000
    0.8851   -0.1965    2.0197 C   0  0  0  0  0  0  0  0  0  0  0  0
    2.4060   -0.0438    1.9766 C   0  0  0  0  0  0  0  0  0  0  0  0
    2.8963    1.3870    1.6110 C   0  0  1  0  0  0  0  0  0  0  0  0
    2.5683    2.4354    2.6910 C   0  0  0  0  0  0  0  0  0  0  0  0
    2.8682    3.8769    2.2774 C   0  0  0  0  0  0  0  0  0  0  0  0
    4.3744    1.3264    1.3425 C   0  0  0  0  0  0  0  0  0  0  0  0
    5.2890    1.4615    2.3018 N   0  0  0  0  0  0  0  0  0  0  0  0
    6.4863    1.2600    1.7021 C   0  0  0  0  0  0  0  0  0  0  0  0
    7.7886    1.3033    2.2728 C   0  0  0  0  0  0  0  0  0  0  0  0
    7.9651    1.6308    3.7270 C   0  0  0  0  0  0  0  0  0  0  0  0
    8.8398    1.0203    1.4215 C   0  0  0  0  0  0  0  0  0  0  0  0
    8.6509    0.6593    0.0430 C   0  0  0  0  0  0  0  0  0  0  0  0
    9.8368    0.2713   -0.6819 C   0  0  0  0  0  0  0  0  0  0  0  0
   11.0722    0.6400   -0.2443 N   0  0  0  0  0  0  0  0  0  0  0  0
   11.9410    0.1406   -1.1256 C   0  0  0  0  0  0  0  0  0  0  0  0
   13.3628    0.2357   -1.1591 C   0  0  0  0  0  0  0  0  0  0  0  0
   14.0193   -0.4117   -2.1813 C   0  0  0  0  0  0  0  0  0  0  0  0
   13.3029   -1.1536   -3.1717 C   0  0  0  0  0  0  0  0  0  0  0  0
   11.9119   -1.2652   -3.1717 C   0  0  0  0  0  0  0  0  0  0  0  0
   11.2406   -0.6025   -2.1449 C   0  0  0  0  0  0  0  0  0  0  0  0
    9.9076   -0.5012   -1.8266 N   0  0  0  0  0  0  0  0  0  0  0  0
    8.8477   -1.2110   -2.5509 C   0  0  0  0  0  0  0  0  0  0  0  0
    7.3512    0.6732   -0.5320 C   0  0  0  0  0  0  0  0  0  0  0  0
    6.2994    0.9827    0.3115 C   0  0  0  0  0  0  0  0  0  0  0  0
    4.9253    1.0503    0.1140 N   0  0  0  0  0  0  0  0  0  0  0  0
    4.2451    0.9452   -1.1845 C   0  0  0  0  0  0  0  0  0  0  0  0
    4.1303   -0.4455   -1.7792 C   0  0  0  0  0  0  0  0  0  0  0  0
    4.9039   -1.5415   -1.3556 C   0  0  0  0  0  0  0  0  0  0  0  0
    4.9634   -2.7095   -2.1032 C   0  0  0  0  0  0  0  0  0  0  0  0
    4.2445   -2.8716   -3.3207 C   0  0  0  0  0  0  0  0  0  0  0  0
    4.4538   -4.0543   -4.1629 C   0  0  0  0  0  0  0  0  0  0  0  0
    3.3467   -4.7282   -4.7277 C   0  0  0  0  0  0  0  0  0  0  0  0
    3.4577   -5.9901   -5.2946 C   0  0  0  0  0  0  0  0  0  0  0  0
    4.7229   -6.6483   -5.3017 C   0  0  0  0  0  0  0  0  0  0  0  0
    5.8401   -5.9954   -4.8249 C   0  0  0  0  0  0  0  0  0  0  0  0
    5.7749   -4.6617   -4.3262 C   0  0  0  0  0  0  0  0  0  0  0  0
    7.0352   -3.9435   -4.2020 C   0  0  0  0  0  0  0  0  0  0  0  0
    8.1611   -4.4247   -4.1209 O   0  0  0  0  0  0  0  0  0  0  0  0
    6.9596   -2.5570   -4.2131 O   0  0  0  0  0  0  0  0  0  0  0  0
    3.3666   -1.8043   -3.6633 C   0  0  0  0  0  0  0  0  0  0  0  0
    3.3293   -0.6249   -2.9254 C   0  0  0  0  0  0  0  0  0  0  0  0
    0.6121   -1.2426    2.2278 H   0  0  0  0  0  0  0  0  0  0  0  0
    0.4279    0.0775    1.0545 H   0  0  0  0  0  0  0  0  0  0  0  0
    0.4210    0.4248    2.8009 H   0  0  0  0  0  0  0  0  0  0  0  0
    2.8129   -0.7534    1.2377 H   0  0  0  0  0  0  0  0  0  0  0  0
    2.8494   -0.3211    2.9483 H   0  0  0  0  0  0  0  0  0  0  0  0
    2.3846    1.6791    0.6787 H   0  0  0  0  0  0  0  0  0  0  0  0
    3.1313    2.1827    3.6035 H   0  0  0  0  0  0  0  0  0  0  0  0
    1.4998    2.3456    2.9405 H   0  0  0  0  0  0  0  0  0  0  0  0
    3.9408    4.0270    2.0761 H   0  0  0  0  0  0  0  0  0  0  0  0
    2.5840    4.5810    3.0750 H   0  0  0  0  0  0  0  0  0  0  0  0
    2.3090    4.1633    1.3706 H   0  0  0  0  0  0  0  0  0  0  0  0
    7.4240    0.9064    4.3567 H   0  0  0  0  0  0  0  0  0  0  0  0
    7.5383    2.6201    3.9583 H   0  0  0  0  0  0  0  0  0  0  0  0
    9.0254    1.6270    4.0151 H   0  0  0  0  0  0  0  0  0  0  0  0
    9.8633    1.0295    1.7960 H   0  0  0  0  0  0  0  0  0  0  0  0
   13.8875    0.8033   -0.3896 H   0  0  0  0  0  0  0  0  0  0  0  0
   15.1080   -0.3685   -2.2467 H   0  0  0  0  0  0  0  0  0  0  0  0
   13.8699   -1.6533   -3.9599 H   0  0  0  0  0  0  0  0  0  0  0  0
   11.3890   -1.8414   -3.9350 H   0  0  0  0  0  0  0  0  0  0  0  0
    9.2531   -2.1109   -3.0287 H   0  0  0  0  0  0  0  0  0  0  0  0
    8.4029   -0.5812   -3.3309 H   0  0  0  0  0  0  0  0  0  0  0  0
    8.0659   -1.5367   -1.8598 H   0  0  0  0  0  0  0  0  0  0  0  0
    7.1821    0.4469   -1.5807 H   0  0  0  0  0  0  0  0  0  0  0  0
    4.8014    1.6098   -1.8710 H   0  0  0  0  0  0  0  0  0  0  0  0
    3.2543    1.4065   -1.0716 H   0  0  0  0  0  0  0  0  0  0  0  0
    5.4783   -1.4883   -0.4288 H   0  0  0  0  0  0  0  0  0  0  0  0
    5.5896   -3.5358   -1.7592 H   0  0  0  0  0  0  0  0  0  0  0  0
    2.3555   -4.2735   -4.6329 H   0  0  0  0  0  0  0  0  0  0  0  0
    2.5713   -6.4944   -5.6863 H   0  0  0  0  0  0  0  0  0  0  0  0
    4.8088   -7.6623   -5.7007 H   0  0  0  0  0  0  0  0  0  0  0  0
    6.8266   -6.4621   -4.8738 H   0  0  0  0  0  0  0  0  0  0  0  0
    6.0338   -2.2987   -4.3385 H   0  0  0  0  0  0  0  0  0  0  0  0
    2.7596   -1.8851   -4.5687 H   0  0  0  0  0  0  0  0  0  0  0  0
    2.6898    0.1941   -3.2726 H   0  0  0  0  0  0  0  0  0  0  0  0
  1  2  1  0
  1 42  1  0
  1 43  1  0
  1 44  1  0
  2  3  1  0
  2 45  1  0
  2 46  1  0
  3  4  1  0
  3  6  1  0
  3 47  1  6
  4  5  1  0
  4 48  1  0
  4 49  1  0
  5 50  1  0
  5 51  1  0
  5 52  1  0
  6  7  2  0
  6 25  1  0
  7  8  1  0
  8  9  2  0
  8 24  1  0
  9 10  1  0
  9 11  1  0
 10 53  1  0
 10 54  1  0
 10 55  1  0
 11 12  2  0
 11 56  1  0
 12 13  1  0
 12 23  1  0
 13 14  2  0
 13 21  1  0
 14 15  1  0
 15 16  2  0
 15 20  1  0
 16 17  1  0
 16 57  1  0
 17 18  2  0
 17 58  1  0
 18 19  1  0
 18 59  1  0
 19 20  2  0
 19 60  1  0
 20 21  1  0
 21 22  1  0
 22 61  1  0
 22 62  1  0
 22 63  1  0
 23 24  2  0
 23 64  1  0
 24 25  1  0
 25 26  1  0
 26 27  1  0
 26 65  1  0
 26 66  1  0
 27 28  2  0
 27 41  1  0
 28 29  1  0
 28 67  1  0
 29 30  2  0
 29 68  1  0
 30 31  1  0
 30 40  1  0
 31 32  2  0
 31 36  1  0
 32 33  1  0
 32 69  1  0
 33 34  2  0
 33 70  1  0
 34 35  1  0
 34 71  1  0
 35 36  2  0
 35 72  1  0
 36 37  1  0
 37 38  2  0
 37 39  1  0
 39 73  1  0
 40 41  2  0
 40 74  1  0
 41 75  1  0
M  END

