
     RDKit          3D

 63 70  0  0  0  0  0  0  0  0999 V2000
    1.2001   -0.1120    0.9014 N   0  0  0  0  0  0  0  0  0  0  0  0
    2.3290   -0.0656    0.6099 C   0  0  0  0  0  0  0  0  0  0  0  0
    3.7058   -0.0144    0.2561 C   0  0  0  0  0  0  0  0  0  0  0  0
    4.4487   -1.2078    0.0437 C   0  0  0  0  0  0  0  0  0  0  0  0
    5.7862   -1.1617   -0.2920 C   0  0  0  0  0  0  0  0  0  0  0  0
    6.4755    0.0832   -0.4417 C   0  0  0  0  0  0  0  0  0  0  0  0
    7.8619    0.1287   -0.7873 C   0  0  0  0  0  0  0  0  0  0  0  0
    8.4824    1.3261   -0.9732 N   0  0  0  0  0  0  0  0  0  0  0  0
    9.7474    1.3336   -1.3342 C   0  0  0  0  0  0  0  0  0  0  0  0
   10.4287    2.6365   -1.5241 C   0  0  0  0  0  0  0  0  0  0  0  0
    9.7264    3.8470   -1.3778 C   0  0  0  0  0  0  0  0  0  0  0  0
   10.3683    5.0677   -1.5576 C   0  0  0  0  0  0  0  0  0  0  0  0
   11.7377    5.1331   -1.8895 C   0  0  0  0  0  0  0  0  0  0  0  0
   12.4181    6.4365   -2.0829 C   0  0  0  0  0  0  0  0  0  0  0  0
   12.0902    7.5729   -1.3223 C   0  0  0  0  0  0  0  0  0  0  0  0
   12.7650    8.7716   -1.5485 C   0  0  0  0  0  0  0  0  0  0  0  0
   13.7595    8.8058   -2.5306 C   0  0  0  0  0  0  0  0  0  0  0  0
   14.0845    7.7426   -3.2703 N   0  0  0  0  0  0  0  0  0  0  0  0
   13.4302    6.6028   -3.0517 C   0  0  0  0  0  0  0  0  0  0  0  0
   12.4352    3.9182   -2.0312 C   0  0  0  0  0  0  0  0  0  0  0  0
   11.7945    2.6937   -1.8535 C   0  0  0  0  0  0  0  0  0  0  0  0
   10.4890    0.1994   -1.5569 N   0  0  0  0  0  0  0  0  0  0  0  0
    9.8221   -0.9250   -1.2986 C   0  0  0  0  0  0  0  0  0  0  0  0
   10.6449   -2.1875   -1.5144 C   0  0  0  0  0  0  0  0  0  0  0  0
   11.5224   -2.1955   -2.6064 C   0  0  0  0  0  0  0  0  0  0  0  0
   12.3130   -3.3010   -2.8958 C   0  0  0  0  0  0  0  0  0  0  0  0
   12.2784   -4.4632   -2.0804 C   0  0  0  0  0  0  0  0  0  0  0  0
   13.0861   -5.6005   -2.3571 C   0  0  0  0  0  0  0  0  0  0  0  0
   13.0474   -6.7171   -1.5443 C   0  0  0  0  0  0  0  0  0  0  0  0
   12.1951   -6.7548   -0.4054 C   0  0  0  0  0  0  0  0  0  0  0  0
   12.1379   -7.8900    0.4502 C   0  0  0  0  0  0  0  0  0  0  0  0
   11.2993   -7.9124    1.5633 C   0  0  0  0  0  0  0  0  0  0  0  0
   10.4971   -6.8090    1.8536 C   0  0  0  0  0  0  0  0  0  0  0  0
   10.5174   -5.6509    1.0294 C   0  0  0  0  0  0  0  0  0  0  0  0
    9.7098   -4.5161    1.3028 C   0  0  0  0  0  0  0  0  0  0  0  0
    9.7352   -3.3992    0.4823 C   0  0  0  0  0  0  0  0  0  0  0  0
   10.5837   -3.3392   -0.6599 C   0  0  0  0  0  0  0  0  0  0  0  0
   11.4104   -4.4733   -0.9502 C   0  0  0  0  0  0  0  0  0  0  0  0
   11.3754   -5.6231   -0.1120 C   0  0  0  0  0  0  0  0  0  0  0  0
    8.5760   -1.0614   -0.9200 N   0  0  0  0  0  0  0  0  0  0  0  0
    5.7154    1.2781   -0.2370 C   0  0  0  0  0  0  0  0  0  0  0  0
    4.3800    1.2306    0.1023 C   0  0  0  0  0  0  0  0  0  0  0  0
    3.9431   -2.1709    0.1460 H   0  0  0  0  0  0  0  0  0  0  0  0
    6.3381   -2.0854   -0.4647 H   0  0  0  0  0  0  0  0  0  0  0  0
    8.6652    3.8063   -1.1300 H   0  0  0  0  0  0  0  0  0  0  0  0
    9.7911    5.9909   -1.4652 H   0  0  0  0  0  0  0  0  0  0  0  0
   11.3265    7.5098   -0.5433 H   0  0  0  0  0  0  0  0  0  0  0  0
   12.5324    9.6658   -0.9650 H   0  0  0  0  0  0  0  0  0  0  0  0
   14.3150    9.7308   -2.7265 H   0  0  0  0  0  0  0  0  0  0  0  0
   13.7022    5.7588   -3.6963 H   0  0  0  0  0  0  0  0  0  0  0  0
   13.5037    3.9330   -2.2586 H   0  0  0  0  0  0  0  0  0  0  0  0
   12.3454    1.7583   -1.9542 H   0  0  0  0  0  0  0  0  0  0  0  0
   11.5747   -1.2975   -3.2211 H   0  0  0  0  0  0  0  0  0  0  0  0
   12.9809   -3.2819   -3.7608 H   0  0  0  0  0  0  0  0  0  0  0  0
   13.7453   -5.5804   -3.2282 H   0  0  0  0  0  0  0  0  0  0  0  0
   13.6739   -7.5832   -1.7694 H   0  0  0  0  0  0  0  0  0  0  0  0
   12.7672   -8.7534    0.2216 H   0  0  0  0  0  0  0  0  0  0  0  0
   11.2699   -8.7933    2.2072 H   0  0  0  0  0  0  0  0  0  0  0  0
    9.8378   -6.8239    2.7246 H   0  0  0  0  0  0  0  0  0  0  0  0
    9.0508   -4.5293    2.1738 H   0  0  0  0  0  0  0  0  0  0  0  0
    9.0816   -2.5519    0.6786 H   0  0  0  0  0  0  0  0  0  0  0  0
    6.2180    2.2386   -0.3509 H   0  0  0  0  0  0  0  0  0  0  0  0
    3.8231    2.1574    0.2577 H   0  0  0  0  0  0  0  0  0  0  0  0
  1  2  3  0
  2  3  1  0
  3  4  2  0
  3 42  1  0
  4  5  1  0
  4 43  1  0
  5  6  2  0
  5 44  1  0
  6  7  1  0
  6 41  1  0
  7  8  2  0
  7 40  1  0
  8  9  1  0
  9 10  1  0
  9 22  2  0
 10 11  2  0
 10 21  1  0
 11 12  1  0
 11 45  1  0
 12 13  2  0
 12 46  1  0
 13 14  1  0
 13 20  1  0
 14 15  2  0
 14 19  1  0
 15 16  1  0
 15 47  1  0
 16 17  2  0
 16 48  1  0
 17 18  1  0
 17 49  1  0
 18 19  2  0
 19 50  1  0
 20 21  2  0
 20 51  1  0
 21 52  1  0
 22 23  1  0
 23 24  1  0
 23 40  2  0
 24 25  2  0
 24 37  1  0
 25 26  1  0
 25 53  1  0
 26 27  2  0
 26 54  1  0
 27 28  1  0
 27 38  1  0
 28 29  2  0
 28 55  1  0
 29 30  1  0
 29 56  1  0
 30 31  2  0
 30 39  1  0
 31 32  1  0
 31 57  1  0
 32 33  2  0
 32 58  1  0
 33 34  1  0
 33 59  1  0
 34 35  2  0
 34 39  1  0
 35 36  1  0
 35 60  1  0
 36 37  2  0
 36 61  1  0
 37 38  1  0
 38 39  2  0
 41 42  2  0
 41 62  1  0
 42 63  1  0
M  END

