
     RDKit          3D

 42 44  0  0  0  0  0  0  0  0999 V2000
    1.7693    1.1953   -1.2134 C   0  0  0  0  0  0  0  0  0  0  0  0
    3.1070    0.8524   -0.6626 C   0  0  0  0  0  0  0  0  0  0  0  0
    4.2190    1.5162   -0.7451 N   0  0  0  0  0  0  0  0  0  0  0  0
    5.1079    0.7163   -0.0551 C   0  0  0  0  0  0  0  0  0  0  0  0
    6.5269    1.0572    0.1251 C   0  0  0  0  0  0  0  0  0  0  0  0
    7.0300    2.2483   -0.4172 C   0  0  0  0  0  0  0  0  0  0  0  0
    8.3747    2.6016   -0.2626 C   0  0  0  0  0  0  0  0  0  0  0  0
    8.9350    3.8613   -0.8730 C   0  0  0  0  0  0  0  0  0  0  0  0
    9.2095    1.7295    0.4619 C   0  0  0  0  0  0  0  0  0  0  0  0
   10.5447    2.0635    0.5806 O   0  0  0  0  0  0  0  0  0  0  0  0
   10.9562    2.6511    1.8020 C   0  0  0  0  0  0  0  0  0  0  0  0
   12.2955    3.3131    1.5971 C   0  0  0  0  0  0  0  0  0  0  0  0
   12.1036    4.4892    0.7815 O   0  0  0  0  0  0  0  0  0  0  0  0
   13.1771    5.1342    0.4138 C   0  0  0  0  0  0  0  0  0  0  0  0
   14.4288    4.8899    0.6834 N   0  0  0  0  0  0  0  0  0  0  0  0
   15.0413    5.9141    0.0195 C   0  0  0  0  0  0  0  0  0  0  0  0
   16.5421    6.0868    0.0212 C   0  0  1  0  0  0  0  0  0  0  0  0
   16.9915    6.2356    1.2741 F   0  0  0  0  0  0  0  0  0  0  0  0
   17.1364    5.0072   -0.5023 F   0  0  0  0  0  0  0  0  0  0  0  0
   16.9069    7.1547   -0.6873 F   0  0  0  0  0  0  0  0  0  0  0  0
   14.2523    6.7382   -0.6142 N   0  0  0  0  0  0  0  0  0  0  0  0
   12.9855    6.2136   -0.3505 O   0  0  0  0  0  0  0  0  0  0  0  0
    8.7387    0.5143    0.9984 C   0  0  0  0  0  0  0  0  0  0  0  0
    9.6705   -0.4269    1.7216 C   0  0  0  0  0  0  0  0  0  0  0  0
    7.3886    0.1965    0.8211 C   0  0  0  0  0  0  0  0  0  0  0  0
    4.5647   -0.3799    0.4252 N   0  0  0  0  0  0  0  0  0  0  0  0
    3.2387   -0.2936    0.0241 O   0  0  0  0  0  0  0  0  0  0  0  0
    1.8297    2.1562   -1.7382 H   0  0  0  0  0  0  0  0  0  0  0  0
    1.0239    1.2654   -0.4059 H   0  0  0  0  0  0  0  0  0  0  0  0
    1.4277    0.4172   -1.9139 H   0  0  0  0  0  0  0  0  0  0  0  0
    6.3532    2.9013   -0.9713 H   0  0  0  0  0  0  0  0  0  0  0  0
    8.1542    4.4158   -1.4123 H   0  0  0  0  0  0  0  0  0  0  0  0
    9.7479    3.6296   -1.5798 H   0  0  0  0  0  0  0  0  0  0  0  0
    9.3710    4.5319   -0.1158 H   0  0  0  0  0  0  0  0  0  0  0  0
   11.0725    1.8892    2.5956 H   0  0  0  0  0  0  0  0  0  0  0  0
   10.2168    3.3924    2.1548 H   0  0  0  0  0  0  0  0  0  0  0  0
   12.9971    2.6344    1.0894 H   0  0  0  0  0  0  0  0  0  0  0  0
   12.7346    3.6160    2.5607 H   0  0  0  0  0  0  0  0  0  0  0  0
   10.6675   -0.4321    1.2560 H   0  0  0  0  0  0  0  0  0  0  0  0
    9.2756   -1.4531    1.7128 H   0  0  0  0  0  0  0  0  0  0  0  0
    9.8031   -0.1416    2.7802 H   0  0  0  0  0  0  0  0  0  0  0  0
    6.9954   -0.7409    1.2203 H   0  0  0  0  0  0  0  0  0  0  0  0
  1  2  1  0
  1 28  1  0
  1 29  1  0
  1 30  1  0
  2  3  2  0
  2 27  1  0
  3  4  1  0
  4  5  1  0
  4 26  2  0
  5  6  2  0
  5 25  1  0
  6  7  1  0
  6 31  1  0
  7  8  1  0
  7  9  2  0
  8 32  1  0
  8 33  1  0
  8 34  1  0
  9 10  1  0
  9 23  1  0
 10 11  1  0
 11 12  1  0
 11 35  1  0
 11 36  1  0
 12 13  1  0
 12 37  1  0
 12 38  1  0
 13 14  1  0
 14 15  2  0
 14 22  1  0
 15 16  1  0
 16 17  1  0
 16 21  2  0
 17 18  1  1
 17 19  1  0
 17 20  1  0
 21 22  1  0
 23 24  1  0
 23 25  2  0
 24 39  1  0
 24 40  1  0
 24 41  1  0
 25 42  1  0
 26 27  1  0
M  END

