
     RDKit          3D

122130  0  0  0  0  0  0  0  0999 V2000
   12.8030   -0.9292    0.4269 C   0  0  0  0  0  0  0  0  0  0  0  0
   11.7317   -1.0503   -0.6577 C   0  0  0  0  0  0  0  0  0  0  0  0
   10.3855   -1.5606   -0.1339 C   0  0  0  0  0  0  0  0  0  0  0  0
    9.3042   -1.6726   -1.2128 C   0  0  0  0  0  0  0  0  0  0  0  0
    7.9688   -2.1967   -0.6772 C   0  0  0  0  0  0  0  0  0  0  0  0
    6.8353   -2.2534   -1.7085 C   0  0  0  0  0  0  0  0  0  0  0  0
    7.0888   -3.1523   -2.8288 N   0  0  0  0  0  0  0  0  0  0  0  0
    6.9373   -4.5320   -2.7690 C   0  0  0  0  0  0  0  0  0  0  0  0
    6.5961   -5.1839   -1.7944 O   0  0  0  0  0  0  0  0  0  0  0  0
    7.2643   -5.0383   -4.1169 C   0  0  0  0  0  0  0  0  0  0  0  0
    7.2537   -6.3647   -4.5404 C   0  0  0  0  0  0  0  0  0  0  0  0
    6.9297   -7.4098   -3.7162 N   0  0  0  0  0  0  0  0  0  0  0  0
    6.6834   -7.1848   -2.7538 H   0  0  0  0  0  0  0  0  0  0  0  0
    6.9382   -8.7193   -4.1902 C   0  0  0  0  0  0  0  0  0  0  0  0
    6.6200   -9.8149   -3.3791 C   0  0  0  0  0  0  0  0  0  0  0  0
    6.6400  -11.1143   -3.8991 C   0  0  0  0  0  0  0  0  0  0  0  0
    6.3335  -12.2335   -3.1291 N   0  0  0  0  0  0  0  0  0  0  0  0
    6.0780  -12.1599   -2.1457 H   0  0  0  0  0  0  0  0  0  0  0  0
    6.3590  -13.4887   -3.6766 C   0  0  0  0  0  0  0  0  0  0  0  0
    6.7051  -13.6477   -5.0561 C   0  0  0  0  0  0  0  0  0  0  0  0
    7.0121  -12.5671   -5.8142 O   0  0  0  0  0  0  0  0  0  0  0  0
    6.9817  -11.3062   -5.2494 C   0  0  0  0  0  0  0  0  0  0  0  0
    7.3023  -10.2262   -6.0658 C   0  0  0  0  0  0  0  0  0  0  0  0
    7.2810   -8.9400   -5.5358 C   0  0  0  0  0  0  0  0  0  0  0  0
    7.6070   -7.8946   -6.3787 O   0  0  0  0  0  0  0  0  0  0  0  0
    7.6001   -6.6252   -5.9041 C   0  0  0  0  0  0  0  0  0  0  0  0
    7.9268   -5.5562   -6.7263 C   0  0  0  0  0  0  0  0  0  0  0  0
    8.3259   -5.5565   -8.1697 C   0  0  0  0  0  0  0  0  0  0  0  0
    8.4604   -6.4876   -8.9287 O   0  0  0  0  0  0  0  0  0  0  0  0
    8.5361   -4.2120   -8.4979 N   0  0  0  0  0  0  0  0  0  0  0  0
    8.9728   -3.7740   -9.8182 C   0  0  0  0  0  0  0  0  0  0  0  0
    7.8481   -3.6894  -10.8574 C   0  0  0  0  0  0  0  0  0  0  0  0
    6.7543   -2.6653  -10.5427 C   0  0  0  0  0  0  0  0  0  0  0  0
    5.6846   -2.5660  -11.6344 C   0  0  0  0  0  0  0  0  0  0  0  0
    4.5834   -1.5459  -11.3292 C   0  0  0  0  0  0  0  0  0  0  0  0
    3.5208   -1.4466  -12.4245 C   0  0  0  0  0  0  0  0  0  0  0  0
    8.3381   -3.3379   -7.4134 C   0  0  0  0  0  0  0  0  0  0  0  0
    8.4901   -2.1419   -7.4522 O   0  0  0  0  0  0  0  0  0  0  0  0
    7.9303   -4.2123   -6.2673 C   0  0  0  0  0  0  0  0  0  0  0  0
    7.5947   -3.9527   -4.9526 C   0  0  0  0  0  0  0  0  0  0  0  0
    7.4730   -2.7063   -4.1196 C   0  0  0  0  0  0  0  0  0  0  0  0
    7.6378   -1.5521   -4.4186 O   0  0  0  0  0  0  0  0  0  0  0  0
    6.7190  -14.9249   -5.5981 C   0  0  0  0  0  0  0  0  0  0  0  0
    7.0323  -15.3592   -6.9966 C   0  0  0  0  0  0  0  0  0  0  0  0
    7.3328  -14.6915   -7.9585 O   0  0  0  0  0  0  0  0  0  0  0  0
    6.8992  -16.7527   -6.9923 N   0  0  0  0  0  0  0  0  0  0  0  0
    7.0935  -17.5743   -8.1810 C   0  0  0  0  0  0  0  0  0  0  0  0
    8.5627  -17.8607   -8.5142 C   0  0  0  0  0  0  0  0  0  0  0  0
    9.3205  -18.6632   -7.4531 C   0  0  0  0  0  0  0  0  0  0  0  0
   10.7663  -18.9771   -7.8489 C   0  0  0  0  0  0  0  0  0  0  0  0
   11.5382  -19.7720   -6.7911 C   0  0  0  0  0  0  0  0  0  0  0  0
   12.9802  -20.0854   -7.1922 C   0  0  0  0  0  0  0  0  0  0  0  0
    6.5099  -17.2697   -5.7430 C   0  0  0  0  0  0  0  0  0  0  0  0
    6.3100  -18.4360   -5.5083 O   0  0  0  0  0  0  0  0  0  0  0  0
    6.4031  -16.0814   -4.8369 C   0  0  0  0  0  0  0  0  0  0  0  0
    6.0732  -15.9365   -3.5034 C   0  0  0  0  0  0  0  0  0  0  0  0
    5.6894  -16.8832   -2.3991 C   0  0  0  0  0  0  0  0  0  0  0  0
    5.5545  -18.0797   -2.4092 O   0  0  0  0  0  0  0  0  0  0  0  0
    5.4906  -16.0697   -1.2563 N   0  0  0  0  0  0  0  0  0  0  0  0
    5.0939  -16.6053    0.0412 C   0  0  0  0  0  0  0  0  0  0  0  0
    6.2359  -17.2717    0.8182 C   0  0  0  0  0  0  0  0  0  0  0  0
    7.3849  -16.3364    1.2037 C   0  0  0  0  0  0  0  0  0  0  0  0
    8.4915  -17.0340    2.0007 C   0  0  0  0  0  0  0  0  0  0  0  0
    9.6531  -16.1126    2.3856 C   0  0  0  0  0  0  0  0  0  0  0  0
   10.7560  -16.8177    3.1764 C   0  0  0  0  0  0  0  0  0  0  0  0
    5.6854  -14.7195   -1.5261 C   0  0  0  0  0  0  0  0  0  0  0  0
    5.5632  -13.7937   -0.7400 O   0  0  0  0  0  0  0  0  0  0  0  0
    6.0608  -14.6396   -2.9519 C   0  0  0  0  0  0  0  0  0  0  0  0
   13.7562   -0.5605    0.0154 H   0  0  0  0  0  0  0  0  0  0  0  0
   13.0020   -1.9030    0.9054 H   0  0  0  0  0  0  0  0  0  0  0  0
   12.4918   -0.2305    1.2217 H   0  0  0  0  0  0  0  0  0  0  0  0
   12.0890   -1.7249   -1.4569 H   0  0  0  0  0  0  0  0  0  0  0  0
   11.5827   -0.0681   -1.1418 H   0  0  0  0  0  0  0  0  0  0  0  0
   10.0301   -0.8897    0.6707 H   0  0  0  0  0  0  0  0  0  0  0  0
   10.5302   -2.5478    0.3440 H   0  0  0  0  0  0  0  0  0  0  0  0
    9.6671   -2.3357   -2.0188 H   0  0  0  0  0  0  0  0  0  0  0  0
    9.1497   -0.6870   -1.6871 H   0  0  0  0  0  0  0  0  0  0  0  0
    7.6219   -1.5475    0.1465 H   0  0  0  0  0  0  0  0  0  0  0  0
    8.1024   -3.2001   -0.2371 H   0  0  0  0  0  0  0  0  0  0  0  0
    6.6605   -1.2601   -2.1476 H   0  0  0  0  0  0  0  0  0  0  0  0
    5.9069   -2.5877   -1.2207 H   0  0  0  0  0  0  0  0  0  0  0  0
    6.3541   -9.6544   -2.3318 H   0  0  0  0  0  0  0  0  0  0  0  0
    7.5675  -10.3863   -7.1113 H   0  0  0  0  0  0  0  0  0  0  0  0
    9.7392   -4.4851  -10.1617 H   0  0  0  0  0  0  0  0  0  0  0  0
    9.4439   -2.7901   -9.6760 H   0  0  0  0  0  0  0  0  0  0  0  0
    7.4063   -4.6924  -10.9872 H   0  0  0  0  0  0  0  0  0  0  0  0
    8.3206   -3.4383  -11.8240 H   0  0  0  0  0  0  0  0  0  0  0  0
    7.2138   -1.6736  -10.3819 H   0  0  0  0  0  0  0  0  0  0  0  0
    6.2678   -2.9243   -9.5851 H   0  0  0  0  0  0  0  0  0  0  0  0
    5.2276   -3.5611  -11.7916 H   0  0  0  0  0  0  0  0  0  0  0  0
    6.1662   -2.3047  -12.5956 H   0  0  0  0  0  0  0  0  0  0  0  0
    5.0436   -0.5539  -11.1693 H   0  0  0  0  0  0  0  0  0  0  0  0
    4.1018   -1.8086  -10.3696 H   0  0  0  0  0  0  0  0  0  0  0  0
    3.9656   -1.1479  -13.3888 H   0  0  0  0  0  0  0  0  0  0  0  0
    2.7466   -0.7044  -12.1721 H   0  0  0  0  0  0  0  0  0  0  0  0
    3.0151   -2.4141  -12.5824 H   0  0  0  0  0  0  0  0  0  0  0  0
    6.6206  -17.0478   -9.0238 H   0  0  0  0  0  0  0  0  0  0  0  0
    6.5466  -18.5115   -8.0002 H   0  0  0  0  0  0  0  0  0  0  0  0
    9.0768  -16.9037   -8.7084 H   0  0  0  0  0  0  0  0  0  0  0  0
    8.5749  -18.4120   -9.4715 H   0  0  0  0  0  0  0  0  0  0  0  0
    8.7792  -19.6038   -7.2462 H   0  0  0  0  0  0  0  0  0  0  0  0
    9.3219  -18.1069   -6.4984 H   0  0  0  0  0  0  0  0  0  0  0  0
   11.3020  -18.0322   -8.0588 H   0  0  0  0  0  0  0  0  0  0  0  0
   10.7710  -19.5396   -8.8016 H   0  0  0  0  0  0  0  0  0  0  0  0
   10.9995  -20.7140   -6.5817 H   0  0  0  0  0  0  0  0  0  0  0  0
   11.5333  -19.2088   -5.8399 H   0  0  0  0  0  0  0  0  0  0  0  0
   13.0183  -20.6798   -8.1206 H   0  0  0  0  0  0  0  0  0  0  0  0
   13.5031  -20.6584   -6.4098 H   0  0  0  0  0  0  0  0  0  0  0  0
   13.5574  -19.1623   -7.3701 H   0  0  0  0  0  0  0  0  0  0  0  0
    4.2918  -17.3377   -0.1364 H   0  0  0  0  0  0  0  0  0  0  0  0
    4.6761  -15.7608    0.6093 H   0  0  0  0  0  0  0  0  0  0  0  0
    6.6179  -18.1214    0.2274 H   0  0  0  0  0  0  0  0  0  0  0  0
    5.7937  -17.7096    1.7307 H   0  0  0  0  0  0  0  0  0  0  0  0
    6.9885  -15.4847    1.7857 H   0  0  0  0  0  0  0  0  0  0  0  0
    7.8250  -15.8947    0.2911 H   0  0  0  0  0  0  0  0  0  0  0  0
    8.8807  -17.8866    1.4137 H   0  0  0  0  0  0  0  0  0  0  0  0
    8.0584  -17.4764    2.9174 H   0  0  0  0  0  0  0  0  0  0  0  0
    9.2619  -15.2624    2.9737 H   0  0  0  0  0  0  0  0  0  0  0  0
   10.0828  -15.6689    1.4688 H   0  0  0  0  0  0  0  0  0  0  0  0
   10.3671  -17.2396    4.1184 H   0  0  0  0  0  0  0  0  0  0  0  0
   11.5745  -16.1269    3.4348 H   0  0  0  0  0  0  0  0  0  0  0  0
   11.1927  -17.6502    2.5996 H   0  0  0  0  0  0  0  0  0  0  0  0
  1  2  1  0
  1 69  1  0
  1 70  1  0
  1 71  1  0
  2  3  1  0
  2 72  1  0
  2 73  1  0
  3  4  1  0
  3 74  1  0
  3 75  1  0
  4  5  1  0
  4 76  1  0
  4 77  1  0
  5  6  1  0
  5 78  1  0
  5 79  1  0
  6  7  1  0
  6 80  1  0
  6 81  1  0
  7  8  1  0
  7 41  1  0
  8  9  2  0
  8 10  1  0
 10 11  2  0
 10 40  1  0
 11 12  1  0
 11 26  1  0
 12 13  1  0
 12 14  1  0
 14 15  2  0
 14 24  1  0
 15 16  1  0
 15 82  1  0
 16 17  1  0
 16 22  2  0
 17 18  1  0
 17 19  1  0
 19 20  2  0
 19 68  1  0
 20 21  1  0
 20 43  1  0
 21 22  1  0
 22 23  1  0
 23 24  2  0
 23 83  1  0
 24 25  1  0
 25 26  1  0
 26 27  2  0
 27 28  1  0
 27 39  1  0
 28 29  2  0
 28 30  1  0
 30 31  1  0
 30 37  1  0
 31 32  1  0
 31 84  1  0
 31 85  1  0
 32 33  1  0
 32 86  1  0
 32 87  1  0
 33 34  1  0
 33 88  1  0
 33 89  1  0
 34 35  1  0
 34 90  1  0
 34 91  1  0
 35 36  1  0
 35 92  1  0
 35 93  1  0
 36 94  1  0
 36 95  1  0
 36 96  1  0
 37 38  2  0
 37 39  1  0
 39 40  2  0
 40 41  1  0
 41 42  2  0
 43 44  1  0
 43 55  2  0
 44 45  2  0
 44 46  1  0
 46 47  1  0
 46 53  1  0
 47 48  1  0
 47 97  1  0
 47 98  1  0
 48 49  1  0
 48 99  1  0
 48100  1  0
 49 50  1  0
 49101  1  0
 49102  1  0
 50 51  1  0
 50103  1  0
 50104  1  0
 51 52  1  0
 51105  1  0
 51106  1  0
 52107  1  0
 52108  1  0
 52109  1  0
 53 54  2  0
 53 55  1  0
 55 56  1  0
 56 57  1  0
 56 68  2  0
 57 58  2  0
 57 59  1  0
 59 60  1  0
 59 66  1  0
 60 61  1  0
 60110  1  0
 60111  1  0
 61 62  1  0
 61112  1  0
 61113  1  0
 62 63  1  0
 62114  1  0
 62115  1  0
 63 64  1  0
 63116  1  0
 63117  1  0
 64 65  1  0
 64118  1  0
 64119  1  0
 65120  1  0
 65121  1  0
 65122  1  0
 66 67  2  0
 66 68  1  0
M  END

