
     RDKit          3D

 48 50  0  0  0  0  0  0  0  0999 V2000
    4.7801   -0.8570   -2.1573 C   0  0  0  0  0  0  0  0  0  0  0  0
    4.2072   -0.6500   -0.8326 N   0  0  0  0  0  0  0  0  0  0  0  0
    3.0479   -1.3951   -0.3874 C   0  0  0  0  0  0  0  0  0  0  0  0
    2.6651   -1.2560    0.7477 O   0  0  0  0  0  0  0  0  0  0  0  0
    2.3848   -2.3932   -1.3456 C   0  0  1  0  0  0  0  0  0  0  0  0
    2.5056   -3.8331   -0.7642 C   0  0  0  0  0  0  0  0  0  0  0  0
    1.1332   -4.4618   -1.0733 C   0  0  0  0  0  0  0  0  0  0  0  0
    0.1619   -3.2853   -0.9324 C   0  0  0  0  0  0  0  0  0  0  0  0
    0.9654   -2.1632   -1.4132 N   0  0  0  0  0  0  0  0  0  0  0  0
    0.4155   -1.0304   -2.0045 C   0  0  0  0  0  0  0  0  0  0  0  0
   -0.7898   -0.9023   -2.1188 O   0  0  0  0  0  0  0  0  0  0  0  0
    1.3584   -0.2070   -2.4436 O   0  0  0  0  0  0  0  0  0  0  0  0
    0.8902    1.1945   -2.9918 C   0  0  0  0  0  0  0  0  0  0  0  0
    0.8128    2.2888   -2.0532 C   0  0  0  0  0  0  0  0  0  0  0  0
    1.9436    3.1745   -1.7864 C   0  0  0  0  0  0  0  0  0  0  0  0
    1.8537    4.2240   -0.9072 C   0  0  0  0  0  0  0  0  0  0  0  0
    0.6456    4.4938   -0.1692 C   0  0  0  0  0  0  0  0  0  0  0  0
   -0.4644    3.6046   -0.3880 C   0  0  0  0  0  0  0  0  0  0  0  0
   -0.4008    2.5618   -1.2726 C   0  0  0  0  0  0  0  0  0  0  0  0
    4.7899    0.2525    0.0074 C   0  0  0  0  0  0  0  0  0  0  0  0
    6.2183    0.4024    0.0135 C   0  0  0  0  0  0  0  0  0  0  0  0
    6.8024    1.2734    0.8798 C   0  0  0  0  0  0  0  0  0  0  0  0
    6.0051    2.0856    1.7461 C   0  0  0  0  0  0  0  0  0  0  0  0
    6.5351    2.9586    2.5781 O   0  0  0  0  0  0  0  0  0  0  0  0
    4.5919    1.9700    1.7128 C   0  0  0  0  0  0  0  0  0  0  0  0
    4.0035    1.0957    0.8663 C   0  0  0  0  0  0  0  0  0  0  0  0
    4.0353   -0.5231   -2.8968 H   0  0  0  0  0  0  0  0  0  0  0  0
    5.0358   -1.9114   -2.3372 H   0  0  0  0  0  0  0  0  0  0  0  0
    5.6706   -0.2277   -2.2772 H   0  0  0  0  0  0  0  0  0  0  0  0
    2.8150   -2.3430   -2.3509 H   0  0  0  0  0  0  0  0  0  0  0  0
    2.6657   -3.7858    0.3221 H   0  0  0  0  0  0  0  0  0  0  0  0
    3.3510   -4.3824   -1.2067 H   0  0  0  0  0  0  0  0  0  0  0  0
    0.8926   -5.2987   -0.3999 H   0  0  0  0  0  0  0  0  0  0  0  0
    1.1126   -4.8446   -2.1061 H   0  0  0  0  0  0  0  0  0  0  0  0
   -0.1454   -3.1287    0.1169 H   0  0  0  0  0  0  0  0  0  0  0  0
   -0.7483   -3.3796   -1.5405 H   0  0  0  0  0  0  0  0  0  0  0  0
   -0.0801    0.9801   -3.4619 H   0  0  0  0  0  0  0  0  0  0  0  0
    1.6443    1.3811   -3.7737 H   0  0  0  0  0  0  0  0  0  0  0  0
    2.8633    3.0317   -2.3715 H   0  0  0  0  0  0  0  0  0  0  0  0
    2.7154    4.8890   -0.7681 H   0  0  0  0  0  0  0  0  0  0  0  0
    0.5780    5.3274    0.5305 H   0  0  0  0  0  0  0  0  0  0  0  0
   -1.3956    3.7747    0.1646 H   0  0  0  0  0  0  0  0  0  0  0  0
   -1.2531    1.8880   -1.4015 H   0  0  0  0  0  0  0  0  0  0  0  0
    6.8350   -0.3204   -0.5259 H   0  0  0  0  0  0  0  0  0  0  0  0
    7.8902    1.2810    0.9916 H   0  0  0  0  0  0  0  0  0  0  0  0
    7.4942    3.0405    2.4601 H   0  0  0  0  0  0  0  0  0  0  0  0
    3.9889    2.6381    2.3250 H   0  0  0  0  0  0  0  0  0  0  0  0
    2.9231    1.0806    0.7748 H   0  0  0  0  0  0  0  0  0  0  0  0
  1  2  1  0
  1 27  1  0
  1 28  1  0
  1 29  1  0
  2  3  1  0
  2 20  1  0
  3  4  2  0
  3  5  1  0
  5  6  1  0
  5  9  1  0
  5 30  1  6
  6  7  1  0
  6 31  1  0
  6 32  1  0
  7  8  1  0
  7 33  1  0
  7 34  1  0
  8  9  1  0
  8 35  1  0
  8 36  1  0
  9 10  1  0
 10 11  2  0
 10 12  1  0
 12 13  1  0
 13 14  1  0
 13 37  1  0
 13 38  1  0
 14 15  2  0
 14 19  1  0
 15 16  1  0
 15 39  1  0
 16 17  2  0
 16 40  1  0
 17 18  1  0
 17 41  1  0
 18 19  2  0
 18 42  1  0
 19 43  1  0
 20 21  2  0
 20 26  1  0
 21 22  1  0
 21 44  1  0
 22 23  2  0
 22 45  1  0
 23 24  1  0
 23 25  1  0
 24 46  1  0
 25 26  2  0
 25 47  1  0
 26 48  1  0
M  END

