
     RDKit          3D

120127  0  0  0  0  0  0  0  0999 V2000
   19.3155    1.6059    1.3204 C   0  0  0  0  0  0  0  0  0  0  0  0
   18.5124    0.3245    1.0925 C   0  0  0  0  0  0  0  0  0  0  0  0
   18.4659   -0.1193   -0.3730 C   0  0  0  0  0  0  0  0  0  0  0  0
   17.6619   -1.4011   -0.6088 C   0  0  0  0  0  0  0  0  0  0  0  0
   17.6167   -1.8480   -2.0730 C   0  0  0  0  0  0  0  0  0  0  0  0
   16.8092   -3.1283   -2.3056 C   0  0  0  0  0  0  0  0  0  0  0  0
   16.7679   -3.5821   -3.7678 C   0  0  0  0  0  0  0  0  0  0  0  0
   15.9555   -4.8604   -3.9963 C   0  0  0  0  0  0  0  0  0  0  0  0
   15.9291   -5.3196   -5.4587 C   0  0  0  0  0  0  0  0  0  0  0  0
   15.1715   -6.6302   -5.7157 C   0  0  0  0  0  0  0  0  0  0  0  0
   13.6581   -6.5459   -5.4896 C   0  0  0  0  0  0  0  0  0  0  0  0
   12.8930   -7.8330   -5.8235 C   0  0  0  0  0  0  0  0  0  0  0  0
   13.2436   -8.9698   -4.9846 N   0  0  0  0  0  0  0  0  0  0  0  0
   12.7798   -9.1471   -3.6754 C   0  0  0  0  0  0  0  0  0  0  0  0
   12.0595   -8.3632   -3.0935 O   0  0  0  0  0  0  0  0  0  0  0  0
   13.3499  -10.4526   -3.2100 C   0  0  0  0  0  0  0  0  0  0  0  0
   14.1098  -10.9782   -4.2263 C   0  0  0  0  0  0  0  0  0  0  0  0
   14.8758  -12.1696   -4.0612 C   0  0  0  0  0  0  0  0  0  0  0  0
   15.7398  -12.6422   -5.0773 C   0  0  0  0  0  0  0  0  0  0  0  0
   16.5616  -13.7350   -4.8467 C   0  0  0  0  0  0  0  0  0  0  0  0
   16.6272  -14.2896   -3.5658 C   0  0  0  0  0  0  0  0  0  0  0  0
   17.4327  -15.3871   -2.9750 C   0  0  0  0  0  0  0  0  0  0  0  0
   18.3311  -14.9263   -2.0013 C   0  0  0  0  0  0  0  0  0  0  0  0
   19.5475  -14.1954   -2.3020 C   0  0  0  0  0  0  0  0  0  0  0  0
   20.1598  -13.2735   -1.4194 C   0  0  0  0  0  0  0  0  0  0  0  0
   21.2935  -12.5619   -1.7779 C   0  0  0  0  0  0  0  0  0  0  0  0
   21.9007  -12.7308   -3.0532 C   0  0  0  0  0  0  0  0  0  0  0  0
   23.0247  -12.0186   -3.4131 N   0  0  0  0  0  0  0  0  0  0  0  0
   23.6129  -12.2029   -4.7249 C   0  0  0  0  0  0  0  0  0  0  0  0
   23.6390  -11.1018   -2.4737 C   0  0  0  0  0  0  0  0  0  0  0  0
   21.3108  -13.6807   -3.9279 C   0  0  0  0  0  0  0  0  0  0  0  0
   20.1818  -14.3935   -3.5510 C   0  0  0  0  0  0  0  0  0  0  0  0
   17.5170  -14.6653   -0.8048 C   0  0  0  0  0  0  0  0  0  0  0  0
   18.0730  -14.7097    0.4276 O   0  0  0  0  0  0  0  0  0  0  0  0
   17.3380  -14.2264    1.5370 C   0  0  0  0  0  0  0  0  0  0  0  0
   16.2880  -14.0920   -1.1065 C   0  0  0  0  0  0  0  0  0  0  0  0
   15.8414  -13.7681   -2.4829 C   0  0  0  0  0  0  0  0  0  0  0  0
   14.7985  -12.8255   -2.7737 C   0  0  0  0  0  0  0  0  0  0  0  0
   13.7365  -12.4379   -1.8431 C   0  0  0  0  0  0  0  0  0  0  0  0
   13.1178  -11.1590   -1.9934 C   0  0  0  0  0  0  0  0  0  0  0  0
   12.2513  -10.6364   -0.9817 C   0  0  0  0  0  0  0  0  0  0  0  0
   11.9336  -11.3915    0.1126 C   0  0  0  0  0  0  0  0  0  0  0  0
   12.3535  -12.7532    0.2037 C   0  0  0  0  0  0  0  0  0  0  0  0
   11.8675  -13.5933    1.2359 C   0  0  0  0  0  0  0  0  0  0  0  0
   12.1062  -14.9598    1.2904 C   0  0  0  0  0  0  0  0  0  0  0  0
   11.5882  -15.7681    2.4228 C   0  0  0  0  0  0  0  0  0  0  0  0
   11.0003  -17.0378    2.2626 C   0  0  0  0  0  0  0  0  0  0  0  0
   10.4726  -17.7464    3.3371 C   0  0  0  0  0  0  0  0  0  0  0  0
   10.5134  -17.2276    4.6558 C   0  0  0  0  0  0  0  0  0  0  0  0
    9.9994  -17.9326    5.7287 N   0  0  0  0  0  0  0  0  0  0  0  0
   10.0320  -17.3573    7.0565 C   0  0  0  0  0  0  0  0  0  0  0  0
    9.3841  -19.2261    5.5189 C   0  0  0  0  0  0  0  0  0  0  0  0
   11.1101  -15.9533    4.8219 C   0  0  0  0  0  0  0  0  0  0  0  0
   11.6249  -15.2554    3.7334 C   0  0  0  0  0  0  0  0  0  0  0  0
   12.8666  -15.5227    0.2089 C   0  0  0  0  0  0  0  0  0  0  0  0
   13.0346  -16.8695    0.2341 O   0  0  0  0  0  0  0  0  0  0  0  0
   13.7948  -17.5017   -0.7727 C   0  0  0  0  0  0  0  0  0  0  0  0
   13.3960  -14.7148   -0.7871 C   0  0  0  0  0  0  0  0  0  0  0  0
   13.2049  -13.3061   -0.8048 C   0  0  0  0  0  0  0  0  0  0  0  0
   14.0392  -10.0471   -5.3993 C   0  0  0  0  0  0  0  0  0  0  0  0
   14.5374  -10.1501   -6.4997 O   0  0  0  0  0  0  0  0  0  0  0  0
   19.3256    1.8953    2.3836 H   0  0  0  0  0  0  0  0  0  0  0  0
   18.8933    2.4505    0.7501 H   0  0  0  0  0  0  0  0  0  0  0  0
   20.3638    1.4851    0.9990 H   0  0  0  0  0  0  0  0  0  0  0  0
   17.4798    0.4658    1.4611 H   0  0  0  0  0  0  0  0  0  0  0  0
   18.9379   -0.4917    1.7046 H   0  0  0  0  0  0  0  0  0  0  0  0
   19.4989   -0.2624   -0.7426 H   0  0  0  0  0  0  0  0  0  0  0  0
   18.0408    0.6968   -0.9871 H   0  0  0  0  0  0  0  0  0  0  0  0
   16.6290   -1.2564   -0.2404 H   0  0  0  0  0  0  0  0  0  0  0  0
   18.0859   -2.2159    0.0076 H   0  0  0  0  0  0  0  0  0  0  0  0
   18.6494   -1.9956   -2.4411 H   0  0  0  0  0  0  0  0  0  0  0  0
   17.1946   -1.0330   -2.6903 H   0  0  0  0  0  0  0  0  0  0  0  0
   15.7757   -2.9787   -1.9414 H   0  0  0  0  0  0  0  0  0  0  0  0
   17.2282   -3.9415   -1.6840 H   0  0  0  0  0  0  0  0  0  0  0  0
   17.8013   -3.7355   -4.1315 H   0  0  0  0  0  0  0  0  0  0  0  0
   16.3511   -2.7686   -4.3907 H   0  0  0  0  0  0  0  0  0  0  0  0
   14.9254   -4.6992   -3.6319 H   0  0  0  0  0  0  0  0  0  0  0  0
   16.3703   -5.6728   -3.3703 H   0  0  0  0  0  0  0  0  0  0  0  0
   16.9699   -5.4410   -5.8090 H   0  0  0  0  0  0  0  0  0  0  0  0
   15.4957   -4.5174   -6.0854 H   0  0  0  0  0  0  0  0  0  0  0  0
   15.5971   -7.4221   -5.0733 H   0  0  0  0  0  0  0  0  0  0  0  0
   15.3581   -6.9572   -6.7535 H   0  0  0  0  0  0  0  0  0  0  0  0
   13.2378   -5.7426   -6.1217 H   0  0  0  0  0  0  0  0  0  0  0  0
   13.4304   -6.2672   -4.4478 H   0  0  0  0  0  0  0  0  0  0  0  0
   13.0904   -8.1441   -6.8603 H   0  0  0  0  0  0  0  0  0  0  0  0
   11.8118   -7.6571   -5.7127 H   0  0  0  0  0  0  0  0  0  0  0  0
   15.7444  -12.1213   -6.0349 H   0  0  0  0  0  0  0  0  0  0  0  0
   17.1954  -14.1375   -5.6397 H   0  0  0  0  0  0  0  0  0  0  0  0
   16.7277  -16.1080   -2.5328 H   0  0  0  0  0  0  0  0  0  0  0  0
   19.7257  -13.1096   -0.4324 H   0  0  0  0  0  0  0  0  0  0  0  0
   21.7133  -11.8593   -1.0590 H   0  0  0  0  0  0  0  0  0  0  0  0
   23.9816  -13.2344   -4.8796 H   0  0  0  0  0  0  0  0  0  0  0  0
   24.4651  -11.5214   -4.8416 H   0  0  0  0  0  0  0  0  0  0  0  0
   22.8932  -11.9826   -5.5338 H   0  0  0  0  0  0  0  0  0  0  0  0
   23.9696  -11.6105   -1.5493 H   0  0  0  0  0  0  0  0  0  0  0  0
   22.9531  -10.2869   -2.1777 H   0  0  0  0  0  0  0  0  0  0  0  0
   24.5216  -10.6425   -2.9367 H   0  0  0  0  0  0  0  0  0  0  0  0
   21.7562  -13.8852   -4.9008 H   0  0  0  0  0  0  0  0  0  0  0  0
   19.7732  -15.1527   -4.2224 H   0  0  0  0  0  0  0  0  0  0  0  0
   16.3831  -14.7674    1.6527 H   0  0  0  0  0  0  0  0  0  0  0  0
   17.1248  -13.1465    1.4434 H   0  0  0  0  0  0  0  0  0  0  0  0
   17.9610  -14.3971    2.4249 H   0  0  0  0  0  0  0  0  0  0  0  0
   15.6974  -13.6713   -0.2950 H   0  0  0  0  0  0  0  0  0  0  0  0
   11.8528   -9.6309   -1.1164 H   0  0  0  0  0  0  0  0  0  0  0  0
   11.2918  -10.9854    0.8991 H   0  0  0  0  0  0  0  0  0  0  0  0
   11.2301  -13.1429    2.0004 H   0  0  0  0  0  0  0  0  0  0  0  0
   10.9413  -17.4790    1.2680 H   0  0  0  0  0  0  0  0  0  0  0  0
   10.0197  -18.7178    3.1415 H   0  0  0  0  0  0  0  0  0  0  0  0
   11.0637  -17.1486    7.3960 H   0  0  0  0  0  0  0  0  0  0  0  0
    9.5837  -18.0604    7.7703 H   0  0  0  0  0  0  0  0  0  0  0  0
    9.4660  -16.4084    7.1187 H   0  0  0  0  0  0  0  0  0  0  0  0
   10.0874  -19.9551    5.0751 H   0  0  0  0  0  0  0  0  0  0  0  0
    8.5022  -19.1708    4.8528 H   0  0  0  0  0  0  0  0  0  0  0  0
    9.0496  -19.6318    6.4824 H   0  0  0  0  0  0  0  0  0  0  0  0
   11.1843  -15.5013    5.8104 H   0  0  0  0  0  0  0  0  0  0  0  0
   12.0917  -14.2836    3.9140 H   0  0  0  0  0  0  0  0  0  0  0  0
   13.8097  -18.5714   -0.5241 H   0  0  0  0  0  0  0  0  0  0  0  0
   14.8313  -17.1226   -0.8007 H   0  0  0  0  0  0  0  0  0  0  0  0
   13.3422  -17.3713   -1.7719 H   0  0  0  0  0  0  0  0  0  0  0  0
   13.9587  -15.1717   -1.5954 H   0  0  0  0  0  0  0  0  0  0  0  0
  1  2  1  0
  1 62  1  0
  1 63  1  0
  1 64  1  0
  2  3  1  0
  2 65  1  0
  2 66  1  0
  3  4  1  0
  3 67  1  0
  3 68  1  0
  4  5  1  0
  4 69  1  0
  4 70  1  0
  5  6  1  0
  5 71  1  0
  5 72  1  0
  6  7  1  0
  6 73  1  0
  6 74  1  0
  7  8  1  0
  7 75  1  0
  7 76  1  0
  8  9  1  0
  8 77  1  0
  8 78  1  0
  9 10  1  0
  9 79  1  0
  9 80  1  0
 10 11  1  0
 10 81  1  0
 10 82  1  0
 11 12  1  0
 11 83  1  0
 11 84  1  0
 12 13  1  0
 12 85  1  0
 12 86  1  0
 13 14  1  0
 13 60  1  0
 14 15  2  0
 14 16  1  0
 16 17  2  0
 16 40  1  0
 17 18  1  0
 17 60  1  0
 18 19  2  0
 18 38  1  0
 19 20  1  0
 19 87  1  0
 20 21  2  0
 20 88  1  0
 21 22  1  0
 21 37  1  0
 22 23  2  0
 22 89  1  0
 23 24  1  0
 23 33  1  0
 24 25  2  0
 24 32  1  0
 25 26  1  0
 25 90  1  0
 26 27  2  0
 26 91  1  0
 27 28  1  0
 27 31  1  0
 28 29  1  0
 28 30  1  0
 29 92  1  0
 29 93  1  0
 29 94  1  0
 30 95  1  0
 30 96  1  0
 30 97  1  0
 31 32  2  0
 31 98  1  0
 32 99  1  0
 33 34  1  0
 33 36  2  0
 34 35  1  0
 35100  1  0
 35101  1  0
 35102  1  0
 36 37  1  0
 36103  1  0
 37 38  2  0
 38 39  1  0
 39 40  2  0
 39 59  1  0
 40 41  1  0
 41 42  2  0
 41104  1  0
 42 43  1  0
 42105  1  0
 43 44  1  0
 43 59  2  0
 44 45  2  0
 44106  1  0
 45 46  1  0
 45 55  1  0
 46 47  2  0
 46 54  1  0
 47 48  1  0
 47107  1  0
 48 49  2  0
 48108  1  0
 49 50  1  0
 49 53  1  0
 50 51  1  0
 50 52  1  0
 51109  1  0
 51110  1  0
 51111  1  0
 52112  1  0
 52113  1  0
 52114  1  0
 53 54  2  0
 53115  1  0
 54116  1  0
 55 56  1  0
 55 58  2  0
 56 57  1  0
 57117  1  0
 57118  1  0
 57119  1  0
 58 59  1  0
 58120  1  0
 60 61  2  0
M  END

