
     RDKit          3D

 73 78  0  0  0  0  0  0  0  0999 V2000
    1.9652   -0.9383    1.7982 C   0  0  0  0  0  0  0  0  0  0  0  0
    3.2589   -0.4340    1.2132 C   0  0  0  0  0  0  0  0  0  0  0  0
    3.5267    0.9220    1.0487 C   0  0  0  0  0  0  0  0  0  0  0  0
    4.7336    1.4414    0.5002 C   0  0  0  0  0  0  0  0  0  0  0  0
    5.6724    0.4667    0.0442 C   0  0  0  0  0  0  0  0  0  0  0  0
    5.4273   -0.8980    0.2057 C   0  0  0  0  0  0  0  0  0  0  0  0
    4.2444   -1.3548    0.7956 C   0  0  0  0  0  0  0  0  0  0  0  0
    3.9804   -2.6798    0.9686 O   0  0  0  0  0  0  0  0  0  0  0  0
    6.8797    0.8221   -0.4943 O   0  0  0  0  0  0  0  0  0  0  0  0
    6.8652    1.3939   -1.8004 C   0  0  0  0  0  0  0  0  0  0  0  0
    5.7847    2.4760   -1.9598 C   0  0  0  0  0  0  0  0  0  0  0  0
    5.7445    3.3718   -0.7458 C   0  0  0  0  0  0  0  0  0  0  0  0
    6.5836    4.5302   -0.6712 C   0  0  0  0  0  0  0  0  0  0  0  0
    6.9136    5.1540    0.5954 C   0  0  0  0  0  0  0  0  0  0  0  0
    7.7142    6.2936    0.6847 C   0  0  0  0  0  0  0  0  0  0  0  0
    8.2085    6.8671   -0.4885 C   0  0  0  0  0  0  0  0  0  0  0  0
    7.9247    6.2728   -1.7538 C   0  0  0  0  0  0  0  0  0  0  0  0
    7.1505    5.1402   -1.8434 C   0  0  0  0  0  0  0  0  0  0  0  0
    8.5669    7.1282   -2.8262 C   0  0  0  0  0  0  0  0  0  0  0  0
    9.5449    8.0171   -2.0186 C   0  0  0  0  0  0  0  0  0  0  0  0
    8.9869    7.9921   -0.6656 N   0  0  0  0  0  0  0  0  0  0  0  0
    4.9752    2.8804    0.3808 C   0  0  0  0  0  0  0  0  0  0  0  0
    4.3594    3.8069    1.3093 C   0  0  0  0  0  0  0  0  0  0  0  0
    4.0938    5.1657    0.9368 C   0  0  0  0  0  0  0  0  0  0  0  0
    3.5429    6.0872    1.8355 C   0  0  0  0  0  0  0  0  0  0  0  0
    3.2772    5.7115    3.1558 C   0  0  0  0  0  0  0  0  0  0  0  0
    2.7734    6.5221    4.1200 O   0  0  0  0  0  0  0  0  0  0  0  0
    2.4848    7.8866    3.8352 C   0  0  1  0  0  0  0  0  0  0  0  0
    3.3557    8.3354    3.3277 H   0  0  0  0  0  0  0  0  0  0  0  0
    1.1716    8.0684    3.0249 C   0  0  0  0  0  0  0  0  0  0  0  0
    0.2878    8.9518    3.9182 C   0  0  0  0  0  0  0  0  0  0  0  0
    0.7501    8.6423    5.2643 N   0  0  0  0  0  0  0  0  0  0  0  0
    0.2395    9.4739    6.3365 C   0  0  0  0  0  0  0  0  0  0  0  0
   -1.2511    9.2595    6.6078 C   0  0  0  0  0  0  0  0  0  0  0  0
   -1.7646   10.0608    7.7888 C   0  0  0  0  0  0  0  0  0  0  0  0
   -1.6233   11.4203    7.5513 F   0  0  0  0  0  0  0  0  0  0  0  0
    2.2012    8.6012    5.1639 C   0  0  0  0  0  0  0  0  0  0  0  0
    3.5573    4.3789    3.5619 C   0  0  0  0  0  0  0  0  0  0  0  0
    4.0742    3.4644    2.6663 C   0  0  0  0  0  0  0  0  0  0  0  0
    1.2963   -0.1050    2.0575 H   0  0  0  0  0  0  0  0  0  0  0  0
    2.1436   -1.5348    2.7087 H   0  0  0  0  0  0  0  0  0  0  0  0
    1.4366   -1.6019    1.0935 H   0  0  0  0  0  0  0  0  0  0  0  0
    2.7506    1.6323    1.3393 H   0  0  0  0  0  0  0  0  0  0  0  0
    6.1945   -1.6000   -0.1338 H   0  0  0  0  0  0  0  0  0  0  0  0
    4.7257   -3.2000    0.6410 H   0  0  0  0  0  0  0  0  0  0  0  0
    6.7288    0.5960   -2.5580 H   0  0  0  0  0  0  0  0  0  0  0  0
    7.8672    1.8291   -1.9320 H   0  0  0  0  0  0  0  0  0  0  0  0
    4.8055    1.9901   -2.0967 H   0  0  0  0  0  0  0  0  0  0  0  0
    5.9894    3.0193   -2.8952 H   0  0  0  0  0  0  0  0  0  0  0  0
    6.6261    4.6481    1.5137 H   0  0  0  0  0  0  0  0  0  0  0  0
    7.9610    6.7128    1.6639 H   0  0  0  0  0  0  0  0  0  0  0  0
    6.9448    4.7186   -2.8287 H   0  0  0  0  0  0  0  0  0  0  0  0
    7.8048    7.7510   -3.3289 H   0  0  0  0  0  0  0  0  0  0  0  0
    9.0788    6.5480   -3.6089 H   0  0  0  0  0  0  0  0  0  0  0  0
    9.6111    9.0460   -2.4060 H   0  0  0  0  0  0  0  0  0  0  0  0
   10.5659    7.5849   -2.0389 H   0  0  0  0  0  0  0  0  0  0  0  0
    9.5199    8.3724    0.1082 H   0  0  0  0  0  0  0  0  0  0  0  0
    4.2231    5.4592   -0.1046 H   0  0  0  0  0  0  0  0  0  0  0  0
    3.3250    7.0959    1.4834 H   0  0  0  0  0  0  0  0  0  0  0  0
    0.7140    7.0783    2.8869 H   0  0  0  0  0  0  0  0  0  0  0  0
    1.3343    8.5094    2.0307 H   0  0  0  0  0  0  0  0  0  0  0  0
   -0.7844    8.7347    3.7953 H   0  0  0  0  0  0  0  0  0  0  0  0
    0.4359   10.0308    3.6710 H   0  0  0  0  0  0  0  0  0  0  0  0
    0.4222   10.5567    6.1443 H   0  0  0  0  0  0  0  0  0  0  0  0
    0.8031    9.2232    7.2525 H   0  0  0  0  0  0  0  0  0  0  0  0
   -1.4328    8.1879    6.8001 H   0  0  0  0  0  0  0  0  0  0  0  0
   -1.8483    9.5295    5.7206 H   0  0  0  0  0  0  0  0  0  0  0  0
   -1.2041    9.8185    8.7105 H   0  0  0  0  0  0  0  0  0  0  0  0
   -2.8338    9.8539    7.9704 H   0  0  0  0  0  0  0  0  0  0  0  0
    2.6577    8.0637    6.0091 H   0  0  0  0  0  0  0  0  0  0  0  0
    2.6434    9.6251    5.1288 H   0  0  0  0  0  0  0  0  0  0  0  0
    3.3685    4.1079    4.6028 H   0  0  0  0  0  0  0  0  0  0  0  0
    4.3157    2.4611    3.0211 H   0  0  0  0  0  0  0  0  0  0  0  0
  1  2  1  0
  1 40  1  0
  1 41  1  0
  1 42  1  0
  2  3  2  0
  2  7  1  0
  3  4  1  0
  3 43  1  0
  4  5  2  0
  4 22  1  0
  5  6  1  0
  5  9  1  0
  6  7  2  0
  6 44  1  0
  7  8  1  0
  8 45  1  0
  9 10  1  0
 10 11  1  0
 10 46  1  0
 10 47  1  0
 11 12  1  0
 11 48  1  0
 11 49  1  0
 12 13  1  0
 12 22  2  0
 13 14  2  0
 13 18  1  0
 14 15  1  0
 14 50  1  0
 15 16  2  0
 15 51  1  0
 16 17  1  0
 16 21  1  0
 17 18  2  0
 17 19  1  0
 18 52  1  0
 19 20  1  0
 19 53  1  0
 19 54  1  0
 20 21  1  0
 20 55  1  0
 20 56  1  0
 21 57  1  0
 22 23  1  0
 23 24  2  0
 23 39  1  0
 24 25  1  0
 24 58  1  0
 25 26  2  0
 25 59  1  0
 26 27  1  0
 26 38  1  0
 27 28  1  0
 28 29  1  6
 28 30  1  0
 28 37  1  0
 30 31  1  0
 30 60  1  0
 30 61  1  0
 31 32  1  0
 31 62  1  0
 31 63  1  0
 32 33  1  0
 32 37  1  0
 33 34  1  0
 33 64  1  0
 33 65  1  0
 34 35  1  0
 34 66  1  0
 34 67  1  0
 35 36  1  0
 35 68  1  0
 35 69  1  0
 37 70  1  0
 37 71  1  0
 38 39  2  0
 38 72  1  0
 39 73  1  0
M  END

