
     RDKit          3D

 42 43  0  0  0  0  0  0  0  0999 V2000
    0.8823    0.2239    0.1852 C   0  0  0  0  0  0  0  0  0  0  0  0
    2.4025    0.0993    0.0181 C   0  0  1  0  0  0  0  0  0  0  0  0
    2.9196    1.1183   -1.0070 C   0  0  0  0  0  0  0  0  0  0  0  0
    3.1067    0.2204    1.3815 C   0  0  0  0  0  0  0  0  0  0  0  0
    4.6089   -0.0648    1.3751 C   0  0  0  0  0  0  0  0  0  0  0  0
    5.1675    0.0268    2.7119 N   0  0  0  0  0  0  0  0  0  0  0  0
    6.6032   -0.2227    2.7802 C   0  0  0  0  0  0  0  0  0  0  0  0
    7.1061   -0.2389    4.1947 C   0  0  0  0  0  0  0  0  0  0  0  0
    6.9484   -1.2591    5.1704 C   0  0  0  0  0  0  0  0  0  0  0  0
    7.5673   -0.7561    6.3020 C   0  0  0  0  0  0  0  0  0  0  0  0
    8.0468    0.4740    5.9738 N   0  0  0  0  0  0  0  0  0  0  0  0
    8.8035    1.3898    6.8195 C   0  0  1  0  0  0  0  0  0  0  0  0
   10.2284    1.6789    6.3162 C   0  0  0  0  0  0  0  0  0  0  0  0
   10.6160    2.9334    7.1047 C   0  0  0  0  0  0  0  0  0  0  0  0
    9.3307    3.7930    7.0934 C   0  0  0  0  0  0  0  0  0  0  0  0
    8.1520    2.7897    6.9677 C   0  0  0  0  0  0  0  0  0  0  0  0
    7.7739    0.7977    4.7015 N   0  0  0  0  0  0  0  0  0  0  0  0
    0.3599    0.0979   -0.7771 H   0  0  0  0  0  0  0  0  0  0  0  0
    0.6100    1.2164    0.5842 H   0  0  0  0  0  0  0  0  0  0  0  0
    0.4884   -0.5332    0.8830 H   0  0  0  0  0  0  0  0  0  0  0  0
    2.6134   -0.9128   -0.3781 H   0  0  0  0  0  0  0  0  0  0  0  0
    2.7635    2.1505   -0.6480 H   0  0  0  0  0  0  0  0  0  0  0  0
    2.3888    1.0170   -1.9677 H   0  0  0  0  0  0  0  0  0  0  0  0
    3.9944    0.9956   -1.2120 H   0  0  0  0  0  0  0  0  0  0  0  0
    2.6241   -0.4826    2.0865 H   0  0  0  0  0  0  0  0  0  0  0  0
    2.9423    1.2291    1.8008 H   0  0  0  0  0  0  0  0  0  0  0  0
    5.1321    0.6738    0.7424 H   0  0  0  0  0  0  0  0  0  0  0  0
    4.7945   -1.0561    0.8935 H   0  0  0  0  0  0  0  0  0  0  0  0
    4.6779   -0.6086    3.3419 H   0  0  0  0  0  0  0  0  0  0  0  0
    7.1285    0.5823    2.2404 H   0  0  0  0  0  0  0  0  0  0  0  0
    6.8923   -1.1787    2.2834 H   0  0  0  0  0  0  0  0  0  0  0  0
    6.4602   -2.2253    5.0614 H   0  0  0  0  0  0  0  0  0  0  0  0
    7.7066   -1.1745    7.2971 H   0  0  0  0  0  0  0  0  0  0  0  0
    8.8635    0.8989    7.8039 H   0  0  0  0  0  0  0  0  0  0  0  0
   10.1771    1.8941    5.2364 H   0  0  0  0  0  0  0  0  0  0  0  0
   10.9111    0.8269    6.4608 H   0  0  0  0  0  0  0  0  0  0  0  0
   11.4880    3.4569    6.6836 H   0  0  0  0  0  0  0  0  0  0  0  0
   10.8786    2.6545    8.1405 H   0  0  0  0  0  0  0  0  0  0  0  0
    9.3407    4.4713    6.2257 H   0  0  0  0  0  0  0  0  0  0  0  0
    9.2518    4.4286    7.9885 H   0  0  0  0  0  0  0  0  0  0  0  0
    7.5533    2.9904    6.0684 H   0  0  0  0  0  0  0  0  0  0  0  0
    7.4694    2.8201    7.8307 H   0  0  0  0  0  0  0  0  0  0  0  0
  1  2  1  0
  1 18  1  0
  1 19  1  0
  1 20  1  0
  2  3  1  0
  2  4  1  0
  2 21  1  6
  3 22  1  0
  3 23  1  0
  3 24  1  0
  4  5  1  0
  4 25  1  0
  4 26  1  0
  5  6  1  0
  5 27  1  0
  5 28  1  0
  6  7  1  0
  6 29  1  0
  7  8  1  0
  7 30  1  0
  7 31  1  0
  8  9  1  0
  8 17  2  0
  9 10  2  0
  9 32  1  0
 10 11  1  0
 10 33  1  0
 11 12  1  0
 11 17  1  0
 12 13  1  0
 12 16  1  0
 12 34  1  1
 13 14  1  0
 13 35  1  0
 13 36  1  0
 14 15  1  0
 14 37  1  0
 14 38  1  0
 15 16  1  0
 15 39  1  0
 15 40  1  0
 16 41  1  0
 16 42  1  0
M  END

