
     RDKit          3D

 43 44  0  0  0  0  0  0  0  0999 V2000
    3.9830   -1.0617   -0.6657 C   0  0  0  0  0  0  0  0  0  0  0  0
    4.1993    0.0815   -1.6561 C   0  0  0  0  0  0  0  0  0  0  0  0
    3.3758    1.2442   -1.3739 N   0  0  0  0  0  0  0  0  0  0  0  0
    2.1983    1.5984   -1.9742 C   0  0  0  0  0  0  0  0  0  0  0  0
    1.7503    2.7276   -1.3042 C   0  0  0  0  0  0  0  0  0  0  0  0
    0.6407    3.4290   -1.6420 O   0  0  0  0  0  0  0  0  0  0  0  0
    0.0750    4.2872   -0.7146 C   0  0  0  0  0  0  0  0  0  0  0  0
   -0.3135    3.7948    0.5727 C   0  0  0  0  0  0  0  0  0  0  0  0
   -1.0127    4.6781    1.4351 C   0  0  0  0  0  0  0  0  0  0  0  0
   -1.2770    5.9824    1.0694 C   0  0  0  0  0  0  0  0  0  0  0  0
   -2.0738    6.8857    1.9720 C   0  0  0  0  0  0  0  0  0  0  0  0
   -3.1837    7.4991    1.2686 N   0  0  0  0  0  0  0  0  0  0  0  0
   -4.1900    8.4259    1.7653 C   0  0  1  0  0  0  0  0  0  0  0  0
   -4.2492    8.4227    3.2958 C   0  0  0  0  0  0  0  0  0  0  0  0
   -3.8054    9.8310    1.2296 C   0  0  0  0  0  0  0  0  0  0  0  0
   -5.5400    7.9878    1.1548 C   0  0  0  0  0  0  0  0  0  0  0  0
   -0.9046    6.5030   -0.2309 C   0  0  0  0  0  0  0  0  0  0  0  0
   -0.1876    5.5893   -1.0840 C   0  0  0  0  0  0  0  0  0  0  0  0
    0.2893    6.1665   -2.6792 Cl  0  0  0  0  0  0  0  0  0  0  0  0
    2.7277    2.9691   -0.3043 C   0  0  0  0  0  0  0  0  0  0  0  0
    3.6969    2.0545   -0.3599 N   0  0  0  0  0  0  0  0  0  0  0  0
    4.6514   -1.9060   -0.8994 H   0  0  0  0  0  0  0  0  0  0  0  0
    2.9432   -1.4238   -0.6982 H   0  0  0  0  0  0  0  0  0  0  0  0
    4.1968   -0.7197    0.3579 H   0  0  0  0  0  0  0  0  0  0  0  0
    3.9743   -0.2404   -2.6848 H   0  0  0  0  0  0  0  0  0  0  0  0
    5.2496    0.4118   -1.6351 H   0  0  0  0  0  0  0  0  0  0  0  0
    1.7803    1.0590   -2.8203 H   0  0  0  0  0  0  0  0  0  0  0  0
   -0.0897    2.7688    0.8570 H   0  0  0  0  0  0  0  0  0  0  0  0
   -1.3735    4.2984    2.3979 H   0  0  0  0  0  0  0  0  0  0  0  0
   -1.4897    7.7520    2.3597 H   0  0  0  0  0  0  0  0  0  0  0  0
   -2.4714    6.3782    2.8656 H   0  0  0  0  0  0  0  0  0  0  0  0
   -3.1163    7.3689    0.2507 H   0  0  0  0  0  0  0  0  0  0  0  0
   -3.2974    8.7402    3.7454 H   0  0  0  0  0  0  0  0  0  0  0  0
   -4.5080    7.4281    3.6883 H   0  0  0  0  0  0  0  0  0  0  0  0
   -5.0263    9.1263    3.6260 H   0  0  0  0  0  0  0  0  0  0  0  0
   -2.8379   10.1583    1.6367 H   0  0  0  0  0  0  0  0  0  0  0  0
   -4.5792   10.5468    1.5416 H   0  0  0  0  0  0  0  0  0  0  0  0
   -3.7470    9.8420    0.1312 H   0  0  0  0  0  0  0  0  0  0  0  0
   -5.8264    6.9851    1.5040 H   0  0  0  0  0  0  0  0  0  0  0  0
   -5.4990    7.9771    0.0550 H   0  0  0  0  0  0  0  0  0  0  0  0
   -6.3197    8.6992    1.4609 H   0  0  0  0  0  0  0  0  0  0  0  0
   -0.7014    7.5753   -0.3641 H   0  0  0  0  0  0  0  0  0  0  0  0
    2.7477    3.7637    0.4388 H   0  0  0  0  0  0  0  0  0  0  0  0
  1  2  1  0
  1 22  1  0
  1 23  1  0
  1 24  1  0
  2  3  1  0
  2 25  1  0
  2 26  1  0
  3  4  1  0
  3 21  1  0
  4  5  2  0
  4 27  1  0
  5  6  1  0
  5 20  1  0
  6  7  1  0
  7  8  2  0
  7 18  1  0
  8  9  1  0
  8 28  1  0
  9 10  2  0
  9 29  1  0
 10 11  1  0
 10 17  1  0
 11 12  1  0
 11 30  1  0
 11 31  1  0
 13 12  1  6
 12 32  1  0
 13 14  1  0
 13 15  1  0
 13 16  1  0
 14 33  1  0
 14 34  1  0
 14 35  1  0
 15 36  1  0
 15 37  1  0
 15 38  1  0
 16 39  1  0
 16 40  1  0
 16 41  1  0
 17 18  2  0
 17 42  1  0
 18 19  1  0
 20 21  2  0
 20 43  1  0
M  END

