
     RDKit          3D

 46 47  0  0  0  0  0  0  0  0999 V2000
    4.8629    2.9812   -4.0210 C   0  0  0  0  0  0  0  0  0  0  0  0
    5.1233    2.2154   -2.7308 C   0  0  1  0  0  0  0  0  0  0  0  0
    4.0201    2.3926   -1.6893 C   0  0  0  0  0  0  0  0  0  0  0  0
    5.2087    0.8246   -3.1021 O   0  0  0  0  0  0  0  0  0  0  0  0
    5.9708   -0.0716   -2.4478 C   0  0  0  0  0  0  0  0  0  0  0  0
    6.7295    0.2475   -1.2806 C   0  0  0  0  0  0  0  0  0  0  0  0
    7.5181   -0.7943   -0.7080 C   0  0  0  0  0  0  0  0  0  0  0  0
    7.4951   -2.0939   -1.2659 C   0  0  0  0  0  0  0  0  0  0  0  0
    6.7253   -2.4234   -2.4218 C   0  0  0  0  0  0  0  0  0  0  0  0
    6.6791   -3.8342   -2.9275 C   0  0  0  0  0  0  0  0  0  0  0  0
    5.7798   -4.7080   -2.1612 N   0  0  0  0  0  0  0  0  0  0  0  0
    6.2318   -5.5791   -1.2283 C   0  0  0  0  0  0  0  0  0  0  0  0
    7.4126   -5.8101   -1.0012 O   0  0  0  0  0  0  0  0  0  0  0  0
    5.1496   -6.3265   -0.4257 C   0  0  1  0  0  0  0  0  0  0  0  0
    5.2399   -7.3829   -0.7358 H   0  0  0  0  0  0  0  0  0  0  0  0
    5.4105   -6.1962    1.0726 C   0  0  0  0  0  0  0  0  0  0  0  0
    3.8634   -5.8251   -0.7888 O   0  0  0  0  0  0  0  0  0  0  0  0
    2.7352   -6.5790   -0.6519 C   0  0  0  0  0  0  0  0  0  0  0  0
    1.5321   -5.9501   -1.0172 C   0  0  0  0  0  0  0  0  0  0  0  0
    0.3250   -6.6398   -0.9299 C   0  0  0  0  0  0  0  0  0  0  0  0
    0.2929   -7.9646   -0.4762 C   0  0  0  0  0  0  0  0  0  0  0  0
    1.4881   -8.5846   -0.1102 C   0  0  0  0  0  0  0  0  0  0  0  0
    2.7095   -7.9043   -0.1917 C   0  0  0  0  0  0  0  0  0  0  0  0
    5.9579   -1.3732   -3.0258 C   0  0  0  0  0  0  0  0  0  0  0  0
    4.7951    4.0599   -3.8126 H   0  0  0  0  0  0  0  0  0  0  0  0
    3.9172    2.6540   -4.4802 H   0  0  0  0  0  0  0  0  0  0  0  0
    5.6756    2.8165   -4.7438 H   0  0  0  0  0  0  0  0  0  0  0  0
    6.0951    2.5204   -2.3113 H   0  0  0  0  0  0  0  0  0  0  0  0
    3.0493    2.0701   -2.0973 H   0  0  0  0  0  0  0  0  0  0  0  0
    3.9428    3.4527   -1.4013 H   0  0  0  0  0  0  0  0  0  0  0  0
    4.2349    1.8002   -0.7876 H   0  0  0  0  0  0  0  0  0  0  0  0
    6.6658    1.2223   -0.8012 H   0  0  0  0  0  0  0  0  0  0  0  0
    8.1296   -0.5936    0.1731 H   0  0  0  0  0  0  0  0  0  0  0  0
    8.0848   -2.8867   -0.7959 H   0  0  0  0  0  0  0  0  0  0  0  0
    7.6697   -4.3088   -2.8607 H   0  0  0  0  0  0  0  0  0  0  0  0
    6.3617   -3.8520   -3.9842 H   0  0  0  0  0  0  0  0  0  0  0  0
    4.7816   -4.5280   -2.1714 H   0  0  0  0  0  0  0  0  0  0  0  0
    6.4396   -6.5166    1.2847 H   0  0  0  0  0  0  0  0  0  0  0  0
    4.7106   -6.8108    1.6574 H   0  0  0  0  0  0  0  0  0  0  0  0
    5.2970   -5.1461    1.3834 H   0  0  0  0  0  0  0  0  0  0  0  0
    1.5700   -4.9162   -1.3670 H   0  0  0  0  0  0  0  0  0  0  0  0
   -0.6015   -6.1369   -1.2192 H   0  0  0  0  0  0  0  0  0  0  0  0
   -0.6544   -8.5038   -0.4074 H   0  0  0  0  0  0  0  0  0  0  0  0
    1.4813   -9.6168    0.2498 H   0  0  0  0  0  0  0  0  0  0  0  0
    3.6249   -8.4143    0.1078 H   0  0  0  0  0  0  0  0  0  0  0  0
    5.4047   -1.5186   -3.9551 H   0  0  0  0  0  0  0  0  0  0  0  0
  1  2  1  0
  1 25  1  0
  1 26  1  0
  1 27  1  0
  2  3  1  0
  2  4  1  0
  2 28  1  1
  3 29  1  0
  3 30  1  0
  3 31  1  0
  4  5  1  0
  5  6  2  0
  5 24  1  0
  6  7  1  0
  6 32  1  0
  7  8  2  0
  7 33  1  0
  8  9  1  0
  8 34  1  0
  9 10  1  0
  9 24  2  0
 10 11  1  0
 10 35  1  0
 10 36  1  0
 11 12  1  0
 11 37  1  0
 12 13  2  0
 12 14  1  0
 14 15  1  6
 14 16  1  0
 14 17  1  0
 16 38  1  0
 16 39  1  0
 16 40  1  0
 17 18  1  0
 18 19  2  0
 18 23  1  0
 19 20  1  0
 19 41  1  0
 20 21  2  0
 20 42  1  0
 21 22  1  0
 21 43  1  0
 22 23  2  0
 22 44  1  0
 23 45  1  0
 24 46  1  0
M  END

