
     RDKit          3D

 43 46  0  0  0  0  0  0  0  0999 V2000
    3.0055    4.4359    5.3485 C   0  0  0  0  0  0  0  0  0  0  0  0
    4.2057    3.7973    5.6739 C   0  0  0  0  0  0  0  0  0  0  0  0
    4.9106    3.0856    4.6992 C   0  0  0  0  0  0  0  0  0  0  0  0
    4.4336    2.9978    3.3808 C   0  0  0  0  0  0  0  0  0  0  0  0
    5.2169    2.2612    2.3198 C   0  0  1  0  0  0  0  0  0  0  0  0
    5.9701    0.9502    2.6856 C   0  0  0  0  0  0  0  0  0  0  0  0
    5.4821    0.3195    1.3369 C   0  0  2  0  0  0  0  0  0  0  0  0
    6.4240    0.2561    0.2343 N   0  0  0  0  0  0  0  0  0  0  0  0
    7.4598   -0.7524    0.3499 C   0  0  0  0  0  0  0  0  0  0  0  0
    8.2671   -0.9153   -0.9230 C   0  0  0  0  0  0  0  0  0  0  0  0
    9.5729   -1.4293   -0.8909 C   0  0  0  0  0  0  0  0  0  0  0  0
   10.2547   -1.5944   -2.0955 C   0  0  0  0  0  0  0  0  0  0  0  0
    9.7360   -1.2842   -3.2851 N   0  0  0  0  0  0  0  0  0  0  0  0
    8.4997   -0.7929   -3.3183 C   0  0  0  0  0  0  0  0  0  0  0  0
    7.9976   -0.4776   -4.6023 N   0  0  0  0  0  0  0  0  0  0  0  0
    8.6927   -0.6127   -5.7962 C   0  0  0  0  0  0  0  0  0  0  0  0
    7.8274   -0.1934   -6.7741 C   0  0  0  0  0  0  0  0  0  0  0  0
    6.6232    0.1951   -6.2266 N   0  0  0  0  0  0  0  0  0  0  0  0
    6.7511    0.0164   -4.9383 C   0  0  0  0  0  0  0  0  0  0  0  0
    7.7220   -0.5889   -2.1663 C   0  0  0  0  0  0  0  0  0  0  0  0
    4.4645    1.4812    1.2038 C   0  0  0  0  0  0  0  0  0  0  0  0
    3.2265    3.6446    3.0683 C   0  0  0  0  0  0  0  0  0  0  0  0
    2.5186    4.3570    4.0406 C   0  0  0  0  0  0  0  0  0  0  0  0
    2.4517    4.9903    6.1104 H   0  0  0  0  0  0  0  0  0  0  0  0
    4.5954    3.8509    6.6940 H   0  0  0  0  0  0  0  0  0  0  0  0
    5.8481    2.5913    4.9685 H   0  0  0  0  0  0  0  0  0  0  0  0
    5.9224    2.9756    1.8572 H   0  0  0  0  0  0  0  0  0  0  0  0
    5.5296    0.4511    3.5627 H   0  0  0  0  0  0  0  0  0  0  0  0
    7.0597    1.0189    2.8336 H   0  0  0  0  0  0  0  0  0  0  0  0
    5.0324   -0.6813    1.4454 H   0  0  0  0  0  0  0  0  0  0  0  0
    6.8388    1.1713    0.0553 H   0  0  0  0  0  0  0  0  0  0  0  0
    6.9628   -1.7175    0.5654 H   0  0  0  0  0  0  0  0  0  0  0  0
    8.1629   -0.5898    1.1959 H   0  0  0  0  0  0  0  0  0  0  0  0
   10.0523   -1.6927    0.0551 H   0  0  0  0  0  0  0  0  0  0  0  0
   11.2758   -1.9928   -2.1020 H   0  0  0  0  0  0  0  0  0  0  0  0
    9.7102   -0.9878   -5.8065 H   0  0  0  0  0  0  0  0  0  0  0  0
    8.0073   -0.1500   -7.8478 H   0  0  0  0  0  0  0  0  0  0  0  0
    5.9837    0.2189   -4.1933 H   0  0  0  0  0  0  0  0  0  0  0  0
    6.7128   -0.1817   -2.2063 H   0  0  0  0  0  0  0  0  0  0  0  0
    3.4522    1.1825    1.5145 H   0  0  0  0  0  0  0  0  0  0  0  0
    4.4032    1.9444    0.2068 H   0  0  0  0  0  0  0  0  0  0  0  0
    2.8336    3.5933    2.0491 H   0  0  0  0  0  0  0  0  0  0  0  0
    1.5804    4.8513    3.7746 H   0  0  0  0  0  0  0  0  0  0  0  0
  1  2  2  0
  1 23  1  0
  1 24  1  0
  2  3  1  0
  2 25  1  0
  3  4  2  0
  3 26  1  0
  4  5  1  0
  4 22  1  0
  5  6  1  0
  5 21  1  0
  5 27  1  6
  6  7  1  0
  6 28  1  0
  6 29  1  0
  7  8  1  0
  7 21  1  0
  7 30  1  1
  8  9  1  0
  8 31  1  0
  9 10  1  0
  9 32  1  0
  9 33  1  0
 10 11  2  0
 10 20  1  0
 11 12  1  0
 11 34  1  0
 12 13  2  0
 12 35  1  0
 13 14  1  0
 14 15  1  0
 14 20  2  0
 15 16  1  0
 15 19  1  0
 16 17  2  0
 16 36  1  0
 17 18  1  0
 17 37  1  0
 18 19  2  0
 19 38  1  0
 20 39  1  0
 21 40  1  0
 21 41  1  0
 22 23  2  0
 22 42  1  0
 23 43  1  0
M  END

