
     RDKit          3D

 58 61  0  0  0  0  0  0  0  0999 V2000
    1.3879    1.4156    1.1059 C   0  0  0  0  0  0  0  0  0  0  0  0
    2.7980    1.0205    0.7384 C   0  0  0  0  0  0  0  0  0  0  0  0
    3.8563    1.1731    1.6398 C   0  0  0  0  0  0  0  0  0  0  0  0
    5.1695    0.8074    1.3112 C   0  0  0  0  0  0  0  0  0  0  0  0
    6.2682    0.9616    2.3356 C   0  0  0  0  0  0  0  0  0  0  0  0
    5.4245    0.2838    0.0277 C   0  0  0  0  0  0  0  0  0  0  0  0
    6.7605   -0.0595   -0.3486 N   0  0  0  0  0  0  0  0  0  0  0  0
    7.7894    0.9461   -0.5806 C   0  0  0  0  0  0  0  0  0  0  0  0
    8.8957    0.1905   -1.3801 C   0  0  2  0  0  0  0  0  0  0  0  0
    8.7311    0.4657   -2.8797 C   0  0  0  0  0  0  0  0  0  0  0  0
    8.0298   -0.2444   -3.5897 O   0  0  0  0  0  0  0  0  0  0  0  0
    9.3664    1.5634   -3.3836 N   0  0  0  0  0  0  0  0  0  0  0  0
    9.2426    1.9016   -4.8007 C   0  0  0  0  0  0  0  0  0  0  0  0
   10.3626    2.9337   -5.0411 C   0  0  1  0  0  0  0  0  0  0  0  0
   11.3087    2.3879   -5.2037 H   0  0  0  0  0  0  0  0  0  0  0  0
   10.1980    3.8547   -6.1452 N   0  0  0  0  0  0  0  0  0  0  0  0
   10.4534    3.6501   -3.6703 C   0  0  2  0  0  0  0  0  0  0  0  0
    9.5739    4.3160   -3.6077 H   0  0  0  0  0  0  0  0  0  0  0  0
   11.6907    4.4902   -3.4354 C   0  0  0  0  0  0  0  0  0  0  0  0
   11.5775    5.8636   -3.1741 C   0  0  0  0  0  0  0  0  0  0  0  0
   12.7099    6.6539   -2.9552 C   0  0  0  0  0  0  0  0  0  0  0  0
   13.9827    6.0800   -2.9940 C   0  0  0  0  0  0  0  0  0  0  0  0
   14.1125    4.7120   -3.2544 C   0  0  0  0  0  0  0  0  0  0  0  0
   12.9780    3.9273   -3.4725 C   0  0  0  0  0  0  0  0  0  0  0  0
   10.2407    2.4995   -2.6675 C   0  0  0  0  0  0  0  0  0  0  0  0
    8.6362   -1.2868   -1.0504 C   0  0  0  0  0  0  0  0  0  0  0  0
    7.1822   -1.3545   -0.5902 C   0  0  0  0  0  0  0  0  0  0  0  0
    6.5158   -2.3548   -0.4409 O   0  0  0  0  0  0  0  0  0  0  0  0
    4.3744    0.1012   -0.9022 C   0  0  0  0  0  0  0  0  0  0  0  0
    4.6184   -0.5108   -2.2579 C   0  0  0  0  0  0  0  0  0  0  0  0
    3.0808    0.4771   -0.5222 C   0  0  0  0  0  0  0  0  0  0  0  0
    1.3311    1.8117    2.1306 H   0  0  0  0  0  0  0  0  0  0  0  0
    0.7008    0.5555    1.0388 H   0  0  0  0  0  0  0  0  0  0  0  0
    0.9980    2.1900    0.4238 H   0  0  0  0  0  0  0  0  0  0  0  0
    3.6564    1.5760    2.6374 H   0  0  0  0  0  0  0  0  0  0  0  0
    5.8505    1.0096    3.3518 H   0  0  0  0  0  0  0  0  0  0  0  0
    6.8502    1.8876    2.1823 H   0  0  0  0  0  0  0  0  0  0  0  0
    6.9766    0.1201    2.2971 H   0  0  0  0  0  0  0  0  0  0  0  0
    8.1964    1.3431    0.3669 H   0  0  0  0  0  0  0  0  0  0  0  0
    7.3742    1.8000   -1.1411 H   0  0  0  0  0  0  0  0  0  0  0  0
    9.8889    0.5155   -1.0425 H   0  0  0  0  0  0  0  0  0  0  0  0
    8.2528    2.3489   -5.0163 H   0  0  0  0  0  0  0  0  0  0  0  0
    9.3274    0.9975   -5.4221 H   0  0  0  0  0  0  0  0  0  0  0  0
    9.2793    4.2993   -6.1176 H   0  0  0  0  0  0  0  0  0  0  0  0
   10.2689    3.3747   -7.0414 H   0  0  0  0  0  0  0  0  0  0  0  0
   10.5852    6.3226   -3.1454 H   0  0  0  0  0  0  0  0  0  0  0  0
   12.5954    7.7224   -2.7553 H   0  0  0  0  0  0  0  0  0  0  0  0
   14.8703    6.6947   -2.8241 H   0  0  0  0  0  0  0  0  0  0  0  0
   15.1040    4.2530   -3.2902 H   0  0  0  0  0  0  0  0  0  0  0  0
   13.1036    2.8605   -3.6793 H   0  0  0  0  0  0  0  0  0  0  0  0
    9.7853    2.8595   -1.7320 H   0  0  0  0  0  0  0  0  0  0  0  0
   11.2053    2.0287   -2.4043 H   0  0  0  0  0  0  0  0  0  0  0  0
    9.2781   -1.6448   -0.2290 H   0  0  0  0  0  0  0  0  0  0  0  0
    8.7707   -1.9537   -1.9114 H   0  0  0  0  0  0  0  0  0  0  0  0
    5.5456   -0.1476   -2.7255 H   0  0  0  0  0  0  0  0  0  0  0  0
    3.7772   -0.3096   -2.9372 H   0  0  0  0  0  0  0  0  0  0  0  0
    4.7339   -1.6029   -2.1623 H   0  0  0  0  0  0  0  0  0  0  0  0
    2.2655    0.3394   -1.2393 H   0  0  0  0  0  0  0  0  0  0  0  0
  1  2  1  0
  1 32  1  0
  1 33  1  0
  1 34  1  0
  2  3  2  0
  2 31  1  0
  3  4  1  0
  3 35  1  0
  4  5  1  0
  4  6  2  0
  5 36  1  0
  5 37  1  0
  5 38  1  0
  6  7  1  0
  6 29  1  0
  7  8  1  0
  7 27  1  0
  8  9  1  0
  8 39  1  0
  8 40  1  0
  9 10  1  0
  9 26  1  0
  9 41  1  1
 10 11  2  0
 10 12  1  0
 12 13  1  0
 12 25  1  0
 13 14  1  0
 13 42  1  0
 13 43  1  0
 14 15  1  6
 14 16  1  0
 14 17  1  0
 16 44  1  0
 16 45  1  0
 17 18  1  6
 17 19  1  0
 17 25  1  0
 19 20  2  0
 19 24  1  0
 20 21  1  0
 20 46  1  0
 21 22  2  0
 21 47  1  0
 22 23  1  0
 22 48  1  0
 23 24  2  0
 23 49  1  0
 24 50  1  0
 25 51  1  0
 25 52  1  0
 26 27  1  0
 26 53  1  0
 26 54  1  0
 27 28  2  0
 29 30  1  0
 29 31  2  0
 30 55  1  0
 30 56  1  0
 30 57  1  0
 31 58  1  0
M  END

