
     RDKit          3D

 47 49  0  0  0  0  0  0  0  0999 V2000
   -0.2395   -1.4272   -1.0995 O   0  0  0  0  0  0  0  0  0  0  0  0
    0.2981   -0.7807   -1.9855 C   0  0  0  0  0  0  0  0  0  0  0  0
    1.6505   -0.8221   -2.2321 N   0  0  0  0  0  0  0  0  0  0  0  0
    2.5499   -1.6698   -1.4779 C   0  0  0  0  0  0  0  0  0  0  0  0
    3.2110   -2.8057   -2.3190 C   0  0  1  0  0  0  0  0  0  0  0  0
    3.9949   -2.1400   -3.4696 C   0  0  0  0  0  0  0  0  0  0  0  0
    5.1032   -1.3169   -3.1838 C   0  0  0  0  0  0  0  0  0  0  0  0
    5.8220   -0.6763   -4.1950 C   0  0  0  0  0  0  0  0  0  0  0  0
    5.4506   -0.8363   -5.5335 C   0  0  0  0  0  0  0  0  0  0  0  0
    4.3527   -1.6412   -5.8394 C   0  0  0  0  0  0  0  0  0  0  0  0
    3.6358   -2.2822   -4.8215 C   0  0  0  0  0  0  0  0  0  0  0  0
    4.1945   -3.5972   -1.4077 C   0  0  0  0  0  0  0  0  0  0  0  0
    3.5098   -4.4221   -0.3077 C   0  0  0  0  0  0  0  0  0  0  0  0
    2.4514   -5.3688   -0.8819 C   0  0  0  0  0  0  0  0  0  0  0  0
    1.4400   -4.6082   -1.7457 C   0  0  0  0  0  0  0  0  0  0  0  0
    2.1359   -3.7903   -2.8435 C   0  0  0  0  0  0  0  0  0  0  0  0
   -0.3875    0.0750   -2.8429 N   0  0  0  0  0  0  0  0  0  0  0  0
   -1.7623    0.3489   -2.8875 C   0  0  0  0  0  0  0  0  0  0  0  0
   -2.7050   -0.2353   -2.0210 C   0  0  0  0  0  0  0  0  0  0  0  0
   -4.0584    0.0897   -2.1387 C   0  0  0  0  0  0  0  0  0  0  0  0
   -4.4906    0.9944   -3.1116 C   0  0  0  0  0  0  0  0  0  0  0  0
   -6.5565    1.4719   -3.2841 I   0  0  0  0  0  0  0  0  0  0  0  0
   -3.5650    1.5842   -3.9765 C   0  0  0  0  0  0  0  0  0  0  0  0
   -2.2139    1.2608   -3.8608 C   0  0  0  0  0  0  0  0  0  0  0  0
    2.0391   -0.3184   -3.0209 H   0  0  0  0  0  0  0  0  0  0  0  0
    1.9581   -2.0849   -0.6536 H   0  0  0  0  0  0  0  0  0  0  0  0
    3.3458   -1.0535   -1.0249 H   0  0  0  0  0  0  0  0  0  0  0  0
    5.4194   -1.1700   -2.1487 H   0  0  0  0  0  0  0  0  0  0  0  0
    6.6792   -0.0498   -3.9343 H   0  0  0  0  0  0  0  0  0  0  0  0
    6.0125   -0.3387   -6.3279 H   0  0  0  0  0  0  0  0  0  0  0  0
    4.0470   -1.7786   -6.8801 H   0  0  0  0  0  0  0  0  0  0  0  0
    2.7861   -2.9048   -5.1012 H   0  0  0  0  0  0  0  0  0  0  0  0
    4.9242   -2.9101   -0.9500 H   0  0  0  0  0  0  0  0  0  0  0  0
    4.7785   -4.2757   -2.0539 H   0  0  0  0  0  0  0  0  0  0  0  0
    3.0400   -3.7526    0.4338 H   0  0  0  0  0  0  0  0  0  0  0  0
    4.2763   -4.9915    0.2447 H   0  0  0  0  0  0  0  0  0  0  0  0
    1.9370   -5.9089   -0.0694 H   0  0  0  0  0  0  0  0  0  0  0  0
    2.9521   -6.1383   -1.4991 H   0  0  0  0  0  0  0  0  0  0  0  0
    0.8213   -3.9445   -1.1189 H   0  0  0  0  0  0  0  0  0  0  0  0
    0.7376   -5.3143   -2.2195 H   0  0  0  0  0  0  0  0  0  0  0  0
    1.3800   -3.2430   -3.4291 H   0  0  0  0  0  0  0  0  0  0  0  0
    2.6252   -4.4902   -3.5431 H   0  0  0  0  0  0  0  0  0  0  0  0
    0.1649    0.5792   -3.5260 H   0  0  0  0  0  0  0  0  0  0  0  0
   -2.3673   -0.9383   -1.2632 H   0  0  0  0  0  0  0  0  0  0  0  0
   -4.7748   -0.3743   -1.4581 H   0  0  0  0  0  0  0  0  0  0  0  0
   -3.8866    2.2936   -4.7410 H   0  0  0  0  0  0  0  0  0  0  0  0
   -1.4960    1.7272   -4.5429 H   0  0  0  0  0  0  0  0  0  0  0  0
  1  2  2  0
  2  3  1  0
  2 17  1  0
  3  4  1  0
  3 25  1  0
  5  4  1  1
  4 26  1  0
  4 27  1  0
  5  6  1  0
  5 12  1  0
  5 16  1  0
  6  7  2  0
  6 11  1  0
  7  8  1  0
  7 28  1  0
  8  9  2  0
  8 29  1  0
  9 10  1  0
  9 30  1  0
 10 11  2  0
 10 31  1  0
 11 32  1  0
 12 13  1  0
 12 33  1  0
 12 34  1  0
 13 14  1  0
 13 35  1  0
 13 36  1  0
 14 15  1  0
 14 37  1  0
 14 38  1  0
 15 16  1  0
 15 39  1  0
 15 40  1  0
 16 41  1  0
 16 42  1  0
 17 18  1  0
 17 43  1  0
 18 19  2  0
 18 24  1  0
 19 20  1  0
 19 44  1  0
 20 21  2  0
 20 45  1  0
 21 22  1  0
 21 23  1  0
 23 24  2  0
 23 46  1  0
 24 47  1  0
M  END

