
     RDKit          3D

 42 44  0  0  0  0  0  0  0  0999 V2000
    2.4665    1.5364    1.9553 N   0  0  0  0  0  0  0  0  0  0  0  0
    3.6915    1.4307    1.3054 C   0  0  0  0  0  0  0  0  0  0  0  0
    4.7198    1.2563    1.9558 O   0  0  0  0  0  0  0  0  0  0  0  0
    3.6782    1.5675   -0.1634 C   0  0  0  0  0  0  0  0  0  0  0  0
    2.5406    1.9568   -0.9260 C   0  0  0  0  0  0  0  0  0  0  0  0
    2.5904    2.0619   -2.2985 C   0  0  0  0  0  0  0  0  0  0  0  0
    3.8012    1.7867   -3.0249 C   0  0  0  0  0  0  0  0  0  0  0  0
    3.7944    1.9124   -4.4346 C   0  0  0  0  0  0  0  0  0  0  0  0
    2.8362    2.2334   -5.1792 O   0  0  0  0  0  0  0  0  0  0  0  0
    5.0874    1.6423   -5.1399 N   0  0  0  0  0  0  0  0  0  0  0  0
    5.0824    0.5112   -6.0132 C   0  0  0  0  0  0  0  0  0  0  0  0
    4.3777    0.8388   -7.3886 C   0  0  0  0  0  0  0  0  0  0  0  0
    5.0479    1.9834   -7.9863 N   0  0  0  0  0  0  0  0  0  0  0  0
    5.8760    1.8871   -9.0809 C   0  0  0  0  0  0  0  0  0  0  0  0
    5.7622    0.7965   -9.9937 C   0  0  0  0  0  0  0  0  0  0  0  0
    6.5860    0.6995  -11.1026 C   0  0  0  0  0  0  0  0  0  0  0  0
    7.5474    1.6880  -11.3339 C   0  0  0  0  0  0  0  0  0  0  0  0
    8.3371    1.5942  -12.3968 F   0  0  0  0  0  0  0  0  0  0  0  0
    7.6860    2.7781  -10.4692 C   0  0  0  0  0  0  0  0  0  0  0  0
    6.8595    2.8810   -9.3625 C   0  0  0  0  0  0  0  0  0  0  0  0
    5.0018    3.1427   -7.1095 C   0  0  0  0  0  0  0  0  0  0  0  0
    5.6980    2.7881   -5.7423 C   0  0  0  0  0  0  0  0  0  0  0  0
    4.9512    1.4116   -2.2459 C   0  0  0  0  0  0  0  0  0  0  0  0
    4.8827    1.3141   -0.8741 C   0  0  0  0  0  0  0  0  0  0  0  0
    2.4989    1.2659    2.9318 H   0  0  0  0  0  0  0  0  0  0  0  0
    1.6230    1.2766    1.4593 H   0  0  0  0  0  0  0  0  0  0  0  0
    1.6055    2.2114   -0.4194 H   0  0  0  0  0  0  0  0  0  0  0  0
    1.7116    2.3705   -2.8669 H   0  0  0  0  0  0  0  0  0  0  0  0
    4.5449   -0.3274   -5.5514 H   0  0  0  0  0  0  0  0  0  0  0  0
    6.1150    0.1848   -6.2373 H   0  0  0  0  0  0  0  0  0  0  0  0
    3.3424    1.1145   -7.1538 H   0  0  0  0  0  0  0  0  0  0  0  0
    4.4155   -0.0367   -8.0428 H   0  0  0  0  0  0  0  0  0  0  0  0
    4.9967    0.0368   -9.8518 H   0  0  0  0  0  0  0  0  0  0  0  0
    6.4883   -0.1277  -11.8071 H   0  0  0  0  0  0  0  0  0  0  0  0
    8.4484    3.5308  -10.6753 H   0  0  0  0  0  0  0  0  0  0  0  0
    6.9975    3.7283   -8.6951 H   0  0  0  0  0  0  0  0  0  0  0  0
    3.9490    3.3422   -6.8722 H   0  0  0  0  0  0  0  0  0  0  0  0
    5.4537    4.0195   -7.5821 H   0  0  0  0  0  0  0  0  0  0  0  0
    5.6162    3.6579   -5.0774 H   0  0  0  0  0  0  0  0  0  0  0  0
    6.7696    2.6001   -5.9418 H   0  0  0  0  0  0  0  0  0  0  0  0
    5.8934    1.2028   -2.7541 H   0  0  0  0  0  0  0  0  0  0  0  0
    5.7601    1.0339   -0.2878 H   0  0  0  0  0  0  0  0  0  0  0  0
  1  2  1  0
  1 25  1  0
  1 26  1  0
  2  3  2  0
  2  4  1  0
  4  5  2  0
  4 24  1  0
  5  6  1  0
  5 27  1  0
  6  7  2  0
  6 28  1  0
  7  8  1  0
  7 23  1  0
  8  9  2  0
  8 10  1  0
 10 11  1  0
 10 22  1  0
 11 12  1  0
 11 29  1  0
 11 30  1  0
 12 13  1  0
 12 31  1  0
 12 32  1  0
 13 14  1  0
 13 21  1  0
 14 15  2  0
 14 20  1  0
 15 16  1  0
 15 33  1  0
 16 17  2  0
 16 34  1  0
 17 18  1  0
 17 19  1  0
 19 20  2  0
 19 35  1  0
 20 36  1  0
 21 22  1  0
 21 37  1  0
 21 38  1  0
 22 39  1  0
 22 40  1  0
 23 24  2  0
 23 41  1  0
 24 42  1  0
M  END

