
     RDKit          3D

 72 75  0  0  0  0  0  0  0  0999 V2000
   -0.1228    1.0103    2.7648 C   0  0  0  0  0  0  0  0  0  0  0  0
    0.7947    0.6871    1.5724 C   0  0  0  0  0  0  0  0  0  0  0  0
    2.1909    1.2538    1.7349 C   0  0  0  0  0  0  0  0  0  0  0  0
    2.4158    2.6122    1.4686 C   0  0  0  0  0  0  0  0  0  0  0  0
    3.6718    3.1860    1.6600 C   0  0  0  0  0  0  0  0  0  0  0  0
    4.7261    2.4074    2.1353 C   0  0  0  0  0  0  0  0  0  0  0  0
    4.5527    1.0442    2.4161 C   0  0  0  0  0  0  0  0  0  0  0  0
    5.7102    0.2524    2.9909 C   0  0  0  0  0  0  0  0  0  0  0  0
    5.8897    0.4708    4.5036 C   0  0  0  0  0  0  0  0  0  0  0  0
    3.2794    0.4842    2.1909 C   0  0  0  0  0  0  0  0  0  0  0  0
    3.0841   -0.9374    2.4353 N   0  0  0  0  0  0  0  0  0  0  0  0
    3.3038   -1.8509    1.4259 C   0  0  0  0  0  0  0  0  0  0  0  0
    3.7321   -1.3061    0.0931 C   0  0  0  0  0  0  0  0  0  0  0  0
    3.1010   -3.2062    1.6867 C   0  0  0  0  0  0  0  0  0  0  0  0
    3.3262   -4.2687    0.6386 C   0  0  0  0  0  0  0  0  0  0  0  0
    4.1928   -4.1918   -0.2227 O   0  0  0  0  0  0  0  0  0  0  0  0
    2.4851   -5.3466    0.7302 N   0  0  0  0  0  0  0  0  0  0  0  0
    2.5589   -6.4801   -0.1759 C   0  0  0  0  0  0  0  0  0  0  0  0
    3.0983   -7.7958    0.4457 C   0  0  1  0  0  0  0  0  0  0  0  0
    2.1731   -8.2645    1.5833 C   0  0  0  0  0  0  0  0  0  0  0  0
    3.1158   -8.8541   -0.6714 C   0  0  0  0  0  0  0  0  0  0  0  0
    4.5235   -7.5849    0.9846 C   0  0  0  0  0  0  0  0  0  0  0  0
    2.7048   -3.5924    2.9933 C   0  0  0  0  0  0  0  0  0  0  0  0
    2.4952   -2.6881    4.0095 C   0  0  0  0  0  0  0  0  0  0  0  0
    2.1093   -3.1361    5.3466 C   0  0  0  0  0  0  0  0  0  0  0  0
    1.9550   -4.3971    5.6635 N   0  0  0  0  0  0  0  0  0  0  0  0
    1.5897   -4.5730    6.9733 C   0  0  0  0  0  0  0  0  0  0  0  0
    1.3826   -5.9394    7.4983 C   0  0  0  0  0  0  0  0  0  0  0  0
    0.9593   -6.1744    8.8197 C   0  0  0  0  0  0  0  0  0  0  0  0
    0.7752   -7.4689    9.3027 C   0  0  0  0  0  0  0  0  0  0  0  0
    1.0144   -8.5582    8.4592 C   0  0  0  0  0  0  0  0  0  0  0  0
    0.7868  -10.1859    9.0588 Cl  0  0  0  0  0  0  0  0  0  0  0  0
    1.4335   -8.3545    7.1418 C   0  0  0  0  0  0  0  0  0  0  0  0
    1.6137   -7.0540    6.6718 C   0  0  0  0  0  0  0  0  0  0  0  0
    1.4599   -3.3911    7.6784 C   0  0  0  0  0  0  0  0  0  0  0  0
    1.8050   -2.0293    6.6810 S   0  0  0  0  0  0  0  0  0  0  0  0
    2.6695   -1.2716    3.7511 C   0  0  0  0  0  0  0  0  0  0  0  0
    2.4917   -0.3855    4.5823 O   0  0  0  0  0  0  0  0  0  0  0  0
   -1.1218    0.5693    2.6179 H   0  0  0  0  0  0  0  0  0  0  0  0
   -0.2480    2.0987    2.8813 H   0  0  0  0  0  0  0  0  0  0  0  0
    0.3002    0.6222    3.7029 H   0  0  0  0  0  0  0  0  0  0  0  0
    0.3521    1.1004    0.6501 H   0  0  0  0  0  0  0  0  0  0  0  0
    0.8354   -0.4036    1.4311 H   0  0  0  0  0  0  0  0  0  0  0  0
    1.5864    3.2245    1.1036 H   0  0  0  0  0  0  0  0  0  0  0  0
    3.8294    4.2447    1.4390 H   0  0  0  0  0  0  0  0  0  0  0  0
    5.7094    2.8591    2.2932 H   0  0  0  0  0  0  0  0  0  0  0  0
    6.6343    0.5522    2.4685 H   0  0  0  0  0  0  0  0  0  0  0  0
    5.5811   -0.8222    2.7921 H   0  0  0  0  0  0  0  0  0  0  0  0
    6.1015    1.5288    4.7261 H   0  0  0  0  0  0  0  0  0  0  0  0
    6.7308   -0.1299    4.8853 H   0  0  0  0  0  0  0  0  0  0  0  0
    4.9795    0.1917    5.0544 H   0  0  0  0  0  0  0  0  0  0  0  0
    4.6914   -0.7742    0.1880 H   0  0  0  0  0  0  0  0  0  0  0  0
    3.0030   -0.5707   -0.2793 H   0  0  0  0  0  0  0  0  0  0  0  0
    3.8646   -2.1175   -0.6264 H   0  0  0  0  0  0  0  0  0  0  0  0
    1.7170   -5.3043    1.3873 H   0  0  0  0  0  0  0  0  0  0  0  0
    3.2095   -6.1716   -1.0067 H   0  0  0  0  0  0  0  0  0  0  0  0
    1.5527   -6.6676   -0.5907 H   0  0  0  0  0  0  0  0  0  0  0  0
    1.1427   -8.4270    1.2242 H   0  0  0  0  0  0  0  0  0  0  0  0
    2.1364   -7.5310    2.4057 H   0  0  0  0  0  0  0  0  0  0  0  0
    2.5291   -9.2150    2.0124 H   0  0  0  0  0  0  0  0  0  0  0  0
    2.1076   -9.0194   -1.0872 H   0  0  0  0  0  0  0  0  0  0  0  0
    3.4818   -9.8212   -0.2908 H   0  0  0  0  0  0  0  0  0  0  0  0
    3.7753   -8.5486   -1.5003 H   0  0  0  0  0  0  0  0  0  0  0  0
    4.5398   -6.8379    1.7935 H   0  0  0  0  0  0  0  0  0  0  0  0
    5.2029   -7.2316    0.1932 H   0  0  0  0  0  0  0  0  0  0  0  0
    4.9288   -8.5257    1.3913 H   0  0  0  0  0  0  0  0  0  0  0  0
    2.5809   -4.6488    3.2389 H   0  0  0  0  0  0  0  0  0  0  0  0
    0.7647   -5.3361    9.4918 H   0  0  0  0  0  0  0  0  0  0  0  0
    0.4464   -7.6390   10.3292 H   0  0  0  0  0  0  0  0  0  0  0  0
    1.6176   -9.2124    6.4928 H   0  0  0  0  0  0  0  0  0  0  0  0
    1.9427   -6.8838    5.6461 H   0  0  0  0  0  0  0  0  0  0  0  0
    1.1886   -3.2560    8.7231 H   0  0  0  0  0  0  0  0  0  0  0  0
  1  2  1  0
  1 39  1  0
  1 40  1  0
  1 41  1  0
  2  3  1  0
  2 42  1  0
  2 43  1  0
  3  4  2  0
  3 10  1  0
  4  5  1  0
  4 44  1  0
  5  6  2  0
  5 45  1  0
  6  7  1  0
  6 46  1  0
  7  8  1  0
  7 10  2  0
  8  9  1  0
  8 47  1  0
  8 48  1  0
  9 49  1  0
  9 50  1  0
  9 51  1  0
 10 11  1  0
 11 12  1  0
 11 37  1  0
 12 13  1  0
 12 14  2  0
 13 52  1  0
 13 53  1  0
 13 54  1  0
 14 15  1  0
 14 23  1  0
 15 16  2  0
 15 17  1  0
 17 18  1  0
 17 55  1  0
 19 18  1  6
 18 56  1  0
 18 57  1  0
 19 20  1  0
 19 21  1  0
 19 22  1  0
 20 58  1  0
 20 59  1  0
 20 60  1  0
 21 61  1  0
 21 62  1  0
 21 63  1  0
 22 64  1  0
 22 65  1  0
 22 66  1  0
 23 24  2  0
 23 67  1  0
 24 25  1  0
 24 37  1  0
 25 26  2  0
 25 36  1  0
 26 27  1  0
 27 28  1  0
 27 35  2  0
 28 29  2  0
 28 34  1  0
 29 30  1  0
 29 68  1  0
 30 31  2  0
 30 69  1  0
 31 32  1  0
 31 33  1  0
 33 34  2  0
 33 70  1  0
 34 71  1  0
 35 36  1  0
 35 72  1  0
 37 38  2  0
M  END

