
     RDKit          3D

 47 49  0  0  0  0  0  0  0  0999 V2000
    0.9732    0.2760   -0.3842 N   0  0  0  0  0  0  0  0  0  0  0  0
    2.1047    0.2498   -0.1338 C   0  0  0  0  0  0  0  0  0  0  0  0
    3.5561    0.1955    0.1500 C   0  0  1  0  0  0  0  0  0  0  0  0
    3.7952    0.6427    1.6068 C   0  0  0  0  0  0  0  0  0  0  0  0
    2.9068    0.2307    2.6153 C   0  0  0  0  0  0  0  0  0  0  0  0
    3.1307    0.5618    3.9527 C   0  0  0  0  0  0  0  0  0  0  0  0
    4.2512    1.3163    4.3127 C   0  0  0  0  0  0  0  0  0  0  0  0
    5.1392    1.7358    3.3211 C   0  0  0  0  0  0  0  0  0  0  0  0
    4.9131    1.4035    1.9808 C   0  0  0  0  0  0  0  0  0  0  0  0
    4.0380   -1.2818   -0.0290 C   0  0  0  0  0  0  0  0  0  0  0  0
    3.8746   -1.7995   -1.4630 C   0  0  0  0  0  0  0  0  0  0  0  0
    4.5797   -0.8998   -2.5053 C   0  0  2  0  0  0  0  0  0  0  0  0
    6.0430   -0.9565   -2.4910 N   0  0  0  0  0  0  0  0  0  0  0  0
    6.6538   -2.2012   -2.9221 C   0  0  0  0  0  0  0  0  0  0  0  0
    8.1546   -2.0782   -3.1089 C   0  0  0  0  0  0  0  0  0  0  0  0
    8.9967   -3.1775   -2.8750 C   0  0  0  0  0  0  0  0  0  0  0  0
   10.3701   -3.0880   -3.0907 C   0  0  0  0  0  0  0  0  0  0  0  0
   10.9446   -1.8836   -3.5248 C   0  0  0  0  0  0  0  0  0  0  0  0
   12.4321   -1.8537   -3.7396 C   0  0  0  0  0  0  0  0  0  0  0  0
   13.1043   -2.8465   -3.8367 O   0  0  0  0  0  0  0  0  0  0  0  0
   13.0079   -0.6310   -3.8155 O   0  0  0  0  0  0  0  0  0  0  0  0
   10.1048   -0.7838   -3.7651 C   0  0  0  0  0  0  0  0  0  0  0  0
    8.7281   -0.8797   -3.5596 C   0  0  0  0  0  0  0  0  0  0  0  0
    4.1009    0.5527   -2.3381 C   0  0  0  0  0  0  0  0  0  0  0  0
    4.2798    1.0777   -0.9071 C   0  0  0  0  0  0  0  0  0  0  0  0
    2.0184   -0.3480    2.3502 H   0  0  0  0  0  0  0  0  0  0  0  0
    2.4217    0.2318    4.7163 H   0  0  0  0  0  0  0  0  0  0  0  0
    4.4272    1.5793    5.3587 H   0  0  0  0  0  0  0  0  0  0  0  0
    6.0164    2.3316    3.5861 H   0  0  0  0  0  0  0  0  0  0  0  0
    5.6259    1.7508    1.2324 H   0  0  0  0  0  0  0  0  0  0  0  0
    3.4996   -1.9295    0.6796 H   0  0  0  0  0  0  0  0  0  0  0  0
    5.0980   -1.3087    0.2766 H   0  0  0  0  0  0  0  0  0  0  0  0
    2.8011   -1.8549   -1.7107 H   0  0  0  0  0  0  0  0  0  0  0  0
    4.2550   -2.8323   -1.5248 H   0  0  0  0  0  0  0  0  0  0  0  0
    4.2756   -1.2422   -3.5096 H   0  0  0  0  0  0  0  0  0  0  0  0
    6.4243   -0.6723   -1.5901 H   0  0  0  0  0  0  0  0  0  0  0  0
    6.2019   -2.4721   -3.8956 H   0  0  0  0  0  0  0  0  0  0  0  0
    6.4550   -3.0672   -2.2546 H   0  0  0  0  0  0  0  0  0  0  0  0
    8.5674   -4.1188   -2.5194 H   0  0  0  0  0  0  0  0  0  0  0  0
   11.0262   -3.9438   -2.9211 H   0  0  0  0  0  0  0  0  0  0  0  0
   12.3679    0.0582   -3.5907 H   0  0  0  0  0  0  0  0  0  0  0  0
   10.5091    0.1586   -4.1485 H   0  0  0  0  0  0  0  0  0  0  0  0
    8.0763   -0.0242   -3.7455 H   0  0  0  0  0  0  0  0  0  0  0  0
    3.0363    0.6126   -2.6185 H   0  0  0  0  0  0  0  0  0  0  0  0
    4.6571    1.1956   -3.0376 H   0  0  0  0  0  0  0  0  0  0  0  0
    3.9253    2.1172   -0.8279 H   0  0  0  0  0  0  0  0  0  0  0  0
    5.3529    1.0957   -0.6604 H   0  0  0  0  0  0  0  0  0  0  0  0
  1  2  3  0
  3  2  1  6
  3  4  1  0
  3 10  1  0
  3 25  1  0
  4  5  2  0
  4  9  1  0
  5  6  1  0
  5 26  1  0
  6  7  2  0
  6 27  1  0
  7  8  1  0
  7 28  1  0
  8  9  2  0
  8 29  1  0
  9 30  1  0
 10 11  1  0
 10 31  1  0
 10 32  1  0
 11 12  1  0
 11 33  1  0
 11 34  1  0
 12 13  1  0
 12 24  1  0
 12 35  1  6
 13 14  1  0
 13 36  1  0
 14 15  1  0
 14 37  1  0
 14 38  1  0
 15 16  2  0
 15 23  1  0
 16 17  1  0
 16 39  1  0
 17 18  2  0
 17 40  1  0
 18 19  1  0
 18 22  1  0
 19 20  2  0
 19 21  1  0
 21 41  1  0
 22 23  2  0
 22 42  1  0
 23 43  1  0
 24 25  1  0
 24 44  1  0
 24 45  1  0
 25 46  1  0
 25 47  1  0
M  END

