
     RDKit          3D

 53 56  0  0  0  0  0  0  0  0999 V2000
    3.1411    0.4895   -2.1181 C   0  0  0  0  0  0  0  0  0  0  0  0
    2.4853   -0.5178   -1.3831 O   0  0  0  0  0  0  0  0  0  0  0  0
    3.1864   -1.2695   -0.4949 C   0  0  0  0  0  0  0  0  0  0  0  0
    4.5483   -1.0706   -0.2244 C   0  0  0  0  0  0  0  0  0  0  0  0
    5.2230   -1.8806    0.6950 C   0  0  0  0  0  0  0  0  0  0  0  0
    4.5231   -2.8926    1.3372 C   0  0  0  0  0  0  0  0  0  0  0  0
    5.1550   -3.6759    2.2289 F   0  0  0  0  0  0  0  0  0  0  0  0
    3.1731   -3.1126    1.0788 C   0  0  0  0  0  0  0  0  0  0  0  0
    2.4763   -2.3092    0.1638 C   0  0  0  0  0  0  0  0  0  0  0  0
    1.0340   -2.5681   -0.0884 C   0  0  0  0  0  0  0  0  0  0  0  0
    0.0721   -1.5485   -0.0780 C   0  0  0  0  0  0  0  0  0  0  0  0
   -1.2929   -1.8350   -0.2660 C   0  0  0  0  0  0  0  0  0  0  0  0
   -1.7821   -3.0593   -0.4724 N   0  0  0  0  0  0  0  0  0  0  0  0
   -0.8677   -4.0206   -0.4920 C   0  0  0  0  0  0  0  0  0  0  0  0
   -1.1257   -5.3529   -0.7023 N   0  0  0  0  0  0  0  0  0  0  0  0
   -2.0495   -5.7167   -0.8942 H   0  0  0  0  0  0  0  0  0  0  0  0
    0.0615   -6.0715   -0.6934 C   0  0  0  0  0  0  0  0  0  0  0  0
    0.0713   -7.5228   -0.9093 C   0  0  0  0  0  0  0  0  0  0  0  0
    1.2061   -8.1987   -1.1902 C   0  0  0  0  0  0  0  0  0  0  0  0
    1.2592   -9.6917   -1.4034 C   0  0  0  0  0  0  0  0  0  0  0  0
   -0.0482  -10.3145   -1.6192 N   0  0  0  0  0  0  0  0  0  0  0  0
   -0.4882  -10.3173   -3.0187 C   0  0  0  0  0  0  0  0  0  0  0  0
    0.1289  -11.5112   -3.7575 C   0  0  1  0  0  0  0  0  0  0  0  0
   -0.0566  -12.6824   -2.9871 O   0  0  0  0  0  0  0  0  0  0  0  0
   -0.4934  -11.7782   -5.1230 C   0  0  0  0  0  0  0  0  0  0  0  0
    0.0668  -12.9233   -5.7152 O   0  0  0  0  0  0  0  0  0  0  0  0
   -1.0262   -9.7841   -0.6720 C   0  0  0  0  0  0  0  0  0  0  0  0
   -1.2481   -8.2703   -0.8128 C   0  0  0  0  0  0  0  0  0  0  0  0
    1.1046   -5.1879   -0.4496 C   0  0  0  0  0  0  0  0  0  0  0  0
    0.5439   -3.8781   -0.3165 C   0  0  0  0  0  0  0  0  0  0  0  0
    2.3854    0.9342   -2.7794 H   0  0  0  0  0  0  0  0  0  0  0  0
    3.9608    0.0803   -2.7361 H   0  0  0  0  0  0  0  0  0  0  0  0
    3.5509    1.2793   -1.4625 H   0  0  0  0  0  0  0  0  0  0  0  0
    5.1012   -0.2789   -0.7291 H   0  0  0  0  0  0  0  0  0  0  0  0
    6.2815   -1.7282    0.9141 H   0  0  0  0  0  0  0  0  0  0  0  0
    2.6559   -3.9090    1.6157 H   0  0  0  0  0  0  0  0  0  0  0  0
    0.3780   -0.5151    0.0844 H   0  0  0  0  0  0  0  0  0  0  0  0
   -2.0211   -1.0164   -0.2427 H   0  0  0  0  0  0  0  0  0  0  0  0
    2.1575   -7.6618   -1.2536 H   0  0  0  0  0  0  0  0  0  0  0  0
    1.7474  -10.1670   -0.5285 H   0  0  0  0  0  0  0  0  0  0  0  0
    1.9150   -9.9249   -2.2581 H   0  0  0  0  0  0  0  0  0  0  0  0
   -0.2605   -9.3714   -3.5509 H   0  0  0  0  0  0  0  0  0  0  0  0
   -1.5837  -10.4420   -3.0250 H   0  0  0  0  0  0  0  0  0  0  0  0
    1.2137  -11.3292   -3.9173 H   0  0  0  0  0  0  0  0  0  0  0  0
    0.0335  -12.3816   -2.0639 H   0  0  0  0  0  0  0  0  0  0  0  0
   -0.3110  -10.9261   -5.7994 H   0  0  0  0  0  0  0  0  0  0  0  0
   -1.5930  -11.8769   -4.9950 H   0  0  0  0  0  0  0  0  0  0  0  0
    0.0540  -13.6071   -5.0285 H   0  0  0  0  0  0  0  0  0  0  0  0
   -0.6600  -10.0009    0.3463 H   0  0  0  0  0  0  0  0  0  0  0  0
   -1.9765  -10.3278   -0.7911 H   0  0  0  0  0  0  0  0  0  0  0  0
   -1.8279   -7.9061    0.0532 H   0  0  0  0  0  0  0  0  0  0  0  0
   -1.8669   -8.0600   -1.7061 H   0  0  0  0  0  0  0  0  0  0  0  0
    2.1531   -5.4612   -0.3685 H   0  0  0  0  0  0  0  0  0  0  0  0
  1  2  1  0
  1 31  1  0
  1 32  1  0
  1 33  1  0
  2  3  1  0
  3  4  2  0
  3  9  1  0
  4  5  1  0
  4 34  1  0
  5  6  2  0
  5 35  1  0
  6  7  1  0
  6  8  1  0
  8  9  2  0
  8 36  1  0
  9 10  1  0
 10 11  2  0
 10 30  1  0
 11 12  1  0
 11 37  1  0
 12 13  2  0
 12 38  1  0
 13 14  1  0
 14 15  1  0
 14 30  2  0
 15 16  1  0
 15 17  1  0
 17 18  1  0
 17 29  2  0
 18 19  2  0
 18 28  1  0
 19 20  1  0
 19 39  1  0
 20 21  1  0
 20 40  1  0
 20 41  1  0
 21 22  1  0
 21 27  1  0
 22 23  1  0
 22 42  1  0
 22 43  1  0
 23 24  1  0
 23 25  1  0
 23 44  1  6
 24 45  1  0
 25 26  1  0
 25 46  1  0
 25 47  1  0
 26 48  1  0
 27 28  1  0
 27 49  1  0
 27 50  1  0
 28 51  1  0
 28 52  1  0
 29 30  1  0
 29 53  1  0
M  END

