
     RDKit          3D

 33 34  0  0  0  0  0  0  0  0999 V2000
    1.3377   -0.4955    2.9787 C   0  0  0  0  0  0  0  0  0  0  0  0
    2.8334   -0.4186    2.6692 C   0  0  0  0  0  0  0  0  0  0  0  0
    3.2050   -0.8844    1.2509 C   0  0  1  0  0  0  0  0  0  0  0  0
    2.6120   -0.0325    0.1282 C   0  0  0  0  0  0  0  0  0  0  0  0
    4.6807   -0.9549    1.1186 N   0  0  0  0  0  0  0  0  0  0  0  0
    5.3193    0.2059    1.1665 N   0  0  0  0  0  0  0  0  0  0  0  0
    6.6279    0.2578    1.0717 C   0  0  0  0  0  0  0  0  0  0  0  0
    7.2615    1.6026    1.1351 C   0  0  0  0  0  0  0  0  0  0  0  0
    6.4788    2.7658    1.0048 C   0  0  0  0  0  0  0  0  0  0  0  0
    7.0661    4.0275    1.0690 C   0  0  0  0  0  0  0  0  0  0  0  0
    8.4443    4.1702    1.2647 C   0  0  0  0  0  0  0  0  0  0  0  0
    9.2191    3.0172    1.3969 C   0  0  0  0  0  0  0  0  0  0  0  0
   11.1014    3.1743    1.6732 Br  0  0  0  0  0  0  0  0  0  0  0  0
    8.6464    1.7450    1.3348 C   0  0  0  0  0  0  0  0  0  0  0  0
    7.3869   -0.9534    0.9050 C   0  0  0  0  0  0  0  0  0  0  0  0
    6.7407   -2.1474    0.8602 C   0  0  0  0  0  0  0  0  0  0  0  0
    5.2922   -2.2281    0.9827 C   0  0  0  0  0  0  0  0  0  0  0  0
    4.6353   -3.2573    0.9678 O   0  0  0  0  0  0  0  0  0  0  0  0
    1.1455   -0.2324    4.0307 H   0  0  0  0  0  0  0  0  0  0  0  0
    0.9446   -1.5127    2.8144 H   0  0  0  0  0  0  0  0  0  0  0  0
    0.7474    0.1958    2.3568 H   0  0  0  0  0  0  0  0  0  0  0  0
    3.3843   -1.0513    3.3859 H   0  0  0  0  0  0  0  0  0  0  0  0
    3.2034    0.6108    2.8135 H   0  0  0  0  0  0  0  0  0  0  0  0
    2.8842   -1.9273    1.1262 H   0  0  0  0  0  0  0  0  0  0  0  0
    2.9187    1.0204    0.2216 H   0  0  0  0  0  0  0  0  0  0  0  0
    1.5134   -0.0780    0.1541 H   0  0  0  0  0  0  0  0  0  0  0  0
    2.9375   -0.4033   -0.8560 H   0  0  0  0  0  0  0  0  0  0  0  0
    5.4049    2.6622    0.8504 H   0  0  0  0  0  0  0  0  0  0  0  0
    6.4454    4.9207    0.9619 H   0  0  0  0  0  0  0  0  0  0  0  0
    8.9069    5.1571    1.3132 H   0  0  0  0  0  0  0  0  0  0  0  0
    9.2905    0.8754    1.4612 H   0  0  0  0  0  0  0  0  0  0  0  0
    8.4720   -0.9139    0.7982 H   0  0  0  0  0  0  0  0  0  0  0  0
    7.2655   -3.0953    0.7286 H   0  0  0  0  0  0  0  0  0  0  0  0
  1  2  1  0
  1 19  1  0
  1 20  1  0
  1 21  1  0
  2  3  1  0
  2 22  1  0
  2 23  1  0
  3  4  1  0
  3  5  1  0
  3 24  1  6
  4 25  1  0
  4 26  1  0
  4 27  1  0
  5  6  1  0
  5 17  1  0
  6  7  2  0
  7  8  1  0
  7 15  1  0
  8  9  2  0
  8 14  1  0
  9 10  1  0
  9 28  1  0
 10 11  2  0
 10 29  1  0
 11 12  1  0
 11 30  1  0
 12 13  1  0
 12 14  2  0
 14 31  1  0
 15 16  2  0
 15 32  1  0
 16 17  1  0
 16 33  1  0
 17 18  2  0
M  END

