
     RDKit          3D

 45 47  0  0  0  0  0  0  0  0999 V2000
    2.0736   -6.0873    1.4428 C   0  0  0  0  0  0  0  0  0  0  0  0
    2.4085   -5.1621    0.5405 C   0  0  0  0  0  0  0  0  0  0  0  0
    3.6380   -4.2998    0.6227 C   0  0  0  0  0  0  0  0  0  0  0  0
    4.4463   -4.4300   -0.5759 N   0  0  0  0  0  0  0  0  0  0  0  0
    5.3940   -3.5329   -0.9688 C   0  0  0  0  0  0  0  0  0  0  0  0
    6.2556   -3.7516   -1.9193 N   0  0  0  0  0  0  0  0  0  0  0  0
    7.0709   -2.6589   -2.1359 C   0  0  0  0  0  0  0  0  0  0  0  0
    8.1026   -2.7336   -3.1906 C   0  0  0  0  0  0  0  0  0  0  0  0
    8.9726   -1.6601   -3.4636 C   0  0  0  0  0  0  0  0  0  0  0  0
    9.9387   -1.7535   -4.4626 C   0  0  0  0  0  0  0  0  0  0  0  0
   10.0514   -2.9359   -5.2035 C   0  0  0  0  0  0  0  0  0  0  0  0
   11.3235   -3.0748   -6.4695 S   0  0  1  0  0  0  0  0  0  0  0  0
   10.8415   -4.0496   -7.4513 O   0  0  0  0  0  0  0  0  0  0  0  0
   11.6958   -1.7074   -6.8423 O   0  0  0  0  0  0  0  0  0  0  0  0
   12.6661   -3.7552   -5.7489 N   0  0  0  0  0  0  0  0  0  0  0  0
   13.6332   -2.9420   -5.0135 C   0  0  0  0  0  0  0  0  0  0  0  0
   13.7318   -3.3840   -3.5484 C   0  0  0  0  0  0  0  0  0  0  0  0
   13.9875   -4.8940   -3.4450 C   0  0  0  0  0  0  0  0  0  0  0  0
   12.9337   -5.6881   -4.2294 C   0  0  0  0  0  0  0  0  0  0  0  0
   12.8508   -5.2038   -5.6817 C   0  0  0  0  0  0  0  0  0  0  0  0
    9.1841   -4.0075   -4.9675 C   0  0  0  0  0  0  0  0  0  0  0  0
    8.2224   -3.9045   -3.9636 C   0  0  0  0  0  0  0  0  0  0  0  0
    6.8278   -1.5811   -1.3178 C   0  0  0  0  0  0  0  0  0  0  0  0
    5.5254   -1.9326   -0.2182 S   0  0  0  0  0  0  0  0  0  0  0  0
    1.1576   -6.6759    1.3443 H   0  0  0  0  0  0  0  0  0  0  0  0
    2.6993   -6.2861    2.3196 H   0  0  0  0  0  0  0  0  0  0  0  0
    1.7682   -4.9872   -0.3327 H   0  0  0  0  0  0  0  0  0  0  0  0
    4.2093   -4.5352    1.5430 H   0  0  0  0  0  0  0  0  0  0  0  0
    3.3277   -3.2416    0.7046 H   0  0  0  0  0  0  0  0  0  0  0  0
    4.5731   -5.3603   -0.9622 H   0  0  0  0  0  0  0  0  0  0  0  0
    8.8923   -0.7304   -2.8968 H   0  0  0  0  0  0  0  0  0  0  0  0
   10.5925   -0.9096   -4.6890 H   0  0  0  0  0  0  0  0  0  0  0  0
   13.3522   -1.8854   -5.1094 H   0  0  0  0  0  0  0  0  0  0  0  0
   14.6213   -3.0502   -5.5031 H   0  0  0  0  0  0  0  0  0  0  0  0
   12.7894   -3.1307   -3.0316 H   0  0  0  0  0  0  0  0  0  0  0  0
   14.5361   -2.8180   -3.0489 H   0  0  0  0  0  0  0  0  0  0  0  0
   14.0027   -5.2109   -2.3892 H   0  0  0  0  0  0  0  0  0  0  0  0
   14.9904   -5.1205   -3.8533 H   0  0  0  0  0  0  0  0  0  0  0  0
   11.9455   -5.5665   -3.7519 H   0  0  0  0  0  0  0  0  0  0  0  0
   13.1685   -6.7658   -4.2159 H   0  0  0  0  0  0  0  0  0  0  0  0
   12.0365   -5.6880   -6.2354 H   0  0  0  0  0  0  0  0  0  0  0  0
   13.7893   -5.4581   -6.2128 H   0  0  0  0  0  0  0  0  0  0  0  0
    9.2521   -4.9059   -5.5836 H   0  0  0  0  0  0  0  0  0  0  0  0
    7.5357   -4.7281   -3.7656 H   0  0  0  0  0  0  0  0  0  0  0  0
    7.3230   -0.6143   -1.2858 H   0  0  0  0  0  0  0  0  0  0  0  0
  1  2  2  0
  1 25  1  0
  1 26  1  0
  2  3  1  0
  2 27  1  0
  3  4  1  0
  3 28  1  0
  3 29  1  0
  4  5  1  0
  4 30  1  0
  5  6  2  0
  5 24  1  0
  6  7  1  0
  7  8  1  0
  7 23  2  0
  8  9  2  0
  8 22  1  0
  9 10  1  0
  9 31  1  0
 10 11  2  0
 10 32  1  0
 12 11  1  1
 11 21  1  0
 12 13  2  0
 12 14  2  0
 12 15  1  0
 15 16  1  0
 15 20  1  0
 16 17  1  0
 16 33  1  0
 16 34  1  0
 17 18  1  0
 17 35  1  0
 17 36  1  0
 18 19  1  0
 18 37  1  0
 18 38  1  0
 19 20  1  0
 19 39  1  0
 19 40  1  0
 20 41  1  0
 20 42  1  0
 21 22  2  0
 21 43  1  0
 22 44  1  0
 23 24  1  0
 23 45  1  0
M  END

