
     RDKit          3D

 43 45  0  0  0  0  0  0  0  0999 V2000
    1.4242    0.4932   -0.2032 C   0  0  0  0  0  0  0  0  0  0  0  0
    2.8070    0.2410    0.2968 C   0  0  0  0  0  0  0  0  0  0  0  0
    3.7064    1.2642    0.6130 C   0  0  0  0  0  0  0  0  0  0  0  0
    5.0366    1.0749    1.0927 C   0  0  0  0  0  0  0  0  0  0  0  0
    5.8835    1.8909    1.3912 O   0  0  0  0  0  0  0  0  0  0  0  0
    5.4330   -0.3148    1.2454 O   0  0  0  0  0  0  0  0  0  0  0  0
    4.6079   -1.3271    0.9578 C   0  0  0  0  0  0  0  0  0  0  0  0
    5.1087   -2.6165    1.1497 C   0  0  0  0  0  0  0  0  0  0  0  0
    4.3050   -3.7609    0.8709 C   0  0  0  0  0  0  0  0  0  0  0  0
    4.8664   -4.9914    1.0857 N   0  0  0  0  0  0  0  0  0  0  0  0
    4.2336   -6.2521    0.8627 C   0  0  0  0  0  0  0  0  0  0  0  0
    5.2401   -7.3529    1.2425 C   0  0  0  0  0  0  0  0  0  0  0  0
    6.3526   -7.0298    1.6396 O   0  0  0  0  0  0  0  0  0  0  0  0
    4.8358   -8.6447    1.1175 N   0  0  0  0  0  0  0  0  0  0  0  0
    3.5215   -9.0986    0.6715 C   0  0  0  0  0  0  0  0  0  0  0  0
    3.6911  -10.1706   -0.4086 C   0  0  0  0  0  0  0  0  0  0  0  0
    4.5182  -11.2184    0.0355 O   0  0  0  0  0  0  0  0  0  0  0  0
    5.8269  -10.7790    0.3883 C   0  0  2  0  0  0  0  0  0  0  0  0
    6.6339  -11.9986    0.7948 C   0  0  0  0  0  0  0  0  0  0  0  0
    5.7428   -9.7288    1.5018 C   0  0  0  0  0  0  0  0  0  0  0  0
    2.9881   -3.5895    0.3946 C   0  0  0  0  0  0  0  0  0  0  0  0
    2.4998   -2.2912    0.2081 C   0  0  0  0  0  0  0  0  0  0  0  0
    3.2788   -1.1327    0.4783 C   0  0  0  0  0  0  0  0  0  0  0  0
    1.2234    1.5715   -0.2845 H   0  0  0  0  0  0  0  0  0  0  0  0
    0.6483    0.0585    0.4610 H   0  0  0  0  0  0  0  0  0  0  0  0
    1.2479    0.0445   -1.2032 H   0  0  0  0  0  0  0  0  0  0  0  0
    3.4121    2.3102    0.4995 H   0  0  0  0  0  0  0  0  0  0  0  0
    6.1301   -2.7292    1.5186 H   0  0  0  0  0  0  0  0  0  0  0  0
    5.8255   -5.0749    1.4322 H   0  0  0  0  0  0  0  0  0  0  0  0
    3.9199   -6.3581   -0.1957 H   0  0  0  0  0  0  0  0  0  0  0  0
    3.3087   -6.3493    1.4667 H   0  0  0  0  0  0  0  0  0  0  0  0
    2.9284   -8.2648    0.2753 H   0  0  0  0  0  0  0  0  0  0  0  0
    2.9710   -9.5293    1.5286 H   0  0  0  0  0  0  0  0  0  0  0  0
    4.1102   -9.7016   -1.3233 H   0  0  0  0  0  0  0  0  0  0  0  0
    2.7141  -10.6097   -0.6623 H   0  0  0  0  0  0  0  0  0  0  0  0
    6.2918  -10.2987   -0.4987 H   0  0  0  0  0  0  0  0  0  0  0  0
    6.1823  -12.4849    1.6736 H   0  0  0  0  0  0  0  0  0  0  0  0
    7.6697  -11.7181    1.0396 H   0  0  0  0  0  0  0  0  0  0  0  0
    6.6523  -12.7281   -0.0278 H   0  0  0  0  0  0  0  0  0  0  0  0
    6.7247   -9.2893    1.7156 H   0  0  0  0  0  0  0  0  0  0  0  0
    5.3635  -10.2092    2.4229 H   0  0  0  0  0  0  0  0  0  0  0  0
    2.3536   -4.4479    0.1740 H   0  0  0  0  0  0  0  0  0  0  0  0
    1.4812   -2.1602   -0.1595 H   0  0  0  0  0  0  0  0  0  0  0  0
  1  2  1  0
  1 24  1  0
  1 25  1  0
  1 26  1  0
  2  3  2  0
  2 23  1  0
  3  4  1  0
  3 27  1  0
  4  5  2  0
  4  6  1  0
  6  7  1  0
  7  8  1  0
  7 23  2  0
  8  9  2  0
  8 28  1  0
  9 10  1  0
  9 21  1  0
 10 11  1  0
 10 29  1  0
 11 12  1  0
 11 30  1  0
 11 31  1  0
 12 13  2  0
 12 14  1  0
 14 15  1  0
 14 20  1  0
 15 16  1  0
 15 32  1  0
 15 33  1  0
 16 17  1  0
 16 34  1  0
 16 35  1  0
 17 18  1  0
 18 19  1  0
 18 20  1  0
 18 36  1  6
 19 37  1  0
 19 38  1  0
 19 39  1  0
 20 40  1  0
 20 41  1  0
 21 22  2  0
 21 42  1  0
 22 23  1  0
 22 43  1  0
M  END

