
     RDKit          3D

 46 48  0  0  0  0  0  0  0  0999 V2000
    0.8202    0.2238   -0.8650 C   0  0  0  0  0  0  0  0  0  0  0  0
    2.3167    0.1781   -0.6604 C   0  0  0  0  0  0  0  0  0  0  0  0
    3.0393    1.3954   -0.5135 C   0  0  0  0  0  0  0  0  0  0  0  0
    4.4433    1.3517   -0.3615 C   0  0  0  0  0  0  0  0  0  0  0  0
    5.1380    0.1537   -0.3432 C   0  0  0  0  0  0  0  0  0  0  0  0
    4.4241   -1.0934   -0.4519 C   0  0  0  0  0  0  0  0  0  0  0  0
    2.9937   -1.0285   -0.6230 C   0  0  0  0  0  0  0  0  0  0  0  0
    5.0621   -2.3524   -0.2996 C   0  0  0  0  0  0  0  0  0  0  0  0
    4.5649   -3.4767   -0.2868 O   0  0  0  0  0  0  0  0  0  0  0  0
    6.4833   -2.3382    0.0104 O   0  0  0  0  0  0  0  0  0  0  0  0
    7.1334   -1.1811    0.4718 C   0  0  1  0  0  0  0  0  0  0  0  0
    6.9663   -1.0865    2.0298 C   0  0  0  0  0  0  0  0  0  0  0  0
    5.5408   -1.3642    2.5394 C   0  0  0  0  0  0  0  0  0  0  0  0
    5.5281   -1.5548    3.9945 N   0  0  0  0  0  0  0  0  0  0  0  0
    5.7513   -0.4510    4.8896 C   0  0  0  0  0  0  0  0  0  0  0  0
    5.3717   -2.8848    4.5222 C   0  0  0  0  0  0  0  0  0  0  0  0
    8.6411   -1.3705    0.2227 C   0  0  0  0  0  0  0  0  0  0  0  0
    9.1231   -2.5600   -0.3403 C   0  0  0  0  0  0  0  0  0  0  0  0
   10.4895   -2.7475   -0.5664 C   0  0  0  0  0  0  0  0  0  0  0  0
   11.3902   -1.7371   -0.2230 C   0  0  0  0  0  0  0  0  0  0  0  0
   13.1047   -1.9651   -0.5000 Cl  0  0  0  0  0  0  0  0  0  0  0  0
   10.9347   -0.5413    0.3381 C   0  0  0  0  0  0  0  0  0  0  0  0
    9.5660   -0.3677    0.5557 C   0  0  0  0  0  0  0  0  0  0  0  0
    6.6375    0.0710   -0.2912 C   0  0  0  0  0  0  0  0  0  0  0  0
    0.5610    0.7460   -1.8030 H   0  0  0  0  0  0  0  0  0  0  0  0
    0.3166    0.7755   -0.0514 H   0  0  0  0  0  0  0  0  0  0  0  0
    0.3840   -0.7855   -0.9124 H   0  0  0  0  0  0  0  0  0  0  0  0
    2.5163    2.3539   -0.5400 H   0  0  0  0  0  0  0  0  0  0  0  0
    5.0035    2.2907   -0.2825 H   0  0  0  0  0  0  0  0  0  0  0  0
    2.4551   -1.9730   -0.7270 H   0  0  0  0  0  0  0  0  0  0  0  0
    7.3206   -0.1058    2.3866 H   0  0  0  0  0  0  0  0  0  0  0  0
    7.6296   -1.8502    2.4671 H   0  0  0  0  0  0  0  0  0  0  0  0
    5.1506   -2.2818    2.0911 H   0  0  0  0  0  0  0  0  0  0  0  0
    4.8564   -0.5380    2.3148 H   0  0  0  0  0  0  0  0  0  0  0  0
    5.7246    0.4966    4.3438 H   0  0  0  0  0  0  0  0  0  0  0  0
    6.7341   -0.5724    5.3780 H   0  0  0  0  0  0  0  0  0  0  0  0
    4.9855   -0.4588    5.6806 H   0  0  0  0  0  0  0  0  0  0  0  0
    6.0791   -3.5594    4.0163 H   0  0  0  0  0  0  0  0  0  0  0  0
    4.3581   -3.2426    4.2763 H   0  0  0  0  0  0  0  0  0  0  0  0
    5.5244   -2.9035    5.6075 H   0  0  0  0  0  0  0  0  0  0  0  0
    8.4052   -3.3356   -0.6074 H   0  0  0  0  0  0  0  0  0  0  0  0
   10.8575   -3.6740   -1.0109 H   0  0  0  0  0  0  0  0  0  0  0  0
   11.6465    0.2456    0.5937 H   0  0  0  0  0  0  0  0  0  0  0  0
    9.2258    0.5792    0.9832 H   0  0  0  0  0  0  0  0  0  0  0  0
    7.0456   -0.0268   -1.3140 H   0  0  0  0  0  0  0  0  0  0  0  0
    7.0798    0.9868    0.1326 H   0  0  0  0  0  0  0  0  0  0  0  0
  1  2  1  0
  1 25  1  0
  1 26  1  0
  1 27  1  0
  2  3  2  0
  2  7  1  0
  3  4  1  0
  3 28  1  0
  4  5  2  0
  4 29  1  0
  5  6  1  0
  5 24  1  0
  6  7  2  0
  6  8  1  0
  7 30  1  0
  8  9  2  0
  8 10  1  0
 10 11  1  0
 11 12  1  1
 11 17  1  0
 11 24  1  0
 12 13  1  0
 12 31  1  0
 12 32  1  0
 13 14  1  0
 13 33  1  0
 13 34  1  0
 14 15  1  0
 14 16  1  0
 15 35  1  0
 15 36  1  0
 15 37  1  0
 16 38  1  0
 16 39  1  0
 16 40  1  0
 17 18  2  0
 17 23  1  0
 18 19  1  0
 18 41  1  0
 19 20  2  0
 19 42  1  0
 20 21  1  0
 20 22  1  0
 22 23  2  0
 22 43  1  0
 23 44  1  0
 24 45  1  0
 24 46  1  0
M  END

