
     RDKit          3D

 48 49  0  0  0  0  0  0  0  0999 V2000
    2.0406    1.3634    0.1017 C   0  0  0  0  0  0  0  0  0  0  0  0
    3.3183    0.5234    0.1131 C   0  0  0  0  0  0  0  0  0  0  0  0
    3.2545   -0.6911   -0.8183 C   0  0  0  0  0  0  0  0  0  0  0  0
    4.5453   -1.5187   -0.7930 C   0  0  0  0  0  0  0  0  0  0  0  0
    4.5174   -2.6843   -1.6604 N   0  0  0  0  0  0  0  0  0  0  0  0
    4.3619   -3.9553   -1.2048 C   0  0  0  0  0  0  0  0  0  0  0  0
    4.2445   -4.3738   -0.0615 O   0  0  0  0  0  0  0  0  0  0  0  0
    4.3359   -4.8378   -2.4096 C   0  0  0  0  0  0  0  0  0  0  0  0
    4.1726   -6.1396   -2.2079 O   0  0  0  0  0  0  0  0  0  0  0  0
    4.4506   -4.0954   -3.5378 C   0  0  0  0  0  0  0  0  0  0  0  0
    4.3513   -4.4792   -4.9581 C   0  0  0  0  0  0  0  0  0  0  0  0
    4.2781   -3.6121   -5.8163 O   0  0  0  0  0  0  0  0  0  0  0  0
    4.2999   -5.9636   -5.2885 C   0  0  0  0  0  0  0  0  0  0  0  0
    4.3412   -6.2965   -6.7862 C   0  0  1  0  0  0  0  0  0  0  0  0
    5.7178   -6.0017   -7.3968 C   0  0  0  0  0  0  0  0  0  0  0  0
    3.9285   -7.7542   -7.0254 C   0  0  0  0  0  0  0  0  0  0  0  0
    4.6055   -2.6333   -3.1253 C   0  0  2  0  0  0  0  0  0  0  0  0
    5.8993   -1.9882   -3.6146 C   0  0  0  0  0  0  0  0  0  0  0  0
    7.1335   -2.3239   -3.0392 C   0  0  0  0  0  0  0  0  0  0  0  0
    8.3206   -1.7503   -3.4963 C   0  0  0  0  0  0  0  0  0  0  0  0
    8.2745   -0.8289   -4.5474 C   0  0  0  0  0  0  0  0  0  0  0  0
    9.7570   -0.1029   -5.1252 Cl  0  0  0  0  0  0  0  0  0  0  0  0
    7.0571   -0.4834   -5.1385 C   0  0  0  0  0  0  0  0  0  0  0  0
    5.8779   -1.0651   -4.6672 C   0  0  0  0  0  0  0  0  0  0  0  0
    2.1217    2.2279    0.7793 H   0  0  0  0  0  0  0  0  0  0  0  0
    1.1679    0.7702    0.4215 H   0  0  0  0  0  0  0  0  0  0  0  0
    1.8244    1.7509   -0.9079 H   0  0  0  0  0  0  0  0  0  0  0  0
    3.5263    0.1806    1.1429 H   0  0  0  0  0  0  0  0  0  0  0  0
    4.1785    1.1557   -0.1727 H   0  0  0  0  0  0  0  0  0  0  0  0
    3.0517   -0.3498   -1.8495 H   0  0  0  0  0  0  0  0  0  0  0  0
    2.4079   -1.3393   -0.5315 H   0  0  0  0  0  0  0  0  0  0  0  0
    4.7302   -1.8956    0.2247 H   0  0  0  0  0  0  0  0  0  0  0  0
    5.4056   -0.8879   -1.0749 H   0  0  0  0  0  0  0  0  0  0  0  0
    4.1061   -6.2454   -1.2352 H   0  0  0  0  0  0  0  0  0  0  0  0
    3.3750   -6.3576   -4.8268 H   0  0  0  0  0  0  0  0  0  0  0  0
    5.1126   -6.4774   -4.7433 H   0  0  0  0  0  0  0  0  0  0  0  0
    3.6076   -5.6393   -7.2841 H   0  0  0  0  0  0  0  0  0  0  0  0
    6.4989   -6.6272   -6.9296 H   0  0  0  0  0  0  0  0  0  0  0  0
    5.9949   -4.9459   -7.2644 H   0  0  0  0  0  0  0  0  0  0  0  0
    5.7234   -6.2178   -8.4776 H   0  0  0  0  0  0  0  0  0  0  0  0
    4.6239   -8.4525   -6.5281 H   0  0  0  0  0  0  0  0  0  0  0  0
    3.9305   -7.9958   -8.1006 H   0  0  0  0  0  0  0  0  0  0  0  0
    2.9173   -7.9602   -6.6372 H   0  0  0  0  0  0  0  0  0  0  0  0
    3.7586   -2.0561   -3.5352 H   0  0  0  0  0  0  0  0  0  0  0  0
    7.1732   -3.0431   -2.2169 H   0  0  0  0  0  0  0  0  0  0  0  0
    9.2789   -2.0116   -3.0446 H   0  0  0  0  0  0  0  0  0  0  0  0
    7.0360    0.2329   -5.9614 H   0  0  0  0  0  0  0  0  0  0  0  0
    4.9281   -0.8109   -5.1425 H   0  0  0  0  0  0  0  0  0  0  0  0
  1  2  1  0
  1 25  1  0
  1 26  1  0
  1 27  1  0
  2  3  1  0
  2 28  1  0
  2 29  1  0
  3  4  1  0
  3 30  1  0
  3 31  1  0
  4  5  1  0
  4 32  1  0
  4 33  1  0
  5  6  1  0
  5 17  1  0
  6  7  2  0
  6  8  1  0
  8  9  1  0
  8 10  2  0
  9 34  1  0
 10 11  1  0
 10 17  1  0
 11 12  2  0
 11 13  1  0
 13 14  1  0
 13 35  1  0
 13 36  1  0
 14 15  1  0
 14 16  1  0
 14 37  1  6
 15 38  1  0
 15 39  1  0
 15 40  1  0
 16 41  1  0
 16 42  1  0
 16 43  1  0
 17 18  1  0
 17 44  1  6
 18 19  2  0
 18 24  1  0
 19 20  1  0
 19 45  1  0
 20 21  2  0
 20 46  1  0
 21 22  1  0
 21 23  1  0
 23 24  2  0
 23 47  1  0
 24 48  1  0
M  END

