
     RDKit          3D

 43 46  0  0  0  0  0  0  0  0999 V2000
    2.3593    0.9809   -0.5479 C   0  0  0  0  0  0  0  0  0  0  0  0
    2.9770   -0.2362   -0.2097 O   0  0  0  0  0  0  0  0  0  0  0  0
    2.7676   -0.6641    1.1215 C   0  0  2  0  0  0  0  0  0  0  0  0
    3.8287   -1.6992    1.4409 C   0  0  0  0  0  0  0  0  0  0  0  0
    3.6193   -2.8954    2.0093 C   0  0  0  0  0  0  0  0  0  0  0  0
    2.2077   -3.4009    2.2947 C   0  0  1  0  0  0  0  0  0  0  0  0
    1.8727   -4.4014    1.1372 C   0  0  0  0  0  0  0  0  0  0  0  0
    2.8675   -5.4118    1.0229 C   0  0  0  0  0  0  0  0  0  0  0  0
    2.8330   -6.3098   -0.0231 C   0  0  0  0  0  0  0  0  0  0  0  0
    1.8533   -6.2468   -1.0122 C   0  0  0  0  0  0  0  0  0  0  0  0
    0.8597   -5.3017   -0.9396 C   0  0  0  0  0  0  0  0  0  0  0  0
    0.8326   -4.4036    0.1678 C   0  0  0  0  0  0  0  0  0  0  0  0
   -0.4606   -3.6607    0.1920 C   0  0  0  0  0  0  0  0  0  0  0  0
   -1.1034   -3.3587    1.1672 O   0  0  0  0  0  0  0  0  0  0  0  0
    2.0704   -7.2274   -1.9348 O   0  0  0  0  0  0  0  0  0  0  0  0
    3.2569   -7.9081   -1.5295 C   0  0  0  0  0  0  0  0  0  0  0  0
    3.6888   -7.3311   -0.2944 O   0  0  0  0  0  0  0  0  0  0  0  0
    1.9557   -4.1357    3.6659 C   0  0  1  0  0  0  0  0  0  0  0  0
    2.7876   -3.6722    4.7051 O   0  0  0  0  0  0  0  0  0  0  0  0
    0.4553   -3.8659    3.9127 C   0  0  0  0  0  0  0  0  0  0  0  0
    0.2427   -2.5453    3.3169 N   0  0  0  0  0  0  0  0  0  0  0  0
   -0.7474   -1.7325    3.6076 N   0  0  0  0  0  0  0  0  0  0  0  0
   -1.5898   -2.1915    4.3644 O   0  0  0  0  0  0  0  0  0  0  0  0
    1.4074   -2.1049    2.5653 C   0  0  2  0  0  0  0  0  0  0  0  0
    1.3226   -1.1654    1.3738 C   0  0  0  0  0  0  0  0  0  0  0  0
    2.6754    1.2383   -1.5693 H   0  0  0  0  0  0  0  0  0  0  0  0
    2.6657    1.8009    0.1331 H   0  0  0  0  0  0  0  0  0  0  0  0
    1.2542    0.9197   -0.5325 H   0  0  0  0  0  0  0  0  0  0  0  0
    2.9550    0.1976    1.8034 H   0  0  0  0  0  0  0  0  0  0  0  0
    4.8492   -1.3834    1.2016 H   0  0  0  0  0  0  0  0  0  0  0  0
    4.4724   -3.5376    2.2381 H   0  0  0  0  0  0  0  0  0  0  0  0
    3.6829   -5.4840    1.7413 H   0  0  0  0  0  0  0  0  0  0  0  0
    0.0704   -5.2623   -1.6928 H   0  0  0  0  0  0  0  0  0  0  0  0
   -0.8726   -3.4698   -0.8340 H   0  0  0  0  0  0  0  0  0  0  0  0
    4.0439   -7.7759   -2.2939 H   0  0  0  0  0  0  0  0  0  0  0  0
    3.0407   -8.9803   -1.3815 H   0  0  0  0  0  0  0  0  0  0  0  0
    2.1552   -5.2127    3.5913 H   0  0  0  0  0  0  0  0  0  0  0  0
    2.5386   -2.7702    4.9471 H   0  0  0  0  0  0  0  0  0  0  0  0
    0.1999   -3.8501    4.9828 H   0  0  0  0  0  0  0  0  0  0  0  0
   -0.1956   -4.6059    3.4188 H   0  0  0  0  0  0  0  0  0  0  0  0
    2.0423   -1.5606    3.2942 H   0  0  0  0  0  0  0  0  0  0  0  0
    0.6359   -0.3341    1.5858 H   0  0  0  0  0  0  0  0  0  0  0  0
    0.9755   -1.6718    0.4646 H   0  0  0  0  0  0  0  0  0  0  0  0
  1  2  1  0
  1 26  1  0
  1 27  1  0
  1 28  1  0
  2  3  1  0
  3  4  1  0
  3 25  1  0
  3 29  1  1
  4  5  2  0
  4 30  1  0
  5  6  1  0
  5 31  1  0
  6  7  1  6
  6 18  1  0
  6 24  1  0
  7  8  2  0
  7 12  1  0
  8  9  1  0
  8 32  1  0
  9 10  2  0
  9 17  1  0
 10 11  1  0
 10 15  1  0
 11 12  2  0
 11 33  1  0
 12 13  1  0
 13 14  2  0
 13 34  1  0
 15 16  1  0
 16 17  1  0
 16 35  1  0
 16 36  1  0
 18 19  1  0
 18 20  1  0
 18 37  1  6
 19 38  1  0
 20 21  1  0
 20 39  1  0
 20 40  1  0
 21 22  1  0
 21 24  1  0
 22 23  2  0
 24 25  1  0
 24 41  1  1
 25 42  1  0
 25 43  1  0
M  END

