
     RDKit          3D

 34 35  0  0  0  0  0  0  0  0999 V2000
    1.8803    0.1750    2.2292 C   0  0  0  0  0  0  0  0  0  0  0  0
    2.9239   -0.0058    1.1709 C   0  0  0  0  0  0  0  0  0  0  0  0
    3.4737    1.1211    0.4980 C   0  0  0  0  0  0  0  0  0  0  0  0
    4.4452    0.9358   -0.4714 C   0  0  0  0  0  0  0  0  0  0  0  0
    4.8833   -0.3624   -0.7867 C   0  0  0  0  0  0  0  0  0  0  0  0
    5.8132   -0.6174   -1.7082 O   0  0  0  0  0  0  0  0  0  0  0  0
    4.3412   -1.5352   -0.1167 C   0  0  0  0  0  0  0  0  0  0  0  0
    4.8283   -2.7476   -0.4891 N   0  0  0  0  0  0  0  0  0  0  0  0
    4.4586   -4.0423    0.0206 C   0  0  0  0  0  0  0  0  0  0  0  0
    3.6151   -4.1984    0.9007 O   0  0  0  0  0  0  0  0  0  0  0  0
    5.2299   -5.0898   -0.6628 C   0  0  0  0  0  0  0  0  0  0  0  0
    6.0680   -4.7910   -1.5534 O   0  0  0  0  0  0  0  0  0  0  0  0
    4.9247   -6.3709   -0.2166 N   0  0  0  0  0  0  0  0  0  0  0  0
    5.4366   -7.5886   -0.6196 C   0  0  0  0  0  0  0  0  0  0  0  0
    6.4237   -7.7157   -1.6275 C   0  0  0  0  0  0  0  0  0  0  0  0
    6.8980   -8.9738   -1.9898 C   0  0  0  0  0  0  0  0  0  0  0  0
    6.4087  -10.1264   -1.3653 C   0  0  0  0  0  0  0  0  0  0  0  0
    7.0160  -11.7062   -1.8322 Cl  0  0  0  0  0  0  0  0  0  0  0  0
    5.4336  -10.0210   -0.3668 C   0  0  0  0  0  0  0  0  0  0  0  0
    4.9552   -8.7678    0.0000 C   0  0  0  0  0  0  0  0  0  0  0  0
    3.3641   -1.3103    0.8538 C   0  0  0  0  0  0  0  0  0  0  0  0
    1.5612    1.2214    2.3285 H   0  0  0  0  0  0  0  0  0  0  0  0
    2.2639   -0.1665    3.2072 H   0  0  0  0  0  0  0  0  0  0  0  0
    0.9963   -0.4492    2.0159 H   0  0  0  0  0  0  0  0  0  0  0  0
    3.1276    2.1256    0.7472 H   0  0  0  0  0  0  0  0  0  0  0  0
    4.8819    1.7865   -1.0026 H   0  0  0  0  0  0  0  0  0  0  0  0
    6.1395    0.1966   -2.1215 H   0  0  0  0  0  0  0  0  0  0  0  0
    5.5444   -2.8290   -1.2125 H   0  0  0  0  0  0  0  0  0  0  0  0
    4.2178   -6.3843    0.5124 H   0  0  0  0  0  0  0  0  0  0  0  0
    6.7973   -6.8124   -2.1063 H   0  0  0  0  0  0  0  0  0  0  0  0
    7.6585   -9.0648   -2.7680 H   0  0  0  0  0  0  0  0  0  0  0  0
    5.0529  -10.9211    0.1196 H   0  0  0  0  0  0  0  0  0  0  0  0
    4.1930   -8.6916    0.7814 H   0  0  0  0  0  0  0  0  0  0  0  0
    2.9476   -2.1769    1.3642 H   0  0  0  0  0  0  0  0  0  0  0  0
  1  2  1  0
  1 22  1  0
  1 23  1  0
  1 24  1  0
  2  3  2  0
  2 21  1  0
  3  4  1  0
  3 25  1  0
  4  5  2  0
  4 26  1  0
  5  6  1  0
  5  7  1  0
  6 27  1  0
  7  8  1  0
  7 21  2  0
  8  9  1  0
  8 28  1  0
  9 10  2  0
  9 11  1  0
 11 12  2  0
 11 13  1  0
 13 14  1  0
 13 29  1  0
 14 15  2  0
 14 20  1  0
 15 16  1  0
 15 30  1  0
 16 17  2  0
 16 31  1  0
 17 18  1  0
 17 19  1  0
 19 20  2  0
 19 32  1  0
 20 33  1  0
 21 34  1  0
M  END

