
     RDKit          3D

 76 84  0  0  0  0  0  0  0  0999 V2000
    5.1278   -1.6802   -1.2806 C   0  0  0  0  0  0  0  0  0  0  0  0
    6.3981   -1.0954   -1.3252 C   0  0  0  0  0  0  0  0  0  0  0  0
    7.1284   -0.8893   -0.1558 C   0  0  0  0  0  0  0  0  0  0  0  0
    6.5971   -1.2718    1.0924 C   0  0  0  0  0  0  0  0  0  0  0  0
    7.3526   -1.0889    2.2720 N   0  0  0  0  0  0  0  0  0  0  0  0
    6.7391   -0.7527    3.4979 C   0  0  0  0  0  0  0  0  0  0  0  0
    7.2945   -1.2197    4.7085 C   0  0  0  0  0  0  0  0  0  0  0  0
    6.7144   -0.8776    5.9282 C   0  0  0  0  0  0  0  0  0  0  0  0
    5.5735   -0.0676    5.9732 C   0  0  0  0  0  0  0  0  0  0  0  0
    5.0220    0.4041    4.7762 C   0  0  0  0  0  0  0  0  0  0  0  0
    5.5957    0.0736    3.5496 C   0  0  0  0  0  0  0  0  0  0  0  0
    8.7799   -1.1055    2.2126 C   0  0  0  0  0  0  0  0  0  0  0  0
    9.4831    0.0561    2.5555 C   0  0  0  0  0  0  0  0  0  0  0  0
   10.8662    0.1080    2.4746 C   0  0  0  0  0  0  0  0  0  0  0  0
   11.6264   -1.0097    2.0386 C   0  0  0  0  0  0  0  0  0  0  0  0
   13.0723   -0.9458    1.9111 C   0  0  0  0  0  0  0  0  0  0  0  0
   13.7907    0.2433    2.1897 C   0  0  0  0  0  0  0  0  0  0  0  0
   15.1776    0.2872    2.0966 C   0  0  0  0  0  0  0  0  0  0  0  0
   15.9035   -0.8359    1.7045 C   0  0  0  0  0  0  0  0  0  0  0  0
   15.2422   -2.0453    1.3855 C   0  0  0  0  0  0  0  0  0  0  0  0
   15.9540   -3.2211    0.9749 C   0  0  0  0  0  0  0  0  0  0  0  0
   17.3707   -3.2022    0.7925 N   0  0  0  0  0  0  0  0  0  0  0  0
   18.1513   -4.1115    1.5386 C   0  0  0  0  0  0  0  0  0  0  0  0
   19.2461   -4.7913    0.9623 C   0  0  0  0  0  0  0  0  0  0  0  0
   19.9866   -5.6991    1.7177 C   0  0  0  0  0  0  0  0  0  0  0  0
   19.6522   -5.9587    3.0519 C   0  0  0  0  0  0  0  0  0  0  0  0
   18.5603   -5.2959    3.6248 C   0  0  0  0  0  0  0  0  0  0  0  0
   17.8154   -4.3821    2.8824 C   0  0  0  0  0  0  0  0  0  0  0  0
   17.9408   -2.3882   -0.2113 C   0  0  0  0  0  0  0  0  0  0  0  0
   17.2063   -2.0766   -1.3731 C   0  0  0  0  0  0  0  0  0  0  0  0
   17.7544   -1.2497   -2.3523 C   0  0  0  0  0  0  0  0  0  0  0  0
   19.0403   -0.7190   -2.2018 C   0  0  0  0  0  0  0  0  0  0  0  0
   19.7723   -1.0210   -1.0475 C   0  0  0  0  0  0  0  0  0  0  0  0
   19.2320   -1.8391   -0.0571 C   0  0  0  0  0  0  0  0  0  0  0  0
   15.2617   -4.4192    0.7587 C   0  0  0  0  0  0  0  0  0  0  0  0
   13.8826   -4.4843    0.8857 C   0  0  0  0  0  0  0  0  0  0  0  0
   13.1149   -3.3421    1.2361 C   0  0  0  0  0  0  0  0  0  0  0  0
   11.6661   -3.3965    1.3306 C   0  0  0  0  0  0  0  0  0  0  0  0
   10.9477   -4.5860    1.0533 C   0  0  0  0  0  0  0  0  0  0  0  0
    9.5633   -4.6382    1.1760 C   0  0  0  0  0  0  0  0  0  0  0  0
    8.8365   -3.5116    1.5563 C   0  0  0  0  0  0  0  0  0  0  0  0
    9.4932   -2.2869    1.8213 C   0  0  0  0  0  0  0  0  0  0  0  0
   10.9348   -2.2245    1.7237 C   0  0  0  0  0  0  0  0  0  0  0  0
   13.8023   -2.1136    1.5032 C   0  0  0  0  0  0  0  0  0  0  0  0
    5.3211   -1.8740    1.1312 C   0  0  0  0  0  0  0  0  0  0  0  0
    4.5974   -2.0666   -0.0441 C   0  0  0  0  0  0  0  0  0  0  0  0
    4.5588   -1.8383   -2.1996 H   0  0  0  0  0  0  0  0  0  0  0  0
    6.8256   -0.7875   -2.2829 H   0  0  0  0  0  0  0  0  0  0  0  0
    8.1155   -0.4271   -0.1963 H   0  0  0  0  0  0  0  0  0  0  0  0
    8.1776   -1.8595    4.6766 H   0  0  0  0  0  0  0  0  0  0  0  0
    7.1542   -1.2560    6.8545 H   0  0  0  0  0  0  0  0  0  0  0  0
    5.1214    0.1975    6.9316 H   0  0  0  0  0  0  0  0  0  0  0  0
    4.1416    1.0517    4.7973 H   0  0  0  0  0  0  0  0  0  0  0  0
    5.1712    0.4660    2.6244 H   0  0  0  0  0  0  0  0  0  0  0  0
    8.9225    0.9391    2.8709 H   0  0  0  0  0  0  0  0  0  0  0  0
   11.3633    1.0392    2.7408 H   0  0  0  0  0  0  0  0  0  0  0  0
   13.2596    1.1471    2.4846 H   0  0  0  0  0  0  0  0  0  0  0  0
   15.7053    1.2156    2.3308 H   0  0  0  0  0  0  0  0  0  0  0  0
   16.9899   -0.7836    1.6441 H   0  0  0  0  0  0  0  0  0  0  0  0
   19.5012   -4.6146   -0.0836 H   0  0  0  0  0  0  0  0  0  0  0  0
   20.8260   -6.2225    1.2525 H   0  0  0  0  0  0  0  0  0  0  0  0
   20.2340   -6.6739    3.6379 H   0  0  0  0  0  0  0  0  0  0  0  0
   18.2894   -5.4860    4.6666 H   0  0  0  0  0  0  0  0  0  0  0  0
   16.9711   -3.8599    3.3349 H   0  0  0  0  0  0  0  0  0  0  0  0
   16.2057   -2.4922   -1.4991 H   0  0  0  0  0  0  0  0  0  0  0  0
   17.1706   -1.0238   -3.2484 H   0  0  0  0  0  0  0  0  0  0  0  0
   19.4658   -0.0728   -2.9730 H   0  0  0  0  0  0  0  0  0  0  0  0
   20.7723   -0.6021   -0.9080 H   0  0  0  0  0  0  0  0  0  0  0  0
   19.8020   -2.0460    0.8501 H   0  0  0  0  0  0  0  0  0  0  0  0
   15.8242   -5.3084    0.4653 H   0  0  0  0  0  0  0  0  0  0  0  0
   13.3922   -5.4370    0.6934 H   0  0  0  0  0  0  0  0  0  0  0  0
   11.4771   -5.4845    0.7396 H   0  0  0  0  0  0  0  0  0  0  0  0
    9.0380   -5.5742    0.9682 H   0  0  0  0  0  0  0  0  0  0  0  0
    7.7532   -3.5740    1.6525 H   0  0  0  0  0  0  0  0  0  0  0  0
    4.9079   -2.2032    2.0859 H   0  0  0  0  0  0  0  0  0  0  0  0
    3.6125   -2.5384    0.0058 H   0  0  0  0  0  0  0  0  0  0  0  0
  1  2  2  0
  1 46  1  0
  1 47  1  0
  2  3  1  0
  2 48  1  0
  3  4  2  0
  3 49  1  0
  4  5  1  0
  4 45  1  0
  5  6  1  0
  5 12  1  0
  6  7  2  0
  6 11  1  0
  7  8  1  0
  7 50  1  0
  8  9  2  0
  8 51  1  0
  9 10  1  0
  9 52  1  0
 10 11  2  0
 10 53  1  0
 11 54  1  0
 12 13  2  0
 12 42  1  0
 13 14  1  0
 13 55  1  0
 14 15  2  0
 14 56  1  0
 15 16  1  0
 15 43  1  0
 16 17  2  0
 16 44  1  0
 17 18  1  0
 17 57  1  0
 18 19  2  0
 18 58  1  0
 19 20  1  0
 19 59  1  0
 20 21  1  0
 20 44  2  0
 21 22  1  0
 21 35  2  0
 22 23  1  0
 22 29  1  0
 23 24  2  0
 23 28  1  0
 24 25  1  0
 24 60  1  0
 25 26  2  0
 25 61  1  0
 26 27  1  0
 26 62  1  0
 27 28  2  0
 27 63  1  0
 28 64  1  0
 29 30  2  0
 29 34  1  0
 30 31  1  0
 30 65  1  0
 31 32  2  0
 31 66  1  0
 32 33  1  0
 32 67  1  0
 33 34  2  0
 33 68  1  0
 34 69  1  0
 35 36  1  0
 35 70  1  0
 36 37  2  0
 36 71  1  0
 37 38  1  0
 37 44  1  0
 38 39  1  0
 38 43  2  0
 39 40  2  0
 39 72  1  0
 40 41  1  0
 40 73  1  0
 41 42  2  0
 41 74  1  0
 42 43  1  0
 45 46  2  0
 45 75  1  0
 46 76  1  0
M  END

