
     RDKit          3D

 76 80  0  0  0  0  0  0  0  0999 V2000
    4.7043    2.5935   -0.4080 C   0  0  0  0  0  0  0  0  0  0  0  0
    3.6867    1.4713   -0.1313 C   0  0  2  0  0  0  0  0  0  0  0  0
    2.6834    1.9349   -0.1163 H   0  0  0  0  0  0  0  0  0  0  0  0
    3.8740    0.8698    1.1928 N   0  0  0  0  0  0  0  0  0  0  0  0
    3.3636    1.6294    2.3242 C   0  0  0  0  0  0  0  0  0  0  0  0
    3.6264    0.9386    3.6506 C   0  0  0  0  0  0  0  0  0  0  0  0
    3.9739    1.7073    4.7863 C   0  0  0  0  0  0  0  0  0  0  0  0
    4.1903    1.1366    6.0415 C   0  0  0  0  0  0  0  0  0  0  0  0
    4.0553   -0.2500    6.1364 C   0  0  0  0  0  0  0  0  0  0  0  0
    3.7195   -1.0465    5.0139 C   0  0  0  0  0  0  0  0  0  0  0  0
    3.5028   -0.4500    3.7650 C   0  0  0  0  0  0  0  0  0  0  0  0
    3.6596   -2.3793    5.3798 N   0  0  0  0  0  0  0  0  0  0  0  0
    3.9519   -2.3960    6.6520 C   0  0  0  0  0  0  0  0  0  0  0  0
    4.0350   -3.5903    7.3724 N   0  0  0  0  0  0  0  0  0  0  0  0
    3.4194   -3.8324    8.5962 C   0  0  0  0  0  0  0  0  0  0  0  0
    2.8297   -2.9792    9.2273 O   0  0  0  0  0  0  0  0  0  0  0  0
    3.5411   -5.2280    9.0982 C   0  0  0  0  0  0  0  0  0  0  0  0
    2.8382   -5.7292   10.1724 C   0  0  0  0  0  0  0  0  0  0  0  0
    3.1404   -7.0895   10.4485 C   0  0  0  0  0  0  0  0  0  0  0  0
    4.0788   -7.6094    9.5870 C   0  0  0  0  0  0  0  0  0  0  0  0
    4.6040   -9.0159    9.5575 C   0  0  1  0  0  0  0  0  0  0  0  0
    5.9484   -9.0181    9.3465 F   0  0  0  0  0  0  0  0  0  0  0  0
    4.3513   -9.6202   10.7463 F   0  0  0  0  0  0  0  0  0  0  0  0
    4.6119   -6.4337    8.4302 S   0  0  0  0  0  0  0  0  0  0  0  0
    4.2237   -1.1500    7.1938 N   0  0  0  0  0  0  0  0  0  0  0  0
    4.7345   -0.8335    8.4875 C   0  0  0  0  0  0  0  0  0  0  0  0
    5.9086   -1.4507    8.9369 C   0  0  0  0  0  0  0  0  0  0  0  0
    6.4169   -1.1413   10.2042 C   0  0  0  0  0  0  0  0  0  0  0  0
    5.7598   -0.2064   10.9955 C   0  0  0  0  0  0  0  0  0  0  0  0
    4.5913    0.4171   10.5253 C   0  0  0  0  0  0  0  0  0  0  0  0
    4.0567    0.1112    9.2720 C   0  0  0  0  0  0  0  0  0  0  0  0
    4.0979    1.3119   11.5032 N   0  0  0  0  0  0  0  0  0  0  0  0
    3.0095    2.1407   11.3499 C   0  0  0  0  0  0  0  0  0  0  0  0
    2.3791    2.2176   10.3073 O   0  0  0  0  0  0  0  0  0  0  0  0
    2.6244    2.9737   12.5728 C   0  0  0  0  0  0  0  0  0  0  0  0
    1.3746    3.7916   12.2919 C   0  0  0  0  0  0  0  0  0  0  0  0
    0.8755    4.8776   13.8559 Br  0  0  0  0  0  0  0  0  0  0  0  0
    4.8717    1.1611   12.7542 C   0  0  0  0  0  0  0  0  0  0  0  0
    6.1165    0.3342   12.3596 C   0  0  0  0  0  0  0  0  0  0  0  0
    3.6247    0.3625   -1.2397 C   0  0  1  0  0  0  0  0  0  0  0  0
    2.4043   -0.5358   -0.9632 C   0  0  0  0  0  0  0  0  0  0  0  0
    3.4556    1.0044   -2.6302 C   0  0  0  0  0  0  0  0  0  0  0  0
    4.8983   -0.5046   -1.2318 C   0  0  0  0  0  0  0  0  0  0  0  0
    5.7277    2.1946   -0.5073 H   0  0  0  0  0  0  0  0  0  0  0  0
    4.7104    3.3153    0.4239 H   0  0  0  0  0  0  0  0  0  0  0  0
    4.4739    3.1581   -1.3236 H   0  0  0  0  0  0  0  0  0  0  0  0
    4.8569    0.6467    1.3475 H   0  0  0  0  0  0  0  0  0  0  0  0
    2.2717    1.7439    2.1829 H   0  0  0  0  0  0  0  0  0  0  0  0
    3.7640    2.6653    2.3868 H   0  0  0  0  0  0  0  0  0  0  0  0
    4.0777    2.7905    4.6764 H   0  0  0  0  0  0  0  0  0  0  0  0
    4.4570    1.7517    6.9022 H   0  0  0  0  0  0  0  0  0  0  0  0
    3.2478   -1.0594    2.8973 H   0  0  0  0  0  0  0  0  0  0  0  0
    4.1783   -4.3866    6.7570 H   0  0  0  0  0  0  0  0  0  0  0  0
    2.1309   -5.1144   10.7293 H   0  0  0  0  0  0  0  0  0  0  0  0
    2.6937   -7.6742   11.2528 H   0  0  0  0  0  0  0  0  0  0  0  0
    4.1450   -9.6317    8.7620 H   0  0  0  0  0  0  0  0  0  0  0  0
    6.4204   -2.1702    8.2964 H   0  0  0  0  0  0  0  0  0  0  0  0
    7.3309   -1.6247   10.5586 H   0  0  0  0  0  0  0  0  0  0  0  0
    3.1366    0.5755    8.9291 H   0  0  0  0  0  0  0  0  0  0  0  0
    3.4593    3.6397   12.8496 H   0  0  0  0  0  0  0  0  0  0  0  0
    2.4634    2.3144   13.4422 H   0  0  0  0  0  0  0  0  0  0  0  0
    0.5108    3.1567   12.0655 H   0  0  0  0  0  0  0  0  0  0  0  0
    1.5205    4.4895   11.4604 H   0  0  0  0  0  0  0  0  0  0  0  0
    4.2639    0.6332   13.5094 H   0  0  0  0  0  0  0  0  0  0  0  0
    5.1384    2.1424   13.1700 H   0  0  0  0  0  0  0  0  0  0  0  0
    6.3284   -0.4578   13.0938 H   0  0  0  0  0  0  0  0  0  0  0  0
    7.0170    0.9703   12.3044 H   0  0  0  0  0  0  0  0  0  0  0  0
    1.4652    0.0380   -1.0387 H   0  0  0  0  0  0  0  0  0  0  0  0
    2.4576   -0.9651    0.0470 H   0  0  0  0  0  0  0  0  0  0  0  0
    2.3499   -1.3609   -1.6926 H   0  0  0  0  0  0  0  0  0  0  0  0
    2.6033    1.7049   -2.6490 H   0  0  0  0  0  0  0  0  0  0  0  0
    3.2610    0.2280   -3.3880 H   0  0  0  0  0  0  0  0  0  0  0  0
    4.3533    1.5551   -2.9510 H   0  0  0  0  0  0  0  0  0  0  0  0
    5.0200   -1.0263   -0.2698 H   0  0  0  0  0  0  0  0  0  0  0  0
    5.8067    0.0903   -1.4213 H   0  0  0  0  0  0  0  0  0  0  0  0
    4.8435   -1.2743   -2.0189 H   0  0  0  0  0  0  0  0  0  0  0  0
  1  2  1  0
  1 44  1  0
  1 45  1  0
  1 46  1  0
  2  3  1  1
  2  4  1  0
  2 40  1  0
  4  5  1  0
  4 47  1  0
  5  6  1  0
  5 48  1  0
  5 49  1  0
  6  7  2  0
  6 11  1  0
  7  8  1  0
  7 50  1  0
  8  9  2  0
  8 51  1  0
  9 10  1  0
  9 25  1  0
 10 11  2  0
 10 12  1  0
 11 52  1  0
 12 13  2  0
 13 14  1  0
 13 25  1  0
 14 15  1  0
 14 53  1  0
 15 16  2  0
 15 17  1  0
 17 18  2  0
 17 24  1  0
 18 19  1  0
 18 54  1  0
 19 20  2  0
 19 55  1  0
 20 21  1  0
 20 24  1  0
 21 22  1  0
 21 23  1  0
 21 56  1  6
 25 26  1  0
 26 27  2  0
 26 31  1  0
 27 28  1  0
 27 57  1  0
 28 29  2  0
 28 58  1  0
 29 30  1  0
 29 39  1  0
 30 31  2  0
 30 32  1  0
 31 59  1  0
 32 33  1  0
 32 38  1  0
 33 34  2  0
 33 35  1  0
 35 36  1  0
 35 60  1  0
 35 61  1  0
 36 37  1  0
 36 62  1  0
 36 63  1  0
 38 39  1  0
 38 64  1  0
 38 65  1  0
 39 66  1  0
 39 67  1  0
 40 41  1  1
 40 42  1  0
 40 43  1  0
 41 68  1  0
 41 69  1  0
 41 70  1  0
 42 71  1  0
 42 72  1  0
 42 73  1  0
 43 74  1  0
 43 75  1  0
 43 76  1  0
M  END

