
     RDKit          3D

 40 41  0  0  0  0  0  0  0  0999 V2000
    0.8332    1.4792    0.8239 C   0  0  0  0  0  0  0  0  0  0  0  0
    2.1561    2.2186    0.8559 C   0  0  0  0  0  0  0  0  0  0  0  0
    3.2044    1.2608    0.7437 O   0  0  0  0  0  0  0  0  0  0  0  0
    4.4960    1.6666    0.7530 C   0  0  0  0  0  0  0  0  0  0  0  0
    4.9050    3.0013    0.8876 C   0  0  0  0  0  0  0  0  0  0  0  0
    6.2629    3.3318    0.9433 C   0  0  0  0  0  0  0  0  0  0  0  0
    7.2306    2.3346    0.8680 C   0  0  0  0  0  0  0  0  0  0  0  0
    6.8429    0.9958    0.7134 C   0  0  0  0  0  0  0  0  0  0  0  0
    7.8659   -0.1136    0.6955 C   0  0  0  0  0  0  0  0  0  0  0  0
    7.7171   -1.0234   -0.4081 N   0  0  0  0  0  0  0  0  0  0  0  0
    8.1039   -2.4493   -0.4013 C   0  0  0  0  0  0  0  0  0  0  0  0
    7.8448   -3.1751   -1.6690 C   0  0  0  0  0  0  0  0  0  0  0  0
    8.7660   -3.1668   -2.7793 C   0  0  0  0  0  0  0  0  0  0  0  0
    8.4346   -3.8204   -3.9475 C   0  0  0  0  0  0  0  0  0  0  0  0
    7.2740   -4.5067   -4.1734 N   0  0  0  0  0  0  0  0  0  0  0  0
    6.4300   -4.5587   -3.0996 C   0  0  0  0  0  0  0  0  0  0  0  0
    6.6454   -3.9472   -1.8823 C   0  0  0  0  0  0  0  0  0  0  0  0
    5.4804    0.6508    0.6388 C   0  0  0  0  0  0  0  0  0  0  0  0
    5.1980   -0.6737    0.5195 O   0  0  0  0  0  0  0  0  0  0  0  0
    4.1599   -1.1390   -0.3528 C   0  0  0  0  0  0  0  0  0  0  0  0
    0.0010    2.1938    0.9161 H   0  0  0  0  0  0  0  0  0  0  0  0
    0.7669    0.7612    1.6554 H   0  0  0  0  0  0  0  0  0  0  0  0
    0.7128    0.9290   -0.1216 H   0  0  0  0  0  0  0  0  0  0  0  0
    2.2682    2.7821    1.8005 H   0  0  0  0  0  0  0  0  0  0  0  0
    2.2227    2.9438    0.0239 H   0  0  0  0  0  0  0  0  0  0  0  0
    4.1602    3.7928    0.9639 H   0  0  0  0  0  0  0  0  0  0  0  0
    6.5581    4.3773    1.0526 H   0  0  0  0  0  0  0  0  0  0  0  0
    8.2915    2.5902    0.9239 H   0  0  0  0  0  0  0  0  0  0  0  0
    7.8512   -0.7181    1.6187 H   0  0  0  0  0  0  0  0  0  0  0  0
    8.8832    0.3217    0.6280 H   0  0  0  0  0  0  0  0  0  0  0  0
    7.3350   -0.6635   -1.2835 H   0  0  0  0  0  0  0  0  0  0  0  0
    7.5552   -2.8667    0.4645 H   0  0  0  0  0  0  0  0  0  0  0  0
    9.1684   -2.4312   -0.0868 H   0  0  0  0  0  0  0  0  0  0  0  0
    9.7339   -2.6582   -2.7059 H   0  0  0  0  0  0  0  0  0  0  0  0
    9.1481   -3.8069   -4.7827 H   0  0  0  0  0  0  0  0  0  0  0  0
    5.5142   -5.1485   -3.2426 H   0  0  0  0  0  0  0  0  0  0  0  0
    5.9152   -4.0841   -1.0765 H   0  0  0  0  0  0  0  0  0  0  0  0
    4.4421   -2.1575   -0.6489 H   0  0  0  0  0  0  0  0  0  0  0  0
    4.0901   -0.5099   -1.2543 H   0  0  0  0  0  0  0  0  0  0  0  0
    3.1894   -1.1444    0.1599 H   0  0  0  0  0  0  0  0  0  0  0  0
  1  2  1  0
  1 21  1  0
  1 22  1  0
  1 23  1  0
  2  3  1  0
  2 24  1  0
  2 25  1  0
  3  4  1  0
  4  5  2  0
  4 18  1  0
  5  6  1  0
  5 26  1  0
  6  7  2  0
  6 27  1  0
  7  8  1  0
  7 28  1  0
  8  9  1  0
  8 18  2  0
  9 10  1  0
  9 29  1  0
  9 30  1  0
 10 11  1  0
 10 31  1  0
 11 12  1  0
 11 32  1  0
 11 33  1  0
 12 13  2  0
 12 17  1  0
 13 14  1  0
 13 34  1  0
 14 15  2  0
 14 35  1  0
 15 16  1  0
 16 17  2  0
 16 36  1  0
 17 37  1  0
 18 19  1  0
 19 20  1  0
 20 38  1  0
 20 39  1  0
 20 40  1  0
M  END

