
     RDKit          3D

 71 75  0  0  0  0  0  0  0  0999 V2000
   13.6478    2.9040    0.9973 C   0  0  0  0  0  0  0  0  0  0  0  0
   14.3372    2.2171   -0.1887 C   0  0  1  0  0  0  0  0  0  0  0  0
   15.8553    2.4370   -0.1374 C   0  0  0  0  0  0  0  0  0  0  0  0
   13.9497    0.7292   -0.2445 C   0  0  0  0  0  0  0  0  0  0  0  0
   14.4447   -0.0268   -1.4805 C   0  0  0  0  0  0  0  0  0  0  0  0
   13.7973   -1.4013   -1.6208 C   0  0  0  0  0  0  0  0  0  0  0  0
   12.6288   -1.6102   -1.3198 O   0  0  0  0  0  0  0  0  0  0  0  0
   14.6023   -2.3835   -2.1195 N   0  0  0  0  0  0  0  0  0  0  0  0
   14.0734   -3.6675   -2.4953 C   0  0  2  0  0  0  0  0  0  0  0  0
   14.0056   -4.7699   -1.4231 C   0  0  0  0  0  0  0  0  0  0  0  0
   12.4143   -6.6001   -2.3376 C   0  0  2  0  0  0  0  0  0  0  0  0
   12.4876   -7.7324   -3.2044 O   0  0  0  0  0  0  0  0  0  0  0  0
   11.8177   -6.9940   -0.9194 C   0  0  2  0  0  0  0  0  0  0  0  0
   10.7533   -5.9275   -0.5624 C   0  0  0  0  0  0  0  0  0  0  0  0
   10.4995   -5.2363   -1.8684 C   0  0  0  0  0  0  0  0  0  0  0  0
   11.3801   -5.5919   -2.8401 C   0  0  0  0  0  0  0  0  0  0  0  0
   11.1646   -5.2612   -4.3272 C   0  0  0  0  0  0  0  0  0  0  0  0
   11.0524   -3.7814   -4.8098 C   0  0  0  0  0  0  0  0  0  0  0  0
   11.9408   -3.2730   -5.4471 O   0  0  0  0  0  0  0  0  0  0  0  0
    9.7862   -2.9596   -4.3785 C   0  0  0  0  0  0  0  0  0  0  0  0
    9.9061   -3.1937   -2.9125 C   0  0  0  0  0  0  0  0  0  0  0  0
    9.4371   -4.3334   -2.3504 C   0  0  0  0  0  0  0  0  0  0  0  0
   13.8982   -6.1202   -2.2082 C   0  0  2  0  0  0  0  0  0  0  0  0
   14.6856   -7.2735   -1.5296 C   0  0  0  0  0  0  0  0  0  0  0  0
   13.9210   -8.0031   -0.4128 C   0  0  0  0  0  0  0  0  0  0  0  0
   12.8287   -7.1897    0.1053 N   0  0  0  0  0  0  0  0  0  0  0  0
   12.2649   -7.7023    1.3532 C   0  0  0  0  0  0  0  0  0  0  0  0
   13.2210   -7.6873    2.5297 C   0  0  1  0  0  0  0  0  0  0  0  0
   13.5994   -6.3791    3.1735 C   0  0  0  0  0  0  0  0  0  0  0  0
   12.7050   -7.3451    3.9073 C   0  0  0  0  0  0  0  0  0  0  0  0
   14.5730   -5.8046   -3.5840 C   0  0  0  0  0  0  0  0  0  0  0  0
   14.9065   -4.3255   -3.5823 C   0  0  0  0  0  0  0  0  0  0  0  0
   15.7592   -3.7672   -4.2315 O   0  0  0  0  0  0  0  0  0  0  0  0
   13.8694    3.9833    1.0217 H   0  0  0  0  0  0  0  0  0  0  0  0
   13.9878    2.4733    1.9551 H   0  0  0  0  0  0  0  0  0  0  0  0
   12.5533    2.7848    0.9502 H   0  0  0  0  0  0  0  0  0  0  0  0
   13.9596    2.6912   -1.1156 H   0  0  0  0  0  0  0  0  0  0  0  0
   16.2925    1.9572    0.7559 H   0  0  0  0  0  0  0  0  0  0  0  0
   16.0997    3.5107   -0.0888 H   0  0  0  0  0  0  0  0  0  0  0  0
   16.3677    2.0257   -1.0215 H   0  0  0  0  0  0  0  0  0  0  0  0
   12.8526    0.6338   -0.2182 H   0  0  0  0  0  0  0  0  0  0  0  0
   14.3203    0.2224    0.6662 H   0  0  0  0  0  0  0  0  0  0  0  0
   15.5420   -0.1246   -1.4898 H   0  0  0  0  0  0  0  0  0  0  0  0
   14.1727    0.5395   -2.3912 H   0  0  0  0  0  0  0  0  0  0  0  0
   15.4933   -2.1358   -2.5434 H   0  0  0  0  0  0  0  0  0  0  0  0
   13.0604   -3.5261   -2.9080 H   0  0  0  0  0  0  0  0  0  0  0  0
   13.1893   -4.6035   -0.7134 H   0  0  0  0  0  0  0  0  0  0  0  0
   14.9427   -4.7548   -0.8437 H   0  0  0  0  0  0  0  0  0  0  0  0
   11.6049   -8.1220   -3.2673 H   0  0  0  0  0  0  0  0  0  0  0  0
   11.2790   -7.9555   -1.1098 H   0  0  0  0  0  0  0  0  0  0  0  0
   11.1381   -5.2192    0.1918 H   0  0  0  0  0  0  0  0  0  0  0  0
    9.8284   -6.3605   -0.1442 H   0  0  0  0  0  0  0  0  0  0  0  0
   10.2217   -5.7533   -4.6309 H   0  0  0  0  0  0  0  0  0  0  0  0
   11.9615   -5.7077   -4.9340 H   0  0  0  0  0  0  0  0  0  0  0  0
    8.8828   -3.4181   -4.8176 H   0  0  0  0  0  0  0  0  0  0  0  0
    9.9163   -1.9301   -4.7400 H   0  0  0  0  0  0  0  0  0  0  0  0
   10.8086   -2.7572   -2.4634 H   0  0  0  0  0  0  0  0  0  0  0  0
    8.5104   -4.7986   -2.7217 H   0  0  0  0  0  0  0  0  0  0  0  0
   15.6278   -6.8553   -1.1404 H   0  0  0  0  0  0  0  0  0  0  0  0
   14.9576   -8.0099   -2.2986 H   0  0  0  0  0  0  0  0  0  0  0  0
   14.6089   -8.2416    0.4095 H   0  0  0  0  0  0  0  0  0  0  0  0
   13.5332   -8.9751   -0.7950 H   0  0  0  0  0  0  0  0  0  0  0  0
   11.8698   -8.7376    1.2152 H   0  0  0  0  0  0  0  0  0  0  0  0
   11.3960   -7.0782    1.6117 H   0  0  0  0  0  0  0  0  0  0  0  0
   14.0032   -8.4535    2.5061 H   0  0  0  0  0  0  0  0  0  0  0  0
   13.1505   -5.4695    2.7638 H   0  0  0  0  0  0  0  0  0  0  0  0
   14.6269   -6.2488    3.5246 H   0  0  0  0  0  0  0  0  0  0  0  0
   11.6454   -7.0900    4.0103 H   0  0  0  0  0  0  0  0  0  0  0  0
   13.1138   -7.8904    4.7626 H   0  0  0  0  0  0  0  0  0  0  0  0
   13.9375   -6.0530   -4.4459 H   0  0  0  0  0  0  0  0  0  0  0  0
   15.5058   -6.3693   -3.7328 H   0  0  0  0  0  0  0  0  0  0  0  0
  1  2  1  0
  1 34  1  0
  1 35  1  0
  1 36  1  0
  2  3  1  0
  2  4  1  0
  2 37  1  6
  3 38  1  0
  3 39  1  0
  3 40  1  0
  4  5  1  0
  4 41  1  0
  4 42  1  0
  5  6  1  0
  5 43  1  0
  5 44  1  0
  6  7  2  0
  6  8  1  0
  8  9  1  0
  8 45  1  0
  9 10  1  0
  9 32  1  0
  9 46  1  6
 23 10  1  1
 10 47  1  0
 10 48  1  0
 11 12  1  6
 11 13  1  0
 11 16  1  0
 11 23  1  0
 12 49  1  0
 13 14  1  0
 13 26  1  0
 13 50  1  6
 14 15  1  0
 14 51  1  0
 14 52  1  0
 15 16  2  0
 15 22  1  0
 16 17  1  0
 17 18  1  0
 17 53  1  0
 17 54  1  0
 18 19  2  0
 18 20  1  0
 20 21  1  0
 20 55  1  0
 20 56  1  0
 21 22  2  0
 21 57  1  0
 22 58  1  0
 23 24  1  0
 23 31  1  0
 24 25  1  0
 24 59  1  0
 24 60  1  0
 25 26  1  0
 25 61  1  0
 25 62  1  0
 26 27  1  0
 27 28  1  0
 27 63  1  0
 27 64  1  0
 28 29  1  0
 28 30  1  0
 28 65  1  1
 29 30  1  0
 29 66  1  0
 29 67  1  0
 30 68  1  0
 30 69  1  0
 31 32  1  0
 31 70  1  0
 31 71  1  0
 32 33  2  0
M  END

