
     RDKit          3D

 30 30  0  0  0  0  0  0  0  0999 V2000
    1.0787   -0.2864    0.0769 C   0  0  0  0  0  0  0  0  0  0  0  0
    2.5876   -0.3702   -0.0703 C   0  0  0  0  0  0  0  0  0  0  0  0
    3.2058   -1.3643    0.2359 O   0  0  0  0  0  0  0  0  0  0  0  0
    3.2836    0.8693   -0.6267 C   0  0  0  0  0  0  0  0  0  0  0  0
    4.7945    0.7134   -0.7692 C   0  0  0  0  0  0  0  0  0  0  0  0
    5.4566    1.9653   -1.3227 C   0  0  0  0  0  0  0  0  0  0  0  0
    6.8474    1.7151   -1.4248 O   0  0  0  0  0  0  0  0  0  0  0  0
    7.6766    2.6734   -1.8935 C   0  0  0  0  0  0  0  0  0  0  0  0
    7.2663    3.9501   -2.3004 C   0  0  0  0  0  0  0  0  0  0  0  0
    8.1836    4.9030   -2.7791 C   0  0  0  0  0  0  0  0  0  0  0  0
    7.6977    6.2685   -3.2018 C   0  0  0  0  0  0  0  0  0  0  0  0
    9.5363    4.5560   -2.8475 C   0  0  0  0  0  0  0  0  0  0  0  0
    9.9653    3.2857   -2.4460 C   0  0  0  0  0  0  0  0  0  0  0  0
    9.0512    2.3502   -1.9733 C   0  0  0  0  0  0  0  0  0  0  0  0
    9.5916    0.7679   -1.4743 Cl  0  0  0  0  0  0  0  0  0  0  0  0
    0.6945   -1.2260    0.4949 H   0  0  0  0  0  0  0  0  0  0  0  0
    0.6065   -0.0965   -0.9015 H   0  0  0  0  0  0  0  0  0  0  0  0
    0.8000    0.5536    0.7348 H   0  0  0  0  0  0  0  0  0  0  0  0
    3.0278    1.7202    0.0332 H   0  0  0  0  0  0  0  0  0  0  0  0
    2.8108    1.1132   -1.5971 H   0  0  0  0  0  0  0  0  0  0  0  0
    5.0239   -0.1387   -1.4279 H   0  0  0  0  0  0  0  0  0  0  0  0
    5.2408    0.4677    0.2069 H   0  0  0  0  0  0  0  0  0  0  0  0
    5.2737    2.8323   -0.6583 H   0  0  0  0  0  0  0  0  0  0  0  0
    5.0423    2.2208   -2.3174 H   0  0  0  0  0  0  0  0  0  0  0  0
    6.2104    4.2194   -2.2476 H   0  0  0  0  0  0  0  0  0  0  0  0
    7.2398    6.8106   -2.3571 H   0  0  0  0  0  0  0  0  0  0  0  0
    6.9306    6.1960   -3.9909 H   0  0  0  0  0  0  0  0  0  0  0  0
    8.5206    6.8868   -3.5892 H   0  0  0  0  0  0  0  0  0  0  0  0
   10.2684    5.2785   -3.2167 H   0  0  0  0  0  0  0  0  0  0  0  0
   11.0202    3.0104   -2.4978 H   0  0  0  0  0  0  0  0  0  0  0  0
  1  2  1  0
  1 16  1  0
  1 17  1  0
  1 18  1  0
  2  3  2  0
  2  4  1  0
  4  5  1  0
  4 19  1  0
  4 20  1  0
  5  6  1  0
  5 21  1  0
  5 22  1  0
  6  7  1  0
  6 23  1  0
  6 24  1  0
  7  8  1  0
  8  9  2  0
  8 14  1  0
  9 10  1  0
  9 25  1  0
 10 11  1  0
 10 12  2  0
 11 26  1  0
 11 27  1  0
 11 28  1  0
 12 13  1  0
 12 29  1  0
 13 14  2  0
 13 30  1  0
 14 15  1  0
M  END

