
     RDKit          3D

 43 45  0  0  0  0  0  0  0  0999 V2000
    0.9677   -0.1462   -0.2820 C   0  0  0  0  0  0  0  0  0  0  0  0
    2.3595   -0.0408    0.3418 C   0  0  0  0  0  0  0  0  0  0  0  0
    2.9819   -1.3999    0.6778 C   0  0  0  0  0  0  0  0  0  0  0  0
    4.3754   -1.2941    1.3032 C   0  0  0  0  0  0  0  0  0  0  0  0
    4.9779   -2.6511    1.6264 C   0  0  0  0  0  0  0  0  0  0  0  0
    6.2612   -2.4395    2.2168 O   0  0  0  0  0  0  0  0  0  0  0  0
    7.0546   -3.4772    2.5292 C   0  0  0  0  0  0  0  0  0  0  0  0
    8.2966   -3.1627    3.1151 C   0  0  0  0  0  0  0  0  0  0  0  0
    9.1448   -4.1879    3.5233 C   0  0  0  0  0  0  0  0  0  0  0  0
    8.8077   -5.5356    3.3344 C   0  0  0  0  0  0  0  0  0  0  0  0
    7.5927   -5.8736    2.7195 C   0  0  0  0  0  0  0  0  0  0  0  0
    7.2081   -7.2601    2.4841 C   0  0  0  0  0  0  0  0  0  0  0  0
    7.4801   -8.1903    3.4587 N   0  0  0  0  0  0  0  0  0  0  0  0
    7.9127   -7.8854    4.3262 H   0  0  0  0  0  0  0  0  0  0  0  0
    7.1020   -9.5288    3.4445 C   0  0  0  0  0  0  0  0  0  0  0  0
    7.4906  -10.4944    4.7398 S   0  0  0  0  0  0  0  0  0  0  0  0
    6.4074   -9.9644    2.3454 N   0  0  0  0  0  0  0  0  0  0  0  0
    6.1577   -9.1384    1.3690 C   0  0  0  0  0  0  0  0  0  0  0  0
    5.4791   -9.6444    0.2780 N   0  0  0  0  0  0  0  0  0  0  0  0
    5.1848  -10.6164    0.3385 H   0  0  0  0  0  0  0  0  0  0  0  0
    5.2223   -8.9859   -0.8996 C   0  0  0  0  0  0  0  0  0  0  0  0
    4.4041   -9.6548   -2.1755 S   0  0  0  0  0  0  0  0  0  0  0  0
    5.7183   -7.7017   -0.9255 N   0  0  0  0  0  0  0  0  0  0  0  0
    5.5548   -7.2026   -1.7951 H   0  0  0  0  0  0  0  0  0  0  0  0
    6.3882   -7.0592    0.0966 C   0  0  0  0  0  0  0  0  0  0  0  0
    7.0075   -5.4725   -0.2836 S   0  0  0  0  0  0  0  0  0  0  0  0
    6.5557   -7.7442    1.3118 C   0  0  0  0  0  0  0  0  0  0  0  0
    6.6975   -4.8281    2.3310 C   0  0  0  0  0  0  0  0  0  0  0  0
    0.5512    0.8480   -0.5084 H   0  0  0  0  0  0  0  0  0  0  0  0
    0.2617   -0.6559    0.3950 H   0  0  0  0  0  0  0  0  0  0  0  0
    0.9918   -0.7187   -1.2244 H   0  0  0  0  0  0  0  0  0  0  0  0
    2.3080    0.5704    1.2611 H   0  0  0  0  0  0  0  0  0  0  0  0
    3.0326    0.5053   -0.3436 H   0  0  0  0  0  0  0  0  0  0  0  0
    3.0354   -2.0121   -0.2418 H   0  0  0  0  0  0  0  0  0  0  0  0
    2.3090   -1.9469    1.3644 H   0  0  0  0  0  0  0  0  0  0  0  0
    4.3322   -0.6977    2.2309 H   0  0  0  0  0  0  0  0  0  0  0  0
    5.0592   -0.7600    0.6212 H   0  0  0  0  0  0  0  0  0  0  0  0
    5.0879   -3.2664    0.7161 H   0  0  0  0  0  0  0  0  0  0  0  0
    4.3334   -3.2051    2.3346 H   0  0  0  0  0  0  0  0  0  0  0  0
    8.5544   -2.1120    3.2566 H   0  0  0  0  0  0  0  0  0  0  0  0
   10.1035   -3.9363    3.9836 H   0  0  0  0  0  0  0  0  0  0  0  0
    9.5188   -6.3154    3.6148 H   0  0  0  0  0  0  0  0  0  0  0  0
    5.6793   -5.0838    2.0472 H   0  0  0  0  0  0  0  0  0  0  0  0
  1  2  1  0
  1 29  1  0
  1 30  1  0
  1 31  1  0
  2  3  1  0
  2 32  1  0
  2 33  1  0
  3  4  1  0
  3 34  1  0
  3 35  1  0
  4  5  1  0
  4 36  1  0
  4 37  1  0
  5  6  1  0
  5 38  1  0
  5 39  1  0
  6  7  1  0
  7  8  2  0
  7 28  1  0
  8  9  1  0
  8 40  1  0
  9 10  2  0
  9 41  1  0
 10 11  1  0
 10 42  1  0
 11 12  1  0
 11 28  2  0
 12 13  1  0
 12 27  2  0
 13 14  1  0
 13 15  1  0
 15 16  2  0
 15 17  1  0
 17 18  2  0
 18 19  1  0
 18 27  1  0
 19 20  1  0
 19 21  1  0
 21 22  2  0
 21 23  1  0
 23 24  1  0
 23 25  1  0
 25 26  2  0
 25 27  1  0
 28 43  1  0
M  END

