
     RDKit          3D

 66 69  0  0  0  0  0  0  0  0999 V2000
    4.9305   -2.1315   -5.0050 C   0  0  0  0  0  0  0  0  0  0  0  0
    4.3958   -2.1574   -3.6964 O   0  0  0  0  0  0  0  0  0  0  0  0
    3.9630   -0.9928   -3.0975 C   0  0  0  0  0  0  0  0  0  0  0  0
    3.9864    0.2347   -3.7436 C   0  0  0  0  0  0  0  0  0  0  0  0
    3.5211    1.3929   -3.1015 C   0  0  0  0  0  0  0  0  0  0  0  0
    2.9894    1.3370   -1.7982 C   0  0  0  0  0  0  0  0  0  0  0  0
    2.4659    2.6204   -1.1224 C   0  0  1  0  0  0  0  0  0  0  0  0
    1.3690    3.2643   -2.0007 C   0  0  0  0  0  0  0  0  0  0  0  0
    1.8698    2.3443    0.2700 C   0  0  0  0  0  0  0  0  0  0  0  0
    3.6398    3.6136   -0.9564 C   0  0  0  0  0  0  0  0  0  0  0  0
    2.9691    0.0987   -1.1616 C   0  0  0  0  0  0  0  0  0  0  0  0
    3.4767   -1.1054   -1.7470 C   0  0  0  0  0  0  0  0  0  0  0  0
    3.4731   -2.3384   -1.0263 C   0  0  0  0  0  0  0  0  0  0  0  0
    3.6641   -3.5157   -1.6549 O   0  0  0  0  0  0  0  0  0  0  0  0
    3.2534   -2.5018    0.3925 C   0  0  0  0  0  0  0  0  0  0  0  0
    3.5794   -1.5939    1.3863 C   0  0  0  0  0  0  0  0  0  0  0  0
    4.1585   -0.5075    1.4509 O   0  0  0  0  0  0  0  0  0  0  0  0
    2.8789   -2.1917    2.7113 C   0  0  0  0  0  0  0  0  0  0  0  0
    2.8084   -1.5969    3.7563 O   0  0  0  0  0  0  0  0  0  0  0  0
    2.4364   -3.4347    2.3869 N   0  0  0  0  0  0  0  0  0  0  0  0
    1.7731   -4.3066    3.3019 C   0  0  0  0  0  0  0  0  0  0  0  0
    1.8121   -4.0909    4.6909 C   0  0  0  0  0  0  0  0  0  0  0  0
    1.1244   -4.9655    5.5328 C   0  0  0  0  0  0  0  0  0  0  0  0
    0.4097   -6.0604    5.0467 C   0  0  0  0  0  0  0  0  0  0  0  0
    0.3857   -6.2828    3.6595 C   0  0  0  0  0  0  0  0  0  0  0  0
   -0.2928   -7.3595    3.0585 N   0  0  0  0  0  0  0  0  0  0  0  0
   -1.0459   -8.3514    3.6520 C   0  0  0  0  0  0  0  0  0  0  0  0
   -1.6418   -9.3569    2.6769 C   0  0  0  0  0  0  0  0  0  0  0  0
   -1.2378   -8.4378    4.8499 O   0  0  0  0  0  0  0  0  0  0  0  0
    1.0616   -5.4035    2.7968 C   0  0  0  0  0  0  0  0  0  0  0  0
    2.6557   -3.7687    0.9653 C   0  0  2  0  0  0  0  0  0  0  0  0
    3.5338   -5.0156    0.8034 C   0  0  0  0  0  0  0  0  0  0  0  0
    4.8774   -5.0126    1.2027 C   0  0  0  0  0  0  0  0  0  0  0  0
    5.6312   -6.1712    1.0275 C   0  0  0  0  0  0  0  0  0  0  0  0
    5.0236   -7.2893    0.4489 C   0  0  0  0  0  0  0  0  0  0  0  0
    3.6792   -7.1929    0.0855 C   0  0  0  0  0  0  0  0  0  0  0  0
    2.9484   -6.0886    0.2647 N   0  0  0  0  0  0  0  0  0  0  0  0
    5.2164   -3.1639   -5.2461 H   0  0  0  0  0  0  0  0  0  0  0  0
    5.8235   -1.4860   -5.0591 H   0  0  0  0  0  0  0  0  0  0  0  0
    4.1854   -1.7803   -5.7395 H   0  0  0  0  0  0  0  0  0  0  0  0
    4.3690    0.3135   -4.7611 H   0  0  0  0  0  0  0  0  0  0  0  0
    3.5688    2.3389   -3.6431 H   0  0  0  0  0  0  0  0  0  0  0  0
    0.5216    2.5744   -2.1425 H   0  0  0  0  0  0  0  0  0  0  0  0
    1.7454    3.5411   -2.9976 H   0  0  0  0  0  0  0  0  0  0  0  0
    0.9846    4.1818   -1.5252 H   0  0  0  0  0  0  0  0  0  0  0  0
    0.9963    1.6753    0.2137 H   0  0  0  0  0  0  0  0  0  0  0  0
    1.5322    3.2893    0.7243 H   0  0  0  0  0  0  0  0  0  0  0  0
    2.6058    1.8884    0.9490 H   0  0  0  0  0  0  0  0  0  0  0  0
    4.0914    3.8796   -1.9248 H   0  0  0  0  0  0  0  0  0  0  0  0
    4.4311    3.1828   -0.3231 H   0  0  0  0  0  0  0  0  0  0  0  0
    3.2919    4.5462   -0.4818 H   0  0  0  0  0  0  0  0  0  0  0  0
    2.5247    0.0220   -0.1769 H   0  0  0  0  0  0  0  0  0  0  0  0
    3.8875   -3.3332   -2.5909 H   0  0  0  0  0  0  0  0  0  0  0  0
    2.3683   -3.2547    5.1074 H   0  0  0  0  0  0  0  0  0  0  0  0
    1.1545   -4.7897    6.6110 H   0  0  0  0  0  0  0  0  0  0  0  0
   -0.1177   -6.7406    5.7102 H   0  0  0  0  0  0  0  0  0  0  0  0
   -0.2052   -7.4066    2.0505 H   0  0  0  0  0  0  0  0  0  0  0  0
   -1.3629   -9.1930    1.6257 H   0  0  0  0  0  0  0  0  0  0  0  0
   -2.7384   -9.3218    2.7665 H   0  0  0  0  0  0  0  0  0  0  0  0
   -1.3262  -10.3661    2.9811 H   0  0  0  0  0  0  0  0  0  0  0  0
    1.0483   -5.6087    1.7269 H   0  0  0  0  0  0  0  0  0  0  0  0
    1.6892   -4.0014    0.4933 H   0  0  0  0  0  0  0  0  0  0  0  0
    5.3229   -4.1109    1.6278 H   0  0  0  0  0  0  0  0  0  0  0  0
    6.6810   -6.2003    1.3307 H   0  0  0  0  0  0  0  0  0  0  0  0
    5.5768   -8.2167    0.2844 H   0  0  0  0  0  0  0  0  0  0  0  0
    3.1666   -8.0495   -0.3681 H   0  0  0  0  0  0  0  0  0  0  0  0
  1  2  1  0
  1 38  1  0
  1 39  1  0
  1 40  1  0
  2  3  1  0
  3  4  2  0
  3 12  1  0
  4  5  1  0
  4 41  1  0
  5  6  2  0
  5 42  1  0
  6  7  1  0
  6 11  1  0
  7  8  1  6
  7  9  1  0
  7 10  1  0
  8 43  1  0
  8 44  1  0
  8 45  1  0
  9 46  1  0
  9 47  1  0
  9 48  1  0
 10 49  1  0
 10 50  1  0
 10 51  1  0
 11 12  2  0
 11 52  1  0
 12 13  1  0
 13 14  1  0
 13 15  2  0
 14 53  1  0
 15 16  1  0
 15 31  1  0
 16 17  2  0
 16 18  1  0
 18 19  2  0
 18 20  1  0
 20 21  1  0
 20 31  1  0
 21 22  2  0
 21 30  1  0
 22 23  1  0
 22 54  1  0
 23 24  2  0
 23 55  1  0
 24 25  1  0
 24 56  1  0
 25 26  1  0
 25 30  2  0
 26 27  1  0
 26 57  1  0
 27 28  1  0
 27 29  2  0
 28 58  1  0
 28 59  1  0
 28 60  1  0
 30 61  1  0
 31 32  1  0
 31 62  1  6
 32 33  2  0
 32 37  1  0
 33 34  1  0
 33 63  1  0
 34 35  2  0
 34 64  1  0
 35 36  1  0
 35 65  1  0
 36 37  2  0
 36 66  1  0
M  END

