
     RDKit          3D

 43 45  0  0  0  0  0  0  0  0999 V2000
    0.9658   -0.2261    0.0198 C   0  0  0  0  0  0  0  0  0  0  0  0
    2.4412   -0.0625   -0.1499 C   0  0  0  0  0  0  0  0  0  0  0  0
    3.0219    1.2105   -0.3970 C   0  0  0  0  0  0  0  0  0  0  0  0
    4.3839    1.3539   -0.5618 C   0  0  0  0  0  0  0  0  0  0  0  0
    5.2511    0.2162   -0.4872 C   0  0  0  0  0  0  0  0  0  0  0  0
    6.6713    0.3354   -0.6601 C   0  0  0  0  0  0  0  0  0  0  0  0
    7.4442    1.5089   -0.9206 C   0  0  0  0  0  0  0  0  0  0  0  0
    8.7706    1.0499   -1.0085 C   0  0  0  0  0  0  0  0  0  0  0  0
   10.0543    1.6252   -1.2616 C   0  0  0  0  0  0  0  0  0  0  0  0
   11.1097    0.9656   -1.3032 O   0  0  0  0  0  0  0  0  0  0  0  0
    9.9952    3.0028   -1.4677 O   0  0  0  0  0  0  0  0  0  0  0  0
   11.2561    3.6572   -1.5835 C   0  0  1  0  0  0  0  0  0  0  0  0
   11.8116    3.5687   -2.9984 C   0  0  0  0  0  0  0  0  0  0  0  0
   10.9762    5.1109   -1.1869 C   0  0  0  0  0  0  0  0  0  0  0  0
   10.9281    6.0176   -1.9966 O   0  0  0  0  0  0  0  0  0  0  0  0
   10.7346    5.4041    0.1563 N   0  0  0  0  0  0  0  0  0  0  0  0
   10.3011    6.7536    0.5201 C   0  0  0  0  0  0  0  0  0  0  0  0
   10.4153    6.7541    2.0553 C   0  0  0  0  0  0  0  0  0  0  0  0
   10.3664    5.3357    2.3556 N   0  0  0  0  0  0  0  0  0  0  0  0
   10.7567    4.5521    1.2859 C   0  0  0  0  0  0  0  0  0  0  0  0
   11.0609    3.3848    1.3291 O   0  0  0  0  0  0  0  0  0  0  0  0
    8.6679   -0.3285   -0.7922 N   0  0  0  0  0  0  0  0  0  0  0  0
    9.4751   -0.9446   -0.7909 H   0  0  0  0  0  0  0  0  0  0  0  0
    7.4321   -0.7808   -0.5843 N   0  0  0  0  0  0  0  0  0  0  0  0
    4.6614   -1.0694   -0.2349 C   0  0  0  0  0  0  0  0  0  0  0  0
    3.3019   -1.1960   -0.0728 C   0  0  0  0  0  0  0  0  0  0  0  0
    0.4327    0.7337   -0.0051 H   0  0  0  0  0  0  0  0  0  0  0  0
    0.7355   -0.7346    0.9723 H   0  0  0  0  0  0  0  0  0  0  0  0
    0.5554   -0.8725   -0.7770 H   0  0  0  0  0  0  0  0  0  0  0  0
    2.3713    2.0858   -0.4573 H   0  0  0  0  0  0  0  0  0  0  0  0
    4.8149    2.3361   -0.7525 H   0  0  0  0  0  0  0  0  0  0  0  0
    7.1158    2.5364   -1.0379 H   0  0  0  0  0  0  0  0  0  0  0  0
   11.9558    3.1971   -0.8702 H   0  0  0  0  0  0  0  0  0  0  0  0
   11.1059    4.0064   -3.7185 H   0  0  0  0  0  0  0  0  0  0  0  0
   11.9863    2.5114   -3.2377 H   0  0  0  0  0  0  0  0  0  0  0  0
   12.7643    4.1154   -3.0765 H   0  0  0  0  0  0  0  0  0  0  0  0
    9.2636    6.9206    0.1830 H   0  0  0  0  0  0  0  0  0  0  0  0
   10.9304    7.5092    0.0324 H   0  0  0  0  0  0  0  0  0  0  0  0
    9.5901    7.3087    2.5287 H   0  0  0  0  0  0  0  0  0  0  0  0
   11.3663    7.2152    2.3849 H   0  0  0  0  0  0  0  0  0  0  0  0
   10.5555    4.9703    3.2815 H   0  0  0  0  0  0  0  0  0  0  0  0
    5.3334   -1.9253   -0.1796 H   0  0  0  0  0  0  0  0  0  0  0  0
    2.8653   -2.1796    0.1184 H   0  0  0  0  0  0  0  0  0  0  0  0
  1  2  1  0
  1 27  1  0
  1 28  1  0
  1 29  1  0
  2  3  2  0
  2 26  1  0
  3  4  1  0
  3 30  1  0
  4  5  2  0
  4 31  1  0
  5  6  1  0
  5 25  1  0
  6  7  1  0
  6 24  2  0
  7  8  2  0
  7 32  1  0
  8  9  1  0
  8 22  1  0
  9 10  2  0
  9 11  1  0
 11 12  1  0
 12 13  1  0
 12 14  1  0
 12 33  1  1
 13 34  1  0
 13 35  1  0
 13 36  1  0
 14 15  2  0
 14 16  1  0
 16 17  1  0
 16 20  1  0
 17 18  1  0
 17 37  1  0
 17 38  1  0
 18 19  1  0
 18 39  1  0
 18 40  1  0
 19 20  1  0
 19 41  1  0
 20 21  2  0
 22 23  1  0
 22 24  1  0
 25 26  2  0
 25 42  1  0
 26 43  1  0
M  END

