
     RDKit          3D

 33 34  0  0  0  0  0  0  0  0999 V2000
    5.6963    2.8684    5.6547 C   0  0  0  0  0  0  0  0  0  0  0  0
    5.8720    2.4434    4.1977 C   0  0  0  0  0  0  0  0  0  0  0  0
    5.4360    0.9896    3.9451 C   0  0  0  0  0  0  0  0  0  0  0  0
    5.6553    0.5425    2.5348 C   0  0  0  0  0  0  0  0  0  0  0  0
    6.7973    0.5218    1.8694 N   0  0  0  0  0  0  0  0  0  0  0  0
    6.4498    0.0426    0.6379 C   0  0  0  0  0  0  0  0  0  0  0  0
    7.4441   -0.1555   -0.4648 C   0  0  0  0  0  0  0  0  0  0  0  0
    7.1510   -0.5719   -1.5635 O   0  0  0  0  0  0  0  0  0  0  0  0
    8.7174    0.2009   -0.0511 N   0  0  0  0  0  0  0  0  0  0  0  0
    9.9033    0.1655   -0.7729 C   0  0  0  0  0  0  0  0  0  0  0  0
   11.0894    0.5822   -0.1338 C   0  0  0  0  0  0  0  0  0  0  0  0
   12.2915    0.5567   -0.8352 C   0  0  0  0  0  0  0  0  0  0  0  0
   12.3829    0.1513   -2.1035 N   0  0  0  0  0  0  0  0  0  0  0  0
   11.2556   -0.2450   -2.7105 C   0  0  0  0  0  0  0  0  0  0  0  0
   11.4258   -0.6935   -4.1497 C   0  0  0  0  0  0  0  0  0  0  0  0
   10.5183   -1.0833   -4.8376 O   0  0  0  0  0  0  0  0  0  0  0  0
   12.6922   -0.6121   -4.5646 O   0  0  0  0  0  0  0  0  0  0  0  0
    9.9975   -0.2627   -2.1109 C   0  0  0  0  0  0  0  0  0  0  0  0
    5.1622   -0.2301    0.4987 N   0  0  0  0  0  0  0  0  0  0  0  0
    4.6764    0.0903    1.7060 N   0  0  0  0  0  0  0  0  0  0  0  0
    3.6867   -0.0226    1.9013 H   0  0  0  0  0  0  0  0  0  0  0  0
    6.0195    3.9099    5.8057 H   0  0  0  0  0  0  0  0  0  0  0  0
    6.2903    2.2334    6.3328 H   0  0  0  0  0  0  0  0  0  0  0  0
    4.6428    2.7979    5.9731 H   0  0  0  0  0  0  0  0  0  0  0  0
    6.9263    2.5471    3.8931 H   0  0  0  0  0  0  0  0  0  0  0  0
    5.2954    3.1126    3.5358 H   0  0  0  0  0  0  0  0  0  0  0  0
    4.3718    0.8602    4.2051 H   0  0  0  0  0  0  0  0  0  0  0  0
    6.0030    0.3179    4.6130 H   0  0  0  0  0  0  0  0  0  0  0  0
    8.7630    0.5301    0.9115 H   0  0  0  0  0  0  0  0  0  0  0  0
   11.0705    0.9235    0.9043 H   0  0  0  0  0  0  0  0  0  0  0  0
   13.2185    0.8782   -0.3484 H   0  0  0  0  0  0  0  0  0  0  0  0
   13.1985   -0.2666   -3.7943 H   0  0  0  0  0  0  0  0  0  0  0  0
    9.1277   -0.5983   -2.6705 H   0  0  0  0  0  0  0  0  0  0  0  0
  1  2  1  0
  1 22  1  0
  1 23  1  0
  1 24  1  0
  2  3  1  0
  2 25  1  0
  2 26  1  0
  3  4  1  0
  3 27  1  0
  3 28  1  0
  4  5  2  0
  4 20  1  0
  5  6  1  0
  6  7  1  0
  6 19  2  0
  7  8  2  0
  7  9  1  0
  9 10  1  0
  9 29  1  0
 10 11  2  0
 10 18  1  0
 11 12  1  0
 11 30  1  0
 12 13  2  0
 12 31  1  0
 13 14  1  0
 14 15  1  0
 14 18  2  0
 15 16  2  0
 15 17  1  0
 17 32  1  0
 18 33  1  0
 19 20  1  0
 20 21  1  0
M  END

