
     RDKit          3D

 64 68  0  0  0  0  0  0  0  0999 V2000
    1.7147    0.7044   -0.9848 C   0  0  0  0  0  0  0  0  0  0  0  0
    0.7903    1.4936   -0.3913 C   0  0  0  0  0  0  0  0  0  0  0  0
   -0.6648    1.3470   -0.4343 C   0  0  0  0  0  0  0  0  0  0  0  0
   -1.3352    0.3279   -1.1395 C   0  0  0  0  0  0  0  0  0  0  0  0
   -2.7237    0.2347   -1.1567 C   0  0  0  0  0  0  0  0  0  0  0  0
   -3.5295    1.1659   -0.4619 C   0  0  0  0  0  0  0  0  0  0  0  0
   -4.9306    1.0809   -0.4520 N   0  0  0  0  0  0  0  0  0  0  0  0
   -5.5850   -0.1808   -0.7907 C   0  0  0  0  0  0  0  0  0  0  0  0
   -5.3448   -1.3277    0.2295 C   0  0  1  0  0  0  0  0  0  0  0  0
   -5.9676   -1.0177    1.5903 C   0  0  0  0  0  0  0  0  0  0  0  0
   -7.3170   -1.2909    1.8684 C   0  0  0  0  0  0  0  0  0  0  0  0
   -7.8792   -0.9484    3.1015 C   0  0  0  0  0  0  0  0  0  0  0  0
   -7.1002   -0.3278    4.0833 C   0  0  0  0  0  0  0  0  0  0  0  0
   -5.7545   -0.0568    3.8218 C   0  0  0  0  0  0  0  0  0  0  0  0
   -5.1954   -0.4003    2.5873 C   0  0  0  0  0  0  0  0  0  0  0  0
   -5.7605   -2.6884   -0.3213 C   0  0  0  0  0  0  0  0  0  0  0  0
   -5.0675   -3.8368    0.0997 C   0  0  0  0  0  0  0  0  0  0  0  0
   -5.4241   -5.1065   -0.3576 C   0  0  0  0  0  0  0  0  0  0  0  0
   -6.4868   -5.2570   -1.2547 C   0  0  0  0  0  0  0  0  0  0  0  0
   -7.1836   -4.1267   -1.6862 C   0  0  0  0  0  0  0  0  0  0  0  0
   -6.8230   -2.8554   -1.2245 C   0  0  0  0  0  0  0  0  0  0  0  0
   -5.7257    2.2611   -0.3924 C   0  0  0  0  0  0  0  0  0  0  0  0
   -5.3970    3.3877   -1.1703 C   0  0  0  0  0  0  0  0  0  0  0  0
   -6.1921    4.5336   -1.1319 C   0  0  0  0  0  0  0  0  0  0  0  0
   -7.3409    4.5750   -0.3344 C   0  0  0  0  0  0  0  0  0  0  0  0
   -7.6794    3.4558    0.4306 C   0  0  0  0  0  0  0  0  0  0  0  0
   -6.8780    2.3113    0.4122 C   0  0  0  0  0  0  0  0  0  0  0  0
   -2.8636    2.1803    0.2627 C   0  0  0  0  0  0  0  0  0  0  0  0
   -1.4772    2.2658    0.2650 C   0  0  0  0  0  0  0  0  0  0  0  0
    3.1724    0.8620   -0.9434 C   0  0  0  0  0  0  0  0  0  0  0  0
    3.8254    1.9065   -0.2526 C   0  0  0  0  0  0  0  0  0  0  0  0
    5.2150    2.0075   -0.2486 C   0  0  0  0  0  0  0  0  0  0  0  0
    5.9986    1.0702   -0.9337 C   0  0  0  0  0  0  0  0  0  0  0  0
    5.3718    0.0292   -1.6237 C   0  0  0  0  0  0  0  0  0  0  0  0
    3.9796   -0.0714   -1.6270 C   0  0  0  0  0  0  0  0  0  0  0  0
    1.3720   -0.1561   -1.5694 H   0  0  0  0  0  0  0  0  0  0  0  0
    1.1361    2.3514    0.1954 H   0  0  0  0  0  0  0  0  0  0  0  0
   -0.7623   -0.4127   -1.7020 H   0  0  0  0  0  0  0  0  0  0  0  0
   -3.1814   -0.5702   -1.7320 H   0  0  0  0  0  0  0  0  0  0  0  0
   -5.2608   -0.5243   -1.7904 H   0  0  0  0  0  0  0  0  0  0  0  0
   -6.6590    0.0261   -0.8751 H   0  0  0  0  0  0  0  0  0  0  0  0
   -4.2570   -1.3776    0.3897 H   0  0  0  0  0  0  0  0  0  0  0  0
   -7.9354   -1.7880    1.1172 H   0  0  0  0  0  0  0  0  0  0  0  0
   -8.9307   -1.1742    3.2982 H   0  0  0  0  0  0  0  0  0  0  0  0
   -7.5387   -0.0629    5.0488 H   0  0  0  0  0  0  0  0  0  0  0  0
   -5.1337    0.4236    4.5827 H   0  0  0  0  0  0  0  0  0  0  0  0
   -4.1420   -0.1818    2.3922 H   0  0  0  0  0  0  0  0  0  0  0  0
   -4.2346   -3.7302    0.8008 H   0  0  0  0  0  0  0  0  0  0  0  0
   -4.8676   -5.9827   -0.0147 H   0  0  0  0  0  0  0  0  0  0  0  0
   -6.7671   -6.2495   -1.6166 H   0  0  0  0  0  0  0  0  0  0  0  0
   -8.0142   -4.2301   -2.3894 H   0  0  0  0  0  0  0  0  0  0  0  0
   -7.3859   -1.9902   -1.5816 H   0  0  0  0  0  0  0  0  0  0  0  0
   -4.5128    3.3583   -1.8099 H   0  0  0  0  0  0  0  0  0  0  0  0
   -5.9189    5.3966   -1.7450 H   0  0  0  0  0  0  0  0  0  0  0  0
   -7.9653    5.4713   -0.3105 H   0  0  0  0  0  0  0  0  0  0  0  0
   -8.5696    3.4740    1.0649 H   0  0  0  0  0  0  0  0  0  0  0  0
   -7.1377    1.4555    1.0370 H   0  0  0  0  0  0  0  0  0  0  0  0
   -3.4487    2.9041    0.8315 H   0  0  0  0  0  0  0  0  0  0  0  0
   -0.9997    3.0656    0.8388 H   0  0  0  0  0  0  0  0  0  0  0  0
    3.2385    2.6515    0.2889 H   0  0  0  0  0  0  0  0  0  0  0  0
    5.6944    2.8266    0.2942 H   0  0  0  0  0  0  0  0  0  0  0  0
    7.0883    1.1532   -0.9285 H   0  0  0  0  0  0  0  0  0  0  0  0
    5.9701   -0.7098   -2.1633 H   0  0  0  0  0  0  0  0  0  0  0  0
    3.4984   -0.8898   -2.1702 H   0  0  0  0  0  0  0  0  0  0  0  0
  1  2  2  0
  1 30  1  0
  1 36  1  0
  2  3  1  0
  2 37  1  0
  3  4  2  0
  3 29  1  0
  4  5  1  0
  4 38  1  0
  5  6  2  0
  5 39  1  0
  6  7  1  0
  6 28  1  0
  7  8  1  0
  7 22  1  0
  8  9  1  0
  8 40  1  0
  8 41  1  0
  9 10  1  0
  9 16  1  0
  9 42  1  1
 10 11  2  0
 10 15  1  0
 11 12  1  0
 11 43  1  0
 12 13  2  0
 12 44  1  0
 13 14  1  0
 13 45  1  0
 14 15  2  0
 14 46  1  0
 15 47  1  0
 16 17  2  0
 16 21  1  0
 17 18  1  0
 17 48  1  0
 18 19  2  0
 18 49  1  0
 19 20  1  0
 19 50  1  0
 20 21  2  0
 20 51  1  0
 21 52  1  0
 22 23  2  0
 22 27  1  0
 23 24  1  0
 23 53  1  0
 24 25  2  0
 24 54  1  0
 25 26  1  0
 25 55  1  0
 26 27  2  0
 26 56  1  0
 27 57  1  0
 28 29  2  0
 28 58  1  0
 29 59  1  0
 30 31  2  0
 30 35  1  0
 31 32  1  0
 31 60  1  0
 32 33  2  0
 32 61  1  0
 33 34  1  0
 33 62  1  0
 34 35  2  0
 34 63  1  0
 35 64  1  0
M  END

