
     RDKit          3D

 36 36  0  0  0  0  0  0  0  0999 V2000
    5.4953   -1.6597    0.4077 C   0  0  0  0  0  0  0  0  0  0  0  0
    6.1076   -0.7695    1.1884 C   0  0  0  0  0  0  0  0  0  0  0  0
    7.2410   -1.2903    2.4310 Cl  0  0  0  0  0  0  0  0  0  0  0  0
    5.9738    0.7378    1.1335 C   0  0  0  0  0  0  0  0  0  0  0  0
    4.9221    1.2006    0.2457 N   0  0  0  0  0  0  0  0  0  0  0  0
    3.6012    1.2568    0.8438 C   0  0  0  0  0  0  0  0  0  0  0  0
    5.2536    2.2056   -0.6945 C   0  0  0  0  0  0  0  0  0  0  0  0
    4.0939    3.0640   -1.6405 S   0  0  0  0  0  0  0  0  0  0  0  0
    6.3310    1.8578   -1.5752 N   0  0  0  0  0  0  0  0  0  0  0  0
    7.5422    2.4872   -1.6938 C   0  0  0  0  0  0  0  0  0  0  0  0
    7.9336    3.5137   -0.8000 C   0  0  0  0  0  0  0  0  0  0  0  0
    9.1898    4.0900   -0.9420 C   0  0  0  0  0  0  0  0  0  0  0  0
   10.0646    3.6770   -1.9515 C   0  0  0  0  0  0  0  0  0  0  0  0
    9.6670    2.6674   -2.8473 C   0  0  0  0  0  0  0  0  0  0  0  0
   10.6059    2.3743   -3.8111 O   0  0  0  0  0  0  0  0  0  0  0  0
   10.5204    1.3402   -4.7149 C   0  0  0  0  0  0  0  0  0  0  0  0
    9.6219    0.5336   -4.7772 O   0  0  0  0  0  0  0  0  0  0  0  0
   11.6139    1.3859   -5.5165 N   0  0  0  0  0  0  0  0  0  0  0  0
   11.8427    0.4341   -6.5822 C   0  0  0  0  0  0  0  0  0  0  0  0
    8.4141    2.0734   -2.7344 C   0  0  0  0  0  0  0  0  0  0  0  0
    5.6693   -2.7314    0.5136 H   0  0  0  0  0  0  0  0  0  0  0  0
    4.8039   -1.3026   -0.3581 H   0  0  0  0  0  0  0  0  0  0  0  0
    6.9429    1.1517    0.8144 H   0  0  0  0  0  0  0  0  0  0  0  0
    5.8217    1.1120    2.1663 H   0  0  0  0  0  0  0  0  0  0  0  0
    3.4024    0.3138    1.3744 H   0  0  0  0  0  0  0  0  0  0  0  0
    2.8455    1.3912    0.0572 H   0  0  0  0  0  0  0  0  0  0  0  0
    3.4960    2.0937    1.5647 H   0  0  0  0  0  0  0  0  0  0  0  0
    6.1202    1.1720   -2.3080 H   0  0  0  0  0  0  0  0  0  0  0  0
    7.2344    3.8451   -0.0336 H   0  0  0  0  0  0  0  0  0  0  0  0
    9.4988    4.8839   -0.2582 H   0  0  0  0  0  0  0  0  0  0  0  0
   11.0512    4.1271   -2.0712 H   0  0  0  0  0  0  0  0  0  0  0  0
   12.2882    2.1202   -5.3382 H   0  0  0  0  0  0  0  0  0  0  0  0
   10.9906   -0.2569   -6.6105 H   0  0  0  0  0  0  0  0  0  0  0  0
   12.7632   -0.1498   -6.4132 H   0  0  0  0  0  0  0  0  0  0  0  0
   11.9213    0.9371   -7.5605 H   0  0  0  0  0  0  0  0  0  0  0  0
    8.1147    1.2911   -3.4273 H   0  0  0  0  0  0  0  0  0  0  0  0
  1  2  2  0
  1 21  1  0
  1 22  1  0
  2  3  1  0
  2  4  1  0
  4  5  1  0
  4 23  1  0
  4 24  1  0
  5  6  1  0
  5  7  1  0
  6 25  1  0
  6 26  1  0
  6 27  1  0
  7  8  2  0
  7  9  1  0
  9 10  1  0
  9 28  1  0
 10 11  2  0
 10 20  1  0
 11 12  1  0
 11 29  1  0
 12 13  2  0
 12 30  1  0
 13 14  1  0
 13 31  1  0
 14 15  1  0
 14 20  2  0
 15 16  1  0
 16 17  2  0
 16 18  1  0
 18 19  1  0
 18 32  1  0
 19 33  1  0
 19 34  1  0
 19 35  1  0
 20 36  1  0
M  END

