
     RDKit          3D

 70 73  0  0  0  0  0  0  0  0999 V2000
    7.4280   -1.6566  -12.4170 C   0  0  0  0  0  0  0  0  0  0  0  0
    6.3485   -1.5400  -11.4973 O   0  0  0  0  0  0  0  0  0  0  0  0
    6.4519   -0.7856  -10.3984 C   0  0  0  0  0  0  0  0  0  0  0  0
    5.2988   -0.7517   -9.5716 C   0  0  0  0  0  0  0  0  0  0  0  0
    5.3498    0.0216   -8.4204 C   0  0  0  0  0  0  0  0  0  0  0  0
    6.5151    0.7446   -8.0794 C   0  0  0  0  0  0  0  0  0  0  0  0
    6.5984    1.5114   -6.9748 O   0  0  0  0  0  0  0  0  0  0  0  0
    5.6295    1.4683   -5.9580 C   0  0  2  0  0  0  0  0  0  0  0  0
    5.3889    0.4183   -5.7157 H   0  0  0  0  0  0  0  0  0  0  0  0
    4.4836    2.1497   -6.4061 O   0  0  0  0  0  0  0  0  0  0  0  0
    3.4276    2.1909   -5.4503 C   0  0  2  0  0  0  0  0  0  0  0  0
    3.1413    1.1620   -5.1592 H   0  0  0  0  0  0  0  0  0  0  0  0
    2.2497    2.8456   -6.1696 C   0  0  0  0  0  0  0  0  0  0  0  0
    1.1286    3.0005   -5.2999 O   0  0  0  0  0  0  0  0  0  0  0  0
    0.3040    1.9309   -5.1518 C   0  0  0  0  0  0  0  0  0  0  0  0
   -0.8424    2.2592   -4.2323 C   0  0  0  0  0  0  0  0  0  0  0  0
    0.4979    0.8736   -5.6960 O   0  0  0  0  0  0  0  0  0  0  0  0
    3.8746    2.9265   -4.1841 C   0  0  2  0  0  0  0  0  0  0  0  0
    3.0882    2.8895   -3.4183 H   0  0  0  0  0  0  0  0  0  0  0  0
    4.1356    4.2947   -4.5289 O   0  0  0  0  0  0  0  0  0  0  0  0
    3.8550    5.2594   -3.6161 C   0  0  0  0  0  0  0  0  0  0  0  0
    4.2310    6.6180   -4.1474 C   0  0  0  0  0  0  0  0  0  0  0  0
    3.3761    5.0354   -2.5335 O   0  0  0  0  0  0  0  0  0  0  0  0
    5.1520    2.2704   -3.6373 C   0  0  2  0  0  0  0  0  0  0  0  0
    4.8966    1.2616   -3.2833 H   0  0  0  0  0  0  0  0  0  0  0  0
    5.6848    3.0257   -2.5535 O   0  0  0  0  0  0  0  0  0  0  0  0
    5.1675    2.7730   -1.3163 C   0  0  0  0  0  0  0  0  0  0  0  0
    5.7018    3.7459   -0.3026 C   0  0  0  0  0  0  0  0  0  0  0  0
    4.3670    1.8989   -1.1095 O   0  0  0  0  0  0  0  0  0  0  0  0
    6.2179    2.1986   -4.7352 C   0  0  1  0  0  0  0  0  0  0  0  0
    6.4649    3.2169   -5.0646 H   0  0  0  0  0  0  0  0  0  0  0  0
    7.4591    1.6654   -4.2849 O   0  0  0  0  0  0  0  0  0  0  0  0
    7.5752    0.3679   -3.9191 C   0  0  0  0  0  0  0  0  0  0  0  0
    8.9968    0.0553   -3.5399 C   0  0  0  0  0  0  0  0  0  0  0  0
    6.6531   -0.4124   -3.9232 O   0  0  0  0  0  0  0  0  0  0  0  0
    7.7069    0.7235   -8.9063 C   0  0  0  0  0  0  0  0  0  0  0  0
    8.9453    1.4177   -8.6373 C   0  0  0  0  0  0  0  0  0  0  0  0
    9.9595    1.3610   -9.5142 N   0  0  0  0  0  0  0  0  0  0  0  0
   11.0492    2.0290   -9.0888 C   0  0  0  0  0  0  0  0  0  0  0  0
   12.2776    2.1662   -9.7934 C   0  0  0  0  0  0  0  0  0  0  0  0
   13.3180    2.8882   -9.2224 C   0  0  0  0  0  0  0  0  0  0  0  0
   13.1864    3.4931   -7.9558 C   0  0  0  0  0  0  0  0  0  0  0  0
   11.9864    3.3772   -7.2367 C   0  0  0  0  0  0  0  0  0  0  0  0
   10.9367    2.6538   -7.7996 C   0  0  0  0  0  0  0  0  0  0  0  0
    9.3392    2.3432   -7.1440 S   0  0  0  0  0  0  0  0  0  0  0  0
    7.6239   -0.0629  -10.0665 C   0  0  0  0  0  0  0  0  0  0  0  0
    7.0751   -2.3214  -13.2145 H   0  0  0  0  0  0  0  0  0  0  0  0
    8.3132   -2.0956  -11.9309 H   0  0  0  0  0  0  0  0  0  0  0  0
    7.6929   -0.6749  -12.8398 H   0  0  0  0  0  0  0  0  0  0  0  0
    4.4085   -1.3082   -9.8630 H   0  0  0  0  0  0  0  0  0  0  0  0
    4.4681    0.1061   -7.7879 H   0  0  0  0  0  0  0  0  0  0  0  0
    1.9789    2.2332   -7.0406 H   0  0  0  0  0  0  0  0  0  0  0  0
    2.5338    3.8545   -6.4933 H   0  0  0  0  0  0  0  0  0  0  0  0
   -1.3804    3.1456   -4.6010 H   0  0  0  0  0  0  0  0  0  0  0  0
   -0.4560    2.5074   -3.2314 H   0  0  0  0  0  0  0  0  0  0  0  0
   -1.5200    1.4000   -4.1686 H   0  0  0  0  0  0  0  0  0  0  0  0
    5.3260    6.6781   -4.2507 H   0  0  0  0  0  0  0  0  0  0  0  0
    3.8827    7.3932   -3.4549 H   0  0  0  0  0  0  0  0  0  0  0  0
    3.8009    6.7740   -5.1476 H   0  0  0  0  0  0  0  0  0  0  0  0
    6.7578    3.9817   -0.4930 H   0  0  0  0  0  0  0  0  0  0  0  0
    5.5634    3.3406    0.7071 H   0  0  0  0  0  0  0  0  0  0  0  0
    5.1192    4.6766   -0.3989 H   0  0  0  0  0  0  0  0  0  0  0  0
    9.6471    0.2439   -4.4087 H   0  0  0  0  0  0  0  0  0  0  0  0
    9.0737   -0.9908   -3.2217 H   0  0  0  0  0  0  0  0  0  0  0  0
    9.3286    0.7276   -2.7343 H   0  0  0  0  0  0  0  0  0  0  0  0
   12.3770    1.6984  -10.7751 H   0  0  0  0  0  0  0  0  0  0  0  0
   14.2610    2.9913   -9.7668 H   0  0  0  0  0  0  0  0  0  0  0  0
   14.0206    4.0559   -7.5303 H   0  0  0  0  0  0  0  0  0  0  0  0
   11.8809    3.8464   -6.2552 H   0  0  0  0  0  0  0  0  0  0  0  0
    8.5167   -0.0943  -10.6883 H   0  0  0  0  0  0  0  0  0  0  0  0
  1  2  1  0
  1 47  1  0
  1 48  1  0
  1 49  1  0
  2  3  1  0
  3  4  2  0
  3 46  1  0
  4  5  1  0
  4 50  1  0
  5  6  2  0
  5 51  1  0
  6  7  1  0
  6 36  1  0
  7  8  1  0
  8  9  1  1
  8 10  1  0
  8 30  1  0
 10 11  1  0
 11 12  1  1
 11 13  1  0
 11 18  1  0
 13 14  1  0
 13 52  1  0
 13 53  1  0
 14 15  1  0
 15 16  1  0
 15 17  2  0
 16 54  1  0
 16 55  1  0
 16 56  1  0
 18 19  1  1
 18 20  1  0
 18 24  1  0
 20 21  1  0
 21 22  1  0
 21 23  2  0
 22 57  1  0
 22 58  1  0
 22 59  1  0
 24 25  1  1
 24 26  1  0
 24 30  1  0
 26 27  1  0
 27 28  1  0
 27 29  2  0
 28 60  1  0
 28 61  1  0
 28 62  1  0
 30 31  1  6
 30 32  1  0
 32 33  1  0
 33 34  1  0
 33 35  2  0
 34 63  1  0
 34 64  1  0
 34 65  1  0
 36 37  1  0
 36 46  2  0
 37 38  2  0
 37 45  1  0
 38 39  1  0
 39 40  2  0
 39 44  1  0
 40 41  1  0
 40 66  1  0
 41 42  2  0
 41 67  1  0
 42 43  1  0
 42 68  1  0
 43 44  2  0
 43 69  1  0
 44 45  1  0
 46 70  1  0
M  END

