
     RDKit          3D

 54 56  0  0  0  0  0  0  0  0999 V2000
    7.6436   -7.7173   -2.9078 C   0  0  0  0  0  0  0  0  0  0  0  0
    8.4624   -6.5014   -2.5370 C   0  0  0  0  0  0  0  0  0  0  0  0
    7.5930   -5.3445   -2.5979 O   0  0  0  0  0  0  0  0  0  0  0  0
    8.0237   -4.1307   -2.3242 C   0  0  0  0  0  0  0  0  0  0  0  0
    9.3604   -3.8119   -1.9472 C   0  0  0  0  0  0  0  0  0  0  0  0
    9.7013   -2.5093   -1.6824 C   0  0  0  0  0  0  0  0  0  0  0  0
    8.7191   -1.4686   -1.7900 C   0  0  0  0  0  0  0  0  0  0  0  0
    9.1246   -0.2632   -1.4792 O   0  0  0  0  0  0  0  0  0  0  0  0
    8.6689    0.9651   -2.1309 C   0  0  1  0  0  0  0  0  0  0  0  0
    8.6253    2.0661   -1.0895 C   0  0  0  0  0  0  0  0  0  0  0  0
    9.6305    1.2657   -3.3187 C   0  0  0  0  0  0  0  0  0  0  0  0
    9.1770    1.8623   -4.2795 O   0  0  0  0  0  0  0  0  0  0  0  0
   10.8942    0.8863   -3.0788 N   0  0  0  0  0  0  0  0  0  0  0  0
   11.8652    0.7020   -4.0657 N   0  0  0  0  0  0  0  0  0  0  0  0
   12.7423   -0.3943   -3.6342 C   0  0  0  0  0  0  0  0  0  0  0  0
   12.3807   -1.0394   -2.6034 O   0  0  0  0  0  0  0  0  0  0  0  0
   13.8993   -0.5999   -4.3946 C   0  0  0  0  0  0  0  0  0  0  0  0
   14.9639   -1.5084   -4.1302 C   0  0  0  0  0  0  0  0  0  0  0  0
   16.0178   -1.4214   -5.0565 C   0  0  0  0  0  0  0  0  0  0  0  0
   15.8204   -0.4751   -6.0574 C   0  0  0  0  0  0  0  0  0  0  0  0
   14.2704    0.3435   -5.8681 S   0  0  0  0  0  0  0  0  0  0  0  0
   16.8055   -0.1106   -7.1255 C   0  0  0  0  0  0  0  0  0  0  0  0
   17.9158   -1.1733   -7.2165 C   0  0  0  0  0  0  0  0  0  0  0  0
   18.4296   -1.6267   -5.8345 C   0  0  1  0  0  0  0  0  0  0  0  0
   19.1028   -0.4875   -5.0561 C   0  0  0  0  0  0  0  0  0  0  0  0
   17.2722   -2.2684   -5.0399 C   0  0  0  0  0  0  0  0  0  0  0  0
    7.3860   -1.7843   -2.1976 C   0  0  0  0  0  0  0  0  0  0  0  0
    7.0476   -3.0903   -2.4436 C   0  0  0  0  0  0  0  0  0  0  0  0
    8.2822   -8.6122   -2.8693 H   0  0  0  0  0  0  0  0  0  0  0  0
    7.2398   -7.6240   -3.9266 H   0  0  0  0  0  0  0  0  0  0  0  0
    6.8068   -7.8579   -2.2079 H   0  0  0  0  0  0  0  0  0  0  0  0
    9.2980   -6.3421   -3.2363 H   0  0  0  0  0  0  0  0  0  0  0  0
    8.8673   -6.5762   -1.5152 H   0  0  0  0  0  0  0  0  0  0  0  0
   10.1277   -4.5828   -1.9068 H   0  0  0  0  0  0  0  0  0  0  0  0
   10.7355   -2.2123   -1.4975 H   0  0  0  0  0  0  0  0  0  0  0  0
    7.6814    0.8041   -2.5830 H   0  0  0  0  0  0  0  0  0  0  0  0
    9.6121    2.1942   -0.6218 H   0  0  0  0  0  0  0  0  0  0  0  0
    7.8787    1.8547   -0.3085 H   0  0  0  0  0  0  0  0  0  0  0  0
    8.3537    3.0044   -1.5937 H   0  0  0  0  0  0  0  0  0  0  0  0
   11.1230    0.2454   -2.3023 H   0  0  0  0  0  0  0  0  0  0  0  0
   12.3889    1.5642   -4.2321 H   0  0  0  0  0  0  0  0  0  0  0  0
   14.9448   -2.1772   -3.2708 H   0  0  0  0  0  0  0  0  0  0  0  0
   17.2575    0.8836   -6.9256 H   0  0  0  0  0  0  0  0  0  0  0  0
   16.3141   -0.0087   -8.1111 H   0  0  0  0  0  0  0  0  0  0  0  0
   18.7533   -0.7886   -7.8242 H   0  0  0  0  0  0  0  0  0  0  0  0
   17.5223   -2.0587   -7.7466 H   0  0  0  0  0  0  0  0  0  0  0  0
   19.1943   -2.4062   -6.0058 H   0  0  0  0  0  0  0  0  0  0  0  0
   18.3818    0.2996   -4.7854 H   0  0  0  0  0  0  0  0  0  0  0  0
   19.9093   -0.0209   -5.6467 H   0  0  0  0  0  0  0  0  0  0  0  0
   19.5478   -0.8617   -4.1193 H   0  0  0  0  0  0  0  0  0  0  0  0
   17.5867   -2.4612   -3.9993 H   0  0  0  0  0  0  0  0  0  0  0  0
   17.0504   -3.2607   -5.4761 H   0  0  0  0  0  0  0  0  0  0  0  0
    6.6367   -0.9989   -2.2826 H   0  0  0  0  0  0  0  0  0  0  0  0
    6.0351   -3.3748   -2.7318 H   0  0  0  0  0  0  0  0  0  0  0  0
  1  2  1  0
  1 29  1  0
  1 30  1  0
  1 31  1  0
  2  3  1  0
  2 32  1  0
  2 33  1  0
  3  4  1  0
  4  5  2  0
  4 28  1  0
  5  6  1  0
  5 34  1  0
  6  7  2  0
  6 35  1  0
  7  8  1  0
  7 27  1  0
  8  9  1  0
  9 10  1  0
  9 11  1  0
  9 36  1  6
 10 37  1  0
 10 38  1  0
 10 39  1  0
 11 12  2  0
 11 13  1  0
 13 14  1  0
 13 40  1  0
 14 15  1  0
 14 41  1  0
 15 16  2  0
 15 17  1  0
 17 18  2  0
 17 21  1  0
 18 19  1  0
 18 42  1  0
 19 20  2  0
 19 26  1  0
 20 21  1  0
 20 22  1  0
 22 23  1  0
 22 43  1  0
 22 44  1  0
 23 24  1  0
 23 45  1  0
 23 46  1  0
 24 25  1  0
 24 26  1  0
 24 47  1  6
 25 48  1  0
 25 49  1  0
 25 50  1  0
 26 51  1  0
 26 52  1  0
 27 28  2  0
 27 53  1  0
 28 54  1  0
M  END

