
     RDKit          3D

 52 56  0  0  0  0  0  0  0  0999 V2000
    3.1239   -4.2849   -1.7384 N   0  0  0  0  0  0  0  0  0  0  0  0
    3.7235   -3.2940   -1.7610 C   0  0  0  0  0  0  0  0  0  0  0  0
    4.5012   -2.0550   -1.7659 C   0  0  0  0  0  0  0  0  0  0  0  0
    5.5375   -2.0112   -0.6258 C   0  0  0  0  0  0  0  0  0  0  0  0
    6.2773   -0.7658   -0.6392 N   0  0  0  0  0  0  0  0  0  0  0  0
    7.6056   -0.5790   -0.8659 C   0  0  0  0  0  0  0  0  0  0  0  0
    7.8467    0.7933   -0.7995 C   0  0  0  0  0  0  0  0  0  0  0  0
    9.1170    1.5049   -0.9703 C   0  0  0  0  0  0  0  0  0  0  0  0
    9.1544    2.9037   -1.1530 C   0  0  0  0  0  0  0  0  0  0  0  0
   10.3484    3.5900   -1.3262 C   0  0  0  0  0  0  0  0  0  0  0  0
   11.5750    2.8887   -1.3311 C   0  0  0  0  0  0  0  0  0  0  0  0
   12.7629    3.5904   -1.5224 N   0  0  0  0  0  0  0  0  0  0  0  0
   12.7362    5.0277   -1.4313 N   0  0  0  0  0  0  0  0  0  0  0  0
   13.9438    5.4546   -1.6160 N   0  0  0  0  0  0  0  0  0  0  0  0
   14.7742    4.4153   -1.8294 C   0  0  0  0  0  0  0  0  0  0  0  0
   16.1058    4.4555   -2.0702 N   0  0  0  0  0  0  0  0  0  0  0  0
   16.6309    3.2584   -2.2736 C   0  0  0  0  0  0  0  0  0  0  0  0
   18.0199    3.2515   -2.5280 N   0  0  0  0  0  0  0  0  0  0  0  0
   18.8593    4.3942   -2.6375 C   0  0  1  0  0  0  0  0  0  0  0  0
   20.1255    4.3546   -1.7442 C   0  0  0  0  0  0  0  0  0  0  0  0
   20.9815    5.4631   -2.3542 C   0  0  0  0  0  0  0  0  0  0  0  0
   20.8309    5.2847   -3.8810 C   0  0  2  0  0  0  0  0  0  0  0  0
   21.0074    6.4585   -4.6314 O   0  0  0  0  0  0  0  0  0  0  0  0
   19.4378    4.6012   -4.0758 C   0  0  0  0  0  0  0  0  0  0  0  0
   16.0796    2.0469   -2.2847 N   0  0  0  0  0  0  0  0  0  0  0  0
   14.7321    1.9949   -2.0334 C   0  0  0  0  0  0  0  0  0  0  0  0
   14.0434    3.1817   -1.7842 C   0  0  0  0  0  0  0  0  0  0  0  0
   11.5593    1.4938   -1.1297 C   0  0  0  0  0  0  0  0  0  0  0  0
   10.3529    0.8253   -0.9547 C   0  0  0  0  0  0  0  0  0  0  0  0
    6.5548    1.3345   -0.5247 C   0  0  0  0  0  0  0  0  0  0  0  0
    5.6272    0.3915   -0.4300 N   0  0  0  0  0  0  0  0  0  0  0  0
    3.8217   -1.1944   -1.6618 H   0  0  0  0  0  0  0  0  0  0  0  0
    5.0069   -1.9535   -2.7404 H   0  0  0  0  0  0  0  0  0  0  0  0
    6.2570   -2.8364   -0.7211 H   0  0  0  0  0  0  0  0  0  0  0  0
    5.0279   -2.1161    0.3446 H   0  0  0  0  0  0  0  0  0  0  0  0
    8.2695   -1.4176   -1.0642 H   0  0  0  0  0  0  0  0  0  0  0  0
    8.2211    3.4705   -1.1760 H   0  0  0  0  0  0  0  0  0  0  0  0
   10.3631    4.6692   -1.4685 H   0  0  0  0  0  0  0  0  0  0  0  0
   18.3992    2.3194   -2.6903 H   0  0  0  0  0  0  0  0  0  0  0  0
   18.2341    5.2532   -2.3596 H   0  0  0  0  0  0  0  0  0  0  0  0
   20.6258    3.3747   -1.8432 H   0  0  0  0  0  0  0  0  0  0  0  0
   19.8802    4.5019   -0.6823 H   0  0  0  0  0  0  0  0  0  0  0  0
   22.0310    5.4440   -2.0256 H   0  0  0  0  0  0  0  0  0  0  0  0
   20.5677    6.4476   -2.0702 H   0  0  0  0  0  0  0  0  0  0  0  0
   21.6112    4.5996   -4.2481 H   0  0  0  0  0  0  0  0  0  0  0  0
   20.4067    7.1381   -4.2935 H   0  0  0  0  0  0  0  0  0  0  0  0
   19.5432    3.6331   -4.5906 H   0  0  0  0  0  0  0  0  0  0  0  0
   18.7653    5.2192   -4.6890 H   0  0  0  0  0  0  0  0  0  0  0  0
   14.2665    1.0099   -2.0612 H   0  0  0  0  0  0  0  0  0  0  0  0
   12.4918    0.9352   -1.0718 H   0  0  0  0  0  0  0  0  0  0  0  0
   10.3772   -0.2527   -0.7784 H   0  0  0  0  0  0  0  0  0  0  0  0
    6.2788    2.3781   -0.3774 H   0  0  0  0  0  0  0  0  0  0  0  0
  1  2  3  0
  2  3  1  0
  3  4  1  0
  3 32  1  0
  3 33  1  0
  4  5  1  0
  4 34  1  0
  4 35  1  0
  5  6  1  0
  5 31  1  0
  6  7  2  0
  6 36  1  0
  7  8  1  0
  7 30  1  0
  8  9  2  0
  8 29  1  0
  9 10  1  0
  9 37  1  0
 10 11  2  0
 10 38  1  0
 11 12  1  0
 11 28  1  0
 12 13  1  0
 12 27  1  0
 13 14  2  0
 14 15  1  0
 15 16  1  0
 15 27  2  0
 16 17  2  0
 17 18  1  0
 17 25  1  0
 18 19  1  0
 18 39  1  0
 19 20  1  0
 19 24  1  0
 19 40  1  1
 20 21  1  0
 20 41  1  0
 20 42  1  0
 21 22  1  0
 21 43  1  0
 21 44  1  0
 22 23  1  0
 22 24  1  0
 22 45  1  6
 23 46  1  0
 24 47  1  0
 24 48  1  0
 25 26  2  0
 26 27  1  0
 26 49  1  0
 28 29  2  0
 28 50  1  0
 29 51  1  0
 30 31  2  0
 30 52  1  0
M  END

