
     RDKit          3D

 51 53  0  0  0  0  0  0  0  0999 V2000
    2.4960    2.5536    1.2633 C   0  0  0  0  0  0  0  0  0  0  0  0
    3.6259    1.7299    0.6891 C   0  0  0  0  0  0  0  0  0  0  0  0
    3.7520    2.0638   -0.7167 O   0  0  0  0  0  0  0  0  0  0  0  0
    4.6638    1.5217   -1.4928 C   0  0  0  0  0  0  0  0  0  0  0  0
    5.6195    0.5522   -1.0645 C   0  0  0  0  0  0  0  0  0  0  0  0
    6.5316    0.0618   -1.9697 C   0  0  0  0  0  0  0  0  0  0  0  0
    6.5445    0.5019   -3.3283 C   0  0  0  0  0  0  0  0  0  0  0  0
    7.5782    0.0142   -4.2787 C   0  0  0  0  0  0  0  0  0  0  0  0
    8.3141   -1.1439   -3.8667 N   0  0  0  0  0  0  0  0  0  0  0  0
    9.7556   -0.9792   -3.9406 C   0  0  0  0  0  0  0  0  0  0  0  0
   10.1740    0.1855   -4.0832 O   0  0  0  0  0  0  0  0  0  0  0  0
   10.5603   -2.1534   -3.8284 C   0  0  0  0  0  0  0  0  0  0  0  0
   11.9997   -2.0564   -3.9748 C   0  0  0  0  0  0  0  0  0  0  0  0
   12.7995   -3.1789   -3.9144 C   0  0  0  0  0  0  0  0  0  0  0  0
   12.2661   -4.4707   -3.6919 C   0  0  0  0  0  0  0  0  0  0  0  0
   10.8566   -4.5523   -3.5028 C   0  0  0  0  0  0  0  0  0  0  0  0
   10.1412   -6.1261   -3.1113 S   0  0  1  0  0  0  0  0  0  0  0  0
    8.6764   -6.0289   -3.1529 O   0  0  0  0  0  0  0  0  0  0  0  0
   10.8534   -7.1787   -3.8371 O   0  0  0  0  0  0  0  0  0  0  0  0
   10.5633   -6.4617   -1.4757 N   0  0  0  0  0  0  0  0  0  0  0  0
   10.1347   -5.7255   -0.3569 C   0  0  0  0  0  0  0  0  0  0  0  0
    8.7772   -5.4033   -0.1658 C   0  0  0  0  0  0  0  0  0  0  0  0
    8.3800   -4.7189    0.9838 C   0  0  0  0  0  0  0  0  0  0  0  0
    9.3069   -4.3590    1.9678 C   0  0  0  0  0  0  0  0  0  0  0  0
   10.6536   -4.6848    1.7829 C   0  0  0  0  0  0  0  0  0  0  0  0
   11.0670   -5.3502    0.6280 C   0  0  0  0  0  0  0  0  0  0  0  0
   10.0242   -3.4522   -3.5593 C   0  0  0  0  0  0  0  0  0  0  0  0
    5.5764    1.4664   -3.7421 C   0  0  0  0  0  0  0  0  0  0  0  0
    4.6582    1.9681   -2.8562 C   0  0  0  0  0  0  0  0  0  0  0  0
    2.3796    2.3158    2.3310 H   0  0  0  0  0  0  0  0  0  0  0  0
    1.5470    2.3313    0.7538 H   0  0  0  0  0  0  0  0  0  0  0  0
    2.7045    3.6294    1.1691 H   0  0  0  0  0  0  0  0  0  0  0  0
    3.4283    0.6492    0.7676 H   0  0  0  0  0  0  0  0  0  0  0  0
    4.5865    1.9501    1.1808 H   0  0  0  0  0  0  0  0  0  0  0  0
    5.6323    0.2030   -0.0332 H   0  0  0  0  0  0  0  0  0  0  0  0
    7.2738   -0.6830   -1.6852 H   0  0  0  0  0  0  0  0  0  0  0  0
    8.3674    0.8162   -4.3349 H   0  0  0  0  0  0  0  0  0  0  0  0
    7.1535   -0.0298   -5.3011 H   0  0  0  0  0  0  0  0  0  0  0  0
    7.9761   -2.0245   -4.2403 H   0  0  0  0  0  0  0  0  0  0  0  0
   12.4298   -1.0699   -4.1491 H   0  0  0  0  0  0  0  0  0  0  0  0
   13.8796   -3.0714   -4.0521 H   0  0  0  0  0  0  0  0  0  0  0  0
   12.8858   -5.3652   -3.7083 H   0  0  0  0  0  0  0  0  0  0  0  0
   11.5359   -6.7581   -1.4488 H   0  0  0  0  0  0  0  0  0  0  0  0
    8.0543   -5.7065   -0.9225 H   0  0  0  0  0  0  0  0  0  0  0  0
    7.3206   -4.4824    1.1203 H   0  0  0  0  0  0  0  0  0  0  0  0
    8.9840   -3.8360    2.8715 H   0  0  0  0  0  0  0  0  0  0  0  0
   11.3951   -4.4100    2.5379 H   0  0  0  0  0  0  0  0  0  0  0  0
   12.1251   -5.5839    0.4799 H   0  0  0  0  0  0  0  0  0  0  0  0
    8.9618   -3.6096   -3.3748 H   0  0  0  0  0  0  0  0  0  0  0  0
    5.5772    1.8051   -4.7798 H   0  0  0  0  0  0  0  0  0  0  0  0
    3.9096    2.7068   -3.1456 H   0  0  0  0  0  0  0  0  0  0  0  0
  1  2  1  0
  1 30  1  0
  1 31  1  0
  1 32  1  0
  2  3  1  0
  2 33  1  0
  2 34  1  0
  3  4  1  0
  4  5  2  0
  4 29  1  0
  5  6  1  0
  5 35  1  0
  6  7  2  0
  6 36  1  0
  7  8  1  0
  7 28  1  0
  8  9  1  0
  8 37  1  0
  8 38  1  0
  9 10  1  0
  9 39  1  0
 10 11  2  0
 10 12  1  0
 12 13  2  0
 12 27  1  0
 13 14  1  0
 13 40  1  0
 14 15  2  0
 14 41  1  0
 15 16  1  0
 15 42  1  0
 16 17  1  0
 16 27  2  0
 17 18  2  0
 17 19  2  0
 17 20  1  1
 20 21  1  0
 20 43  1  0
 21 22  2  0
 21 26  1  0
 22 23  1  0
 22 44  1  0
 23 24  2  0
 23 45  1  0
 24 25  1  0
 24 46  1  0
 25 26  2  0
 25 47  1  0
 26 48  1  0
 27 49  1  0
 28 29  2  0
 28 50  1  0
 29 51  1  0
M  END

