
     RDKit          3D

126129  0  0  0  0  0  0  0  0999 V2000
    0.8907   -4.3352    6.6822 C   0  0  0  0  0  0  0  0  0  0  0  0
    2.1569   -4.3052    7.2820 O   0  0  0  0  0  0  0  0  0  0  0  0
    3.0292   -3.3573    6.7251 C   0  0  0  0  0  0  0  0  0  0  0  0
    4.3532   -3.4435    7.4649 C   0  0  0  0  0  0  0  0  0  0  0  0
    5.2281   -2.4932    6.9094 O   0  0  0  0  0  0  0  0  0  0  0  0
    6.5031   -2.4654    7.4984 C   0  0  0  0  0  0  0  0  0  0  0  0
    7.3261   -1.4099    6.7790 C   0  0  0  0  0  0  0  0  0  0  0  0
    8.6003   -1.3748    7.3794 O   0  0  0  0  0  0  0  0  0  0  0  0
    9.5475   -0.5592    6.7401 C   0  0  0  0  0  0  0  0  0  0  0  0
   10.9050   -0.8387    7.3686 C   0  0  0  0  0  0  0  0  0  0  0  0
   11.2059   -2.2460    7.2677 N   0  0  0  0  0  0  0  0  0  0  0  0
   12.4172   -2.8220    7.4360 C   0  0  0  0  0  0  0  0  0  0  0  0
   13.5779   -2.0519    7.6872 C   0  0  0  0  0  0  0  0  0  0  0  0
   14.8263   -2.6568    7.8345 C   0  0  0  0  0  0  0  0  0  0  0  0
   14.9721   -4.0688    7.7510 C   0  0  0  0  0  0  0  0  0  0  0  0
   16.2405   -4.6748    7.9069 C   0  0  0  0  0  0  0  0  0  0  0  0
   16.3508   -6.1141    7.8243 C   0  0  0  0  0  0  0  0  0  0  0  0
   17.5680   -6.6887    7.9515 N   0  0  0  0  0  0  0  0  0  0  0  0
   17.8516   -8.1033    7.9402 C   0  0  0  0  0  0  0  0  0  0  0  0
   19.3360   -8.3274    7.6917 C   0  0  0  0  0  0  0  0  0  0  0  0
   20.0497   -7.6308    8.6800 O   0  0  0  0  0  0  0  0  0  0  0  0
   21.4437   -7.5662    8.4856 C   0  0  0  0  0  0  0  0  0  0  0  0
   22.0204   -6.6452    9.5477 C   0  0  0  0  0  0  0  0  0  0  0  0
   23.4119   -6.5943    9.3631 O   0  0  0  0  0  0  0  0  0  0  0  0
   24.0889   -5.7662   10.2757 C   0  0  0  0  0  0  0  0  0  0  0  0
   25.5703   -5.8052    9.9408 C   0  0  0  0  0  0  0  0  0  0  0  0
   26.2451   -4.9823   10.8556 O   0  0  0  0  0  0  0  0  0  0  0  0
   27.6309   -4.9244   10.6549 C   0  0  0  0  0  0  0  0  0  0  0  0
   15.1841   -6.8863    7.6098 C   0  0  0  0  0  0  0  0  0  0  0  0
   13.9378   -6.2806    7.4503 C   0  0  0  0  0  0  0  0  0  0  0  0
   13.7952   -4.8673    7.5132 C   0  0  0  0  0  0  0  0  0  0  0  0
   12.5270   -4.2615    7.3560 C   0  0  0  0  0  0  0  0  0  0  0  0
   11.3461   -5.1034    7.1204 C   0  0  0  0  0  0  0  0  0  0  0  0
   10.1967   -4.6514    6.9848 O   0  0  0  0  0  0  0  0  0  0  0  0
   11.5354   -6.4811    7.0474 N   0  0  0  0  0  0  0  0  0  0  0  0
   10.3539   -7.3061    6.7661 C   0  0  0  0  0  0  0  0  0  0  0  0
    9.9244   -7.2575    5.3052 C   0  0  0  0  0  0  0  0  0  0  0  0
   10.9608   -7.7548    4.4961 O   0  0  0  0  0  0  0  0  0  0  0  0
   10.7004   -7.7005    3.1179 C   0  0  0  0  0  0  0  0  0  0  0  0
   11.9048   -8.2735    2.3902 C   0  0  0  0  0  0  0  0  0  0  0  0
   11.6507   -8.2141    1.0089 O   0  0  0  0  0  0  0  0  0  0  0  0
   12.6850   -8.7241    0.2067 C   0  0  0  0  0  0  0  0  0  0  0  0
   12.2701   -8.5809   -1.2478 C   0  0  0  0  0  0  0  0  0  0  0  0
   13.3037   -9.0914   -2.0493 O   0  0  0  0  0  0  0  0  0  0  0  0
   13.0447   -9.0205   -3.4244 C   0  0  0  0  0  0  0  0  0  0  0  0
   12.7660   -7.1451    7.2297 C   0  0  0  0  0  0  0  0  0  0  0  0
   12.8359   -8.3651    7.2148 O   0  0  0  0  0  0  0  0  0  0  0  0
   17.4201   -3.8337    8.1512 C   0  0  0  0  0  0  0  0  0  0  0  0
   18.5656   -4.2875    8.3096 O   0  0  0  0  0  0  0  0  0  0  0  0
   17.2335   -2.4548    8.2079 N   0  0  0  0  0  0  0  0  0  0  0  0
   18.4281   -1.6253    8.4095 C   0  0  0  0  0  0  0  0  0  0  0  0
   19.2774   -1.4829    7.1529 C   0  0  0  0  0  0  0  0  0  0  0  0
   18.5256   -0.8494    6.1480 O   0  0  0  0  0  0  0  0  0  0  0  0
   19.1982   -0.7023    4.9249 C   0  0  0  0  0  0  0  0  0  0  0  0
   18.2611   -0.0036    3.9543 C   0  0  0  0  0  0  0  0  0  0  0  0
   18.9345    0.1478    2.7296 O   0  0  0  0  0  0  0  0  0  0  0  0
   18.1897    0.8016    1.7341 C   0  0  0  0  0  0  0  0  0  0  0  0
   19.0457    0.8848    0.4818 C   0  0  0  0  0  0  0  0  0  0  0  0
   18.3041    1.5429   -0.5122 O   0  0  0  0  0  0  0  0  0  0  0  0
   18.9877    1.6927   -1.7260 C   0  0  0  0  0  0  0  0  0  0  0  0
   15.9920   -1.7953    8.0957 C   0  0  0  0  0  0  0  0  0  0  0  0
   15.9053   -0.5828    8.2218 O   0  0  0  0  0  0  0  0  0  0  0  0
    0.2938   -5.1060    7.1917 H   0  0  0  0  0  0  0  0  0  0  0  0
    0.9469   -4.5887    5.6036 H   0  0  0  0  0  0  0  0  0  0  0  0
    0.3634   -3.3634    6.7739 H   0  0  0  0  0  0  0  0  0  0  0  0
    2.6230   -2.3279    6.8147 H   0  0  0  0  0  0  0  0  0  0  0  0
    3.1981   -3.5451    5.6440 H   0  0  0  0  0  0  0  0  0  0  0  0
    4.7614   -4.4705    7.3732 H   0  0  0  0  0  0  0  0  0  0  0  0
    4.1854   -3.2553    8.5450 H   0  0  0  0  0  0  0  0  0  0  0  0
    7.0136   -3.4461    7.4151 H   0  0  0  0  0  0  0  0  0  0  0  0
    6.4454   -2.2168    8.5780 H   0  0  0  0  0  0  0  0  0  0  0  0
    6.8200   -0.4262    6.8504 H   0  0  0  0  0  0  0  0  0  0  0  0
    7.3988   -1.6673    5.7036 H   0  0  0  0  0  0  0  0  0  0  0  0
    9.3031    0.5165    6.8521 H   0  0  0  0  0  0  0  0  0  0  0  0
    9.5833   -0.7815    5.6537 H   0  0  0  0  0  0  0  0  0  0  0  0
   10.8938   -0.5176    8.4289 H   0  0  0  0  0  0  0  0  0  0  0  0
   11.6732   -0.2360    6.8567 H   0  0  0  0  0  0  0  0  0  0  0  0
   10.4243   -2.9148    7.1712 H   0  0  0  0  0  0  0  0  0  0  0  0
   13.5321   -0.9681    7.7762 H   0  0  0  0  0  0  0  0  0  0  0  0
   18.3301   -6.0314    8.1849 H   0  0  0  0  0  0  0  0  0  0  0  0
   17.2713   -8.6121    7.1532 H   0  0  0  0  0  0  0  0  0  0  0  0
   17.5657   -8.5663    8.9052 H   0  0  0  0  0  0  0  0  0  0  0  0
   19.6083   -7.9586    6.6814 H   0  0  0  0  0  0  0  0  0  0  0  0
   19.5546   -9.4142    7.7195 H   0  0  0  0  0  0  0  0  0  0  0  0
   21.6887   -7.1703    7.4800 H   0  0  0  0  0  0  0  0  0  0  0  0
   21.9081   -8.5694    8.5679 H   0  0  0  0  0  0  0  0  0  0  0  0
   21.7585   -7.0320   10.5539 H   0  0  0  0  0  0  0  0  0  0  0  0
   21.5586   -5.6416    9.4527 H   0  0  0  0  0  0  0  0  0  0  0  0
   23.9378   -6.1077   11.3201 H   0  0  0  0  0  0  0  0  0  0  0  0
   23.7247   -4.7203   10.2194 H   0  0  0  0  0  0  0  0  0  0  0  0
   25.7210   -5.4617    8.8959 H   0  0  0  0  0  0  0  0  0  0  0  0
   25.9323   -6.8535    9.9918 H   0  0  0  0  0  0  0  0  0  0  0  0
   28.0555   -4.2584   11.4204 H   0  0  0  0  0  0  0  0  0  0  0  0
   27.8901   -4.5216    9.6542 H   0  0  0  0  0  0  0  0  0  0  0  0
   28.1076   -5.9216   10.7516 H   0  0  0  0  0  0  0  0  0  0  0  0
   15.2223   -7.9731    7.5664 H   0  0  0  0  0  0  0  0  0  0  0  0
    9.5227   -6.9512    7.3902 H   0  0  0  0  0  0  0  0  0  0  0  0
   10.6211   -8.3331    7.0402 H   0  0  0  0  0  0  0  0  0  0  0  0
    9.6630   -6.2204    5.0199 H   0  0  0  0  0  0  0  0  0  0  0  0
    9.0044   -7.8703    5.1936 H   0  0  0  0  0  0  0  0  0  0  0  0
   10.5229   -6.6590    2.7783 H   0  0  0  0  0  0  0  0  0  0  0  0
    9.7964   -8.2864    2.8513 H   0  0  0  0  0  0  0  0  0  0  0  0
   12.0767   -9.3162    2.7264 H   0  0  0  0  0  0  0  0  0  0  0  0
   12.8099   -7.6920    2.6604 H   0  0  0  0  0  0  0  0  0  0  0  0
   12.8822   -9.7926    0.4306 H   0  0  0  0  0  0  0  0  0  0  0  0
   13.6352   -8.1767    0.3745 H   0  0  0  0  0  0  0  0  0  0  0  0
   12.0727   -7.5115   -1.4710 H   0  0  0  0  0  0  0  0  0  0  0  0
   11.3183   -9.1272   -1.4151 H   0  0  0  0  0  0  0  0  0  0  0  0
   13.9118   -9.4422   -3.9539 H   0  0  0  0  0  0  0  0  0  0  0  0
   12.8966   -7.9757   -3.7672 H   0  0  0  0  0  0  0  0  0  0  0  0
   12.1423   -9.6001   -3.7089 H   0  0  0  0  0  0  0  0  0  0  0  0
   19.0405   -2.0813    9.1988 H   0  0  0  0  0  0  0  0  0  0  0  0
   18.0713   -0.6396    8.7295 H   0  0  0  0  0  0  0  0  0  0  0  0
   19.6289   -2.4771    6.8165 H   0  0  0  0  0  0  0  0  0  0  0  0
   20.1787   -0.8862    7.4098 H   0  0  0  0  0  0  0  0  0  0  0  0
   19.5016   -1.6844    4.5065 H   0  0  0  0  0  0  0  0  0  0  0  0
   20.1233   -0.1000    5.0398 H   0  0  0  0  0  0  0  0  0  0  0  0
   17.9599    0.9771    4.3753 H   0  0  0  0  0  0  0  0  0  0  0  0
   17.3361   -0.6041    3.8361 H   0  0  0  0  0  0  0  0  0  0  0  0
   17.9000    1.8245    2.0510 H   0  0  0  0  0  0  0  0  0  0  0  0
   17.2519    0.2552    1.5046 H   0  0  0  0  0  0  0  0  0  0  0  0
   19.3338   -0.1389    0.1634 H   0  0  0  0  0  0  0  0  0  0  0  0
   19.9857    1.4277    0.7142 H   0  0  0  0  0  0  0  0  0  0  0  0
   18.3213    2.2169   -2.4269 H   0  0  0  0  0  0  0  0  0  0  0  0
   19.2674    0.7152   -2.1703 H   0  0  0  0  0  0  0  0  0  0  0  0
   19.9163    2.2888   -1.6103 H   0  0  0  0  0  0  0  0  0  0  0  0
  1  2  1  0
  1 63  1  0
  1 64  1  0
  1 65  1  0
  2  3  1  0
  3  4  1  0
  3 66  1  0
  3 67  1  0
  4  5  1  0
  4 68  1  0
  4 69  1  0
  5  6  1  0
  6  7  1  0
  6 70  1  0
  6 71  1  0
  7  8  1  0
  7 72  1  0
  7 73  1  0
  8  9  1  0
  9 10  1  0
  9 74  1  0
  9 75  1  0
 10 11  1  0
 10 76  1  0
 10 77  1  0
 11 12  1  0
 11 78  1  0
 12 13  2  0
 12 32  1  0
 13 14  1  0
 13 79  1  0
 14 15  2  0
 14 61  1  0
 15 16  1  0
 15 31  1  0
 16 17  2  0
 16 48  1  0
 17 18  1  0
 17 29  1  0
 18 19  1  0
 18 80  1  0
 19 20  1  0
 19 81  1  0
 19 82  1  0
 20 21  1  0
 20 83  1  0
 20 84  1  0
 21 22  1  0
 22 23  1  0
 22 85  1  0
 22 86  1  0
 23 24  1  0
 23 87  1  0
 23 88  1  0
 24 25  1  0
 25 26  1  0
 25 89  1  0
 25 90  1  0
 26 27  1  0
 26 91  1  0
 26 92  1  0
 27 28  1  0
 28 93  1  0
 28 94  1  0
 28 95  1  0
 29 30  2  0
 29 96  1  0
 30 31  1  0
 30 46  1  0
 31 32  2  0
 32 33  1  0
 33 34  2  0
 33 35  1  0
 35 36  1  0
 35 46  1  0
 36 37  1  0
 36 97  1  0
 36 98  1  0
 37 38  1  0
 37 99  1  0
 37100  1  0
 38 39  1  0
 39 40  1  0
 39101  1  0
 39102  1  0
 40 41  1  0
 40103  1  0
 40104  1  0
 41 42  1  0
 42 43  1  0
 42105  1  0
 42106  1  0
 43 44  1  0
 43107  1  0
 43108  1  0
 44 45  1  0
 45109  1  0
 45110  1  0
 45111  1  0
 46 47  2  0
 48 49  2  0
 48 50  1  0
 50 51  1  0
 50 61  1  0
 51 52  1  0
 51112  1  0
 51113  1  0
 52 53  1  0
 52114  1  0
 52115  1  0
 53 54  1  0
 54 55  1  0
 54116  1  0
 54117  1  0
 55 56  1  0
 55118  1  0
 55119  1  0
 56 57  1  0
 57 58  1  0
 57120  1  0
 57121  1  0
 58 59  1  0
 58122  1  0
 58123  1  0
 59 60  1  0
 60124  1  0
 60125  1  0
 60126  1  0
 61 62  2  0
M  END

