
     RDKit          3D

 64 67  0  0  0  0  0  0  0  0999 V2000
   -4.8321    4.2637   -8.3054 C   0  0  0  0  0  0  0  0  0  0  0  0
   -4.4107    5.1539   -7.1348 C   0  0  0  0  0  0  0  0  0  0  0  0
   -3.0356    5.6237   -7.2098 N   0  0  0  0  0  0  0  0  0  0  0  0
   -2.0046    4.8380   -6.7410 C   0  0  0  0  0  0  0  0  0  0  0  0
   -2.1836    3.7968   -6.1228 O   0  0  0  0  0  0  0  0  0  0  0  0
   -0.7334    5.3216   -6.9914 N   0  0  0  0  0  0  0  0  0  0  0  0
    0.4199    4.6137   -6.4548 C   0  0  0  0  0  0  0  0  0  0  0  0
    1.5024    5.7039   -6.4266 C   0  0  1  0  0  0  0  0  0  0  0  0
    1.3700    6.3075   -5.5144 H   0  0  0  0  0  0  0  0  0  0  0  0
    2.8647    5.1464   -6.4393 N   0  0  0  0  0  0  0  0  0  0  0  0
    4.1009    5.9804   -5.5421 S   0  0  1  0  0  0  0  0  0  0  0  0
    3.4591    6.8143   -4.5225 O   0  0  0  0  0  0  0  0  0  0  0  0
    5.0341    4.9088   -5.1962 O   0  0  0  0  0  0  0  0  0  0  0  0
    4.8367    7.0508   -6.7551 C   0  0  0  0  0  0  0  0  0  0  0  0
    4.5584    8.4255   -6.7281 C   0  0  0  0  0  0  0  0  0  0  0  0
    5.1331    9.2542   -7.6815 C   0  0  0  0  0  0  0  0  0  0  0  0
    5.9918    8.7236   -8.6680 C   0  0  0  0  0  0  0  0  0  0  0  0
    6.4914    9.6066   -9.5487 O   0  0  0  0  0  0  0  0  0  0  0  0
    7.3627    9.1591  -10.6089 C   0  0  0  0  0  0  0  0  0  0  0  0
    7.7514   10.3161  -11.4703 C   0  0  0  0  0  0  0  0  0  0  0  0
    9.0688   10.8229  -11.4084 C   0  0  0  0  0  0  0  0  0  0  0  0
    9.4754   11.8702  -12.2351 C   0  0  0  0  0  0  0  0  0  0  0  0
   10.8427   12.4868  -12.2743 C   0  0  0  0  0  0  0  0  0  0  0  0
    8.5129   12.3269  -13.0415 N   0  0  0  0  0  0  0  0  0  0  0  0
    7.2352   11.9890  -13.2343 C   0  0  0  0  0  0  0  0  0  0  0  0
    6.3649   12.5857  -14.1630 C   0  0  0  0  0  0  0  0  0  0  0  0
    5.0378   12.1360  -14.2546 C   0  0  0  0  0  0  0  0  0  0  0  0
    4.5770   11.1133  -13.4307 C   0  0  0  0  0  0  0  0  0  0  0  0
    5.4392   10.5128  -12.4977 C   0  0  0  0  0  0  0  0  0  0  0  0
    6.7861   10.9004  -12.3673 C   0  0  0  0  0  0  0  0  0  0  0  0
    6.2790    7.3436   -8.6700 C   0  0  0  0  0  0  0  0  0  0  0  0
    5.7022    6.5127   -7.7111 C   0  0  0  0  0  0  0  0  0  0  0  0
    1.1297    6.5965   -7.6386 C   0  0  1  0  0  0  0  0  0  0  0  0
    1.5693    7.6031   -7.5437 H   0  0  0  0  0  0  0  0  0  0  0  0
    1.5409    6.0938   -9.0447 C   0  0  0  0  0  0  0  0  0  0  0  0
    0.9023    6.3762  -10.0255 O   0  0  0  0  0  0  0  0  0  0  0  0
    2.6672    5.3831   -9.1178 O   0  0  0  0  0  0  0  0  0  0  0  0
   -0.3977    6.6470   -7.5141 C   0  0  0  0  0  0  0  0  0  0  0  0
   -5.8837    3.9514   -8.1972 H   0  0  0  0  0  0  0  0  0  0  0  0
   -4.2081    3.3577   -8.3417 H   0  0  0  0  0  0  0  0  0  0  0  0
   -4.7346    4.7909   -9.2693 H   0  0  0  0  0  0  0  0  0  0  0  0
   -4.5061    4.5977   -6.1916 H   0  0  0  0  0  0  0  0  0  0  0  0
   -5.0690    6.0364   -7.0654 H   0  0  0  0  0  0  0  0  0  0  0  0
   -2.8259    6.3310   -7.9038 H   0  0  0  0  0  0  0  0  0  0  0  0
    0.7241    3.7715   -7.1074 H   0  0  0  0  0  0  0  0  0  0  0  0
    0.2015    4.1973   -5.4602 H   0  0  0  0  0  0  0  0  0  0  0  0
    2.9078    4.1851   -6.0905 H   0  0  0  0  0  0  0  0  0  0  0  0
    3.9045    8.8295   -5.9534 H   0  0  0  0  0  0  0  0  0  0  0  0
    4.9393   10.3283   -7.6907 H   0  0  0  0  0  0  0  0  0  0  0  0
    6.8278    8.3888  -11.1955 H   0  0  0  0  0  0  0  0  0  0  0  0
    8.2579    8.6916  -10.1650 H   0  0  0  0  0  0  0  0  0  0  0  0
    9.8049   10.4032  -10.7191 H   0  0  0  0  0  0  0  0  0  0  0  0
   11.4992   11.9883  -11.5499 H   0  0  0  0  0  0  0  0  0  0  0  0
   10.8012   13.5617  -12.0299 H   0  0  0  0  0  0  0  0  0  0  0  0
   11.2918   12.3953  -13.2777 H   0  0  0  0  0  0  0  0  0  0  0  0
    6.7388   13.3880  -14.7991 H   0  0  0  0  0  0  0  0  0  0  0  0
    4.3670   12.6041  -14.9790 H   0  0  0  0  0  0  0  0  0  0  0  0
    3.5409   10.7754  -13.4994 H   0  0  0  0  0  0  0  0  0  0  0  0
    5.0554    9.7334  -11.8377 H   0  0  0  0  0  0  0  0  0  0  0  0
    6.9485    6.9095   -9.4114 H   0  0  0  0  0  0  0  0  0  0  0  0
    5.9344    5.4459   -7.7010 H   0  0  0  0  0  0  0  0  0  0  0  0
    2.9977    5.1976   -8.2043 H   0  0  0  0  0  0  0  0  0  0  0  0
   -0.8382    6.8368   -8.5051 H   0  0  0  0  0  0  0  0  0  0  0  0
   -0.7200    7.4494   -6.8237 H   0  0  0  0  0  0  0  0  0  0  0  0
  1  2  1  0
  1 39  1  0
  1 40  1  0
  1 41  1  0
  2  3  1  0
  2 42  1  0
  2 43  1  0
  3  4  1  0
  3 44  1  0
  4  5  2  0
  4  6  1  0
  6  7  1  0
  6 38  1  0
  7  8  1  0
  7 45  1  0
  7 46  1  0
  8  9  1  1
  8 10  1  0
  8 33  1  0
 11 10  1  6
 10 47  1  0
 11 12  2  0
 11 13  2  0
 11 14  1  0
 14 15  2  0
 14 32  1  0
 15 16  1  0
 15 48  1  0
 16 17  2  0
 16 49  1  0
 17 18  1  0
 17 31  1  0
 18 19  1  0
 19 20  1  0
 19 50  1  0
 19 51  1  0
 20 21  2  0
 20 30  1  0
 21 22  1  0
 21 52  1  0
 22 23  1  0
 22 24  2  0
 23 53  1  0
 23 54  1  0
 23 55  1  0
 24 25  1  0
 25 26  1  0
 25 30  2  0
 26 27  2  0
 26 56  1  0
 27 28  1  0
 27 57  1  0
 28 29  2  0
 28 58  1  0
 29 30  1  0
 29 59  1  0
 31 32  2  0
 31 60  1  0
 32 61  1  0
 33 34  1  1
 33 35  1  0
 33 38  1  0
 35 36  2  0
 35 37  1  0
 37 62  1  0
 38 63  1  0
 38 64  1  0
M  END

