
     RDKit          3D

 59 61  0  0  0  0  0  0  0  0999 V2000
    9.1086   -6.6208   -1.2921 C   0  0  0  0  0  0  0  0  0  0  0  0
    8.2552   -5.9445   -0.2149 C   0  0  0  0  0  0  0  0  0  0  0  0
    8.2325   -4.3970   -0.2200 C   0  0  1  0  0  0  0  0  0  0  0  0
    9.6076   -3.8101    0.0954 C   0  0  0  0  0  0  0  0  0  0  0  0
    7.7057   -3.8196   -1.5500 C   0  0  0  0  0  0  0  0  0  0  0  0
    6.3054   -4.1444   -1.7433 N   0  0  0  0  0  0  0  0  0  0  0  0
    5.9234   -4.8309   -2.8782 C   0  0  0  0  0  0  0  0  0  0  0  0
    6.7423   -5.2001   -3.7297 O   0  0  0  0  0  0  0  0  0  0  0  0
    4.5775   -5.0836   -3.0056 N   0  0  0  0  0  0  0  0  0  0  0  0
    4.1302   -5.9414   -4.0856 C   0  0  2  0  0  0  0  0  0  0  0  0
    4.9082   -6.7028   -4.2901 H   0  0  0  0  0  0  0  0  0  0  0  0
    3.9563   -5.1253   -5.3776 C   0  0  0  0  0  0  0  0  0  0  0  0
    2.8489   -6.6681   -3.6098 C   0  0  2  0  0  0  0  0  0  0  0  0
    2.1473   -5.8811   -3.2506 H   0  0  0  0  0  0  0  0  0  0  0  0
    3.1010   -7.6011   -2.4196 C   0  0  0  0  0  0  0  0  0  0  0  0
    1.8621   -8.3988   -2.0383 C   0  0  0  0  0  0  0  0  0  0  0  0
    1.2071   -9.1061   -3.2356 C   0  0  0  0  0  0  0  0  0  0  0  0
    0.9973   -8.1535   -4.3142 N   0  0  0  0  0  0  0  0  0  0  0  0
   -0.3009   -7.9466   -4.8983 C   0  0  1  0  0  0  0  0  0  0  0  0
   -1.5696   -8.0369   -4.0117 C   0  0  0  0  0  0  0  0  0  0  0  0
   -2.1521   -6.8674   -4.8479 C   0  0  0  0  0  0  0  0  0  0  0  0
   -0.7239   -6.5239   -5.3463 C   0  0  0  0  0  0  0  0  0  0  0  0
    2.1659   -7.4118   -4.7752 C   0  0  0  0  0  0  0  0  0  0  0  0
    5.4420   -3.6707   -0.6671 C   0  0  0  0  0  0  0  0  0  0  0  0
    5.9945   -4.1286    0.6776 C   0  0  0  0  0  0  0  0  0  0  0  0
    7.3892   -3.9278    0.8462 O   0  0  0  0  0  0  0  0  0  0  0  0
    9.1040   -7.7142   -1.1488 H   0  0  0  0  0  0  0  0  0  0  0  0
   10.1619   -6.2969   -1.2633 H   0  0  0  0  0  0  0  0  0  0  0  0
    8.7124   -6.4209   -2.3001 H   0  0  0  0  0  0  0  0  0  0  0  0
    8.5885   -6.2517    0.7917 H   0  0  0  0  0  0  0  0  0  0  0  0
    7.2194   -6.3078   -0.3188 H   0  0  0  0  0  0  0  0  0  0  0  0
   10.3436   -4.0580   -0.6840 H   0  0  0  0  0  0  0  0  0  0  0  0
    9.9710   -4.1950    1.0608 H   0  0  0  0  0  0  0  0  0  0  0  0
    9.5358   -2.7145    0.1739 H   0  0  0  0  0  0  0  0  0  0  0  0
    8.2710   -4.1983   -2.4098 H   0  0  0  0  0  0  0  0  0  0  0  0
    7.8242   -2.7190   -1.5109 H   0  0  0  0  0  0  0  0  0  0  0  0
    3.9814   -5.0753   -2.1213 H   0  0  0  0  0  0  0  0  0  0  0  0
    3.7515   -5.7524   -6.2632 H   0  0  0  0  0  0  0  0  0  0  0  0
    4.8994   -4.5955   -5.5678 H   0  0  0  0  0  0  0  0  0  0  0  0
    3.1530   -4.3769   -5.2713 H   0  0  0  0  0  0  0  0  0  0  0  0
    3.3590   -6.9348   -1.5449 H   0  0  0  0  0  0  0  0  0  0  0  0
    3.9655   -8.2583   -2.6121 H   0  0  0  0  0  0  0  0  0  0  0  0
    1.1195   -7.7172   -1.5757 H   0  0  0  0  0  0  0  0  0  0  0  0
    2.0905   -9.1659   -1.2827 H   0  0  0  0  0  0  0  0  0  0  0  0
    0.2471   -9.5787   -2.9806 H   0  0  0  0  0  0  0  0  0  0  0  0
    1.8810   -9.8858   -3.6319 H   0  0  0  0  0  0  0  0  0  0  0  0
   -0.3775   -8.6544   -5.7497 H   0  0  0  0  0  0  0  0  0  0  0  0
   -1.3598   -7.7311   -2.9764 H   0  0  0  0  0  0  0  0  0  0  0  0
   -2.1107   -8.9932   -4.0027 H   0  0  0  0  0  0  0  0  0  0  0  0
   -2.6758   -6.0814   -4.2884 H   0  0  0  0  0  0  0  0  0  0  0  0
   -2.8026   -7.2219   -5.6607 H   0  0  0  0  0  0  0  0  0  0  0  0
   -0.2499   -5.7499   -4.7258 H   0  0  0  0  0  0  0  0  0  0  0  0
   -0.5876   -6.2692   -6.4061 H   0  0  0  0  0  0  0  0  0  0  0  0
    1.8493   -6.7307   -5.5747 H   0  0  0  0  0  0  0  0  0  0  0  0
    2.8590   -8.1524   -5.2128 H   0  0  0  0  0  0  0  0  0  0  0  0
    4.4073   -4.1332   -0.7317 H   0  0  0  0  0  0  0  0  0  0  0  0
    5.3629   -2.5653   -0.7101 H   0  0  0  0  0  0  0  0  0  0  0  0
    5.7150   -5.1982    0.8041 H   0  0  0  0  0  0  0  0  0  0  0  0
    5.5053   -3.5642    1.4897 H   0  0  0  0  0  0  0  0  0  0  0  0
  1  2  1  0
  1 27  1  0
  1 28  1  0
  1 29  1  0
  3  2  1  6
  2 30  1  0
  2 31  1  0
  3  4  1  0
  3  5  1  0
  3 26  1  0
  4 32  1  0
  4 33  1  0
  4 34  1  0
  5  6  1  0
  5 35  1  0
  5 36  1  0
  6  7  1  0
  6 24  1  0
  7  8  2  0
  7  9  1  0
  9 10  1  0
  9 37  1  0
 10 11  1  6
 10 12  1  0
 10 13  1  0
 12 38  1  0
 12 39  1  0
 12 40  1  0
 13 14  1  1
 13 15  1  0
 13 23  1  0
 15 16  1  0
 15 41  1  0
 15 42  1  0
 16 17  1  0
 16 43  1  0
 16 44  1  0
 17 18  1  0
 17 45  1  0
 17 46  1  0
 18 19  1  0
 18 23  1  0
 19 20  1  0
 19 22  1  0
 19 47  1  6
 20 21  1  0
 20 48  1  0
 20 49  1  0
 21 22  1  0
 21 50  1  0
 21 51  1  0
 22 52  1  0
 22 53  1  0
 23 54  1  0
 23 55  1  0
 24 25  1  0
 24 56  1  0
 24 57  1  0
 25 26  1  0
 25 58  1  0
 25 59  1  0
M  END

