
     RDKit          3D

 36 37  0  0  0  0  0  0  0  0999 V2000
    4.1463    0.2938    0.6721 C   0  0  0  0  0  0  0  0  0  0  0  0
    2.8074    0.1480   -0.0965 C   0  0  0  0  0  0  0  0  0  0  0  0
    2.9396   -0.6762   -1.3182 C   0  0  0  0  0  0  0  0  0  0  0  0
    3.2250   -0.2650   -2.6582 C   0  0  0  0  0  0  0  0  0  0  0  0
    3.3920    1.1266   -3.1787 C   0  0  0  0  0  0  0  0  0  0  0  0
    3.3306   -1.3181   -3.4404 N   0  0  0  0  0  0  0  0  0  0  0  0
    3.1369   -2.4462   -2.6567 N   0  0  0  0  0  0  0  0  0  0  0  0
    3.1980   -3.8065   -3.2994 C   0  0  0  0  0  0  0  0  0  0  0  0
    4.4306   -4.6121   -3.0252 C   0  0  0  0  0  0  0  0  0  0  0  0
    5.3791   -4.8997   -4.0152 C   0  0  0  0  0  0  0  0  0  0  0  0
    6.4661   -5.7150   -3.7311 C   0  0  0  0  0  0  0  0  0  0  0  0
    6.5931   -6.2672   -2.3988 C   0  0  0  0  0  0  0  0  0  0  0  0
    7.6513   -7.1476   -1.9351 C   0  0  0  0  0  0  0  0  0  0  0  0
    7.8211   -7.5034   -0.7782 O   0  0  0  0  0  0  0  0  0  0  0  0
    8.5272   -7.6089   -2.8974 O   0  0  0  0  0  0  0  0  0  0  0  0
    5.5851   -5.8811   -1.4689 C   0  0  0  0  0  0  0  0  0  0  0  0
    4.5535   -5.1118   -1.7377 N   0  0  0  0  0  0  0  0  0  0  0  0
    2.8890   -2.1447   -1.3996 C   0  0  0  0  0  0  0  0  0  0  0  0
    2.6028   -3.1249   -0.3298 C   0  0  0  0  0  0  0  0  0  0  0  0
    3.9874    0.9137    1.5659 H   0  0  0  0  0  0  0  0  0  0  0  0
    4.9121    0.7760    0.0474 H   0  0  0  0  0  0  0  0  0  0  0  0
    4.5353   -0.6831    0.9939 H   0  0  0  0  0  0  0  0  0  0  0  0
    2.4407    1.1483   -0.3741 H   0  0  0  0  0  0  0  0  0  0  0  0
    2.0594   -0.3058    0.5743 H   0  0  0  0  0  0  0  0  0  0  0  0
    2.4941    1.7351   -2.9864 H   0  0  0  0  0  0  0  0  0  0  0  0
    3.5696    1.0959   -4.2610 H   0  0  0  0  0  0  0  0  0  0  0  0
    4.2458    1.6314   -2.6997 H   0  0  0  0  0  0  0  0  0  0  0  0
    3.0736   -3.5988   -4.3684 H   0  0  0  0  0  0  0  0  0  0  0  0
    2.2905   -4.3203   -2.9431 H   0  0  0  0  0  0  0  0  0  0  0  0
    5.2669   -4.4735   -5.0169 H   0  0  0  0  0  0  0  0  0  0  0  0
    7.2238   -5.8835   -4.5003 H   0  0  0  0  0  0  0  0  0  0  0  0
    8.1781   -7.3887   -3.7705 H   0  0  0  0  0  0  0  0  0  0  0  0
    5.6809   -6.2657   -0.4473 H   0  0  0  0  0  0  0  0  0  0  0  0
    3.2312   -4.0224   -0.4921 H   0  0  0  0  0  0  0  0  0  0  0  0
    1.5414   -3.4279   -0.3894 H   0  0  0  0  0  0  0  0  0  0  0  0
    2.7718   -2.6881    0.6631 H   0  0  0  0  0  0  0  0  0  0  0  0
  1  2  1  0
  1 20  1  0
  1 21  1  0
  1 22  1  0
  2  3  1  0
  2 23  1  0
  2 24  1  0
  3  4  1  0
  3 18  2  0
  4  5  1  0
  4  6  2  0
  5 25  1  0
  5 26  1  0
  5 27  1  0
  6  7  1  0
  7  8  1  0
  7 18  1  0
  8  9  1  0
  8 28  1  0
  8 29  1  0
  9 10  2  0
  9 17  1  0
 10 11  1  0
 10 30  1  0
 11 12  2  0
 11 31  1  0
 12 13  1  0
 12 16  1  0
 13 14  2  0
 13 15  1  0
 15 32  1  0
 16 17  2  0
 16 33  1  0
 18 19  1  0
 19 34  1  0
 19 35  1  0
 19 36  1  0
M  END

