
     RDKit          3D

 53 55  0  0  0  0  0  0  0  0999 V2000
    7.5098    4.1896   -8.9195 C   0  0  0  0  0  0  0  0  0  0  0  0
    8.1339    3.6082   -7.6558 C   0  0  0  0  0  0  0  0  0  0  0  0
    7.7985    1.7943   -7.5734 S   0  0  0  0  0  0  0  0  0  0  0  0
    8.6588    1.3584   -6.0620 C   0  0  0  0  0  0  0  0  0  0  0  0
    7.9365    1.1172   -4.8858 C   0  0  0  0  0  0  0  0  0  0  0  0
    8.6001    0.7361   -3.7152 C   0  0  0  0  0  0  0  0  0  0  0  0
    9.9945    0.5969   -3.6891 C   0  0  0  0  0  0  0  0  0  0  0  0
   10.7207    0.1902   -2.4190 C   0  0  0  0  0  0  0  0  0  0  0  0
   11.5779   -1.0645   -2.6231 C   0  0  0  0  0  0  0  0  0  0  0  0
   12.7351   -0.9917   -2.9985 O   0  0  0  0  0  0  0  0  0  0  0  0
   10.9178   -2.2450   -2.3907 N   0  0  0  0  0  0  0  0  0  0  0  0
   11.3956   -3.5649   -2.5535 C   0  0  0  0  0  0  0  0  0  0  0  0
   12.6418   -3.8986   -2.9572 C   0  0  0  0  0  0  0  0  0  0  0  0
   13.0749   -5.3303   -3.1110 C   0  0  0  0  0  0  0  0  0  0  0  0
   12.0329   -6.3878   -2.7661 C   0  0  0  0  0  0  0  0  0  0  0  0
   12.3439   -7.7051   -2.8791 C   0  0  0  0  0  0  0  0  0  0  0  0
   11.4700   -8.9026   -2.6602 C   0  0  0  0  0  0  0  0  0  0  0  0
   13.5993   -8.0085   -3.3964 O   0  0  0  0  0  0  0  0  0  0  0  0
   14.5382   -8.6487   -2.6387 C   0  0  0  0  0  0  0  0  0  0  0  0
   15.5856   -9.2833   -3.3212 C   0  0  0  0  0  0  0  0  0  0  0  0
   16.5927   -9.9193   -2.6022 C   0  0  0  0  0  0  0  0  0  0  0  0
   16.5735   -9.9416   -1.2015 C   0  0  0  0  0  0  0  0  0  0  0  0
   17.8467  -10.7590   -0.3393 Cl  0  0  0  0  0  0  0  0  0  0  0  0
   15.5234   -9.3020   -0.5245 C   0  0  0  0  0  0  0  0  0  0  0  0
   15.4543   -9.2891    1.2155 Cl  0  0  0  0  0  0  0  0  0  0  0  0
   14.5104   -8.6534   -1.2396 C   0  0  0  0  0  0  0  0  0  0  0  0
   10.7174   -5.9276   -2.3472 C   0  0  0  0  0  0  0  0  0  0  0  0
   10.4188   -4.6128   -2.2436 C   0  0  0  0  0  0  0  0  0  0  0  0
   10.7144    0.8369   -4.8726 C   0  0  0  0  0  0  0  0  0  0  0  0
   10.0552    1.2033   -6.0454 C   0  0  0  0  0  0  0  0  0  0  0  0
    7.7012    5.2733   -8.9750 H   0  0  0  0  0  0  0  0  0  0  0  0
    6.4188    4.0373   -8.9346 H   0  0  0  0  0  0  0  0  0  0  0  0
    7.9301    3.7232   -9.8246 H   0  0  0  0  0  0  0  0  0  0  0  0
    7.7159    4.0809   -6.7534 H   0  0  0  0  0  0  0  0  0  0  0  0
    9.2239    3.7643   -7.6466 H   0  0  0  0  0  0  0  0  0  0  0  0
    6.8501    1.2302   -4.8923 H   0  0  0  0  0  0  0  0  0  0  0  0
    8.0196    0.5557   -2.8053 H   0  0  0  0  0  0  0  0  0  0  0  0
    9.9969    0.0478   -1.6009 H   0  0  0  0  0  0  0  0  0  0  0  0
   11.4203    0.9824   -2.1119 H   0  0  0  0  0  0  0  0  0  0  0  0
    9.9485   -2.1682   -2.1078 H   0  0  0  0  0  0  0  0  0  0  0  0
   13.3643   -3.1175   -3.1855 H   0  0  0  0  0  0  0  0  0  0  0  0
   13.9862   -5.4953   -2.5048 H   0  0  0  0  0  0  0  0  0  0  0  0
   13.4251   -5.4922   -4.1487 H   0  0  0  0  0  0  0  0  0  0  0  0
   10.4880   -8.6380   -2.2506 H   0  0  0  0  0  0  0  0  0  0  0  0
   11.9416   -9.6212   -1.9693 H   0  0  0  0  0  0  0  0  0  0  0  0
   11.3150   -9.4349   -3.6150 H   0  0  0  0  0  0  0  0  0  0  0  0
   15.5942   -9.2657   -4.4122 H   0  0  0  0  0  0  0  0  0  0  0  0
   17.4127  -10.4165   -3.1230 H   0  0  0  0  0  0  0  0  0  0  0  0
   13.7132   -8.1438   -0.6978 H   0  0  0  0  0  0  0  0  0  0  0  0
    9.9489   -6.6634   -2.1053 H   0  0  0  0  0  0  0  0  0  0  0  0
    9.4170   -4.3132   -1.9200 H   0  0  0  0  0  0  0  0  0  0  0  0
   11.8004    0.7146   -4.8701 H   0  0  0  0  0  0  0  0  0  0  0  0
   10.6235    1.3653   -6.9645 H   0  0  0  0  0  0  0  0  0  0  0  0
  1  2  1  0
  1 31  1  0
  1 32  1  0
  1 33  1  0
  2  3  1  0
  2 34  1  0
  2 35  1  0
  3  4  1  0
  4  5  2  0
  4 30  1  0
  5  6  1  0
  5 36  1  0
  6  7  2  0
  6 37  1  0
  7  8  1  0
  7 29  1  0
  8  9  1  0
  8 38  1  0
  8 39  1  0
  9 10  2  0
  9 11  1  0
 11 12  1  0
 11 40  1  0
 12 13  2  0
 12 28  1  0
 13 14  1  0
 13 41  1  0
 14 15  1  0
 14 42  1  0
 14 43  1  0
 15 16  2  0
 15 27  1  0
 16 17  1  0
 16 18  1  0
 17 44  1  0
 17 45  1  0
 17 46  1  0
 18 19  1  0
 19 20  2  0
 19 26  1  0
 20 21  1  0
 20 47  1  0
 21 22  2  0
 21 48  1  0
 22 23  1  0
 22 24  1  0
 24 25  1  0
 24 26  2  0
 26 49  1  0
 27 28  2  0
 27 50  1  0
 28 51  1  0
 29 30  2  0
 29 52  1  0
 30 53  1  0
M  END

