
     RDKit          3D

 51 55  0  0  0  0  0  0  0  0999 V2000
    2.0339    1.1080   -0.4245 O   0  0  0  0  0  0  0  0  0  0  0  0
    2.1399   -0.0786   -0.1440 C   0  0  0  0  0  0  0  0  0  0  0  0
    1.5894   -0.5889    1.1927 C   0  0  0  0  0  0  0  0  0  0  0  0
    2.6423   -0.5892    2.2892 C   0  0  0  0  0  0  0  0  0  0  0  0
    3.4085    0.5639    2.5356 C   0  0  0  0  0  0  0  0  0  0  0  0
    4.3690    0.5876    3.5475 C   0  0  0  0  0  0  0  0  0  0  0  0
    4.5647   -0.5552    4.3214 C   0  0  0  0  0  0  0  0  0  0  0  0
    5.4873   -0.5376    5.2961 F   0  0  0  0  0  0  0  0  0  0  0  0
    3.8240   -1.7133    4.1059 C   0  0  0  0  0  0  0  0  0  0  0  0
    2.8660   -1.7207    3.0871 C   0  0  0  0  0  0  0  0  0  0  0  0
    2.7730   -0.9681   -0.9775 N   0  0  0  0  0  0  0  0  0  0  0  0
    3.0628   -2.3691   -0.7029 C   0  0  0  0  0  0  0  0  0  0  0  0
    2.6530   -3.2538   -1.8857 C   0  0  0  0  0  0  0  0  0  0  0  0
    3.2491   -2.7632   -3.1168 N   0  0  0  0  0  0  0  0  0  0  0  0
    3.7079   -3.6069   -4.1112 C   0  0  0  0  0  0  0  0  0  0  0  0
    3.9766   -3.0817   -5.3286 N   0  0  0  0  0  0  0  0  0  0  0  0
    4.4506   -3.8147   -6.3121 C   0  0  0  0  0  0  0  0  0  0  0  0
    4.7337   -5.1710   -6.2606 N   0  0  0  0  0  0  0  0  0  0  0  0
    4.4760   -5.6748   -5.0797 C   0  0  0  0  0  0  0  0  0  0  0  0
    3.9722   -5.0096   -3.9370 C   0  0  0  0  0  0  0  0  0  0  0  0
    3.8631   -5.8894   -2.9042 N   0  0  0  0  0  0  0  0  0  0  0  0
    4.2339   -7.0856   -3.2238 N   0  0  0  0  0  0  0  0  0  0  0  0
    4.6446   -6.9925   -4.6393 N   0  0  0  0  0  0  0  0  0  0  0  0
    5.1034   -8.0950   -5.2723 C   0  0  0  0  0  0  0  0  0  0  0  0
    5.1733   -9.3370   -4.5470 C   0  0  0  0  0  0  0  0  0  0  0  0
    5.6407  -10.4708   -5.1766 C   0  0  0  0  0  0  0  0  0  0  0  0
    6.0424  -10.3934   -6.5236 C   0  0  0  0  0  0  0  0  0  0  0  0
    6.4899  -11.4849   -7.1232 F   0  0  0  0  0  0  0  0  0  0  0  0
    5.9835   -9.1899   -7.2572 C   0  0  0  0  0  0  0  0  0  0  0  0
    5.5193   -8.0446   -6.6463 C   0  0  0  0  0  0  0  0  0  0  0  0
    2.9535   -1.3664   -3.4024 C   0  0  0  0  0  0  0  0  0  0  0  0
    3.3616   -0.4826   -2.2245 C   0  0  0  0  0  0  0  0  0  0  0  0
    1.1284   -1.5829    1.1093 H   0  0  0  0  0  0  0  0  0  0  0  0
    0.7889    0.1218    1.4474 H   0  0  0  0  0  0  0  0  0  0  0  0
    3.2458    1.4519    1.9197 H   0  0  0  0  0  0  0  0  0  0  0  0
    4.9680    1.4786    3.7465 H   0  0  0  0  0  0  0  0  0  0  0  0
    4.0021   -2.5901    4.7316 H   0  0  0  0  0  0  0  0  0  0  0  0
    2.2786   -2.6281    2.9196 H   0  0  0  0  0  0  0  0  0  0  0  0
    2.5393   -2.7025    0.1995 H   0  0  0  0  0  0  0  0  0  0  0  0
    4.1471   -2.4933   -0.5204 H   0  0  0  0  0  0  0  0  0  0  0  0
    1.5444   -3.2418   -1.9689 H   0  0  0  0  0  0  0  0  0  0  0  0
    2.9672   -4.2884   -1.7036 H   0  0  0  0  0  0  0  0  0  0  0  0
    4.6442   -3.3226   -7.2693 H   0  0  0  0  0  0  0  0  0  0  0  0
    4.8504   -9.3390   -3.5080 H   0  0  0  0  0  0  0  0  0  0  0  0
    5.7077  -11.4286   -4.6574 H   0  0  0  0  0  0  0  0  0  0  0  0
    6.3082   -9.1901   -8.2994 H   0  0  0  0  0  0  0  0  0  0  0  0
    5.4521   -7.0861   -7.1635 H   0  0  0  0  0  0  0  0  0  0  0  0
    1.8683   -1.2393   -3.5969 H   0  0  0  0  0  0  0  0  0  0  0  0
    3.4903   -1.0755   -4.3127 H   0  0  0  0  0  0  0  0  0  0  0  0
    3.0266    0.5511   -2.3720 H   0  0  0  0  0  0  0  0  0  0  0  0
    4.4642   -0.4817   -2.1320 H   0  0  0  0  0  0  0  0  0  0  0  0
  1  2  2  0
  2  3  1  0
  2 11  1  0
  3  4  1  0
  3 33  1  0
  3 34  1  0
  4  5  2  0
  4 10  1  0
  5  6  1  0
  5 35  1  0
  6  7  2  0
  6 36  1  0
  7  8  1  0
  7  9  1  0
  9 10  2  0
  9 37  1  0
 10 38  1  0
 11 12  1  0
 11 32  1  0
 12 13  1  0
 12 39  1  0
 12 40  1  0
 13 14  1  0
 13 41  1  0
 13 42  1  0
 14 15  1  0
 14 31  1  0
 15 16  2  0
 15 20  1  0
 16 17  1  0
 17 18  2  0
 17 43  1  0
 18 19  1  0
 19 20  2  0
 19 23  1  0
 20 21  1  0
 21 22  2  0
 22 23  1  0
 23 24  1  0
 24 25  2  0
 24 30  1  0
 25 26  1  0
 25 44  1  0
 26 27  2  0
 26 45  1  0
 27 28  1  0
 27 29  1  0
 29 30  2  0
 29 46  1  0
 30 47  1  0
 31 32  1  0
 31 48  1  0
 31 49  1  0
 32 50  1  0
 32 51  1  0
M  END

