
     RDKit          3D

 44 45  0  0  0  0  0  0  0  0999 V2000
    2.4754   -1.4463   -1.3778 C   0  0  0  0  0  0  0  0  0  0  0  0
    2.3967   -0.2077   -0.4524 C   0  0  1  0  0  0  0  0  0  0  0  0
    3.3316   -0.4584    0.7500 C   0  0  0  0  0  0  0  0  0  0  0  0
    2.9694    0.9569   -1.3167 C   0  0  0  0  0  0  0  0  0  0  0  0
    4.1555    1.2405   -1.3066 O   0  0  0  0  0  0  0  0  0  0  0  0
    2.0839    1.5553   -2.1634 N   0  0  0  0  0  0  0  0  0  0  0  0
    2.4884    2.6204   -3.0649 C   0  0  0  0  0  0  0  0  0  0  0  0
    3.0814    2.1093   -4.3974 C   0  0  0  0  0  0  0  0  0  0  0  0
    3.5529    3.2211   -5.2977 C   0  0  0  0  0  0  0  0  0  0  0  0
    4.8108    3.8418   -5.0900 C   0  0  0  0  0  0  0  0  0  0  0  0
    5.2486    4.8920   -5.8705 C   0  0  0  0  0  0  0  0  0  0  0  0
    4.4270    5.4030   -6.9381 C   0  0  0  0  0  0  0  0  0  0  0  0
    4.8462    6.4815   -7.7237 C   0  0  0  0  0  0  0  0  0  0  0  0
    6.0162    7.0727   -7.5990 O   0  0  0  0  0  0  0  0  0  0  0  0
    4.1285    7.0584   -8.6886 O   0  0  0  0  0  0  0  0  0  0  0  0
    3.1555    4.7599   -7.1599 C   0  0  0  0  0  0  0  0  0  0  0  0
    2.7500    3.7142   -6.3532 C   0  0  0  0  0  0  0  0  0  0  0  0
    0.9660    0.0743    0.0381 C   0  0  0  0  0  0  0  0  0  0  0  0
   -0.0737   -0.8526   -0.1695 C   0  0  0  0  0  0  0  0  0  0  0  0
   -1.3729   -0.6501    0.3022 C   0  0  0  0  0  0  0  0  0  0  0  0
   -1.6824    0.5105    1.0103 C   0  0  0  0  0  0  0  0  0  0  0  0
   -0.6837    1.4581    1.2344 C   0  0  0  0  0  0  0  0  0  0  0  0
    0.6127    1.2404    0.7574 C   0  0  0  0  0  0  0  0  0  0  0  0
    1.7811    2.5122    1.0829 Cl  0  0  0  0  0  0  0  0  0  0  0  0
    3.5090   -1.5544   -1.7371 H   0  0  0  0  0  0  0  0  0  0  0  0
    1.8206   -1.3534   -2.2574 H   0  0  0  0  0  0  0  0  0  0  0  0
    2.2120   -2.3695   -0.8396 H   0  0  0  0  0  0  0  0  0  0  0  0
    4.3623   -0.5882    0.3928 H   0  0  0  0  0  0  0  0  0  0  0  0
    3.0151   -1.3668    1.2852 H   0  0  0  0  0  0  0  0  0  0  0  0
    3.3285    0.3824    1.4546 H   0  0  0  0  0  0  0  0  0  0  0  0
    1.1069    1.2942   -2.1127 H   0  0  0  0  0  0  0  0  0  0  0  0
    3.2424    3.2338   -2.5490 H   0  0  0  0  0  0  0  0  0  0  0  0
    1.6151    3.2623   -3.2615 H   0  0  0  0  0  0  0  0  0  0  0  0
    2.3220    1.4968   -4.9131 H   0  0  0  0  0  0  0  0  0  0  0  0
    3.9215    1.4413   -4.1460 H   0  0  0  0  0  0  0  0  0  0  0  0
    5.4558    3.4737   -4.2863 H   0  0  0  0  0  0  0  0  0  0  0  0
    6.2236    5.3408   -5.6731 H   0  0  0  0  0  0  0  0  0  0  0  0
    3.2391    6.6775   -8.6834 H   0  0  0  0  0  0  0  0  0  0  0  0
    2.4986    5.0634   -7.9824 H   0  0  0  0  0  0  0  0  0  0  0  0
    1.7823    3.2425   -6.5507 H   0  0  0  0  0  0  0  0  0  0  0  0
    0.1371   -1.7716   -0.7158 H   0  0  0  0  0  0  0  0  0  0  0  0
   -2.1397   -1.4054    0.1141 H   0  0  0  0  0  0  0  0  0  0  0  0
   -2.6931    0.6848    1.3870 H   0  0  0  0  0  0  0  0  0  0  0  0
   -0.8956    2.3779    1.7820 H   0  0  0  0  0  0  0  0  0  0  0  0
  1  2  1  0
  1 25  1  0
  1 26  1  0
  1 27  1  0
  2  3  1  0
  2  4  1  6
  2 18  1  0
  3 28  1  0
  3 29  1  0
  3 30  1  0
  4  5  2  0
  4  6  1  0
  6  7  1  0
  6 31  1  0
  7  8  1  0
  7 32  1  0
  7 33  1  0
  8  9  1  0
  8 34  1  0
  8 35  1  0
  9 10  2  0
  9 17  1  0
 10 11  1  0
 10 36  1  0
 11 12  2  0
 11 37  1  0
 12 13  1  0
 12 16  1  0
 13 14  2  0
 13 15  1  0
 15 38  1  0
 16 17  2  0
 16 39  1  0
 17 40  1  0
 18 19  2  0
 18 23  1  0
 19 20  1  0
 19 41  1  0
 20 21  2  0
 20 42  1  0
 21 22  1  0
 21 43  1  0
 22 23  2  0
 22 44  1  0
 23 24  1  0
M  END

