
     RDKit          3D

 63 64  0  0  0  0  0  0  0  0999 V2000
    9.6635   -5.2908    5.4661 C   0  0  0  0  0  0  0  0  0  0  0  0
    8.7396   -4.2841    6.1539 C   0  0  0  0  0  0  0  0  0  0  0  0
    8.5889   -2.9772    5.3677 C   0  0  0  0  0  0  0  0  0  0  0  0
    7.5752   -1.9774    5.9532 C   0  0  1  0  0  0  0  0  0  0  0  0
    6.5865   -2.4597    5.9956 H   0  0  0  0  0  0  0  0  0  0  0  0
    7.9422   -1.4718    7.3526 C   0  0  0  0  0  0  0  0  0  0  0  0
    7.4018   -0.8475    5.0387 N   0  0  0  0  0  0  0  0  0  0  0  0
    6.2173   -0.5206    4.4666 C   0  0  0  0  0  0  0  0  0  0  0  0
    5.1695   -1.1208    4.6218 O   0  0  0  0  0  0  0  0  0  0  0  0
    6.2308    0.7478    3.5829 C   0  0  0  0  0  0  0  0  0  0  0  0
    7.5431    1.2133    3.1755 N   0  0  0  0  0  0  0  0  0  0  0  0
    8.1253    0.6034    2.0157 C   0  0  0  0  0  0  0  0  0  0  0  0
    7.6401    1.4002    0.7120 C   0  0  0  0  0  0  0  0  0  0  0  0
    7.9748    2.7698    0.8590 N   0  0  0  0  0  0  0  0  0  0  0  0
    9.2017    3.3300    0.2090 C   0  0  0  0  0  0  0  0  0  0  0  0
   10.1670    4.0033    1.1485 C   0  0  0  0  0  0  0  0  0  0  0  0
   10.0714    5.4056    1.3862 C   0  0  0  0  0  0  0  0  0  0  0  0
   10.9727    6.0022    2.3373 C   0  0  0  0  0  0  0  0  0  0  0  0
   11.8291    5.2111    3.0791 C   0  0  0  0  0  0  0  0  0  0  0  0
   12.7118    5.6936    4.0093 O   0  0  0  0  0  0  0  0  0  0  0  0
   12.8352    7.0807    4.1661 C   0  0  0  0  0  0  0  0  0  0  0  0
   11.8288    3.7686    2.9701 C   0  0  0  0  0  0  0  0  0  0  0  0
   12.9861    3.0664    3.3479 O   0  0  0  0  0  0  0  0  0  0  0  0
   13.0453    2.6949    4.7019 C   0  0  0  0  0  0  0  0  0  0  0  0
   11.0528    3.2260    1.8808 C   0  0  0  0  0  0  0  0  0  0  0  0
   11.0380    1.8351    1.6909 O   0  0  0  0  0  0  0  0  0  0  0  0
   12.1937    1.3049    1.0570 C   0  0  0  0  0  0  0  0  0  0  0  0
    7.4199    3.3966    2.0091 C   0  0  0  0  0  0  0  0  0  0  0  0
    7.8776    2.6037    3.3187 C   0  0  0  0  0  0  0  0  0  0  0  0
    9.7559   -6.2179    6.0533 H   0  0  0  0  0  0  0  0  0  0  0  0
   10.6779   -4.8788    5.3337 H   0  0  0  0  0  0  0  0  0  0  0  0
    9.2860   -5.5654    4.4670 H   0  0  0  0  0  0  0  0  0  0  0  0
    9.1250   -4.0725    7.1659 H   0  0  0  0  0  0  0  0  0  0  0  0
    7.7412   -4.7361    6.2972 H   0  0  0  0  0  0  0  0  0  0  0  0
    8.2716   -3.2133    4.3370 H   0  0  0  0  0  0  0  0  0  0  0  0
    9.5761   -2.4838    5.2805 H   0  0  0  0  0  0  0  0  0  0  0  0
    7.9928   -2.3001    8.0746 H   0  0  0  0  0  0  0  0  0  0  0  0
    7.1897   -0.7553    7.7153 H   0  0  0  0  0  0  0  0  0  0  0  0
    8.9242   -0.9680    7.3502 H   0  0  0  0  0  0  0  0  0  0  0  0
    8.1996   -0.2490    4.8483 H   0  0  0  0  0  0  0  0  0  0  0  0
    5.7218    1.5347    4.1599 H   0  0  0  0  0  0  0  0  0  0  0  0
    5.5819    0.5163    2.7189 H   0  0  0  0  0  0  0  0  0  0  0  0
    7.8129   -0.4462    1.9274 H   0  0  0  0  0  0  0  0  0  0  0  0
    9.2201    0.6894    2.0431 H   0  0  0  0  0  0  0  0  0  0  0  0
    6.5469    1.2603    0.6351 H   0  0  0  0  0  0  0  0  0  0  0  0
    8.1242    0.9646   -0.1706 H   0  0  0  0  0  0  0  0  0  0  0  0
    8.8383    4.0468   -0.5454 H   0  0  0  0  0  0  0  0  0  0  0  0
    9.6663    2.4935   -0.3276 H   0  0  0  0  0  0  0  0  0  0  0  0
    9.4633    6.0390    0.7377 H   0  0  0  0  0  0  0  0  0  0  0  0
   10.9394    7.0813    2.4909 H   0  0  0  0  0  0  0  0  0  0  0  0
   13.6268    7.2505    4.9104 H   0  0  0  0  0  0  0  0  0  0  0  0
   11.8987    7.5458    4.5304 H   0  0  0  0  0  0  0  0  0  0  0  0
   13.1178    7.5791    3.2197 H   0  0  0  0  0  0  0  0  0  0  0  0
   13.9784    2.1244    4.8475 H   0  0  0  0  0  0  0  0  0  0  0  0
   12.1862    2.0561    4.9916 H   0  0  0  0  0  0  0  0  0  0  0  0
   13.0590    3.5737    5.3704 H   0  0  0  0  0  0  0  0  0  0  0  0
   12.0692    0.2109    1.0058 H   0  0  0  0  0  0  0  0  0  0  0  0
   13.1012    1.5480    1.6289 H   0  0  0  0  0  0  0  0  0  0  0  0
   12.3031    1.7022    0.0294 H   0  0  0  0  0  0  0  0  0  0  0  0
    6.3171    3.3562    1.9761 H   0  0  0  0  0  0  0  0  0  0  0  0
    7.7758    4.4303    2.0914 H   0  0  0  0  0  0  0  0  0  0  0  0
    7.3643    3.0373    4.1868 H   0  0  0  0  0  0  0  0  0  0  0  0
    8.9605    2.7388    3.4253 H   0  0  0  0  0  0  0  0  0  0  0  0
  1  2  1  0
  1 30  1  0
  1 31  1  0
  1 32  1  0
  2  3  1  0
  2 33  1  0
  2 34  1  0
  3  4  1  0
  3 35  1  0
  3 36  1  0
  4  5  1  1
  4  6  1  0
  4  7  1  0
  6 37  1  0
  6 38  1  0
  6 39  1  0
  7  8  1  0
  7 40  1  0
  8  9  2  0
  8 10  1  0
 10 11  1  0
 10 41  1  0
 10 42  1  0
 11 12  1  0
 11 29  1  0
 12 13  1  0
 12 43  1  0
 12 44  1  0
 13 14  1  0
 13 45  1  0
 13 46  1  0
 14 15  1  0
 14 28  1  0
 15 16  1  0
 15 47  1  0
 15 48  1  0
 16 17  2  0
 16 25  1  0
 17 18  1  0
 17 49  1  0
 18 19  2  0
 18 50  1  0
 19 20  1  0
 19 22  1  0
 20 21  1  0
 21 51  1  0
 21 52  1  0
 21 53  1  0
 22 23  1  0
 22 25  2  0
 23 24  1  0
 24 54  1  0
 24 55  1  0
 24 56  1  0
 25 26  1  0
 26 27  1  0
 27 57  1  0
 27 58  1  0
 27 59  1  0
 28 29  1  0
 28 60  1  0
 28 61  1  0
 29 62  1  0
 29 63  1  0
M  END

