
     RDKit          3D

 48 51  0  0  0  0  0  0  0  0999 V2000
    3.5387    1.3875    0.8595 C   0  0  0  0  0  0  0  0  0  0  0  0
    2.6653    0.6895   -0.1858 C   0  0  0  0  0  0  0  0  0  0  0  0
    3.1352    0.9093   -1.6234 C   0  0  1  0  0  0  0  0  0  0  0  0
    2.3206   -0.1136   -2.6281 C   0  0  0  0  0  0  0  0  0  0  0  0
    2.6084    0.0925   -3.9831 N   0  0  0  0  0  0  0  0  0  0  0  0
    3.7637   -0.4918   -4.5600 C   0  0  0  0  0  0  0  0  0  0  0  0
    4.3919   -1.4035   -3.8197 N   0  0  0  0  0  0  0  0  0  0  0  0
    5.4772   -1.9418   -4.4180 C   0  0  0  0  0  0  0  0  0  0  0  0
    5.9063   -1.5783   -5.6740 C   0  0  0  0  0  0  0  0  0  0  0  0
    5.1683   -0.5567   -6.3635 C   0  0  0  0  0  0  0  0  0  0  0  0
    5.5363   -0.1167   -7.5676 N   0  0  0  0  0  0  0  0  0  0  0  0
    4.9364    0.9672   -8.3302 C   0  0  0  0  0  0  0  0  0  0  0  0
    3.9301    0.6642   -9.2414 C   0  0  0  0  0  0  0  0  0  0  0  0
    3.3451    1.6964  -10.0466 C   0  0  0  0  0  0  0  0  0  0  0  0
    3.8515    2.9980   -9.8700 C   0  0  0  0  0  0  0  0  0  0  0  0
    3.5299    4.1827  -10.4673 N   0  0  0  0  0  0  0  0  0  0  0  0
    2.8493    4.3227  -11.1997 H   0  0  0  0  0  0  0  0  0  0  0  0
    4.2645    5.2550  -10.0264 N   0  0  0  0  0  0  0  0  0  0  0  0
    5.0834    4.7121   -9.1026 C   0  0  0  0  0  0  0  0  0  0  0  0
    4.8921    3.3215   -8.9422 C   0  0  0  0  0  0  0  0  0  0  0  0
    5.4573    2.2690   -8.1394 C   0  0  0  0  0  0  0  0  0  0  0  0
    4.0792   -0.0361   -5.7569 N   0  0  0  0  0  0  0  0  0  0  0  0
    1.9316    1.1882   -4.6790 C   0  0  0  0  0  0  0  0  0  0  0  0
    2.6615    2.5470   -4.5388 C   0  0  0  0  0  0  0  0  0  0  0  0
    3.5902    2.6931   -3.3145 C   0  0  0  0  0  0  0  0  0  0  0  0
    3.0046    2.2397   -2.0596 N   0  0  0  0  0  0  0  0  0  0  0  0
    3.1720    1.1749    1.8745 H   0  0  0  0  0  0  0  0  0  0  0  0
    3.5424    2.4805    0.7252 H   0  0  0  0  0  0  0  0  0  0  0  0
    4.5827    1.0415    0.8009 H   0  0  0  0  0  0  0  0  0  0  0  0
    1.6155    1.0241   -0.0955 H   0  0  0  0  0  0  0  0  0  0  0  0
    2.6519   -0.3953    0.0027 H   0  0  0  0  0  0  0  0  0  0  0  0
    4.1791    0.5851   -1.7678 H   0  0  0  0  0  0  0  0  0  0  0  0
    1.2518    0.0395   -2.4227 H   0  0  0  0  0  0  0  0  0  0  0  0
    2.6654   -1.1046   -2.3111 H   0  0  0  0  0  0  0  0  0  0  0  0
    6.0183   -2.7036   -3.8464 H   0  0  0  0  0  0  0  0  0  0  0  0
    6.7855   -2.0404   -6.1262 H   0  0  0  0  0  0  0  0  0  0  0  0
    6.3827   -0.5302   -7.9459 H   0  0  0  0  0  0  0  0  0  0  0  0
    3.5887   -0.3680   -9.3412 H   0  0  0  0  0  0  0  0  0  0  0  0
    2.5590    1.4745  -10.7694 H   0  0  0  0  0  0  0  0  0  0  0  0
    5.7964    5.3533   -8.5822 H   0  0  0  0  0  0  0  0  0  0  0  0
    6.2749    2.4515   -7.4417 H   0  0  0  0  0  0  0  0  0  0  0  0
    0.9149    1.2436   -4.2622 H   0  0  0  0  0  0  0  0  0  0  0  0
    1.8554    0.9318   -5.7404 H   0  0  0  0  0  0  0  0  0  0  0  0
    1.9130    3.3546   -4.5308 H   0  0  0  0  0  0  0  0  0  0  0  0
    3.2996    2.6936   -5.4198 H   0  0  0  0  0  0  0  0  0  0  0  0
    3.8827    3.7470   -3.1998 H   0  0  0  0  0  0  0  0  0  0  0  0
    4.5145    2.1195   -3.4665 H   0  0  0  0  0  0  0  0  0  0  0  0
    2.2080    2.7669   -1.7065 H   0  0  0  0  0  0  0  0  0  0  0  0
  1  2  1  0
  1 27  1  0
  1 28  1  0
  1 29  1  0
  2  3  1  0
  2 30  1  0
  2 31  1  0
  3  4  1  0
  3 26  1  0
  3 32  1  1
  4  5  1  0
  4 33  1  0
  4 34  1  0
  5  6  1  0
  5 23  1  0
  6  7  2  0
  6 22  1  0
  7  8  1  0
  8  9  2  0
  8 35  1  0
  9 10  1  0
  9 36  1  0
 10 11  1  0
 10 22  2  0
 11 12  1  0
 11 37  1  0
 12 13  2  0
 12 21  1  0
 13 14  1  0
 13 38  1  0
 14 15  2  0
 14 39  1  0
 15 16  1  0
 15 20  1  0
 16 17  1  0
 16 18  1  0
 18 19  2  0
 19 20  1  0
 19 40  1  0
 20 21  2  0
 21 41  1  0
 23 24  1  0
 23 42  1  0
 23 43  1  0
 24 25  1  0
 24 44  1  0
 24 45  1  0
 25 26  1  0
 25 46  1  0
 25 47  1  0
 26 48  1  0
M  END

