
     RDKit          3D

 39 41  0  0  0  0  0  0  0  0999 V2000
   -0.8837    1.8166    0.4812 C   0  0  0  0  0  0  0  0  0  0  0  0
   -1.1684    0.0287    0.4702 S   0  0  0  0  0  0  0  0  0  0  0  0
    0.3819   -0.7145    0.7177 C   0  0  0  0  0  0  0  0  0  0  0  0
    1.5863    0.0149    0.8923 C   0  0  0  0  0  0  0  0  0  0  0  0
    2.7474   -0.7199    1.0788 C   0  0  0  0  0  0  0  0  0  0  0  0
    2.7396   -2.1222    1.0954 C   0  0  0  0  0  0  0  0  0  0  0  0
    1.5291   -2.8700    0.9208 C   0  0  0  0  0  0  0  0  0  0  0  0
    1.4686   -4.2320    0.9283 N   0  0  0  0  0  0  0  0  0  0  0  0
    2.5316   -5.1615    1.0999 C   0  0  0  0  0  0  0  0  0  0  0  0
    3.6844   -4.7815    1.2679 O   0  0  0  0  0  0  0  0  0  0  0  0
    2.1269   -6.5681    1.0573 C   0  0  0  0  0  0  0  0  0  0  0  0
    3.1250   -7.5763    1.2199 C   0  0  0  0  0  0  0  0  0  0  0  0
    2.8041   -8.9346    1.1927 C   0  0  0  0  0  0  0  0  0  0  0  0
    1.4669   -9.3357    0.9853 C   0  0  0  0  0  0  0  0  0  0  0  0
    0.5090   -8.3313    0.8556 N   0  0  0  0  0  0  0  0  0  0  0  0
   -0.4609   -8.5753    0.6901 H   0  0  0  0  0  0  0  0  0  0  0  0
    0.7548   -6.9607    0.8653 C   0  0  0  0  0  0  0  0  0  0  0  0
   -0.2304   -6.2028    0.7077 O   0  0  0  0  0  0  0  0  0  0  0  0
    1.0060  -10.7570    0.9630 C   0  0  0  0  0  0  0  0  0  0  0  0
    2.1644  -11.7036    0.6280 C   0  0  0  0  0  0  0  0  0  0  0  0
    3.3870  -11.4042    1.4993 C   0  0  0  0  0  0  0  0  0  0  0  0
    3.8605   -9.9530    1.4026 C   0  0  0  0  0  0  0  0  0  0  0  0
    5.0408   -9.6747    1.5307 O   0  0  0  0  0  0  0  0  0  0  0  0
    0.3543   -2.1276    0.7326 C   0  0  0  0  0  0  0  0  0  0  0  0
   -1.8704    2.2714    0.3240 H   0  0  0  0  0  0  0  0  0  0  0  0
   -0.2093    2.1044   -0.3363 H   0  0  0  0  0  0  0  0  0  0  0  0
   -0.4790    2.1373    1.4505 H   0  0  0  0  0  0  0  0  0  0  0  0
    1.6091    1.1031    0.8824 H   0  0  0  0  0  0  0  0  0  0  0  0
    3.6982   -0.2007    1.2175 H   0  0  0  0  0  0  0  0  0  0  0  0
    3.6562   -2.6911    1.2417 H   0  0  0  0  0  0  0  0  0  0  0  0
    0.5564   -4.7164    0.7979 H   0  0  0  0  0  0  0  0  0  0  0  0
    4.1624   -7.2832    1.3757 H   0  0  0  0  0  0  0  0  0  0  0  0
    0.1863  -10.8820    0.2293 H   0  0  0  0  0  0  0  0  0  0  0  0
    0.5676  -11.0498    1.9442 H   0  0  0  0  0  0  0  0  0  0  0  0
    2.4362  -11.5805   -0.4348 H   0  0  0  0  0  0  0  0  0  0  0  0
    1.8489  -12.7517    0.7573 H   0  0  0  0  0  0  0  0  0  0  0  0
    4.2437  -12.0513    1.2593 H   0  0  0  0  0  0  0  0  0  0  0  0
    3.1381  -11.5879    2.5626 H   0  0  0  0  0  0  0  0  0  0  0  0
   -0.5938   -2.6522    0.5946 H   0  0  0  0  0  0  0  0  0  0  0  0
  1  2  1  0
  1 25  1  0
  1 26  1  0
  1 27  1  0
  2  3  1  0
  3  4  2  0
  3 24  1  0
  4  5  1  0
  4 28  1  0
  5  6  2  0
  5 29  1  0
  6  7  1  0
  6 30  1  0
  7  8  1  0
  7 24  2  0
  8  9  1  0
  8 31  1  0
  9 10  2  0
  9 11  1  0
 11 12  2  0
 11 17  1  0
 12 13  1  0
 12 32  1  0
 13 14  2  0
 13 22  1  0
 14 15  1  0
 14 19  1  0
 15 16  1  0
 15 17  1  0
 17 18  2  0
 19 20  1  0
 19 33  1  0
 19 34  1  0
 20 21  1  0
 20 35  1  0
 20 36  1  0
 21 22  1  0
 21 37  1  0
 21 38  1  0
 22 23  2  0
 24 39  1  0
M  END

