
     RDKit          3D

 35 36  0  0  0  0  0  0  0  0999 V2000
    1.1703   -1.0811    0.0942 C   0  0  0  0  0  0  0  0  0  0  0  0
    2.3607   -0.1253   -0.0223 C   0  0  0  0  0  0  0  0  0  0  0  0
    3.0241   -0.1070   -1.4060 C   0  0  1  0  0  0  0  0  0  0  0  0
    2.0623    0.3222   -2.5376 C   0  0  0  0  0  0  0  0  0  0  0  0
    1.3920    1.6831   -2.3346 C   0  0  0  0  0  0  0  0  0  0  0  0
    4.3801    0.6743   -1.5601 C   0  0  1  0  0  0  0  0  0  0  0  0
    5.2341    1.1192   -0.0252 Cl  0  0  0  0  0  0  0  0  0  0  0  0
    5.0041   -0.5486   -2.2652 C   0  0  0  0  0  0  0  0  0  0  0  0
    3.8121   -1.4037   -1.7761 C   0  0  2  0  0  0  0  0  0  0  0  0
    3.1551   -2.2389   -2.7032 O   0  0  0  0  0  0  0  0  0  0  0  0
    3.6999   -3.4334   -3.0585 C   0  0  0  0  0  0  0  0  0  0  0  0
    4.9455   -3.9024   -2.6143 C   0  0  0  0  0  0  0  0  0  0  0  0
    5.4151   -5.1510   -3.0376 C   0  0  0  0  0  0  0  0  0  0  0  0
    4.6492   -5.9300   -3.9038 C   0  0  0  0  0  0  0  0  0  0  0  0
    5.2420   -7.4905   -4.4329 Cl  0  0  0  0  0  0  0  0  0  0  0  0
    3.4062   -5.4679   -4.3544 C   0  0  0  0  0  0  0  0  0  0  0  0
    2.9371   -4.2276   -3.9326 C   0  0  0  0  0  0  0  0  0  0  0  0
    0.8087   -1.1233    1.1337 H   0  0  0  0  0  0  0  0  0  0  0  0
    1.4426   -2.1066   -0.2044 H   0  0  0  0  0  0  0  0  0  0  0  0
    0.3215   -0.7713   -0.5355 H   0  0  0  0  0  0  0  0  0  0  0  0
    3.1250   -0.4006    0.7209 H   0  0  0  0  0  0  0  0  0  0  0  0
    2.0526    0.8990    0.2473 H   0  0  0  0  0  0  0  0  0  0  0  0
    1.2961   -0.4591   -2.6587 H   0  0  0  0  0  0  0  0  0  0  0  0
    2.6128    0.3269   -3.4933 H   0  0  0  0  0  0  0  0  0  0  0  0
    0.7063    1.6845   -1.4733 H   0  0  0  0  0  0  0  0  0  0  0  0
    0.8007    1.9557   -3.2230 H   0  0  0  0  0  0  0  0  0  0  0  0
    2.1269    2.4888   -2.1714 H   0  0  0  0  0  0  0  0  0  0  0  0
    4.3265    1.6037   -2.1395 H   0  0  0  0  0  0  0  0  0  0  0  0
    6.0114   -0.8356   -1.9339 H   0  0  0  0  0  0  0  0  0  0  0  0
    5.0025   -0.4342   -3.3594 H   0  0  0  0  0  0  0  0  0  0  0  0
    4.0663   -1.9790   -0.8687 H   0  0  0  0  0  0  0  0  0  0  0  0
    5.5644   -3.3062   -1.9440 H   0  0  0  0  0  0  0  0  0  0  0  0
    6.3841   -5.5164   -2.6929 H   0  0  0  0  0  0  0  0  0  0  0  0
    2.8118   -6.0832   -5.0321 H   0  0  0  0  0  0  0  0  0  0  0  0
    1.9696   -3.8503   -4.2696 H   0  0  0  0  0  0  0  0  0  0  0  0
  1  2  1  0
  1 18  1  0
  1 19  1  0
  1 20  1  0
  3  2  1  1
  2 21  1  0
  2 22  1  0
  3  4  1  0
  3  6  1  0
  3  9  1  0
  4  5  1  0
  4 23  1  0
  4 24  1  0
  5 25  1  0
  5 26  1  0
  5 27  1  0
  6  7  1  0
  6  8  1  0
  6 28  1  6
  8  9  1  0
  8 29  1  0
  8 30  1  0
  9 10  1  0
  9 31  1  1
 10 11  1  0
 11 12  2  0
 11 17  1  0
 12 13  1  0
 12 32  1  0
 13 14  2  0
 13 33  1  0
 14 15  1  0
 14 16  1  0
 16 17  2  0
 16 34  1  0
 17 35  1  0
M  END

