
     RDKit          3D

 39 40  0  0  0  0  0  0  0  0999 V2000
    3.8917   -1.3683    2.8829 C   0  0  0  0  0  0  0  0  0  0  0  0
    3.9234   -0.6697    1.5487 C   0  0  0  0  0  0  0  0  0  0  0  0
    4.5610    0.5613    1.3479 C   0  0  0  0  0  0  0  0  0  0  0  0
    4.5693    1.2002    0.0984 C   0  0  0  0  0  0  0  0  0  0  0  0
    5.3183    2.5143   -0.0840 C   0  0  0  0  0  0  0  0  0  0  0  0
    6.7643    2.4138   -0.2598 N   0  0  0  0  0  0  0  0  0  0  0  0
    7.2165    1.7433   -1.4775 C   0  0  0  0  0  0  0  0  0  0  0  0
    8.7132    1.6731   -1.5439 C   0  0  0  0  0  0  0  0  0  0  0  0
    9.6262    2.7731   -1.6042 C   0  0  0  0  0  0  0  0  0  0  0  0
    9.2930    4.2323   -1.6487 C   0  0  0  0  0  0  0  0  0  0  0  0
   10.8855    2.3495   -1.6257 N   0  0  0  0  0  0  0  0  0  0  0  0
   10.8015    1.0078   -1.5828 N   0  0  0  0  0  0  0  0  0  0  0  0
   11.6519    0.4584   -1.5834 H   0  0  0  0  0  0  0  0  0  0  0  0
    9.5226    0.5409   -1.5266 C   0  0  0  0  0  0  0  0  0  0  0  0
    9.2053   -0.9204   -1.4868 C   0  0  0  0  0  0  0  0  0  0  0  0
    3.9116    0.5782   -0.9718 C   0  0  0  0  0  0  0  0  0  0  0  0
    3.2574   -0.6544   -0.8262 C   0  0  0  0  0  0  0  0  0  0  0  0
    2.5408   -1.3384   -1.9612 C   0  0  0  0  0  0  0  0  0  0  0  0
    3.2888   -1.2413    0.4409 C   0  0  0  0  0  0  0  0  0  0  0  0
    2.6628   -2.4275    0.6095 F   0  0  0  0  0  0  0  0  0  0  0  0
    4.4424   -0.7947    3.6421 H   0  0  0  0  0  0  0  0  0  0  0  0
    4.3381   -2.3743    2.8198 H   0  0  0  0  0  0  0  0  0  0  0  0
    2.8575   -1.5059    3.2391 H   0  0  0  0  0  0  0  0  0  0  0  0
    5.0586    1.0373    2.1995 H   0  0  0  0  0  0  0  0  0  0  0  0
    5.1340    3.1585    0.7922 H   0  0  0  0  0  0  0  0  0  0  0  0
    4.9075    3.0483   -0.9580 H   0  0  0  0  0  0  0  0  0  0  0  0
    7.1975    1.9778    0.5536 H   0  0  0  0  0  0  0  0  0  0  0  0
    6.8289    2.3268   -2.3343 H   0  0  0  0  0  0  0  0  0  0  0  0
    6.7955    0.7226   -1.5995 H   0  0  0  0  0  0  0  0  0  0  0  0
    8.5563    4.4839   -0.8709 H   0  0  0  0  0  0  0  0  0  0  0  0
    8.8471    4.5121   -2.6194 H   0  0  0  0  0  0  0  0  0  0  0  0
   10.2031    4.8321   -1.5075 H   0  0  0  0  0  0  0  0  0  0  0  0
    9.8458   -1.4539   -0.7650 H   0  0  0  0  0  0  0  0  0  0  0  0
    9.3458   -1.4007   -2.4709 H   0  0  0  0  0  0  0  0  0  0  0  0
    8.1604   -1.0829   -1.1881 H   0  0  0  0  0  0  0  0  0  0  0  0
    3.8963    1.0666   -1.9510 H   0  0  0  0  0  0  0  0  0  0  0  0
    2.6004   -0.7416   -2.8825 H   0  0  0  0  0  0  0  0  0  0  0  0
    1.4766   -1.5001   -1.7237 H   0  0  0  0  0  0  0  0  0  0  0  0
    2.9709   -2.3326   -2.1670 H   0  0  0  0  0  0  0  0  0  0  0  0
  1  2  1  0
  1 21  1  0
  1 22  1  0
  1 23  1  0
  2  3  2  0
  2 19  1  0
  3  4  1  0
  3 24  1  0
  4  5  1  0
  4 16  2  0
  5  6  1  0
  5 25  1  0
  5 26  1  0
  6  7  1  0
  6 27  1  0
  7  8  1  0
  7 28  1  0
  7 29  1  0
  8  9  1  0
  8 14  2  0
  9 10  1  0
  9 11  2  0
 10 30  1  0
 10 31  1  0
 10 32  1  0
 11 12  1  0
 12 13  1  0
 12 14  1  0
 14 15  1  0
 15 33  1  0
 15 34  1  0
 15 35  1  0
 16 17  1  0
 16 36  1  0
 17 18  1  0
 17 19  2  0
 18 37  1  0
 18 38  1  0
 18 39  1  0
 19 20  1  0
M  END

