
     RDKit          3D

 38 38  0  0  0  0  0  0  0  0999 V2000
    2.9035   -4.2351    1.7154 C   0  0  0  0  0  0  0  0  0  0  0  0
    3.5892   -4.3593    3.0693 C   0  0  1  0  0  0  0  0  0  0  0  0
    2.9864   -3.8315    3.8345 H   0  0  0  0  0  0  0  0  0  0  0  0
    3.7380   -5.7841    3.5878 C   0  0  0  0  0  0  0  0  0  0  0  0
    4.6665   -6.8611    2.4726 Cl  0  0  0  0  0  0  0  0  0  0  0  0
    4.9110   -3.7908    3.0470 O   0  0  0  0  0  0  0  0  0  0  0  0
    5.2201   -2.1939    3.1088 P   0  0  1  0  0  0  0  0  0  0  0  0
    4.3088   -1.3522    2.2821 O   0  0  0  0  0  0  0  0  0  0  0  0
    5.3101   -1.7160    4.8911 C   0  0  0  0  0  0  0  0  0  0  0  0
    5.9693   -2.6974    5.7913 C   0  0  0  0  0  0  0  0  0  0  0  0
    7.3963   -2.8408    5.7899 C   0  0  0  0  0  0  0  0  0  0  0  0
    8.0237   -3.7905    6.6535 C   0  0  0  0  0  0  0  0  0  0  0  0
    7.2290   -4.6106    7.5031 C   0  0  0  0  0  0  0  0  0  0  0  0
    5.8114   -4.4878    7.5043 C   0  0  0  0  0  0  0  0  0  0  0  0
    5.1775   -3.5382    6.6453 C   0  0  0  0  0  0  0  0  0  0  0  0
    6.7861   -2.1735    2.7150 O   0  0  0  0  0  0  0  0  0  0  0  0
    7.2500   -2.4305    1.3717 C   0  0  2  0  0  0  0  0  0  0  0  0
    6.4044   -2.2798    0.6754 H   0  0  0  0  0  0  0  0  0  0  0  0
    7.7676   -3.8575    1.2641 C   0  0  0  0  0  0  0  0  0  0  0  0
    8.2630   -1.3477    1.0257 C   0  0  0  0  0  0  0  0  0  0  0  0
    9.7290   -1.3737    2.0834 Cl  0  0  0  0  0  0  0  0  0  0  0  0
    1.8880   -4.6596    1.7654 H   0  0  0  0  0  0  0  0  0  0  0  0
    3.4718   -4.7822    0.9493 H   0  0  0  0  0  0  0  0  0  0  0  0
    2.8350   -3.1766    1.4301 H   0  0  0  0  0  0  0  0  0  0  0  0
    2.7477   -6.2405    3.7234 H   0  0  0  0  0  0  0  0  0  0  0  0
    4.2755   -5.7786    4.5452 H   0  0  0  0  0  0  0  0  0  0  0  0
    4.2704   -1.5074    5.1885 H   0  0  0  0  0  0  0  0  0  0  0  0
    5.8494   -0.7515    4.8610 H   0  0  0  0  0  0  0  0  0  0  0  0
    7.9936   -2.2461    5.0976 H   0  0  0  0  0  0  0  0  0  0  0  0
    9.1099   -3.8927    6.6518 H   0  0  0  0  0  0  0  0  0  0  0  0
    7.7088   -5.3442    8.1545 H   0  0  0  0  0  0  0  0  0  0  0  0
    5.2092   -5.1073    8.1714 H   0  0  0  0  0  0  0  0  0  0  0  0
    4.0927   -3.4137    6.6707 H   0  0  0  0  0  0  0  0  0  0  0  0
    8.0911   -4.0671    0.2319 H   0  0  0  0  0  0  0  0  0  0  0  0
    6.9769   -4.5693    1.5383 H   0  0  0  0  0  0  0  0  0  0  0  0
    8.6247   -4.0037    1.9368 H   0  0  0  0  0  0  0  0  0  0  0  0
    7.8076   -0.3555    1.1399 H   0  0  0  0  0  0  0  0  0  0  0  0
    8.6099   -1.4711   -0.0096 H   0  0  0  0  0  0  0  0  0  0  0  0
  1  2  1  0
  1 22  1  0
  1 23  1  0
  1 24  1  0
  2  3  1  1
  2  4  1  0
  2  6  1  0
  4  5  1  0
  4 25  1  0
  4 26  1  0
  7  6  1  1
  7  8  2  0
  7  9  1  0
  7 16  1  0
  9 10  1  0
  9 27  1  0
  9 28  1  0
 10 11  2  0
 10 15  1  0
 11 12  1  0
 11 29  1  0
 12 13  2  0
 12 30  1  0
 13 14  1  0
 13 31  1  0
 14 15  2  0
 14 32  1  0
 15 33  1  0
 16 17  1  0
 17 18  1  6
 17 19  1  0
 17 20  1  0
 19 34  1  0
 19 35  1  0
 19 36  1  0
 20 21  1  0
 20 37  1  0
 20 38  1  0
M  END

