
     RDKit          3D

 44 45  0  0  0  0  0  0  0  0999 V2000
    1.6578    1.9398   -1.3254 C   0  0  0  0  0  0  0  0  0  0  0  0
    2.1066    1.1458   -2.5543 C   0  0  0  0  0  0  0  0  0  0  0  0
    2.9235   -0.0172   -2.2501 N   0  0  0  0  0  0  0  0  0  0  0  0
    4.2556    0.0440   -1.9913 C   0  0  0  0  0  0  0  0  0  0  0  0
    4.9088    1.1853   -2.1242 N   0  0  0  0  0  0  0  0  0  0  0  0
    6.2957    1.2945   -2.0342 C   0  0  0  0  0  0  0  0  0  0  0  0
    6.9748    2.6220   -2.0916 C   0  0  1  0  0  0  0  0  0  0  0  0
    6.7486    3.4088   -0.9033 O   0  0  0  0  0  0  0  0  0  0  0  0
    7.1115    2.8266    0.3241 C   0  0  0  0  0  0  0  0  0  0  0  0
    8.4772    2.5183   -2.4583 C   0  0  1  0  0  0  0  0  0  0  0  0
    8.6962    1.9759   -3.8898 C   0  0  0  0  0  0  0  0  0  0  0  0
    8.3351    2.9898   -4.9863 C   0  0  0  0  0  0  0  0  0  0  0  0
    9.0673    4.3236   -4.7900 C   0  0  0  0  0  0  0  0  0  0  0  0
    8.8412    4.8873   -3.3811 C   0  0  0  0  0  0  0  0  0  0  0  0
    9.2126    3.8656   -2.2971 C   0  0  0  0  0  0  0  0  0  0  0  0
    6.8858    0.1238   -1.7867 N   0  0  0  0  0  0  0  0  0  0  0  0
    6.3746   -1.0693   -1.5973 C   0  0  0  0  0  0  0  0  0  0  0  0
    7.2406   -2.2758   -1.3845 C   0  0  0  0  0  0  0  0  0  0  0  0
    4.9375   -1.1320   -1.5421 C   0  0  0  0  0  0  0  0  0  0  0  0
    4.3052   -2.3374   -1.6648 F   0  0  0  0  0  0  0  0  0  0  0  0
    1.0335    2.7960   -1.6283 H   0  0  0  0  0  0  0  0  0  0  0  0
    2.5298    2.3291   -0.7783 H   0  0  0  0  0  0  0  0  0  0  0  0
    1.0660    1.3133   -0.6381 H   0  0  0  0  0  0  0  0  0  0  0  0
    2.6937    1.7956   -3.2222 H   0  0  0  0  0  0  0  0  0  0  0  0
    1.2322    0.7952   -3.1265 H   0  0  0  0  0  0  0  0  0  0  0  0
    2.4723   -0.8921   -2.0126 H   0  0  0  0  0  0  0  0  0  0  0  0
    6.4461    3.2130   -2.8555 H   0  0  0  0  0  0  0  0  0  0  0  0
    6.8279    3.5401    1.1125 H   0  0  0  0  0  0  0  0  0  0  0  0
    8.1994    2.6359    0.4102 H   0  0  0  0  0  0  0  0  0  0  0  0
    6.5824    1.8733    0.5131 H   0  0  0  0  0  0  0  0  0  0  0  0
    8.9327    1.7965   -1.7583 H   0  0  0  0  0  0  0  0  0  0  0  0
    8.1386    1.0378   -4.0386 H   0  0  0  0  0  0  0  0  0  0  0  0
    9.7654    1.7154   -3.9914 H   0  0  0  0  0  0  0  0  0  0  0  0
    7.2446    3.1675   -4.9923 H   0  0  0  0  0  0  0  0  0  0  0  0
    8.5746    2.5645   -5.9758 H   0  0  0  0  0  0  0  0  0  0  0  0
    8.7488    5.0529   -5.5543 H   0  0  0  0  0  0  0  0  0  0  0  0
   10.1512    4.1658   -4.9457 H   0  0  0  0  0  0  0  0  0  0  0  0
    7.7831    5.1815   -3.2634 H   0  0  0  0  0  0  0  0  0  0  0  0
    9.4298    5.8097   -3.2401 H   0  0  0  0  0  0  0  0  0  0  0  0
    9.0151    4.2871   -1.3009 H   0  0  0  0  0  0  0  0  0  0  0  0
   10.2989    3.6684   -2.3511 H   0  0  0  0  0  0  0  0  0  0  0  0
    8.3029   -2.0128   -1.4741 H   0  0  0  0  0  0  0  0  0  0  0  0
    7.0045   -3.0592   -2.1237 H   0  0  0  0  0  0  0  0  0  0  0  0
    7.0629   -2.7120   -0.3858 H   0  0  0  0  0  0  0  0  0  0  0  0
  1  2  1  0
  1 21  1  0
  1 22  1  0
  1 23  1  0
  2  3  1  0
  2 24  1  0
  2 25  1  0
  3  4  1  0
  3 26  1  0
  4  5  2  0
  4 19  1  0
  5  6  1  0
  6  7  1  0
  6 16  2  0
  7  8  1  0
  7 10  1  0
  7 27  1  6
  8  9  1  0
  9 28  1  0
  9 29  1  0
  9 30  1  0
 10 11  1  0
 10 15  1  0
 10 31  1  1
 11 12  1  0
 11 32  1  0
 11 33  1  0
 12 13  1  0
 12 34  1  0
 12 35  1  0
 13 14  1  0
 13 36  1  0
 13 37  1  0
 14 15  1  0
 14 38  1  0
 14 39  1  0
 15 40  1  0
 15 41  1  0
 16 17  1  0
 17 18  1  0
 17 19  2  0
 18 42  1  0
 18 43  1  0
 18 44  1  0
 19 20  1  0
M  END

