
     RDKit          3D

 72 77  0  0  0  0  0  0  0  0999 V2000
    1.1608    0.5073   -0.0158 O   0  0  0  0  0  0  0  0  0  0  0  0
    2.1675   -0.1872    0.1179 C   0  0  0  0  0  0  0  0  0  0  0  0
    2.5511   -1.1530   -0.7692 N   0  0  0  0  0  0  0  0  0  0  0  0
    1.7685   -1.4876   -1.9558 C   0  0  1  0  0  0  0  0  0  0  0  0
    2.5094   -1.1114   -3.2549 C   0  0  0  0  0  0  0  0  0  0  0  0
    3.7342   -2.0034   -3.5046 C   0  0  0  0  0  0  0  0  0  0  0  0
    3.3608   -3.4942   -3.4973 C   0  0  0  0  0  0  0  0  0  0  0  0
    2.6103   -3.8884   -2.2160 C   0  0  0  0  0  0  0  0  0  0  0  0
    1.3925   -2.9817   -1.9805 C   0  0  0  0  0  0  0  0  0  0  0  0
    3.0888   -0.1160    1.3668 C   0  0  2  0  0  0  0  0  0  0  0  0
    2.9650   -1.0905    1.8584 H   0  0  0  0  0  0  0  0  0  0  0  0
    2.6975    0.9447    2.3838 C   0  0  0  0  0  0  0  0  0  0  0  0
    2.3305    2.2548    2.0291 C   0  0  0  0  0  0  0  0  0  0  0  0
    1.9994    3.1926    3.0086 C   0  0  0  0  0  0  0  0  0  0  0  0
    2.0352    2.8195    4.3506 C   0  0  0  0  0  0  0  0  0  0  0  0
    1.7175    3.7269    5.2923 F   0  0  0  0  0  0  0  0  0  0  0  0
    2.3865    1.5307    4.7374 C   0  0  0  0  0  0  0  0  0  0  0  0
    2.7115    0.6006    3.7452 C   0  0  0  0  0  0  0  0  0  0  0  0
    4.5384   -0.1097    1.0130 N   0  0  0  0  0  0  0  0  0  0  0  0
    5.0117    0.8966    0.2568 C   0  0  0  0  0  0  0  0  0  0  0  0
    4.3288    1.8187   -0.1944 O   0  0  0  0  0  0  0  0  0  0  0  0
    6.5156    0.8544   -0.1206 C   0  0  0  0  0  0  0  0  0  0  0  0
    7.1463    2.1940    0.0055 C   0  0  0  0  0  0  0  0  0  0  0  0
    6.5971    3.4187   -0.5018 C   0  0  0  0  0  0  0  0  0  0  0  0
    7.4173    4.4341   -0.2118 N   0  0  0  0  0  0  0  0  0  0  0  0
    7.2407    5.4055   -0.4460 H   0  0  0  0  0  0  0  0  0  0  0  0
    8.5353    3.9613    0.4975 C   0  0  0  0  0  0  0  0  0  0  0  0
    9.6253    4.6387    1.0047 C   0  0  0  0  0  0  0  0  0  0  0  0
   10.5927    3.8685    1.6922 C   0  0  0  0  0  0  0  0  0  0  0  0
   10.4516    2.4846    1.8591 C   0  0  0  0  0  0  0  0  0  0  0  0
    9.3427    1.8097    1.3420 C   0  0  0  0  0  0  0  0  0  0  0  0
    8.3683    2.5539    0.6413 C   0  0  0  0  0  0  0  0  0  0  0  0
    5.3728   -1.1689    1.5546 C   0  0  0  0  0  0  0  0  0  0  0  0
    5.9833   -1.0251    2.7875 C   0  0  0  0  0  0  0  0  0  0  0  0
    6.7930   -2.0638    3.3269 C   0  0  0  0  0  0  0  0  0  0  0  0
    6.8447   -3.3092    2.6051 C   0  0  0  0  0  0  0  0  0  0  0  0
    6.2468   -3.4460    1.3674 C   0  0  0  0  0  0  0  0  0  0  0  0
    5.5311   -2.3578    0.7620 C   0  0  0  0  0  0  0  0  0  0  0  0
    6.3074   -4.6258    0.6411 O   0  0  0  0  0  0  0  0  0  0  0  0
    7.2590   -5.5422    1.1319 C   0  0  0  0  0  0  0  0  0  0  0  0
    7.1910   -5.6150    2.6532 C   0  0  0  0  0  0  0  0  0  0  0  0
    7.5072   -4.3641    3.2157 O   0  0  0  0  0  0  0  0  0  0  0  0
    3.3244   -1.7540   -0.4974 H   0  0  0  0  0  0  0  0  0  0  0  0
    0.8590   -0.8765   -1.8686 H   0  0  0  0  0  0  0  0  0  0  0  0
    2.7939   -0.0472   -3.2179 H   0  0  0  0  0  0  0  0  0  0  0  0
    1.8031   -1.2256   -4.0974 H   0  0  0  0  0  0  0  0  0  0  0  0
    4.4930   -1.8146   -2.7234 H   0  0  0  0  0  0  0  0  0  0  0  0
    4.2093   -1.7340   -4.4633 H   0  0  0  0  0  0  0  0  0  0  0  0
    4.2650   -4.1148   -3.6144 H   0  0  0  0  0  0  0  0  0  0  0  0
    2.7197   -3.7082   -4.3732 H   0  0  0  0  0  0  0  0  0  0  0  0
    3.2996   -3.8358   -1.3535 H   0  0  0  0  0  0  0  0  0  0  0  0
    2.2887   -4.9419   -2.2702 H   0  0  0  0  0  0  0  0  0  0  0  0
    0.8672   -3.2520   -1.0501 H   0  0  0  0  0  0  0  0  0  0  0  0
    0.6735   -3.1317   -2.8061 H   0  0  0  0  0  0  0  0  0  0  0  0
    2.2946    2.5283    0.9777 H   0  0  0  0  0  0  0  0  0  0  0  0
    1.7014    4.2102    2.7462 H   0  0  0  0  0  0  0  0  0  0  0  0
    2.3971    1.2672    5.7968 H   0  0  0  0  0  0  0  0  0  0  0  0
    2.9899   -0.4142    4.0400 H   0  0  0  0  0  0  0  0  0  0  0  0
    6.5295    0.5706   -1.1877 H   0  0  0  0  0  0  0  0  0  0  0  0
    7.0716    0.0918    0.4293 H   0  0  0  0  0  0  0  0  0  0  0  0
    5.6405    3.5361   -1.0042 H   0  0  0  0  0  0  0  0  0  0  0  0
    9.7465    5.7174    0.8916 H   0  0  0  0  0  0  0  0  0  0  0  0
   11.4670    4.3734    2.1072 H   0  0  0  0  0  0  0  0  0  0  0  0
   11.2137    1.9291    2.4067 H   0  0  0  0  0  0  0  0  0  0  0  0
    9.2201    0.7366    1.4894 H   0  0  0  0  0  0  0  0  0  0  0  0
    5.8141   -0.1113    3.3627 H   0  0  0  0  0  0  0  0  0  0  0  0
    7.1901   -2.0260    4.3396 H   0  0  0  0  0  0  0  0  0  0  0  0
    5.1832   -2.4533   -0.2638 H   0  0  0  0  0  0  0  0  0  0  0  0
    8.2826   -5.2385    0.8322 H   0  0  0  0  0  0  0  0  0  0  0  0
    7.0387   -6.5217    0.6778 H   0  0  0  0  0  0  0  0  0  0  0  0
    7.9124   -6.3491    3.0466 H   0  0  0  0  0  0  0  0  0  0  0  0
    6.1703   -5.9293    2.9516 H   0  0  0  0  0  0  0  0  0  0  0  0
  1  2  2  0
  2  3  1  0
  2 10  1  0
  3  4  1  0
  3 43  1  0
  4  5  1  0
  4  9  1  0
  4 44  1  1
  5  6  1  0
  5 45  1  0
  5 46  1  0
  6  7  1  0
  6 47  1  0
  6 48  1  0
  7  8  1  0
  7 49  1  0
  7 50  1  0
  8  9  1  0
  8 51  1  0
  8 52  1  0
  9 53  1  0
  9 54  1  0
 10 11  1  1
 10 12  1  0
 10 19  1  0
 12 13  2  0
 12 18  1  0
 13 14  1  0
 13 55  1  0
 14 15  2  0
 14 56  1  0
 15 16  1  0
 15 17  1  0
 17 18  2  0
 17 57  1  0
 18 58  1  0
 19 20  1  0
 19 33  1  0
 20 21  2  0
 20 22  1  0
 22 23  1  0
 22 59  1  0
 22 60  1  0
 23 24  2  0
 23 32  1  0
 24 25  1  0
 24 61  1  0
 25 26  1  0
 25 27  1  0
 27 28  1  0
 27 32  2  0
 28 29  2  0
 28 62  1  0
 29 30  1  0
 29 63  1  0
 30 31  2  0
 30 64  1  0
 31 32  1  0
 31 65  1  0
 33 34  2  0
 33 38  1  0
 34 35  1  0
 34 66  1  0
 35 36  2  0
 35 67  1  0
 36 37  1  0
 36 42  1  0
 37 38  2  0
 37 39  1  0
 38 68  1  0
 39 40  1  0
 40 41  1  0
 40 69  1  0
 40 70  1  0
 41 42  1  0
 41 71  1  0
 41 72  1  0
M  END

