
     RDKit          3D

 42 44  0  0  0  0  0  0  0  0999 V2000
    2.7250   -1.1353   -2.9129 C   0  0  0  0  0  0  0  0  0  0  0  0
    3.1003   -1.7219   -1.6998 O   0  0  0  0  0  0  0  0  0  0  0  0
    4.0802   -0.9869   -1.0010 C   0  0  0  0  0  0  0  0  0  0  0  0
    4.4467   -1.7146    0.2878 C   0  0  0  0  0  0  0  0  0  0  0  0
    4.9555   -3.0489    0.0657 N   0  0  0  0  0  0  0  0  0  0  0  0
    4.2353   -4.2113    0.3797 C   0  0  0  0  0  0  0  0  0  0  0  0
    3.1460   -4.2581    0.9553 O   0  0  0  0  0  0  0  0  0  0  0  0
    5.0358   -5.2845   -0.1505 C   0  0  0  0  0  0  0  0  0  0  0  0
    4.5263   -6.6187   -0.0694 N   0  0  0  0  0  0  0  0  0  0  0  0
    3.6931   -7.1931   -0.9324 C   0  0  0  0  0  0  0  0  0  0  0  0
    3.2671   -6.5137   -2.1292 C   0  0  0  0  0  0  0  0  0  0  0  0
    2.4154   -7.1394   -3.0072 C   0  0  0  0  0  0  0  0  0  0  0  0
    1.9630   -8.4437   -2.7241 C   0  0  0  0  0  0  0  0  0  0  0  0
    1.1430   -9.0347   -3.5725 F   0  0  0  0  0  0  0  0  0  0  0  0
    2.3506   -9.1380   -1.5601 C   0  0  0  0  0  0  0  0  0  0  0  0
    3.2035   -8.5238   -0.6752 C   0  0  0  0  0  0  0  0  0  0  0  0
    6.2049   -4.8040   -0.7818 C   0  0  0  0  0  0  0  0  0  0  0  0
    7.3044   -5.5166   -1.4163 C   0  0  0  0  0  0  0  0  0  0  0  0
    7.4763   -6.9180   -1.2827 C   0  0  0  0  0  0  0  0  0  0  0  0
    8.5331   -7.5872   -1.8978 C   0  0  0  0  0  0  0  0  0  0  0  0
    9.4641   -6.8858   -2.6712 C   0  0  0  0  0  0  0  0  0  0  0  0
    9.3200   -5.5002   -2.8084 C   0  0  0  0  0  0  0  0  0  0  0  0
    8.2671   -4.8237   -2.1959 C   0  0  0  0  0  0  0  0  0  0  0  0
    6.1339   -3.3354   -0.6369 C   0  0  0  0  0  0  0  0  0  0  0  0
    6.9135   -2.4621   -1.0271 O   0  0  0  0  0  0  0  0  0  0  0  0
    1.9683   -1.7807   -3.3849 H   0  0  0  0  0  0  0  0  0  0  0  0
    3.5819   -1.0278   -3.6102 H   0  0  0  0  0  0  0  0  0  0  0  0
    2.2809   -0.1273   -2.7722 H   0  0  0  0  0  0  0  0  0  0  0  0
    3.7011    0.0252   -0.7420 H   0  0  0  0  0  0  0  0  0  0  0  0
    4.9867   -0.8562   -1.6223 H   0  0  0  0  0  0  0  0  0  0  0  0
    3.5574   -1.8260    0.9254 H   0  0  0  0  0  0  0  0  0  0  0  0
    5.1973   -1.1091    0.8226 H   0  0  0  0  0  0  0  0  0  0  0  0
    4.6983   -7.1406    0.7904 H   0  0  0  0  0  0  0  0  0  0  0  0
    3.6205   -5.5002   -2.3053 H   0  0  0  0  0  0  0  0  0  0  0  0
    2.0712   -6.6468   -3.9176 H   0  0  0  0  0  0  0  0  0  0  0  0
    1.9645  -10.1435   -1.3870 H   0  0  0  0  0  0  0  0  0  0  0  0
    3.5187   -9.0370    0.2351 H   0  0  0  0  0  0  0  0  0  0  0  0
    6.7862   -7.4967   -0.6680 H   0  0  0  0  0  0  0  0  0  0  0  0
    8.6363   -8.6679   -1.7647 H   0  0  0  0  0  0  0  0  0  0  0  0
   10.2926   -7.4106   -3.1532 H   0  0  0  0  0  0  0  0  0  0  0  0
   10.0431   -4.9338   -3.4020 H   0  0  0  0  0  0  0  0  0  0  0  0
    8.1697   -3.7428   -2.2908 H   0  0  0  0  0  0  0  0  0  0  0  0
  1  2  1  0
  1 26  1  0
  1 27  1  0
  1 28  1  0
  2  3  1  0
  3  4  1  0
  3 29  1  0
  3 30  1  0
  4  5  1  0
  4 31  1  0
  4 32  1  0
  5  6  1  0
  5 24  1  0
  6  7  2  0
  6  8  1  0
  8  9  1  0
  8 17  2  0
  9 10  1  0
  9 33  1  0
 10 11  2  0
 10 16  1  0
 11 12  1  0
 11 34  1  0
 12 13  2  0
 12 35  1  0
 13 14  1  0
 13 15  1  0
 15 16  2  0
 15 36  1  0
 16 37  1  0
 17 18  1  0
 17 24  1  0
 18 19  2  0
 18 23  1  0
 19 20  1  0
 19 38  1  0
 20 21  2  0
 20 39  1  0
 21 22  1  0
 21 40  1  0
 22 23  2  0
 22 41  1  0
 23 42  1  0
 24 25  2  0
M  END

