
     RDKit          3D

 88 97  0  0  0  0  0  0  0  0999 V2000
    1.0001   -0.2383    1.5627 C   0  0  0  0  0  0  0  0  0  0  0  0
    2.4088   -0.1954    1.6236 O   0  0  0  0  0  0  0  0  0  0  0  0
    3.1126   -1.3517    1.6274 C   0  0  0  0  0  0  0  0  0  0  0  0
    4.5136   -1.2244    1.6911 C   0  0  0  0  0  0  0  0  0  0  0  0
    5.3191   -2.3535    1.6998 C   0  0  0  0  0  0  0  0  0  0  0  0
    4.7569   -3.6452    1.6461 C   0  0  0  0  0  0  0  0  0  0  0  0
    5.6181   -4.8502    1.6585 C   0  0  0  0  0  0  0  0  0  0  0  0
    6.9462   -4.6767    1.7134 N   0  0  0  0  0  0  0  0  0  0  0  0
    7.6907   -5.7914    1.7247 C   0  0  0  0  0  0  0  0  0  0  0  0
    9.1637   -5.6469    1.7823 C   0  0  0  0  0  0  0  0  0  0  0  0
    9.7646   -4.3723    1.8267 C   0  0  0  0  0  0  0  0  0  0  0  0
   11.1438   -4.2362    1.8814 C   0  0  0  0  0  0  0  0  0  0  0  0
   11.9705   -5.3761    1.8932 C   0  0  0  0  0  0  0  0  0  0  0  0
   13.3032   -5.1452    1.9478 O   0  0  0  0  0  0  0  0  0  0  0  0
   14.1982   -6.2354    1.9638 C   0  0  0  0  0  0  0  0  0  0  0  0
   11.3855   -6.6531    1.8490 C   0  0  0  0  0  0  0  0  0  0  0  0
    9.9966   -6.7758    1.7943 C   0  0  0  0  0  0  0  0  0  0  0  0
    7.1777   -7.0287    1.6866 N   0  0  0  0  0  0  0  0  0  0  0  0
    5.8407   -7.1166    1.6332 C   0  0  0  0  0  0  0  0  0  0  0  0
    5.2314   -8.4627    1.5958 C   0  0  0  0  0  0  0  0  0  0  0  0
    6.0211   -9.6236    1.6360 C   0  0  0  0  0  0  0  0  0  0  0  0
    5.4549  -10.8924    1.6005 C   0  0  0  0  0  0  0  0  0  0  0  0
    4.0529  -11.0712    1.5108 C   0  0  0  0  0  0  0  0  0  0  0  0
    3.4714  -12.3583    1.5000 N   0  0  0  0  0  0  0  0  0  0  0  0
    4.2412  -13.5422    1.7070 C   0  0  0  0  0  0  0  0  0  0  0  0
    5.3112  -13.8698    0.8588 C   0  0  0  0  0  0  0  0  0  0  0  0
    6.0676  -15.0183    1.0876 C   0  0  0  0  0  0  0  0  0  0  0  0
    5.7434  -15.8617    2.1536 C   0  0  0  0  0  0  0  0  0  0  0  0
    4.6400  -15.5700    2.9568 C   0  0  0  0  0  0  0  0  0  0  0  0
    3.8650  -14.4210    2.7420 C   0  0  0  0  0  0  0  0  0  0  0  0
    2.6068  -14.1069    3.5744 C   0  0  2  0  0  0  0  0  0  0  0  0
    2.9359  -13.2766    4.8386 C   0  0  0  0  0  0  0  0  0  0  0  0
    3.4982  -12.0062    4.9427 C   0  0  0  0  0  0  0  0  0  0  0  0
    3.7038  -11.4540    6.2148 C   0  0  0  0  0  0  0  0  0  0  0  0
    3.3520  -12.1631    7.3696 C   0  0  0  0  0  0  0  0  0  0  0  0
    2.7859  -13.4378    7.2707 C   0  0  0  0  0  0  0  0  0  0  0  0
    2.5793  -13.9906    6.0027 C   0  0  0  0  0  0  0  0  0  0  0  0
    2.0100  -15.2864    5.6101 C   0  0  0  0  0  0  0  0  0  0  0  0
    1.5124  -16.3412    6.3847 C   0  0  0  0  0  0  0  0  0  0  0  0
    1.0203  -17.4802    5.7404 C   0  0  0  0  0  0  0  0  0  0  0  0
    1.0249  -17.5654    4.3412 C   0  0  0  0  0  0  0  0  0  0  0  0
    1.5235  -16.5101    3.5662 C   0  0  0  0  0  0  0  0  0  0  0  0
    2.0150  -15.3730    4.2049 C   0  0  0  0  0  0  0  0  0  0  0  0
    1.5915  -13.3958    2.6593 C   0  0  0  0  0  0  0  0  0  0  0  0
    0.2066  -13.5707    2.7951 C   0  0  0  0  0  0  0  0  0  0  0  0
   -0.6914  -12.9594    1.9188 C   0  0  0  0  0  0  0  0  0  0  0  0
   -0.2092  -12.1873    0.8587 C   0  0  0  0  0  0  0  0  0  0  0  0
    1.1640  -11.9994    0.7077 C   0  0  0  0  0  0  0  0  0  0  0  0
    2.0643  -12.5601    1.6279 C   0  0  0  0  0  0  0  0  0  0  0  0
    3.2601   -9.8977    1.5038 C   0  0  0  0  0  0  0  0  0  0  0  0
    3.8385   -8.6343    1.5416 C   0  0  0  0  0  0  0  0  0  0  0  0
    5.0261   -6.0516    1.6146 N   0  0  0  0  0  0  0  0  0  0  0  0
    3.3601   -3.7604    1.5829 C   0  0  0  0  0  0  0  0  0  0  0  0
    2.5380   -2.6329    1.5728 C   0  0  0  0  0  0  0  0  0  0  0  0
    0.6551    0.8043    1.5714 H   0  0  0  0  0  0  0  0  0  0  0  0
    0.5670   -0.7656    2.4316 H   0  0  0  0  0  0  0  0  0  0  0  0
    0.6435   -0.7256    0.6375 H   0  0  0  0  0  0  0  0  0  0  0  0
    4.9398   -0.2201    1.7329 H   0  0  0  0  0  0  0  0  0  0  0  0
    6.4041   -2.2569    1.7490 H   0  0  0  0  0  0  0  0  0  0  0  0
    9.1227   -3.4910    1.8174 H   0  0  0  0  0  0  0  0  0  0  0  0
   11.6183   -3.2534    1.9162 H   0  0  0  0  0  0  0  0  0  0  0  0
   15.2092   -5.8090    2.0101 H   0  0  0  0  0  0  0  0  0  0  0  0
   14.1114   -6.8518    1.0510 H   0  0  0  0  0  0  0  0  0  0  0  0
   14.0419   -6.8825    2.8455 H   0  0  0  0  0  0  0  0  0  0  0  0
   12.0000   -7.5535    1.8567 H   0  0  0  0  0  0  0  0  0  0  0  0
    9.5368   -7.7639    1.7600 H   0  0  0  0  0  0  0  0  0  0  0  0
    7.1043   -9.5185    1.7061 H   0  0  0  0  0  0  0  0  0  0  0  0
    6.1160  -11.7527    1.6674 H   0  0  0  0  0  0  0  0  0  0  0  0
    5.5402  -13.2185    0.0142 H   0  0  0  0  0  0  0  0  0  0  0  0
    6.9024  -15.2585    0.4246 H   0  0  0  0  0  0  0  0  0  0  0  0
    6.3343  -16.7601    2.3469 H   0  0  0  0  0  0  0  0  0  0  0  0
    4.3704  -16.2508    3.7653 H   0  0  0  0  0  0  0  0  0  0  0  0
    3.7794  -11.4351    4.0580 H   0  0  0  0  0  0  0  0  0  0  0  0
    4.1444  -10.4577    6.3014 H   0  0  0  0  0  0  0  0  0  0  0  0
    3.5198  -11.7175    8.3535 H   0  0  0  0  0  0  0  0  0  0  0  0
    2.5096  -13.9914    8.1718 H   0  0  0  0  0  0  0  0  0  0  0  0
    1.5073  -16.2787    7.4758 H   0  0  0  0  0  0  0  0  0  0  0  0
    0.6286  -18.3114    6.3323 H   0  0  0  0  0  0  0  0  0  0  0  0
    0.6368  -18.4617    3.8508 H   0  0  0  0  0  0  0  0  0  0  0  0
    1.5253  -16.5809    2.4757 H   0  0  0  0  0  0  0  0  0  0  0  0
   -0.1739  -14.2016    3.5997 H   0  0  0  0  0  0  0  0  0  0  0  0
   -1.7659  -13.1064    2.0516 H   0  0  0  0  0  0  0  0  0  0  0  0
   -0.8998  -11.7394    0.1399 H   0  0  0  0  0  0  0  0  0  0  0  0
    1.5512  -11.4207   -0.1320 H   0  0  0  0  0  0  0  0  0  0  0  0
    2.1752   -9.9664    1.4916 H   0  0  0  0  0  0  0  0  0  0  0  0
    3.2010   -7.7494    1.5372 H   0  0  0  0  0  0  0  0  0  0  0  0
    2.9200   -4.7573    1.5415 H   0  0  0  0  0  0  0  0  0  0  0  0
    1.4567   -2.7622    1.5234 H   0  0  0  0  0  0  0  0  0  0  0  0
  1  2  1  0
  1 55  1  0
  1 56  1  0
  1 57  1  0
  2  3  1  0
  3  4  2  0
  3 54  1  0
  4  5  1  0
  4 58  1  0
  5  6  2  0
  5 59  1  0
  6  7  1  0
  6 53  1  0
  7  8  2  0
  7 52  1  0
  8  9  1  0
  9 10  1  0
  9 18  2  0
 10 11  2  0
 10 17  1  0
 11 12  1  0
 11 60  1  0
 12 13  2  0
 12 61  1  0
 13 14  1  0
 13 16  1  0
 14 15  1  0
 15 62  1  0
 15 63  1  0
 15 64  1  0
 16 17  2  0
 16 65  1  0
 17 66  1  0
 18 19  1  0
 19 20  1  0
 19 52  2  0
 20 21  2  0
 20 51  1  0
 21 22  1  0
 21 67  1  0
 22 23  2  0
 22 68  1  0
 23 24  1  0
 23 50  1  0
 24 25  1  0
 24 49  1  0
 25 26  2  0
 25 30  1  0
 26 27  1  0
 26 69  1  0
 27 28  2  0
 27 70  1  0
 28 29  1  0
 28 71  1  0
 29 30  2  0
 29 72  1  0
 31 30  1  6
 31 32  1  0
 31 43  1  0
 31 44  1  0
 32 33  2  0
 32 37  1  0
 33 34  1  0
 33 73  1  0
 34 35  2  0
 34 74  1  0
 35 36  1  0
 35 75  1  0
 36 37  2  0
 36 76  1  0
 37 38  1  0
 38 39  2  0
 38 43  1  0
 39 40  1  0
 39 77  1  0
 40 41  2  0
 40 78  1  0
 41 42  1  0
 41 79  1  0
 42 43  2  0
 42 80  1  0
 44 45  1  0
 44 49  2  0
 45 46  2  0
 45 81  1  0
 46 47  1  0
 46 82  1  0
 47 48  2  0
 47 83  1  0
 48 49  1  0
 48 84  1  0
 50 51  2  0
 50 85  1  0
 51 86  1  0
 53 54  2  0
 53 87  1  0
 54 88  1  0
M  END

