
     RDKit          3D

 47 50  0  0  0  0  0  0  0  0999 V2000
    2.1924   -0.7662   -1.1619 C   0  0  0  0  0  0  0  0  0  0  0  0
    3.1961    0.1250   -0.4893 C   0  0  0  0  0  0  0  0  0  0  0  0
    4.5336   -0.0890   -0.7574 N   0  0  0  0  0  0  0  0  0  0  0  0
    5.3154    0.7332   -0.1305 C   0  0  0  0  0  0  0  0  0  0  0  0
    6.8287    0.6822   -0.1622 C   0  0  1  0  0  0  0  0  0  0  0  0
    7.3533   -0.2085   -1.3050 C   0  0  0  0  0  0  0  0  0  0  0  0
    7.2019    0.4727   -2.6688 C   0  0  0  0  0  0  0  0  0  0  0  0
    7.8192    1.8729   -2.6733 C   0  0  0  0  0  0  0  0  0  0  0  0
    7.2703    2.6598   -1.5601 N   0  0  0  0  0  0  0  0  0  0  0  0
    7.4750    4.3402   -1.6807 S   0  0  1  0  0  0  0  0  0  0  0  0
    7.1334    4.8900   -0.3657 O   0  0  0  0  0  0  0  0  0  0  0  0
    8.7614    4.6562   -2.3136 O   0  0  0  0  0  0  0  0  0  0  0  0
    6.1836    4.8017   -2.8467 C   0  0  0  0  0  0  0  0  0  0  0  0
    6.5543    5.3499   -4.0993 C   0  0  0  0  0  0  0  0  0  0  0  0
    5.5720    5.7492   -4.9807 C   0  0  0  0  0  0  0  0  0  0  0  0
    4.1960    5.6211   -4.6441 C   0  0  0  0  0  0  0  0  0  0  0  0
    3.2595    6.0268   -5.5462 N   0  0  0  0  0  0  0  0  0  0  0  0
    1.9914    5.9077   -5.2241 C   0  0  0  0  0  0  0  0  0  0  0  0
    1.5287    5.3791   -3.9872 C   0  0  0  0  0  0  0  0  0  0  0  0
    2.4551    4.9617   -3.0600 C   0  0  0  0  0  0  0  0  0  0  0  0
    3.8396    5.0715   -3.3655 C   0  0  0  0  0  0  0  0  0  0  0  0
    4.8628    4.6685   -2.4701 C   0  0  0  0  0  0  0  0  0  0  0  0
    7.4860    2.0724   -0.2347 C   0  0  0  0  0  0  0  0  0  0  0  0
    4.4450    1.8844    0.8799 S   0  0  0  0  0  0  0  0  0  0  0  0
    2.9335    1.1550    0.3858 C   0  0  0  0  0  0  0  0  0  0  0  0
    1.6279    1.6663    0.9155 C   0  0  0  0  0  0  0  0  0  0  0  0
    2.3733   -1.8198   -0.8934 H   0  0  0  0  0  0  0  0  0  0  0  0
    2.2883   -0.6952   -2.2578 H   0  0  0  0  0  0  0  0  0  0  0  0
    1.1585   -0.5153   -0.8894 H   0  0  0  0  0  0  0  0  0  0  0  0
    7.1502    0.2388    0.7986 H   0  0  0  0  0  0  0  0  0  0  0  0
    6.8240   -1.1715   -1.2992 H   0  0  0  0  0  0  0  0  0  0  0  0
    8.4206   -0.4142   -1.1102 H   0  0  0  0  0  0  0  0  0  0  0  0
    6.1335    0.5437   -2.9248 H   0  0  0  0  0  0  0  0  0  0  0  0
    7.6862   -0.1326   -3.4527 H   0  0  0  0  0  0  0  0  0  0  0  0
    7.5908    2.3872   -3.6187 H   0  0  0  0  0  0  0  0  0  0  0  0
    8.9230    1.8154   -2.5957 H   0  0  0  0  0  0  0  0  0  0  0  0
    7.6144    5.4507   -4.3373 H   0  0  0  0  0  0  0  0  0  0  0  0
    5.8162    6.1759   -5.9552 H   0  0  0  0  0  0  0  0  0  0  0  0
    1.2599    6.2431   -5.9706 H   0  0  0  0  0  0  0  0  0  0  0  0
    0.4561    5.3123   -3.7918 H   0  0  0  0  0  0  0  0  0  0  0  0
    2.1486    4.5472   -2.0956 H   0  0  0  0  0  0  0  0  0  0  0  0
    4.6026    4.2549   -1.4932 H   0  0  0  0  0  0  0  0  0  0  0  0
    7.0756    2.7569    0.5191 H   0  0  0  0  0  0  0  0  0  0  0  0
    8.5678    1.9592   -0.0202 H   0  0  0  0  0  0  0  0  0  0  0  0
    1.5509    1.5377    2.0084 H   0  0  0  0  0  0  0  0  0  0  0  0
    0.7867    1.1272    0.4581 H   0  0  0  0  0  0  0  0  0  0  0  0
    1.4899    2.7403    0.7059 H   0  0  0  0  0  0  0  0  0  0  0  0
  1  2  1  0
  1 27  1  0
  1 28  1  0
  1 29  1  0
  2  3  1  0
  2 25  2  0
  3  4  2  0
  4  5  1  0
  4 24  1  0
  5  6  1  0
  5 23  1  0
  5 30  1  1
  6  7  1  0
  6 31  1  0
  6 32  1  0
  7  8  1  0
  7 33  1  0
  7 34  1  0
  8  9  1  0
  8 35  1  0
  8 36  1  0
  9 10  1  0
  9 23  1  0
 10 11  2  0
 10 12  2  0
 10 13  1  6
 13 14  2  0
 13 22  1  0
 14 15  1  0
 14 37  1  0
 15 16  2  0
 15 38  1  0
 16 17  1  0
 16 21  1  0
 17 18  2  0
 18 19  1  0
 18 39  1  0
 19 20  2  0
 19 40  1  0
 20 21  1  0
 20 41  1  0
 21 22  2  0
 22 42  1  0
 23 43  1  0
 23 44  1  0
 24 25  1  0
 25 26  1  0
 26 45  1  0
 26 46  1  0
 26 47  1  0
M  END

