
     RDKit          3D

 44 45  0  0  0  0  0  0  0  0999 V2000
    7.7423    0.1163    1.0442 C   0  0  0  0  0  0  0  0  0  0  0  0
    6.2505    0.3580    0.7530 C   0  0  1  0  0  0  0  0  0  0  0  0
    5.6644    1.4966    1.6111 C   0  0  0  0  0  0  0  0  0  0  0  0
    6.0898    0.6606   -0.6483 N   0  0  0  0  0  0  0  0  0  0  0  0
    5.1912    0.0044   -1.6026 C   0  0  0  0  0  0  0  0  0  0  0  0
    5.4280    0.4474   -3.0090 C   0  0  0  0  0  0  0  0  0  0  0  0
    4.7238    1.6795   -3.2557 O   0  0  0  0  0  0  0  0  0  0  0  0
    4.2371    1.6126   -4.5500 C   0  0  0  0  0  0  0  0  0  0  0  0
    4.4629    0.3552   -5.0852 C   0  0  0  0  0  0  0  0  0  0  0  0
    5.1535   -0.4266   -4.1452 C   0  0  0  0  0  0  0  0  0  0  0  0
    5.5981   -1.8498   -4.3439 C   0  0  0  0  0  0  0  0  0  0  0  0
    7.1227   -2.1184   -4.3557 C   0  0  0  0  0  0  0  0  0  0  0  0
    7.7710   -1.9521   -2.9812 C   0  0  0  0  0  0  0  0  0  0  0  0
    9.2715   -2.2162   -2.9103 C   0  0  0  0  0  0  0  0  0  0  0  0
    9.7423   -2.1549   -1.5234 N   0  0  0  0  0  0  0  0  0  0  0  0
   11.1699   -2.2049   -1.3611 C   0  0  1  0  0  0  0  0  0  0  0  0
   11.7698   -2.8625   -0.1551 C   0  0  0  0  0  0  0  0  0  0  0  0
   11.9742   -3.4811   -1.5226 C   0  0  0  0  0  0  0  0  0  0  0  0
    7.8500   -0.2511    2.0751 H   0  0  0  0  0  0  0  0  0  0  0  0
    8.3121    1.0554    0.9574 H   0  0  0  0  0  0  0  0  0  0  0  0
    8.1879   -0.6178    0.3549 H   0  0  0  0  0  0  0  0  0  0  0  0
    5.6739   -0.5609    0.9390 H   0  0  0  0  0  0  0  0  0  0  0  0
    6.1928    2.4444    1.4255 H   0  0  0  0  0  0  0  0  0  0  0  0
    5.7851    1.2368    2.6726 H   0  0  0  0  0  0  0  0  0  0  0  0
    4.5951    1.6433    1.4034 H   0  0  0  0  0  0  0  0  0  0  0  0
    6.7061    1.3597   -1.0722 H   0  0  0  0  0  0  0  0  0  0  0  0
    4.1757    0.2263   -1.1993 H   0  0  0  0  0  0  0  0  0  0  0  0
    5.3335   -1.0789   -1.4510 H   0  0  0  0  0  0  0  0  0  0  0  0
    3.7078    2.4875   -4.9167 H   0  0  0  0  0  0  0  0  0  0  0  0
    4.1659    0.0351   -6.0852 H   0  0  0  0  0  0  0  0  0  0  0  0
    5.1815   -2.2011   -5.3026 H   0  0  0  0  0  0  0  0  0  0  0  0
    5.1575   -2.5309   -3.5811 H   0  0  0  0  0  0  0  0  0  0  0  0
    7.6036   -1.4360   -5.0785 H   0  0  0  0  0  0  0  0  0  0  0  0
    7.3032   -3.1470   -4.7223 H   0  0  0  0  0  0  0  0  0  0  0  0
    7.2623   -2.6299   -2.2657 H   0  0  0  0  0  0  0  0  0  0  0  0
    7.5857   -0.9226   -2.6408 H   0  0  0  0  0  0  0  0  0  0  0  0
    9.8102   -1.4428   -3.4852 H   0  0  0  0  0  0  0  0  0  0  0  0
    9.5214   -3.1853   -3.3958 H   0  0  0  0  0  0  0  0  0  0  0  0
    9.3029   -2.8994   -0.9824 H   0  0  0  0  0  0  0  0  0  0  0  0
   11.6613   -1.2870   -1.7074 H   0  0  0  0  0  0  0  0  0  0  0  0
   11.0912   -3.3732    0.5371 H   0  0  0  0  0  0  0  0  0  0  0  0
   12.6181   -2.3801    0.3390 H   0  0  0  0  0  0  0  0  0  0  0  0
   11.4238   -4.4003   -1.7472 H   0  0  0  0  0  0  0  0  0  0  0  0
   12.9678   -3.4300   -1.9783 H   0  0  0  0  0  0  0  0  0  0  0  0
  1  2  1  0
  1 19  1  0
  1 20  1  0
  1 21  1  0
  2  3  1  0
  2  4  1  0
  2 22  1  6
  3 23  1  0
  3 24  1  0
  3 25  1  0
  4  5  1  0
  4 26  1  0
  5  6  1  0
  5 27  1  0
  5 28  1  0
  6  7  1  0
  6 10  2  0
  7  8  1  0
  8  9  2  0
  8 29  1  0
  9 10  1  0
  9 30  1  0
 10 11  1  0
 11 12  1  0
 11 31  1  0
 11 32  1  0
 12 13  1  0
 12 33  1  0
 12 34  1  0
 13 14  1  0
 13 35  1  0
 13 36  1  0
 14 15  1  0
 14 37  1  0
 14 38  1  0
 15 16  1  0
 15 39  1  0
 16 17  1  0
 16 18  1  0
 16 40  1  6
 17 18  1  0
 17 41  1  0
 17 42  1  0
 18 43  1  0
 18 44  1  0
M  END

