
     RDKit          3D

 62 65  0  0  0  0  0  0  0  0999 V2000
    1.1486   -0.2526    0.7492 C   0  0  0  0  0  0  0  0  0  0  0  0
    2.5557   -0.1120    1.0809 N   0  0  0  0  0  0  0  0  0  0  0  0
    2.7645    0.8886    2.1112 C   0  0  0  0  0  0  0  0  0  0  0  0
    3.1839   -1.3916    1.3733 C   0  0  0  0  0  0  0  0  0  0  0  0
    4.7088   -1.3362    1.2494 C   0  0  0  0  0  0  0  0  0  0  0  0
    5.3408   -2.7212    1.3119 C   0  0  0  0  0  0  0  0  0  0  0  0
    4.6715   -3.7335    1.4141 O   0  0  0  0  0  0  0  0  0  0  0  0
    6.7271   -2.7934    1.2451 N   0  0  0  0  0  0  0  0  0  0  0  0
    7.3761   -4.0901    1.3334 C   0  0  0  0  0  0  0  0  0  0  0  0
    8.3075   -4.3051    0.1364 C   0  0  0  0  0  0  0  0  0  0  0  0
    9.2663   -3.2009    0.0099 N   0  0  0  0  0  0  0  0  0  0  0  0
   10.6243   -3.3527    0.0198 C   0  0  0  0  0  0  0  0  0  0  0  0
   11.5078   -2.2722   -0.3051 C   0  0  0  0  0  0  0  0  0  0  0  0
   12.8749   -2.4058   -0.2891 C   0  0  0  0  0  0  0  0  0  0  0  0
   13.4825   -3.6535    0.0619 C   0  0  0  0  0  0  0  0  0  0  0  0
   14.8162   -3.8585    0.1127 N   0  0  0  0  0  0  0  0  0  0  0  0
   15.8827   -2.8927   -0.1528 C   0  0  0  0  0  0  0  0  0  0  0  0
   15.6007   -1.7561   -0.4895 O   0  0  0  0  0  0  0  0  0  0  0  0
   17.0993   -3.4036    0.0156 N   0  0  0  0  0  0  0  0  0  0  0  0
   17.4582   -4.7791    0.4345 C   0  0  0  0  0  0  0  0  0  0  0  0
   18.9589   -4.7548    0.4502 C   0  0  0  0  0  0  0  0  0  0  0  0
   19.8253   -5.8462    0.7887 C   0  0  0  0  0  0  0  0  0  0  0  0
   21.2295   -5.5585    0.7214 C   0  0  0  0  0  0  0  0  0  0  0  0
   21.7101   -4.3151    0.3568 C   0  0  0  0  0  0  0  0  0  0  0  0
   20.8290   -3.2252    0.0199 C   0  0  0  0  0  0  0  0  0  0  0  0
   19.4352   -3.5142    0.0862 C   0  0  0  0  0  0  0  0  0  0  0  0
   18.3044   -2.5697   -0.2138 C   0  0  0  0  0  0  0  0  0  0  0  0
   12.6075   -4.7419    0.3744 C   0  0  0  0  0  0  0  0  0  0  0  0
   11.2418   -4.6024    0.3526 C   0  0  0  0  0  0  0  0  0  0  0  0
    8.5878   -1.9076   -0.1045 C   0  0  0  0  0  0  0  0  0  0  0  0
    7.6440   -1.6824    1.0911 C   0  0  0  0  0  0  0  0  0  0  0  0
    0.7354    0.7216    0.4432 H   0  0  0  0  0  0  0  0  0  0  0  0
    0.5299   -0.6285    1.5965 H   0  0  0  0  0  0  0  0  0  0  0  0
    1.0241   -0.9514   -0.0926 H   0  0  0  0  0  0  0  0  0  0  0  0
    2.3196    1.8467    1.8002 H   0  0  0  0  0  0  0  0  0  0  0  0
    3.8378    1.0688    2.2778 H   0  0  0  0  0  0  0  0  0  0  0  0
    2.3134    0.6088    3.0919 H   0  0  0  0  0  0  0  0  0  0  0  0
    2.8128   -2.1362    0.6543 H   0  0  0  0  0  0  0  0  0  0  0  0
    2.9081   -1.7826    2.3788 H   0  0  0  0  0  0  0  0  0  0  0  0
    5.1496   -0.7061    2.0400 H   0  0  0  0  0  0  0  0  0  0  0  0
    4.9605   -0.8483    0.2913 H   0  0  0  0  0  0  0  0  0  0  0  0
    6.5931   -4.8585    1.3515 H   0  0  0  0  0  0  0  0  0  0  0  0
    7.9602   -4.1630    2.2702 H   0  0  0  0  0  0  0  0  0  0  0  0
    7.7098   -4.3360   -0.7910 H   0  0  0  0  0  0  0  0  0  0  0  0
    8.8250   -5.2640    0.2226 H   0  0  0  0  0  0  0  0  0  0  0  0
   11.1069   -1.3060   -0.6044 H   0  0  0  0  0  0  0  0  0  0  0  0
   13.5287   -1.5771   -0.5492 H   0  0  0  0  0  0  0  0  0  0  0  0
   15.1176   -4.7919    0.3713 H   0  0  0  0  0  0  0  0  0  0  0  0
   17.0528   -5.5257   -0.2833 H   0  0  0  0  0  0  0  0  0  0  0  0
   17.0256   -5.0091    1.4325 H   0  0  0  0  0  0  0  0  0  0  0  0
   19.4481   -6.8271    1.0763 H   0  0  0  0  0  0  0  0  0  0  0  0
   21.9447   -6.3507    0.9671 H   0  0  0  0  0  0  0  0  0  0  0  0
   22.7923   -4.1534    0.3231 H   0  0  0  0  0  0  0  0  0  0  0  0
   21.2071   -2.2446   -0.2675 H   0  0  0  0  0  0  0  0  0  0  0  0
   18.2981   -2.1897   -1.2524 H   0  0  0  0  0  0  0  0  0  0  0  0
   18.2706   -1.6823    0.4455 H   0  0  0  0  0  0  0  0  0  0  0  0
   13.0388   -5.7067    0.6477 H   0  0  0  0  0  0  0  0  0  0  0  0
   10.6392   -5.4670    0.6213 H   0  0  0  0  0  0  0  0  0  0  0  0
    8.0052   -1.8971   -1.0419 H   0  0  0  0  0  0  0  0  0  0  0  0
    9.3130   -1.0909   -0.1445 H   0  0  0  0  0  0  0  0  0  0  0  0
    7.0991   -0.7460    0.9298 H   0  0  0  0  0  0  0  0  0  0  0  0
    8.2559   -1.5580    2.0055 H   0  0  0  0  0  0  0  0  0  0  0  0
  1  2  1  0
  1 32  1  0
  1 33  1  0
  1 34  1  0
  2  3  1  0
  2  4  1  0
  3 35  1  0
  3 36  1  0
  3 37  1  0
  4  5  1  0
  4 38  1  0
  4 39  1  0
  5  6  1  0
  5 40  1  0
  5 41  1  0
  6  7  2  0
  6  8  1  0
  8  9  1  0
  8 31  1  0
  9 10  1  0
  9 42  1  0
  9 43  1  0
 10 11  1  0
 10 44  1  0
 10 45  1  0
 11 12  1  0
 11 30  1  0
 12 13  2  0
 12 29  1  0
 13 14  1  0
 13 46  1  0
 14 15  2  0
 14 47  1  0
 15 16  1  0
 15 28  1  0
 16 17  1  0
 16 48  1  0
 17 18  2  0
 17 19  1  0
 19 20  1  0
 19 27  1  0
 20 21  1  0
 20 49  1  0
 20 50  1  0
 21 22  1  0
 21 26  2  0
 22 23  2  0
 22 51  1  0
 23 24  1  0
 23 52  1  0
 24 25  2  0
 24 53  1  0
 25 26  1  0
 25 54  1  0
 26 27  1  0
 27 55  1  0
 27 56  1  0
 28 29  2  0
 28 57  1  0
 29 58  1  0
 30 31  1  0
 30 59  1  0
 30 60  1  0
 31 61  1  0
 31 62  1  0
M  END

