
     RDKit          3D

 55 59  0  0  0  0  0  0  0  0999 V2000
    8.0454   -0.2566   -2.5673 C   0  0  0  0  0  0  0  0  0  0  0  0
    7.4663   -1.9422   -2.9113 S   0  0  0  0  0  0  0  0  0  0  0  0
    5.7223   -1.8642   -2.5823 C   0  0  0  0  0  0  0  0  0  0  0  0
    5.0398   -0.7161   -2.1483 C   0  0  0  0  0  0  0  0  0  0  0  0
    3.6630   -0.7750   -1.9191 C   0  0  0  0  0  0  0  0  0  0  0  0
    2.9500   -1.9595   -2.1078 C   0  0  0  0  0  0  0  0  0  0  0  0
    3.6233   -3.1075   -2.5536 C   0  0  0  0  0  0  0  0  0  0  0  0
    2.9324   -4.3503   -2.7721 N   0  0  0  0  0  0  0  0  0  0  0  0
    3.2777   -5.4286   -1.9341 C   0  0  0  0  0  0  0  0  0  0  0  0
    3.9851   -5.2814   -0.9517 O   0  0  0  0  0  0  0  0  0  0  0  0
    2.7278   -6.7328   -2.3191 C   0  0  0  0  0  0  0  0  0  0  0  0
    2.7720   -7.9446   -1.6406 C   0  0  0  0  0  0  0  0  0  0  0  0
    2.1323   -8.9025   -2.4777 C   0  0  0  0  0  0  0  0  0  0  0  0
    1.7641  -10.2910   -2.5469 C   0  0  0  0  0  0  0  0  0  0  0  0
    1.1278  -10.5968   -3.7161 C   0  0  0  0  0  0  0  0  0  0  0  0
    0.9333   -9.2196   -4.8042 S   0  0  0  0  0  0  0  0  0  0  0  0
    1.7322   -8.2146   -3.6382 C   0  0  0  0  0  0  0  0  0  0  0  0
    2.0771   -6.9036   -3.5387 N   0  0  0  0  0  0  0  0  0  0  0  0
    2.0023   -5.8398   -4.5154 C   0  0  0  0  0  0  0  0  0  0  0  0
    1.8683   -4.4787   -3.8005 C   0  0  2  0  0  0  0  0  0  0  0  0
    1.9710   -3.3870   -4.8784 C   0  0  0  0  0  0  0  0  0  0  0  0
    0.4194   -4.4265   -3.2080 C   0  0  0  0  0  0  0  0  0  0  0  0
   -0.5315   -4.5831   -3.9589 O   0  0  0  0  0  0  0  0  0  0  0  0
    0.3030   -4.1931   -1.8763 N   0  0  0  0  0  0  0  0  0  0  0  0
   -0.9722   -4.1839   -1.1807 C   0  0  1  0  0  0  0  0  0  0  0  0
   -1.2424   -5.4163   -0.2994 C   0  0  0  0  0  0  0  0  0  0  0  0
   -2.4454   -4.9710    0.5418 C   0  0  0  0  0  0  0  0  0  0  0  0
   -2.1994   -3.4633    0.8294 C   0  0  0  0  0  0  0  0  0  0  0  0
   -1.1375   -3.0002   -0.2037 C   0  0  0  0  0  0  0  0  0  0  0  0
    4.9998   -3.0519   -2.7882 C   0  0  0  0  0  0  0  0  0  0  0  0
    9.1259   -0.2727   -2.7684 H   0  0  0  0  0  0  0  0  0  0  0  0
    7.8862    0.0235   -1.5154 H   0  0  0  0  0  0  0  0  0  0  0  0
    7.5730    0.4831   -3.2307 H   0  0  0  0  0  0  0  0  0  0  0  0
    5.5677    0.2233   -1.9834 H   0  0  0  0  0  0  0  0  0  0  0  0
    3.1385    0.1212   -1.5775 H   0  0  0  0  0  0  0  0  0  0  0  0
    1.8775   -1.9918   -1.9133 H   0  0  0  0  0  0  0  0  0  0  0  0
    3.2168   -8.0843   -0.6584 H   0  0  0  0  0  0  0  0  0  0  0  0
    1.9631  -11.0299   -1.7695 H   0  0  0  0  0  0  0  0  0  0  0  0
    0.7434  -11.5632   -4.0392 H   0  0  0  0  0  0  0  0  0  0  0  0
    1.1149   -5.9843   -5.1457 H   0  0  0  0  0  0  0  0  0  0  0  0
    2.9036   -5.8364   -5.1541 H   0  0  0  0  0  0  0  0  0  0  0  0
    2.9633   -3.4020   -5.3520 H   0  0  0  0  0  0  0  0  0  0  0  0
    1.8039   -2.3846   -4.4663 H   0  0  0  0  0  0  0  0  0  0  0  0
    1.1991   -3.5738   -5.6366 H   0  0  0  0  0  0  0  0  0  0  0  0
    1.1505   -4.1414   -1.3217 H   0  0  0  0  0  0  0  0  0  0  0  0
   -1.7391   -4.1366   -1.9684 H   0  0  0  0  0  0  0  0  0  0  0  0
   -0.3634   -5.6058    0.3434 H   0  0  0  0  0  0  0  0  0  0  0  0
   -1.4231   -6.3278   -0.8891 H   0  0  0  0  0  0  0  0  0  0  0  0
   -2.5715   -5.5658    1.4591 H   0  0  0  0  0  0  0  0  0  0  0  0
   -3.3686   -5.0955   -0.0482 H   0  0  0  0  0  0  0  0  0  0  0  0
   -1.8313   -3.3108    1.8557 H   0  0  0  0  0  0  0  0  0  0  0  0
   -3.1320   -2.8849    0.7450 H   0  0  0  0  0  0  0  0  0  0  0  0
   -0.1719   -2.8107    0.2965 H   0  0  0  0  0  0  0  0  0  0  0  0
   -1.4129   -2.0711   -0.7258 H   0  0  0  0  0  0  0  0  0  0  0  0
    5.5174   -3.9521   -3.1258 H   0  0  0  0  0  0  0  0  0  0  0  0
  1  2  1  0
  1 31  1  0
  1 32  1  0
  1 33  1  0
  2  3  1  0
  3  4  2  0
  3 30  1  0
  4  5  1  0
  4 34  1  0
  5  6  2  0
  5 35  1  0
  6  7  1  0
  6 36  1  0
  7  8  1  0
  7 30  2  0
  8  9  1  0
  8 20  1  0
  9 10  2  0
  9 11  1  0
 11 12  2  0
 11 18  1  0
 12 13  1  0
 12 37  1  0
 13 14  1  0
 13 17  2  0
 14 15  2  0
 14 38  1  0
 15 16  1  0
 15 39  1  0
 16 17  1  0
 17 18  1  0
 18 19  1  0
 19 20  1  0
 19 40  1  0
 19 41  1  0
 20 21  1  0
 20 22  1  1
 21 42  1  0
 21 43  1  0
 21 44  1  0
 22 23  2  0
 22 24  1  0
 24 25  1  0
 24 45  1  0
 25 26  1  0
 25 29  1  0
 25 46  1  6
 26 27  1  0
 26 47  1  0
 26 48  1  0
 27 28  1  0
 27 49  1  0
 27 50  1  0
 28 29  1  0
 28 51  1  0
 28 52  1  0
 29 53  1  0
 29 54  1  0
 30 55  1  0
M  END

