
     RDKit          3D

 60 63  0  0  0  0  0  0  0  0999 V2000
    2.6872    0.1919   -4.4004 C   0  0  0  0  0  0  0  0  0  0  0  0
    3.9312   -0.2489   -3.6668 C   0  0  0  0  0  0  0  0  0  0  0  0
    4.6512    0.6366   -2.8583 C   0  0  0  0  0  0  0  0  0  0  0  0
    5.7952    0.2463   -2.1444 C   0  0  0  0  0  0  0  0  0  0  0  0
    6.5493    1.2600   -1.3229 C   0  0  0  0  0  0  0  0  0  0  0  0
    6.2143   -1.0981   -2.2390 C   0  0  0  0  0  0  0  0  0  0  0  0
    7.3680   -1.5650   -1.5532 N   0  0  0  0  0  0  0  0  0  0  0  0
    7.5689   -1.5529   -0.1970 C   0  0  0  0  0  0  0  0  0  0  0  0
    6.8294   -1.0151    0.6084 O   0  0  0  0  0  0  0  0  0  0  0  0
    8.8726   -2.2601    0.2372 C   0  0  1  0  0  0  0  0  0  0  0  0
    9.7061   -1.5840   -0.0254 H   0  0  0  0  0  0  0  0  0  0  0  0
    8.8824   -2.5532    1.7274 C   0  0  0  0  0  0  0  0  0  0  0  0
    9.0273   -3.4901   -0.4899 O   0  0  0  0  0  0  0  0  0  0  0  0
   10.0872   -3.6166   -1.3463 C   0  0  0  0  0  0  0  0  0  0  0  0
   10.9656   -4.6737   -1.2095 C   0  0  0  0  0  0  0  0  0  0  0  0
   12.0262   -4.9070   -2.1255 C   0  0  0  0  0  0  0  0  0  0  0  0
   12.9806   -6.0510   -1.9886 C   0  0  0  0  0  0  0  0  0  0  0  0
   12.0974   -3.9169   -3.1816 C   0  0  0  0  0  0  0  0  0  0  0  0
   12.9392   -3.6762   -4.3262 C   0  0  0  0  0  0  0  0  0  0  0  0
   14.1122   -4.4756   -4.7858 C   0  0  0  0  0  0  0  0  0  0  0  0
   12.5814   -2.6040   -5.0221 N   0  0  0  0  0  0  0  0  0  0  0  0
   11.4807   -2.0891   -4.3525 N   0  0  0  0  0  0  0  0  0  0  0  0
   10.8897   -0.9685   -4.8288 C   0  0  0  0  0  0  0  0  0  0  0  0
   11.3975   -0.3742   -6.0377 C   0  0  0  0  0  0  0  0  0  0  0  0
   10.7970    0.7562   -6.5487 C   0  0  0  0  0  0  0  0  0  0  0  0
    9.6888    1.3376   -5.8953 C   0  0  0  0  0  0  0  0  0  0  0  0
    9.1910    0.7693   -4.7055 C   0  0  0  0  0  0  0  0  0  0  0  0
    9.7721   -0.3606   -4.1636 C   0  0  0  0  0  0  0  0  0  0  0  0
   11.1499   -2.8955   -3.1972 C   0  0  0  0  0  0  0  0  0  0  0  0
   10.1426   -2.6758   -2.3705 N   0  0  0  0  0  0  0  0  0  0  0  0
    5.5153   -2.0142   -3.0595 C   0  0  0  0  0  0  0  0  0  0  0  0
    5.9789   -3.4464   -3.1733 C   0  0  0  0  0  0  0  0  0  0  0  0
    4.3909   -1.5700   -3.7618 C   0  0  0  0  0  0  0  0  0  0  0  0
    2.6192    1.2887   -4.4608 H   0  0  0  0  0  0  0  0  0  0  0  0
    1.7759   -0.1659   -3.8898 H   0  0  0  0  0  0  0  0  0  0  0  0
    2.6577   -0.2084   -5.4266 H   0  0  0  0  0  0  0  0  0  0  0  0
    4.3207    1.6772   -2.7820 H   0  0  0  0  0  0  0  0  0  0  0  0
    6.2419    2.2844   -1.5807 H   0  0  0  0  0  0  0  0  0  0  0  0
    7.6374    1.1722   -1.4786 H   0  0  0  0  0  0  0  0  0  0  0  0
    6.3807    1.0925   -0.2482 H   0  0  0  0  0  0  0  0  0  0  0  0
    8.0172   -2.1589   -2.0705 H   0  0  0  0  0  0  0  0  0  0  0  0
    8.7150   -1.6303    2.2993 H   0  0  0  0  0  0  0  0  0  0  0  0
    9.8486   -2.9931    2.0157 H   0  0  0  0  0  0  0  0  0  0  0  0
    8.0793   -3.2609    1.9810 H   0  0  0  0  0  0  0  0  0  0  0  0
   10.8125   -5.3461   -0.3623 H   0  0  0  0  0  0  0  0  0  0  0  0
   12.7261   -6.6644   -1.1107 H   0  0  0  0  0  0  0  0  0  0  0  0
   14.0323   -5.7258   -1.8595 H   0  0  0  0  0  0  0  0  0  0  0  0
   12.9751   -6.7284   -2.8655 H   0  0  0  0  0  0  0  0  0  0  0  0
   13.8176   -5.5151   -5.0030 H   0  0  0  0  0  0  0  0  0  0  0  0
   14.8868   -4.5219   -4.0034 H   0  0  0  0  0  0  0  0  0  0  0  0
   14.5436   -4.0291   -5.6916 H   0  0  0  0  0  0  0  0  0  0  0  0
   12.2491   -0.8514   -6.5166 H   0  0  0  0  0  0  0  0  0  0  0  0
   11.1803    1.2034   -7.4683 H   0  0  0  0  0  0  0  0  0  0  0  0
    9.2174    2.2303   -6.3117 H   0  0  0  0  0  0  0  0  0  0  0  0
    8.3346    1.2219   -4.2022 H   0  0  0  0  0  0  0  0  0  0  0  0
    9.4122   -0.8093   -3.2416 H   0  0  0  0  0  0  0  0  0  0  0  0
    6.1375   -3.9003   -2.1822 H   0  0  0  0  0  0  0  0  0  0  0  0
    6.9424   -3.5265   -3.7074 H   0  0  0  0  0  0  0  0  0  0  0  0
    5.2474   -4.0561   -3.7226 H   0  0  0  0  0  0  0  0  0  0  0  0
    3.8499   -2.2825   -4.3925 H   0  0  0  0  0  0  0  0  0  0  0  0
  1  2  1  0
  1 34  1  0
  1 35  1  0
  1 36  1  0
  2  3  2  0
  2 33  1  0
  3  4  1  0
  3 37  1  0
  4  5  1  0
  4  6  2  0
  5 38  1  0
  5 39  1  0
  5 40  1  0
  6  7  1  0
  6 31  1  0
  7  8  1  0
  7 41  1  0
  8  9  2  0
  8 10  1  0
 10 11  1  6
 10 12  1  0
 10 13  1  0
 12 42  1  0
 12 43  1  0
 12 44  1  0
 13 14  1  0
 14 15  2  0
 14 30  1  0
 15 16  1  0
 15 45  1  0
 16 17  1  0
 16 18  2  0
 17 46  1  0
 17 47  1  0
 17 48  1  0
 18 19  1  0
 18 29  1  0
 19 20  1  0
 19 21  2  0
 20 49  1  0
 20 50  1  0
 20 51  1  0
 21 22  1  0
 22 23  1  0
 22 29  1  0
 23 24  2  0
 23 28  1  0
 24 25  1  0
 24 52  1  0
 25 26  2  0
 25 53  1  0
 26 27  1  0
 26 54  1  0
 27 28  2  0
 27 55  1  0
 28 56  1  0
 29 30  2  0
 31 32  1  0
 31 33  2  0
 32 57  1  0
 32 58  1  0
 32 59  1  0
 33 60  1  0
M  END

