
     RDKit          3D

 50 52  0  0  0  0  0  0  0  0999 V2000
    2.5581    1.7867   -1.2835 C   0  0  0  0  0  0  0  0  0  0  0  0
    2.4335    2.0440    0.2221 C   0  0  1  0  0  0  0  0  0  0  0  0
    0.9991    1.8253    0.7168 C   0  0  0  0  0  0  0  0  0  0  0  0
    3.3956    1.1667    1.0460 C   0  0  0  0  0  0  0  0  0  0  0  0
    4.7992    1.3265    0.7033 N   0  0  0  0  0  0  0  0  0  0  0  0
    5.5543    0.3919   -0.0434 C   0  0  0  0  0  0  0  0  0  0  0  0
    5.0983   -0.6453   -0.4744 O   0  0  0  0  0  0  0  0  0  0  0  0
    6.9230    0.9299   -0.1701 C   0  0  0  0  0  0  0  0  0  0  0  0
    7.8864    0.2149   -1.0307 C   0  0  0  0  0  0  0  0  0  0  0  0
    8.2353   -1.1202   -0.7452 C   0  0  0  0  0  0  0  0  0  0  0  0
    9.0987   -1.8554   -1.5544 C   0  0  0  0  0  0  0  0  0  0  0  0
    9.6344   -1.2559   -2.6976 C   0  0  0  0  0  0  0  0  0  0  0  0
   10.7295   -2.1531   -3.7206 Cl  0  0  0  0  0  0  0  0  0  0  0  0
    9.2962    0.0542   -3.0395 C   0  0  0  0  0  0  0  0  0  0  0  0
    8.4216    0.7658   -2.2142 C   0  0  0  0  0  0  0  0  0  0  0  0
    7.9667    2.3810   -2.7235 Cl  0  0  0  0  0  0  0  0  0  0  0  0
    6.9913    2.1172    0.5355 C   0  0  0  0  0  0  0  0  0  0  0  0
    8.0383    2.9257    0.8225 N   0  0  0  0  0  0  0  0  0  0  0  0
    9.4284    2.4650    0.7254 C   0  0  0  0  0  0  0  0  0  0  0  0
   10.3152    3.4593   -0.0281 C   0  0  0  0  0  0  0  0  0  0  0  0
   10.2042    4.8637    0.5719 C   0  0  0  0  0  0  0  0  0  0  0  0
    8.7385    5.3082    0.6770 C   0  0  2  0  0  0  0  0  0  0  0  0
    8.5910    6.6809    1.3367 C   0  0  0  0  0  0  0  0  0  0  0  0
    7.9138    4.2545    1.4368 C   0  0  0  0  0  0  0  0  0  0  0  0
    5.5843    2.3763    1.1089 C   0  0  0  0  0  0  0  0  0  0  0  0
    5.2088    3.2969    1.8065 O   0  0  0  0  0  0  0  0  0  0  0  0
    1.8637    2.4295   -1.8481 H   0  0  0  0  0  0  0  0  0  0  0  0
    2.3270    0.7371   -1.5299 H   0  0  0  0  0  0  0  0  0  0  0  0
    3.5751    1.9962   -1.6505 H   0  0  0  0  0  0  0  0  0  0  0  0
    2.7061    3.0958    0.4210 H   0  0  0  0  0  0  0  0  0  0  0  0
    0.6773    0.7825    0.5517 H   0  0  0  0  0  0  0  0  0  0  0  0
    0.2923    2.4790    0.1818 H   0  0  0  0  0  0  0  0  0  0  0  0
    0.9025    2.0396    1.7938 H   0  0  0  0  0  0  0  0  0  0  0  0
    3.1631    0.1014    0.8928 H   0  0  0  0  0  0  0  0  0  0  0  0
    3.2776    1.3994    2.1163 H   0  0  0  0  0  0  0  0  0  0  0  0
    7.8106   -1.5871    0.1451 H   0  0  0  0  0  0  0  0  0  0  0  0
    9.3577   -2.8855   -1.3058 H   0  0  0  0  0  0  0  0  0  0  0  0
    9.6931    0.5135   -3.9444 H   0  0  0  0  0  0  0  0  0  0  0  0
    9.4586    1.4769    0.2567 H   0  0  0  0  0  0  0  0  0  0  0  0
    9.8092    2.3468    1.7599 H   0  0  0  0  0  0  0  0  0  0  0  0
   10.0095    3.4777   -1.0861 H   0  0  0  0  0  0  0  0  0  0  0  0
   11.3572    3.1004    0.0039 H   0  0  0  0  0  0  0  0  0  0  0  0
   10.7802    5.5861   -0.0306 H   0  0  0  0  0  0  0  0  0  0  0  0
   10.6533    4.8723    1.5835 H   0  0  0  0  0  0  0  0  0  0  0  0
    8.3249    5.3621   -0.3472 H   0  0  0  0  0  0  0  0  0  0  0  0
    8.9689    6.6672    2.3733 H   0  0  0  0  0  0  0  0  0  0  0  0
    7.5377    7.0028    1.3696 H   0  0  0  0  0  0  0  0  0  0  0  0
    9.1602    7.4466    0.7861 H   0  0  0  0  0  0  0  0  0  0  0  0
    6.8594    4.5367    1.4816 H   0  0  0  0  0  0  0  0  0  0  0  0
    8.2759    4.1980    2.4833 H   0  0  0  0  0  0  0  0  0  0  0  0
  1  2  1  0
  1 27  1  0
  1 28  1  0
  1 29  1  0
  2  3  1  0
  2  4  1  0
  2 30  1  6
  3 31  1  0
  3 32  1  0
  3 33  1  0
  4  5  1  0
  4 34  1  0
  4 35  1  0
  5  6  1  0
  5 25  1  0
  6  7  2  0
  6  8  1  0
  8  9  1  0
  8 17  2  0
  9 10  2  0
  9 15  1  0
 10 11  1  0
 10 36  1  0
 11 12  2  0
 11 37  1  0
 12 13  1  0
 12 14  1  0
 14 15  2  0
 14 38  1  0
 15 16  1  0
 17 18  1  0
 17 25  1  0
 18 19  1  0
 18 24  1  0
 19 20  1  0
 19 39  1  0
 19 40  1  0
 20 21  1  0
 20 41  1  0
 20 42  1  0
 21 22  1  0
 21 43  1  0
 21 44  1  0
 22 23  1  0
 22 24  1  0
 22 45  1  6
 23 46  1  0
 23 47  1  0
 23 48  1  0
 24 49  1  0
 24 50  1  0
 25 26  2  0
M  END

