
     RDKit          3D

 51 54  0  0  0  0  0  0  0  0999 V2000
    2.6080   -0.0845    3.0672 C   0  0  0  0  0  0  0  0  0  0  0  0
    3.5548   -0.0890    1.9718 N   0  0  0  0  0  0  0  0  0  0  0  0
    3.7799   -1.1942    1.2042 C   0  0  0  0  0  0  0  0  0  0  0  0
    3.1812   -2.2501    1.3886 O   0  0  0  0  0  0  0  0  0  0  0  0
    4.8181   -1.0441    0.1179 C   0  0  0  0  0  0  0  0  0  0  0  0
    5.2584    0.1946   -0.3786 C   0  0  0  0  0  0  0  0  0  0  0  0
    6.2449    0.2242   -1.3673 C   0  0  0  0  0  0  0  0  0  0  0  0
    6.7805   -0.9593   -1.8756 C   0  0  0  0  0  0  0  0  0  0  0  0
    6.3289   -2.2065   -1.4040 C   0  0  0  0  0  0  0  0  0  0  0  0
    6.9099   -3.3705   -1.9268 N   0  0  0  0  0  0  0  0  0  0  0  0
    6.4560   -4.6664   -1.8873 C   0  0  0  0  0  0  0  0  0  0  0  0
    7.3447   -5.6025   -2.2837 N   0  0  0  0  0  0  0  0  0  0  0  0
    6.8988   -6.8517   -2.1617 C   0  0  0  0  0  0  0  0  0  0  0  0
    5.7074   -7.2389   -1.7170 N   0  0  0  0  0  0  0  0  0  0  0  0
    4.8838   -6.2136   -1.4071 C   0  0  0  0  0  0  0  0  0  0  0  0
    3.6339   -6.4879   -0.9947 N   0  0  0  0  0  0  0  0  0  0  0  0
    2.6110   -5.5747   -0.4929 C   0  0  0  0  0  0  0  0  0  0  0  0
    1.9238   -6.8028    0.1823 C   0  0  2  0  0  0  0  0  0  0  0  0
    1.9703   -6.8002    1.5804 O   0  0  0  0  0  0  0  0  0  0  0  0
    1.0625   -5.8842    2.1808 C   0  0  0  0  0  0  0  0  0  0  0  0
    1.4390   -5.6809    3.6258 C   0  0  0  0  0  0  0  0  0  0  0  0
    2.2301   -4.5856    4.0038 C   0  0  0  0  0  0  0  0  0  0  0  0
    2.6161   -4.4090    5.3348 C   0  0  0  0  0  0  0  0  0  0  0  0
    2.2113   -5.3394    6.2955 C   0  0  0  0  0  0  0  0  0  0  0  0
    2.6893   -5.1221    7.9663 Cl  0  0  0  0  0  0  0  0  0  0  0  0
    1.4271   -6.4409    5.9407 C   0  0  0  0  0  0  0  0  0  0  0  0
    1.0482   -6.6031    4.6069 C   0  0  0  0  0  0  0  0  0  0  0  0
    3.0410   -7.6933   -0.4202 C   0  0  0  0  0  0  0  0  0  0  0  0
    5.2175   -4.9122   -1.4774 N   0  0  0  0  0  0  0  0  0  0  0  0
    5.3446   -2.2302   -0.4015 C   0  0  0  0  0  0  0  0  0  0  0  0
    2.1743    0.9199    3.1865 H   0  0  0  0  0  0  0  0  0  0  0  0
    3.0701   -0.3828    4.0259 H   0  0  0  0  0  0  0  0  0  0  0  0
    1.8049   -0.7991    2.8446 H   0  0  0  0  0  0  0  0  0  0  0  0
    4.1946    0.6900    1.8875 H   0  0  0  0  0  0  0  0  0  0  0  0
    4.8219    1.1336   -0.0302 H   0  0  0  0  0  0  0  0  0  0  0  0
    6.5921    1.1825   -1.7615 H   0  0  0  0  0  0  0  0  0  0  0  0
    7.5460   -0.9215   -2.6557 H   0  0  0  0  0  0  0  0  0  0  0  0
    7.8240   -3.2845   -2.3578 H   0  0  0  0  0  0  0  0  0  0  0  0
    7.5951   -7.6486   -2.4555 H   0  0  0  0  0  0  0  0  0  0  0  0
    2.0400   -5.0734   -1.2929 H   0  0  0  0  0  0  0  0  0  0  0  0
    2.9831   -4.8113    0.2086 H   0  0  0  0  0  0  0  0  0  0  0  0
    0.9039   -7.0183   -0.1900 H   0  0  0  0  0  0  0  0  0  0  0  0
    0.0281   -6.2750    2.0959 H   0  0  0  0  0  0  0  0  0  0  0  0
    1.0941   -4.9117    1.6560 H   0  0  0  0  0  0  0  0  0  0  0  0
    2.5485   -3.8585    3.2499 H   0  0  0  0  0  0  0  0  0  0  0  0
    3.2303   -3.5567    5.6307 H   0  0  0  0  0  0  0  0  0  0  0  0
    1.1200   -7.1579    6.7039 H   0  0  0  0  0  0  0  0  0  0  0  0
    0.4364   -7.4649    4.3259 H   0  0  0  0  0  0  0  0  0  0  0  0
    2.7181   -8.4407   -1.1632 H   0  0  0  0  0  0  0  0  0  0  0  0
    3.6667   -8.1799    0.3446 H   0  0  0  0  0  0  0  0  0  0  0  0
    4.9724   -3.1745   -0.0196 H   0  0  0  0  0  0  0  0  0  0  0  0
  1  2  1  0
  1 31  1  0
  1 32  1  0
  1 33  1  0
  2  3  1  0
  2 34  1  0
  3  4  2  0
  3  5  1  0
  5  6  2  0
  5 30  1  0
  6  7  1  0
  6 35  1  0
  7  8  2  0
  7 36  1  0
  8  9  1  0
  8 37  1  0
  9 10  1  0
  9 30  2  0
 10 11  1  0
 10 38  1  0
 11 12  2  0
 11 29  1  0
 12 13  1  0
 13 14  2  0
 13 39  1  0
 14 15  1  0
 15 16  1  0
 15 29  2  0
 16 17  1  0
 16 28  1  0
 17 18  1  0
 17 40  1  0
 17 41  1  0
 18 19  1  0
 18 28  1  0
 18 42  1  1
 19 20  1  0
 20 21  1  0
 20 43  1  0
 20 44  1  0
 21 22  2  0
 21 27  1  0
 22 23  1  0
 22 45  1  0
 23 24  2  0
 23 46  1  0
 24 25  1  0
 24 26  1  0
 26 27  2  0
 26 47  1  0
 27 48  1  0
 28 49  1  0
 28 50  1  0
 30 51  1  0
M  END

