
     RDKit          3D

 29 30  0  0  0  0  0  0  0  0999 V2000
    0.9134   -0.2479    0.2525 C   0  0  0  0  0  0  0  0  0  0  0  0
    2.4143   -0.1744    0.1453 C   0  0  0  0  0  0  0  0  0  0  0  0
    3.0642    1.0705    0.1160 C   0  0  0  0  0  0  0  0  0  0  0  0
    4.4554    1.1384    0.0135 C   0  0  0  0  0  0  0  0  0  0  0  0
    5.1693    2.3202   -0.0511 O   0  0  0  0  0  0  0  0  0  0  0  0
    4.5362    3.5362    0.2601 C   0  0  1  0  0  0  0  0  0  0  0  0
    3.8309    4.1981   -0.9033 C   0  0  0  0  0  0  0  0  0  0  0  0
    3.1003    5.1452   -0.7782 O   0  0  0  0  0  0  0  0  0  0  0  0
    4.1224    3.6647   -2.0997 O   0  0  0  0  0  0  0  0  0  0  0  0
    4.0313    3.7859    1.6579 C   0  0  0  0  0  0  0  0  0  0  0  0
    5.2945    4.4490    1.1992 C   0  0  0  0  0  0  0  0  0  0  0  0
    5.2169   -0.0316   -0.0592 C   0  0  0  0  0  0  0  0  0  0  0  0
    4.6073   -1.2900   -0.0342 C   0  0  0  0  0  0  0  0  0  0  0  0
    5.4335   -2.5470   -0.1107 C   0  0  0  0  0  0  0  0  0  0  0  0
    3.2035   -1.3336    0.0704 C   0  0  0  0  0  0  0  0  0  0  0  0
    2.4090   -2.9023    0.1078 Cl  0  0  0  0  0  0  0  0  0  0  0  0
    0.4695    0.7564    0.2973 H   0  0  0  0  0  0  0  0  0  0  0  0
    0.6062   -0.8064    1.1515 H   0  0  0  0  0  0  0  0  0  0  0  0
    0.4804   -0.7821   -0.6085 H   0  0  0  0  0  0  0  0  0  0  0  0
    2.4623    1.9777    0.1726 H   0  0  0  0  0  0  0  0  0  0  0  0
    4.7606    2.9425   -1.9662 H   0  0  0  0  0  0  0  0  0  0  0  0
    4.1137    2.9510    2.3581 H   0  0  0  0  0  0  0  0  0  0  0  0
    3.1272    4.3941    1.7403 H   0  0  0  0  0  0  0  0  0  0  0  0
    6.2457    4.0528    1.5637 H   0  0  0  0  0  0  0  0  0  0  0  0
    5.2738    5.5181    0.9745 H   0  0  0  0  0  0  0  0  0  0  0  0
    6.3028    0.0557   -0.1342 H   0  0  0  0  0  0  0  0  0  0  0  0
    6.5045   -2.3115   -0.1830 H   0  0  0  0  0  0  0  0  0  0  0  0
    5.1498   -3.1563   -0.9841 H   0  0  0  0  0  0  0  0  0  0  0  0
    5.2739   -3.1815    0.7761 H   0  0  0  0  0  0  0  0  0  0  0  0
  1  2  1  0
  1 17  1  0
  1 18  1  0
  1 19  1  0
  2  3  2  0
  2 15  1  0
  3  4  1  0
  3 20  1  0
  4  5  1  0
  4 12  2  0
  6  5  1  6
  6  7  1  0
  6 10  1  0
  6 11  1  0
  7  8  2  0
  7  9  1  0
  9 21  1  0
 10 11  1  0
 10 22  1  0
 10 23  1  0
 11 24  1  0
 11 25  1  0
 12 13  1  0
 12 26  1  0
 13 14  1  0
 13 15  2  0
 14 27  1  0
 14 28  1  0
 14 29  1  0
 15 16  1  0
M  END

