
     RDKit          3D

 51 52  0  0  0  0  0  0  0  0999 V2000
    3.7251    0.0517    1.3398 C   0  0  0  0  0  0  0  0  0  0  0  0
    4.8972   -0.6286    0.6298 C   0  0  0  0  0  0  0  0  0  0  0  0
    4.7296   -0.7553   -0.8098 N   0  0  0  0  0  0  0  0  0  0  0  0
    5.0666    0.2929   -1.6451 C   0  0  0  0  0  0  0  0  0  0  0  0
    5.6214    1.3083   -1.2459 O   0  0  0  0  0  0  0  0  0  0  0  0
    4.7562    0.1150   -2.9775 N   0  0  0  0  0  0  0  0  0  0  0  0
    5.1082    1.1564   -3.9469 C   0  0  0  0  0  0  0  0  0  0  0  0
    4.4672    0.6558   -5.2422 C   0  0  0  0  0  0  0  0  0  0  0  0
    4.5537   -0.8744   -5.1076 C   0  0  2  0  0  0  0  0  0  0  0  0
    3.6811   -1.6141   -5.9922 N   0  0  0  0  0  0  0  0  0  0  0  0
    4.1254   -2.5937   -6.8385 C   0  0  0  0  0  0  0  0  0  0  0  0
    5.2899   -2.9550   -6.8838 O   0  0  0  0  0  0  0  0  0  0  0  0
    3.0618   -3.1879   -7.7598 C   0  0  1  0  0  0  0  0  0  0  0  0
    3.2153   -2.7349   -9.2208 C   0  0  0  0  0  0  0  0  0  0  0  0
    2.7223   -3.9269  -10.0412 C   0  0  0  0  0  0  0  0  0  0  0  0
    2.4718   -3.8996  -11.2323 O   0  0  0  0  0  0  0  0  0  0  0  0
    2.6613   -5.0202   -9.2088 N   0  0  0  0  0  0  0  0  0  0  0  0
    2.4330   -6.4047   -9.7184 C   0  0  1  0  0  0  0  0  0  0  0  0
    3.5754   -6.7847  -10.6819 C   0  0  0  0  0  0  0  0  0  0  0  0
    2.4067   -7.3960   -8.5439 C   0  0  0  0  0  0  0  0  0  0  0  0
    1.0732   -6.4606  -10.4408 C   0  0  0  0  0  0  0  0  0  0  0  0
    3.1704   -4.7221   -7.8694 C   0  0  0  0  0  0  0  0  0  0  0  0
    4.2808   -1.1079   -3.6037 C   0  0  0  0  0  0  0  0  0  0  0  0
    3.9058    0.1057    2.4258 H   0  0  0  0  0  0  0  0  0  0  0  0
    2.7824   -0.4998    1.1831 H   0  0  0  0  0  0  0  0  0  0  0  0
    3.5942    1.0778    0.9635 H   0  0  0  0  0  0  0  0  0  0  0  0
    5.0660   -1.6370    1.0442 H   0  0  0  0  0  0  0  0  0  0  0  0
    5.8158   -0.0478    0.7932 H   0  0  0  0  0  0  0  0  0  0  0  0
    4.0606   -1.4415   -1.1368 H   0  0  0  0  0  0  0  0  0  0  0  0
    6.2054    1.2502   -4.0438 H   0  0  0  0  0  0  0  0  0  0  0  0
    4.7337    2.1373   -3.6195 H   0  0  0  0  0  0  0  0  0  0  0  0
    4.9676    1.0296   -6.1472 H   0  0  0  0  0  0  0  0  0  0  0  0
    3.4074    0.9641   -5.2897 H   0  0  0  0  0  0  0  0  0  0  0  0
    5.5729   -1.2131   -5.3437 H   0  0  0  0  0  0  0  0  0  0  0  0
    2.7005   -1.3582   -6.0211 H   0  0  0  0  0  0  0  0  0  0  0  0
    2.0518   -2.9245   -7.4040 H   0  0  0  0  0  0  0  0  0  0  0  0
    4.2773   -2.5748   -9.4738 H   0  0  0  0  0  0  0  0  0  0  0  0
    2.6630   -1.8224   -9.4844 H   0  0  0  0  0  0  0  0  0  0  0  0
    4.5483   -6.7518  -10.1649 H   0  0  0  0  0  0  0  0  0  0  0  0
    3.6077   -6.0933  -11.5349 H   0  0  0  0  0  0  0  0  0  0  0  0
    3.4292   -7.8065  -11.0663 H   0  0  0  0  0  0  0  0  0  0  0  0
    3.3602   -7.4220   -7.9947 H   0  0  0  0  0  0  0  0  0  0  0  0
    2.2256   -8.4074   -8.9371 H   0  0  0  0  0  0  0  0  0  0  0  0
    1.5973   -7.1676   -7.8333 H   0  0  0  0  0  0  0  0  0  0  0  0
    1.0510   -5.7636  -11.2875 H   0  0  0  0  0  0  0  0  0  0  0  0
    0.2585   -6.1969   -9.7472 H   0  0  0  0  0  0  0  0  0  0  0  0
    0.8888   -7.4804  -10.8139 H   0  0  0  0  0  0  0  0  0  0  0  0
    4.2257   -5.0258   -7.7504 H   0  0  0  0  0  0  0  0  0  0  0  0
    2.5803   -5.2221   -7.0887 H   0  0  0  0  0  0  0  0  0  0  0  0
    4.8122   -1.9995   -3.2293 H   0  0  0  0  0  0  0  0  0  0  0  0
    3.1948   -1.2733   -3.4390 H   0  0  0  0  0  0  0  0  0  0  0  0
  1  2  1  0
  1 24  1  0
  1 25  1  0
  1 26  1  0
  2  3  1  0
  2 27  1  0
  2 28  1  0
  3  4  1  0
  3 29  1  0
  4  5  2  0
  4  6  1  0
  6  7  1  0
  6 23  1  0
  7  8  1  0
  7 30  1  0
  7 31  1  0
  8  9  1  0
  8 32  1  0
  8 33  1  0
  9 10  1  0
  9 23  1  0
  9 34  1  6
 10 11  1  0
 10 35  1  0
 11 12  2  0
 11 13  1  0
 13 14  1  0
 13 22  1  0
 13 36  1  1
 14 15  1  0
 14 37  1  0
 14 38  1  0
 15 16  2  0
 15 17  1  0
 17 18  1  0
 17 22  1  0
 18 19  1  6
 18 20  1  0
 18 21  1  0
 19 39  1  0
 19 40  1  0
 19 41  1  0
 20 42  1  0
 20 43  1  0
 20 44  1  0
 21 45  1  0
 21 46  1  0
 21 47  1  0
 22 48  1  0
 22 49  1  0
 23 50  1  0
 23 51  1  0
M  END

