
     RDKit          3D

 58 59  0  0  0  0  0  0  0  0999 V2000
    4.1861    2.3714   -3.2146 C   0  0  0  0  0  0  0  0  0  0  0  0
    4.3772    1.1210   -4.0933 C   0  0  1  0  0  0  0  0  0  0  0  0
    3.0277    0.6751   -4.6880 C   0  0  0  0  0  0  0  0  0  0  0  0
    5.3766    1.4184   -5.2204 C   0  0  0  0  0  0  0  0  0  0  0  0
    4.9596    0.0259   -3.2916 N   0  0  0  0  0  0  0  0  0  0  0  0
    4.4069   -0.5480   -2.1939 C   0  0  0  0  0  0  0  0  0  0  0  0
    3.3440   -0.2293   -1.6823 O   0  0  0  0  0  0  0  0  0  0  0  0
    5.2130   -1.7342   -1.6304 C   0  0  0  0  0  0  0  0  0  0  0  0
    6.6247   -1.7460   -1.9970 N   0  0  0  0  0  0  0  0  0  0  0  0
    7.3866   -0.8049   -1.1771 C   0  0  0  0  0  0  0  0  0  0  0  0
    8.8341   -0.5771   -1.6159 C   0  0  0  0  0  0  0  0  0  0  0  0
    9.7450   -1.8063   -1.4599 C   0  0  0  0  0  0  0  0  0  0  0  0
    9.7060   -2.8041   -2.5318 N   0  0  0  0  0  0  0  0  0  0  0  0
   10.6943   -2.6690   -3.5876 C   0  0  0  0  0  0  0  0  0  0  0  0
   11.3334   -3.9952   -4.0412 C   0  0  0  0  0  0  0  0  0  0  0  0
   11.9165   -4.0836   -5.1056 O   0  0  0  0  0  0  0  0  0  0  0  0
   11.2090   -4.9908   -3.1077 N   0  0  0  0  0  0  0  0  0  0  0  0
   11.7114   -6.2973   -3.1341 C   0  0  0  0  0  0  0  0  0  0  0  0
   12.4747   -6.8069   -4.1994 C   0  0  0  0  0  0  0  0  0  0  0  0
   12.9421   -8.1189   -4.1473 C   0  0  0  0  0  0  0  0  0  0  0  0
   12.6675   -8.9436   -3.0536 C   0  0  0  0  0  0  0  0  0  0  0  0
   13.2913  -10.5743   -3.0622 Cl  0  0  0  0  0  0  0  0  0  0  0  0
   11.9041   -8.4458   -1.9824 C   0  0  0  0  0  0  0  0  0  0  0  0
   11.5746   -9.2932   -0.7699 C   0  0  1  0  0  0  0  0  0  0  0  0
   10.8711  -10.3874   -1.0988 F   0  0  0  0  0  0  0  0  0  0  0  0
   12.6801   -9.7009   -0.1282 F   0  0  0  0  0  0  0  0  0  0  0  0
   10.8345   -8.6051    0.1223 F   0  0  0  0  0  0  0  0  0  0  0  0
   11.4368   -7.1309   -2.0377 C   0  0  0  0  0  0  0  0  0  0  0  0
    8.3911   -3.1764   -3.0658 C   0  0  0  0  0  0  0  0  0  0  0  0
    7.2067   -3.0855   -2.1007 C   0  0  0  0  0  0  0  0  0  0  0  0
    3.7594    3.1952   -3.8085 H   0  0  0  0  0  0  0  0  0  0  0  0
    5.1514    2.7087   -2.8037 H   0  0  0  0  0  0  0  0  0  0  0  0
    3.5087    2.1516   -2.3784 H   0  0  0  0  0  0  0  0  0  0  0  0
    2.5906    1.4818   -5.2976 H   0  0  0  0  0  0  0  0  0  0  0  0
    2.3227    0.4189   -3.8854 H   0  0  0  0  0  0  0  0  0  0  0  0
    3.1609   -0.2089   -5.3323 H   0  0  0  0  0  0  0  0  0  0  0  0
    5.0020    2.2309   -5.8608 H   0  0  0  0  0  0  0  0  0  0  0  0
    5.5328    0.5324   -5.8580 H   0  0  0  0  0  0  0  0  0  0  0  0
    6.3525    1.7315   -4.8141 H   0  0  0  0  0  0  0  0  0  0  0  0
    5.8419   -0.3888   -3.5820 H   0  0  0  0  0  0  0  0  0  0  0  0
    4.7268   -2.6414   -2.0246 H   0  0  0  0  0  0  0  0  0  0  0  0
    5.0367   -1.7372   -0.5360 H   0  0  0  0  0  0  0  0  0  0  0  0
    7.3921   -1.1337   -0.1113 H   0  0  0  0  0  0  0  0  0  0  0  0
    6.8540    0.1587   -1.1983 H   0  0  0  0  0  0  0  0  0  0  0  0
    9.2374    0.2265   -0.9766 H   0  0  0  0  0  0  0  0  0  0  0  0
    8.8699   -0.1988   -2.6521 H   0  0  0  0  0  0  0  0  0  0  0  0
    9.5013   -2.2930   -0.4974 H   0  0  0  0  0  0  0  0  0  0  0  0
   10.7916   -1.4805   -1.3663 H   0  0  0  0  0  0  0  0  0  0  0  0
   11.5305   -2.0407   -3.2397 H   0  0  0  0  0  0  0  0  0  0  0  0
   10.3054   -2.1892   -4.5077 H   0  0  0  0  0  0  0  0  0  0  0  0
   10.6682   -4.6939   -2.2940 H   0  0  0  0  0  0  0  0  0  0  0  0
   12.6919   -6.1686   -5.0533 H   0  0  0  0  0  0  0  0  0  0  0  0
   13.5354   -8.5179   -4.9716 H   0  0  0  0  0  0  0  0  0  0  0  0
   10.8462   -6.7498   -1.2034 H   0  0  0  0  0  0  0  0  0  0  0  0
    8.4562   -4.2173   -3.4300 H   0  0  0  0  0  0  0  0  0  0  0  0
    8.1331   -2.5574   -3.9505 H   0  0  0  0  0  0  0  0  0  0  0  0
    7.4795   -3.5100   -1.1094 H   0  0  0  0  0  0  0  0  0  0  0  0
    6.4264   -3.7450   -2.5077 H   0  0  0  0  0  0  0  0  0  0  0  0
  1  2  1  0
  1 31  1  0
  1 32  1  0
  1 33  1  0
  2  3  1  0
  2  4  1  0
  2  5  1  1
  3 34  1  0
  3 35  1  0
  3 36  1  0
  4 37  1  0
  4 38  1  0
  4 39  1  0
  5  6  1  0
  5 40  1  0
  6  7  2  0
  6  8  1  0
  8  9  1  0
  8 41  1  0
  8 42  1  0
  9 10  1  0
  9 30  1  0
 10 11  1  0
 10 43  1  0
 10 44  1  0
 11 12  1  0
 11 45  1  0
 11 46  1  0
 12 13  1  0
 12 47  1  0
 12 48  1  0
 13 14  1  0
 13 29  1  0
 14 15  1  0
 14 49  1  0
 14 50  1  0
 15 16  2  0
 15 17  1  0
 17 18  1  0
 17 51  1  0
 18 19  2  0
 18 28  1  0
 19 20  1  0
 19 52  1  0
 20 21  2  0
 20 53  1  0
 21 22  1  0
 21 23  1  0
 23 24  1  0
 23 28  2  0
 24 25  1  6
 24 26  1  0
 24 27  1  0
 28 54  1  0
 29 30  1  0
 29 55  1  0
 29 56  1  0
 30 57  1  0
 30 58  1  0
M  END

