
     RDKit          3D

 47 47  0  0  0  0  0  0  0  0999 V2000
    5.2292    1.2144   -2.9106 C   0  0  0  0  0  0  0  0  0  0  0  0
    4.8974   -0.1896   -2.3984 C   0  0  0  0  0  0  0  0  0  0  0  0
    4.2732   -0.2525   -0.9840 C   0  0  1  0  0  0  0  0  0  0  0  0
    2.8430    0.3184   -0.9633 C   0  0  0  0  0  0  0  0  0  0  0  0
    2.2404    0.4637    0.4332 C   0  0  0  0  0  0  0  0  0  0  0  0
    4.2650   -1.6054   -0.4208 N   0  0  0  0  0  0  0  0  0  0  0  0
    5.5401   -2.1822    0.0311 C   0  0  1  0  0  0  0  0  0  0  0  0
    5.9435   -1.5730    1.3946 C   0  0  0  0  0  0  0  0  0  0  0  0
    5.0531   -2.0190    2.5578 C   0  0  0  0  0  0  0  0  0  0  0  0
    4.9875   -3.5461    2.6452 C   0  0  0  0  0  0  0  0  0  0  0  0
    4.5383   -4.1454    1.3067 C   0  0  0  0  0  0  0  0  0  0  0  0
    5.3874   -3.7350    0.0756 C   0  0  2  0  0  0  0  0  0  0  0  0
    6.7045   -4.5591   -0.2071 C   0  0  1  0  0  0  0  0  0  0  0  0
    6.4219   -6.0664   -0.0324 C   0  0  0  0  0  0  0  0  0  0  0  0
    7.1124   -4.3408   -1.6825 C   0  0  0  0  0  0  0  0  0  0  0  0
    7.9138   -4.1941    0.6782 C   0  0  0  0  0  0  0  0  0  0  0  0
    5.7181    1.1726   -3.8972 H   0  0  0  0  0  0  0  0  0  0  0  0
    5.9173    1.7364   -2.2241 H   0  0  0  0  0  0  0  0  0  0  0  0
    4.3318    1.8443   -3.0191 H   0  0  0  0  0  0  0  0  0  0  0  0
    5.8237   -0.7888   -2.3965 H   0  0  0  0  0  0  0  0  0  0  0  0
    4.2119   -0.6939   -3.1056 H   0  0  0  0  0  0  0  0  0  0  0  0
    4.8917    0.3745   -0.3162 H   0  0  0  0  0  0  0  0  0  0  0  0
    2.2015   -0.3404   -1.5793 H   0  0  0  0  0  0  0  0  0  0  0  0
    2.8404    1.2975   -1.4706 H   0  0  0  0  0  0  0  0  0  0  0  0
    2.2288   -0.5056    0.9518 H   0  0  0  0  0  0  0  0  0  0  0  0
    1.2080    0.8460    0.3863 H   0  0  0  0  0  0  0  0  0  0  0  0
    2.8270    1.1656    1.0499 H   0  0  0  0  0  0  0  0  0  0  0  0
    3.8139   -2.2364   -1.0819 H   0  0  0  0  0  0  0  0  0  0  0  0
    6.3544   -1.9388   -0.6807 H   0  0  0  0  0  0  0  0  0  0  0  0
    5.9342   -0.4734    1.3120 H   0  0  0  0  0  0  0  0  0  0  0  0
    6.9887   -1.8426    1.6107 H   0  0  0  0  0  0  0  0  0  0  0  0
    4.0354   -1.6211    2.4101 H   0  0  0  0  0  0  0  0  0  0  0  0
    5.4277   -1.5902    3.5029 H   0  0  0  0  0  0  0  0  0  0  0  0
    4.2846   -3.8545    3.4381 H   0  0  0  0  0  0  0  0  0  0  0  0
    5.9728   -3.9465    2.9409 H   0  0  0  0  0  0  0  0  0  0  0  0
    3.5124   -3.7878    1.1161 H   0  0  0  0  0  0  0  0  0  0  0  0
    4.4636   -5.2402    1.3795 H   0  0  0  0  0  0  0  0  0  0  0  0
    4.7615   -3.9889   -0.8001 H   0  0  0  0  0  0  0  0  0  0  0  0
    5.5249   -6.3789   -0.5926 H   0  0  0  0  0  0  0  0  0  0  0  0
    6.2762   -6.3455    1.0221 H   0  0  0  0  0  0  0  0  0  0  0  0
    7.2714   -6.6578   -0.4109 H   0  0  0  0  0  0  0  0  0  0  0  0
    6.3157   -4.6684   -2.3707 H   0  0  0  0  0  0  0  0  0  0  0  0
    8.0184   -4.9206   -1.9232 H   0  0  0  0  0  0  0  0  0  0  0  0
    7.3333   -3.2851   -1.9026 H   0  0  0  0  0  0  0  0  0  0  0  0
    7.7019   -4.3182    1.7502 H   0  0  0  0  0  0  0  0  0  0  0  0
    8.2521   -3.1600    0.5141 H   0  0  0  0  0  0  0  0  0  0  0  0
    8.7641   -4.8530    0.4351 H   0  0  0  0  0  0  0  0  0  0  0  0
  1  2  1  0
  1 17  1  0
  1 18  1  0
  1 19  1  0
  2  3  1  0
  2 20  1  0
  2 21  1  0
  3  4  1  0
  3  6  1  0
  3 22  1  1
  4  5  1  0
  4 23  1  0
  4 24  1  0
  5 25  1  0
  5 26  1  0
  5 27  1  0
  6  7  1  0
  6 28  1  0
  7  8  1  0
  7 12  1  0
  7 29  1  6
  8  9  1  0
  8 30  1  0
  8 31  1  0
  9 10  1  0
  9 32  1  0
  9 33  1  0
 10 11  1  0
 10 34  1  0
 10 35  1  0
 11 12  1  0
 11 36  1  0
 11 37  1  0
 12 13  1  0
 12 38  1  6
 13 14  1  6
 13 15  1  0
 13 16  1  0
 14 39  1  0
 14 40  1  0
 14 41  1  0
 15 42  1  0
 15 43  1  0
 15 44  1  0
 16 45  1  0
 16 46  1  0
 16 47  1  0
M  END

