
     RDKit          3D

 36 36  0  0  0  0  0  0  0  0999 V2000
    1.4929   -0.1134   -0.5402 C   0  0  0  0  0  0  0  0  0  0  0  0
    2.9893   -0.0753   -0.3075 C   0  0  0  0  0  0  0  0  0  0  0  0
    3.3793    1.2774   -0.0701 O   0  0  0  0  0  0  0  0  0  0  0  0
    4.7075    1.5355    0.1754 C   0  0  1  0  0  0  0  0  0  0  0  0
    5.5862    1.3674   -1.2003 C   0  0  0  0  0  0  0  0  0  0  0  0
    5.4368    2.3230   -2.0006 O   0  0  0  0  0  0  0  0  0  0  0  0
    6.3955    0.2250   -1.3466 C   0  0  0  0  0  0  0  0  0  0  0  0
    6.6029   -0.8623   -0.4563 C   0  0  0  0  0  0  0  0  0  0  0  0
    7.7241   -2.0206   -1.1057 S   0  0  0  0  0  0  0  0  0  0  0  0
    7.9357   -1.0885   -2.5858 C   0  0  0  0  0  0  0  0  0  0  0  0
    8.8552   -1.5747   -3.6642 C   0  0  0  0  0  0  0  0  0  0  0  0
    7.1833    0.0432   -2.5593 C   0  0  0  0  0  0  0  0  0  0  0  0
    4.8741    2.9167    0.8498 C   0  0  1  0  0  0  0  0  0  0  0  0
    4.3013    2.7813    2.2813 C   0  0  0  0  0  0  0  0  0  0  0  0
    6.3671    3.2795    0.9347 C   0  0  0  0  0  0  0  0  0  0  0  0
    4.0993    4.0025    0.0879 C   0  0  0  0  0  0  0  0  0  0  0  0
    1.1679   -1.1489   -0.7251 H   0  0  0  0  0  0  0  0  0  0  0  0
    1.2200    0.4969   -1.4143 H   0  0  0  0  0  0  0  0  0  0  0  0
    0.9463    0.2708    0.3348 H   0  0  0  0  0  0  0  0  0  0  0  0
    3.5426   -0.4601   -1.1812 H   0  0  0  0  0  0  0  0  0  0  0  0
    3.2785   -0.6926    0.5637 H   0  0  0  0  0  0  0  0  0  0  0  0
    5.1543    0.7483    0.8079 H   0  0  0  0  0  0  0  0  0  0  0  0
    6.1805   -1.0385    0.5286 H   0  0  0  0  0  0  0  0  0  0  0  0
    9.8921   -1.6768   -3.3015 H   0  0  0  0  0  0  0  0  0  0  0  0
    8.8588   -0.8669   -4.5062 H   0  0  0  0  0  0  0  0  0  0  0  0
    8.5471   -2.5611   -4.0504 H   0  0  0  0  0  0  0  0  0  0  0  0
    7.1660    0.7685   -3.3743 H   0  0  0  0  0  0  0  0  0  0  0  0
    4.8609    2.0384    2.8735 H   0  0  0  0  0  0  0  0  0  0  0  0
    3.2442    2.4773    2.2559 H   0  0  0  0  0  0  0  0  0  0  0  0
    4.3695    3.7468    2.8067 H   0  0  0  0  0  0  0  0  0  0  0  0
    6.9554    2.4766    1.4083 H   0  0  0  0  0  0  0  0  0  0  0  0
    6.4958    4.1900    1.5409 H   0  0  0  0  0  0  0  0  0  0  0  0
    6.7891    3.4721   -0.0618 H   0  0  0  0  0  0  0  0  0  0  0  0
    3.0226    3.7813    0.0636 H   0  0  0  0  0  0  0  0  0  0  0  0
    4.4570    4.0757   -0.9506 H   0  0  0  0  0  0  0  0  0  0  0  0
    4.2420    4.9806    0.5749 H   0  0  0  0  0  0  0  0  0  0  0  0
  1  2  1  0
  1 17  1  0
  1 18  1  0
  1 19  1  0
  2  3  1  0
  2 20  1  0
  2 21  1  0
  3  4  1  0
  4  5  1  0
  4 13  1  0
  4 22  1  1
  5  6  2  0
  5  7  1  0
  7  8  2  0
  7 12  1  0
  8  9  1  0
  8 23  1  0
  9 10  1  0
 10 11  1  0
 10 12  2  0
 11 24  1  0
 11 25  1  0
 11 26  1  0
 12 27  1  0
 13 14  1  1
 13 15  1  0
 13 16  1  0
 14 28  1  0
 14 29  1  0
 14 30  1  0
 15 31  1  0
 15 32  1  0
 15 33  1  0
 16 34  1  0
 16 35  1  0
 16 36  1  0
M  END

