
     RDKit          3D

 26 26  0  0  0  0  0  0  0  0999 V2000
    5.5606    1.9283   -1.1432 C   0  0  0  0  0  0  0  0  0  0  0  0
    4.3962    2.0722   -0.1762 C   0  0  0  0  0  0  0  0  0  0  0  0
    4.7758    1.7891    1.1787 O   0  0  0  0  0  0  0  0  0  0  0  0
    4.8278    0.4749    1.5545 C   0  0  0  0  0  0  0  0  0  0  0  0
    4.5648   -0.4485    0.7975 O   0  0  0  0  0  0  0  0  0  0  0  0
    5.2118    0.3658    2.9478 C   0  0  0  0  0  0  0  0  0  0  0  0
    5.3636    1.4736    3.6812 N   0  0  0  0  0  0  0  0  0  0  0  0
    5.6360    1.6817    4.9229 C   0  0  0  0  0  0  0  0  0  0  0  0
    5.6423    3.0954    5.4756 C   0  0  1  0  0  0  0  0  0  0  0  0
    4.4596    3.3510    6.0864 F   0  0  0  0  0  0  0  0  0  0  0  0
    6.6188    3.2092    6.4035 F   0  0  0  0  0  0  0  0  0  0  0  0
    5.8586    0.5201    5.7287 C   0  0  0  0  0  0  0  0  0  0  0  0
    5.7522   -0.7192    5.0767 C   0  0  0  0  0  0  0  0  0  0  0  0
    5.4380   -0.8613    3.7307 C   0  0  0  0  0  0  0  0  0  0  0  0
    5.4329   -2.1829    3.0499 C   0  0  0  0  0  0  0  0  0  0  0  0
    7.0926   -2.5928    2.3536 Cl  0  0  0  0  0  0  0  0  0  0  0  0
    5.2477    2.2324   -2.1552 H   0  0  0  0  0  0  0  0  0  0  0  0
    5.9004    0.8833   -1.1876 H   0  0  0  0  0  0  0  0  0  0  0  0
    6.4062    2.5647   -0.8384 H   0  0  0  0  0  0  0  0  0  0  0  0
    3.5640    1.4121   -0.4644 H   0  0  0  0  0  0  0  0  0  0  0  0
    4.0298    3.1095   -0.1469 H   0  0  0  0  0  0  0  0  0  0  0  0
    5.8026    3.8442    4.6824 H   0  0  0  0  0  0  0  0  0  0  0  0
    6.1197    0.6410    6.7782 H   0  0  0  0  0  0  0  0  0  0  0  0
    5.9384   -1.6290    5.6555 H   0  0  0  0  0  0  0  0  0  0  0  0
    4.7536   -2.2111    2.1924 H   0  0  0  0  0  0  0  0  0  0  0  0
    5.2030   -2.9874    3.7596 H   0  0  0  0  0  0  0  0  0  0  0  0
  1  2  1  0
  1 17  1  0
  1 18  1  0
  1 19  1  0
  2  3  1  0
  2 20  1  0
  2 21  1  0
  3  4  1  0
  4  5  2  0
  4  6  1  0
  6  7  2  0
  6 14  1  0
  7  8  1  0
  8  9  1  0
  8 12  2  0
  9 10  1  0
  9 11  1  0
  9 22  1  6
 12 13  1  0
 12 23  1  0
 13 14  2  0
 13 24  1  0
 14 15  1  0
 15 16  1  0
 15 25  1  0
 15 26  1  0
M  END

