
     RDKit          3D

 22 23  0  0  0  0  0  0  0  0999 V2000
    0.8666   -0.1870   -0.0881 C   0  0  0  0  0  0  0  0  0  0  0  0
    2.3587   -0.0484    0.0483 C   0  0  0  0  0  0  0  0  0  0  0  0
    3.0467    1.1945    0.0988 C   0  0  0  0  0  0  0  0  0  0  0  0
    2.1592    2.6986    0.0017 Cl  0  0  0  0  0  0  0  0  0  0  0  0
    4.4363    1.2554    0.2263 C   0  0  0  0  0  0  0  0  0  0  0  0
    5.2103    0.0968    0.3095 C   0  0  0  0  0  0  0  0  0  0  0  0
    4.6055   -1.1838    0.2671 C   0  0  0  0  0  0  0  0  0  0  0  0
    5.2881   -2.4161    0.3437 C   0  0  0  0  0  0  0  0  0  0  0  0
    4.5593   -3.6466    0.2899 C   0  0  0  0  0  0  0  0  0  0  0  0
    5.1857   -4.9864    0.3634 C   0  0  0  0  0  0  0  0  0  0  0  0
    6.3766   -5.1301    0.4786 O   0  0  0  0  0  0  0  0  0  0  0  0
    4.3514   -6.0480    0.2990 O   0  0  0  0  0  0  0  0  0  0  0  0
    3.2367   -3.5128    0.1652 N   0  0  0  0  0  0  0  0  0  0  0  0
    2.6167   -2.4649    0.0958 N   0  0  0  0  0  0  0  0  0  0  0  0
    3.1583   -1.1900    0.1331 C   0  0  0  0  0  0  0  0  0  0  0  0
    0.3775    0.7930   -0.1237 H   0  0  0  0  0  0  0  0  0  0  0  0
    0.4446   -0.7542    0.7581 H   0  0  0  0  0  0  0  0  0  0  0  0
    0.6037   -0.7374   -1.0068 H   0  0  0  0  0  0  0  0  0  0  0  0
    4.9194    2.2334    0.2608 H   0  0  0  0  0  0  0  0  0  0  0  0
    6.2945    0.1703    0.4086 H   0  0  0  0  0  0  0  0  0  0  0  0
    6.3714   -2.4710    0.4446 H   0  0  0  0  0  0  0  0  0  0  0  0
    3.4319   -5.7565    0.2087 H   0  0  0  0  0  0  0  0  0  0  0  0
  1  2  1  0
  1 16  1  0
  1 17  1  0
  1 18  1  0
  2  3  2  0
  2 15  1  0
  3  4  1  0
  3  5  1  0
  5  6  2  0
  5 19  1  0
  6  7  1  0
  6 20  1  0
  7  8  1  0
  7 15  2  0
  8  9  2  0
  8 21  1  0
  9 10  1  0
  9 13  1  0
 10 11  2  0
 10 12  1  0
 12 22  1  0
 13 14  2  0
 14 15  1  0
M  END

