
     RDKit          3D

 37 39  0  0  0  0  0  0  0  0999 V2000
    0.9916    0.1419    0.2295 C   0  0  0  0  0  0  0  0  0  0  0  0
    2.4283   -0.0609   -0.2126 C   0  0  0  0  0  0  0  0  0  0  0  0
    3.0367    1.2147   -0.3306 O   0  0  0  0  0  0  0  0  0  0  0  0
    4.3350    1.3130   -0.7144 C   0  0  0  0  0  0  0  0  0  0  0  0
    4.8553    2.6165   -0.8084 C   0  0  0  0  0  0  0  0  0  0  0  0
    6.1790    2.8077   -1.1973 C   0  0  0  0  0  0  0  0  0  0  0  0
    7.0043    1.7211   -1.4967 C   0  0  0  0  0  0  0  0  0  0  0  0
    6.4934    0.4164   -1.4040 C   0  0  0  0  0  0  0  0  0  0  0  0
    7.3792   -0.7157   -1.7204 C   0  0  0  0  0  0  0  0  0  0  0  0
    8.6134   -0.5950   -2.1204 N   0  0  0  0  0  0  0  0  0  0  0  0
    9.2133   -1.8036   -2.3458 C   0  0  0  0  0  0  0  0  0  0  0  0
    8.4290   -2.9121   -2.1059 C   0  0  0  0  0  0  0  0  0  0  0  0
    6.8551   -2.4001   -1.5765 S   0  0  0  0  0  0  0  0  0  0  0  0
    8.8526   -4.3437   -2.2709 C   0  0  0  0  0  0  0  0  0  0  0  0
   10.3849   -4.4221   -2.3765 C   0  0  0  0  0  0  0  0  0  0  0  0
   10.9325   -3.3407   -3.3139 C   0  0  0  0  0  0  0  0  0  0  0  0
   10.6557   -1.9075   -2.8040 C   0  0  1  0  0  0  0  0  0  0  0  0
   10.9812   -0.8484   -3.7517 N   0  0  0  0  0  0  0  0  0  0  0  0
    5.1543    0.2169   -1.0125 C   0  0  0  0  0  0  0  0  0  0  0  0
    0.4837   -0.8295    0.3330 H   0  0  0  0  0  0  0  0  0  0  0  0
    0.4404    0.7475   -0.5061 H   0  0  0  0  0  0  0  0  0  0  0  0
    0.9534    0.6609    1.1994 H   0  0  0  0  0  0  0  0  0  0  0  0
    2.4682   -0.5909   -1.1834 H   0  0  0  0  0  0  0  0  0  0  0  0
    2.9803   -0.6779    0.5219 H   0  0  0  0  0  0  0  0  0  0  0  0
    4.1985    3.4557   -0.5711 H   0  0  0  0  0  0  0  0  0  0  0  0
    6.5759    3.8238   -1.2683 H   0  0  0  0  0  0  0  0  0  0  0  0
    8.0421    1.8576   -1.8023 H   0  0  0  0  0  0  0  0  0  0  0  0
    8.3912   -4.7698   -3.1820 H   0  0  0  0  0  0  0  0  0  0  0  0
    8.4896   -4.9604   -1.4315 H   0  0  0  0  0  0  0  0  0  0  0  0
   10.6833   -5.4251   -2.7223 H   0  0  0  0  0  0  0  0  0  0  0  0
   10.8261   -4.2911   -1.3725 H   0  0  0  0  0  0  0  0  0  0  0  0
   10.4691   -3.4475   -4.3127 H   0  0  0  0  0  0  0  0  0  0  0  0
   12.0191   -3.4676   -3.4564 H   0  0  0  0  0  0  0  0  0  0  0  0
   11.2929   -1.7366   -1.9134 H   0  0  0  0  0  0  0  0  0  0  0  0
   10.3773   -0.9053   -4.5727 H   0  0  0  0  0  0  0  0  0  0  0  0
   11.9408   -0.9582   -4.0802 H   0  0  0  0  0  0  0  0  0  0  0  0
    4.7607   -0.7974   -0.9464 H   0  0  0  0  0  0  0  0  0  0  0  0
  1  2  1  0
  1 20  1  0
  1 21  1  0
  1 22  1  0
  2  3  1  0
  2 23  1  0
  2 24  1  0
  3  4  1  0
  4  5  2  0
  4 19  1  0
  5  6  1  0
  5 25  1  0
  6  7  2  0
  6 26  1  0
  7  8  1  0
  7 27  1  0
  8  9  1  0
  8 19  2  0
  9 10  2  0
  9 13  1  0
 10 11  1  0
 11 12  2  0
 11 17  1  0
 12 13  1  0
 12 14  1  0
 14 15  1  0
 14 28  1  0
 14 29  1  0
 15 16  1  0
 15 30  1  0
 15 31  1  0
 16 17  1  0
 16 32  1  0
 16 33  1  0
 17 18  1  0
 17 34  1  1
 18 35  1  0
 18 36  1  0
 19 37  1  0
M  END

