
     RDKit          3D

 45 47  0  0  0  0  0  0  0  0999 V2000
    4.8901    2.3932    0.8629 C   0  0  0  0  0  0  0  0  0  0  0  0
    4.7309    1.2294   -0.1150 C   0  0  1  0  0  0  0  0  0  0  0  0
    4.7985   -0.1414    0.6144 C   0  0  0  0  0  0  0  0  0  0  0  0
    4.7113   -1.4029   -0.2549 C   0  0  0  0  0  0  0  0  0  0  0  0
    3.3306   -1.6521   -0.8862 C   0  0  0  0  0  0  0  0  0  0  0  0
    2.9981   -0.8498   -2.1531 C   0  0  0  0  0  0  0  0  0  0  0  0
    3.5347    0.6095   -2.2009 C   0  0  0  0  0  0  0  0  0  0  0  0
    3.5148    1.2995   -0.9271 N   0  0  0  0  0  0  0  0  0  0  0  0
    2.3007    1.9393   -0.4038 C   0  0  0  0  0  0  0  0  0  0  0  0
    1.0631    1.8320   -1.2423 C   0  0  0  0  0  0  0  0  0  0  0  0
    0.8474    2.6996   -2.3614 C   0  0  0  0  0  0  0  0  0  0  0  0
   -0.2897    2.5237   -3.1841 C   0  0  0  0  0  0  0  0  0  0  0  0
   -0.5950    3.3300   -4.3157 C   0  0  0  0  0  0  0  0  0  0  0  0
   -1.7316    3.0855   -5.0934 C   0  0  0  0  0  0  0  0  0  0  0  0
   -2.5985    2.0380   -4.7685 C   0  0  0  0  0  0  0  0  0  0  0  0
   -2.3312    1.2297   -3.6488 C   0  0  0  0  0  0  0  0  0  0  0  0
   -1.1998    1.4467   -2.8407 C   0  0  0  0  0  0  0  0  0  0  0  0
   -0.9919    0.6548   -1.7353 N   0  0  0  0  0  0  0  0  0  0  0  0
    0.0929    0.8580   -0.9883 C   0  0  0  0  0  0  0  0  0  0  0  0
    0.2103   -0.0841    0.0917 N   0  0  0  0  0  0  0  0  0  0  0  0
    0.3809    0.5120    1.3755 N   0  0  0  0  0  0  0  0  0  0  0  0
    5.8785    2.3164    1.3386 H   0  0  0  0  0  0  0  0  0  0  0  0
    4.1324    2.3750    1.6583 H   0  0  0  0  0  0  0  0  0  0  0  0
    4.8390    3.3651    0.3509 H   0  0  0  0  0  0  0  0  0  0  0  0
    5.5675    1.2578   -0.8325 H   0  0  0  0  0  0  0  0  0  0  0  0
    4.0006   -0.1651    1.3758 H   0  0  0  0  0  0  0  0  0  0  0  0
    5.7559   -0.1325    1.1593 H   0  0  0  0  0  0  0  0  0  0  0  0
    4.9539   -2.2557    0.3998 H   0  0  0  0  0  0  0  0  0  0  0  0
    5.5030   -1.3902   -1.0270 H   0  0  0  0  0  0  0  0  0  0  0  0
    2.5470   -1.4500   -0.1373 H   0  0  0  0  0  0  0  0  0  0  0  0
    3.2375   -2.7207   -1.1371 H   0  0  0  0  0  0  0  0  0  0  0  0
    1.9106   -0.8322   -2.2904 H   0  0  0  0  0  0  0  0  0  0  0  0
    3.4312   -1.3355   -3.0423 H   0  0  0  0  0  0  0  0  0  0  0  0
    2.9227    1.1897   -2.9015 H   0  0  0  0  0  0  0  0  0  0  0  0
    4.5783    0.6082   -2.5433 H   0  0  0  0  0  0  0  0  0  0  0  0
    2.5895    2.9925   -0.2388 H   0  0  0  0  0  0  0  0  0  0  0  0
    2.1181    1.5215    0.6063 H   0  0  0  0  0  0  0  0  0  0  0  0
    1.5405    3.5199   -2.5698 H   0  0  0  0  0  0  0  0  0  0  0  0
    0.0800    4.1522   -4.5724 H   0  0  0  0  0  0  0  0  0  0  0  0
   -1.9411    3.7209   -5.9590 H   0  0  0  0  0  0  0  0  0  0  0  0
   -3.4864    1.8489   -5.3776 H   0  0  0  0  0  0  0  0  0  0  0  0
   -3.0008    0.4140   -3.3666 H   0  0  0  0  0  0  0  0  0  0  0  0
   -0.6481   -0.6394    0.0310 H   0  0  0  0  0  0  0  0  0  0  0  0
    0.5675   -0.2313    2.0481 H   0  0  0  0  0  0  0  0  0  0  0  0
   -0.4709    0.9985    1.6821 H   0  0  0  0  0  0  0  0  0  0  0  0
  1  2  1  0
  1 22  1  0
  1 23  1  0
  1 24  1  0
  2  3  1  0
  2  8  1  0
  2 25  1  6
  3  4  1  0
  3 26  1  0
  3 27  1  0
  4  5  1  0
  4 28  1  0
  4 29  1  0
  5  6  1  0
  5 30  1  0
  5 31  1  0
  6  7  1  0
  6 32  1  0
  6 33  1  0
  7  8  1  0
  7 34  1  0
  7 35  1  0
  8  9  1  0
  9 10  1  0
  9 36  1  0
  9 37  1  0
 10 11  2  0
 10 19  1  0
 11 12  1  0
 11 38  1  0
 12 13  2  0
 12 17  1  0
 13 14  1  0
 13 39  1  0
 14 15  2  0
 14 40  1  0
 15 16  1  0
 15 41  1  0
 16 17  2  0
 16 42  1  0
 17 18  1  0
 18 19  2  0
 19 20  1  0
 20 21  1  0
 20 43  1  0
 21 44  1  0
 21 45  1  0
M  END

