
     RDKit          3D

 39 40  0  0  0  0  0  0  0  0999 V2000
    2.3867    3.0351    1.8051 O   0  0  0  0  0  0  0  0  0  0  0  0
    1.9945    2.2015    1.0056 C   0  0  0  0  0  0  0  0  0  0  0  0
    0.4913    1.9435    0.8939 C   0  0  0  0  0  0  0  0  0  0  0  0
    0.2295    0.9405   -0.0739 O   0  0  0  0  0  0  0  0  0  0  0  0
   -1.0124    0.5238   -0.3718 C   0  0  0  0  0  0  0  0  0  0  0  0
   -2.1821    1.0572    0.2568 C   0  0  0  0  0  0  0  0  0  0  0  0
   -3.4450    0.5354   -0.1484 C   0  0  0  0  0  0  0  0  0  0  0  0
   -3.5283   -0.4756   -1.1372 C   0  0  0  0  0  0  0  0  0  0  0  0
   -2.3828   -1.0157   -1.7685 C   0  0  0  0  0  0  0  0  0  0  0  0
   -1.1031   -0.4967   -1.3689 C   0  0  0  0  0  0  0  0  0  0  0  0
    0.3356   -1.1157   -2.1051 Cl  0  0  0  0  0  0  0  0  0  0  0  0
    2.7785    1.4562    0.1909 N   0  0  0  0  0  0  0  0  0  0  0  0
    4.2344    1.5701    0.1528 C   0  0  1  0  0  0  0  0  0  0  0  0
    4.8468    0.1769    0.3702 C   0  0  0  0  0  0  0  0  0  0  0  0
    6.3782    0.0721    0.3191 C   0  0  0  0  0  0  0  0  0  0  0  0
    6.9807    0.2583   -1.0836 C   0  0  0  0  0  0  0  0  0  0  0  0
    7.2070    1.7119   -1.5432 C   0  0  0  0  0  0  0  0  0  0  0  0
    6.1607    2.7492   -1.0976 C   0  0  0  0  0  0  0  0  0  0  0  0
    4.6889    2.3053   -1.1258 C   0  0  0  0  0  0  0  0  0  0  0  0
   -0.0031    2.8908    0.6196 H   0  0  0  0  0  0  0  0  0  0  0  0
    0.1169    1.6383    1.8857 H   0  0  0  0  0  0  0  0  0  0  0  0
   -2.1084    1.8327    1.0155 H   0  0  0  0  0  0  0  0  0  0  0  0
   -4.3587    0.9190    0.3084 H   0  0  0  0  0  0  0  0  0  0  0  0
   -4.5138   -0.8526   -1.4229 H   0  0  0  0  0  0  0  0  0  0  0  0
   -2.4483   -1.7923   -2.5274 H   0  0  0  0  0  0  0  0  0  0  0  0
    2.3194    0.7996   -0.4339 H   0  0  0  0  0  0  0  0  0  0  0  0
    4.4927    2.2131    1.0090 H   0  0  0  0  0  0  0  0  0  0  0  0
    4.4278   -0.5140   -0.3866 H   0  0  0  0  0  0  0  0  0  0  0  0
    4.4881   -0.1898    1.3465 H   0  0  0  0  0  0  0  0  0  0  0  0
    6.6468   -0.9335    0.6832 H   0  0  0  0  0  0  0  0  0  0  0  0
    6.8353    0.7782    1.0358 H   0  0  0  0  0  0  0  0  0  0  0  0
    6.3253   -0.2613   -1.8055 H   0  0  0  0  0  0  0  0  0  0  0  0
    7.9467   -0.2708   -1.1388 H   0  0  0  0  0  0  0  0  0  0  0  0
    7.2769    1.7147   -2.6450 H   0  0  0  0  0  0  0  0  0  0  0  0
    8.1933    2.0568   -1.1866 H   0  0  0  0  0  0  0  0  0  0  0  0
    6.2772    3.6422   -1.7336 H   0  0  0  0  0  0  0  0  0  0  0  0
    6.3919    3.0936   -0.0743 H   0  0  0  0  0  0  0  0  0  0  0  0
    4.4807    1.6839   -2.0167 H   0  0  0  0  0  0  0  0  0  0  0  0
    4.0508    3.1984   -1.2200 H   0  0  0  0  0  0  0  0  0  0  0  0
  1  2  2  0
  2  3  1  0
  2 12  1  0
  3  4  1  0
  3 20  1  0
  3 21  1  0
  4  5  1  0
  5  6  2  0
  5 10  1  0
  6  7  1  0
  6 22  1  0
  7  8  2  0
  7 23  1  0
  8  9  1  0
  8 24  1  0
  9 10  2  0
  9 25  1  0
 10 11  1  0
 12 13  1  0
 12 26  1  0
 13 14  1  0
 13 19  1  0
 13 27  1  1
 14 15  1  0
 14 28  1  0
 14 29  1  0
 15 16  1  0
 15 30  1  0
 15 31  1  0
 16 17  1  0
 16 32  1  0
 16 33  1  0
 17 18  1  0
 17 34  1  0
 17 35  1  0
 18 19  1  0
 18 36  1  0
 18 37  1  0
 19 38  1  0
 19 39  1  0
M  END

