
     RDKit          3D

 39 40  0  0  0  0  0  0  0  0999 V2000
    0.3300    1.1527   -3.6551 C   0  0  0  0  0  0  0  0  0  0  0  0
    1.7372    1.7474   -3.6455 C   0  0  0  0  0  0  0  0  0  0  0  0
    2.3063    1.8795   -2.3021 N   0  0  0  0  0  0  0  0  0  0  0  0
    1.9001    2.8266   -1.3842 C   0  0  0  0  0  0  0  0  0  0  0  0
    2.6965    2.6528   -0.2770 C   0  0  0  0  0  0  0  0  0  0  0  0
    3.5801    1.6313   -0.4947 N   0  0  0  0  0  0  0  0  0  0  0  0
    3.3331    1.1730   -1.7093 C   0  0  0  0  0  0  0  0  0  0  0  0
    4.1100    0.0453   -2.3740 C   0  0  1  0  0  0  0  0  0  0  0  0
    4.5497    0.4956   -3.6693 O   0  0  0  0  0  0  0  0  0  0  0  0
    5.3318   -0.3585   -1.5286 C   0  0  0  0  0  0  0  0  0  0  0  0
    4.9718   -1.2559   -0.3461 C   0  0  0  0  0  0  0  0  0  0  0  0
    4.2555   -2.4057   -0.7593 O   0  0  0  0  0  0  0  0  0  0  0  0
    3.0311   -2.1664   -1.4588 C   0  0  2  0  0  0  0  0  0  0  0  0
    1.9626   -1.6091   -0.5003 C   0  0  0  0  0  0  0  0  0  0  0  0
    2.5696   -3.5579   -1.9491 C   0  0  0  0  0  0  0  0  0  0  0  0
    3.5921   -4.3611   -2.7534 C   0  0  0  0  0  0  0  0  0  0  0  0
    3.2849   -1.2283   -2.6662 C   0  0  0  0  0  0  0  0  0  0  0  0
   -0.0427    1.0879   -4.6896 H   0  0  0  0  0  0  0  0  0  0  0  0
   -0.3758    1.7714   -3.0793 H   0  0  0  0  0  0  0  0  0  0  0  0
    0.3183    0.1400   -3.2241 H   0  0  0  0  0  0  0  0  0  0  0  0
    1.7220    2.7523   -4.0995 H   0  0  0  0  0  0  0  0  0  0  0  0
    2.4374    1.1459   -4.2366 H   0  0  0  0  0  0  0  0  0  0  0  0
    1.1061    3.5356   -1.6076 H   0  0  0  0  0  0  0  0  0  0  0  0
    2.6818    3.2140    0.6567 H   0  0  0  0  0  0  0  0  0  0  0  0
    5.1260    1.2613   -3.5319 H   0  0  0  0  0  0  0  0  0  0  0  0
    5.8544    0.5395   -1.1647 H   0  0  0  0  0  0  0  0  0  0  0  0
    6.0063   -0.9059   -2.2067 H   0  0  0  0  0  0  0  0  0  0  0  0
    4.4127   -0.6756    0.4070 H   0  0  0  0  0  0  0  0  0  0  0  0
    5.8892   -1.6306    0.1340 H   0  0  0  0  0  0  0  0  0  0  0  0
    1.8435   -2.2963    0.3516 H   0  0  0  0  0  0  0  0  0  0  0  0
    0.9905   -1.5255   -1.0119 H   0  0  0  0  0  0  0  0  0  0  0  0
    2.2196   -0.6174   -0.1050 H   0  0  0  0  0  0  0  0  0  0  0  0
    1.6412   -3.4253   -2.5316 H   0  0  0  0  0  0  0  0  0  0  0  0
    2.2919   -4.1357   -1.0515 H   0  0  0  0  0  0  0  0  0  0  0  0
    3.8313   -3.8923   -3.7213 H   0  0  0  0  0  0  0  0  0  0  0  0
    3.2051   -5.3699   -2.9686 H   0  0  0  0  0  0  0  0  0  0  0  0
    4.5291   -4.4646   -2.1878 H   0  0  0  0  0  0  0  0  0  0  0  0
    2.3241   -0.9705   -3.1355 H   0  0  0  0  0  0  0  0  0  0  0  0
    3.8689   -1.7731   -3.4215 H   0  0  0  0  0  0  0  0  0  0  0  0
  1  2  1  0
  1 18  1  0
  1 19  1  0
  1 20  1  0
  2  3  1  0
  2 21  1  0
  2 22  1  0
  3  4  1  0
  3  7  1  0
  4  5  2  0
  4 23  1  0
  5  6  1  0
  5 24  1  0
  6  7  2  0
  7  8  1  0
  8  9  1  6
  8 10  1  0
  8 17  1  0
  9 25  1  0
 10 11  1  0
 10 26  1  0
 10 27  1  0
 11 12  1  0
 11 28  1  0
 11 29  1  0
 12 13  1  0
 13 14  1  1
 13 15  1  0
 13 17  1  0
 14 30  1  0
 14 31  1  0
 14 32  1  0
 15 16  1  0
 15 33  1  0
 15 34  1  0
 16 35  1  0
 16 36  1  0
 16 37  1  0
 17 38  1  0
 17 39  1  0
M  END

