
     RDKit          3D

 40 41  0  0  0  0  0  0  0  0999 V2000
    0.8490   -0.5476    0.1140 C   0  0  0  0  0  0  0  0  0  0  0  0
    2.2718   -0.0871   -0.2105 C   0  0  0  0  0  0  0  0  0  0  0  0
    2.8081    0.8504    0.7780 N   0  0  0  0  0  0  0  0  0  0  0  0
    2.4696    2.1948    0.8050 C   0  0  0  0  0  0  0  0  0  0  0  0
    2.1261    3.0076   -0.3847 C   0  0  0  0  0  0  0  0  0  0  0  0
    3.3293    3.3218   -1.3178 C   0  0  0  0  0  0  0  0  0  0  0  0
    2.9136    4.2016   -2.3935 N   0  0  0  0  0  0  0  0  0  0  0  0
    2.5954    2.5896    2.1597 C   0  0  0  0  0  0  0  0  0  0  0  0
    2.9892    1.5844    2.9473 N   0  0  0  0  0  0  0  0  0  0  0  0
    3.1686    0.5131    2.1177 C   0  0  0  0  0  0  0  0  0  0  0  0
    3.7042   -0.7358    2.5454 C   0  0  0  0  0  0  0  0  0  0  0  0
    4.3278   -1.7077    1.6731 C   0  0  0  0  0  0  0  0  0  0  0  0
    4.7888   -2.8996    2.2041 C   0  0  0  0  0  0  0  0  0  0  0  0
    4.6766   -3.2083    3.5745 C   0  0  0  0  0  0  0  0  0  0  0  0
    4.1233   -2.2334    4.4562 C   0  0  0  0  0  0  0  0  0  0  0  0
    4.0233   -2.4371    5.8468 N   0  0  0  0  0  0  0  0  0  0  0  0
    4.3806   -3.5299    6.6045 C   0  0  0  0  0  0  0  0  0  0  0  0
    4.1157   -3.3704    8.0968 C   0  0  0  0  0  0  0  0  0  0  0  0
    4.8654   -4.5553    6.1578 O   0  0  0  0  0  0  0  0  0  0  0  0
    3.6694   -1.0216    3.9528 C   0  0  0  0  0  0  0  0  0  0  0  0
    0.4908   -1.2474   -0.6579 H   0  0  0  0  0  0  0  0  0  0  0  0
    0.1516    0.3044    0.1600 H   0  0  0  0  0  0  0  0  0  0  0  0
    0.8210   -1.0677    1.0841 H   0  0  0  0  0  0  0  0  0  0  0  0
    2.3075    0.4082   -1.1930 H   0  0  0  0  0  0  0  0  0  0  0  0
    2.9340   -0.9611   -0.2687 H   0  0  0  0  0  0  0  0  0  0  0  0
    1.7025    3.9675   -0.0542 H   0  0  0  0  0  0  0  0  0  0  0  0
    1.3471    2.5115   -0.9973 H   0  0  0  0  0  0  0  0  0  0  0  0
    3.7781    2.3603   -1.6474 H   0  0  0  0  0  0  0  0  0  0  0  0
    4.1027    3.8336   -0.7225 H   0  0  0  0  0  0  0  0  0  0  0  0
    2.3610    3.7026   -3.0909 H   0  0  0  0  0  0  0  0  0  0  0  0
    3.7156    4.6020   -2.8776 H   0  0  0  0  0  0  0  0  0  0  0  0
    2.4016    3.5928    2.5457 H   0  0  0  0  0  0  0  0  0  0  0  0
    4.5356   -1.4646    0.6306 H   0  0  0  0  0  0  0  0  0  0  0  0
    5.2785   -3.6234    1.5461 H   0  0  0  0  0  0  0  0  0  0  0  0
    5.0322   -4.1524    3.9786 H   0  0  0  0  0  0  0  0  0  0  0  0
    3.6272   -1.6554    6.3545 H   0  0  0  0  0  0  0  0  0  0  0  0
    3.7008   -2.3933    8.3861 H   0  0  0  0  0  0  0  0  0  0  0  0
    5.0603   -3.5335    8.6378 H   0  0  0  0  0  0  0  0  0  0  0  0
    3.4219   -4.1633    8.4166 H   0  0  0  0  0  0  0  0  0  0  0  0
    3.2513   -0.2574    4.6125 H   0  0  0  0  0  0  0  0  0  0  0  0
  1  2  1  0
  1 21  1  0
  1 22  1  0
  1 23  1  0
  2  3  1  0
  2 24  1  0
  2 25  1  0
  3  4  1  0
  3 10  1  0
  4  5  1  0
  4  8  2  0
  5  6  1  0
  5 26  1  0
  5 27  1  0
  6  7  1  0
  6 28  1  0
  6 29  1  0
  7 30  1  0
  7 31  1  0
  8  9  1  0
  8 32  1  0
  9 10  2  0
 10 11  1  0
 11 12  2  0
 11 20  1  0
 12 13  1  0
 12 33  1  0
 13 14  2  0
 13 34  1  0
 14 15  1  0
 14 35  1  0
 15 16  1  0
 15 20  2  0
 16 17  1  0
 16 36  1  0
 17 18  1  0
 17 19  2  0
 18 37  1  0
 18 38  1  0
 18 39  1  0
 20 40  1  0
M  END

