
     RDKit          3D

 42 44  0  0  0  0  0  0  0  0999 V2000
    1.9619    0.2851   -1.6664 C   0  0  0  0  0  0  0  0  0  0  0  0
    2.4423    0.5454   -0.2364 C   0  0  2  0  0  0  0  0  0  0  0  0
    1.5791    0.8935    0.3597 H   0  0  0  0  0  0  0  0  0  0  0  0
    3.4524    1.5084   -0.2638 O   0  0  0  0  0  0  0  0  0  0  0  0
    3.8627    1.9080    1.0426 C   0  0  0  0  0  0  0  0  0  0  0  0
    3.8786    0.9851    1.8975 O   0  0  0  0  0  0  0  0  0  0  0  0
    4.2342    3.2568    1.2291 C   0  0  0  0  0  0  0  0  0  0  0  0
    4.7297    3.5911    2.5498 C   0  0  0  0  0  0  0  0  0  0  0  0
    5.1461    4.8567    2.8755 C   0  0  0  0  0  0  0  0  0  0  0  0
    5.6014    5.1270    4.1115 F   0  0  0  0  0  0  0  0  0  0  0  0
    5.1077    5.8974    1.9303 C   0  0  0  0  0  0  0  0  0  0  0  0
    5.5259    7.1339    2.2614 F   0  0  0  0  0  0  0  0  0  0  0  0
    4.6272    5.6286    0.6443 C   0  0  0  0  0  0  0  0  0  0  0  0
    4.2001    4.3584    0.2890 C   0  0  0  0  0  0  0  0  0  0  0  0
    3.5985    4.1924   -1.3607 Cl  0  0  0  0  0  0  0  0  0  0  0  0
    2.8221   -0.7489    0.4874 C   0  0  0  0  0  0  0  0  0  0  0  0
    2.0295   -1.4725    1.0215 O   0  0  0  0  0  0  0  0  0  0  0  0
    4.2076   -1.2508    0.4293 N   0  0  0  0  0  0  0  0  0  0  0  0
    4.6908   -1.9695    1.5838 C   0  0  0  0  0  0  0  0  0  0  0  0
    5.7596   -2.9975    1.2275 C   0  0  0  0  0  0  0  0  0  0  0  0
    6.8599   -2.3785    0.3985 C   0  0  0  0  0  0  0  0  0  0  0  0
    8.1981   -2.7774    0.4998 C   0  0  0  0  0  0  0  0  0  0  0  0
    9.1793   -2.1802   -0.2945 C   0  0  0  0  0  0  0  0  0  0  0  0
    8.8313   -1.1672   -1.1935 C   0  0  0  0  0  0  0  0  0  0  0  0
    7.5019   -0.7571   -1.2969 C   0  0  0  0  0  0  0  0  0  0  0  0
    6.5148   -1.3619   -0.5059 C   0  0  0  0  0  0  0  0  0  0  0  0
    5.0798   -0.9349   -0.6727 C   0  0  0  0  0  0  0  0  0  0  0  0
    2.7723   -0.0718   -2.3192 H   0  0  0  0  0  0  0  0  0  0  0  0
    1.5985    1.2353   -2.0800 H   0  0  0  0  0  0  0  0  0  0  0  0
    1.1420   -0.4479   -1.6756 H   0  0  0  0  0  0  0  0  0  0  0  0
    4.7655    2.8066    3.3036 H   0  0  0  0  0  0  0  0  0  0  0  0
    4.5871    6.4413   -0.0814 H   0  0  0  0  0  0  0  0  0  0  0  0
    3.8166   -2.4037    2.0879 H   0  0  0  0  0  0  0  0  0  0  0  0
    5.0825   -1.1763    2.2530 H   0  0  0  0  0  0  0  0  0  0  0  0
    5.2908   -3.8385    0.6840 H   0  0  0  0  0  0  0  0  0  0  0  0
    6.1598   -3.4167    2.1619 H   0  0  0  0  0  0  0  0  0  0  0  0
    8.4731   -3.5613    1.2107 H   0  0  0  0  0  0  0  0  0  0  0  0
   10.2202   -2.4996   -0.2052 H   0  0  0  0  0  0  0  0  0  0  0  0
    9.5973   -0.6891   -1.8078 H   0  0  0  0  0  0  0  0  0  0  0  0
    7.2297    0.0438   -1.9895 H   0  0  0  0  0  0  0  0  0  0  0  0
    4.6368   -1.4165   -1.5722 H   0  0  0  0  0  0  0  0  0  0  0  0
    4.9743    0.1481   -0.8601 H   0  0  0  0  0  0  0  0  0  0  0  0
  1  2  1  0
  1 28  1  0
  1 29  1  0
  1 30  1  0
  2  3  1  1
  2  4  1  0
  2 16  1  0
  4  5  1  0
  5  6  2  0
  5  7  1  0
  7  8  2  0
  7 14  1  0
  8  9  1  0
  8 31  1  0
  9 10  1  0
  9 11  2  0
 11 12  1  0
 11 13  1  0
 13 14  2  0
 13 32  1  0
 14 15  1  0
 16 17  2  0
 16 18  1  0
 18 19  1  0
 18 27  1  0
 19 20  1  0
 19 33  1  0
 19 34  1  0
 20 21  1  0
 20 35  1  0
 20 36  1  0
 21 22  2  0
 21 26  1  0
 22 23  1  0
 22 37  1  0
 23 24  2  0
 23 38  1  0
 24 25  1  0
 24 39  1  0
 25 26  2  0
 25 40  1  0
 26 27  1  0
 27 41  1  0
 27 42  1  0
M  END

