
     RDKit          3D

 40 42  0  0  0  0  0  0  0  0999 V2000
    3.8036   -0.2032    1.5334 C   0  0  0  0  0  0  0  0  0  0  0  0
    2.8373   -1.1326    1.0501 O   0  0  0  0  0  0  0  0  0  0  0  0
    3.1485   -2.0053    0.0927 C   0  0  0  0  0  0  0  0  0  0  0  0
    4.4051   -2.0786   -0.5539 C   0  0  0  0  0  0  0  0  0  0  0  0
    4.6594   -3.0414   -1.5034 C   0  0  0  0  0  0  0  0  0  0  0  0
    3.6456   -4.0030   -1.8592 C   0  0  0  0  0  0  0  0  0  0  0  0
    3.8860   -4.9404   -2.7620 N   0  0  0  0  0  0  0  0  0  0  0  0
    5.1027   -4.9999   -3.6926 C   0  0  0  0  0  0  0  0  0  0  0  0
    5.0019   -4.2748   -4.6892 O   0  0  0  0  0  0  0  0  0  0  0  0
    6.1141   -5.8765   -3.2861 C   0  0  0  0  0  0  0  0  0  0  0  0
    7.3182   -6.1359   -4.0030 C   0  0  0  0  0  0  0  0  0  0  0  0
    8.1456   -7.0746   -3.3708 C   0  0  0  0  0  0  0  0  0  0  0  0
    7.6450   -7.5731   -2.1788 C   0  0  0  0  0  0  0  0  0  0  0  0
    6.0856   -6.8689   -1.7983 S   0  0  0  0  0  0  0  0  0  0  0  0
    2.3664   -3.9065   -1.2117 C   0  0  0  0  0  0  0  0  0  0  0  0
    2.1091   -2.9390   -0.2712 C   0  0  0  0  0  0  0  0  0  0  0  0
    0.9198   -2.9237    0.3728 O   0  0  0  0  0  0  0  0  0  0  0  0
    0.0336   -1.8121    0.1595 C   0  0  0  0  0  0  0  0  0  0  0  0
   -0.9688   -1.7552    1.2811 C   0  0  0  0  0  0  0  0  0  0  0  0
   -2.3421   -1.6530    1.0395 C   0  0  0  0  0  0  0  0  0  0  0  0
   -3.2176   -1.5658    2.1240 C   0  0  0  0  0  0  0  0  0  0  0  0
   -2.6820   -1.5927    3.4144 C   0  0  0  0  0  0  0  0  0  0  0  0
   -1.3727   -1.6996    3.6614 N   0  0  0  0  0  0  0  0  0  0  0  0
   -0.5451   -1.7780    2.6209 C   0  0  0  0  0  0  0  0  0  0  0  0
    3.3056    0.3637    2.3285 H   0  0  0  0  0  0  0  0  0  0  0  0
    4.1233    0.4846    0.7346 H   0  0  0  0  0  0  0  0  0  0  0  0
    4.6786   -0.7279    1.9473 H   0  0  0  0  0  0  0  0  0  0  0  0
    5.1913   -1.3698   -0.2962 H   0  0  0  0  0  0  0  0  0  0  0  0
    5.6256   -3.0927   -1.9988 H   0  0  0  0  0  0  0  0  0  0  0  0
    3.1104   -5.5561   -2.9997 H   0  0  0  0  0  0  0  0  0  0  0  0
    7.5361   -5.6403   -4.9476 H   0  0  0  0  0  0  0  0  0  0  0  0
    9.1077   -7.3961   -3.7768 H   0  0  0  0  0  0  0  0  0  0  0  0
    8.0874   -8.3021   -1.5044 H   0  0  0  0  0  0  0  0  0  0  0  0
    1.5741   -4.6153   -1.4565 H   0  0  0  0  0  0  0  0  0  0  0  0
   -0.4756   -1.9402   -0.8117 H   0  0  0  0  0  0  0  0  0  0  0  0
    0.6144   -0.8763    0.1174 H   0  0  0  0  0  0  0  0  0  0  0  0
   -2.7245   -1.6442    0.0144 H   0  0  0  0  0  0  0  0  0  0  0  0
   -4.2964   -1.4856    1.9734 H   0  0  0  0  0  0  0  0  0  0  0  0
   -3.3415   -1.5265    4.2877 H   0  0  0  0  0  0  0  0  0  0  0  0
    0.5233   -1.8742    2.8449 H   0  0  0  0  0  0  0  0  0  0  0  0
  1  2  1  0
  1 25  1  0
  1 26  1  0
  1 27  1  0
  2  3  1  0
  3  4  2  0
  3 16  1  0
  4  5  1  0
  4 28  1  0
  5  6  2  0
  5 29  1  0
  6  7  1  0
  6 15  1  0
  7  8  1  0
  7 30  1  0
  8  9  2  0
  8 10  1  0
 10 11  2  0
 10 14  1  0
 11 12  1  0
 11 31  1  0
 12 13  2  0
 12 32  1  0
 13 14  1  0
 13 33  1  0
 15 16  2  0
 15 34  1  0
 16 17  1  0
 17 18  1  0
 18 19  1  0
 18 35  1  0
 18 36  1  0
 19 20  2  0
 19 24  1  0
 20 21  1  0
 20 37  1  0
 21 22  2  0
 21 38  1  0
 22 23  1  0
 22 39  1  0
 23 24  2  0
 24 40  1  0
M  END

