
     RDKit          3D

 82 87  0  0  0  0  0  0  0  0999 V2000
    5.1183   -3.3506    1.4530 C   0  0  0  0  0  0  0  0  0  0  0  0
    4.5392   -2.1030    1.1412 O   0  0  0  0  0  0  0  0  0  0  0  0
    5.1236   -0.9671    1.5910 C   0  0  0  0  0  0  0  0  0  0  0  0
    6.2970   -0.9221    2.3587 C   0  0  0  0  0  0  0  0  0  0  0  0
    6.8060    0.3128    2.7677 C   0  0  0  0  0  0  0  0  0  0  0  0
    6.1808    1.5285    2.4359 C   0  0  0  0  0  0  0  0  0  0  0  0
    6.7707    2.7813    2.9006 C   0  0  0  0  0  0  0  0  0  0  0  0
    6.3256    4.0395    2.6853 C   0  0  0  0  0  0  0  0  0  0  0  0
    7.0026    5.2321    3.2049 C   0  0  0  0  0  0  0  0  0  0  0  0
    6.4913    6.5137    2.9468 C   0  0  0  0  0  0  0  0  0  0  0  0
    7.1824    7.6214    3.4707 C   0  0  0  0  0  0  0  0  0  0  0  0
    6.6883    8.9809    3.2254 C   0  0  0  0  0  0  0  0  0  0  0  0
    7.2959   10.0945    3.6912 C   0  0  0  0  0  0  0  0  0  0  0  0
    6.8884   11.4846    3.5000 C   0  0  0  0  0  0  0  0  0  0  0  0
    5.7405   11.8734    2.7692 C   0  0  0  0  0  0  0  0  0  0  0  0
    5.3993   13.2074    2.6160 C   0  0  0  0  0  0  0  0  0  0  0  0
    6.1945   14.2201    3.1900 C   0  0  0  0  0  0  0  0  0  0  0  0
    5.7782   15.4923    2.9849 O   0  0  0  0  0  0  0  0  0  0  0  0
    6.5207   16.5608    3.5290 C   0  0  0  0  0  0  0  0  0  0  0  0
    7.3376   13.8609    3.9196 C   0  0  0  0  0  0  0  0  0  0  0  0
    7.6669   12.5111    4.0645 C   0  0  0  0  0  0  0  0  0  0  0  0
    8.2971    7.4461    4.1964 N   0  0  0  0  0  0  0  0  0  0  0  0
    8.7221    6.1887    4.3982 C   0  0  0  0  0  0  0  0  0  0  0  0
    9.9419    5.9693    5.1886 C   0  0  0  0  0  0  0  0  0  0  0  0
   10.6775    6.9563    5.7442 C   0  0  0  0  0  0  0  0  0  0  0  0
   11.8959    6.8141    6.5392 C   0  0  0  0  0  0  0  0  0  0  0  0
   12.4843    5.5694    6.8539 C   0  0  0  0  0  0  0  0  0  0  0  0
   13.6419    5.4842    7.6163 C   0  0  0  0  0  0  0  0  0  0  0  0
   14.2803    6.6478    8.0962 C   0  0  0  0  0  0  0  0  0  0  0  0
   15.4619    6.5592    8.8689 N   0  0  0  0  0  0  0  0  0  0  0  0
   16.4519    5.5893    8.5536 C   0  0  0  0  0  0  0  0  0  0  0  0
   16.8245    5.3524    7.2177 C   0  0  0  0  0  0  0  0  0  0  0  0
   17.7935    4.3947    6.9145 C   0  0  0  0  0  0  0  0  0  0  0  0
   18.4206    3.6696    7.9329 C   0  0  0  0  0  0  0  0  0  0  0  0
   18.0604    3.9090    9.2630 C   0  0  0  0  0  0  0  0  0  0  0  0
   17.0803    4.8527    9.5743 C   0  0  0  0  0  0  0  0  0  0  0  0
   15.6754    7.4505    9.9555 C   0  0  0  0  0  0  0  0  0  0  0  0
   14.6360    7.7425   10.8578 C   0  0  0  0  0  0  0  0  0  0  0  0
   14.8500    8.6225   11.9197 C   0  0  0  0  0  0  0  0  0  0  0  0
   16.1030    9.2135   12.1130 C   0  0  0  0  0  0  0  0  0  0  0  0
   17.1417    8.9184   11.2243 C   0  0  0  0  0  0  0  0  0  0  0  0
   16.9321    8.0521   10.1500 C   0  0  0  0  0  0  0  0  0  0  0  0
   13.7068    7.8950    7.7863 C   0  0  0  0  0  0  0  0  0  0  0  0
   12.5393    7.9679    7.0320 C   0  0  0  0  0  0  0  0  0  0  0  0
    8.1225    5.0815    3.9336 N   0  0  0  0  0  0  0  0  0  0  0  0
    4.9991    1.4557    1.6605 C   0  0  0  0  0  0  0  0  0  0  0  0
    4.4808    0.2393    1.2464 C   0  0  0  0  0  0  0  0  0  0  0  0
    4.4775   -4.1162    0.9956 H   0  0  0  0  0  0  0  0  0  0  0  0
    5.1594   -3.5229    2.5436 H   0  0  0  0  0  0  0  0  0  0  0  0
    6.1388   -3.4450    1.0399 H   0  0  0  0  0  0  0  0  0  0  0  0
    6.8196   -1.8355    2.6430 H   0  0  0  0  0  0  0  0  0  0  0  0
    7.7206    0.3356    3.3665 H   0  0  0  0  0  0  0  0  0  0  0  0
    7.6849    2.6918    3.4964 H   0  0  0  0  0  0  0  0  0  0  0  0
    5.4201    4.2253    2.1003 H   0  0  0  0  0  0  0  0  0  0  0  0
    5.5831    6.6479    2.3555 H   0  0  0  0  0  0  0  0  0  0  0  0
    5.7757    9.0489    2.6261 H   0  0  0  0  0  0  0  0  0  0  0  0
    8.2043    9.9379    4.2815 H   0  0  0  0  0  0  0  0  0  0  0  0
    5.1033   11.1131    2.3124 H   0  0  0  0  0  0  0  0  0  0  0  0
    4.5133   13.5058    2.0517 H   0  0  0  0  0  0  0  0  0  0  0  0
    6.0003   17.4833    3.2388 H   0  0  0  0  0  0  0  0  0  0  0  0
    7.5507   16.5905    3.1302 H   0  0  0  0  0  0  0  0  0  0  0  0
    6.5682   16.5085    4.6317 H   0  0  0  0  0  0  0  0  0  0  0  0
    7.9751   14.6178    4.3766 H   0  0  0  0  0  0  0  0  0  0  0  0
    8.5602   12.2437    4.6356 H   0  0  0  0  0  0  0  0  0  0  0  0
   10.2139    4.9166    5.2938 H   0  0  0  0  0  0  0  0  0  0  0  0
   10.3260    7.9803    5.5830 H   0  0  0  0  0  0  0  0  0  0  0  0
   12.0167    4.6457    6.5065 H   0  0  0  0  0  0  0  0  0  0  0  0
   14.0634    4.5058    7.8534 H   0  0  0  0  0  0  0  0  0  0  0  0
   16.3497    5.9247    6.4185 H   0  0  0  0  0  0  0  0  0  0  0  0
   18.0701    4.2244    5.8706 H   0  0  0  0  0  0  0  0  0  0  0  0
   19.1833    2.9253    7.6922 H   0  0  0  0  0  0  0  0  0  0  0  0
   18.5374    3.3459   10.0696 H   0  0  0  0  0  0  0  0  0  0  0  0
   16.7946    5.0255   10.6137 H   0  0  0  0  0  0  0  0  0  0  0  0
   13.6593    7.2746   10.7208 H   0  0  0  0  0  0  0  0  0  0  0  0
   14.0308    8.8372   12.6110 H   0  0  0  0  0  0  0  0  0  0  0  0
   16.2684    9.8967   12.9493 H   0  0  0  0  0  0  0  0  0  0  0  0
   18.1250    9.3767   11.3592 H   0  0  0  0  0  0  0  0  0  0  0  0
   17.7436    7.8357    9.4527 H   0  0  0  0  0  0  0  0  0  0  0  0
   14.1846    8.8105    8.1392 H   0  0  0  0  0  0  0  0  0  0  0  0
   12.1154    8.9493    6.8017 H   0  0  0  0  0  0  0  0  0  0  0  0
    4.4769    2.3723    1.3779 H   0  0  0  0  0  0  0  0  0  0  0  0
    3.5688    0.1844    0.6484 H   0  0  0  0  0  0  0  0  0  0  0  0
  1  2  1  0
  1 48  1  0
  1 49  1  0
  1 50  1  0
  2  3  1  0
  3  4  2  0
  3 47  1  0
  4  5  1  0
  4 51  1  0
  5  6  2  0
  5 52  1  0
  6  7  1  0
  6 46  1  0
  7  8  2  0
  7 53  1  0
  8  9  1  0
  8 54  1  0
  9 10  2  0
  9 45  1  0
 10 11  1  0
 10 55  1  0
 11 12  1  0
 11 22  2  0
 12 13  2  0
 12 56  1  0
 13 14  1  0
 13 57  1  0
 14 15  2  0
 14 21  1  0
 15 16  1  0
 15 58  1  0
 16 17  2  0
 16 59  1  0
 17 18  1  0
 17 20  1  0
 18 19  1  0
 19 60  1  0
 19 61  1  0
 19 62  1  0
 20 21  2  0
 20 63  1  0
 21 64  1  0
 22 23  1  0
 23 24  1  0
 23 45  2  0
 24 25  2  0
 24 65  1  0
 25 26  1  0
 25 66  1  0
 26 27  2  0
 26 44  1  0
 27 28  1  0
 27 67  1  0
 28 29  2  0
 28 68  1  0
 29 30  1  0
 29 43  1  0
 30 31  1  0
 30 37  1  0
 31 32  2  0
 31 36  1  0
 32 33  1  0
 32 69  1  0
 33 34  2  0
 33 70  1  0
 34 35  1  0
 34 71  1  0
 35 36  2  0
 35 72  1  0
 36 73  1  0
 37 38  2  0
 37 42  1  0
 38 39  1  0
 38 74  1  0
 39 40  2  0
 39 75  1  0
 40 41  1  0
 40 76  1  0
 41 42  2  0
 41 77  1  0
 42 78  1  0
 43 44  2  0
 43 79  1  0
 44 80  1  0
 46 47  2  0
 46 81  1  0
 47 82  1  0
M  END

