
     RDKit          3D

 44 45  0  0  0  0  0  0  0  0999 V2000
    2.2563    0.8021    1.1538 C   0  0  0  0  0  0  0  0  0  0  0  0
    2.4747    0.1123   -0.1994 C   0  0  1  0  0  0  0  0  0  0  0  0
    3.0131   -0.8326   -0.0122 H   0  0  0  0  0  0  0  0  0  0  0  0
    1.1367   -0.1952   -0.9031 C   0  0  0  0  0  0  0  0  0  0  0  0
    1.2199   -1.0846   -2.1133 C   0  0  0  0  0  0  0  0  0  0  0  0
    0.9749   -0.6838   -3.4080 C   0  0  0  0  0  0  0  0  0  0  0  0
    1.0368   -1.5553   -4.5322 C   0  0  0  0  0  0  0  0  0  0  0  0
    1.3317   -2.9437   -4.2413 C   0  0  0  0  0  0  0  0  0  0  0  0
    1.5602   -3.2228   -3.0034 N   0  0  0  0  0  0  0  0  0  0  0  0
    1.5793   -2.5011   -1.8868 C   0  0  0  0  0  0  0  0  0  0  0  0
    3.3232    0.9170   -1.0702 N   0  0  0  0  0  0  0  0  0  0  0  0
    4.6733    0.9536   -0.9382 C   0  0  0  0  0  0  0  0  0  0  0  0
    5.3001    0.3101   -0.1061 O   0  0  0  0  0  0  0  0  0  0  0  0
    5.3805    1.8864   -1.9363 C   0  0  0  0  0  0  0  0  0  0  0  0
    5.4824    1.3293   -3.2872 N   0  0  0  0  0  0  0  0  0  0  0  0
    6.6891    0.5101   -3.5011 C   0  0  0  0  0  0  0  0  0  0  0  0
    6.7361   -0.4521   -4.6982 C   0  0  0  0  0  0  0  0  0  0  0  0
    5.4148   -1.1772   -4.9818 C   0  0  0  0  0  0  0  0  0  0  0  0
    4.4572   -0.3393   -5.8490 C   0  0  0  0  0  0  0  0  0  0  0  0
    4.5695    1.1748   -5.5958 C   0  0  0  0  0  0  0  0  0  0  0  0
    4.4357    1.5736   -4.1358 C   0  0  0  0  0  0  0  0  0  0  0  0
    3.4107    2.1248   -3.7284 O   0  0  0  0  0  0  0  0  0  0  0  0
    1.6659    0.1625    1.8299 H   0  0  0  0  0  0  0  0  0  0  0  0
    1.7211    1.7579    1.0276 H   0  0  0  0  0  0  0  0  0  0  0  0
    3.2253    1.0033    1.6329 H   0  0  0  0  0  0  0  0  0  0  0  0
    0.6541    0.7561   -1.1879 H   0  0  0  0  0  0  0  0  0  0  0  0
    0.4746   -0.6644   -0.1518 H   0  0  0  0  0  0  0  0  0  0  0  0
    0.7288    0.3682   -3.5854 H   0  0  0  0  0  0  0  0  0  0  0  0
    0.7738   -1.2614   -5.5455 H   0  0  0  0  0  0  0  0  0  0  0  0
    1.3758   -3.7397   -4.9900 H   0  0  0  0  0  0  0  0  0  0  0  0
    1.7602   -2.9652   -0.9204 H   0  0  0  0  0  0  0  0  0  0  0  0
    2.9246    1.4332   -1.8563 H   0  0  0  0  0  0  0  0  0  0  0  0
    6.3928    2.0591   -1.5476 H   0  0  0  0  0  0  0  0  0  0  0  0
    4.8451    2.8441   -1.9983 H   0  0  0  0  0  0  0  0  0  0  0  0
    6.7912   -0.0954   -2.5850 H   0  0  0  0  0  0  0  0  0  0  0  0
    7.5728    1.1760   -3.5266 H   0  0  0  0  0  0  0  0  0  0  0  0
    7.5259   -1.1824   -4.4583 H   0  0  0  0  0  0  0  0  0  0  0  0
    7.0831    0.0643   -5.6084 H   0  0  0  0  0  0  0  0  0  0  0  0
    4.9307   -1.4346   -4.0239 H   0  0  0  0  0  0  0  0  0  0  0  0
    5.6152   -2.1369   -5.4849 H   0  0  0  0  0  0  0  0  0  0  0  0
    3.4187   -0.6639   -5.6736 H   0  0  0  0  0  0  0  0  0  0  0  0
    4.6698   -0.5152   -6.9175 H   0  0  0  0  0  0  0  0  0  0  0  0
    3.7642    1.7046   -6.1222 H   0  0  0  0  0  0  0  0  0  0  0  0
    5.5250    1.5565   -5.9892 H   0  0  0  0  0  0  0  0  0  0  0  0
  1  2  1  0
  1 23  1  0
  1 24  1  0
  1 25  1  0
  2  3  1  1
  2  4  1  0
  2 11  1  0
  4  5  1  0
  4 26  1  0
  4 27  1  0
  5  6  2  0
  5 10  1  0
  6  7  1  0
  6 28  1  0
  7  8  2  0
  7 29  1  0
  8  9  1  0
  8 30  1  0
  9 10  2  0
 10 31  1  0
 11 12  1  0
 11 32  1  0
 12 13  2  0
 12 14  1  0
 14 15  1  0
 14 33  1  0
 14 34  1  0
 15 16  1  0
 15 21  1  0
 16 17  1  0
 16 35  1  0
 16 36  1  0
 17 18  1  0
 17 37  1  0
 17 38  1  0
 18 19  1  0
 18 39  1  0
 18 40  1  0
 19 20  1  0
 19 41  1  0
 19 42  1  0
 20 21  1  0
 20 43  1  0
 20 44  1  0
 21 22  2  0
M  END

