
     RDKit          3D

 34 34  0  0  0  0  0  0  0  0999 V2000
    1.6920    1.4449    0.5374 C   0  0  0  0  0  0  0  0  0  0  0  0
    2.8752    0.5964    0.3966 N   0  0  0  0  0  0  0  0  0  0  0  0
    3.7393    0.5981    1.5723 C   0  0  0  0  0  0  0  0  0  0  0  0
    3.2019   -0.0565   -0.7477 C   0  0  0  0  0  0  0  0  0  0  0  0
    2.2981   -0.3290   -1.7861 C   0  0  0  0  0  0  0  0  0  0  0  0
    0.8091   -0.2630   -1.8699 C   0  0  0  0  0  0  0  0  0  0  0  0
    0.2224   -1.2806   -2.8267 C   0  0  0  0  0  0  0  0  0  0  0  0
   -0.6243   -2.2666   -2.3563 C   0  0  0  0  0  0  0  0  0  0  0  0
   -1.1621   -3.2667   -3.2101 C   0  0  0  0  0  0  0  0  0  0  0  0
   -0.8016   -3.2156   -4.6052 C   0  0  0  0  0  0  0  0  0  0  0  0
    0.0380   -2.2318   -5.0846 C   0  0  0  0  0  0  0  0  0  0  0  0
    0.6095   -1.2401   -4.2251 C   0  0  0  0  0  0  0  0  0  0  0  0
    4.6306   -0.5684   -0.9050 C   0  0  0  0  0  0  0  0  0  0  0  0
    5.7092    0.4903   -0.8290 C   0  0  0  0  0  0  0  0  0  0  0  0
    5.7983    1.4902   -1.7043 C   0  0  0  0  0  0  0  0  0  0  0  0
    4.9498    1.6835   -2.6940 F   0  0  0  0  0  0  0  0  0  0  0  0
    6.7289    2.4156   -1.7006 F   0  0  0  0  0  0  0  0  0  0  0  0
    0.9111    0.9328    1.1203 H   0  0  0  0  0  0  0  0  0  0  0  0
    1.2901    1.7270   -0.4382 H   0  0  0  0  0  0  0  0  0  0  0  0
    1.9871    2.3575    1.0767 H   0  0  0  0  0  0  0  0  0  0  0  0
    3.1057    0.6044    2.4705 H   0  0  0  0  0  0  0  0  0  0  0  0
    4.3780    1.4964    1.5880 H   0  0  0  0  0  0  0  0  0  0  0  0
    4.3748   -0.2922    1.6031 H   0  0  0  0  0  0  0  0  0  0  0  0
    2.7629   -0.7377   -2.6859 H   0  0  0  0  0  0  0  0  0  0  0  0
    0.5858    0.7741   -2.2279 H   0  0  0  0  0  0  0  0  0  0  0  0
    0.3464   -0.3409   -0.8741 H   0  0  0  0  0  0  0  0  0  0  0  0
   -0.8796   -2.2855   -1.2883 H   0  0  0  0  0  0  0  0  0  0  0  0
   -1.8445   -4.0255   -2.8261 H   0  0  0  0  0  0  0  0  0  0  0  0
   -1.1979   -3.9695   -5.2932 H   0  0  0  0  0  0  0  0  0  0  0  0
    0.2796   -2.2090   -6.1535 H   0  0  0  0  0  0  0  0  0  0  0  0
    1.1136   -0.3652   -4.6469 H   0  0  0  0  0  0  0  0  0  0  0  0
    4.6769   -1.0937   -1.8694 H   0  0  0  0  0  0  0  0  0  0  0  0
    4.8328   -1.3430   -0.1482 H   0  0  0  0  0  0  0  0  0  0  0  0
    6.4866    0.4391   -0.0660 H   0  0  0  0  0  0  0  0  0  0  0  0
  1  2  1  0
  1 18  1  0
  1 19  1  0
  1 20  1  0
  2  3  1  0
  2  4  1  0
  3 21  1  0
  3 22  1  0
  3 23  1  0
  4  5  2  0
  4 13  1  0
  5  6  1  0
  5 24  1  0
  6  7  1  0
  6 25  1  0
  6 26  1  0
  7  8  2  0
  7 12  1  0
  8  9  1  0
  8 27  1  0
  9 10  2  0
  9 28  1  0
 10 11  1  0
 10 29  1  0
 11 12  2  0
 11 30  1  0
 12 31  1  0
 13 14  1  0
 13 32  1  0
 13 33  1  0
 14 15  2  0
 14 34  1  0
 15 16  1  0
 15 17  1  0
M  END

