
     RDKit          3D

 54 56  0  0  0  0  0  0  0  0999 V2000
    8.6649    4.5150   -4.2012 C   0  0  0  0  0  0  0  0  0  0  0  0
    8.2443    3.1479   -3.7014 C   0  0  0  0  0  0  0  0  0  0  0  0
    9.0948    2.7939   -2.6046 O   0  0  0  0  0  0  0  0  0  0  0  0
    8.9499    1.6353   -1.9669 C   0  0  0  0  0  0  0  0  0  0  0  0
    7.9703    0.6642   -2.2866 C   0  0  0  0  0  0  0  0  0  0  0  0
    7.9054   -0.5101   -1.5516 C   0  0  0  0  0  0  0  0  0  0  0  0
    8.8129   -0.7280   -0.4982 C   0  0  0  0  0  0  0  0  0  0  0  0
    8.7120   -2.2339    0.4443 S   0  0  1  0  0  0  0  0  0  0  0  0
    9.3972   -2.0109    1.7092 O   0  0  0  0  0  0  0  0  0  0  0  0
    7.3497   -2.7454    0.3421 O   0  0  0  0  0  0  0  0  0  0  0  0
    9.6553   -3.3431   -0.3993 N   0  0  0  0  0  0  0  0  0  0  0  0
   11.0811   -3.4996   -0.2277 C   0  0  0  0  0  0  0  0  0  0  0  0
   11.4506   -4.5308    0.8789 C   0  0  0  0  0  0  0  0  0  0  0  0
   12.8462   -4.8156    0.9168 N   0  0  0  0  0  0  0  0  0  0  0  0
   13.7768   -3.9578    1.5247 C   0  0  0  0  0  0  0  0  0  0  0  0
   13.2999   -2.9128    2.0252 O   0  0  0  0  0  0  0  0  0  0  0  0
   15.1727   -4.2685    1.4922 C   0  0  0  0  0  0  0  0  0  0  0  0
   15.6743   -5.5367    1.0258 C   0  0  0  0  0  0  0  0  0  0  0  0
   17.0258   -5.7725    0.9128 C   0  0  0  0  0  0  0  0  0  0  0  0
   18.0127   -4.7898    1.2511 C   0  0  0  0  0  0  0  0  0  0  0  0
   19.4379   -5.0401    1.1019 C   0  0  0  0  0  0  0  0  0  0  0  0
   19.9395   -6.1403    0.3442 C   0  0  0  0  0  0  0  0  0  0  0  0
   21.3024   -6.3854    0.2158 C   0  0  0  0  0  0  0  0  0  0  0  0
   22.2478   -5.5498    0.8301 C   0  0  0  0  0  0  0  0  0  0  0  0
   21.7837   -4.4572    1.5778 C   0  0  0  0  0  0  0  0  0  0  0  0
   20.4220   -4.2085    1.7139 C   0  0  0  0  0  0  0  0  0  0  0  0
   17.4953   -3.5499    1.7646 C   0  0  0  0  0  0  0  0  0  0  0  0
   16.1486   -3.2960    1.8828 C   0  0  0  0  0  0  0  0  0  0  0  0
    9.7854    0.2358   -0.1650 C   0  0  0  0  0  0  0  0  0  0  0  0
    9.8534    1.4056   -0.8960 C   0  0  0  0  0  0  0  0  0  0  0  0
    8.0277    4.8207   -5.0444 H   0  0  0  0  0  0  0  0  0  0  0  0
    9.7114    4.5017   -4.5408 H   0  0  0  0  0  0  0  0  0  0  0  0
    8.5708    5.2665   -3.4030 H   0  0  0  0  0  0  0  0  0  0  0  0
    8.3337    2.3885   -4.4985 H   0  0  0  0  0  0  0  0  0  0  0  0
    7.1923    3.1566   -3.3646 H   0  0  0  0  0  0  0  0  0  0  0  0
    7.2562    0.8280   -3.0924 H   0  0  0  0  0  0  0  0  0  0  0  0
    7.1367   -1.2541   -1.7691 H   0  0  0  0  0  0  0  0  0  0  0  0
    9.1548   -3.8771   -1.1076 H   0  0  0  0  0  0  0  0  0  0  0  0
   11.5365   -2.5395    0.0567 H   0  0  0  0  0  0  0  0  0  0  0  0
   11.5154   -3.7954   -1.1952 H   0  0  0  0  0  0  0  0  0  0  0  0
   10.9092   -5.4763    0.7141 H   0  0  0  0  0  0  0  0  0  0  0  0
   11.1260   -4.1210    1.8446 H   0  0  0  0  0  0  0  0  0  0  0  0
   13.2306   -5.4687    0.2402 H   0  0  0  0  0  0  0  0  0  0  0  0
   14.9829   -6.3576    0.8123 H   0  0  0  0  0  0  0  0  0  0  0  0
   17.3513   -6.7628    0.5870 H   0  0  0  0  0  0  0  0  0  0  0  0
   19.2415   -6.8057   -0.1667 H   0  0  0  0  0  0  0  0  0  0  0  0
   21.6365   -7.2402   -0.3804 H   0  0  0  0  0  0  0  0  0  0  0  0
   23.3179   -5.7446    0.7276 H   0  0  0  0  0  0  0  0  0  0  0  0
   22.4983   -3.7921    2.0724 H   0  0  0  0  0  0  0  0  0  0  0  0
   20.1097   -3.3615    2.3269 H   0  0  0  0  0  0  0  0  0  0  0  0
   18.1901   -2.7627    2.0626 H   0  0  0  0  0  0  0  0  0  0  0  0
   15.8151   -2.3319    2.2691 H   0  0  0  0  0  0  0  0  0  0  0  0
   10.4527    0.0646    0.6819 H   0  0  0  0  0  0  0  0  0  0  0  0
   10.5860    2.1792   -0.6607 H   0  0  0  0  0  0  0  0  0  0  0  0
  1  2  1  0
  1 31  1  0
  1 32  1  0
  1 33  1  0
  2  3  1  0
  2 34  1  0
  2 35  1  0
  3  4  1  0
  4  5  2  0
  4 30  1  0
  5  6  1  0
  5 36  1  0
  6  7  2  0
  6 37  1  0
  7  8  1  0
  7 29  1  0
  8  9  2  0
  8 10  2  0
  8 11  1  6
 11 12  1  0
 11 38  1  0
 12 13  1  0
 12 39  1  0
 12 40  1  0
 13 14  1  0
 13 41  1  0
 13 42  1  0
 14 15  1  0
 14 43  1  0
 15 16  2  0
 15 17  1  0
 17 18  2  0
 17 28  1  0
 18 19  1  0
 18 44  1  0
 19 20  2  0
 19 45  1  0
 20 21  1  0
 20 27  1  0
 21 22  2  0
 21 26  1  0
 22 23  1  0
 22 46  1  0
 23 24  2  0
 23 47  1  0
 24 25  1  0
 24 48  1  0
 25 26  2  0
 25 49  1  0
 26 50  1  0
 27 28  2  0
 27 51  1  0
 28 52  1  0
 29 30  2  0
 29 53  1  0
 30 54  1  0
M  END

