
     RDKit          3D

 61 63  0  0  0  0  0  0  0  0999 V2000
    6.0340   -3.2877    3.6017 C   0  0  0  0  0  0  0  0  0  0  0  0
    4.8315   -2.5070    4.1310 C   0  0  0  0  0  0  0  0  0  0  0  0
    3.8003   -2.1196    3.0642 C   0  0  1  0  0  0  0  0  0  0  0  0
    2.6270   -1.3603    3.6928 C   0  0  0  0  0  0  0  0  0  0  0  0
    2.8752   -0.4144    4.5186 O   0  0  0  0  0  0  0  0  0  0  0  0
    1.5451   -1.0845    2.6825 N   0  0  0  0  0  0  0  0  0  0  0  0
    0.5799   -0.1402    3.1927 C   0  0  0  0  0  0  0  0  0  0  0  0
   -0.3659    0.3341    2.0876 C   0  0  0  0  0  0  0  0  0  0  0  0
   -1.0854   -0.8332    1.3833 C   0  0  2  0  0  0  0  0  0  0  0  0
   -2.1799   -1.5037    2.2533 C   0  0  0  0  0  0  0  0  0  0  0  0
   -3.2795   -0.6047    2.5987 N   0  0  0  0  0  0  0  0  0  0  0  0
   -4.4399   -0.5038    1.7696 C   0  0  0  0  0  0  0  0  0  0  0  0
   -5.6410   -1.1944    2.5229 C   0  0  2  0  0  0  0  0  0  0  0  0
   -6.9466   -1.0263    1.7705 C   0  0  0  0  0  0  0  0  0  0  0  0
   -5.7563   -0.6036    3.7923 O   0  0  0  0  0  0  0  0  0  0  0  0
   -4.6264   -0.7316    4.6238 C   0  0  2  0  0  0  0  0  0  0  0  0
   -4.9185   -0.0981    5.9692 C   0  0  0  0  0  0  0  0  0  0  0  0
   -3.4092   -0.0344    3.9051 C   0  0  0  0  0  0  0  0  0  0  0  0
   -0.0428   -1.8980    0.9895 C   0  0  0  0  0  0  0  0  0  0  0  0
    0.9084   -2.2627    2.1362 C   0  0  0  0  0  0  0  0  0  0  0  0
    4.4252   -1.3323    1.9730 N   0  0  0  0  0  0  0  0  0  0  0  0
    5.0300   -0.0287    2.2322 C   0  0  0  0  0  0  0  0  0  0  0  0
    4.8485    0.7312    0.9028 C   0  0  0  0  0  0  0  0  0  0  0  0
    4.7491   -0.3879   -0.1392 C   0  0  0  0  0  0  0  0  0  0  0  0
    4.1643   -1.5612    0.6587 C   0  0  0  0  0  0  0  0  0  0  0  0
    3.5803   -2.5309    0.1814 O   0  0  0  0  0  0  0  0  0  0  0  0
    6.7331   -3.5480    4.4141 H   0  0  0  0  0  0  0  0  0  0  0  0
    6.5972   -2.7090    2.8513 H   0  0  0  0  0  0  0  0  0  0  0  0
    5.7243   -4.2282    3.1146 H   0  0  0  0  0  0  0  0  0  0  0  0
    5.1488   -1.5940    4.6598 H   0  0  0  0  0  0  0  0  0  0  0  0
    4.2946   -3.1040    4.8869 H   0  0  0  0  0  0  0  0  0  0  0  0
    3.4637   -3.0357    2.5593 H   0  0  0  0  0  0  0  0  0  0  0  0
    1.1286    0.7033    3.6300 H   0  0  0  0  0  0  0  0  0  0  0  0
   -0.0048   -0.5663    4.0531 H   0  0  0  0  0  0  0  0  0  0  0  0
    0.2329    0.8488    1.3192 H   0  0  0  0  0  0  0  0  0  0  0  0
   -1.0796    1.0846    2.4734 H   0  0  0  0  0  0  0  0  0  0  0  0
   -1.5897   -0.4626    0.4713 H   0  0  0  0  0  0  0  0  0  0  0  0
   -1.7468   -1.8787    3.1872 H   0  0  0  0  0  0  0  0  0  0  0  0
   -2.6126   -2.3526    1.7022 H   0  0  0  0  0  0  0  0  0  0  0  0
   -4.2610   -0.9824    0.7998 H   0  0  0  0  0  0  0  0  0  0  0  0
   -4.7110    0.5533    1.6244 H   0  0  0  0  0  0  0  0  0  0  0  0
   -5.3832   -2.2663    2.6255 H   0  0  0  0  0  0  0  0  0  0  0  0
   -7.2072    0.0385    1.6776 H   0  0  0  0  0  0  0  0  0  0  0  0
   -7.7536   -1.5331    2.3179 H   0  0  0  0  0  0  0  0  0  0  0  0
   -6.8779   -1.4677    0.7656 H   0  0  0  0  0  0  0  0  0  0  0  0
   -4.3654   -1.8005    4.7422 H   0  0  0  0  0  0  0  0  0  0  0  0
   -5.1897    0.9614    5.8498 H   0  0  0  0  0  0  0  0  0  0  0  0
   -4.0436   -0.1711    6.6307 H   0  0  0  0  0  0  0  0  0  0  0  0
   -5.7602   -0.6196    6.4463 H   0  0  0  0  0  0  0  0  0  0  0  0
   -2.4846   -0.1696    4.4745 H   0  0  0  0  0  0  0  0  0  0  0  0
   -3.6507    1.0363    3.8226 H   0  0  0  0  0  0  0  0  0  0  0  0
    0.5641   -1.4851    0.1691 H   0  0  0  0  0  0  0  0  0  0  0  0
   -0.5359   -2.8032    0.5923 H   0  0  0  0  0  0  0  0  0  0  0  0
    1.6716   -2.9276    1.7108 H   0  0  0  0  0  0  0  0  0  0  0  0
    0.3757   -2.8575    2.9241 H   0  0  0  0  0  0  0  0  0  0  0  0
    6.1024   -0.1372    2.4902 H   0  0  0  0  0  0  0  0  0  0  0  0
    4.5218    0.4474    3.0837 H   0  0  0  0  0  0  0  0  0  0  0  0
    5.6578    1.4528    0.7126 H   0  0  0  0  0  0  0  0  0  0  0  0
    3.8990    1.2897    0.9344 H   0  0  0  0  0  0  0  0  0  0  0  0
    5.7391   -0.6864   -0.5296 H   0  0  0  0  0  0  0  0  0  0  0  0
    4.1118   -0.1611   -1.0061 H   0  0  0  0  0  0  0  0  0  0  0  0
  1  2  1  0
  1 27  1  0
  1 28  1  0
  1 29  1  0
  2  3  1  0
  2 30  1  0
  2 31  1  0
  3  4  1  0
  3 21  1  0
  3 32  1  6
  4  5  2  0
  4  6  1  0
  6  7  1  0
  6 20  1  0
  7  8  1  0
  7 33  1  0
  7 34  1  0
  8  9  1  0
  8 35  1  0
  8 36  1  0
  9 10  1  0
  9 19  1  0
  9 37  1  6
 10 11  1  0
 10 38  1  0
 10 39  1  0
 11 12  1  0
 11 18  1  0
 12 13  1  0
 12 40  1  0
 12 41  1  0
 13 14  1  0
 13 15  1  0
 13 42  1  6
 14 43  1  0
 14 44  1  0
 14 45  1  0
 15 16  1  0
 16 17  1  0
 16 18  1  0
 16 46  1  6
 17 47  1  0
 17 48  1  0
 17 49  1  0
 18 50  1  0
 18 51  1  0
 19 20  1  0
 19 52  1  0
 19 53  1  0
 20 54  1  0
 20 55  1  0
 21 22  1  0
 21 25  1  0
 22 23  1  0
 22 56  1  0
 22 57  1  0
 23 24  1  0
 23 58  1  0
 23 59  1  0
 24 25  1  0
 24 60  1  0
 24 61  1  0
 25 26  2  0
M  END

