
     RDKit          3D

 57 60  0  0  0  0  0  0  0  0999 V2000
    2.8970   -1.3655   -1.9953 C   0  0  0  0  0  0  0  0  0  0  0  0
    2.5773   -0.7969   -0.5987 C   0  0  1  0  0  0  0  0  0  0  0  0
    3.4309   -0.1708   -0.3053 H   0  0  0  0  0  0  0  0  0  0  0  0
    1.2960    0.0771   -0.6051 C   0  0  0  0  0  0  0  0  0  0  0  0
    0.2671   -0.3308   -0.0973 O   0  0  0  0  0  0  0  0  0  0  0  0
    1.3634    1.3144   -1.2166 N   0  0  0  0  0  0  0  0  0  0  0  0
    0.1343    2.0989   -1.3417 C   0  0  0  0  0  0  0  0  0  0  0  0
    0.2911    3.4877   -0.7157 C   0  0  0  0  0  0  0  0  0  0  0  0
    1.5024    4.2202   -1.3048 C   0  0  0  0  0  0  0  0  0  0  0  0
    2.7622    3.3560   -1.1838 C   0  0  0  0  0  0  0  0  0  0  0  0
    2.5466    1.9570   -1.7798 C   0  0  0  0  0  0  0  0  0  0  0  0
    2.4805   -1.8125    0.4506 N   0  0  0  0  0  0  0  0  0  0  0  0
    1.7988   -2.9960    0.2371 C   0  0  0  0  0  0  0  0  0  0  0  0
    1.2470   -3.3047   -0.8017 O   0  0  0  0  0  0  0  0  0  0  0  0
    1.7792   -3.9367    1.4386 C   0  0  0  0  0  0  0  0  0  0  0  0
    2.9539   -3.8700    2.2184 O   0  0  0  0  0  0  0  0  0  0  0  0
    3.2323   -2.5898    2.6271 C   0  0  0  0  0  0  0  0  0  0  0  0
    3.7853   -2.3561    3.8913 C   0  0  0  0  0  0  0  0  0  0  0  0
    4.0596   -1.0661    4.3165 C   0  0  0  0  0  0  0  0  0  0  0  0
    3.7590    0.0579    3.4930 C   0  0  0  0  0  0  0  0  0  0  0  0
    4.0113    1.3776    4.0256 C   0  0  0  0  0  0  0  0  0  0  0  0
    4.4689    1.5890    5.2015 O   0  0  0  0  0  0  0  0  0  0  0  0
    3.7647    2.5882    3.1638 C   0  0  0  0  0  0  0  0  0  0  0  0
    2.3627    3.2099    3.2283 O   0  0  0  0  0  0  0  0  0  0  0  0
    1.8546    3.7186    4.2979 C   0  0  0  0  0  0  0  0  0  0  0  0
    0.5803    4.3921    4.1186 C   0  0  0  0  0  0  0  0  0  0  0  0
   -0.0504    4.9769    5.1941 C   0  0  0  0  0  0  0  0  0  0  0  0
    0.5511    4.9283    6.4636 C   0  0  0  0  0  0  0  0  0  0  0  0
    1.8053    4.2620    6.6376 C   0  0  0  0  0  0  0  0  0  0  0  0
    2.4674    4.2347    8.2324 Cl  0  0  0  0  0  0  0  0  0  0  0  0
    2.4648    3.6584    5.5924 C   0  0  0  0  0  0  0  0  0  0  0  0
    3.2026   -0.2059    2.2052 C   0  0  0  0  0  0  0  0  0  0  0  0
    2.9650   -1.5079    1.7612 C   0  0  0  0  0  0  0  0  0  0  0  0
    3.2062   -0.5545   -2.6707 H   0  0  0  0  0  0  0  0  0  0  0  0
    2.0385   -1.8916   -2.4232 H   0  0  0  0  0  0  0  0  0  0  0  0
    3.7327   -2.0776   -1.9210 H   0  0  0  0  0  0  0  0  0  0  0  0
   -0.6680    1.5244   -0.8642 H   0  0  0  0  0  0  0  0  0  0  0  0
   -0.1138    2.2056   -2.4162 H   0  0  0  0  0  0  0  0  0  0  0  0
    0.4221    3.3720    0.3753 H   0  0  0  0  0  0  0  0  0  0  0  0
   -0.6334    4.0679   -0.8746 H   0  0  0  0  0  0  0  0  0  0  0  0
    1.6540    5.1947   -0.8112 H   0  0  0  0  0  0  0  0  0  0  0  0
    1.3113    4.4386   -2.3719 H   0  0  0  0  0  0  0  0  0  0  0  0
    3.0339    3.2502   -0.1183 H   0  0  0  0  0  0  0  0  0  0  0  0
    3.6180    3.8357   -1.6876 H   0  0  0  0  0  0  0  0  0  0  0  0
    3.4353    1.3408   -1.6089 H   0  0  0  0  0  0  0  0  0  0  0  0
    2.4267    2.0450   -2.8784 H   0  0  0  0  0  0  0  0  0  0  0  0
    1.6817   -4.9589    1.0519 H   0  0  0  0  0  0  0  0  0  0  0  0
    0.8832   -3.7025    2.0500 H   0  0  0  0  0  0  0  0  0  0  0  0
    3.9915   -3.2205    4.5268 H   0  0  0  0  0  0  0  0  0  0  0  0
    4.4896   -0.8716    5.2992 H   0  0  0  0  0  0  0  0  0  0  0  0
    3.8422    2.4232    2.0846 H   0  0  0  0  0  0  0  0  0  0  0  0
    4.4309    3.4055    3.4678 H   0  0  0  0  0  0  0  0  0  0  0  0
    0.1574    4.4072    3.1142 H   0  0  0  0  0  0  0  0  0  0  0  0
   -1.0100    5.4810    5.0693 H   0  0  0  0  0  0  0  0  0  0  0  0
    0.0746    5.3905    7.3286 H   0  0  0  0  0  0  0  0  0  0  0  0
    3.3957    3.0809    5.7206 H   0  0  0  0  0  0  0  0  0  0  0  0
    2.9249    0.6269    1.5618 H   0  0  0  0  0  0  0  0  0  0  0  0
  1  2  1  0
  1 34  1  0
  1 35  1  0
  1 36  1  0
  2  3  1  1
  2  4  1  0
  2 12  1  0
  4  5  2  0
  4  6  1  0
  6  7  1  0
  6 11  1  0
  7  8  1  0
  7 37  1  0
  7 38  1  0
  8  9  1  0
  8 39  1  0
  8 40  1  0
  9 10  1  0
  9 41  1  0
  9 42  1  0
 10 11  1  0
 10 43  1  0
 10 44  1  0
 11 45  1  0
 11 46  1  0
 12 13  1  0
 12 33  1  0
 13 14  2  0
 13 15  1  0
 15 16  1  0
 15 47  1  0
 15 48  1  0
 16 17  1  0
 17 18  2  0
 17 33  1  0
 18 19  1  0
 18 49  1  0
 19 20  2  0
 19 50  1  0
 20 21  1  0
 20 32  1  0
 21 22  2  0
 21 23  1  0
 23 24  1  0
 23 51  1  0
 23 52  1  0
 24 25  1  0
 25 26  2  0
 25 31  1  0
 26 27  1  0
 26 53  1  0
 27 28  2  0
 27 54  1  0
 28 29  1  0
 28 55  1  0
 29 30  1  0
 29 31  2  0
 31 56  1  0
 32 33  2  0
 32 57  1  0
M  END

