
     RDKit          3D

 61 64  0  0  0  0  0  0  0  0999 V2000
    3.6744   -3.2541    6.0602 C   0  0  0  0  0  0  0  0  0  0  0  0
    4.6938   -3.5354    7.1739 C   0  0  1  0  0  0  0  0  0  0  0  0
    4.8005   -5.0503    7.4019 C   0  0  0  0  0  0  0  0  0  0  0  0
    6.0920   -2.8537    6.9342 C   0  0  2  0  0  0  0  0  0  0  0  0
    6.9938   -3.0753    8.1646 C   0  0  0  0  0  0  0  0  0  0  0  0
    5.9322   -1.3298    6.7286 C   0  0  0  0  0  0  0  0  0  0  0  0
    5.6154   -0.8942    5.3133 C   0  0  0  0  0  0  0  0  0  0  0  0
    4.9683    0.1058    5.0634 O   0  0  0  0  0  0  0  0  0  0  0  0
    6.1920   -1.6690    4.3139 N   0  0  0  0  0  0  0  0  0  0  0  0
    6.1702   -1.0951    2.9191 C   0  0  0  0  0  0  0  0  0  0  0  0
    7.2809   -0.1685    2.5688 C   0  0  0  0  0  0  0  0  0  0  0  0
    7.1195    1.2538    2.5668 C   0  0  0  0  0  0  0  0  0  0  0  0
    8.1558    2.1021    2.2481 C   0  0  0  0  0  0  0  0  0  0  0  0
    9.4336    1.6760    1.9168 N   0  0  0  0  0  0  0  0  0  0  0  0
    9.5483    0.3404    1.9559 C   0  0  0  0  0  0  0  0  0  0  0  0
   10.9224   -0.0605    1.6203 N   0  0  0  0  0  0  0  0  0  0  0  0
   11.9843   -0.0997    2.5947 C   0  0  0  0  0  0  0  0  0  0  0  0
   13.2759    0.0778    1.7871 C   0  0  0  0  0  0  0  0  0  0  0  0
   12.9031   -0.4383    0.3737 C   0  0  2  0  0  0  0  0  0  0  0  0
   13.7837    0.0506   -0.7602 C   0  0  0  0  0  0  0  0  0  0  0  0
   14.5368   -0.8626   -1.5127 C   0  0  0  0  0  0  0  0  0  0  0  0
   15.3604   -0.4280   -2.5557 C   0  0  0  0  0  0  0  0  0  0  0  0
   15.4415    0.9319   -2.8634 C   0  0  0  0  0  0  0  0  0  0  0  0
   14.6949    1.8532   -2.1220 C   0  0  0  0  0  0  0  0  0  0  0  0
   13.8743    1.4161   -1.0798 C   0  0  0  0  0  0  0  0  0  0  0  0
   11.4187   -0.0397    0.2714 C   0  0  0  0  0  0  0  0  0  0  0  0
    8.6200   -0.6201    2.2543 C   0  0  0  0  0  0  0  0  0  0  0  0
    6.7884   -2.9002    4.6489 C   0  0  0  0  0  0  0  0  0  0  0  0
    7.4938   -3.5241    3.6222 N   0  0  0  0  0  0  0  0  0  0  0  0
    6.7546   -3.4726    5.7935 N   0  0  0  0  0  0  0  0  0  0  0  0
    2.7131   -3.7384    6.2968 H   0  0  0  0  0  0  0  0  0  0  0  0
    4.0156   -3.6624    5.0952 H   0  0  0  0  0  0  0  0  0  0  0  0
    3.4705   -2.1818    5.9250 H   0  0  0  0  0  0  0  0  0  0  0  0
    4.3012   -3.0780    8.1019 H   0  0  0  0  0  0  0  0  0  0  0  0
    5.2682   -5.5383    6.5333 H   0  0  0  0  0  0  0  0  0  0  0  0
    3.7989   -5.4871    7.5457 H   0  0  0  0  0  0  0  0  0  0  0  0
    5.3980   -5.3026    8.2900 H   0  0  0  0  0  0  0  0  0  0  0  0
    6.5293   -2.6725    9.0799 H   0  0  0  0  0  0  0  0  0  0  0  0
    7.9599   -2.5693    8.0145 H   0  0  0  0  0  0  0  0  0  0  0  0
    7.2038   -4.1429    8.3135 H   0  0  0  0  0  0  0  0  0  0  0  0
    6.8916   -0.8359    6.9675 H   0  0  0  0  0  0  0  0  0  0  0  0
    5.1766   -0.8868    7.3929 H   0  0  0  0  0  0  0  0  0  0  0  0
    5.2141   -0.5610    2.8605 H   0  0  0  0  0  0  0  0  0  0  0  0
    6.0925   -1.9531    2.2281 H   0  0  0  0  0  0  0  0  0  0  0  0
    6.1475    1.6796    2.8308 H   0  0  0  0  0  0  0  0  0  0  0  0
    8.0053    3.1857    2.2466 H   0  0  0  0  0  0  0  0  0  0  0  0
   11.9218   -1.0808    3.1094 H   0  0  0  0  0  0  0  0  0  0  0  0
   11.7842    0.6669    3.3581 H   0  0  0  0  0  0  0  0  0  0  0  0
   14.1311   -0.4583    2.2201 H   0  0  0  0  0  0  0  0  0  0  0  0
   13.5379    1.1462    1.7424 H   0  0  0  0  0  0  0  0  0  0  0  0
   12.9496   -1.5401    0.3902 H   0  0  0  0  0  0  0  0  0  0  0  0
   14.4779   -1.9298   -1.2801 H   0  0  0  0  0  0  0  0  0  0  0  0
   15.9385   -1.1564   -3.1297 H   0  0  0  0  0  0  0  0  0  0  0  0
   16.0830    1.2744   -3.6790 H   0  0  0  0  0  0  0  0  0  0  0  0
   14.7504    2.9191   -2.3561 H   0  0  0  0  0  0  0  0  0  0  0  0
   13.3006    2.1553   -0.5130 H   0  0  0  0  0  0  0  0  0  0  0  0
   10.7898   -0.6787   -0.3681 H   0  0  0  0  0  0  0  0  0  0  0  0
   11.2658    0.9995   -0.0841 H   0  0  0  0  0  0  0  0  0  0  0  0
    8.8808   -1.6793    2.2801 H   0  0  0  0  0  0  0  0  0  0  0  0
    7.1148   -3.4350    2.6864 H   0  0  0  0  0  0  0  0  0  0  0  0
    7.7157   -4.4812    3.8775 H   0  0  0  0  0  0  0  0  0  0  0  0
  1  2  1  0
  1 31  1  0
  1 32  1  0
  1 33  1  0
  2  3  1  0
  2  4  1  0
  2 34  1  1
  3 35  1  0
  3 36  1  0
  3 37  1  0
  4  5  1  1
  4  6  1  0
  4 30  1  0
  5 38  1  0
  5 39  1  0
  5 40  1  0
  6  7  1  0
  6 41  1  0
  6 42  1  0
  7  8  2  0
  7  9  1  0
  9 10  1  0
  9 28  1  0
 10 11  1  0
 10 43  1  0
 10 44  1  0
 11 12  2  0
 11 27  1  0
 12 13  1  0
 12 45  1  0
 13 14  2  0
 13 46  1  0
 14 15  1  0
 15 16  1  0
 15 27  2  0
 16 17  1  0
 16 26  1  0
 17 18  1  0
 17 47  1  0
 17 48  1  0
 18 19  1  0
 18 49  1  0
 18 50  1  0
 19 20  1  0
 19 26  1  0
 19 51  1  1
 20 21  2  0
 20 25  1  0
 21 22  1  0
 21 52  1  0
 22 23  2  0
 22 53  1  0
 23 24  1  0
 23 54  1  0
 24 25  2  0
 24 55  1  0
 25 56  1  0
 26 57  1  0
 26 58  1  0
 27 59  1  0
 28 29  1  0
 28 30  2  0
 29 60  1  0
 29 61  1  0
M  END

