
     RDKit          3D

 25 25  0  0  0  0  0  0  0  0999 V2000
    1.8451    1.0512   -0.3900 C   0  0  0  0  0  0  0  0  0  0  0  0
    2.4193    0.0298    0.2501 C   0  0  0  0  0  0  0  0  0  0  0  0
    3.0576   -1.1572   -0.4258 C   0  0  1  0  0  0  0  0  0  0  0  0
    2.4160   -2.4674    0.0244 C   0  0  0  0  0  0  0  0  0  0  0  0
    2.8520   -1.0469   -1.8073 F   0  0  0  0  0  0  0  0  0  0  0  0
    4.6062   -1.1277   -0.1967 C   0  0  0  0  0  0  0  0  0  0  0  0
    5.3746   -2.2820   -0.7472 C   0  0  0  0  0  0  0  0  0  0  0  0
    5.5541   -2.4295   -2.1641 C   0  0  0  0  0  0  0  0  0  0  0  0
    6.2996   -3.5301   -2.6889 C   0  0  0  0  0  0  0  0  0  0  0  0
    6.8669   -4.4937   -1.8066 C   0  0  0  0  0  0  0  0  0  0  0  0
    6.6976   -4.3623   -0.3992 C   0  0  0  0  0  0  0  0  0  0  0  0
    5.9523   -3.2636    0.1279 C   0  0  0  0  0  0  0  0  0  0  0  0
    1.4016    1.8862    0.1588 H   0  0  0  0  0  0  0  0  0  0  0  0
    1.7983    1.0756   -1.4813 H   0  0  0  0  0  0  0  0  0  0  0  0
    2.4601    0.0142    1.3456 H   0  0  0  0  0  0  0  0  0  0  0  0
    1.3414   -2.4533   -0.2109 H   0  0  0  0  0  0  0  0  0  0  0  0
    2.5342   -2.6078    1.1098 H   0  0  0  0  0  0  0  0  0  0  0  0
    2.8866   -3.3172   -0.4911 H   0  0  0  0  0  0  0  0  0  0  0  0
    4.7838   -1.0342    0.8866 H   0  0  0  0  0  0  0  0  0  0  0  0
    4.9434   -0.1860   -0.6685 H   0  0  0  0  0  0  0  0  0  0  0  0
    5.1011   -1.7005   -2.8358 H   0  0  0  0  0  0  0  0  0  0  0  0
    6.4275   -3.6348   -3.7676 H   0  0  0  0  0  0  0  0  0  0  0  0
    7.4276   -5.3391   -2.2107 H   0  0  0  0  0  0  0  0  0  0  0  0
    7.1371   -5.0976    0.2770 H   0  0  0  0  0  0  0  0  0  0  0  0
    5.8313   -3.1560    1.2079 H   0  0  0  0  0  0  0  0  0  0  0  0
  1  2  2  0
  1 13  1  0
  1 14  1  0
  2  3  1  0
  2 15  1  0
  3  4  1  0
  3  5  1  6
  3  6  1  0
  4 16  1  0
  4 17  1  0
  4 18  1  0
  6  7  1  0
  6 19  1  0
  6 20  1  0
  7  8  2  0
  7 12  1  0
  8  9  1  0
  8 21  1  0
  9 10  2  0
  9 22  1  0
 10 11  1  0
 10 23  1  0
 11 12  2  0
 11 24  1  0
 12 25  1  0
M  END

