
     RDKit          3D

 36 37  0  0  0  0  0  0  0  0999 V2000
    6.4593   -1.1283    1.3818 C   0  0  0  0  0  0  0  0  0  0  0  0
    5.1750   -0.3578    1.0715 C   0  0  1  0  0  0  0  0  0  0  0  0
    4.3875   -0.0608    2.3521 C   0  0  0  0  0  0  0  0  0  0  0  0
    5.5220    0.8775    0.3700 N   0  0  0  0  0  0  0  0  0  0  0  0
    4.4124    1.5850   -0.2587 C   0  0  0  0  0  0  0  0  0  0  0  0
    4.8754    2.7081   -1.1456 C   0  0  0  0  0  0  0  0  0  0  0  0
    4.6775    4.0936   -0.9214 C   0  0  0  0  0  0  0  0  0  0  0  0
    5.2393    4.8447   -1.8635 N   0  0  0  0  0  0  0  0  0  0  0  0
    5.8199    3.9687   -2.6852 N   0  0  0  0  0  0  0  0  0  0  0  0
    6.2702    4.3033   -3.5289 H   0  0  0  0  0  0  0  0  0  0  0  0
    5.6356    2.6612   -2.3221 C   0  0  0  0  0  0  0  0  0  0  0  0
    6.2226    1.5600   -3.0974 C   0  0  0  0  0  0  0  0  0  0  0  0
    7.4233    1.7414   -3.8115 C   0  0  0  0  0  0  0  0  0  0  0  0
    7.9820    0.7046   -4.5589 C   0  0  0  0  0  0  0  0  0  0  0  0
    7.3584   -0.5452   -4.5983 C   0  0  0  0  0  0  0  0  0  0  0  0
    7.9464   -1.6886   -5.3859 C   0  0  1  0  0  0  0  0  0  0  0  0
    9.0546   -1.3285   -6.0537 F   0  0  0  0  0  0  0  0  0  0  0  0
    8.2773   -2.7202   -4.5855 F   0  0  0  0  0  0  0  0  0  0  0  0
    7.0694   -2.1673   -6.2886 F   0  0  0  0  0  0  0  0  0  0  0  0
    6.1674   -0.7462   -3.8868 C   0  0  0  0  0  0  0  0  0  0  0  0
    5.6063    0.2922   -3.1494 C   0  0  0  0  0  0  0  0  0  0  0  0
    6.2374   -2.0746    1.8987 H   0  0  0  0  0  0  0  0  0  0  0  0
    7.1223   -0.5268    2.0245 H   0  0  0  0  0  0  0  0  0  0  0  0
    7.0105   -1.3728    0.4581 H   0  0  0  0  0  0  0  0  0  0  0  0
    4.5323   -1.0088    0.4302 H   0  0  0  0  0  0  0  0  0  0  0  0
    4.9784    0.5871    3.0198 H   0  0  0  0  0  0  0  0  0  0  0  0
    4.1494   -0.9942    2.8864 H   0  0  0  0  0  0  0  0  0  0  0  0
    3.4338    0.4477    2.1422 H   0  0  0  0  0  0  0  0  0  0  0  0
    6.2391    0.6833   -0.3266 H   0  0  0  0  0  0  0  0  0  0  0  0
    3.7702    2.0213    0.5236 H   0  0  0  0  0  0  0  0  0  0  0  0
    3.7456    0.8970   -0.8308 H   0  0  0  0  0  0  0  0  0  0  0  0
    4.1407    4.5608   -0.0954 H   0  0  0  0  0  0  0  0  0  0  0  0
    7.9475    2.6986   -3.7623 H   0  0  0  0  0  0  0  0  0  0  0  0
    8.9133    0.8638   -5.1042 H   0  0  0  0  0  0  0  0  0  0  0  0
    5.6701   -1.7182   -3.9198 H   0  0  0  0  0  0  0  0  0  0  0  0
    4.6648    0.1266   -2.6246 H   0  0  0  0  0  0  0  0  0  0  0  0
  1  2  1  0
  1 22  1  0
  1 23  1  0
  1 24  1  0
  2  3  1  0
  2  4  1  0
  2 25  1  6
  3 26  1  0
  3 27  1  0
  3 28  1  0
  4  5  1  0
  4 29  1  0
  5  6  1  0
  5 30  1  0
  5 31  1  0
  6  7  1  0
  6 11  2  0
  7  8  2  0
  7 32  1  0
  8  9  1  0
  9 10  1  0
  9 11  1  0
 11 12  1  0
 12 13  2  0
 12 21  1  0
 13 14  1  0
 13 33  1  0
 14 15  2  0
 14 34  1  0
 15 16  1  0
 15 20  1  0
 16 17  1  6
 16 18  1  0
 16 19  1  0
 20 21  2  0
 20 35  1  0
 21 36  1  0
M  END

