
     RDKit          3D

 82 82  0  0  0  0  0  0  0  0999 V2000
    6.4817    6.7853  -20.3670 C   0  0  0  0  0  0  0  0  0  0  0  0
    6.7926    5.9991  -19.0926 C   0  0  0  0  0  0  0  0  0  0  0  0
    8.2257    5.4604  -19.0379 C   0  0  0  0  0  0  0  0  0  0  0  0
    8.5465    4.6750  -17.7631 C   0  0  0  0  0  0  0  0  0  0  0  0
    9.9770    4.1299  -17.7118 C   0  0  0  0  0  0  0  0  0  0  0  0
   10.2980    3.3508  -16.4330 C   0  0  0  0  0  0  0  0  0  0  0  0
   11.7228    2.7891  -16.3873 C   0  0  0  0  0  0  0  0  0  0  0  0
   12.0366    2.0249  -15.0959 C   0  0  0  0  0  0  0  0  0  0  0  0
   13.4104    1.3373  -15.0598 C   0  0  0  0  0  0  0  0  0  0  0  0
   14.6376    2.2589  -15.1825 C   0  0  0  0  0  0  0  0  0  0  0  0
   14.8361    3.3640  -14.1284 C   0  0  0  0  0  0  0  0  0  0  0  0
   15.2398    2.9009  -12.7190 C   0  0  1  0  0  0  0  0  0  0  0  0
   15.9333    2.0413  -12.8188 H   0  0  0  0  0  0  0  0  0  0  0  0
   15.9233    3.9625  -12.0261 O   0  0  0  0  0  0  0  0  0  0  0  0
   14.0610    2.4982  -11.8329 C   0  0  0  0  0  0  0  0  0  0  0  0
   14.4131    1.6402  -10.6074 C   0  0  2  0  0  0  0  0  0  0  0  0
   14.8770    0.7115  -10.9730 H   0  0  0  0  0  0  0  0  0  0  0  0
   13.1889    1.2864   -9.9373 O   0  0  0  0  0  0  0  0  0  0  0  0
   12.4800    0.2317  -10.3846 C   0  0  0  0  0  0  0  0  0  0  0  0
   12.8010   -0.4235  -11.3532 O   0  0  0  0  0  0  0  0  0  0  0  0
   11.2714   -0.0219   -9.5477 C   0  0  0  0  0  0  0  0  0  0  0  0
   10.4263   -1.0832   -9.9097 C   0  0  0  0  0  0  0  0  0  0  0  0
    9.2867   -1.3577   -9.1542 C   0  0  0  0  0  0  0  0  0  0  0  0
    8.9862   -0.5738   -8.0340 C   0  0  0  0  0  0  0  0  0  0  0  0
    9.8266    0.4841   -7.6702 C   0  0  0  0  0  0  0  0  0  0  0  0
   10.9691    0.7643   -8.4224 C   0  0  0  0  0  0  0  0  0  0  0  0
   15.3294    2.2637   -9.5291 C   0  0  2  0  0  0  0  0  0  0  0  0
   16.2474    2.5774  -10.0519 H   0  0  0  0  0  0  0  0  0  0  0  0
   15.7051    1.2677   -8.4185 C   0  0  0  0  0  0  0  0  0  0  0  0
   16.5665    0.0832   -8.8697 C   0  0  0  0  0  0  0  0  0  0  0  0
   17.0041   -0.8115   -7.7052 C   0  0  0  0  0  0  0  0  0  0  0  0
   17.8612   -2.0081   -8.1277 C   0  0  0  0  0  0  0  0  0  0  0  0
   18.2964   -2.9006   -6.9613 C   0  0  0  0  0  0  0  0  0  0  0  0
   19.1533   -4.0931   -7.3889 C   0  0  0  0  0  0  0  0  0  0  0  0
   14.6826    3.5217   -8.9184 C   0  0  0  0  0  0  0  0  0  0  0  0
   14.1074    3.5191   -7.8601 O   0  0  0  0  0  0  0  0  0  0  0  0
   14.7877    4.6452   -9.6448 O   0  0  0  0  0  0  0  0  0  0  0  0
    5.4444    7.1567  -20.3719 H   0  0  0  0  0  0  0  0  0  0  0  0
    6.6154    6.1608  -21.2664 H   0  0  0  0  0  0  0  0  0  0  0  0
    7.1477    7.6584  -20.4719 H   0  0  0  0  0  0  0  0  0  0  0  0
    6.0847    5.1555  -18.9975 H   0  0  0  0  0  0  0  0  0  0  0  0
    6.6125    6.6402  -18.2103 H   0  0  0  0  0  0  0  0  0  0  0  0
    8.9351    6.3037  -19.1356 H   0  0  0  0  0  0  0  0  0  0  0  0
    8.4059    4.8162  -19.9191 H   0  0  0  0  0  0  0  0  0  0  0  0
    7.8336    3.8353  -17.6630 H   0  0  0  0  0  0  0  0  0  0  0  0
    8.3708    5.3211  -16.8828 H   0  0  0  0  0  0  0  0  0  0  0  0
   10.6906    4.9684  -17.8173 H   0  0  0  0  0  0  0  0  0  0  0  0
   10.1504    3.4788  -18.5889 H   0  0  0  0  0  0  0  0  0  0  0  0
    9.5766    2.5202  -16.3206 H   0  0  0  0  0  0  0  0  0  0  0  0
   10.1360    4.0057  -15.5566 H   0  0  0  0  0  0  0  0  0  0  0  0
   12.4382    3.6208  -16.5206 H   0  0  0  0  0  0  0  0  0  0  0  0
   11.8783    2.1191  -17.2538 H   0  0  0  0  0  0  0  0  0  0  0  0
   11.2645    1.2497  -14.9451 H   0  0  0  0  0  0  0  0  0  0  0  0
   11.9292    2.7106  -14.2356 H   0  0  0  0  0  0  0  0  0  0  0  0
   13.4603    0.6135  -15.8929 H   0  0  0  0  0  0  0  0  0  0  0  0
   13.4788    0.7245  -14.1453 H   0  0  0  0  0  0  0  0  0  0  0  0
   14.6120    2.7504  -16.1696 H   0  0  0  0  0  0  0  0  0  0  0  0
   15.5446    1.6274  -15.1977 H   0  0  0  0  0  0  0  0  0  0  0  0
   13.9493    4.0167  -14.0562 H   0  0  0  0  0  0  0  0  0  0  0  0
   15.6514    4.0145  -14.4940 H   0  0  0  0  0  0  0  0  0  0  0  0
   16.6944    4.2494  -12.5326 H   0  0  0  0  0  0  0  0  0  0  0  0
   13.3634    1.9026  -12.4331 H   0  0  0  0  0  0  0  0  0  0  0  0
   13.5229    3.4090  -11.5247 H   0  0  0  0  0  0  0  0  0  0  0  0
   10.6828   -1.6805  -10.7869 H   0  0  0  0  0  0  0  0  0  0  0  0
    8.6297   -2.1839   -9.4370 H   0  0  0  0  0  0  0  0  0  0  0  0
    8.0928   -0.7888   -7.4416 H   0  0  0  0  0  0  0  0  0  0  0  0
    9.5915    1.0945   -6.7949 H   0  0  0  0  0  0  0  0  0  0  0  0
   11.6322    1.5857   -8.1450 H   0  0  0  0  0  0  0  0  0  0  0  0
   14.7827    0.9093   -7.9364 H   0  0  0  0  0  0  0  0  0  0  0  0
   16.2449    1.8261   -7.6361 H   0  0  0  0  0  0  0  0  0  0  0  0
   17.4644    0.4568   -9.3980 H   0  0  0  0  0  0  0  0  0  0  0  0
   16.0206   -0.5361   -9.6036 H   0  0  0  0  0  0  0  0  0  0  0  0
   16.1062   -1.1744   -7.1720 H   0  0  0  0  0  0  0  0  0  0  0  0
   17.5619   -0.2034   -6.9691 H   0  0  0  0  0  0  0  0  0  0  0  0
   18.7593   -1.6447   -8.6622 H   0  0  0  0  0  0  0  0  0  0  0  0
   17.3024   -2.6169   -8.8631 H   0  0  0  0  0  0  0  0  0  0  0  0
   17.3984   -3.2634   -6.4288 H   0  0  0  0  0  0  0  0  0  0  0  0
   18.8526   -2.2905   -6.2262 H   0  0  0  0  0  0  0  0  0  0  0  0
   18.6116   -4.7420   -8.0976 H   0  0  0  0  0  0  0  0  0  0  0  0
   19.4445   -4.7138   -6.5263 H   0  0  0  0  0  0  0  0  0  0  0  0
   20.0798   -3.7631   -7.8885 H   0  0  0  0  0  0  0  0  0  0  0  0
   15.2823    4.4910  -10.4796 H   0  0  0  0  0  0  0  0  0  0  0  0
  1  2  1  0
  1 38  1  0
  1 39  1  0
  1 40  1  0
  2  3  1  0
  2 41  1  0
  2 42  1  0
  3  4  1  0
  3 43  1  0
  3 44  1  0
  4  5  1  0
  4 45  1  0
  4 46  1  0
  5  6  1  0
  5 47  1  0
  5 48  1  0
  6  7  1  0
  6 49  1  0
  6 50  1  0
  7  8  1  0
  7 51  1  0
  7 52  1  0
  8  9  1  0
  8 53  1  0
  8 54  1  0
  9 10  1  0
  9 55  1  0
  9 56  1  0
 10 11  1  0
 10 57  1  0
 10 58  1  0
 11 12  1  0
 11 59  1  0
 11 60  1  0
 12 13  1  6
 12 14  1  0
 12 15  1  0
 14 61  1  0
 15 16  1  0
 15 62  1  0
 15 63  1  0
 16 17  1  6
 16 18  1  0
 16 27  1  0
 18 19  1  0
 19 20  2  0
 19 21  1  0
 21 22  2  0
 21 26  1  0
 22 23  1  0
 22 64  1  0
 23 24  2  0
 23 65  1  0
 24 25  1  0
 24 66  1  0
 25 26  2  0
 25 67  1  0
 26 68  1  0
 27 28  1  6
 27 29  1  0
 27 35  1  0
 29 30  1  0
 29 69  1  0
 29 70  1  0
 30 31  1  0
 30 71  1  0
 30 72  1  0
 31 32  1  0
 31 73  1  0
 31 74  1  0
 32 33  1  0
 32 75  1  0
 32 76  1  0
 33 34  1  0
 33 77  1  0
 33 78  1  0
 34 79  1  0
 34 80  1  0
 34 81  1  0
 35 36  2  0
 35 37  1  0
 37 82  1  0
M  END

