
     RDKit          3D

162178  0  0  0  0  0  0  0  0999 V2000
    8.4350   14.5000   -1.3053 N   0  0  0  0  0  0  0  0  0  0  0  0
    9.0460   13.5139   -1.3624 C   0  0  0  0  0  0  0  0  0  0  0  0
    9.8010   12.2948   -1.4333 C   0  0  0  0  0  0  0  0  0  0  0  0
   10.9232   12.2021   -2.2771 C   0  0  0  0  0  0  0  0  0  0  0  0
   11.6537   11.0197   -2.3350 C   0  0  0  0  0  0  0  0  0  0  0  0
   11.2847    9.8962   -1.5711 C   0  0  0  0  0  0  0  0  0  0  0  0
   12.0801    8.6421   -1.6508 C   0  0  0  0  0  0  0  0  0  0  0  0
   13.4937    8.7111   -1.4885 C   0  0  0  0  0  0  0  0  0  0  0  0
   14.3407    7.8089   -2.0490 N   0  0  0  0  0  0  0  0  0  0  0  0
   15.5911    8.3185   -1.9217 C   0  0  0  0  0  0  0  0  0  0  0  0
   15.5755    9.5426   -1.0967 C   0  0  0  0  0  0  0  0  0  0  0  0
   16.7365   10.1939   -0.4311 C   0  0  0  0  0  0  0  0  0  0  0  0
   17.3611    9.5356    0.6448 C   0  0  0  0  0  0  0  0  0  0  0  0
   18.4183   10.1315    1.3358 C   0  0  0  0  0  0  0  0  0  0  0  0
   18.8764   11.3981    0.9614 C   0  0  0  0  0  0  0  0  0  0  0  0
   18.2669   12.0631   -0.1061 C   0  0  0  0  0  0  0  0  0  0  0  0
   17.2055   11.4672   -0.7929 C   0  0  0  0  0  0  0  0  0  0  0  0
   14.2485    9.7896   -0.8190 C   0  0  0  0  0  0  0  0  0  0  0  0
   13.7327   10.7541    0.1827 C   0  0  0  0  0  0  0  0  0  0  0  0
   13.9700   12.1364    0.0856 C   0  0  0  0  0  0  0  0  0  0  0  0
   13.5275   13.0126    1.0793 C   0  0  0  0  0  0  0  0  0  0  0  0
   12.8416   12.5249    2.1951 C   0  0  0  0  0  0  0  0  0  0  0  0
   12.5984   11.1527    2.3071 C   0  0  0  0  0  0  0  0  0  0  0  0
   13.0374   10.2785    1.3110 C   0  0  0  0  0  0  0  0  0  0  0  0
   16.7166    7.7872   -2.6169 C   0  0  0  0  0  0  0  0  0  0  0  0
   17.8824    8.6919   -2.8621 C   0  0  0  0  0  0  0  0  0  0  0  0
   17.7589    9.7844   -3.7371 C   0  0  0  0  0  0  0  0  0  0  0  0
   18.8300   10.6428   -3.9692 C   0  0  0  0  0  0  0  0  0  0  0  0
   20.0515   10.4371   -3.3020 C   0  0  0  0  0  0  0  0  0  0  0  0
   21.1568   11.3268   -3.5245 C   0  0  0  0  0  0  0  0  0  0  0  0
   22.0507   12.0461   -3.7047 N   0  0  0  0  0  0  0  0  0  0  0  0
   20.1813    9.3539   -2.4138 C   0  0  0  0  0  0  0  0  0  0  0  0
   19.1100    8.4889   -2.2106 C   0  0  0  0  0  0  0  0  0  0  0  0
   16.7740    6.4636   -3.1073 C   0  0  0  0  0  0  0  0  0  0  0  0
   15.9617    5.4509   -2.6659 N   0  0  0  0  0  0  0  0  0  0  0  0
   15.1321    5.5914   -2.0960 H   0  0  0  0  0  0  0  0  0  0  0  0
   16.3464    4.2289   -3.1599 C   0  0  0  0  0  0  0  0  0  0  0  0
   17.4169    4.4979   -4.1078 C   0  0  0  0  0  0  0  0  0  0  0  0
   17.9891    3.5625   -5.1083 C   0  0  0  0  0  0  0  0  0  0  0  0
   19.3733    3.3384   -5.2040 C   0  0  0  0  0  0  0  0  0  0  0  0
   19.8975    2.5082   -6.1970 C   0  0  0  0  0  0  0  0  0  0  0  0
   19.0472    1.8889   -7.1170 C   0  0  0  0  0  0  0  0  0  0  0  0
   17.6684    2.1062   -7.0362 C   0  0  0  0  0  0  0  0  0  0  0  0
   17.1445    2.9344   -6.0418 C   0  0  0  0  0  0  0  0  0  0  0  0
   17.6883    5.8628   -4.0608 C   0  0  0  0  0  0  0  0  0  0  0  0
   18.5664    6.5782   -5.0303 C   0  0  0  0  0  0  0  0  0  0  0  0
   17.9857    7.1376   -6.1822 C   0  0  0  0  0  0  0  0  0  0  0  0
   18.7754    7.7620   -7.1507 C   0  0  0  0  0  0  0  0  0  0  0  0
   20.1607    7.8403   -6.9829 C   0  0  0  0  0  0  0  0  0  0  0  0
   20.7499    7.2880   -5.8422 C   0  0  0  0  0  0  0  0  0  0  0  0
   19.9591    6.6597   -4.8766 C   0  0  0  0  0  0  0  0  0  0  0  0
   15.8335    3.0078   -2.6712 C   0  0  0  0  0  0  0  0  0  0  0  0
   16.5003    1.7217   -3.0221 C   0  0  0  0  0  0  0  0  0  0  0  0
   17.8527    1.4742   -2.7304 C   0  0  0  0  0  0  0  0  0  0  0  0
   18.4476    0.2603   -3.0593 C   0  0  0  0  0  0  0  0  0  0  0  0
   17.6983   -0.7407   -3.7057 C   0  0  0  0  0  0  0  0  0  0  0  0
   18.3099   -1.9920   -4.0547 C   0  0  0  0  0  0  0  0  0  0  0  0
   18.8035   -3.0047   -4.3373 N   0  0  0  0  0  0  0  0  0  0  0  0
   16.3437   -0.5050   -4.0042 C   0  0  0  0  0  0  0  0  0  0  0  0
   15.7577    0.7078   -3.6562 C   0  0  0  0  0  0  0  0  0  0  0  0
   14.6608    2.9369   -1.8522 C   0  0  0  0  0  0  0  0  0  0  0  0
   13.6544    3.8347   -1.9219 N   0  0  0  0  0  0  0  0  0  0  0  0
   12.6271    3.3267   -1.1835 C   0  0  0  0  0  0  0  0  0  0  0  0
   11.3107    3.8540   -1.2566 C   0  0  0  0  0  0  0  0  0  0  0  0
   10.1492    2.9962   -0.8951 C   0  0  0  0  0  0  0  0  0  0  0  0
    9.1987    3.4286    0.0482 C   0  0  0  0  0  0  0  0  0  0  0  0
    8.1167    2.6284    0.3989 C   0  0  0  0  0  0  0  0  0  0  0  0
    7.9472    1.3695   -0.2072 C   0  0  0  0  0  0  0  0  0  0  0  0
    6.8261    0.5432    0.1414 C   0  0  0  0  0  0  0  0  0  0  0  0
    5.9180   -0.1241    0.4231 N   0  0  0  0  0  0  0  0  0  0  0  0
    8.8857    0.9294   -1.1590 C   0  0  0  0  0  0  0  0  0  0  0  0
    9.9732    1.7323   -1.4874 C   0  0  0  0  0  0  0  0  0  0  0  0
   11.0488    5.1835   -1.6895 C   0  0  0  0  0  0  0  0  0  0  0  0
   11.9552    6.2009   -1.5712 N   0  0  0  0  0  0  0  0  0  0  0  0
   12.9219    6.0767   -1.2914 H   0  0  0  0  0  0  0  0  0  0  0  0
   11.4100    7.4147   -1.8971 C   0  0  0  0  0  0  0  0  0  0  0  0
   10.0736    7.1422   -2.3800 C   0  0  0  0  0  0  0  0  0  0  0  0
    9.2064    8.0824   -3.1340 C   0  0  0  0  0  0  0  0  0  0  0  0
    9.6899    8.6624   -4.3217 C   0  0  0  0  0  0  0  0  0  0  0  0
    8.8814    9.5033   -5.0890 C   0  0  0  0  0  0  0  0  0  0  0  0
    7.5737    9.7844   -4.6827 C   0  0  0  0  0  0  0  0  0  0  0  0
    7.0821    9.2185   -3.5033 C   0  0  0  0  0  0  0  0  0  0  0  0
    7.8903    8.3748   -2.7380 C   0  0  0  0  0  0  0  0  0  0  0  0
    9.8482    5.7676   -2.2398 C   0  0  0  0  0  0  0  0  0  0  0  0
    8.7066    5.0160   -2.8271 C   0  0  0  0  0  0  0  0  0  0  0  0
    8.9263    4.2316   -3.9742 C   0  0  0  0  0  0  0  0  0  0  0  0
    7.8724    3.5539   -4.5911 C   0  0  0  0  0  0  0  0  0  0  0  0
    6.5786    3.6435   -4.0696 C   0  0  0  0  0  0  0  0  0  0  0  0
    6.3478    4.4141   -2.9269 C   0  0  0  0  0  0  0  0  0  0  0  0
    7.4020    5.0949   -2.3133 C   0  0  0  0  0  0  0  0  0  0  0  0
   13.0565    2.1099   -0.4651 C   0  0  0  0  0  0  0  0  0  0  0  0
   12.3851    1.4760    0.6959 C   0  0  0  0  0  0  0  0  0  0  0  0
   12.0708    2.2580    1.8240 C   0  0  0  0  0  0  0  0  0  0  0  0
   11.5022    1.6834    2.9623 C   0  0  0  0  0  0  0  0  0  0  0  0
   11.2301    0.3125    2.9965 C   0  0  0  0  0  0  0  0  0  0  0  0
   11.5315   -0.4762    1.8829 C   0  0  0  0  0  0  0  0  0  0  0  0
   12.1042    0.0994    0.7463 C   0  0  0  0  0  0  0  0  0  0  0  0
   14.3397    1.8548   -0.9015 C   0  0  0  0  0  0  0  0  0  0  0  0
   15.3056    0.9014   -0.2944 C   0  0  0  0  0  0  0  0  0  0  0  0
   15.2120   -0.4902   -0.4628 C   0  0  0  0  0  0  0  0  0  0  0  0
   16.1167   -1.3522    0.1628 C   0  0  0  0  0  0  0  0  0  0  0  0
   17.1323   -0.8388    0.9739 C   0  0  0  0  0  0  0  0  0  0  0  0
   17.2388    0.5438    1.1517 C   0  0  0  0  0  0  0  0  0  0  0  0
   16.3366    1.4036    0.5220 C   0  0  0  0  0  0  0  0  0  0  0  0
   10.1560   10.0002   -0.7374 C   0  0  0  0  0  0  0  0  0  0  0  0
    9.4255   11.1807   -0.6593 C   0  0  0  0  0  0  0  0  0  0  0  0
   11.2142   13.0611   -2.8845 H   0  0  0  0  0  0  0  0  0  0  0  0
   12.5191   10.9528   -2.9969 H   0  0  0  0  0  0  0  0  0  0  0  0
   17.0013    8.5490    0.9476 H   0  0  0  0  0  0  0  0  0  0  0  0
   18.8828    9.6061    2.1745 H   0  0  0  0  0  0  0  0  0  0  0  0
   19.7040   11.8665    1.5002 H   0  0  0  0  0  0  0  0  0  0  0  0
   18.6192   13.0529   -0.4072 H   0  0  0  0  0  0  0  0  0  0  0  0
   16.7424   11.9906   -1.6318 H   0  0  0  0  0  0  0  0  0  0  0  0
   14.4931   12.5302   -0.7870 H   0  0  0  0  0  0  0  0  0  0  0  0
   13.7187   14.0842    0.9796 H   0  0  0  0  0  0  0  0  0  0  0  0
   12.4976   13.2110    2.9730 H   0  0  0  0  0  0  0  0  0  0  0  0
   12.0677   10.7594    3.1781 H   0  0  0  0  0  0  0  0  0  0  0  0
   12.8547    9.2059    1.4119 H   0  0  0  0  0  0  0  0  0  0  0  0
   16.8110    9.9508   -4.2529 H   0  0  0  0  0  0  0  0  0  0  0  0
   18.7284   11.4783   -4.6643 H   0  0  0  0  0  0  0  0  0  0  0  0
   21.1245    9.1982   -1.8869 H   0  0  0  0  0  0  0  0  0  0  0  0
   19.2156    7.6522   -1.5172 H   0  0  0  0  0  0  0  0  0  0  0  0
   20.0445    3.8086   -4.4838 H   0  0  0  0  0  0  0  0  0  0  0  0
   20.9766    2.3432   -6.2508 H   0  0  0  0  0  0  0  0  0  0  0  0
   19.4570    1.2393   -7.8944 H   0  0  0  0  0  0  0  0  0  0  0  0
   16.9958    1.6301   -7.7542 H   0  0  0  0  0  0  0  0  0  0  0  0
   16.0671    3.1081   -5.9905 H   0  0  0  0  0  0  0  0  0  0  0  0
   16.9037    7.0718   -6.3207 H   0  0  0  0  0  0  0  0  0  0  0  0
   18.3057    8.1857   -8.0421 H   0  0  0  0  0  0  0  0  0  0  0  0
   20.7802    8.3291   -7.7388 H   0  0  0  0  0  0  0  0  0  0  0  0
   21.8322    7.3464   -5.7022 H   0  0  0  0  0  0  0  0  0  0  0  0
   20.4272    6.2364   -3.9854 H   0  0  0  0  0  0  0  0  0  0  0  0
   18.4396    2.2400   -2.2205 H   0  0  0  0  0  0  0  0  0  0  0  0
   19.4958    0.0770   -2.8168 H   0  0  0  0  0  0  0  0  0  0  0  0
   15.7597   -1.2767   -4.5095 H   0  0  0  0  0  0  0  0  0  0  0  0
   14.7072    0.8873   -3.8942 H   0  0  0  0  0  0  0  0  0  0  0  0
    9.3256    4.4016    0.5270 H   0  0  0  0  0  0  0  0  0  0  0  0
    7.3955    2.9696    1.1439 H   0  0  0  0  0  0  0  0  0  0  0  0
    8.7536   -0.0432   -1.6366 H   0  0  0  0  0  0  0  0  0  0  0  0
   10.6942    1.3871   -2.2307 H   0  0  0  0  0  0  0  0  0  0  0  0
   10.7078    8.4381   -4.6497 H   0  0  0  0  0  0  0  0  0  0  0  0
    9.2742    9.9383   -6.0116 H   0  0  0  0  0  0  0  0  0  0  0  0
    6.9406   10.4437   -5.2817 H   0  0  0  0  0  0  0  0  0  0  0  0
    6.0634    9.4378   -3.1737 H   0  0  0  0  0  0  0  0  0  0  0  0
    7.5020    7.9547   -1.8093 H   0  0  0  0  0  0  0  0  0  0  0  0
    9.9346    4.1655   -4.3901 H   0  0  0  0  0  0  0  0  0  0  0  0
    8.0629    2.9554   -5.4857 H   0  0  0  0  0  0  0  0  0  0  0  0
    5.7530    3.1130   -4.5504 H   0  0  0  0  0  0  0  0  0  0  0  0
    5.3409    4.4838   -2.5076 H   0  0  0  0  0  0  0  0  0  0  0  0
    7.2138    5.6798   -1.4110 H   0  0  0  0  0  0  0  0  0  0  0  0
   12.2923    3.3280    1.8097 H   0  0  0  0  0  0  0  0  0  0  0  0
   11.2749    2.3092    3.8294 H   0  0  0  0  0  0  0  0  0  0  0  0
   10.7835   -0.1388    3.8860 H   0  0  0  0  0  0  0  0  0  0  0  0
   11.3168   -1.5478    1.8968 H   0  0  0  0  0  0  0  0  0  0  0  0
   12.3195   -0.5235   -0.1229 H   0  0  0  0  0  0  0  0  0  0  0  0
   14.4338   -0.9005   -1.1089 H   0  0  0  0  0  0  0  0  0  0  0  0
   16.0285   -2.4312    0.0127 H   0  0  0  0  0  0  0  0  0  0  0  0
   17.8378   -1.5137    1.4649 H   0  0  0  0  0  0  0  0  0  0  0  0
   18.0263    0.9556    1.7885 H   0  0  0  0  0  0  0  0  0  0  0  0
   16.4199    2.4830    0.6717 H   0  0  0  0  0  0  0  0  0  0  0  0
    9.8625    9.1453   -0.1254 H   0  0  0  0  0  0  0  0  0  0  0  0
    8.5608   11.2517    0.0030 H   0  0  0  0  0  0  0  0  0  0  0  0
  1  2  3  0
  2  3  1  0
  3  4  2  0
  3106  1  0
  4  5  1  0
  4107  1  0
  5  6  2  0
  5108  1  0
  6  7  1  0
  6105  1  0
  7  8  1  0
  7 76  2  0
  8  9  2  0
  8 18  1  0
  9 10  1  0
 10 11  1  0
 10 25  2  0
 11 12  1  0
 11 18  2  0
 12 13  2  0
 12 17  1  0
 13 14  1  0
 13109  1  0
 14 15  2  0
 14110  1  0
 15 16  1  0
 15111  1  0
 16 17  2  0
 16112  1  0
 17113  1  0
 18 19  1  0
 19 20  2  0
 19 24  1  0
 20 21  1  0
 20114  1  0
 21 22  2  0
 21115  1  0
 22 23  1  0
 22116  1  0
 23 24  2  0
 23117  1  0
 24118  1  0
 25 26  1  0
 25 34  1  0
 26 27  2  0
 26 33  1  0
 27 28  1  0
 27119  1  0
 28 29  2  0
 28120  1  0
 29 30  1  0
 29 32  1  0
 30 31  3  0
 32 33  2  0
 32121  1  0
 33122  1  0
 34 35  1  0
 34 45  2  0
 35 36  1  0
 35 37  1  0
 37 38  2  0
 37 52  1  0
 38 39  1  0
 38 45  1  0
 39 40  2  0
 39 44  1  0
 40 41  1  0
 40123  1  0
 41 42  2  0
 41124  1  0
 42 43  1  0
 42125  1  0
 43 44  2  0
 43126  1  0
 44127  1  0
 45 46  1  0
 46 47  2  0
 46 51  1  0
 47 48  1  0
 47128  1  0
 48 49  2  0
 48129  1  0
 49 50  1  0
 49130  1  0
 50 51  2  0
 50131  1  0
 51132  1  0
 52 53  1  0
 52 61  2  0
 53 54  2  0
 53 60  1  0
 54 55  1  0
 54133  1  0
 55 56  2  0
 55134  1  0
 56 57  1  0
 56 59  1  0
 57 58  3  0
 59 60  2  0
 59135  1  0
 60136  1  0
 61 62  1  0
 61 98  1  0
 62 63  2  0
 63 64  1  0
 63 91  1  0
 64 65  1  0
 64 73  2  0
 65 66  2  0
 65 72  1  0
 66 67  1  0
 66137  1  0
 67 68  2  0
 67138  1  0
 68 69  1  0
 68 71  1  0
 69 70  3  0
 71 72  2  0
 71139  1  0
 72140  1  0
 73 74  1  0
 73 84  1  0
 74 75  1  0
 74 76  1  0
 76 77  1  0
 77 78  1  0
 77 84  2  0
 78 79  2  0
 78 83  1  0
 79 80  1  0
 79141  1  0
 80 81  2  0
 80142  1  0
 81 82  1  0
 81143  1  0
 82 83  2  0
 82144  1  0
 83145  1  0
 84 85  1  0
 85 86  2  0
 85 90  1  0
 86 87  1  0
 86146  1  0
 87 88  2  0
 87147  1  0
 88 89  1  0
 88148  1  0
 89 90  2  0
 89149  1  0
 90150  1  0
 91 92  1  0
 91 98  2  0
 92 93  2  0
 92 97  1  0
 93 94  1  0
 93151  1  0
 94 95  2  0
 94152  1  0
 95 96  1  0
 95153  1  0
 96 97  2  0
 96154  1  0
 97155  1  0
 98 99  1  0
 99100  2  0
 99104  1  0
100101  1  0
100156  1  0
101102  2  0
101157  1  0
102103  1  0
102158  1  0
103104  2  0
103159  1  0
104160  1  0
105106  2  0
105161  1  0
106162  1  0
M  END

