
     RDKit          3D

 75 84  0  0  0  0  0  0  0  0999 V2000
    1.7542   -0.7767   -0.7705 O   0  0  0  0  0  0  0  0  0  0  0  0
    2.0749    0.0221    0.4721 P   0  0  2  0  0  0  0  0  0  0  0  0
    0.5969   -0.0189    1.5804 C   0  0  0  0  0  0  0  0  0  0  0  0
   -0.5647   -0.6396    1.0993 C   0  0  0  0  0  0  0  0  0  0  0  0
   -1.7149   -0.6961    1.8935 C   0  0  0  0  0  0  0  0  0  0  0  0
   -1.7101   -0.1365    3.1748 C   0  0  0  0  0  0  0  0  0  0  0  0
   -0.5516    0.4800    3.6627 C   0  0  0  0  0  0  0  0  0  0  0  0
    0.5969    0.5389    2.8687 C   0  0  0  0  0  0  0  0  0  0  0  0
    2.5947    1.7468    0.2781 C   0  0  0  0  0  0  0  0  0  0  0  0
    1.9727    2.7452   -0.4650 C   0  0  0  0  0  0  0  0  0  0  0  0
    2.5730    3.9991   -0.5728 C   0  0  0  0  0  0  0  0  0  0  0  0
    1.9371    5.0480   -1.3708 N   0  0  0  0  0  0  0  0  0  0  0  0
    1.0599    5.9142   -0.7299 C   0  0  0  0  0  0  0  0  0  0  0  0
    0.7989    5.7546    0.6572 C   0  0  0  0  0  0  0  0  0  0  0  0
   -0.0711    6.5975    1.3230 C   0  0  0  0  0  0  0  0  0  0  0  0
   -0.7300    7.6449    0.6497 C   0  0  0  0  0  0  0  0  0  0  0  0
   -0.4981    7.8295   -0.7018 C   0  0  0  0  0  0  0  0  0  0  0  0
    0.3859    6.9802   -1.3957 C   0  0  0  0  0  0  0  0  0  0  0  0
    0.5880    7.3234   -3.0892 S   0  0  0  0  0  0  0  0  0  0  0  0
    1.7079    6.0964   -3.6048 C   0  0  0  0  0  0  0  0  0  0  0  0
    2.0548    6.1215   -4.9698 C   0  0  0  0  0  0  0  0  0  0  0  0
    2.9379    5.1891   -5.4846 C   0  0  0  0  0  0  0  0  0  0  0  0
    3.4864    4.2152   -4.6269 C   0  0  0  0  0  0  0  0  0  0  0  0
    3.1573    4.1765   -3.2849 C   0  0  0  0  0  0  0  0  0  0  0  0
    2.2529    5.1165   -2.7225 C   0  0  0  0  0  0  0  0  0  0  0  0
    3.8209    4.2701    0.0631 C   0  0  0  0  0  0  0  0  0  0  0  0
    4.4513    3.2754    0.7918 C   0  0  0  0  0  0  0  0  0  0  0  0
    3.8748    1.9859    0.9208 C   0  0  0  0  0  0  0  0  0  0  0  0
    4.3946    0.8254    1.5871 C   0  0  0  0  0  0  0  0  0  0  0  0
    5.6116    0.6846    2.3016 C   0  0  0  0  0  0  0  0  0  0  0  0
    5.9596   -0.5308    2.8666 C   0  0  0  0  0  0  0  0  0  0  0  0
    5.1163   -1.6686    2.7413 C   0  0  0  0  0  0  0  0  0  0  0  0
    5.5353   -2.9107    3.3361 N   0  0  0  0  0  0  0  0  0  0  0  0
    5.0387   -3.2560    4.6148 C   0  0  0  0  0  0  0  0  0  0  0  0
    3.9139   -2.6097    5.1626 C   0  0  0  0  0  0  0  0  0  0  0  0
    3.4198   -2.9569    6.4225 C   0  0  0  0  0  0  0  0  0  0  0  0
    4.0171   -3.9758    7.1650 C   0  0  0  0  0  0  0  0  0  0  0  0
    5.1317   -4.6317    6.6357 C   0  0  0  0  0  0  0  0  0  0  0  0
    5.6544   -4.2642    5.3921 C   0  0  0  0  0  0  0  0  0  0  0  0
    7.1901   -4.9895    4.8652 S   0  0  0  0  0  0  0  0  0  0  0  0
    6.9582   -4.9106    3.1038 C   0  0  0  0  0  0  0  0  0  0  0  0
    7.6015   -5.8559    2.2993 C   0  0  0  0  0  0  0  0  0  0  0  0
    7.5773   -5.7440    0.9067 C   0  0  0  0  0  0  0  0  0  0  0  0
    6.8824   -4.6817    0.3278 C   0  0  0  0  0  0  0  0  0  0  0  0
    6.2062   -3.7542    1.1242 C   0  0  0  0  0  0  0  0  0  0  0  0
    6.2249   -3.8472    2.5291 C   0  0  0  0  0  0  0  0  0  0  0  0
    3.9139   -1.5548    2.0368 C   0  0  0  0  0  0  0  0  0  0  0  0
    3.5404   -0.3332    1.4724 C   0  0  0  0  0  0  0  0  0  0  0  0
   -0.5366   -1.0803    0.0997 H   0  0  0  0  0  0  0  0  0  0  0  0
   -2.6163   -1.1855    1.5139 H   0  0  0  0  0  0  0  0  0  0  0  0
   -2.6071   -0.1862    3.7982 H   0  0  0  0  0  0  0  0  0  0  0  0
   -0.5429    0.9098    4.6683 H   0  0  0  0  0  0  0  0  0  0  0  0
    1.5032    1.0141    3.2549 H   0  0  0  0  0  0  0  0  0  0  0  0
    1.0238    2.5416   -0.9712 H   0  0  0  0  0  0  0  0  0  0  0  0
    1.2964    4.9482    1.1887 H   0  0  0  0  0  0  0  0  0  0  0  0
   -0.2474    6.4407    2.3889 H   0  0  0  0  0  0  0  0  0  0  0  0
   -1.4166    8.3039    1.1838 H   0  0  0  0  0  0  0  0  0  0  0  0
   -0.9981    8.6339   -1.2465 H   0  0  0  0  0  0  0  0  0  0  0  0
    1.6148    6.8856   -5.6151 H   0  0  0  0  0  0  0  0  0  0  0  0
    3.2025    5.2097   -6.5431 H   0  0  0  0  0  0  0  0  0  0  0  0
    4.1822    3.4723   -5.0216 H   0  0  0  0  0  0  0  0  0  0  0  0
    3.5863    3.4157   -2.6388 H   0  0  0  0  0  0  0  0  0  0  0  0
    4.2792    5.2570   -0.0330 H   0  0  0  0  0  0  0  0  0  0  0  0
    5.4123    3.4945    1.2648 H   0  0  0  0  0  0  0  0  0  0  0  0
    6.2867    1.5381    2.4101 H   0  0  0  0  0  0  0  0  0  0  0  0
    6.8974   -0.6374    3.4161 H   0  0  0  0  0  0  0  0  0  0  0  0
    3.4255   -1.8197    4.5945 H   0  0  0  0  0  0  0  0  0  0  0  0
    2.5490   -2.4255    6.8152 H   0  0  0  0  0  0  0  0  0  0  0  0
    3.6270   -4.2588    8.1455 H   0  0  0  0  0  0  0  0  0  0  0  0
    5.6242   -5.4294    7.1977 H   0  0  0  0  0  0  0  0  0  0  0  0
    8.1424   -6.6750    2.7804 H   0  0  0  0  0  0  0  0  0  0  0  0
    8.0981   -6.4779    0.2874 H   0  0  0  0  0  0  0  0  0  0  0  0
    6.8499   -4.5698   -0.7590 H   0  0  0  0  0  0  0  0  0  0  0  0
    5.6601   -2.9395    0.6510 H   0  0  0  0  0  0  0  0  0  0  0  0
    3.2702   -2.4324    1.9271 H   0  0  0  0  0  0  0  0  0  0  0  0
  1  2  2  0
  2  3  1  1
  2  9  1  0
  2 48  1  0
  3  4  2  0
  3  8  1  0
  4  5  1  0
  4 49  1  0
  5  6  2  0
  5 50  1  0
  6  7  1  0
  6 51  1  0
  7  8  2  0
  7 52  1  0
  8 53  1  0
  9 10  2  0
  9 28  1  0
 10 11  1  0
 10 54  1  0
 11 12  1  0
 11 26  2  0
 12 13  1  0
 12 25  1  0
 13 14  2  0
 13 18  1  0
 14 15  1  0
 14 55  1  0
 15 16  2  0
 15 56  1  0
 16 17  1  0
 16 57  1  0
 17 18  2  0
 17 58  1  0
 18 19  1  0
 19 20  1  0
 20 21  2  0
 20 25  1  0
 21 22  1  0
 21 59  1  0
 22 23  2  0
 22 60  1  0
 23 24  1  0
 23 61  1  0
 24 25  2  0
 24 62  1  0
 26 27  1  0
 26 63  1  0
 27 28  2  0
 27 64  1  0
 28 29  1  0
 29 30  2  0
 29 48  1  0
 30 31  1  0
 30 65  1  0
 31 32  2  0
 31 66  1  0
 32 33  1  0
 32 47  1  0
 33 34  1  0
 33 46  1  0
 34 35  2  0
 34 39  1  0
 35 36  1  0
 35 67  1  0
 36 37  2  0
 36 68  1  0
 37 38  1  0
 37 69  1  0
 38 39  2  0
 38 70  1  0
 39 40  1  0
 40 41  1  0
 41 42  2  0
 41 46  1  0
 42 43  1  0
 42 71  1  0
 43 44  2  0
 43 72  1  0
 44 45  1  0
 44 73  1  0
 45 46  2  0
 45 74  1  0
 47 48  2  0
 47 75  1  0
M  END

