
     RDKit          3D

 38 39  0  0  0  0  0  0  0  0999 V2000
    2.6979   -0.1483   -2.1884 O   0  0  0  0  0  0  0  0  0  0  0  0
    2.7179   -0.5064   -1.0353 C   0  0  0  0  0  0  0  0  0  0  0  0
    2.2872   -1.7147   -0.5668 N   0  0  0  0  0  0  0  0  0  0  0  0
    1.7479   -2.7251   -1.4520 C   0  0  1  0  0  0  0  0  0  0  0  0
    2.3418   -4.1310   -1.2070 C   0  0  0  0  0  0  0  0  0  0  0  0
    1.4474   -4.7361   -0.1185 C   0  0  0  0  0  0  0  0  0  0  0  0
    0.1842   -4.0439   -0.2440 N   0  0  0  0  0  0  0  0  0  0  0  0
   -1.0286   -4.3897    0.5768 C   0  0  0  0  0  0  0  0  0  0  0  0
   -0.8547   -5.4824    1.5529 C   0  0  0  0  0  0  0  0  0  0  0  0
   -0.2920   -5.2212    2.8628 C   0  0  0  0  0  0  0  0  0  0  0  0
    0.1132   -6.2528    3.6824 C   0  0  0  0  0  0  0  0  0  0  0  0
    0.0146   -7.6182    3.2679 C   0  0  0  0  0  0  0  0  0  0  0  0
   -0.5537   -7.8880    1.9851 C   0  0  0  0  0  0  0  0  0  0  0  0
   -0.9666   -6.8714    1.1496 C   0  0  0  0  0  0  0  0  0  0  0  0
    0.2401   -2.9791   -1.2185 C   0  0  0  0  0  0  0  0  0  0  0  0
    3.1970    0.2344    0.0041 O   0  0  0  0  0  0  0  0  0  0  0  0
    3.5720    1.5704   -0.2753 C   0  0  0  0  0  0  0  0  0  0  0  0
    2.5064    2.5249    0.2417 C   0  0  1  0  0  0  0  0  0  0  0  0
    1.3159    2.2764   -0.3247 F   0  0  0  0  0  0  0  0  0  0  0  0
    2.3530    2.4284    1.5686 F   0  0  0  0  0  0  0  0  0  0  0  0
    2.8557    3.7867   -0.0469 F   0  0  0  0  0  0  0  0  0  0  0  0
    2.3562   -1.8760    0.4326 H   0  0  0  0  0  0  0  0  0  0  0  0
    1.9307   -2.3609   -2.4705 H   0  0  0  0  0  0  0  0  0  0  0  0
    3.4014   -4.0910   -0.9234 H   0  0  0  0  0  0  0  0  0  0  0  0
    2.2648   -4.7244   -2.1312 H   0  0  0  0  0  0  0  0  0  0  0  0
    1.8032   -4.5778    0.9160 H   0  0  0  0  0  0  0  0  0  0  0  0
    1.2695   -5.8205   -0.1708 H   0  0  0  0  0  0  0  0  0  0  0  0
   -1.8004   -4.5899   -0.1930 H   0  0  0  0  0  0  0  0  0  0  0  0
   -1.3047   -3.4195    1.0355 H   0  0  0  0  0  0  0  0  0  0  0  0
   -0.2291   -4.1877    3.2262 H   0  0  0  0  0  0  0  0  0  0  0  0
    0.4973   -6.0209    4.6816 H   0  0  0  0  0  0  0  0  0  0  0  0
    0.3454   -8.4284    3.9180 H   0  0  0  0  0  0  0  0  0  0  0  0
   -0.6857   -8.9271    1.6646 H   0  0  0  0  0  0  0  0  0  0  0  0
   -1.4263   -7.1193    0.1850 H   0  0  0  0  0  0  0  0  0  0  0  0
   -0.3261   -2.1015   -0.8718 H   0  0  0  0  0  0  0  0  0  0  0  0
   -0.2463   -3.3347   -2.1489 H   0  0  0  0  0  0  0  0  0  0  0  0
    3.6924    1.7242   -1.3566 H   0  0  0  0  0  0  0  0  0  0  0  0
    4.5152    1.7807    0.2479 H   0  0  0  0  0  0  0  0  0  0  0  0
  1  2  2  0
  2  3  1  0
  2 16  1  0
  3  4  1  0
  3 22  1  0
  4  5  1  0
  4 15  1  0
  4 23  1  6
  5  6  1  0
  5 24  1  0
  5 25  1  0
  6  7  1  0
  6 26  1  0
  6 27  1  0
  7  8  1  0
  7 15  1  0
  8  9  1  0
  8 28  1  0
  8 29  1  0
  9 10  2  0
  9 14  1  0
 10 11  1  0
 10 30  1  0
 11 12  2  0
 11 31  1  0
 12 13  1  0
 12 32  1  0
 13 14  2  0
 13 33  1  0
 14 34  1  0
 15 35  1  0
 15 36  1  0
 16 17  1  0
 17 18  1  0
 17 37  1  0
 17 38  1  0
 18 19  1  6
 18 20  1  0
 18 21  1  0
M  END

