
     RDKit          3D

 39 40  0  0  0  0  0  0  0  0999 V2000
    0.9401   -0.6092   -0.4377 C   0  0  0  0  0  0  0  0  0  0  0  0
    2.3627   -0.4797   -0.3381 O   0  0  0  0  0  0  0  0  0  0  0  0
    3.0918   -1.4673   -0.8601 C   0  0  0  0  0  0  0  0  0  0  0  0
    2.6327   -2.4450   -1.4025 O   0  0  0  0  0  0  0  0  0  0  0  0
    4.5753   -1.2077   -0.6869 C   0  0  0  0  0  0  0  0  0  0  0  0
    5.3186   -2.2966   -1.2692 N   0  0  0  0  0  0  0  0  0  0  0  0
    6.6754   -2.3426   -1.2225 C   0  0  0  0  0  0  0  0  0  0  0  0
    7.3456   -1.4544   -0.7190 O   0  0  0  0  0  0  0  0  0  0  0  0
    7.3076   -3.6008   -1.8190 C   0  0  0  0  0  0  0  0  0  0  0  0
    8.7482   -3.3393   -2.2484 C   0  0  0  0  0  0  0  0  0  0  0  0
    9.3995   -4.5690   -2.6484 N   0  0  0  0  0  0  0  0  0  0  0  0
   10.7329   -4.7707   -2.8239 C   0  0  0  0  0  0  0  0  0  0  0  0
   11.6616   -3.7032   -2.6124 C   0  0  0  0  0  0  0  0  0  0  0  0
   13.0032   -3.9052   -2.9004 C   0  0  0  0  0  0  0  0  0  0  0  0
   13.4198   -5.1529   -3.3963 C   0  0  0  0  0  0  0  0  0  0  0  0
   12.5268   -6.2515   -3.5986 C   0  0  0  0  0  0  0  0  0  0  0  0
   12.9882   -7.5043   -4.1120 C   0  0  0  0  0  0  0  0  0  0  0  0
   12.0606   -8.5676   -4.2782 C   0  0  0  0  0  0  0  0  0  0  0  0
   10.7317   -8.4150   -3.9233 C   0  0  0  0  0  0  0  0  0  0  0  0
   10.2462   -7.1792   -3.3939 C   0  0  0  0  0  0  0  0  0  0  0  0
   11.1570   -6.0814   -3.2630 C   0  0  0  0  0  0  0  0  0  0  0  0
    0.5203    0.2837    0.0402 H   0  0  0  0  0  0  0  0  0  0  0  0
    0.5963   -1.5180    0.0781 H   0  0  0  0  0  0  0  0  0  0  0  0
    0.6284   -0.6627   -1.4914 H   0  0  0  0  0  0  0  0  0  0  0  0
    4.7976   -1.0839    0.3880 H   0  0  0  0  0  0  0  0  0  0  0  0
    4.8284   -0.2388   -1.1528 H   0  0  0  0  0  0  0  0  0  0  0  0
    4.7667   -3.0409   -1.6868 H   0  0  0  0  0  0  0  0  0  0  0  0
    6.7011   -3.9747   -2.6617 H   0  0  0  0  0  0  0  0  0  0  0  0
    7.2948   -4.3871   -1.0431 H   0  0  0  0  0  0  0  0  0  0  0  0
    9.2853   -2.8807   -1.4061 H   0  0  0  0  0  0  0  0  0  0  0  0
    8.7682   -2.5956   -3.0691 H   0  0  0  0  0  0  0  0  0  0  0  0
    8.8102   -5.3082   -3.0246 H   0  0  0  0  0  0  0  0  0  0  0  0
   11.3097   -2.7363   -2.2526 H   0  0  0  0  0  0  0  0  0  0  0  0
   13.7277   -3.1025   -2.7500 H   0  0  0  0  0  0  0  0  0  0  0  0
   14.4781   -5.3050   -3.6267 H   0  0  0  0  0  0  0  0  0  0  0  0
   14.0405   -7.6264   -4.3724 H   0  0  0  0  0  0  0  0  0  0  0  0
   12.4053   -9.5219   -4.6865 H   0  0  0  0  0  0  0  0  0  0  0  0
   10.0373   -9.2518   -4.0411 H   0  0  0  0  0  0  0  0  0  0  0  0
    9.2353   -7.1385   -2.9839 H   0  0  0  0  0  0  0  0  0  0  0  0
  1  2  1  0
  1 22  1  0
  1 23  1  0
  1 24  1  0
  2  3  1  0
  3  4  2  0
  3  5  1  0
  5  6  1  0
  5 25  1  0
  5 26  1  0
  6  7  1  0
  6 27  1  0
  7  8  2  0
  7  9  1  0
  9 10  1  0
  9 28  1  0
  9 29  1  0
 10 11  1  0
 10 30  1  0
 10 31  1  0
 11 12  1  0
 11 32  1  0
 12 13  2  0
 12 21  1  0
 13 14  1  0
 13 33  1  0
 14 15  2  0
 14 34  1  0
 15 16  1  0
 15 35  1  0
 16 17  1  0
 16 21  2  0
 17 18  2  0
 17 36  1  0
 18 19  1  0
 18 37  1  0
 19 20  2  0
 19 38  1  0
 20 21  1  0
 20 39  1  0
M  END

