
     RDKit          3D

 55 57  0  0  0  0  0  0  0  0999 V2000
    0.7865    1.5814    0.3422 C   0  0  0  0  0  0  0  0  0  0  0  0
    1.7286    0.4718   -0.0951 C   0  0  0  0  0  0  0  0  0  0  0  0
    2.6917    0.9372   -1.0557 O   0  0  0  0  0  0  0  0  0  0  0  0
    2.3211    0.9251   -2.3686 C   0  0  0  0  0  0  0  0  0  0  0  0
    1.2382    0.5347   -2.7462 O   0  0  0  0  0  0  0  0  0  0  0  0
    3.4010    1.4358   -3.2105 C   0  0  0  0  0  0  0  0  0  0  0  0
    4.6040    1.8517   -2.6564 N   0  0  0  0  0  0  0  0  0  0  0  0
    4.7879    1.8211   -1.6607 H   0  0  0  0  0  0  0  0  0  0  0  0
    5.4574    2.2834   -3.6096 C   0  0  0  0  0  0  0  0  0  0  0  0
    6.8229    2.7851   -3.2665 C   0  0  0  0  0  0  0  0  0  0  0  0
    4.7904    2.1459   -4.8438 C   0  0  0  0  0  0  0  0  0  0  0  0
    5.3127    2.4750   -6.1732 C   0  0  0  0  0  0  0  0  0  0  0  0
    4.7219    2.2986   -7.2200 O   0  0  0  0  0  0  0  0  0  0  0  0
    6.5573    3.0152   -6.1195 O   0  0  0  0  0  0  0  0  0  0  0  0
    7.1799    3.3418   -7.3770 C   0  0  0  0  0  0  0  0  0  0  0  0
    7.8918    2.1647   -7.9852 C   0  0  0  0  0  0  0  0  0  0  0  0
    7.3024    1.1996   -8.7696 C   0  0  0  0  0  0  0  0  0  0  0  0
    8.4675    0.0194   -9.2314 S   0  0  0  0  0  0  0  0  0  0  0  0
    9.6959    0.9097   -8.3136 C   0  0  0  0  0  0  0  0  0  0  0  0
   11.0809    0.4052   -8.2529 C   0  0  0  0  0  0  0  0  0  0  0  0
   11.3221   -0.9833   -8.2265 C   0  0  0  0  0  0  0  0  0  0  0  0
   12.6189   -1.4907   -8.1945 C   0  0  0  0  0  0  0  0  0  0  0  0
   13.7087   -0.6178   -8.1650 C   0  0  0  0  0  0  0  0  0  0  0  0
   13.4983    0.7633   -8.1827 C   0  0  0  0  0  0  0  0  0  0  0  0
   14.5827    1.5980   -8.1961 O   0  0  0  0  0  0  0  0  0  0  0  0
   14.7872    2.3899   -7.0304 C   0  0  0  0  0  0  0  0  0  0  0  0
   12.1871    1.2870   -8.2421 C   0  0  0  0  0  0  0  0  0  0  0  0
   12.0066    2.6376   -8.2826 O   0  0  0  0  0  0  0  0  0  0  0  0
   12.2970    3.2670   -9.5253 C   0  0  0  0  0  0  0  0  0  0  0  0
    9.2294    1.9847   -7.7440 N   0  0  0  0  0  0  0  0  0  0  0  0
    3.4853    1.6069   -4.5907 C   0  0  0  0  0  0  0  0  0  0  0  0
    2.4267    1.2918   -5.6009 C   0  0  0  0  0  0  0  0  0  0  0  0
    0.1111    1.2123    1.1309 H   0  0  0  0  0  0  0  0  0  0  0  0
    0.1708    1.9232   -0.5028 H   0  0  0  0  0  0  0  0  0  0  0  0
    1.3465    2.4406    0.7435 H   0  0  0  0  0  0  0  0  0  0  0  0
    1.1681   -0.3676   -0.5320 H   0  0  0  0  0  0  0  0  0  0  0  0
    2.3287    0.1011    0.7493 H   0  0  0  0  0  0  0  0  0  0  0  0
    7.0161    2.6843   -2.1875 H   0  0  0  0  0  0  0  0  0  0  0  0
    6.9379    3.8435   -3.5462 H   0  0  0  0  0  0  0  0  0  0  0  0
    7.5979    2.2344   -3.8194 H   0  0  0  0  0  0  0  0  0  0  0  0
    7.9164    4.1190   -7.1391 H   0  0  0  0  0  0  0  0  0  0  0  0
    6.4154    3.7340   -8.0602 H   0  0  0  0  0  0  0  0  0  0  0  0
    6.2558    1.1357   -9.0611 H   0  0  0  0  0  0  0  0  0  0  0  0
   10.4714   -1.6684   -8.2176 H   0  0  0  0  0  0  0  0  0  0  0  0
   12.7816   -2.5707   -8.1744 H   0  0  0  0  0  0  0  0  0  0  0  0
   14.7373   -0.9824   -8.1275 H   0  0  0  0  0  0  0  0  0  0  0  0
   15.6907    2.9890   -7.2108 H   0  0  0  0  0  0  0  0  0  0  0  0
   14.9532    1.7507   -6.1446 H   0  0  0  0  0  0  0  0  0  0  0  0
   13.9340    3.0597   -6.8385 H   0  0  0  0  0  0  0  0  0  0  0  0
   12.1002    4.3395   -9.3895 H   0  0  0  0  0  0  0  0  0  0  0  0
   11.6405    2.8824  -10.3257 H   0  0  0  0  0  0  0  0  0  0  0  0
   13.3502    3.1205   -9.8170 H   0  0  0  0  0  0  0  0  0  0  0  0
    2.7944    0.5537   -6.3307 H   0  0  0  0  0  0  0  0  0  0  0  0
    2.1699    2.1871   -6.1883 H   0  0  0  0  0  0  0  0  0  0  0  0
    1.5265    0.9037   -5.1098 H   0  0  0  0  0  0  0  0  0  0  0  0
  1  2  1  0
  1 33  1  0
  1 34  1  0
  1 35  1  0
  2  3  1  0
  2 36  1  0
  2 37  1  0
  3  4  1  0
  4  5  2  0
  4  6  1  0
  6  7  1  0
  6 31  2  0
  7  8  1  0
  7  9  1  0
  9 10  1  0
  9 11  2  0
 10 38  1  0
 10 39  1  0
 10 40  1  0
 11 12  1  0
 11 31  1  0
 12 13  2  0
 12 14  1  0
 14 15  1  0
 15 16  1  0
 15 41  1  0
 15 42  1  0
 16 17  2  0
 16 30  1  0
 17 18  1  0
 17 43  1  0
 18 19  1  0
 19 20  1  0
 19 30  2  0
 20 21  2  0
 20 27  1  0
 21 22  1  0
 21 44  1  0
 22 23  2  0
 22 45  1  0
 23 24  1  0
 23 46  1  0
 24 25  1  0
 24 27  2  0
 25 26  1  0
 26 47  1  0
 26 48  1  0
 26 49  1  0
 27 28  1  0
 28 29  1  0
 29 50  1  0
 29 51  1  0
 29 52  1  0
 31 32  1  0
 32 53  1  0
 32 54  1  0
 32 55  1  0
M  END

