
     RDKit          3D

 34 36  0  0  0  0  0  0  0  0999 V2000
    1.2004   -0.6495    1.3025 O   0  0  0  0  0  0  0  0  0  0  0  0
    2.2060   -0.4517    0.6451 C   0  0  0  0  0  0  0  0  0  0  0  0
    2.8286    0.8515    0.3020 C   0  0  0  0  0  0  0  0  0  0  0  0
    2.4830    2.1305    0.6284 C   0  0  0  0  0  0  0  0  0  0  0  0
    1.4190    2.7604    1.4020 C   0  0  0  0  0  0  0  0  0  0  0  0
    0.3569    2.0954    2.0607 C   0  0  0  0  0  0  0  0  0  0  0  0
   -0.6019    2.8127    2.7706 C   0  0  0  0  0  0  0  0  0  0  0  0
   -0.5141    4.2033    2.8335 C   0  0  0  0  0  0  0  0  0  0  0  0
   -1.4369    4.8870    3.5169 F   0  0  0  0  0  0  0  0  0  0  0  0
    0.5149    4.8983    2.1989 C   0  0  0  0  0  0  0  0  0  0  0  0
    1.4680    4.1742    1.4912 C   0  0  0  0  0  0  0  0  0  0  0  0
    4.2620    0.5535   -0.7106 S   0  0  0  0  0  0  0  0  0  0  0  0
    4.0446   -1.1948   -0.6778 C   0  0  0  0  0  0  0  0  0  0  0  0
    5.0398   -2.2238   -1.4889 S   0  0  0  0  0  0  0  0  0  0  0  0
    2.9429   -1.5107    0.0886 N   0  0  0  0  0  0  0  0  0  0  0  0
    2.4977   -2.8983    0.3189 C   0  0  0  0  0  0  0  0  0  0  0  0
    3.0327   -3.5114    1.6003 C   0  0  0  0  0  0  0  0  0  0  0  0
    2.3391   -3.3511    2.8112 C   0  0  0  0  0  0  0  0  0  0  0  0
    2.8301   -3.9181    3.9902 C   0  0  0  0  0  0  0  0  0  0  0  0
    4.0191   -4.6536    3.9748 C   0  0  0  0  0  0  0  0  0  0  0  0
    4.7139   -4.8211    2.7734 C   0  0  0  0  0  0  0  0  0  0  0  0
    4.2241   -4.2544    1.5935 C   0  0  0  0  0  0  0  0  0  0  0  0
    3.1698    2.8770    0.2114 H   0  0  0  0  0  0  0  0  0  0  0  0
    0.2953    1.0103    2.0072 H   0  0  0  0  0  0  0  0  0  0  0  0
   -1.4239    2.3064    3.2804 H   0  0  0  0  0  0  0  0  0  0  0  0
    0.5536    5.9869    2.2678 H   0  0  0  0  0  0  0  0  0  0  0  0
    2.2771    4.7133    0.9917 H   0  0  0  0  0  0  0  0  0  0  0  0
    2.8257   -3.4748   -0.5554 H   0  0  0  0  0  0  0  0  0  0  0  0
    1.4008   -2.8631    0.3430 H   0  0  0  0  0  0  0  0  0  0  0  0
    1.4131   -2.7722    2.8248 H   0  0  0  0  0  0  0  0  0  0  0  0
    2.2791   -3.7870    4.9252 H   0  0  0  0  0  0  0  0  0  0  0  0
    4.4015   -5.0987    4.8971 H   0  0  0  0  0  0  0  0  0  0  0  0
    5.6418   -5.3986    2.7526 H   0  0  0  0  0  0  0  0  0  0  0  0
    4.7707   -4.3828    0.6564 H   0  0  0  0  0  0  0  0  0  0  0  0
  1  2  2  0
  2  3  1  0
  2 15  1  0
  3  4  2  0
  3 12  1  0
  4  5  1  0
  4 23  1  0
  5  6  2  0
  5 11  1  0
  6  7  1  0
  6 24  1  0
  7  8  2  0
  7 25  1  0
  8  9  1  0
  8 10  1  0
 10 11  2  0
 10 26  1  0
 11 27  1  0
 12 13  1  0
 13 14  2  0
 13 15  1  0
 15 16  1  0
 16 17  1  0
 16 28  1  0
 16 29  1  0
 17 18  2  0
 17 22  1  0
 18 19  1  0
 18 30  1  0
 19 20  2  0
 19 31  1  0
 20 21  1  0
 20 32  1  0
 21 22  2  0
 21 33  1  0
 22 34  1  0
M  END

