
     RDKit          3D

 60 62  0  0  0  0  0  0  0  0999 V2000
    2.5748    1.7605    0.9814 C   0  0  0  0  0  0  0  0  0  0  0  0
    2.7825    0.4211    0.2958 C   0  0  0  0  0  0  0  0  0  0  0  0
    3.3907   -0.5414    1.1827 O   0  0  0  0  0  0  0  0  0  0  0  0
    4.7305   -0.5620    1.2531 C   0  0  0  0  0  0  0  0  0  0  0  0
    5.4689    0.1685    0.6469 O   0  0  0  0  0  0  0  0  0  0  0  0
    5.1730   -1.6664    2.2101 C   0  0  0  0  0  0  0  0  0  0  0  0
    6.6044   -1.7092    2.3894 N   0  0  0  0  0  0  0  0  0  0  0  0
    7.3756   -2.6022    1.6868 C   0  0  0  0  0  0  0  0  0  0  0  0
    6.8474   -3.4699    0.8817 N   0  0  0  0  0  0  0  0  0  0  0  0
    7.6790   -4.3574    0.2113 C   0  0  0  0  0  0  0  0  0  0  0  0
    8.9066   -4.3427    0.3578 O   0  0  0  0  0  0  0  0  0  0  0  0
    6.9213   -5.2765   -0.6600 C   0  0  0  0  0  0  0  0  0  0  0  0
    7.3041   -6.2778   -1.4991 C   0  0  0  0  0  0  0  0  0  0  0  0
    8.5723   -6.8802   -1.9133 C   0  0  0  0  0  0  0  0  0  0  0  0
    8.4855   -7.9315   -2.8549 C   0  0  0  0  0  0  0  0  0  0  0  0
    9.6368   -8.5698   -3.3266 C   0  0  0  0  0  0  0  0  0  0  0  0
    9.6419   -9.5750   -4.2387 O   0  0  0  0  0  0  0  0  0  0  0  0
    8.4161  -10.0487   -4.7413 C   0  0  0  0  0  0  0  0  0  0  0  0
   10.9059   -8.1791   -2.8456 C   0  0  0  0  0  0  0  0  0  0  0  0
   12.0084   -8.8552   -3.2627 O   0  0  0  0  0  0  0  0  0  0  0  0
   12.8770   -8.1761   -4.1565 C   0  0  0  0  0  0  0  0  0  0  0  0
   10.9915   -7.1262   -1.9077 C   0  0  0  0  0  0  0  0  0  0  0  0
   12.2474   -6.8099   -1.4997 O   0  0  0  0  0  0  0  0  0  0  0  0
   12.4113   -5.7960   -0.5289 C   0  0  0  0  0  0  0  0  0  0  0  0
    9.8395   -6.4842   -1.4440 C   0  0  0  0  0  0  0  0  0  0  0  0
    9.1033   -2.3824    2.0742 S   0  0  0  0  0  0  0  0  0  0  0  0
    8.6989   -1.0548    3.1712 C   0  0  0  0  0  0  0  0  0  0  0  0
    9.5740   -0.2863    3.9300 C   0  0  0  0  0  0  0  0  0  0  0  0
    9.0560    0.7366    4.7433 C   0  0  0  0  0  0  0  0  0  0  0  0
    9.9707    1.4449    5.4549 O   0  0  0  0  0  0  0  0  0  0  0  0
    9.5373    2.4921    6.2919 C   0  0  0  0  0  0  0  0  0  0  0  0
    7.6695    0.9711    4.7790 C   0  0  0  0  0  0  0  0  0  0  0  0
    6.7947    0.1930    4.0112 C   0  0  0  0  0  0  0  0  0  0  0  0
    7.3101   -0.8238    3.2082 C   0  0  0  0  0  0  0  0  0  0  0  0
    2.0400    2.4468    0.3054 H   0  0  0  0  0  0  0  0  0  0  0  0
    3.5394    2.2221    1.2402 H   0  0  0  0  0  0  0  0  0  0  0  0
    1.9758    1.6464    1.8984 H   0  0  0  0  0  0  0  0  0  0  0  0
    3.4151    0.5280   -0.5974 H   0  0  0  0  0  0  0  0  0  0  0  0
    1.8247   -0.0346    0.0065 H   0  0  0  0  0  0  0  0  0  0  0  0
    4.8588   -2.6303    1.7859 H   0  0  0  0  0  0  0  0  0  0  0  0
    4.6632   -1.5384    3.1776 H   0  0  0  0  0  0  0  0  0  0  0  0
    5.8460   -5.0916   -0.6023 H   0  0  0  0  0  0  0  0  0  0  0  0
    6.4521   -6.7568   -1.9968 H   0  0  0  0  0  0  0  0  0  0  0  0
    7.5037   -8.2317   -3.2199 H   0  0  0  0  0  0  0  0  0  0  0  0
    8.6575  -10.8594   -5.4423 H   0  0  0  0  0  0  0  0  0  0  0  0
    7.8580   -9.2633   -5.2840 H   0  0  0  0  0  0  0  0  0  0  0  0
    7.7686  -10.4512   -3.9407 H   0  0  0  0  0  0  0  0  0  0  0  0
   13.6849   -8.8783   -4.4067 H   0  0  0  0  0  0  0  0  0  0  0  0
   13.3120   -7.2749   -3.6943 H   0  0  0  0  0  0  0  0  0  0  0  0
   12.3508   -7.8930   -5.0860 H   0  0  0  0  0  0  0  0  0  0  0  0
   13.4906   -5.7193   -0.3406 H   0  0  0  0  0  0  0  0  0  0  0  0
   11.8946   -6.0461    0.4137 H   0  0  0  0  0  0  0  0  0  0  0  0
   12.0332   -4.8212   -0.8831 H   0  0  0  0  0  0  0  0  0  0  0  0
    9.8926   -5.6770   -0.7181 H   0  0  0  0  0  0  0  0  0  0  0  0
   10.6527   -0.4509    3.9127 H   0  0  0  0  0  0  0  0  0  0  0  0
   10.4380    2.9125    6.7590 H   0  0  0  0  0  0  0  0  0  0  0  0
    8.8589    2.1315    7.0866 H   0  0  0  0  0  0  0  0  0  0  0  0
    9.0253    3.2898    5.7232 H   0  0  0  0  0  0  0  0  0  0  0  0
    7.2550    1.7646    5.4000 H   0  0  0  0  0  0  0  0  0  0  0  0
    5.7239    0.3996    4.0457 H   0  0  0  0  0  0  0  0  0  0  0  0
  1  2  1  0
  1 35  1  0
  1 36  1  0
  1 37  1  0
  2  3  1  0
  2 38  1  0
  2 39  1  0
  3  4  1  0
  4  5  2  0
  4  6  1  0
  6  7  1  0
  6 40  1  0
  6 41  1  0
  7  8  1  0
  7 34  1  0
  8  9  2  0
  8 26  1  0
  9 10  1  0
 10 11  2  0
 10 12  1  0
 12 13  2  0
 12 42  1  0
 13 14  1  0
 13 43  1  0
 14 15  2  0
 14 25  1  0
 15 16  1  0
 15 44  1  0
 16 17  1  0
 16 19  2  0
 17 18  1  0
 18 45  1  0
 18 46  1  0
 18 47  1  0
 19 20  1  0
 19 22  1  0
 20 21  1  0
 21 48  1  0
 21 49  1  0
 21 50  1  0
 22 23  1  0
 22 25  2  0
 23 24  1  0
 24 51  1  0
 24 52  1  0
 24 53  1  0
 25 54  1  0
 26 27  1  0
 27 28  1  0
 27 34  2  0
 28 29  2  0
 28 55  1  0
 29 30  1  0
 29 32  1  0
 30 31  1  0
 31 56  1  0
 31 57  1  0
 31 58  1  0
 32 33  2  0
 32 59  1  0
 33 34  1  0
 33 60  1  0
M  END

