
     RDKit          3D

 27 29  0  0  0  0  0  0  0  0999 V2000
    1.1653   -0.3240    0.0715 C   0  0  0  0  0  0  0  0  0  0  0  0
    2.6642   -0.1509    0.0152 C   0  0  0  0  0  0  0  0  0  0  0  0
    3.5321   -1.2560    0.0619 C   0  0  0  0  0  0  0  0  0  0  0  0
    4.9318   -1.1392    0.0094 C   0  0  0  0  0  0  0  0  0  0  0  0
    5.4674    0.1402   -0.0918 C   0  0  0  0  0  0  0  0  0  0  0  0
    4.6183    1.2667   -0.1408 C   0  0  0  0  0  0  0  0  0  0  0  0
    3.2347    1.1304   -0.0888 C   0  0  0  0  0  0  0  0  0  0  0  0
    5.4668    2.4668   -0.2364 C   0  0  0  0  0  0  0  0  0  0  0  0
    5.1764    3.6348   -0.3074 O   0  0  0  0  0  0  0  0  0  0  0  0
    6.9349    1.9181   -0.2258 C   0  0  0  0  0  0  0  0  0  0  0  0
    7.9604    2.5519   -0.2606 O   0  0  0  0  0  0  0  0  0  0  0  0
    6.8206    0.5340   -0.1525 N   0  0  0  0  0  0  0  0  0  0  0  0
    7.9747   -0.3437   -0.0628 C   0  0  0  0  0  0  0  0  0  0  0  0
    8.1863   -1.2299   -1.2636 C   0  0  0  0  0  0  0  0  0  0  0  0
    7.7657   -2.5321   -1.2445 N   0  0  0  0  0  0  0  0  0  0  0  0
    7.9815   -3.2138   -2.2939 N   0  0  0  0  0  0  0  0  0  0  0  0
    8.7810   -2.2562   -3.5044 S   0  0  0  0  0  0  0  0  0  0  0  0
    8.7846   -0.8885   -2.4648 C   0  0  0  0  0  0  0  0  0  0  0  0
    9.4446    0.6340   -2.8814 Cl  0  0  0  0  0  0  0  0  0  0  0  0
    0.8832   -1.3841    0.1494 H   0  0  0  0  0  0  0  0  0  0  0  0
    0.6799    0.0869   -0.8293 H   0  0  0  0  0  0  0  0  0  0  0  0
    0.7328    0.2032    0.9381 H   0  0  0  0  0  0  0  0  0  0  0  0
    3.1014   -2.2584    0.1386 H   0  0  0  0  0  0  0  0  0  0  0  0
    5.5655   -2.0272    0.0274 H   0  0  0  0  0  0  0  0  0  0  0  0
    2.6085    2.0263   -0.1281 H   0  0  0  0  0  0  0  0  0  0  0  0
    7.8855   -0.9912    0.8239 H   0  0  0  0  0  0  0  0  0  0  0  0
    8.8411    0.3200    0.0716 H   0  0  0  0  0  0  0  0  0  0  0  0
  1  2  1  0
  1 20  1  0
  1 21  1  0
  1 22  1  0
  2  3  2  0
  2  7  1  0
  3  4  1  0
  3 23  1  0
  4  5  2  0
  4 24  1  0
  5  6  1  0
  5 12  1  0
  6  7  2  0
  6  8  1  0
  7 25  1  0
  8  9  2  0
  8 10  1  0
 10 11  2  0
 10 12  1  0
 12 13  1  0
 13 14  1  0
 13 26  1  0
 13 27  1  0
 14 15  1  0
 14 18  2  0
 15 16  2  0
 16 17  1  0
 17 18  1  0
 18 19  1  0
M  END

