
     RDKit          3D

 37 39  0  0  0  0  0  0  0  0999 V2000
    1.7538    0.0667    0.8264 C   0  0  0  0  0  0  0  0  0  0  0  0
    2.9506   -0.1478    0.0988 O   0  0  0  0  0  0  0  0  0  0  0  0
    3.7301   -1.1852    0.5290 C   0  0  0  0  0  0  0  0  0  0  0  0
    3.4019   -1.8743    1.4809 O   0  0  0  0  0  0  0  0  0  0  0  0
    4.9462   -1.3487   -0.2640 C   0  0  0  0  0  0  0  0  0  0  0  0
    5.2808   -0.5155   -1.3697 C   0  0  0  0  0  0  0  0  0  0  0  0
    6.4379   -0.7119   -2.0868 C   0  0  0  0  0  0  0  0  0  0  0  0
    7.3584   -1.7660   -1.7473 C   0  0  0  0  0  0  0  0  0  0  0  0
    8.5197   -1.9086   -2.5378 C   0  0  0  0  0  0  0  0  0  0  0  0
    8.9313   -1.2957   -3.5188 O   0  0  0  0  0  0  0  0  0  0  0  0
    9.4383   -3.0885   -2.1489 N   0  0  0  0  0  0  0  0  0  0  0  0
   10.5790   -3.0115   -1.4855 C   0  0  0  0  0  0  0  0  0  0  0  0
   10.9482   -1.7619   -0.7892 C   0  0  0  0  0  0  0  0  0  0  0  0
   12.0375   -1.5970   -0.1096 N   0  0  0  0  0  0  0  0  0  0  0  0
   12.8912   -2.6599   -0.0423 C   0  0  0  0  0  0  0  0  0  0  0  0
   14.0450   -2.6552    0.6115 N   0  0  0  0  0  0  0  0  0  0  0  0
   14.5435   -3.8946    0.4015 N   0  0  0  0  0  0  0  0  0  0  0  0
   15.4414   -4.1264    0.8166 H   0  0  0  0  0  0  0  0  0  0  0  0
   13.7872   -4.7178   -0.3510 C   0  0  0  0  0  0  0  0  0  0  0  0
   14.1647   -6.1153   -0.6936 C   0  0  0  0  0  0  0  0  0  0  0  0
   12.6470   -3.9327   -0.6828 C   0  0  0  0  0  0  0  0  0  0  0  0
   11.4826   -4.1180   -1.4168 C   0  0  0  0  0  0  0  0  0  0  0  0
    7.0078   -2.6036   -0.6312 C   0  0  0  0  0  0  0  0  0  0  0  0
    5.8465   -2.3950    0.0768 C   0  0  0  0  0  0  0  0  0  0  0  0
    1.2564    0.9279    0.3600 H   0  0  0  0  0  0  0  0  0  0  0  0
    1.9609    0.2814    1.8873 H   0  0  0  0  0  0  0  0  0  0  0  0
    1.0942   -0.8153    0.7856 H   0  0  0  0  0  0  0  0  0  0  0  0
    4.5986    0.2901   -1.6451 H   0  0  0  0  0  0  0  0  0  0  0  0
    6.6837   -0.0696   -2.9340 H   0  0  0  0  0  0  0  0  0  0  0  0
    9.2696   -3.9519   -2.6635 H   0  0  0  0  0  0  0  0  0  0  0  0
   10.2534   -0.9225   -0.8615 H   0  0  0  0  0  0  0  0  0  0  0  0
   15.1343   -6.3898   -0.2544 H   0  0  0  0  0  0  0  0  0  0  0  0
   14.2345   -6.2457   -1.7857 H   0  0  0  0  0  0  0  0  0  0  0  0
   13.4084   -6.8274   -0.3258 H   0  0  0  0  0  0  0  0  0  0  0  0
   11.2443   -5.0540   -1.9272 H   0  0  0  0  0  0  0  0  0  0  0  0
    7.6627   -3.4247   -0.3346 H   0  0  0  0  0  0  0  0  0  0  0  0
    5.5860   -3.0355    0.9217 H   0  0  0  0  0  0  0  0  0  0  0  0
  1  2  1  0
  1 25  1  0
  1 26  1  0
  1 27  1  0
  2  3  1  0
  3  4  2  0
  3  5  1  0
  5  6  2  0
  5 24  1  0
  6  7  1  0
  6 28  1  0
  7  8  2  0
  7 29  1  0
  8  9  1  0
  8 23  1  0
  9 10  2  0
  9 11  1  0
 11 12  1  0
 11 30  1  0
 12 13  1  0
 12 22  2  0
 13 14  2  0
 13 31  1  0
 14 15  1  0
 15 16  2  0
 15 21  1  0
 16 17  1  0
 17 18  1  0
 17 19  1  0
 19 20  1  0
 19 21  2  0
 20 32  1  0
 20 33  1  0
 20 34  1  0
 21 22  1  0
 22 35  1  0
 23 24  2  0
 23 36  1  0
 24 37  1  0
M  END

