
     RDKit          3D

 49 52  0  0  0  0  0  0  0  0999 V2000
    7.6030   -0.5621    1.8631 C   0  0  0  0  0  0  0  0  0  0  0  0
    6.9112   -0.7589    0.6822 C   0  0  0  0  0  0  0  0  0  0  0  0
    5.9055    0.0915    0.1212 C   0  0  0  0  0  0  0  0  0  0  0  0
    5.1981   -0.3486   -1.0690 C   0  0  0  0  0  0  0  0  0  0  0  0
    5.8009   -0.0845   -2.3223 C   0  0  0  0  0  0  0  0  0  0  0  0
    6.0303   -1.0239   -3.3126 C   0  0  0  0  0  0  0  0  0  0  0  0
    7.4433   -1.1702   -3.8178 C   0  0  0  0  0  0  0  0  0  0  0  0
    8.3375   -1.9406   -2.7863 C   0  0  0  0  0  0  0  0  0  0  0  0
    8.3356   -1.2952   -1.3706 C   0  0  2  0  0  0  0  0  0  0  0  0
    9.7264   -1.1951   -0.8105 N   0  0  0  0  0  0  0  0  0  0  0  0
   10.2651   -0.0914   -0.3042 C   0  0  0  0  0  0  0  0  0  0  0  0
    9.6953    1.0623   -0.4337 F   0  0  0  0  0  0  0  0  0  0  0  0
   11.5578   -0.2992    0.2906 C   0  0  0  0  0  0  0  0  0  0  0  0
   12.3843    0.7644    0.8483 C   0  0  0  0  0  0  0  0  0  0  0  0
   13.7858    0.7633    0.6565 C   0  0  0  0  0  0  0  0  0  0  0  0
   14.5837    1.7865    1.1755 C   0  0  0  0  0  0  0  0  0  0  0  0
   15.9165    1.8727    1.0103 O   0  0  0  0  0  0  0  0  0  0  0  0
   13.9719    2.8162    1.9193 C   0  0  0  0  0  0  0  0  0  0  0  0
   14.7112    3.7891    2.4271 F   0  0  0  0  0  0  0  0  0  0  0  0
   12.5866    2.8167    2.1036 C   0  0  0  0  0  0  0  0  0  0  0  0
   12.0481    3.8045    2.8070 F   0  0  0  0  0  0  0  0  0  0  0  0
   11.7838    1.8143    1.5729 C   0  0  0  0  0  0  0  0  0  0  0  0
   11.7732   -1.6902    0.1338 C   0  0  0  0  0  0  0  0  0  0  0  0
   12.7174   -2.6718    0.5697 C   0  0  0  0  0  0  0  0  0  0  0  0
   13.7870   -2.3965    1.3374 N   0  0  0  0  0  0  0  0  0  0  0  0
   12.5427   -3.9623    0.2200 N   0  0  0  0  0  0  0  0  0  0  0  0
   11.4617   -4.3002   -0.4633 C   0  0  0  0  0  0  0  0  0  0  0  0
   10.4509   -3.4916   -0.8516 N   0  0  0  0  0  0  0  0  0  0  0  0
   10.6313   -2.2330   -0.5447 C   0  0  0  0  0  0  0  0  0  0  0  0
    7.4101   -1.8784   -0.2502 C   0  0  0  0  0  0  0  0  0  0  0  0
    7.3143    0.2297    2.5601 H   0  0  0  0  0  0  0  0  0  0  0  0
    8.3793   -1.2576    2.1915 H   0  0  0  0  0  0  0  0  0  0  0  0
    5.8884    1.1389    0.4510 H   0  0  0  0  0  0  0  0  0  0  0  0
    4.7559   -1.3549   -1.0150 H   0  0  0  0  0  0  0  0  0  0  0  0
    6.4051    0.8363   -2.3706 H   0  0  0  0  0  0  0  0  0  0  0  0
    5.4840   -1.9745   -3.2233 H   0  0  0  0  0  0  0  0  0  0  0  0
    7.8992   -0.1770   -3.9949 H   0  0  0  0  0  0  0  0  0  0  0  0
    7.5123   -1.7164   -4.7769 H   0  0  0  0  0  0  0  0  0  0  0  0
    7.9973   -2.9854   -2.7101 H   0  0  0  0  0  0  0  0  0  0  0  0
    9.3728   -1.9839   -3.1667 H   0  0  0  0  0  0  0  0  0  0  0  0
    8.0505   -0.2470   -1.4946 H   0  0  0  0  0  0  0  0  0  0  0  0
   14.2538   -0.0076    0.0395 H   0  0  0  0  0  0  0  0  0  0  0  0
   16.2332    1.1639    0.4344 H   0  0  0  0  0  0  0  0  0  0  0  0
   10.7097    1.8481    1.7556 H   0  0  0  0  0  0  0  0  0  0  0  0
   13.9234   -1.4816    1.7490 H   0  0  0  0  0  0  0  0  0  0  0  0
   14.3372   -3.1834    1.6657 H   0  0  0  0  0  0  0  0  0  0  0  0
   11.3637   -5.3557   -0.7376 H   0  0  0  0  0  0  0  0  0  0  0  0
    7.9531   -2.6574    0.3069 H   0  0  0  0  0  0  0  0  0  0  0  0
    6.5790   -2.3820   -0.7563 H   0  0  0  0  0  0  0  0  0  0  0  0
  1  2  2  0
  1 31  1  0
  1 32  1  0
  2  3  1  0
  2 30  1  0
  3  4  2  0
  3 33  1  0
  4  5  1  0
  4 34  1  0
  5  6  2  0
  5 35  1  0
  6  7  1  0
  6 36  1  0
  7  8  1  0
  7 37  1  0
  7 38  1  0
  8  9  1  0
  8 39  1  0
  8 40  1  0
  9 10  1  0
  9 30  1  0
  9 41  1  6
 10 11  1  0
 10 29  1  0
 11 12  1  0
 11 13  2  0
 13 14  1  0
 13 23  1  0
 14 15  2  0
 14 22  1  0
 15 16  1  0
 15 42  1  0
 16 17  1  0
 16 18  2  0
 17 43  1  0
 18 19  1  0
 18 20  1  0
 20 21  1  0
 20 22  2  0
 22 44  1  0
 23 24  1  0
 23 29  2  0
 24 25  1  0
 24 26  2  0
 25 45  1  0
 25 46  1  0
 26 27  1  0
 27 28  2  0
 27 47  1  0
 28 29  1  0
 30 48  1  0
 30 49  1  0
M  END

