
     RDKit          3D

 46 47  0  0  0  0  0  0  0  0999 V2000
    3.1961    3.2507    4.5671 C   0  0  0  0  0  0  0  0  0  0  0  0
    3.4134    2.1459    3.7367 O   0  0  0  0  0  0  0  0  0  0  0  0
    4.2012    2.4293    2.6036 C   0  0  0  0  0  0  0  0  0  0  0  0
    4.4133    1.1359    1.8142 C   0  0  1  0  0  0  0  0  0  0  0  0
    3.1106    0.5545    1.2961 C   0  0  0  0  0  0  0  0  0  0  0  0
    5.2553    1.4075    0.6769 O   0  0  0  0  0  0  0  0  0  0  0  0
    6.6079    1.5499    0.9031 C   0  0  0  0  0  0  0  0  0  0  0  0
    7.1693    2.8087    0.8455 C   0  0  0  0  0  0  0  0  0  0  0  0
    8.5618    3.0342    1.0356 C   0  0  0  0  0  0  0  0  0  0  0  0
    9.3519    1.9150    1.3729 C   0  0  0  0  0  0  0  0  0  0  0  0
   11.0647    2.1787    1.7411 Cl  0  0  0  0  0  0  0  0  0  0  0  0
    8.8497    0.6352    1.4493 C   0  0  0  0  0  0  0  0  0  0  0  0
    7.4470    0.3918    1.1601 C   0  0  0  0  0  0  0  0  0  0  0  0
    7.0022   -1.2019    0.6757 S   0  0  1  0  0  0  0  0  0  0  0  0
    8.1174   -2.1178    0.9798 O   0  0  0  0  0  0  0  0  0  0  0  0
    5.6372   -1.5754    1.0701 O   0  0  0  0  0  0  0  0  0  0  0  0
    6.8702   -1.3474   -1.1446 N   0  0  0  0  0  0  0  0  0  0  0  0
    5.6010   -0.8625   -1.6788 C   0  0  0  0  0  0  0  0  0  0  0  0
    8.0229   -0.8663   -1.8696 C   0  0  1  0  0  0  0  0  0  0  0  0
    9.3803   -1.4939   -1.4625 C   0  0  0  0  0  0  0  0  0  0  0  0
   10.2582   -1.3229   -2.7020 C   0  0  0  0  0  0  0  0  0  0  0  0
    9.3199   -1.3211   -3.7971 N   0  0  0  0  0  0  0  0  0  0  0  0
    7.9423   -1.2426   -3.3709 C   0  0  0  0  0  0  0  0  0  0  0  0
    2.5808    2.9206    5.4177 H   0  0  0  0  0  0  0  0  0  0  0  0
    2.6600    4.0695    4.0426 H   0  0  0  0  0  0  0  0  0  0  0  0
    4.1448    3.6701    4.9615 H   0  0  0  0  0  0  0  0  0  0  0  0
    5.1812    2.8480    2.9051 H   0  0  0  0  0  0  0  0  0  0  0  0
    3.7054    3.1826    1.9530 H   0  0  0  0  0  0  0  0  0  0  0  0
    4.9094    0.3998    2.4663 H   0  0  0  0  0  0  0  0  0  0  0  0
    2.6686    1.2241    0.5396 H   0  0  0  0  0  0  0  0  0  0  0  0
    2.4003    0.4474    2.1282 H   0  0  0  0  0  0  0  0  0  0  0  0
    3.2895   -0.4323    0.8488 H   0  0  0  0  0  0  0  0  0  0  0  0
    6.4984    3.6517    0.6625 H   0  0  0  0  0  0  0  0  0  0  0  0
    8.9952    4.0298    0.9687 H   0  0  0  0  0  0  0  0  0  0  0  0
    9.4791   -0.1954    1.7634 H   0  0  0  0  0  0  0  0  0  0  0  0
    4.8024   -1.1821   -1.0014 H   0  0  0  0  0  0  0  0  0  0  0  0
    5.3919   -1.3170   -2.6641 H   0  0  0  0  0  0  0  0  0  0  0  0
    5.5431    0.2403   -1.7744 H   0  0  0  0  0  0  0  0  0  0  0  0
    8.1249    0.2421   -1.8213 H   0  0  0  0  0  0  0  0  0  0  0  0
    9.2280   -2.5562   -1.2284 H   0  0  0  0  0  0  0  0  0  0  0  0
    9.8210   -1.0240   -0.5819 H   0  0  0  0  0  0  0  0  0  0  0  0
   11.0323   -2.0870   -2.8748 H   0  0  0  0  0  0  0  0  0  0  0  0
   10.7761   -0.3441   -2.7419 H   0  0  0  0  0  0  0  0  0  0  0  0
    9.6024   -1.3416   -4.7762 H   0  0  0  0  0  0  0  0  0  0  0  0
    7.5178   -2.2571   -3.4926 H   0  0  0  0  0  0  0  0  0  0  0  0
    7.3887   -0.5654   -4.0345 H   0  0  0  0  0  0  0  0  0  0  0  0
  1  2  1  0
  1 24  1  0
  1 25  1  0
  1 26  1  0
  2  3  1  0
  3  4  1  0
  3 27  1  0
  3 28  1  0
  4  5  1  0
  4  6  1  0
  4 29  1  1
  5 30  1  0
  5 31  1  0
  5 32  1  0
  6  7  1  0
  7  8  2  0
  7 13  1  0
  8  9  1  0
  8 33  1  0
  9 10  2  0
  9 34  1  0
 10 11  1  0
 10 12  1  0
 12 13  2  0
 12 35  1  0
 13 14  1  0
 14 15  2  0
 14 16  2  0
 14 17  1  6
 17 18  1  0
 17 19  1  0
 18 36  1  0
 18 37  1  0
 18 38  1  0
 19 20  1  0
 19 23  1  0
 19 39  1  6
 20 21  1  0
 20 40  1  0
 20 41  1  0
 21 22  1  0
 21 42  1  0
 21 43  1  0
 22 23  1  0
 22 44  1  0
 23 45  1  0
 23 46  1  0
M  END

