
     RDKit          3D

 45 47  0  0  0  0  0  0  0  0999 V2000
    1.4750   -0.9266    0.5915 O   0  0  0  0  0  0  0  0  0  0  0  0
    2.6583   -0.6363    0.6503 C   0  0  0  0  0  0  0  0  0  0  0  0
    3.5222   -0.6857   -0.6250 C   0  0  0  0  0  0  0  0  0  0  0  0
    2.7219   -0.4075   -1.7939 N   0  0  0  0  0  0  0  0  0  0  0  0
    2.3056    0.8765   -2.0417 C   0  0  0  0  0  0  0  0  0  0  0  0
    2.6034    1.8625   -1.4015 O   0  0  0  0  0  0  0  0  0  0  0  0
    1.2485    0.8538   -3.4941 S   0  0  0  0  0  0  0  0  0  0  0  0
    1.3795   -0.9120   -3.6653 C   0  0  0  0  0  0  0  0  0  0  0  0
    0.6755   -1.5077   -4.7203 C   0  0  0  0  0  0  0  0  0  0  0  0
    0.4916   -2.8960   -5.0799 C   0  0  0  0  0  0  0  0  0  0  0  0
    1.0248   -4.0053   -4.4110 C   0  0  0  0  0  0  0  0  0  0  0  0
    0.7489   -5.3251   -4.8482 C   0  0  0  0  0  0  0  0  0  0  0  0
    1.5772   -6.8942   -3.7497 I   0  0  0  0  0  0  0  0  0  0  0  0
   -0.0472   -5.6332   -5.9577 C   0  0  0  0  0  0  0  0  0  0  0  0
   -0.5758   -4.5346   -6.6408 C   0  0  0  0  0  0  0  0  0  0  0  0
   -1.8004   -4.8742   -8.3400 I   0  0  0  0  0  0  0  0  0  0  0  0
   -0.3281   -3.1980   -6.2355 C   0  0  0  0  0  0  0  0  0  0  0  0
   -0.8316   -2.1529   -6.8883 O   0  0  0  0  0  0  0  0  0  0  0  0
    2.2472   -1.4470   -2.6331 C   0  0  0  0  0  0  0  0  0  0  0  0
    2.6122   -2.6155   -2.4390 O   0  0  0  0  0  0  0  0  0  0  0  0
    3.2841   -0.3086    1.8249 N   0  0  0  0  0  0  0  0  0  0  0  0
    2.4743   -0.2710    3.0451 C   0  0  0  0  0  0  0  0  0  0  0  0
    1.9013    1.1131    3.3700 C   0  0  0  0  0  0  0  0  0  0  0  0
    2.9225    2.2599    3.4384 C   0  0  0  0  0  0  0  0  0  0  0  0
    3.5816    2.6028    2.0891 C   0  0  0  0  0  0  0  0  0  0  0  0
    4.7804    1.7370    1.6603 C   0  0  0  0  0  0  0  0  0  0  0  0
    4.6411    0.2243    1.9325 C   0  0  0  0  0  0  0  0  0  0  0  0
    3.9020   -1.7124   -0.7433 H   0  0  0  0  0  0  0  0  0  0  0  0
    4.3655    0.0137   -0.5964 H   0  0  0  0  0  0  0  0  0  0  0  0
    0.1400   -0.8100   -5.3619 H   0  0  0  0  0  0  0  0  0  0  0  0
    1.6684   -3.8155   -3.5462 H   0  0  0  0  0  0  0  0  0  0  0  0
   -0.2486   -6.6555   -6.2705 H   0  0  0  0  0  0  0  0  0  0  0  0
   -1.3622   -2.4495   -7.6515 H   0  0  0  0  0  0  0  0  0  0  0  0
    3.1104   -0.6228    3.8764 H   0  0  0  0  0  0  0  0  0  0  0  0
    1.6522   -0.9872    2.9171 H   0  0  0  0  0  0  0  0  0  0  0  0
    1.3661    1.0360    4.3333 H   0  0  0  0  0  0  0  0  0  0  0  0
    1.1405    1.3587    2.6096 H   0  0  0  0  0  0  0  0  0  0  0  0
    3.6938    2.0435    4.2028 H   0  0  0  0  0  0  0  0  0  0  0  0
    2.3926    3.1565    3.8021 H   0  0  0  0  0  0  0  0  0  0  0  0
    3.9225    3.6515    2.1065 H   0  0  0  0  0  0  0  0  0  0  0  0
    2.8156    2.5538    1.2973 H   0  0  0  0  0  0  0  0  0  0  0  0
    5.6998    2.0756    2.1709 H   0  0  0  0  0  0  0  0  0  0  0  0
    4.9443    1.9105    0.5842 H   0  0  0  0  0  0  0  0  0  0  0  0
    4.9709    0.0062    2.9601 H   0  0  0  0  0  0  0  0  0  0  0  0
    5.3253   -0.3424    1.2822 H   0  0  0  0  0  0  0  0  0  0  0  0
  1  2  2  0
  2  3  1  0
  2 21  1  0
  3  4  1  0
  3 28  1  0
  3 29  1  0
  4  5  1  0
  4 19  1  0
  5  6  2  0
  5  7  1  0
  7  8  1  0
  8  9  2  0
  8 19  1  0
  9 10  1  0
  9 30  1  0
 10 11  2  0
 10 17  1  0
 11 12  1  0
 11 31  1  0
 12 13  1  0
 12 14  2  0
 14 15  1  0
 14 32  1  0
 15 16  1  0
 15 17  2  0
 17 18  1  0
 18 33  1  0
 19 20  2  0
 21 22  1  0
 21 27  1  0
 22 23  1  0
 22 34  1  0
 22 35  1  0
 23 24  1  0
 23 36  1  0
 23 37  1  0
 24 25  1  0
 24 38  1  0
 24 39  1  0
 25 26  1  0
 25 40  1  0
 25 41  1  0
 26 27  1  0
 26 42  1  0
 26 43  1  0
 27 44  1  0
 27 45  1  0
M  END

