
     RDKit          3D

 19 20  0  0  0  0  0  0  0  0999 V2000
    0.7298   -3.4385   -0.4998 O   0  0  0  0  0  0  0  0  0  0  0  0
    1.2816   -2.3843   -0.2799 C   0  0  0  0  0  0  0  0  0  0  0  0
    2.5244   -2.2546    0.4961 C   0  0  0  0  0  0  0  0  0  0  0  0
    3.2828   -3.2422    1.1040 C   0  0  0  0  0  0  0  0  0  0  0  0
    4.3057   -2.5604    1.6712 N   0  0  0  0  0  0  0  0  0  0  0  0
    5.3930   -3.0743    2.4313 C   0  0  0  0  0  0  0  0  0  0  0  0
    6.3675   -2.2063    2.9441 C   0  0  0  0  0  0  0  0  0  0  0  0
    7.4048   -2.7718    3.6810 C   0  0  0  0  0  0  0  0  0  0  0  0
    7.4088   -4.1543    3.8608 C   0  0  0  0  0  0  0  0  0  0  0  0
    8.3822   -4.7390    4.5602 F   0  0  0  0  0  0  0  0  0  0  0  0
    6.3912   -4.9332    3.3085 C   0  0  0  0  0  0  0  0  0  0  0  0
    5.4002   -4.3889    2.6040 N   0  0  0  0  0  0  0  0  0  0  0  0
    4.1883   -1.2232    1.4289 N   0  0  0  0  0  0  0  0  0  0  0  0
    3.1262   -1.0452    0.7282 N   0  0  0  0  0  0  0  0  0  0  0  0
    0.8839   -1.4090   -0.6552 H   0  0  0  0  0  0  0  0  0  0  0  0
    3.1826   -4.3201    1.1756 H   0  0  0  0  0  0  0  0  0  0  0  0
    6.2980   -1.1345    2.7627 H   0  0  0  0  0  0  0  0  0  0  0  0
    8.2012   -2.1627    4.1134 H   0  0  0  0  0  0  0  0  0  0  0  0
    6.3933   -6.0191    3.4490 H   0  0  0  0  0  0  0  0  0  0  0  0
  1  2  2  0
  2  3  1  0
  2 15  1  0
  3  4  2  0
  3 14  1  0
  4  5  1  0
  4 16  1  0
  5  6  1  0
  5 13  1  0
  6  7  2  0
  6 12  1  0
  7  8  1  0
  7 17  1  0
  8  9  2  0
  8 18  1  0
  9 10  1  0
  9 11  1  0
 11 12  2  0
 11 19  1  0
 13 14  2  0
M  END

