
     RDKit          3D

 44 45  0  0  0  0  0  0  0  0999 V2000
    5.0210    0.1839   -0.5238 O   0  0  0  0  0  0  0  0  0  0  0  0
    4.3551    1.1781   -0.6755 C   0  0  0  0  0  0  0  0  0  0  0  0
    3.1990    1.3207    0.0065 O   0  0  0  0  0  0  0  0  0  0  0  0
    4.7749    2.3395   -1.5627 C   0  0  0  0  0  0  0  0  0  0  0  0
    5.7416    3.3147   -0.8527 C   0  0  0  0  0  0  0  0  0  0  0  0
    6.9448    2.6325   -0.1746 C   0  0  0  0  0  0  0  0  0  0  0  0
    7.6216    1.6505   -0.9977 N   0  0  0  0  0  0  0  0  0  0  0  0
    8.4997    2.0511   -1.9818 C   0  0  0  0  0  0  0  0  0  0  0  0
    8.8490    3.2153   -2.1254 O   0  0  0  0  0  0  0  0  0  0  0  0
    8.9496    1.0295   -2.7978 N   0  0  0  0  0  0  0  0  0  0  0  0
    9.9951    1.2653   -3.7757 C   0  0  0  0  0  0  0  0  0  0  0  0
   11.4181    1.0884   -3.2360 C   0  0  1  0  0  0  0  0  0  0  0  0
   11.7543   -0.3113   -2.7021 C   0  0  0  0  0  0  0  0  0  0  0  0
   13.2841   -0.3089   -2.7325 C   0  0  0  0  0  0  0  0  0  0  0  0
   13.6589    0.5690   -3.7894 O   0  0  0  0  0  0  0  0  0  0  0  0
   12.5307    1.2760   -4.2981 C   0  0  2  0  0  0  0  0  0  0  0  0
   12.8906    2.7149   -4.6064 C   0  0  0  0  0  0  0  0  0  0  0  0
   12.2244    3.4095   -5.6264 C   0  0  0  0  0  0  0  0  0  0  0  0
   12.5147    4.7524   -5.8843 C   0  0  0  0  0  0  0  0  0  0  0  0
   13.4878    5.4152   -5.1316 C   0  0  0  0  0  0  0  0  0  0  0  0
   14.1687    4.7250   -4.1234 C   0  0  0  0  0  0  0  0  0  0  0  0
   13.8731    3.3850   -3.8632 C   0  0  0  0  0  0  0  0  0  0  0  0
    2.7728    2.1584   -0.2232 H   0  0  0  0  0  0  0  0  0  0  0  0
    3.8968    2.8910   -1.9389 H   0  0  0  0  0  0  0  0  0  0  0  0
    5.2808    1.9008   -2.4347 H   0  0  0  0  0  0  0  0  0  0  0  0
    5.1977    3.9037   -0.0932 H   0  0  0  0  0  0  0  0  0  0  0  0
    6.1127    4.0268   -1.6061 H   0  0  0  0  0  0  0  0  0  0  0  0
    6.6250    2.1271    0.7501 H   0  0  0  0  0  0  0  0  0  0  0  0
    7.6729    3.4074    0.1049 H   0  0  0  0  0  0  0  0  0  0  0  0
    7.1600    0.7472   -1.0647 H   0  0  0  0  0  0  0  0  0  0  0  0
    8.7942    0.0745   -2.4964 H   0  0  0  0  0  0  0  0  0  0  0  0
    9.8673    2.2958   -4.1360 H   0  0  0  0  0  0  0  0  0  0  0  0
    9.8360    0.5851   -4.6316 H   0  0  0  0  0  0  0  0  0  0  0  0
   11.5750    1.8333   -2.4370 H   0  0  0  0  0  0  0  0  0  0  0  0
   11.3556   -1.0818   -3.3863 H   0  0  0  0  0  0  0  0  0  0  0  0
   11.3488   -0.5058   -1.6976 H   0  0  0  0  0  0  0  0  0  0  0  0
   13.7135   -1.3079   -2.9189 H   0  0  0  0  0  0  0  0  0  0  0  0
   13.7021    0.0627   -1.7773 H   0  0  0  0  0  0  0  0  0  0  0  0
   12.1964    0.7943   -5.2416 H   0  0  0  0  0  0  0  0  0  0  0  0
   11.4750    2.8927   -6.2335 H   0  0  0  0  0  0  0  0  0  0  0  0
   11.9842    5.2796   -6.6815 H   0  0  0  0  0  0  0  0  0  0  0  0
   13.7205    6.4638   -5.3346 H   0  0  0  0  0  0  0  0  0  0  0  0
   14.9395    5.2335   -3.5378 H   0  0  0  0  0  0  0  0  0  0  0  0
   14.4157    2.8366   -3.0909 H   0  0  0  0  0  0  0  0  0  0  0  0
  1  2  2  0
  2  3  1  0
  2  4  1  0
  3 23  1  0
  4  5  1  0
  4 24  1  0
  4 25  1  0
  5  6  1  0
  5 26  1  0
  5 27  1  0
  6  7  1  0
  6 28  1  0
  6 29  1  0
  7  8  1  0
  7 30  1  0
  8  9  2  0
  8 10  1  0
 10 11  1  0
 10 31  1  0
 11 12  1  0
 11 32  1  0
 11 33  1  0
 12 13  1  0
 12 16  1  0
 12 34  1  1
 13 14  1  0
 13 35  1  0
 13 36  1  0
 14 15  1  0
 14 37  1  0
 14 38  1  0
 15 16  1  0
 16 17  1  0
 16 39  1  6
 17 18  2  0
 17 22  1  0
 18 19  1  0
 18 40  1  0
 19 20  2  0
 19 41  1  0
 20 21  1  0
 20 42  1  0
 21 22  2  0
 21 43  1  0
 22 44  1  0
M  END

