
     RDKit          3D

 53 55  0  0  0  0  0  0  0  0999 V2000
    0.7113   -0.0503    0.7701 C   0  0  0  0  0  0  0  0  0  0  0  0
    1.9592    0.2789   -0.0532 C   0  0  1  0  0  0  0  0  0  0  0  0
    1.6545    1.1167   -1.1487 O   0  0  0  0  0  0  0  0  0  0  0  0
    3.0673    0.8902    0.8120 C   0  0  2  0  0  0  0  0  0  0  0  0
    4.4610    1.0903    0.1629 C   0  0  0  0  0  0  0  0  0  0  0  0
    4.8897    1.5251   -0.8660 O   0  0  0  0  0  0  0  0  0  0  0  0
    5.1015    0.4691    1.2569 N   0  0  0  0  0  0  0  0  0  0  0  0
    6.0414   -0.6049    1.2235 C   0  0  0  0  0  0  0  0  0  0  0  0
    7.4308   -0.3291    0.8191 C   0  0  0  0  0  0  0  0  0  0  0  0
    8.2509   -1.1478    0.4684 O   0  0  0  0  0  0  0  0  0  0  0  0
    7.6855    1.0031    0.8657 O   0  0  0  0  0  0  0  0  0  0  0  0
    8.9637    1.4370    0.4503 C   0  0  0  0  0  0  0  0  0  0  0  0
    9.8774    1.3742    1.5266 O   0  0  0  0  0  0  0  0  0  0  0  0
   10.0103    2.4774    2.3208 C   0  0  0  0  0  0  0  0  0  0  0  0
    9.4327    3.5105    2.1074 O   0  0  0  0  0  0  0  0  0  0  0  0
   10.9806    2.2136    3.4767 C   0  0  1  0  0  0  0  0  0  0  0  0
   12.3592    1.8314    2.8950 C   0  0  0  0  0  0  0  0  0  0  0  0
   11.0929    3.4884    4.3247 C   0  0  0  0  0  0  0  0  0  0  0  0
   10.4319    1.0492    4.3298 C   0  0  0  0  0  0  0  0  0  0  0  0
    5.4185   -1.7698    1.5889 C   0  0  0  0  0  0  0  0  0  0  0  0
    5.8361   -3.4303    1.9141 S   0  0  0  0  0  0  0  0  0  0  0  0
    7.5971   -3.7506    1.5935 C   0  0  1  0  0  0  0  0  0  0  0  0
    8.6487   -3.4437    2.6854 C   0  0  0  0  0  0  0  0  0  0  0  0
    9.1989   -4.7977    2.4786 N   0  0  0  0  0  0  0  0  0  0  0  0
    7.9704   -5.2409    1.7986 C   0  0  0  0  0  0  0  0  0  0  0  0
    3.9165   -1.5090    1.8012 C   0  0  0  0  0  0  0  0  0  0  0  0
    3.8338    0.0301    1.8693 C   0  0  2  0  0  0  0  0  0  0  0  0
    3.7195    0.3758    2.9095 H   0  0  0  0  0  0  0  0  0  0  0  0
   -0.0681   -0.4676    0.1151 H   0  0  0  0  0  0  0  0  0  0  0  0
    0.3081    0.8612    1.2440 H   0  0  0  0  0  0  0  0  0  0  0  0
    0.9221   -0.7794    1.5691 H   0  0  0  0  0  0  0  0  0  0  0  0
    2.3358   -0.6496   -0.5147 H   0  0  0  0  0  0  0  0  0  0  0  0
    1.4317    1.9964   -0.8142 H   0  0  0  0  0  0  0  0  0  0  0  0
    2.6918    1.8271    1.2616 H   0  0  0  0  0  0  0  0  0  0  0  0
    8.8351    2.4728    0.1171 H   0  0  0  0  0  0  0  0  0  0  0  0
    9.3586    0.7736   -0.3275 H   0  0  0  0  0  0  0  0  0  0  0  0
   12.7679    2.6422    2.2707 H   0  0  0  0  0  0  0  0  0  0  0  0
   12.2958    0.9219    2.2807 H   0  0  0  0  0  0  0  0  0  0  0  0
   13.0712    1.6475    3.7154 H   0  0  0  0  0  0  0  0  0  0  0  0
   11.4683    4.3332    3.7285 H   0  0  0  0  0  0  0  0  0  0  0  0
   11.7849    3.3206    5.1650 H   0  0  0  0  0  0  0  0  0  0  0  0
   10.1149    3.7832    4.7330 H   0  0  0  0  0  0  0  0  0  0  0  0
   10.3440    0.1267    3.7382 H   0  0  0  0  0  0  0  0  0  0  0  0
    9.4394    1.2906    4.7434 H   0  0  0  0  0  0  0  0  0  0  0  0
   11.1116    0.8564    5.1752 H   0  0  0  0  0  0  0  0  0  0  0  0
    7.8771   -3.3498    0.6160 H   0  0  0  0  0  0  0  0  0  0  0  0
    8.1831   -3.2738    3.6756 H   0  0  0  0  0  0  0  0  0  0  0  0
    9.3381   -2.6141    2.4597 H   0  0  0  0  0  0  0  0  0  0  0  0
    9.4561   -5.3133    3.3185 H   0  0  0  0  0  0  0  0  0  0  0  0
    7.2416   -5.7707    2.4455 H   0  0  0  0  0  0  0  0  0  0  0  0
    8.1224   -5.8401    0.8849 H   0  0  0  0  0  0  0  0  0  0  0  0
    3.5402   -1.9907    2.7158 H   0  0  0  0  0  0  0  0  0  0  0  0
    3.3605   -1.9502    0.9553 H   0  0  0  0  0  0  0  0  0  0  0  0
  1  2  1  0
  1 29  1  0
  1 30  1  0
  1 31  1  0
  2  3  1  0
  2  4  1  0
  2 32  1  6
  3 33  1  0
  4  5  1  0
  4 27  1  0
  4 34  1  1
  5  6  2  0
  5  7  1  0
  7  8  1  0
  7 27  1  0
  8  9  1  0
  8 20  2  0
  9 10  2  0
  9 11  1  0
 11 12  1  0
 12 13  1  0
 12 35  1  0
 12 36  1  0
 13 14  1  0
 14 15  2  0
 16 14  1  6
 16 17  1  0
 16 18  1  0
 16 19  1  0
 17 37  1  0
 17 38  1  0
 17 39  1  0
 18 40  1  0
 18 41  1  0
 18 42  1  0
 19 43  1  0
 19 44  1  0
 19 45  1  0
 20 21  1  0
 20 26  1  0
 21 22  1  0
 22 23  1  0
 22 25  1  0
 22 46  1  6
 23 24  1  0
 23 47  1  0
 23 48  1  0
 24 25  1  0
 24 49  1  0
 25 50  1  0
 25 51  1  0
 26 27  1  0
 26 52  1  0
 26 53  1  0
 27 28  1  1
M  END

