
     RDKit          3D

101113  0  0  0  0  0  0  0  0999 V2000
    1.9485  -15.5335   13.0348 C   0  0  0  0  0  0  0  0  0  0  0  0
    0.5884  -15.7209   12.7707 C   0  0  0  0  0  0  0  0  0  0  0  0
    0.0173  -15.1949   11.6092 C   0  0  0  0  0  0  0  0  0  0  0  0
    0.7988  -14.4714   10.6926 C   0  0  0  0  0  0  0  0  0  0  0  0
    0.1854  -13.9095    9.4516 C   0  0  0  0  0  0  0  0  0  0  0  0
   -1.1344  -14.1383    9.2592 N   0  0  0  0  0  0  0  0  0  0  0  0
   -1.6411  -13.6146    8.1187 C   0  0  0  0  0  0  0  0  0  0  0  0
   -3.0934  -13.8427    7.8531 C   0  0  0  0  0  0  0  0  0  0  0  0
   -3.8828  -14.5527    8.7734 C   0  0  0  0  0  0  0  0  0  0  0  0
   -5.2413  -14.7672    8.5282 C   0  0  0  0  0  0  0  0  0  0  0  0
   -5.8326  -14.2773    7.3598 C   0  0  0  0  0  0  0  0  0  0  0  0
   -5.0533  -13.5692    6.4368 C   0  0  0  0  0  0  0  0  0  0  0  0
   -3.6968  -13.3536    6.6815 C   0  0  0  0  0  0  0  0  0  0  0  0
   -0.9513  -12.9218    7.2296 N   0  0  0  0  0  0  0  0  0  0  0  0
    0.3747  -12.7302    7.5024 C   0  0  0  0  0  0  0  0  0  0  0  0
    1.1758  -11.9725    6.5736 C   0  0  0  0  0  0  0  0  0  0  0  0
    0.6139  -11.4196    5.3812 C   0  0  0  0  0  0  0  0  0  0  0  0
    1.3810  -10.6864    4.4919 C   0  0  0  0  0  0  0  0  0  0  0  0
    2.7496  -10.4732    4.7533 C   0  0  0  0  0  0  0  0  0  0  0  0
    3.5625   -9.6955    3.8230 N   0  0  0  0  0  0  0  0  0  0  0  0
    3.6509   -8.3206    3.9882 C   0  0  0  0  0  0  0  0  0  0  0  0
    2.8989   -7.6986    5.0255 C   0  0  0  0  0  0  0  0  0  0  0  0
    2.9373   -6.3272    5.1918 C   0  0  0  0  0  0  0  0  0  0  0  0
    3.7184   -5.5386    4.3314 C   0  0  0  0  0  0  0  0  0  0  0  0
    4.4667   -6.1444    3.3206 C   0  0  0  0  0  0  0  0  0  0  0  0
    4.4661   -7.5264    3.1314 C   0  0  0  0  0  0  0  0  0  0  0  0
    5.3703   -8.1492    2.0619 C   0  0  1  0  0  0  0  0  0  0  0  0
    5.0313   -9.6309    1.8642 C   0  0  0  0  0  0  0  0  0  0  0  0
    5.5895  -10.3333    0.7962 C   0  0  0  0  0  0  0  0  0  0  0  0
    5.3723  -11.7010    0.6195 C   0  0  0  0  0  0  0  0  0  0  0  0
    4.5724  -12.4059    1.5336 C   0  0  0  0  0  0  0  0  0  0  0  0
    3.9884  -11.7409    2.5949 C   0  0  0  0  0  0  0  0  0  0  0  0
    4.1959  -10.3431    2.7721 C   0  0  0  0  0  0  0  0  0  0  0  0
    5.1638   -7.4048    0.7326 C   0  0  0  0  0  0  0  0  0  0  0  0
    3.8648   -7.4207    0.1831 C   0  0  0  0  0  0  0  0  0  0  0  0
    3.5724   -6.7822   -1.0143 C   0  0  0  0  0  0  0  0  0  0  0  0
    4.5928   -6.1045   -1.6945 C   0  0  0  0  0  0  0  0  0  0  0  0
    5.8747   -6.0824   -1.1616 C   0  0  0  0  0  0  0  0  0  0  0  0
    6.1864   -6.7274    0.0545 C   0  0  0  0  0  0  0  0  0  0  0  0
    7.6328   -6.6474    0.5623 C   0  0  2  0  0  0  0  0  0  0  0  0
    8.0817   -5.1740    0.6729 C   0  0  0  0  0  0  0  0  0  0  0  0
    7.6068   -4.1797    1.5237 C   0  0  0  0  0  0  0  0  0  0  0  0
    8.1574   -2.8936    1.4479 C   0  0  0  0  0  0  0  0  0  0  0  0
    9.1757   -2.6083    0.5290 C   0  0  0  0  0  0  0  0  0  0  0  0
    9.6630   -3.6053   -0.3216 C   0  0  0  0  0  0  0  0  0  0  0  0
    9.1140   -4.8901   -0.2441 C   0  0  0  0  0  0  0  0  0  0  0  0
    9.4403   -6.1182   -0.9819 C   0  0  0  0  0  0  0  0  0  0  0  0
   10.3936   -6.3579   -1.9778 C   0  0  0  0  0  0  0  0  0  0  0  0
   10.5143   -7.6479   -2.5029 C   0  0  0  0  0  0  0  0  0  0  0  0
    9.6979   -8.6851   -2.0335 C   0  0  0  0  0  0  0  0  0  0  0  0
    8.7427   -8.4443   -1.0372 C   0  0  0  0  0  0  0  0  0  0  0  0
    8.6101   -7.1591   -0.5184 C   0  0  0  0  0  0  0  0  0  0  0  0
    7.8455   -7.3850    1.8870 C   0  0  0  0  0  0  0  0  0  0  0  0
    9.1425   -7.3712    2.4414 C   0  0  0  0  0  0  0  0  0  0  0  0
    9.4353   -8.0092    3.6393 C   0  0  0  0  0  0  0  0  0  0  0  0
    8.4197   -8.6888    4.3232 C   0  0  0  0  0  0  0  0  0  0  0  0
    7.1381   -8.7114    3.7890 C   0  0  0  0  0  0  0  0  0  0  0  0
    6.8298   -8.0665    2.5734 C   0  0  0  0  0  0  0  0  0  0  0  0
    3.3357  -11.0063    5.9185 C   0  0  0  0  0  0  0  0  0  0  0  0
    2.5663  -11.7382    6.8068 C   0  0  0  0  0  0  0  0  0  0  0  0
    0.9659  -13.2312    8.6290 N   0  0  0  0  0  0  0  0  0  0  0  0
    2.1653  -14.2883   10.9667 C   0  0  0  0  0  0  0  0  0  0  0  0
    2.7349  -14.8145   12.1264 C   0  0  0  0  0  0  0  0  0  0  0  0
    2.3951  -15.9457   13.9439 H   0  0  0  0  0  0  0  0  0  0  0  0
   -0.0329  -16.2815   13.4749 H   0  0  0  0  0  0  0  0  0  0  0  0
   -1.0413  -15.3328   11.3884 H   0  0  0  0  0  0  0  0  0  0  0  0
   -3.4063  -14.9284    9.6792 H   0  0  0  0  0  0  0  0  0  0  0  0
   -5.8428  -15.3212    9.2544 H   0  0  0  0  0  0  0  0  0  0  0  0
   -6.8959  -14.4459    7.1679 H   0  0  0  0  0  0  0  0  0  0  0  0
   -5.5085  -13.1832    5.5202 H   0  0  0  0  0  0  0  0  0  0  0  0
   -3.0768  -12.8038    5.9724 H   0  0  0  0  0  0  0  0  0  0  0  0
   -0.4449  -11.5890    5.1864 H   0  0  0  0  0  0  0  0  0  0  0  0
    0.9252  -10.2733    3.5878 H   0  0  0  0  0  0  0  0  0  0  0  0
    2.2894   -8.3204    5.6761 H   0  0  0  0  0  0  0  0  0  0  0  0
    2.3528   -5.8637    5.9886 H   0  0  0  0  0  0  0  0  0  0  0  0
    3.7437   -4.4533    4.4495 H   0  0  0  0  0  0  0  0  0  0  0  0
    5.0668   -5.5259    2.6535 H   0  0  0  0  0  0  0  0  0  0  0  0
    6.2073   -9.7911    0.0806 H   0  0  0  0  0  0  0  0  0  0  0  0
    5.8258  -12.2177   -0.2289 H   0  0  0  0  0  0  0  0  0  0  0  0
    4.4015  -13.4766    1.4077 H   0  0  0  0  0  0  0  0  0  0  0  0
    3.3564  -12.2705    3.3031 H   0  0  0  0  0  0  0  0  0  0  0  0
    3.0700   -7.9502    0.7144 H   0  0  0  0  0  0  0  0  0  0  0  0
    2.5576   -6.8104   -1.4177 H   0  0  0  0  0  0  0  0  0  0  0  0
    4.3855   -5.5948   -2.6384 H   0  0  0  0  0  0  0  0  0  0  0  0
    6.6660   -5.5525   -1.6948 H   0  0  0  0  0  0  0  0  0  0  0  0
    6.8243   -4.3939    2.2541 H   0  0  0  0  0  0  0  0  0  0  0  0
    7.7919   -2.1080    2.1137 H   0  0  0  0  0  0  0  0  0  0  0  0
    9.5956   -1.6006    0.4808 H   0  0  0  0  0  0  0  0  0  0  0  0
   10.4634   -3.3820   -1.0315 H   0  0  0  0  0  0  0  0  0  0  0  0
   11.0380   -5.5525   -2.3388 H   0  0  0  0  0  0  0  0  0  0  0  0
   11.2547   -7.8506   -3.2807 H   0  0  0  0  0  0  0  0  0  0  0  0
    9.8091   -9.6914   -2.4446 H   0  0  0  0  0  0  0  0  0  0  0  0
    8.1238   -9.2648   -0.6688 H   0  0  0  0  0  0  0  0  0  0  0  0
    9.9349   -6.8416    1.9086 H   0  0  0  0  0  0  0  0  0  0  0  0
   10.4506   -7.9791    4.0413 H   0  0  0  0  0  0  0  0  0  0  0  0
    8.6274   -9.1977    5.2671 H   0  0  0  0  0  0  0  0  0  0  0  0
    6.3543   -9.2445    4.3309 H   0  0  0  0  0  0  0  0  0  0  0  0
    4.3973  -10.8410    6.1225 H   0  0  0  0  0  0  0  0  0  0  0  0
    3.0120  -12.1527    7.7108 H   0  0  0  0  0  0  0  0  0  0  0  0
    2.7645  -13.7257   10.2498 H   0  0  0  0  0  0  0  0  0  0  0  0
    3.7998  -14.6639   12.3257 H   0  0  0  0  0  0  0  0  0  0  0  0
  1  2  2  0
  1 63  1  0
  1 64  1  0
  2  3  1  0
  2 65  1  0
  3  4  2  0
  3 66  1  0
  4  5  1  0
  4 62  1  0
  5  6  2  0
  5 61  1  0
  6  7  1  0
  7  8  1  0
  7 14  2  0
  8  9  2  0
  8 13  1  0
  9 10  1  0
  9 67  1  0
 10 11  2  0
 10 68  1  0
 11 12  1  0
 11 69  1  0
 12 13  2  0
 12 70  1  0
 13 71  1  0
 14 15  1  0
 15 16  1  0
 15 61  2  0
 16 17  2  0
 16 60  1  0
 17 18  1  0
 17 72  1  0
 18 19  2  0
 18 73  1  0
 19 20  1  0
 19 59  1  0
 20 21  1  0
 20 33  1  0
 21 22  2  0
 21 26  1  0
 22 23  1  0
 22 74  1  0
 23 24  2  0
 23 75  1  0
 24 25  1  0
 24 76  1  0
 25 26  2  0
 25 77  1  0
 27 26  1  1
 27 28  1  0
 27 34  1  0
 27 58  1  0
 28 29  1  0
 28 33  2  0
 29 30  2  0
 29 78  1  0
 30 31  1  0
 30 79  1  0
 31 32  2  0
 31 80  1  0
 32 33  1  0
 32 81  1  0
 34 35  2  0
 34 39  1  0
 35 36  1  0
 35 82  1  0
 36 37  2  0
 36 83  1  0
 37 38  1  0
 37 84  1  0
 38 39  2  0
 38 85  1  0
 40 39  1  6
 40 41  1  0
 40 52  1  0
 40 53  1  0
 41 42  2  0
 41 46  1  0
 42 43  1  0
 42 86  1  0
 43 44  2  0
 43 87  1  0
 44 45  1  0
 44 88  1  0
 45 46  2  0
 45 89  1  0
 46 47  1  0
 47 48  2  0
 47 52  1  0
 48 49  1  0
 48 90  1  0
 49 50  2  0
 49 91  1  0
 50 51  1  0
 50 92  1  0
 51 52  2  0
 51 93  1  0
 53 54  2  0
 53 58  1  0
 54 55  1  0
 54 94  1  0
 55 56  2  0
 55 95  1  0
 56 57  1  0
 56 96  1  0
 57 58  2  0
 57 97  1  0
 59 60  2  0
 59 98  1  0
 60 99  1  0
 62 63  2  0
 62100  1  0
 63101  1  0
M  END

