
     RDKit          3D

 46 49  0  0  0  0  0  0  0  0999 V2000
   -0.6373    0.9830   -1.1364 C   0  0  0  0  0  0  0  0  0  0  0  0
    0.7432    0.9268   -1.2119 N   0  0  0  0  0  0  0  0  0  0  0  0
    1.4485   -0.0899   -0.7339 C   0  0  0  0  0  0  0  0  0  0  0  0
    2.8191    0.0807   -0.6351 N   0  0  0  0  0  0  0  0  0  0  0  0
    3.6814   -0.9507   -0.0765 C   0  0  0  0  0  0  0  0  0  0  0  0
    5.0831   -0.9107   -0.6973 C   0  0  0  0  0  0  0  0  0  0  0  0
    5.6957    0.4900   -0.6253 C   0  0  0  0  0  0  0  0  0  0  0  0
    4.7454    1.5053   -1.2659 C   0  0  0  0  0  0  0  0  0  0  0  0
    3.3553    1.4399   -0.6335 C   0  0  0  0  0  0  0  0  0  0  0  0
    0.7938   -1.3089   -0.3758 C   0  0  0  0  0  0  0  0  0  0  0  0
   -0.5782   -1.3646   -0.7713 C   0  0  0  0  0  0  0  0  0  0  0  0
   -1.3228   -2.5297   -0.7153 N   0  0  0  0  0  0  0  0  0  0  0  0
   -2.7807   -2.4400   -0.7494 C   0  0  0  0  0  0  0  0  0  0  0  0
   -3.3923   -3.6095   -1.5223 C   0  0  0  0  0  0  0  0  0  0  0  0
   -2.8911   -4.9847   -1.0474 C   0  0  2  0  0  0  0  0  0  0  0  0
   -3.5319   -5.4256    0.1956 N   0  0  0  0  0  0  0  0  0  0  0  0
   -4.3573   -6.4862    0.3760 C   0  0  0  0  0  0  0  0  0  0  0  0
   -4.7455   -6.5610    1.6350 N   0  0  0  0  0  0  0  0  0  0  0  0
   -4.1174   -5.5010    2.2040 C   0  0  0  0  0  0  0  0  0  0  0  0
   -3.3729   -4.7850    1.3731 N   0  0  0  0  0  0  0  0  0  0  0  0
   -1.3556   -4.9827   -0.9572 C   0  0  0  0  0  0  0  0  0  0  0  0
   -0.7748   -3.7774   -0.2039 C   0  0  0  0  0  0  0  0  0  0  0  0
   -1.1822   -0.2823   -1.2452 N   0  0  0  0  0  0  0  0  0  0  0  0
   -1.1495    1.8138   -1.6267 H   0  0  0  0  0  0  0  0  0  0  0  0
    3.2275   -1.9310   -0.2671 H   0  0  0  0  0  0  0  0  0  0  0  0
    3.7629   -0.8354    1.0261 H   0  0  0  0  0  0  0  0  0  0  0  0
    5.0119   -1.2261   -1.7530 H   0  0  0  0  0  0  0  0  0  0  0  0
    5.7200   -1.6490   -0.1821 H   0  0  0  0  0  0  0  0  0  0  0  0
    6.6806    0.5084   -1.1201 H   0  0  0  0  0  0  0  0  0  0  0  0
    5.8696    0.7630    0.4323 H   0  0  0  0  0  0  0  0  0  0  0  0
    4.6580    1.2978   -2.3468 H   0  0  0  0  0  0  0  0  0  0  0  0
    5.1365    2.5313   -1.1652 H   0  0  0  0  0  0  0  0  0  0  0  0
    2.6378    2.0731   -1.1751 H   0  0  0  0  0  0  0  0  0  0  0  0
    3.3992    1.8267    0.4072 H   0  0  0  0  0  0  0  0  0  0  0  0
    1.2850   -2.1054    0.1698 H   0  0  0  0  0  0  0  0  0  0  0  0
   -3.0378   -1.4875   -1.2341 H   0  0  0  0  0  0  0  0  0  0  0  0
   -3.1850   -2.4124    0.2786 H   0  0  0  0  0  0  0  0  0  0  0  0
   -3.1217   -3.5130   -2.5871 H   0  0  0  0  0  0  0  0  0  0  0  0
   -4.4912   -3.5667   -1.4579 H   0  0  0  0  0  0  0  0  0  0  0  0
   -3.1954   -5.7435   -1.7848 H   0  0  0  0  0  0  0  0  0  0  0  0
   -4.6383   -7.1608   -0.4331 H   0  0  0  0  0  0  0  0  0  0  0  0
   -4.2066   -5.2426    3.2593 H   0  0  0  0  0  0  0  0  0  0  0  0
   -0.9720   -4.9683   -1.9910 H   0  0  0  0  0  0  0  0  0  0  0  0
   -1.0042   -5.9160   -0.4893 H   0  0  0  0  0  0  0  0  0  0  0  0
    0.3119   -3.7723   -0.3519 H   0  0  0  0  0  0  0  0  0  0  0  0
   -0.9735   -3.8815    0.8781 H   0  0  0  0  0  0  0  0  0  0  0  0
  1  2  2  0
  1 23  1  0
  1 24  1  0
  2  3  1  0
  3  4  1  0
  3 10  2  0
  4  5  1  0
  4  9  1  0
  5  6  1  0
  5 25  1  0
  5 26  1  0
  6  7  1  0
  6 27  1  0
  6 28  1  0
  7  8  1  0
  7 29  1  0
  7 30  1  0
  8  9  1  0
  8 31  1  0
  8 32  1  0
  9 33  1  0
  9 34  1  0
 10 11  1  0
 10 35  1  0
 11 12  1  0
 11 23  2  0
 12 13  1  0
 12 22  1  0
 13 14  1  0
 13 36  1  0
 13 37  1  0
 14 15  1  0
 14 38  1  0
 14 39  1  0
 15 16  1  0
 15 21  1  0
 15 40  1  6
 16 17  1  0
 16 20  1  0
 17 18  2  0
 17 41  1  0
 18 19  1  0
 19 20  2  0
 19 42  1  0
 21 22  1  0
 21 43  1  0
 21 44  1  0
 22 45  1  0
 22 46  1  0
M  END

