
     RDKit          3D

 48 51  0  0  0  0  0  0  0  0999 V2000
    2.4249    1.0462    0.4035 O   0  0  0  0  0  0  0  0  0  0  0  0
    3.3643    0.2636    0.3035 C   0  0  0  0  0  0  0  0  0  0  0  0
    3.7286   -0.5088    1.3576 N   0  0  0  0  0  0  0  0  0  0  0  0
    3.0457   -0.3508    2.5395 N   0  0  0  0  0  0  0  0  0  0  0  0
    3.4354   -1.0488    3.6285 C   0  0  0  0  0  0  0  0  0  0  0  0
    4.3758   -1.8313    3.6202 O   0  0  0  0  0  0  0  0  0  0  0  0
    2.6032   -0.8005    4.8803 C   0  0  2  0  0  0  0  0  0  0  0  0
    2.0324   -2.1064    5.4310 C   0  0  0  0  0  0  0  0  0  0  0  0
    1.3012   -1.8542    6.6159 O   0  0  0  0  0  0  0  0  0  0  0  0
    0.4387   -0.7963    6.5424 C   0  0  0  0  0  0  0  0  0  0  0  0
   -0.5724   -0.6774    7.5016 C   0  0  0  0  0  0  0  0  0  0  0  0
   -1.4690    0.3906    7.4488 C   0  0  0  0  0  0  0  0  0  0  0  0
   -1.3636    1.3465    6.4313 C   0  0  0  0  0  0  0  0  0  0  0  0
   -0.3498    1.2415    5.4775 C   0  0  0  0  0  0  0  0  0  0  0  0
    0.5546    0.1780    5.5329 C   0  0  0  0  0  0  0  0  0  0  0  0
    1.5524    0.1089    4.5890 O   0  0  0  0  0  0  0  0  0  0  0  0
    4.0842    0.0824   -1.0140 C   0  0  0  0  0  0  0  0  0  0  0  0
    3.3135    0.4739   -2.1254 C   0  0  0  0  0  0  0  0  0  0  0  0
    3.8210    0.4006   -3.4182 C   0  0  0  0  0  0  0  0  0  0  0  0
    2.8078    0.9370   -4.8123 S   0  0  1  0  0  0  0  0  0  0  0  0
    3.4221    0.3919   -6.0225 O   0  0  0  0  0  0  0  0  0  0  0  0
    1.4164    0.6886   -4.4457 O   0  0  0  0  0  0  0  0  0  0  0  0
    3.0123    2.5983   -4.9359 N   0  0  0  0  0  0  0  0  0  0  0  0
    2.6176    3.4954   -3.8852 C   0  0  1  0  0  0  0  0  0  0  0  0
    1.9921    4.8078   -4.3007 C   0  0  0  0  0  0  0  0  0  0  0  0
    1.1456    3.7389   -3.6725 C   0  0  0  0  0  0  0  0  0  0  0  0
    5.1126   -0.0780   -3.6543 C   0  0  0  0  0  0  0  0  0  0  0  0
    5.8949   -0.4654   -2.5694 C   0  0  0  0  0  0  0  0  0  0  0  0
    5.3915   -0.3845   -1.2637 C   0  0  0  0  0  0  0  0  0  0  0  0
    6.6099   -0.9107    0.1151 Br  0  0  0  0  0  0  0  0  0  0  0  0
    4.5139   -1.1555    1.4050 H   0  0  0  0  0  0  0  0  0  0  0  0
    2.2672    0.3044    2.5147 H   0  0  0  0  0  0  0  0  0  0  0  0
    3.2762   -0.3633    5.6430 H   0  0  0  0  0  0  0  0  0  0  0  0
    2.8460   -2.8000    5.6774 H   0  0  0  0  0  0  0  0  0  0  0  0
    1.3811   -2.5714    4.6671 H   0  0  0  0  0  0  0  0  0  0  0  0
   -0.6363   -1.4440    8.2767 H   0  0  0  0  0  0  0  0  0  0  0  0
   -2.2566    0.4723    8.2013 H   0  0  0  0  0  0  0  0  0  0  0  0
   -2.0676    2.1802    6.3823 H   0  0  0  0  0  0  0  0  0  0  0  0
   -0.2352    1.9791    4.6803 H   0  0  0  0  0  0  0  0  0  0  0  0
    2.3000    0.8318   -1.9414 H   0  0  0  0  0  0  0  0  0  0  0  0
    3.8761    2.8171   -5.4301 H   0  0  0  0  0  0  0  0  0  0  0  0
    3.2602    3.5129   -2.9937 H   0  0  0  0  0  0  0  0  0  0  0  0
    1.8807    4.9795   -5.3745 H   0  0  0  0  0  0  0  0  0  0  0  0
    2.2507    5.6948   -3.7160 H   0  0  0  0  0  0  0  0  0  0  0  0
    0.4650    3.1746   -4.3119 H   0  0  0  0  0  0  0  0  0  0  0  0
    0.8068    3.8697   -2.6416 H   0  0  0  0  0  0  0  0  0  0  0  0
    5.4891   -0.1560   -4.6760 H   0  0  0  0  0  0  0  0  0  0  0  0
    6.9079   -0.8370   -2.7304 H   0  0  0  0  0  0  0  0  0  0  0  0
  1  2  2  0
  2  3  1  0
  2 17  1  0
  3  4  1  0
  3 31  1  0
  4  5  1  0
  4 32  1  0
  5  6  2  0
  5  7  1  0
  7  8  1  0
  7 16  1  0
  7 33  1  1
  8  9  1  0
  8 34  1  0
  8 35  1  0
  9 10  1  0
 10 11  2  0
 10 15  1  0
 11 12  1  0
 11 36  1  0
 12 13  2  0
 12 37  1  0
 13 14  1  0
 13 38  1  0
 14 15  2  0
 14 39  1  0
 15 16  1  0
 17 18  2  0
 17 29  1  0
 18 19  1  0
 18 40  1  0
 19 20  1  0
 19 27  2  0
 20 21  2  0
 20 22  2  0
 20 23  1  6
 23 24  1  0
 23 41  1  0
 24 25  1  0
 24 26  1  0
 24 42  1  1
 25 26  1  0
 25 43  1  0
 25 44  1  0
 26 45  1  0
 26 46  1  0
 27 28  1  0
 27 47  1  0
 28 29  2  0
 28 48  1  0
 29 30  1  0
M  END

