
     RDKit          3D

 80 85  0  0  0  0  0  0  0  0999 V2000
    1.8169   -2.6239   -0.6308 O   0  0  0  0  0  0  0  0  0  0  0  0
    2.6788   -2.8553   -1.4341 C   0  0  0  0  0  0  0  0  0  0  0  0
    2.5096   -2.4901   -2.7280 O   0  0  0  0  0  0  0  0  0  0  0  0
    3.9983   -3.5764   -1.1224 C   0  0  1  0  0  0  0  0  0  0  0  0
    5.2407   -2.7428   -1.5254 C   0  0  0  0  0  0  0  0  0  0  0  0
    5.4825   -1.5812   -0.5414 C   0  0  0  0  0  0  0  0  0  0  0  0
    5.5857   -2.0142    0.8448 N   0  0  0  0  0  0  0  0  0  0  0  0
    6.8613   -2.5548    1.2686 C   0  0  0  0  0  0  0  0  0  0  0  0
    8.0044   -1.5257    1.3658 C   0  0  2  0  0  0  0  0  0  0  0  0
    9.2698   -2.2157    1.9424 C   0  0  0  0  0  0  0  0  0  0  0  0
   10.4595   -1.2779    2.2167 C   0  0  0  0  0  0  0  0  0  0  0  0
   10.0796   -0.0476    3.0659 C   0  0  0  0  0  0  0  0  0  0  0  0
    8.9073    0.6166    2.3574 C   0  0  1  0  0  0  0  0  0  0  0  0
    7.7215   -0.3369    2.2737 C   0  0  1  0  0  0  0  0  0  0  0  0
    6.6527    0.5468    1.9116 O   0  0  0  0  0  0  0  0  0  0  0  0
    6.9225    1.7786    2.4208 C   0  0  0  0  0  0  0  0  0  0  0  0
    6.1042    2.6655    2.4294 O   0  0  0  0  0  0  0  0  0  0  0  0
    8.2317    1.8040    2.8937 N   0  0  0  0  0  0  0  0  0  0  0  0
    9.0268    3.0070    3.1986 C   0  0  1  0  0  0  0  0  0  0  0  0
    8.3474    4.3687    2.9428 C   0  0  0  0  0  0  0  0  0  0  0  0
    7.3573    4.8137    4.0326 C   0  0  0  0  0  0  0  0  0  0  0  0
    7.9555    4.7054    5.3656 N   0  0  0  0  0  0  0  0  0  0  0  0
    8.1102    5.7142    6.2537 C   0  0  0  0  0  0  0  0  0  0  0  0
    7.5526    7.0264    6.0063 C   0  0  0  0  0  0  0  0  0  0  0  0
    7.7415    7.9964    7.0111 C   0  0  0  0  0  0  0  0  0  0  0  0
    8.3940    7.7627    8.1219 N   0  0  0  0  0  0  0  0  0  0  0  0
    8.9167    6.4737    8.2706 C   0  0  0  0  0  0  0  0  0  0  0  0
    9.5953    6.2754    9.3770 N   0  0  0  0  0  0  0  0  0  0  0  0
   10.3185    5.0100    9.8392 C   0  0  0  0  0  0  0  0  0  0  0  0
   11.0511    5.1804   11.1086 C   0  0  0  0  0  0  0  0  0  0  0  0
   10.4076    4.9720   12.3883 C   0  0  0  0  0  0  0  0  0  0  0  0
   11.0533    5.2605   13.5703 C   0  0  0  0  0  0  0  0  0  0  0  0
   12.3831    5.7946   13.5848 C   0  0  0  0  0  0  0  0  0  0  0  0
   13.0312    5.9974   12.3261 C   0  0  0  0  0  0  0  0  0  0  0  0
   12.3995    5.7133   11.1349 C   0  0  0  0  0  0  0  0  0  0  0  0
    8.7750    5.4767    7.3802 N   0  0  0  0  0  0  0  0  0  0  0  0
    8.4700    3.3617    5.6583 C   0  0  0  0  0  0  0  0  0  0  0  0
    9.5532    2.9770    4.6493 C   0  0  0  0  0  0  0  0  0  0  0  0
    4.3986   -2.7597    1.2553 C   0  0  0  0  0  0  0  0  0  0  0  0
    4.0862   -3.9746    0.3616 C   0  0  0  0  0  0  0  0  0  0  0  0
    3.2700   -2.7621   -3.2609 H   0  0  0  0  0  0  0  0  0  0  0  0
    3.9797   -4.4931   -1.7422 H   0  0  0  0  0  0  0  0  0  0  0  0
    5.1538   -2.3469   -2.5529 H   0  0  0  0  0  0  0  0  0  0  0  0
    6.1169   -3.4129   -1.5352 H   0  0  0  0  0  0  0  0  0  0  0  0
    4.6490   -0.8590   -0.6133 H   0  0  0  0  0  0  0  0  0  0  0  0
    6.3874   -1.0249   -0.8288 H   0  0  0  0  0  0  0  0  0  0  0  0
    7.2347   -3.3960    0.6379 H   0  0  0  0  0  0  0  0  0  0  0  0
    6.7123   -2.9863    2.2732 H   0  0  0  0  0  0  0  0  0  0  0  0
    8.2399   -1.1399    0.3580 H   0  0  0  0  0  0  0  0  0  0  0  0
    9.5856   -3.0210    1.2600 H   0  0  0  0  0  0  0  0  0  0  0  0
    8.9861   -2.7142    2.8873 H   0  0  0  0  0  0  0  0  0  0  0  0
   10.8796   -0.9275    1.2574 H   0  0  0  0  0  0  0  0  0  0  0  0
   11.2635   -1.8421    2.7150 H   0  0  0  0  0  0  0  0  0  0  0  0
   10.9448    0.6285    3.1533 H   0  0  0  0  0  0  0  0  0  0  0  0
    9.7923   -0.3513    4.0873 H   0  0  0  0  0  0  0  0  0  0  0  0
    9.2454    0.8526    1.3245 H   0  0  0  0  0  0  0  0  0  0  0  0
    7.4978   -0.7172    3.2903 H   0  0  0  0  0  0  0  0  0  0  0  0
    9.8992    2.9648    2.5215 H   0  0  0  0  0  0  0  0  0  0  0  0
    7.8250    4.3799    1.9777 H   0  0  0  0  0  0  0  0  0  0  0  0
    9.1628    5.1096    2.8877 H   0  0  0  0  0  0  0  0  0  0  0  0
    6.4645    4.1734    3.9895 H   0  0  0  0  0  0  0  0  0  0  0  0
    7.0400    5.8419    3.8325 H   0  0  0  0  0  0  0  0  0  0  0  0
    6.9907    7.2758    5.1108 H   0  0  0  0  0  0  0  0  0  0  0  0
    7.3252    9.0010    6.8753 H   0  0  0  0  0  0  0  0  0  0  0  0
    9.6712    7.0704   10.0102 H   0  0  0  0  0  0  0  0  0  0  0  0
   10.9681    4.7459    8.9867 H   0  0  0  0  0  0  0  0  0  0  0  0
    9.5227    4.2468    9.8911 H   0  0  0  0  0  0  0  0  0  0  0  0
    9.3949    4.5519   12.4165 H   0  0  0  0  0  0  0  0  0  0  0  0
   10.5412    5.0660   14.5188 H   0  0  0  0  0  0  0  0  0  0  0  0
   12.8843    6.0349   14.5227 H   0  0  0  0  0  0  0  0  0  0  0  0
   14.0587    6.3772   12.3064 H   0  0  0  0  0  0  0  0  0  0  0  0
   12.9346    5.8668   10.1902 H   0  0  0  0  0  0  0  0  0  0  0  0
    7.6227    2.6587    5.5871 H   0  0  0  0  0  0  0  0  0  0  0  0
    8.8527    3.3550    6.6830 H   0  0  0  0  0  0  0  0  0  0  0  0
    9.9389    1.9805    4.9029 H   0  0  0  0  0  0  0  0  0  0  0  0
   10.3972    3.6809    4.7415 H   0  0  0  0  0  0  0  0  0  0  0  0
    3.5352   -2.0748    1.2311 H   0  0  0  0  0  0  0  0  0  0  0  0
    4.5210   -3.0804    2.3021 H   0  0  0  0  0  0  0  0  0  0  0  0
    3.1404   -4.4376    0.6805 H   0  0  0  0  0  0  0  0  0  0  0  0
    4.8778   -4.7357    0.4720 H   0  0  0  0  0  0  0  0  0  0  0  0
  1  2  2  0
  2  3  1  0
  2  4  1  0
  3 41  1  0
  4  5  1  0
  4 40  1  0
  4 42  1  6
  5  6  1  0
  5 43  1  0
  5 44  1  0
  6  7  1  0
  6 45  1  0
  6 46  1  0
  7  8  1  0
  7 39  1  0
  8  9  1  0
  8 47  1  0
  8 48  1  0
  9 10  1  0
  9 14  1  0
  9 49  1  6
 10 11  1  0
 10 50  1  0
 10 51  1  0
 11 12  1  0
 11 52  1  0
 11 53  1  0
 12 13  1  0
 12 54  1  0
 12 55  1  0
 13 14  1  0
 13 18  1  0
 13 56  1  6
 14 15  1  0
 14 57  1  1
 15 16  1  0
 16 17  2  0
 16 18  1  0
 18 19  1  0
 19 20  1  0
 19 38  1  0
 19 58  1  6
 20 21  1  0
 20 59  1  0
 20 60  1  0
 21 22  1  0
 21 61  1  0
 21 62  1  0
 22 23  1  0
 22 37  1  0
 23 24  2  0
 23 36  1  0
 24 25  1  0
 24 63  1  0
 25 26  2  0
 25 64  1  0
 26 27  1  0
 27 28  1  0
 27 36  2  0
 28 29  1  0
 28 65  1  0
 29 30  1  0
 29 66  1  0
 29 67  1  0
 30 31  2  0
 30 35  1  0
 31 32  1  0
 31 68  1  0
 32 33  2  0
 32 69  1  0
 33 34  1  0
 33 70  1  0
 34 35  2  0
 34 71  1  0
 35 72  1  0
 37 38  1  0
 37 73  1  0
 37 74  1  0
 38 75  1  0
 38 76  1  0
 39 40  1  0
 39 77  1  0
 39 78  1  0
 40 79  1  0
 40 80  1  0
M  END

