
     RDKit          3D

 51 54  0  0  0  0  0  0  0  0999 V2000
    1.3646    0.5044    0.5482 C   0  0  0  0  0  0  0  0  0  0  0  0
    2.7289    0.2397   -0.1361 C   0  0  1  0  0  0  0  0  0  0  0  0
    2.5262    0.2264   -1.6614 C   0  0  0  0  0  0  0  0  0  0  0  0
    3.7151    1.3768    0.2146 C   0  0  0  0  0  0  0  0  0  0  0  0
    4.2144    1.3248    1.6274 C   0  0  0  0  0  0  0  0  0  0  0  0
    4.3616    0.1610    2.2950 C   0  0  0  0  0  0  0  0  0  0  0  0
    4.9079    0.1687    3.6823 C   0  0  0  0  0  0  0  0  0  0  0  0
    4.1749    0.6828    4.7634 C   0  0  0  0  0  0  0  0  0  0  0  0
    4.6599    0.7430    6.0042 N   0  0  0  0  0  0  0  0  0  0  0  0
    5.8973    0.2795    6.1821 C   0  0  0  0  0  0  0  0  0  0  0  0
    6.6957   -0.2263    5.2399 N   0  0  0  0  0  0  0  0  0  0  0  0
    6.2010   -0.2776    4.0034 C   0  0  0  0  0  0  0  0  0  0  0  0
    4.0061   -1.1157    1.6254 C   0  0  0  0  0  0  0  0  0  0  0  0
    4.3740   -2.3524    2.1721 C   0  0  0  0  0  0  0  0  0  0  0  0
    4.1028   -3.5653    1.5202 C   0  0  0  0  0  0  0  0  0  0  0  0
    4.4764   -4.8363    2.2293 C   0  0  0  0  0  0  0  0  0  0  0  0
    4.4222   -4.8462    3.4586 O   0  0  0  0  0  0  0  0  0  0  0  0
    4.8933   -6.0429    1.4525 C   0  0  0  0  0  0  0  0  0  0  0  0
    5.4103   -5.9100    0.1487 C   0  0  0  0  0  0  0  0  0  0  0  0
    5.8371   -7.0102   -0.5899 C   0  0  0  0  0  0  0  0  0  0  0  0
    5.7026   -8.2851   -0.0426 C   0  0  0  0  0  0  0  0  0  0  0  0
    5.1848   -8.4719    1.2441 C   0  0  0  0  0  0  0  0  0  0  0  0
    4.9842   -9.9044    1.6769 C   0  0  0  0  0  0  0  0  0  0  0  0
    5.5398  -10.8275    1.1388 O   0  0  0  0  0  0  0  0  0  0  0  0
    4.0998  -10.1220    2.6714 O   0  0  0  0  0  0  0  0  0  0  0  0
    4.8451   -7.3458    2.0414 C   0  0  0  0  0  0  0  0  0  0  0  0
    4.4225   -7.5244    3.3559 N   0  0  0  0  0  0  0  0  0  0  0  0
    3.3967   -3.5313    0.3099 C   0  0  0  0  0  0  0  0  0  0  0  0
    2.9813   -2.3077   -0.2216 C   0  0  0  0  0  0  0  0  0  0  0  0
    3.2744   -1.0908    0.4035 C   0  0  0  0  0  0  0  0  0  0  0  0
    0.9300    1.4499    0.1832 H   0  0  0  0  0  0  0  0  0  0  0  0
    1.4667    0.5755    1.6413 H   0  0  0  0  0  0  0  0  0  0  0  0
    0.6538   -0.3065    0.3267 H   0  0  0  0  0  0  0  0  0  0  0  0
    2.2356    1.2311   -2.0075 H   0  0  0  0  0  0  0  0  0  0  0  0
    1.7260   -0.4624   -1.9709 H   0  0  0  0  0  0  0  0  0  0  0  0
    3.4493   -0.0598   -2.1898 H   0  0  0  0  0  0  0  0  0  0  0  0
    3.2340    2.3485    0.0142 H   0  0  0  0  0  0  0  0  0  0  0  0
    4.5878    1.3317   -0.4680 H   0  0  0  0  0  0  0  0  0  0  0  0
    4.5207    2.2603    2.1054 H   0  0  0  0  0  0  0  0  0  0  0  0
    3.1565    1.0588    4.6055 H   0  0  0  0  0  0  0  0  0  0  0  0
    6.3005    0.3213    7.2014 H   0  0  0  0  0  0  0  0  0  0  0  0
    6.8596   -0.6782    3.2229 H   0  0  0  0  0  0  0  0  0  0  0  0
    4.8840   -2.3994    3.1342 H   0  0  0  0  0  0  0  0  0  0  0  0
    5.5079   -4.9116   -0.2786 H   0  0  0  0  0  0  0  0  0  0  0  0
    6.2568   -6.8758   -1.5887 H   0  0  0  0  0  0  0  0  0  0  0  0
    5.9879   -9.1786   -0.6016 H   0  0  0  0  0  0  0  0  0  0  0  0
    3.6982   -9.2794    2.9637 H   0  0  0  0  0  0  0  0  0  0  0  0
    4.9690   -8.1984    3.8868 H   0  0  0  0  0  0  0  0  0  0  0  0
    4.3262   -6.6334    3.8507 H   0  0  0  0  0  0  0  0  0  0  0  0
    3.1307   -4.4563   -0.2047 H   0  0  0  0  0  0  0  0  0  0  0  0
    2.4029   -2.3157   -1.1464 H   0  0  0  0  0  0  0  0  0  0  0  0
  2  1  1  1
  1 31  1  0
  1 32  1  0
  1 33  1  0
  2  3  1  0
  2  4  1  0
  2 30  1  0
  3 34  1  0
  3 35  1  0
  3 36  1  0
  4  5  1  0
  4 37  1  0
  4 38  1  0
  5  6  2  0
  5 39  1  0
  6  7  1  0
  6 13  1  0
  7  8  2  0
  7 12  1  0
  8  9  1  0
  8 40  1  0
  9 10  2  0
 10 11  1  0
 10 41  1  0
 11 12  2  0
 12 42  1  0
 13 14  1  0
 13 30  2  0
 14 15  2  0
 14 43  1  0
 15 16  1  0
 15 28  1  0
 16 17  2  0
 16 18  1  0
 18 19  2  0
 18 26  1  0
 19 20  1  0
 19 44  1  0
 20 21  2  0
 20 45  1  0
 21 22  1  0
 21 46  1  0
 22 23  1  0
 22 26  2  0
 23 24  2  0
 23 25  1  0
 25 47  1  0
 26 27  1  0
 27 48  1  0
 27 49  1  0
 28 29  2  0
 28 50  1  0
 29 30  1  0
 29 51  1  0
M  END

