
     RDKit          3D

 30 31  0  0  0  0  0  0  0  0999 V2000
    0.8114    0.2414   -0.5965 C   0  0  0  0  0  0  0  0  0  0  0  0
    2.2766    0.4664   -0.2321 C   0  0  0  0  0  0  0  0  0  0  0  0
    3.1466    0.9791   -1.3815 C   0  0  1  0  0  0  0  0  0  0  0  0
    2.5969    2.6334   -1.9312 Cl  0  0  0  0  0  0  0  0  0  0  0  0
    4.6070    1.0250   -1.0325 C   0  0  0  0  0  0  0  0  0  0  0  0
    5.5240    2.0587   -1.0582 C   0  0  0  0  0  0  0  0  0  0  0  0
    6.6774    1.4841   -0.6260 N   0  0  0  0  0  0  0  0  0  0  0  0
    8.0070    2.0735   -0.4938 C   0  0  0  0  0  0  0  0  0  0  0  0
    8.7169    2.2560   -1.8174 C   0  0  0  0  0  0  0  0  0  0  0  0
    9.5443    1.2627   -2.3604 C   0  0  0  0  0  0  0  0  0  0  0  0
   10.1789    1.4478   -3.5913 C   0  0  0  0  0  0  0  0  0  0  0  0
    9.9907    2.6380   -4.3017 C   0  0  0  0  0  0  0  0  0  0  0  0
    9.1671    3.6419   -3.7855 C   0  0  0  0  0  0  0  0  0  0  0  0
    8.5459    3.4299   -2.5589 C   0  0  0  0  0  0  0  0  0  0  0  0
    7.7415    4.3918   -2.0617 F   0  0  0  0  0  0  0  0  0  0  0  0
    6.4924    0.1812   -0.3597 N   0  0  0  0  0  0  0  0  0  0  0  0
    5.2486   -0.0980   -0.5986 N   0  0  0  0  0  0  0  0  0  0  0  0
    0.2511   -0.1496    0.2669 H   0  0  0  0  0  0  0  0  0  0  0  0
    0.7104   -0.4876   -1.4180 H   0  0  0  0  0  0  0  0  0  0  0  0
    0.3320    1.1784   -0.9180 H   0  0  0  0  0  0  0  0  0  0  0  0
    2.7425   -0.4782    0.0963 H   0  0  0  0  0  0  0  0  0  0  0  0
    2.3667    1.1700    0.6125 H   0  0  0  0  0  0  0  0  0  0  0  0
    3.0054    0.3363   -2.2643 H   0  0  0  0  0  0  0  0  0  0  0  0
    5.4493    3.1029   -1.3429 H   0  0  0  0  0  0  0  0  0  0  0  0
    8.5693    1.3874    0.1521 H   0  0  0  0  0  0  0  0  0  0  0  0
    7.9039    3.0375    0.0233 H   0  0  0  0  0  0  0  0  0  0  0  0
    9.6845    0.3317   -1.8049 H   0  0  0  0  0  0  0  0  0  0  0  0
   10.8208    0.6627   -3.9967 H   0  0  0  0  0  0  0  0  0  0  0  0
   10.4852    2.7885   -5.2643 H   0  0  0  0  0  0  0  0  0  0  0  0
    8.9962    4.5810   -4.3151 H   0  0  0  0  0  0  0  0  0  0  0  0
  1  2  1  0
  1 18  1  0
  1 19  1  0
  1 20  1  0
  2  3  1  0
  2 21  1  0
  2 22  1  0
  3  4  1  0
  3  5  1  0
  3 23  1  6
  5  6  2  0
  5 17  1  0
  6  7  1  0
  6 24  1  0
  7  8  1  0
  7 16  1  0
  8  9  1  0
  8 25  1  0
  8 26  1  0
  9 10  2  0
  9 14  1  0
 10 11  1  0
 10 27  1  0
 11 12  2  0
 11 28  1  0
 12 13  1  0
 12 29  1  0
 13 14  2  0
 13 30  1  0
 14 15  1  0
 16 17  2  0
M  END

