
     RDKit          3D

 51 52  0  0  0  0  0  0  0  0999 V2000
    0.7712   -1.2358    0.5474 C   0  0  0  0  0  0  0  0  0  0  0  0
    1.9472   -1.2386   -0.4090 C   0  0  0  0  0  0  0  0  0  0  0  0
    2.8990   -2.1829    0.0706 O   0  0  0  0  0  0  0  0  0  0  0  0
    4.0465   -2.3992   -0.5885 C   0  0  0  0  0  0  0  0  0  0  0  0
    4.4016   -1.7379   -1.7753 C   0  0  0  0  0  0  0  0  0  0  0  0
    5.6184   -2.0128   -2.4148 C   0  0  0  0  0  0  0  0  0  0  0  0
    5.9937   -1.4018   -3.5557 O   0  0  0  0  0  0  0  0  0  0  0  0
    5.1605   -0.4342   -4.1836 C   0  0  0  0  0  0  0  0  0  0  0  0
    5.8642    0.0485   -5.4365 C   0  0  0  0  0  0  0  0  0  0  0  0
    6.5265   -2.9714   -1.8723 C   0  0  0  0  0  0  0  0  0  0  0  0
    7.7676   -3.2142   -2.5760 C   0  0  0  0  0  0  0  0  0  0  0  0
    8.8135   -4.0543   -2.3244 C   0  0  0  0  0  0  0  0  0  0  0  0
    8.9064   -4.9474   -1.2157 C   0  0  0  0  0  0  0  0  0  0  0  0
    9.0521   -5.7012   -0.3396 N   0  0  0  0  0  0  0  0  0  0  0  0
    9.9632   -4.0354   -3.3172 C   0  0  0  0  0  0  0  0  0  0  0  0
    9.9474   -3.2972   -4.2922 O   0  0  0  0  0  0  0  0  0  0  0  0
   10.9902   -4.8849   -3.0439 N   0  0  0  0  0  0  0  0  0  0  0  0
   12.1586   -5.0013   -3.9167 C   0  0  1  0  0  0  0  0  0  0  0  0
   13.3858   -5.4529   -3.1073 C   0  0  0  0  0  0  0  0  0  0  0  0
   13.3034   -6.9236   -2.6675 C   0  0  0  0  0  0  0  0  0  0  0  0
   13.0395   -7.8561   -3.8585 C   0  0  0  0  0  0  0  0  0  0  0  0
   11.7972   -7.4222   -4.6488 C   0  0  0  0  0  0  0  0  0  0  0  0
   11.9006   -5.9600   -5.0988 C   0  0  0  0  0  0  0  0  0  0  0  0
    6.1427   -3.6209   -0.6767 C   0  0  0  0  0  0  0  0  0  0  0  0
    4.9407   -3.3514   -0.0445 C   0  0  0  0  0  0  0  0  0  0  0  0
    4.4812   -4.2597    1.5609 Br  0  0  0  0  0  0  0  0  0  0  0  0
    0.0115   -0.5145    0.2094 H   0  0  0  0  0  0  0  0  0  0  0  0
    1.0953   -0.9545    1.5606 H   0  0  0  0  0  0  0  0  0  0  0  0
    0.3095   -2.2333    0.5977 H   0  0  0  0  0  0  0  0  0  0  0  0
    2.4136   -0.2378   -0.4660 H   0  0  0  0  0  0  0  0  0  0  0  0
    1.6261   -1.5195   -1.4291 H   0  0  0  0  0  0  0  0  0  0  0  0
    3.7219   -1.0051   -2.2006 H   0  0  0  0  0  0  0  0  0  0  0  0
    4.9746    0.4044   -3.4873 H   0  0  0  0  0  0  0  0  0  0  0  0
    4.1833   -0.8892   -4.4302 H   0  0  0  0  0  0  0  0  0  0  0  0
    6.8341    0.5046   -5.1877 H   0  0  0  0  0  0  0  0  0  0  0  0
    5.2454    0.8004   -5.9501 H   0  0  0  0  0  0  0  0  0  0  0  0
    6.0446   -0.7876   -6.1287 H   0  0  0  0  0  0  0  0  0  0  0  0
    7.9156   -2.6251   -3.4845 H   0  0  0  0  0  0  0  0  0  0  0  0
   10.9252   -5.4812   -2.2264 H   0  0  0  0  0  0  0  0  0  0  0  0
   12.3312   -3.9933   -4.3231 H   0  0  0  0  0  0  0  0  0  0  0  0
   13.5228   -4.7891   -2.2374 H   0  0  0  0  0  0  0  0  0  0  0  0
   14.2751   -5.3203   -3.7475 H   0  0  0  0  0  0  0  0  0  0  0  0
   12.4994   -7.0534   -1.9183 H   0  0  0  0  0  0  0  0  0  0  0  0
   14.2346   -7.2096   -2.1510 H   0  0  0  0  0  0  0  0  0  0  0  0
   12.9325   -8.8974   -3.5112 H   0  0  0  0  0  0  0  0  0  0  0  0
   13.9185   -7.8410   -4.5298 H   0  0  0  0  0  0  0  0  0  0  0  0
   10.8989   -7.5476   -4.0172 H   0  0  0  0  0  0  0  0  0  0  0  0
   11.6499   -8.0779   -5.5231 H   0  0  0  0  0  0  0  0  0  0  0  0
   10.9913   -5.6371   -5.6293 H   0  0  0  0  0  0  0  0  0  0  0  0
   12.7372   -5.8522   -5.8128 H   0  0  0  0  0  0  0  0  0  0  0  0
    6.8042   -4.3600   -0.2270 H   0  0  0  0  0  0  0  0  0  0  0  0
  1  2  1  0
  1 27  1  0
  1 28  1  0
  1 29  1  0
  2  3  1  0
  2 30  1  0
  2 31  1  0
  3  4  1  0
  4  5  2  0
  4 25  1  0
  5  6  1  0
  5 32  1  0
  6  7  1  0
  6 10  2  0
  7  8  1  0
  8  9  1  0
  8 33  1  0
  8 34  1  0
  9 35  1  0
  9 36  1  0
  9 37  1  0
 10 11  1  0
 10 24  1  0
 11 12  2  0
 11 38  1  0
 12 13  1  0
 12 15  1  0
 13 14  3  0
 15 16  2  0
 15 17  1  0
 17 18  1  0
 17 39  1  0
 18 19  1  0
 18 23  1  0
 18 40  1  6
 19 20  1  0
 19 41  1  0
 19 42  1  0
 20 21  1  0
 20 43  1  0
 20 44  1  0
 21 22  1  0
 21 45  1  0
 21 46  1  0
 22 23  1  0
 22 47  1  0
 22 48  1  0
 23 49  1  0
 23 50  1  0
 24 25  2  0
 24 51  1  0
 25 26  1  0
M  END

