
     RDKit          3D

 85 85  0  0  0  0  0  0  0  0999 V2000
   14.0380   -2.9870   -0.0123 C   0  0  0  0  0  0  0  0  0  0  0  0
   14.0846   -2.6781   -1.5089 C   0  0  0  0  0  0  0  0  0  0  0  0
   12.7870   -2.0689   -2.0491 C   0  0  0  0  0  0  0  0  0  0  0  0
   12.8359   -1.7835   -3.5527 C   0  0  0  0  0  0  0  0  0  0  0  0
   11.5418   -1.2346   -4.1388 C   0  0  0  0  0  0  0  0  0  0  0  0
   11.1376    0.0070   -3.5264 O   0  0  0  0  0  0  0  0  0  0  0  0
   11.7097    1.1142   -3.9910 C   0  0  0  0  0  0  0  0  0  0  0  0
   12.5262    1.1952   -4.8675 O   0  0  0  0  0  0  0  0  0  0  0  0
   11.1868    2.1596   -3.3022 O   0  0  0  0  0  0  0  0  0  0  0  0
   11.7326    3.4122   -3.5262 C   0  0  0  0  0  0  0  0  0  0  0  0
   11.2468    4.2462   -4.5275 C   0  0  0  0  0  0  0  0  0  0  0  0
   11.7836    5.5273   -4.6781 C   0  0  0  0  0  0  0  0  0  0  0  0
   12.8115    5.9896   -3.8416 C   0  0  0  0  0  0  0  0  0  0  0  0
   13.3717    7.3880   -4.0190 C   0  0  0  0  0  0  0  0  0  0  0  0
   13.0844    8.3792   -2.8576 C   0  0  2  0  0  0  0  0  0  0  0  0
   12.2067    8.0146   -2.2941 H   0  0  0  0  0  0  0  0  0  0  0  0
   12.7813    9.7534   -3.2669 N   0  0  0  0  0  0  0  0  0  0  0  0
   11.3979   10.0142   -3.6514 C   0  0  0  0  0  0  0  0  0  0  0  0
   11.2144   11.3749   -4.3241 C   0  0  1  0  0  0  0  0  0  0  0  0
    9.7549   11.6738   -4.6334 C   0  0  0  0  0  0  0  0  0  0  0  0
   11.6927   12.4362   -3.4695 O   0  0  0  0  0  0  0  0  0  0  0  0
   12.9563   12.8841   -3.6432 C   0  0  0  0  0  0  0  0  0  0  0  0
   13.7321   12.3970   -4.4348 O   0  0  0  0  0  0  0  0  0  0  0  0
   13.2663   14.0303   -2.7094 C   0  0  0  0  0  0  0  0  0  0  0  0
   13.8702   13.5653   -1.3589 C   0  0  1  0  0  0  0  0  0  0  0  0
   15.2587   12.9386   -1.5311 C   0  0  0  0  0  0  0  0  0  0  0  0
   13.9075   14.7378   -0.3717 C   0  0  0  0  0  0  0  0  0  0  0  0
   14.2283    8.4266   -1.8146 C   0  0  0  0  0  0  0  0  0  0  0  0
   14.9420    7.4916   -1.5544 O   0  0  0  0  0  0  0  0  0  0  0  0
   14.3179    9.6075   -1.2043 O   0  0  0  0  0  0  0  0  0  0  0  0
   13.2951    5.1341   -2.8381 C   0  0  0  0  0  0  0  0  0  0  0  0
   12.7574    3.8608   -2.6863 C   0  0  0  0  0  0  0  0  0  0  0  0
   13.2679    2.9950   -1.7327 O   0  0  0  0  0  0  0  0  0  0  0  0
   12.6314    2.9460   -0.5357 C   0  0  0  0  0  0  0  0  0  0  0  0
   11.7011    3.6301   -0.2095 O   0  0  0  0  0  0  0  0  0  0  0  0
   13.2354    2.0176    0.2016 O   0  0  0  0  0  0  0  0  0  0  0  0
   12.7323    1.8455    1.5410 C   0  0  0  0  0  0  0  0  0  0  0  0
   13.6933    0.9511    2.3029 C   0  0  0  0  0  0  0  0  0  0  0  0
   15.0905    1.5478    2.4949 C   0  0  0  0  0  0  0  0  0  0  0  0
   16.0459    0.6325    3.2661 C   0  0  0  0  0  0  0  0  0  0  0  0
   17.4419    1.2287    3.4510 C   0  0  0  0  0  0  0  0  0  0  0  0
   14.9850   -3.4258    0.3403 H   0  0  0  0  0  0  0  0  0  0  0  0
   13.2313   -3.7004    0.2263 H   0  0  0  0  0  0  0  0  0  0  0  0
   13.8548   -2.0741    0.5786 H   0  0  0  0  0  0  0  0  0  0  0  0
   14.3121   -3.6043   -2.0682 H   0  0  0  0  0  0  0  0  0  0  0  0
   14.9221   -1.9885   -1.7184 H   0  0  0  0  0  0  0  0  0  0  0  0
   12.5671   -1.1328   -1.5067 H   0  0  0  0  0  0  0  0  0  0  0  0
   11.9438   -2.7517   -1.8326 H   0  0  0  0  0  0  0  0  0  0  0  0
   13.0656   -2.7146   -4.1026 H   0  0  0  0  0  0  0  0  0  0  0  0
   13.6559   -1.0831   -3.7843 H   0  0  0  0  0  0  0  0  0  0  0  0
   10.6991   -1.9153   -3.9471 H   0  0  0  0  0  0  0  0  0  0  0  0
   11.6415   -1.0790   -5.2232 H   0  0  0  0  0  0  0  0  0  0  0  0
   10.4497    3.8852   -5.1800 H   0  0  0  0  0  0  0  0  0  0  0  0
   11.3976    6.1751   -5.4699 H   0  0  0  0  0  0  0  0  0  0  0  0
   12.9375    7.8168   -4.9357 H   0  0  0  0  0  0  0  0  0  0  0  0
   14.4613    7.3360   -4.1759 H   0  0  0  0  0  0  0  0  0  0  0  0
   13.4245   10.0781   -3.9922 H   0  0  0  0  0  0  0  0  0  0  0  0
   10.7658    9.9626   -2.7473 H   0  0  0  0  0  0  0  0  0  0  0  0
   11.0049    9.2540   -4.3581 H   0  0  0  0  0  0  0  0  0  0  0  0
   11.8147   11.3988   -5.2476 H   0  0  0  0  0  0  0  0  0  0  0  0
    9.1560   11.7022   -3.7097 H   0  0  0  0  0  0  0  0  0  0  0  0
    9.3345   10.9036   -5.2980 H   0  0  0  0  0  0  0  0  0  0  0  0
    9.6622   12.6485   -5.1339 H   0  0  0  0  0  0  0  0  0  0  0  0
   12.3377   14.5892   -2.5216 H   0  0  0  0  0  0  0  0  0  0  0  0
   13.9812   14.6924   -3.2229 H   0  0  0  0  0  0  0  0  0  0  0  0
   13.1890   12.7992   -0.9443 H   0  0  0  0  0  0  0  0  0  0  0  0
   15.9809   13.6876   -1.8981 H   0  0  0  0  0  0  0  0  0  0  0  0
   15.2531   12.1060   -2.2485 H   0  0  0  0  0  0  0  0  0  0  0  0
   15.6323   12.5479   -0.5719 H   0  0  0  0  0  0  0  0  0  0  0  0
   14.5471   15.5525   -0.7523 H   0  0  0  0  0  0  0  0  0  0  0  0
   14.3170   14.4202    0.6003 H   0  0  0  0  0  0  0  0  0  0  0  0
   12.9025   15.1541   -0.1951 H   0  0  0  0  0  0  0  0  0  0  0  0
   13.6741   10.1790   -1.6955 H   0  0  0  0  0  0  0  0  0  0  0  0
   14.0922    5.4664   -2.1709 H   0  0  0  0  0  0  0  0  0  0  0  0
   11.7243    1.4034    1.4834 H   0  0  0  0  0  0  0  0  0  0  0  0
   12.6333    2.8364    2.0123 H   0  0  0  0  0  0  0  0  0  0  0  0
   13.7659   -0.0198    1.7820 H   0  0  0  0  0  0  0  0  0  0  0  0
   13.2344    0.7399    3.2852 H   0  0  0  0  0  0  0  0  0  0  0  0
   15.0027    2.5155    3.0236 H   0  0  0  0  0  0  0  0  0  0  0  0
   15.5201    1.7806    1.5054 H   0  0  0  0  0  0  0  0  0  0  0  0
   16.1252   -0.3352    2.7379 H   0  0  0  0  0  0  0  0  0  0  0  0
   15.6098    0.3987    4.2548 H   0  0  0  0  0  0  0  0  0  0  0  0
   17.9179    1.4408    2.4791 H   0  0  0  0  0  0  0  0  0  0  0  0
   18.1047    0.5445    4.0046 H   0  0  0  0  0  0  0  0  0  0  0  0
   17.4016    2.1784    4.0105 H   0  0  0  0  0  0  0  0  0  0  0  0
  1  2  1  0
  1 42  1  0
  1 43  1  0
  1 44  1  0
  2  3  1  0
  2 45  1  0
  2 46  1  0
  3  4  1  0
  3 47  1  0
  3 48  1  0
  4  5  1  0
  4 49  1  0
  4 50  1  0
  5  6  1  0
  5 51  1  0
  5 52  1  0
  6  7  1  0
  7  8  2  0
  7  9  1  0
  9 10  1  0
 10 11  2  0
 10 32  1  0
 11 12  1  0
 11 53  1  0
 12 13  2  0
 12 54  1  0
 13 14  1  0
 13 31  1  0
 14 15  1  0
 14 55  1  0
 14 56  1  0
 15 16  1  1
 15 17  1  0
 15 28  1  0
 17 18  1  0
 17 57  1  0
 18 19  1  0
 18 58  1  0
 18 59  1  0
 19 20  1  0
 19 21  1  0
 19 60  1  6
 20 61  1  0
 20 62  1  0
 20 63  1  0
 21 22  1  0
 22 23  2  0
 22 24  1  0
 24 25  1  0
 24 64  1  0
 24 65  1  0
 25 26  1  0
 25 27  1  0
 25 66  1  1
 26 67  1  0
 26 68  1  0
 26 69  1  0
 27 70  1  0
 27 71  1  0
 27 72  1  0
 28 29  2  0
 28 30  1  0
 30 73  1  0
 31 32  2  0
 31 74  1  0
 32 33  1  0
 33 34  1  0
 34 35  2  0
 34 36  1  0
 36 37  1  0
 37 38  1  0
 37 75  1  0
 37 76  1  0
 38 39  1  0
 38 77  1  0
 38 78  1  0
 39 40  1  0
 39 79  1  0
 39 80  1  0
 40 41  1  0
 40 81  1  0
 40 82  1  0
 41 83  1  0
 41 84  1  0
 41 85  1  0
M  END

