
     RDKit          3D

 95101  0  0  0  0  0  0  0  0999 V2000
    2.2625   -0.0815    2.4752 C   0  0  0  0  0  0  0  0  0  0  0  0
    3.1231   -0.1333    1.2358 C   0  0  0  0  0  0  0  0  0  0  0  0
    3.1803    0.9310    0.3307 C   0  0  0  0  0  0  0  0  0  0  0  0
    3.9846    0.8623   -0.8117 C   0  0  0  0  0  0  0  0  0  0  0  0
    4.7639   -0.2660   -1.1001 C   0  0  0  0  0  0  0  0  0  0  0  0
    5.6406   -0.3582   -2.3377 C   0  0  0  0  0  0  0  0  0  0  0  0
    5.6483    0.8569   -3.2671 C   0  0  0  0  0  0  0  0  0  0  0  0
    6.5641    0.6858   -4.4838 C   0  0  0  0  0  0  0  0  0  0  0  0
    6.5747    1.9049   -5.4104 C   0  0  0  0  0  0  0  0  0  0  0  0
    7.4877    1.7616   -6.6320 C   0  0  0  0  0  0  0  0  0  0  0  0
    7.4869    2.9918   -7.5441 C   0  0  0  0  0  0  0  0  0  0  0  0
    8.3978    2.8647   -8.7689 C   0  0  0  0  0  0  0  0  0  0  0  0
    8.3911    4.1020   -9.6717 C   0  0  0  0  0  0  0  0  0  0  0  0
    9.2996    3.9726  -10.9001 C   0  0  0  0  0  0  0  0  0  0  0  0
    9.2932    5.2192  -11.7835 C   0  0  0  0  0  0  0  0  0  0  0  0
   10.2937    5.0815  -13.3190 S   0  0  0  0  0  0  0  0  0  0  0  0
    4.7142   -1.3516   -0.1879 C   0  0  0  0  0  0  0  0  0  0  0  0
    5.5133   -2.5978   -0.4064 C   0  0  0  0  0  0  0  0  0  0  0  0
    6.8448   -2.6798    0.1037 C   0  0  0  0  0  0  0  0  0  0  0  0
    7.4485   -1.5873    0.7764 C   0  0  0  0  0  0  0  0  0  0  0  0
    8.7823   -1.6294    1.2110 C   0  0  0  0  0  0  0  0  0  0  0  0
    9.5497   -2.7648    0.9617 C   0  0  0  0  0  0  0  0  0  0  0  0
    8.9756   -3.8678    0.3030 C   0  0  0  0  0  0  0  0  0  0  0  0
    7.6191   -3.8852   -0.0958 C   0  0  0  0  0  0  0  0  0  0  0  0
    7.0120   -5.0261   -0.7390 C   0  0  0  0  0  0  0  0  0  0  0  0
    7.7731   -6.2790   -0.8769 C   0  0  0  0  0  0  0  0  0  0  0  0
    8.3575   -6.9025    0.2586 C   0  0  0  0  0  0  0  0  0  0  0  0
    9.0649   -8.0961    0.1591 C   0  0  0  0  0  0  0  0  0  0  0  0
    9.2302   -8.6933   -1.1002 C   0  0  0  0  0  0  0  0  0  0  0  0
    8.6669   -8.0851   -2.2478 C   0  0  0  0  0  0  0  0  0  0  0  0
    7.9425   -6.9085   -2.1400 C   0  0  0  0  0  0  0  0  0  0  0  0
    8.9887   -8.8972   -3.5049 C   0  0  1  0  0  0  0  0  0  0  0  0
    7.7021   -9.4037   -4.1919 C   0  0  0  0  0  0  0  0  0  0  0  0
    9.8350   -8.0755   -4.5018 C   0  0  0  0  0  0  0  0  0  0  0  0
    9.7959  -10.0535   -2.9105 C   0  0  0  0  0  0  0  0  0  0  0  0
   10.3716  -11.1424   -3.5588 C   0  0  0  0  0  0  0  0  0  0  0  0
   11.0764  -12.0942   -2.8062 C   0  0  0  0  0  0  0  0  0  0  0  0
   11.2033  -11.9533   -1.4168 C   0  0  0  0  0  0  0  0  0  0  0  0
   10.6299  -10.8631   -0.7575 C   0  0  0  0  0  0  0  0  0  0  0  0
    9.9237   -9.9118   -1.5080 C   0  0  0  0  0  0  0  0  0  0  0  0
    5.6589   -4.9398   -1.2371 C   0  0  0  0  0  0  0  0  0  0  0  0
    4.9791   -6.0437   -1.8012 C   0  0  0  0  0  0  0  0  0  0  0  0
    3.6694   -5.9415   -2.3052 C   0  0  0  0  0  0  0  0  0  0  0  0
    2.9880   -4.7291   -2.2266 C   0  0  0  0  0  0  0  0  0  0  0  0
    3.6070   -3.6278   -1.6163 C   0  0  0  0  0  0  0  0  0  0  0  0
    4.9238   -3.7013   -1.0952 C   0  0  0  0  0  0  0  0  0  0  0  0
    3.9020   -1.2664    0.9516 C   0  0  0  0  0  0  0  0  0  0  0  0
    1.7170    0.8712    2.5486 H   0  0  0  0  0  0  0  0  0  0  0  0
    2.8682   -0.1936    3.3902 H   0  0  0  0  0  0  0  0  0  0  0  0
    1.5190   -0.8962    2.4826 H   0  0  0  0  0  0  0  0  0  0  0  0
    2.5880    1.8319    0.5158 H   0  0  0  0  0  0  0  0  0  0  0  0
    3.9972    1.7168   -1.4902 H   0  0  0  0  0  0  0  0  0  0  0  0
    5.3377   -1.2510   -2.9140 H   0  0  0  0  0  0  0  0  0  0  0  0
    6.6760   -0.5707   -2.0167 H   0  0  0  0  0  0  0  0  0  0  0  0
    5.9649    1.7537   -2.7044 H   0  0  0  0  0  0  0  0  0  0  0  0
    4.6217    1.0664   -3.6180 H   0  0  0  0  0  0  0  0  0  0  0  0
    6.2523   -0.2077   -5.0559 H   0  0  0  0  0  0  0  0  0  0  0  0
    7.5944    0.4764   -4.1412 H   0  0  0  0  0  0  0  0  0  0  0  0
    6.8803    2.7968   -4.8319 H   0  0  0  0  0  0  0  0  0  0  0  0
    5.5427    2.1113   -5.7505 H   0  0  0  0  0  0  0  0  0  0  0  0
    7.1826    0.8731   -7.2157 H   0  0  0  0  0  0  0  0  0  0  0  0
    8.5210    1.5569   -6.2950 H   0  0  0  0  0  0  0  0  0  0  0  0
    7.7888    3.8792   -6.9568 H   0  0  0  0  0  0  0  0  0  0  0  0
    6.4526    3.1949   -7.8791 H   0  0  0  0  0  0  0  0  0  0  0  0
    8.0957    1.9805   -9.3603 H   0  0  0  0  0  0  0  0  0  0  0  0
    9.4328    2.6618   -8.4362 H   0  0  0  0  0  0  0  0  0  0  0  0
    8.6953    4.9857   -9.0803 H   0  0  0  0  0  0  0  0  0  0  0  0
    7.3558    4.3056  -10.0028 H   0  0  0  0  0  0  0  0  0  0  0  0
    8.9947    3.1021  -11.5063 H   0  0  0  0  0  0  0  0  0  0  0  0
   10.3346    3.7657  -10.5720 H   0  0  0  0  0  0  0  0  0  0  0  0
    9.6176    6.1088  -11.2201 H   0  0  0  0  0  0  0  0  0  0  0  0
    8.2743    5.4308  -12.1469 H   0  0  0  0  0  0  0  0  0  0  0  0
   11.4970    4.9538  -12.7115 H   0  0  0  0  0  0  0  0  0  0  0  0
    6.8556   -0.6887    0.9518 H   0  0  0  0  0  0  0  0  0  0  0  0
    9.2124   -0.7681    1.7277 H   0  0  0  0  0  0  0  0  0  0  0  0
   10.5980   -2.8067    1.2671 H   0  0  0  0  0  0  0  0  0  0  0  0
    9.6064   -4.7286    0.0832 H   0  0  0  0  0  0  0  0  0  0  0  0
    8.2121   -6.4449    1.2392 H   0  0  0  0  0  0  0  0  0  0  0  0
    9.4772   -8.5619    1.0579 H   0  0  0  0  0  0  0  0  0  0  0  0
    7.5224   -6.4315   -3.0286 H   0  0  0  0  0  0  0  0  0  0  0  0
    7.0966   -8.5594   -4.5590 H   0  0  0  0  0  0  0  0  0  0  0  0
    7.0849   -9.9920   -3.4960 H   0  0  0  0  0  0  0  0  0  0  0  0
    7.9461  -10.0422   -5.0561 H   0  0  0  0  0  0  0  0  0  0  0  0
    9.2680   -7.2053   -4.8694 H   0  0  0  0  0  0  0  0  0  0  0  0
   10.1152   -8.6883   -5.3737 H   0  0  0  0  0  0  0  0  0  0  0  0
   10.7591   -7.7082   -4.0304 H   0  0  0  0  0  0  0  0  0  0  0  0
   10.2816  -11.2630   -4.6420 H   0  0  0  0  0  0  0  0  0  0  0  0
   11.5311  -12.9526   -3.3072 H   0  0  0  0  0  0  0  0  0  0  0  0
   11.7558  -12.7036   -0.8453 H   0  0  0  0  0  0  0  0  0  0  0  0
   10.7315  -10.7572    0.3256 H   0  0  0  0  0  0  0  0  0  0  0  0
    5.4740   -7.0135   -1.8346 H   0  0  0  0  0  0  0  0  0  0  0  0
    3.1937   -6.8199   -2.7480 H   0  0  0  0  0  0  0  0  0  0  0  0
    1.9726   -4.6334   -2.6186 H   0  0  0  0  0  0  0  0  0  0  0  0
    3.0593   -2.6893   -1.5226 H   0  0  0  0  0  0  0  0  0  0  0  0
    3.8808   -2.1171    1.6395 H   0  0  0  0  0  0  0  0  0  0  0  0
  1  2  1  0
  1 48  1  0
  1 49  1  0
  1 50  1  0
  2  3  2  0
  2 47  1  0
  3  4  1  0
  3 51  1  0
  4  5  2  0
  4 52  1  0
  5  6  1  0
  5 17  1  0
  6  7  1  0
  6 53  1  0
  6 54  1  0
  7  8  1  0
  7 55  1  0
  7 56  1  0
  8  9  1  0
  8 57  1  0
  8 58  1  0
  9 10  1  0
  9 59  1  0
  9 60  1  0
 10 11  1  0
 10 61  1  0
 10 62  1  0
 11 12  1  0
 11 63  1  0
 11 64  1  0
 12 13  1  0
 12 65  1  0
 12 66  1  0
 13 14  1  0
 13 67  1  0
 13 68  1  0
 14 15  1  0
 14 69  1  0
 14 70  1  0
 15 16  1  0
 15 71  1  0
 15 72  1  0
 16 73  1  0
 17 18  1  0
 17 47  2  0
 18 19  1  0
 18 46  2  0
 19 20  2  0
 19 24  1  0
 20 21  1  0
 20 74  1  0
 21 22  2  0
 21 75  1  0
 22 23  1  0
 22 76  1  0
 23 24  2  0
 23 77  1  0
 24 25  1  0
 25 26  1  0
 25 41  2  0
 26 27  2  0
 26 31  1  0
 27 28  1  0
 27 78  1  0
 28 29  2  0
 28 79  1  0
 29 30  1  0
 29 40  1  0
 30 31  2  0
 30 32  1  0
 31 80  1  0
 32 33  1  6
 32 34  1  0
 32 35  1  0
 33 81  1  0
 33 82  1  0
 33 83  1  0
 34 84  1  0
 34 85  1  0
 34 86  1  0
 35 36  1  0
 35 40  2  0
 36 37  2  0
 36 87  1  0
 37 38  1  0
 37 88  1  0
 38 39  2  0
 38 89  1  0
 39 40  1  0
 39 90  1  0
 41 42  1  0
 41 46  1  0
 42 43  2  0
 42 91  1  0
 43 44  1  0
 43 92  1  0
 44 45  2  0
 44 93  1  0
 45 46  1  0
 45 94  1  0
 47 95  1  0
M  END

