
     RDKit          3D

 56 58  0  0  0  0  0  0  0  0999 V2000
    3.8372    1.5991    4.4618 C   0  0  0  0  0  0  0  0  0  0  0  0
    3.8190    0.0866    4.2304 C   0  0  0  0  0  0  0  0  0  0  0  0
    5.0958   -0.5678    4.5101 N   0  0  0  0  0  0  0  0  0  0  0  0
    5.3137   -1.0802    5.8542 C   0  0  0  0  0  0  0  0  0  0  0  0
    4.9258   -2.5515    6.0375 C   0  0  0  0  0  0  0  0  0  0  0  0
    6.0505   -0.6714    3.5211 C   0  0  0  0  0  0  0  0  0  0  0  0
    7.2848   -1.3554    3.7150 C   0  0  0  0  0  0  0  0  0  0  0  0
    8.1961   -1.4034    2.6721 C   0  0  0  0  0  0  0  0  0  0  0  0
    7.8995   -0.7934    1.4373 C   0  0  0  0  0  0  0  0  0  0  0  0
    8.8586   -0.8408    0.2686 C   0  0  0  0  0  0  0  0  0  0  0  0
    8.9975   -2.1538   -0.3545 N   0  0  0  0  0  0  0  0  0  0  0  0
    9.9485   -3.0486    0.0998 C   0  0  0  0  0  0  0  0  0  0  0  0
   10.7952   -2.7520    0.9331 O   0  0  0  0  0  0  0  0  0  0  0  0
    9.8668   -4.3002   -0.4762 N   0  0  0  0  0  0  0  0  0  0  0  0
   10.8226   -5.3492   -0.1939 C   0  0  1  0  0  0  0  0  0  0  0  0
   11.4230   -4.9827    0.6489 H   0  0  0  0  0  0  0  0  0  0  0  0
   10.1852   -6.7255    0.1555 C   0  0  0  0  0  0  0  0  0  0  0  0
   11.0278   -7.7632   -0.6189 C   0  0  0  0  0  0  0  0  0  0  0  0
   12.2136   -7.0265   -1.0248 N   0  0  0  0  0  0  0  0  0  0  0  0
   13.0716   -7.6504   -2.0107 C   0  0  0  0  0  0  0  0  0  0  0  0
   14.3054   -6.7796   -2.2700 C   0  0  0  0  0  0  0  0  0  0  0  0
   13.9062   -5.3443   -2.6377 C   0  0  0  0  0  0  0  0  0  0  0  0
   12.9600   -4.7515   -1.5842 C   0  0  0  0  0  0  0  0  0  0  0  0
   11.7714   -5.6828   -1.3627 C   0  0  2  0  0  0  0  0  0  0  0  0
   11.1609   -5.6967   -2.3062 H   0  0  0  0  0  0  0  0  0  0  0  0
    6.6581   -0.1591    1.3522 C   0  0  0  0  0  0  0  0  0  0  0  0
    5.7685   -0.0910    2.3422 N   0  0  0  0  0  0  0  0  0  0  0  0
    2.8406    2.0310    4.2724 H   0  0  0  0  0  0  0  0  0  0  0  0
    4.5545    2.0780    3.7790 H   0  0  0  0  0  0  0  0  0  0  0  0
    4.1219    1.8487    5.4973 H   0  0  0  0  0  0  0  0  0  0  0  0
    3.5482   -0.1185    3.1860 H   0  0  0  0  0  0  0  0  0  0  0  0
    3.0541   -0.3869    4.8690 H   0  0  0  0  0  0  0  0  0  0  0  0
    4.7270   -0.4567    6.5487 H   0  0  0  0  0  0  0  0  0  0  0  0
    6.3660   -0.9264    6.1427 H   0  0  0  0  0  0  0  0  0  0  0  0
    3.8629   -2.7119    5.7965 H   0  0  0  0  0  0  0  0  0  0  0  0
    5.0895   -2.8707    7.0799 H   0  0  0  0  0  0  0  0  0  0  0  0
    5.5201   -3.2070    5.3821 H   0  0  0  0  0  0  0  0  0  0  0  0
    7.5225   -1.8440    4.6591 H   0  0  0  0  0  0  0  0  0  0  0  0
    9.1517   -1.9204    2.7975 H   0  0  0  0  0  0  0  0  0  0  0  0
    9.8684   -0.5507    0.5914 H   0  0  0  0  0  0  0  0  0  0  0  0
    8.5356   -0.1226   -0.5030 H   0  0  0  0  0  0  0  0  0  0  0  0
    8.1614   -2.5372   -0.7821 H   0  0  0  0  0  0  0  0  0  0  0  0
    9.2598   -4.4249   -1.2786 H   0  0  0  0  0  0  0  0  0  0  0  0
    9.1293   -6.7531   -0.1545 H   0  0  0  0  0  0  0  0  0  0  0  0
   10.2066   -6.9016    1.2409 H   0  0  0  0  0  0  0  0  0  0  0  0
   10.4593   -8.1383   -1.5023 H   0  0  0  0  0  0  0  0  0  0  0  0
   11.2999   -8.6450   -0.0152 H   0  0  0  0  0  0  0  0  0  0  0  0
   12.5258   -7.8180   -2.9727 H   0  0  0  0  0  0  0  0  0  0  0  0
   13.3734   -8.6463   -1.6439 H   0  0  0  0  0  0  0  0  0  0  0  0
   14.9165   -7.2314   -3.0690 H   0  0  0  0  0  0  0  0  0  0  0  0
   14.9236   -6.7655   -1.3557 H   0  0  0  0  0  0  0  0  0  0  0  0
   13.4009   -5.3475   -3.6215 H   0  0  0  0  0  0  0  0  0  0  0  0
   14.8025   -4.7122   -2.7505 H   0  0  0  0  0  0  0  0  0  0  0  0
   12.6048   -3.7534   -1.8885 H   0  0  0  0  0  0  0  0  0  0  0  0
   13.4938   -4.6268   -0.6267 H   0  0  0  0  0  0  0  0  0  0  0  0
    6.3676    0.3387    0.4160 H   0  0  0  0  0  0  0  0  0  0  0  0
  1  2  1  0
  1 28  1  0
  1 29  1  0
  1 30  1  0
  2  3  1  0
  2 31  1  0
  2 32  1  0
  3  4  1  0
  3  6  1  0
  4  5  1  0
  4 33  1  0
  4 34  1  0
  5 35  1  0
  5 36  1  0
  5 37  1  0
  6  7  2  0
  6 27  1  0
  7  8  1  0
  7 38  1  0
  8  9  2  0
  8 39  1  0
  9 10  1  0
  9 26  1  0
 10 11  1  0
 10 40  1  0
 10 41  1  0
 11 12  1  0
 11 42  1  0
 12 13  2  0
 12 14  1  0
 14 15  1  0
 14 43  1  0
 15 16  1  1
 15 17  1  0
 15 24  1  0
 17 18  1  0
 17 44  1  0
 17 45  1  0
 18 19  1  0
 18 46  1  0
 18 47  1  0
 19 20  1  0
 19 24  1  0
 20 21  1  0
 20 48  1  0
 20 49  1  0
 21 22  1  0
 21 50  1  0
 21 51  1  0
 22 23  1  0
 22 52  1  0
 22 53  1  0
 23 24  1  0
 23 54  1  0
 23 55  1  0
 24 25  1  6
 26 27  2  0
 26 56  1  0
M  END

