
     RDKit          3D

 41 43  0  0  0  0  0  0  0  0999 V2000
    2.1504   -1.7893    0.0994 N   0  0  0  0  0  0  0  0  0  0  0  0
    3.2778   -1.0788    0.4845 C   0  0  0  0  0  0  0  0  0  0  0  0
    3.5595   -0.0022   -0.0213 O   0  0  0  0  0  0  0  0  0  0  0  0
    4.0644   -1.6757    1.4605 N   0  0  0  0  0  0  0  0  0  0  0  0
    4.1347   -3.1204    1.6778 C   0  0  0  0  0  0  0  0  0  0  0  0
    5.3162   -3.7360    0.9130 C   0  0  0  0  0  0  0  0  0  0  0  0
    6.6330   -3.0143    1.2279 C   0  0  0  0  0  0  0  0  0  0  0  0
    6.5004   -1.4966    1.0388 C   0  0  2  0  0  0  0  0  0  0  0  0
    7.7644   -0.7559    1.4741 C   0  0  0  0  0  0  0  0  0  0  0  0
    8.5201   -1.1853    2.3315 O   0  0  0  0  0  0  0  0  0  0  0  0
    7.9638    0.4432    0.8432 N   0  0  0  0  0  0  0  0  0  0  0  0
    9.0409    1.3471    1.2166 C   0  0  0  0  0  0  0  0  0  0  0  0
    8.5645    2.5844    1.9054 C   0  0  0  0  0  0  0  0  0  0  0  0
    8.7306    3.0676    3.1687 C   0  0  0  0  0  0  0  0  0  0  0  0
    8.0085    4.3177    3.2258 C   0  0  0  0  0  0  0  0  0  0  0  0
    7.7731    5.3054    4.1982 C   0  0  0  0  0  0  0  0  0  0  0  0
    6.9884    6.4048    3.8524 C   0  0  0  0  0  0  0  0  0  0  0  0
    6.4373    6.5352    2.5613 C   0  0  0  0  0  0  0  0  0  0  0  0
    6.6569    5.5678    1.5784 C   0  0  0  0  0  0  0  0  0  0  0  0
    7.4436    4.4782    1.9425 C   0  0  0  0  0  0  0  0  0  0  0  0
    7.7871    3.4262    1.1454 O   0  0  0  0  0  0  0  0  0  0  0  0
    5.2830   -0.9744    1.8397 C   0  0  0  0  0  0  0  0  0  0  0  0
    1.5328   -1.2404   -0.4886 H   0  0  0  0  0  0  0  0  0  0  0  0
    1.6738   -2.3595    0.7886 H   0  0  0  0  0  0  0  0  0  0  0  0
    3.1959   -3.5994    1.3729 H   0  0  0  0  0  0  0  0  0  0  0  0
    4.2541   -3.3023    2.7615 H   0  0  0  0  0  0  0  0  0  0  0  0
    5.1009   -3.6730   -0.1684 H   0  0  0  0  0  0  0  0  0  0  0  0
    5.3978   -4.8077    1.1610 H   0  0  0  0  0  0  0  0  0  0  0  0
    7.4467   -3.4076    0.5972 H   0  0  0  0  0  0  0  0  0  0  0  0
    6.9374   -3.2032    2.2708 H   0  0  0  0  0  0  0  0  0  0  0  0
    6.3036   -1.2689   -0.0234 H   0  0  0  0  0  0  0  0  0  0  0  0
    7.2649    0.7777    0.1891 H   0  0  0  0  0  0  0  0  0  0  0  0
    9.6165    1.6274    0.3164 H   0  0  0  0  0  0  0  0  0  0  0  0
    9.7047    0.7891    1.8893 H   0  0  0  0  0  0  0  0  0  0  0  0
    9.2970    2.5876    3.9639 H   0  0  0  0  0  0  0  0  0  0  0  0
    8.1943    5.2133    5.2022 H   0  0  0  0  0  0  0  0  0  0  0  0
    6.7937    7.1826    4.5950 H   0  0  0  0  0  0  0  0  0  0  0  0
    5.8261    7.4096    2.3247 H   0  0  0  0  0  0  0  0  0  0  0  0
    6.2369    5.6525    0.5745 H   0  0  0  0  0  0  0  0  0  0  0  0
    5.1299    0.0968    1.6663 H   0  0  0  0  0  0  0  0  0  0  0  0
    5.4648   -1.1349    2.9169 H   0  0  0  0  0  0  0  0  0  0  0  0
  1  2  1  0
  1 23  1  0
  1 24  1  0
  2  3  2  0
  2  4  1  0
  4  5  1  0
  4 22  1  0
  5  6  1  0
  5 25  1  0
  5 26  1  0
  6  7  1  0
  6 27  1  0
  6 28  1  0
  7  8  1  0
  7 29  1  0
  7 30  1  0
  8  9  1  0
  8 22  1  0
  8 31  1  6
  9 10  2  0
  9 11  1  0
 11 12  1  0
 11 32  1  0
 12 13  1  0
 12 33  1  0
 12 34  1  0
 13 14  2  0
 13 21  1  0
 14 15  1  0
 14 35  1  0
 15 16  2  0
 15 20  1  0
 16 17  1  0
 16 36  1  0
 17 18  2  0
 17 37  1  0
 18 19  1  0
 18 38  1  0
 19 20  2  0
 19 39  1  0
 20 21  1  0
 22 40  1  0
 22 41  1  0
M  END

