
     RDKit          3D

 66 69  0  0  0  0  0  0  0  0999 V2000
   -1.3446    7.4793    2.9119 C   0  0  0  0  0  0  0  0  0  0  0  0
    0.1436    7.4380    3.3007 C   0  0  1  0  0  0  0  0  0  0  0  0
    0.4355    6.2772    4.2674 C   0  0  0  0  0  0  0  0  0  0  0  0
    1.0514    7.4066    2.0788 C   0  0  0  0  0  0  0  0  0  0  0  0
    1.9439    8.4537    1.8099 C   0  0  0  0  0  0  0  0  0  0  0  0
    2.7857    8.4525    0.6968 C   0  0  0  0  0  0  0  0  0  0  0  0
    2.7590    7.3743   -0.2070 C   0  0  0  0  0  0  0  0  0  0  0  0
    3.6315    7.3161   -1.3356 N   0  0  0  0  0  0  0  0  0  0  0  0
    4.3091    8.4078   -1.8647 C   0  0  0  0  0  0  0  0  0  0  0  0
    4.1948    9.5616   -1.5094 O   0  0  0  0  0  0  0  0  0  0  0  0
    5.2373    7.9918   -3.0064 C   0  0  0  0  0  0  0  0  0  0  0  0
    5.4900    6.1989   -2.8575 S   0  0  0  0  0  0  0  0  0  0  0  0
    3.8247    6.0502   -2.0390 C   0  0  2  0  0  0  0  0  0  0  0  0
    3.9267    5.2361   -1.3077 H   0  0  0  0  0  0  0  0  0  0  0  0
    2.7374    5.7045   -3.0450 C   0  0  0  0  0  0  0  0  0  0  0  0
    2.6141    4.3786   -3.4900 C   0  0  0  0  0  0  0  0  0  0  0  0
    1.6496    4.0546   -4.4431 C   0  0  0  0  0  0  0  0  0  0  0  0
    0.7879    5.0217   -4.9679 C   0  0  0  0  0  0  0  0  0  0  0  0
    0.8968    6.3490   -4.5189 C   0  0  0  0  0  0  0  0  0  0  0  0
    0.0713    7.3923   -4.9713 N   0  0  0  0  0  0  0  0  0  0  0  0
   -0.9615    7.3493   -5.8863 C   0  0  0  0  0  0  0  0  0  0  0  0
   -1.3357    6.3244   -6.4328 O   0  0  0  0  0  0  0  0  0  0  0  0
   -1.6275    8.6717   -6.1580 C   0  0  0  0  0  0  0  0  0  0  0  0
   -1.0423    9.9215   -5.9146 C   0  0  0  0  0  0  0  0  0  0  0  0
   -1.7279   11.1047   -6.2056 C   0  0  0  0  0  0  0  0  0  0  0  0
   -3.0207   11.0870   -6.7524 C   0  0  0  0  0  0  0  0  0  0  0  0
   -3.8111   12.3690   -7.0752 C   0  0  1  0  0  0  0  0  0  0  0  0
   -3.0220   13.6435   -6.7254 C   0  0  0  0  0  0  0  0  0  0  0  0
   -4.1389   12.4014   -8.5864 C   0  0  0  0  0  0  0  0  0  0  0  0
   -5.1265   12.3740   -6.2618 C   0  0  0  0  0  0  0  0  0  0  0  0
   -3.5904    9.8233   -7.0086 C   0  0  0  0  0  0  0  0  0  0  0  0
   -2.9108    8.6427   -6.7273 C   0  0  0  0  0  0  0  0  0  0  0  0
    1.8749    6.6752   -3.5585 C   0  0  0  0  0  0  0  0  0  0  0  0
    1.8645    6.3173    0.0481 C   0  0  0  0  0  0  0  0  0  0  0  0
    1.0345    6.3392    1.1691 C   0  0  0  0  0  0  0  0  0  0  0  0
   -1.9807    7.5751    3.8073 H   0  0  0  0  0  0  0  0  0  0  0  0
   -1.6488    6.5590    2.3863 H   0  0  0  0  0  0  0  0  0  0  0  0
   -1.5613    8.3302    2.2473 H   0  0  0  0  0  0  0  0  0  0  0  0
    0.3688    8.3764    3.8371 H   0  0  0  0  0  0  0  0  0  0  0  0
    0.2141    5.3017    3.8036 H   0  0  0  0  0  0  0  0  0  0  0  0
   -0.1836    6.3594    5.1759 H   0  0  0  0  0  0  0  0  0  0  0  0
    1.4928    6.2683    4.5750 H   0  0  0  0  0  0  0  0  0  0  0  0
    1.9899    9.3058    2.4948 H   0  0  0  0  0  0  0  0  0  0  0  0
    3.4539    9.2909    0.5221 H   0  0  0  0  0  0  0  0  0  0  0  0
    6.1879    8.5315   -2.9022 H   0  0  0  0  0  0  0  0  0  0  0  0
    4.7818    8.2765   -3.9699 H   0  0  0  0  0  0  0  0  0  0  0  0
    3.2813    3.6057   -3.0988 H   0  0  0  0  0  0  0  0  0  0  0  0
    1.5571    3.0218   -4.7889 H   0  0  0  0  0  0  0  0  0  0  0  0
    0.0301    4.7677   -5.7045 H   0  0  0  0  0  0  0  0  0  0  0  0
    0.2200    8.2815   -4.5107 H   0  0  0  0  0  0  0  0  0  0  0  0
   -0.0247    9.9997   -5.5217 H   0  0  0  0  0  0  0  0  0  0  0  0
   -1.2276   12.0516   -6.0036 H   0  0  0  0  0  0  0  0  0  0  0  0
   -2.0833   13.7154   -7.2966 H   0  0  0  0  0  0  0  0  0  0  0  0
   -2.7768   13.6945   -5.6530 H   0  0  0  0  0  0  0  0  0  0  0  0
   -3.6245   14.5327   -6.9685 H   0  0  0  0  0  0  0  0  0  0  0  0
   -3.2179   12.4021   -9.1907 H   0  0  0  0  0  0  0  0  0  0  0  0
   -4.7100   13.3108   -8.8351 H   0  0  0  0  0  0  0  0  0  0  0  0
   -4.7420   11.5346   -8.8962 H   0  0  0  0  0  0  0  0  0  0  0  0
   -4.9226   12.3533   -5.1794 H   0  0  0  0  0  0  0  0  0  0  0  0
   -5.7608   11.5067   -6.4997 H   0  0  0  0  0  0  0  0  0  0  0  0
   -5.7092   13.2836   -6.4811 H   0  0  0  0  0  0  0  0  0  0  0  0
   -4.5914    9.7560   -7.4410 H   0  0  0  0  0  0  0  0  0  0  0  0
   -3.3597    7.6711   -6.9417 H   0  0  0  0  0  0  0  0  0  0  0  0
    1.9407    7.7050   -3.1971 H   0  0  0  0  0  0  0  0  0  0  0  0
    1.7912    5.4715   -0.6346 H   0  0  0  0  0  0  0  0  0  0  0  0
    0.3550    5.4968    1.3242 H   0  0  0  0  0  0  0  0  0  0  0  0
  1  2  1  0
  1 36  1  0
  1 37  1  0
  1 38  1  0
  2  3  1  0
  2  4  1  0
  2 39  1  1
  3 40  1  0
  3 41  1  0
  3 42  1  0
  4  5  2  0
  4 35  1  0
  5  6  1  0
  5 43  1  0
  6  7  2  0
  6 44  1  0
  7  8  1  0
  7 34  1  0
  8  9  1  0
  8 13  1  0
  9 10  2  0
  9 11  1  0
 11 12  1  0
 11 45  1  0
 11 46  1  0
 12 13  1  0
 13 14  1  1
 13 15  1  0
 15 16  2  0
 15 33  1  0
 16 17  1  0
 16 47  1  0
 17 18  2  0
 17 48  1  0
 18 19  1  0
 18 49  1  0
 19 20  1  0
 19 33  2  0
 20 21  1  0
 20 50  1  0
 21 22  2  0
 21 23  1  0
 23 24  2  0
 23 32  1  0
 24 25  1  0
 24 51  1  0
 25 26  2  0
 25 52  1  0
 26 27  1  0
 26 31  1  0
 27 28  1  1
 27 29  1  0
 27 30  1  0
 28 53  1  0
 28 54  1  0
 28 55  1  0
 29 56  1  0
 29 57  1  0
 29 58  1  0
 30 59  1  0
 30 60  1  0
 30 61  1  0
 31 32  2  0
 31 62  1  0
 32 63  1  0
 33 64  1  0
 34 35  2  0
 34 65  1  0
 35 66  1  0
M  END

