
     RDKit          3D

 35 35  0  0  0  0  0  0  0  0999 V2000
    0.9138   -0.0639   -0.1759 C   0  0  0  0  0  0  0  0  0  0  0  0
    2.4166   -0.2180   -0.0801 C   0  0  0  0  0  0  0  0  0  0  0  0
    3.1903    0.9007    0.1939 C   0  0  0  0  0  0  0  0  0  0  0  0
    4.6107    0.8975    0.1810 C   0  0  0  0  0  0  0  0  0  0  0  0
    5.2954   -0.3009   -0.2041 C   0  0  0  0  0  0  0  0  0  0  0  0
    6.8097   -0.2409   -0.3799 C   0  0  1  0  0  0  0  0  0  0  0  0
    7.5260   -1.5916   -0.2615 C   0  0  0  0  0  0  0  0  0  0  0  0
    7.1862    0.4502   -1.7054 C   0  0  0  0  0  0  0  0  0  0  0  0
    4.5565   -1.4366   -0.4673 C   0  0  0  0  0  0  0  0  0  0  0  0
    3.1041   -1.4693   -0.4069 C   0  0  0  0  0  0  0  0  0  0  0  0
    2.5137   -2.8081   -0.1940 C   0  0  1  0  0  0  0  0  0  0  0  0
    1.1323   -2.8285   -0.3378 F   0  0  0  0  0  0  0  0  0  0  0  0
    3.0032   -3.7515   -1.0839 F   0  0  0  0  0  0  0  0  0  0  0  0
    2.7745   -3.4576    1.1924 C   0  0  0  0  0  0  0  0  0  0  0  0
    2.2256   -2.5683    2.2937 C   0  0  0  0  0  0  0  0  0  0  0  0
    2.7006   -2.8637    3.6116 N   0  0  0  0  0  0  0  0  0  0  0  0
    0.6241    0.9867   -0.0152 H   0  0  0  0  0  0  0  0  0  0  0  0
    0.3431   -0.6744    0.5478 H   0  0  0  0  0  0  0  0  0  0  0  0
    0.5414   -0.3742   -1.1681 H   0  0  0  0  0  0  0  0  0  0  0  0
    2.6722    1.8497    0.3771 H   0  0  0  0  0  0  0  0  0  0  0  0
    5.1685    1.8088    0.4051 H   0  0  0  0  0  0  0  0  0  0  0  0
    7.1917    0.4031    0.4359 H   0  0  0  0  0  0  0  0  0  0  0  0
    7.2556   -2.2675   -1.0893 H   0  0  0  0  0  0  0  0  0  0  0  0
    7.2742   -2.1036    0.6815 H   0  0  0  0  0  0  0  0  0  0  0  0
    8.6200   -1.4580   -0.2952 H   0  0  0  0  0  0  0  0  0  0  0  0
    6.8510   -0.1563   -2.5632 H   0  0  0  0  0  0  0  0  0  0  0  0
    8.2774    0.5937   -1.7908 H   0  0  0  0  0  0  0  0  0  0  0  0
    6.7013    1.4346   -1.7879 H   0  0  0  0  0  0  0  0  0  0  0  0
    5.0659   -2.3477   -0.7915 H   0  0  0  0  0  0  0  0  0  0  0  0
    3.8654   -3.5611    1.2943 H   0  0  0  0  0  0  0  0  0  0  0  0
    2.3172   -4.4602    1.2259 H   0  0  0  0  0  0  0  0  0  0  0  0
    1.1236   -2.5426    2.3432 H   0  0  0  0  0  0  0  0  0  0  0  0
    2.5094   -1.5072    2.1164 H   0  0  0  0  0  0  0  0  0  0  0  0
    3.4939   -3.4833    3.7710 H   0  0  0  0  0  0  0  0  0  0  0  0
    2.3537   -2.3498    4.4201 H   0  0  0  0  0  0  0  0  0  0  0  0
  1  2  1  0
  1 17  1  0
  1 18  1  0
  1 19  1  0
  2  3  2  0
  2 10  1  0
  3  4  1  0
  3 20  1  0
  4  5  2  0
  4 21  1  0
  5  6  1  0
  5  9  1  0
  6  7  1  0
  6  8  1  0
  6 22  1  6
  7 23  1  0
  7 24  1  0
  7 25  1  0
  8 26  1  0
  8 27  1  0
  8 28  1  0
  9 10  2  0
  9 29  1  0
 10 11  1  0
 11 12  1  6
 11 13  1  0
 11 14  1  0
 14 15  1  0
 14 30  1  0
 14 31  1  0
 15 16  1  0
 15 32  1  0
 15 33  1  0
 16 34  1  0
 16 35  1  0
M  END

