
     RDKit          3D

 38 40  0  0  0  0  0  0  0  0999 V2000
    0.6562   -2.0243   -1.2451 C   0  0  0  0  0  0  0  0  0  0  0  0
    2.0653   -2.6028   -1.3970 C   0  0  1  0  0  0  0  0  0  0  0  0
    2.7764   -2.1035   -2.6576 C   0  0  0  0  0  0  0  0  0  0  0  0
    2.8710   -2.3121   -0.2039 N   0  0  0  0  0  0  0  0  0  0  0  0
    3.4221   -3.2065    0.6596 C   0  0  0  0  0  0  0  0  0  0  0  0
    4.0871   -2.4531    1.6185 C   0  0  0  0  0  0  0  0  0  0  0  0
    4.7589   -3.0565    2.6494 O   0  0  0  0  0  0  0  0  0  0  0  0
    5.4252   -2.4048    3.6343 C   0  0  0  0  0  0  0  0  0  0  0  0
    5.4808   -1.1060    3.6728 N   0  0  0  0  0  0  0  0  0  0  0  0
    6.1566   -0.5038    4.6961 C   0  0  0  0  0  0  0  0  0  0  0  0
    6.2269    0.9126    4.7492 C   0  0  0  0  0  0  0  0  0  0  0  0
    6.9008    1.5421    5.7790 C   0  0  0  0  0  0  0  0  0  0  0  0
    7.5313    0.7874    6.7971 C   0  0  0  0  0  0  0  0  0  0  0  0
    7.4793   -0.5935    6.7683 C   0  0  0  0  0  0  0  0  0  0  0  0
    6.7971   -1.2672    5.7229 C   0  0  0  0  0  0  0  0  0  0  0  0
    6.7074   -2.6872    5.6331 C   0  0  0  0  0  0  0  0  0  0  0  0
    6.0372   -3.2840    4.5950 C   0  0  0  0  0  0  0  0  0  0  0  0
    5.9153   -4.7875    4.4574 C   0  0  0  0  0  0  0  0  0  0  0  0
    6.7351   -5.5054    5.3505 O   0  0  0  0  0  0  0  0  0  0  0  0
    3.8764   -1.1022    1.2425 C   0  0  0  0  0  0  0  0  0  0  0  0
    3.1365   -1.0470    0.1344 N   0  0  0  0  0  0  0  0  0  0  0  0
    0.0434   -2.2741   -2.1253 H   0  0  0  0  0  0  0  0  0  0  0  0
    0.7039   -0.9297   -1.1476 H   0  0  0  0  0  0  0  0  0  0  0  0
    0.1586   -2.4283   -0.3501 H   0  0  0  0  0  0  0  0  0  0  0  0
    1.9994   -3.7024   -1.4341 H   0  0  0  0  0  0  0  0  0  0  0  0
    2.9044   -1.0119   -2.6137 H   0  0  0  0  0  0  0  0  0  0  0  0
    2.1874   -2.3540   -3.5536 H   0  0  0  0  0  0  0  0  0  0  0  0
    3.7718   -2.5631   -2.7573 H   0  0  0  0  0  0  0  0  0  0  0  0
    3.3144   -4.2827    0.5488 H   0  0  0  0  0  0  0  0  0  0  0  0
    5.7345    1.4816    3.9583 H   0  0  0  0  0  0  0  0  0  0  0  0
    6.9475    2.6338    5.8099 H   0  0  0  0  0  0  0  0  0  0  0  0
    8.0584    1.3002    7.6053 H   0  0  0  0  0  0  0  0  0  0  0  0
    7.9629   -1.1848    7.5509 H   0  0  0  0  0  0  0  0  0  0  0  0
    7.1737   -3.3152    6.3962 H   0  0  0  0  0  0  0  0  0  0  0  0
    6.0946   -5.0721    3.4030 H   0  0  0  0  0  0  0  0  0  0  0  0
    4.8758   -5.0889    4.6740 H   0  0  0  0  0  0  0  0  0  0  0  0
    7.6551   -5.3713    5.0857 H   0  0  0  0  0  0  0  0  0  0  0  0
    4.2313   -0.2031    1.7325 H   0  0  0  0  0  0  0  0  0  0  0  0
  1  2  1  0
  1 22  1  0
  1 23  1  0
  1 24  1  0
  2  3  1  0
  2  4  1  0
  2 25  1  6
  3 26  1  0
  3 27  1  0
  3 28  1  0
  4  5  1  0
  4 21  1  0
  5  6  2  0
  5 29  1  0
  6  7  1  0
  6 20  1  0
  7  8  1  0
  8  9  2  0
  8 17  1  0
  9 10  1  0
 10 11  2  0
 10 15  1  0
 11 12  1  0
 11 30  1  0
 12 13  2  0
 12 31  1  0
 13 14  1  0
 13 32  1  0
 14 15  2  0
 14 33  1  0
 15 16  1  0
 16 17  2  0
 16 34  1  0
 17 18  1  0
 18 19  1  0
 18 35  1  0
 18 36  1  0
 19 37  1  0
 20 21  2  0
 20 38  1  0
M  END

