
     RDKit          3D

 65 70  0  0  0  0  0  0  0  0999 V2000
    0.6632   -0.1397   -0.4263 C   0  0  0  0  0  0  0  0  0  0  0  0
    2.1212   -0.0207   -0.1375 C   0  0  0  0  0  0  0  0  0  0  0  0
    2.5979   -0.0717    1.0497 N   0  0  0  0  0  0  0  0  0  0  0  0
    3.9672    0.0763    1.0177 N   0  0  0  0  0  0  0  0  0  0  0  0
    4.6658    0.1099    2.2232 C   0  0  0  0  0  0  0  0  0  0  0  0
    3.9429    0.0769    3.4388 C   0  0  0  0  0  0  0  0  0  0  0  0
    4.6062    0.1115    4.6584 C   0  0  0  0  0  0  0  0  0  0  0  0
    6.0037    0.1807    4.6907 C   0  0  0  0  0  0  0  0  0  0  0  0
    6.8518    0.2491    6.2488 S   0  0  1  0  0  0  0  0  0  0  0  0
    5.9318   -0.1620    7.3096 O   0  0  0  0  0  0  0  0  0  0  0  0
    8.1783   -0.3252    6.0965 O   0  0  0  0  0  0  0  0  0  0  0  0
    7.1136    1.8629    6.4559 O   0  0  0  0  0  0  0  0  0  0  0  0
    6.7366    0.2021    3.5013 C   0  0  0  0  0  0  0  0  0  0  0  0
    6.0765    0.1684    2.2765 C   0  0  0  0  0  0  0  0  0  0  0  0
    4.4872    0.2025   -0.3390 C   0  0  2  0  0  0  0  0  0  0  0  0
    3.1834    0.1768   -1.1839 C   0  0  0  0  0  0  0  0  0  0  0  0
    5.5885   -1.2606   -0.8020 S   0  0  0  0  0  0  0  0  0  0  0  0
    6.9465   -0.2364   -1.2631 C   0  0  0  0  0  0  0  0  0  0  0  0
    8.1725   -0.5906   -1.7361 C   0  0  0  0  0  0  0  0  0  0  0  0
    8.7626   -1.8832   -2.0068 C   0  0  0  0  0  0  0  0  0  0  0  0
    8.1259   -3.1293   -1.8002 C   0  0  0  0  0  0  0  0  0  0  0  0
    8.7584   -4.3321   -2.0762 C   0  0  0  0  0  0  0  0  0  0  0  0
   10.0851   -4.3703   -2.5850 C   0  0  0  0  0  0  0  0  0  0  0  0
   10.7154   -5.5615   -2.8599 N   0  0  0  0  0  0  0  0  0  0  0  0
   12.0735   -5.5666   -3.3696 C   0  0  0  0  0  0  0  0  0  0  0  0
   10.0324   -6.8197   -2.6247 C   0  0  0  0  0  0  0  0  0  0  0  0
   10.7302   -3.1216   -2.7956 C   0  0  0  0  0  0  0  0  0  0  0  0
   10.0829   -1.9295   -2.5131 C   0  0  0  0  0  0  0  0  0  0  0  0
    6.6283    1.1938   -1.0732 C   0  0  0  0  0  0  0  0  0  0  0  0
    7.3753    2.1248   -1.3082 O   0  0  0  0  0  0  0  0  0  0  0  0
    5.3343    1.3821   -0.5617 N   0  0  0  0  0  0  0  0  0  0  0  0
    4.8290    2.6559   -0.2923 C   0  0  0  0  0  0  0  0  0  0  0  0
    3.6081    2.8374    0.0997 N   0  0  0  0  0  0  0  0  0  0  0  0
    3.3475    4.1736    0.3276 C   0  0  0  0  0  0  0  0  0  0  0  0
    2.1226    4.7039    0.7674 C   0  0  0  0  0  0  0  0  0  0  0  0
    2.0103    6.0792    0.9508 C   0  0  0  0  0  0  0  0  0  0  0  0
    3.1017    6.9334    0.7022 C   0  0  0  0  0  0  0  0  0  0  0  0
    4.3252    6.4247    0.2665 C   0  0  0  0  0  0  0  0  0  0  0  0
    4.4399    5.0417    0.0835 C   0  0  0  0  0  0  0  0  0  0  0  0
    5.8315    4.1166   -0.4568 S   0  0  0  0  0  0  0  0  0  0  0  0
    0.1044   -0.2998    0.5056 H   0  0  0  0  0  0  0  0  0  0  0  0
    0.4599   -0.9779   -1.1148 H   0  0  0  0  0  0  0  0  0  0  0  0
    0.2873    0.7762   -0.9142 H   0  0  0  0  0  0  0  0  0  0  0  0
    2.8574    0.0199    3.4001 H   0  0  0  0  0  0  0  0  0  0  0  0
    4.0442    0.0720    5.5934 H   0  0  0  0  0  0  0  0  0  0  0  0
    6.3679    2.2145    6.9707 H   0  0  0  0  0  0  0  0  0  0  0  0
    7.8271    0.2310    3.5340 H   0  0  0  0  0  0  0  0  0  0  0  0
    6.6764    0.1659    1.3716 H   0  0  0  0  0  0  0  0  0  0  0  0
    3.2018   -0.6364   -1.9247 H   0  0  0  0  0  0  0  0  0  0  0  0
    3.0427    1.1246   -1.7228 H   0  0  0  0  0  0  0  0  0  0  0  0
    8.8118    0.2751   -1.9416 H   0  0  0  0  0  0  0  0  0  0  0  0
    7.1082   -3.1695   -1.4088 H   0  0  0  0  0  0  0  0  0  0  0  0
    8.2137   -5.2568   -1.8916 H   0  0  0  0  0  0  0  0  0  0  0  0
   12.1565   -5.0341   -4.3344 H   0  0  0  0  0  0  0  0  0  0  0  0
   12.3976   -6.6023   -3.5309 H   0  0  0  0  0  0  0  0  0  0  0  0
   12.7843   -5.0964   -2.6657 H   0  0  0  0  0  0  0  0  0  0  0  0
    9.7551   -6.9508   -1.5629 H   0  0  0  0  0  0  0  0  0  0  0  0
   10.6934   -7.6500   -2.9028 H   0  0  0  0  0  0  0  0  0  0  0  0
    9.1089   -6.9086   -3.2252 H   0  0  0  0  0  0  0  0  0  0  0  0
   11.7480   -3.0839   -3.1811 H   0  0  0  0  0  0  0  0  0  0  0  0
   10.6135   -0.9892   -2.6865 H   0  0  0  0  0  0  0  0  0  0  0  0
    1.2868    4.0287    0.9612 H   0  0  0  0  0  0  0  0  0  0  0  0
    1.0634    6.5032    1.2942 H   0  0  0  0  0  0  0  0  0  0  0  0
    2.9910    8.0099    0.8541 H   0  0  0  0  0  0  0  0  0  0  0  0
    5.1702    7.0904    0.0763 H   0  0  0  0  0  0  0  0  0  0  0  0
  1  2  1  0
  1 41  1  0
  1 42  1  0
  1 43  1  0
  2  3  2  0
  2 16  1  0
  3  4  1  0
  4  5  1  0
  4 15  1  0
  5  6  2  0
  5 14  1  0
  6  7  1  0
  6 44  1  0
  7  8  2  0
  7 45  1  0
  8  9  1  0
  8 13  1  0
  9 10  2  0
  9 11  2  0
  9 12  1  1
 12 46  1  0
 13 14  2  0
 13 47  1  0
 14 48  1  0
 15 16  1  0
 15 17  1  6
 15 31  1  0
 16 49  1  0
 16 50  1  0
 17 18  1  0
 18 19  2  0
 18 29  1  0
 19 20  1  0
 19 51  1  0
 20 21  2  0
 20 28  1  0
 21 22  1  0
 21 52  1  0
 22 23  2  0
 22 53  1  0
 23 24  1  0
 23 27  1  0
 24 25  1  0
 24 26  1  0
 25 54  1  0
 25 55  1  0
 25 56  1  0
 26 57  1  0
 26 58  1  0
 26 59  1  0
 27 28  2  0
 27 60  1  0
 28 61  1  0
 29 30  2  0
 29 31  1  0
 31 32  1  0
 32 33  2  0
 32 40  1  0
 33 34  1  0
 34 35  2  0
 34 39  1  0
 35 36  1  0
 35 62  1  0
 36 37  2  0
 36 63  1  0
 37 38  1  0
 37 64  1  0
 38 39  2  0
 38 65  1  0
 39 40  1  0
M  END

