
     RDKit          3D

 55 57  0  0  0  0  0  0  0  0999 V2000
    3.7282    4.6203    1.3991 C   0  0  0  0  0  0  0  0  0  0  0  0
    4.6102    3.9963    0.3300 C   0  0  0  0  0  0  0  0  0  0  0  0
    4.4018    2.5809    0.0619 N   0  0  0  0  0  0  0  0  0  0  0  0
    3.1178    1.9758    0.2730 C   0  0  0  0  0  0  0  0  0  0  0  0
    2.0545    2.4661   -0.7472 C   0  0  0  0  0  0  0  0  0  0  0  0
    2.2148    3.4064   -1.4648 O   0  0  0  0  0  0  0  0  0  0  0  0
    0.9178    1.7612   -0.7298 O   0  0  0  0  0  0  0  0  0  0  0  0
    5.4596    1.8323   -0.5903 C   0  0  1  0  0  0  0  0  0  0  0  0
    5.9414    0.5036    0.0723 C   0  0  0  0  0  0  0  0  0  0  0  0
    6.0850   -0.0956   -1.3661 C   0  0  2  0  0  0  0  0  0  0  0  0
    7.4071   -0.0257   -1.9281 N   0  0  0  0  0  0  0  0  0  0  0  0
    8.3553   -0.8807   -1.3576 C   0  0  0  0  0  0  0  0  0  0  0  0
    7.9921   -1.8316   -0.6693 O   0  0  0  0  0  0  0  0  0  0  0  0
    9.6760   -0.5875   -1.6130 N   0  0  0  0  0  0  0  0  0  0  0  0
   10.6417   -1.3215   -0.7840 C   0  0  0  0  0  0  0  0  0  0  0  0
   12.0622   -1.2771   -1.3371 C   0  0  0  0  0  0  0  0  0  0  0  0
   12.4797    0.1564   -1.6633 C   0  0  0  0  0  0  0  0  0  0  0  0
   11.5146    0.7193   -2.7037 C   0  0  0  0  0  0  0  0  0  0  0  0
   10.0333    0.6968   -2.2667 C   0  0  2  0  0  0  0  0  0  0  0  0
    9.5843    1.9319   -1.4763 C   0  0  0  0  0  0  0  0  0  0  0  0
    8.9219    2.9436   -2.2073 C   0  0  0  0  0  0  0  0  0  0  0  0
    8.4429    4.1386   -1.5163 C   0  0  0  0  0  0  0  0  0  0  0  0
    8.6045    4.1803   -0.1379 C   0  0  0  0  0  0  0  0  0  0  0  0
    7.9494    5.6055    0.7356 Cl  0  0  0  0  0  0  0  0  0  0  0  0
    9.2145    3.1841    0.6234 C   0  0  0  0  0  0  0  0  0  0  0  0
    9.7384    2.0265   -0.0936 C   0  0  0  0  0  0  0  0  0  0  0  0
    5.1550    1.0352   -1.8884 C   0  0  0  0  0  0  0  0  0  0  0  0
    4.0636    5.6566    1.5412 H   0  0  0  0  0  0  0  0  0  0  0  0
    3.8348    4.1087    2.3684 H   0  0  0  0  0  0  0  0  0  0  0  0
    2.6665    4.6561    1.1150 H   0  0  0  0  0  0  0  0  0  0  0  0
    5.6765    4.1361    0.5514 H   0  0  0  0  0  0  0  0  0  0  0  0
    4.4383    4.4897   -0.6487 H   0  0  0  0  0  0  0  0  0  0  0  0
    2.7498    2.2340    1.2786 H   0  0  0  0  0  0  0  0  0  0  0  0
    3.2160    0.8845    0.2157 H   0  0  0  0  0  0  0  0  0  0  0  0
    0.9409    1.0161   -0.1111 H   0  0  0  0  0  0  0  0  0  0  0  0
    6.3007    2.5178   -0.7345 H   0  0  0  0  0  0  0  0  0  0  0  0
    5.1556   -0.0027    0.6549 H   0  0  0  0  0  0  0  0  0  0  0  0
    6.8495    0.5933    0.6782 H   0  0  0  0  0  0  0  0  0  0  0  0
    5.7031   -1.1201   -1.4551 H   0  0  0  0  0  0  0  0  0  0  0  0
    7.7308    0.9205   -2.1465 H   0  0  0  0  0  0  0  0  0  0  0  0
   10.2805   -2.3545   -0.7006 H   0  0  0  0  0  0  0  0  0  0  0  0
   10.6393   -0.9125    0.2454 H   0  0  0  0  0  0  0  0  0  0  0  0
   12.1261   -1.8929   -2.2526 H   0  0  0  0  0  0  0  0  0  0  0  0
   12.7370   -1.7365   -0.5958 H   0  0  0  0  0  0  0  0  0  0  0  0
   13.5121    0.1860   -2.0500 H   0  0  0  0  0  0  0  0  0  0  0  0
   12.4590    0.7776   -0.7514 H   0  0  0  0  0  0  0  0  0  0  0  0
   11.6141    0.1175   -3.6252 H   0  0  0  0  0  0  0  0  0  0  0  0
   11.7635    1.7572   -2.9699 H   0  0  0  0  0  0  0  0  0  0  0  0
    9.4620    0.7178   -3.2087 H   0  0  0  0  0  0  0  0  0  0  0  0
    8.8572    2.8856   -3.2965 H   0  0  0  0  0  0  0  0  0  0  0  0
    8.0120    4.9789   -2.0584 H   0  0  0  0  0  0  0  0  0  0  0  0
    9.3192    3.2825    1.7018 H   0  0  0  0  0  0  0  0  0  0  0  0
   10.2184    1.2304    0.4745 H   0  0  0  0  0  0  0  0  0  0  0  0
    4.1108    0.6979   -1.9678 H   0  0  0  0  0  0  0  0  0  0  0  0
    5.4359    1.5405   -2.8220 H   0  0  0  0  0  0  0  0  0  0  0  0
  1  2  1  0
  1 28  1  0
  1 29  1  0
  1 30  1  0
  2  3  1  0
  2 31  1  0
  2 32  1  0
  3  4  1  0
  3  8  1  0
  4  5  1  0
  4 33  1  0
  4 34  1  0
  5  6  2  0
  5  7  1  0
  7 35  1  0
  8  9  1  0
  8 27  1  0
  8 36  1  6
  9 10  1  0
  9 37  1  0
  9 38  1  0
 10 11  1  0
 10 27  1  0
 10 39  1  1
 11 12  1  0
 11 40  1  0
 12 13  2  0
 12 14  1  0
 14 15  1  0
 14 19  1  0
 15 16  1  0
 15 41  1  0
 15 42  1  0
 16 17  1  0
 16 43  1  0
 16 44  1  0
 17 18  1  0
 17 45  1  0
 17 46  1  0
 18 19  1  0
 18 47  1  0
 18 48  1  0
 19 20  1  0
 19 49  1  6
 20 21  2  0
 20 26  1  0
 21 22  1  0
 21 50  1  0
 22 23  2  0
 22 51  1  0
 23 24  1  0
 23 25  1  0
 25 26  2  0
 25 52  1  0
 26 53  1  0
 27 54  1  0
 27 55  1  0
M  END

