
     RDKit          3D

 37 39  0  0  0  0  0  0  0  0999 V2000
    0.8910    0.0282   -0.6755 O   0  0  0  0  0  0  0  0  0  0  0  0
    2.0875   -0.1638   -0.5457 C   0  0  0  0  0  0  0  0  0  0  0  0
    2.6678   -1.5747   -0.5102 C   0  0  0  0  0  0  0  0  0  0  0  0
    1.6144   -2.6018   -0.1301 C   0  0  0  0  0  0  0  0  0  0  0  0
    1.3737   -2.4636    1.2587 O   0  0  0  0  0  0  0  0  0  0  0  0
    0.4086   -3.2151    1.8528 C   0  0  0  0  0  0  0  0  0  0  0  0
    0.2277   -3.0107    3.2325 C   0  0  0  0  0  0  0  0  0  0  0  0
   -0.7296   -3.7356    3.9364 C   0  0  0  0  0  0  0  0  0  0  0  0
   -1.5115   -4.6716    3.2577 C   0  0  0  0  0  0  0  0  0  0  0  0
   -2.4361   -5.3733    3.9365 F   0  0  0  0  0  0  0  0  0  0  0  0
   -1.3495   -4.8890    1.8953 C   0  0  0  0  0  0  0  0  0  0  0  0
   -0.3862   -4.1600    1.1864 C   0  0  0  0  0  0  0  0  0  0  0  0
    2.9413    0.9161   -0.4103 N   0  0  0  0  0  0  0  0  0  0  0  0
    2.3383    2.2665   -0.3161 C   0  0  0  0  0  0  0  0  0  0  0  0
    3.4654    3.1649    0.2308 C   0  0  0  0  0  0  0  0  0  0  0  0
    4.6972    2.3401   -0.0341 C   0  0  0  0  0  0  0  0  0  0  0  0
    6.0356    2.6895    0.0422 C   0  0  0  0  0  0  0  0  0  0  0  0
    6.3632    3.9420    0.3864 F   0  0  0  0  0  0  0  0  0  0  0  0
    7.0522    1.7716   -0.2335 C   0  0  0  0  0  0  0  0  0  0  0  0
    6.6658    0.4838   -0.5915 C   0  0  0  0  0  0  0  0  0  0  0  0
    7.6181   -0.4140   -0.8766 F   0  0  0  0  0  0  0  0  0  0  0  0
    5.3330    0.0727   -0.6829 C   0  0  0  0  0  0  0  0  0  0  0  0
    4.3454    1.0205   -0.3850 C   0  0  0  0  0  0  0  0  0  0  0  0
    3.5034   -1.6403    0.2008 H   0  0  0  0  0  0  0  0  0  0  0  0
    3.0664   -1.8158   -1.5108 H   0  0  0  0  0  0  0  0  0  0  0  0
    1.9809   -3.6209   -0.3546 H   0  0  0  0  0  0  0  0  0  0  0  0
    0.6908   -2.4194   -0.7040 H   0  0  0  0  0  0  0  0  0  0  0  0
    0.8544   -2.2708    3.7341 H   0  0  0  0  0  0  0  0  0  0  0  0
   -0.8809   -3.5860    5.0073 H   0  0  0  0  0  0  0  0  0  0  0  0
   -1.9774   -5.6272    1.3923 H   0  0  0  0  0  0  0  0  0  0  0  0
   -0.2714   -4.3384    0.1175 H   0  0  0  0  0  0  0  0  0  0  0  0
    1.4464    2.2226    0.3210 H   0  0  0  0  0  0  0  0  0  0  0  0
    2.0059    2.5862   -1.3182 H   0  0  0  0  0  0  0  0  0  0  0  0
    3.3453    3.3539    1.3120 H   0  0  0  0  0  0  0  0  0  0  0  0
    3.4931    4.1463   -0.2650 H   0  0  0  0  0  0  0  0  0  0  0  0
    8.1032    2.0539   -0.1784 H   0  0  0  0  0  0  0  0  0  0  0  0
    5.1308   -0.9460   -0.9989 H   0  0  0  0  0  0  0  0  0  0  0  0
  1  2  2  0
  2  3  1  0
  2 13  1  0
  3  4  1  0
  3 24  1  0
  3 25  1  0
  4  5  1  0
  4 26  1  0
  4 27  1  0
  5  6  1  0
  6  7  2  0
  6 12  1  0
  7  8  1  0
  7 28  1  0
  8  9  2  0
  8 29  1  0
  9 10  1  0
  9 11  1  0
 11 12  2  0
 11 30  1  0
 12 31  1  0
 13 14  1  0
 13 23  1  0
 14 15  1  0
 14 32  1  0
 14 33  1  0
 15 16  1  0
 15 34  1  0
 15 35  1  0
 16 17  1  0
 16 23  2  0
 17 18  1  0
 17 19  2  0
 19 20  1  0
 19 36  1  0
 20 21  1  0
 20 22  2  0
 22 23  1  0
 22 37  1  0
M  END

