
     RDKit          3D

 46 47  0  0  0  0  0  0  0  0999 V2000
    8.7999    1.2269    3.2452 C   0  0  0  0  0  0  0  0  0  0  0  0
    7.7873    0.8810    2.1540 C   0  0  0  0  0  0  0  0  0  0  0  0
    7.2668    2.1230    1.4306 C   0  0  0  0  0  0  0  0  0  0  0  0
    6.3014    1.7752    0.3150 C   0  0  0  0  0  0  0  0  0  0  0  0
    5.8850    2.9844   -0.3369 O   0  0  0  0  0  0  0  0  0  0  0  0
    5.3381    2.9054   -1.6265 C   0  0  0  0  0  0  0  0  0  0  0  0
    6.2862    3.6508   -2.5980 C   0  0  1  0  0  0  0  0  0  0  0  0
    6.8337    4.7604   -1.9552 O   0  0  0  0  0  0  0  0  0  0  0  0
    7.4065    2.6829   -3.1213 C   0  0  0  0  0  0  0  0  0  0  0  0
    8.5235    3.4222   -3.6613 N   0  0  0  0  0  0  0  0  0  0  0  0
    8.7141    3.6381   -5.0775 C   0  0  0  0  0  0  0  0  0  0  0  0
    9.9007    2.7695   -5.5696 C   0  0  0  0  0  0  0  0  0  0  0  0
   11.1505    2.9578   -4.7067 C   0  0  0  0  0  0  0  0  0  0  0  0
   10.8325    2.7288   -3.2225 C   0  0  2  0  0  0  0  0  0  0  0  0
    9.6350    3.7206   -2.8270 C   0  0  0  0  0  0  0  0  0  0  0  0
   11.9121    2.9926   -2.4085 O   0  0  0  0  0  0  0  0  0  0  0  0
   11.8643    2.0673   -1.3003 C   0  0  0  0  0  0  0  0  0  0  0  0
   11.0605    0.8868   -1.8332 C   0  0  0  0  0  0  0  0  0  0  0  0
   10.4143    1.4175   -3.0091 O   0  0  0  0  0  0  0  0  0  0  0  0
    9.1371    0.3261    3.7852 H   0  0  0  0  0  0  0  0  0  0  0  0
    8.3863    1.9310    3.9872 H   0  0  0  0  0  0  0  0  0  0  0  0
    9.6886    1.6951    2.7812 H   0  0  0  0  0  0  0  0  0  0  0  0
    6.9549    0.2804    2.5637 H   0  0  0  0  0  0  0  0  0  0  0  0
    8.3061    0.2601    1.3876 H   0  0  0  0  0  0  0  0  0  0  0  0
    8.1525    2.6084    0.9464 H   0  0  0  0  0  0  0  0  0  0  0  0
    6.8042    2.8427    2.1276 H   0  0  0  0  0  0  0  0  0  0  0  0
    5.4081    1.2377    0.6870 H   0  0  0  0  0  0  0  0  0  0  0  0
    6.8390    1.1170   -0.4032 H   0  0  0  0  0  0  0  0  0  0  0  0
    4.3625    3.4241   -1.6319 H   0  0  0  0  0  0  0  0  0  0  0  0
    5.1675    1.8634   -1.9512 H   0  0  0  0  0  0  0  0  0  0  0  0
    5.7157    4.0087   -3.4737 H   0  0  0  0  0  0  0  0  0  0  0  0
    6.9035    4.4959   -1.0154 H   0  0  0  0  0  0  0  0  0  0  0  0
    6.9945    2.0210   -3.8975 H   0  0  0  0  0  0  0  0  0  0  0  0
    7.7947    2.0776   -2.2885 H   0  0  0  0  0  0  0  0  0  0  0  0
    8.9426    4.7060   -5.2358 H   0  0  0  0  0  0  0  0  0  0  0  0
    7.7877    3.3939   -5.6156 H   0  0  0  0  0  0  0  0  0  0  0  0
   10.0991    3.0337   -6.6193 H   0  0  0  0  0  0  0  0  0  0  0  0
    9.5978    1.7115   -5.5415 H   0  0  0  0  0  0  0  0  0  0  0  0
   11.5728    3.9685   -4.8223 H   0  0  0  0  0  0  0  0  0  0  0  0
   11.9272    2.2319   -4.9909 H   0  0  0  0  0  0  0  0  0  0  0  0
    9.9893    4.7451   -3.0118 H   0  0  0  0  0  0  0  0  0  0  0  0
    9.3909    3.5598   -1.7641 H   0  0  0  0  0  0  0  0  0  0  0  0
   11.3254    2.5298   -0.4394 H   0  0  0  0  0  0  0  0  0  0  0  0
   12.9002    1.8171   -1.0286 H   0  0  0  0  0  0  0  0  0  0  0  0
   10.2644    0.5949   -1.1000 H   0  0  0  0  0  0  0  0  0  0  0  0
   11.6841    0.0293   -2.1358 H   0  0  0  0  0  0  0  0  0  0  0  0
  1  2  1  0
  1 20  1  0
  1 21  1  0
  1 22  1  0
  2  3  1  0
  2 23  1  0
  2 24  1  0
  3  4  1  0
  3 25  1  0
  3 26  1  0
  4  5  1  0
  4 27  1  0
  4 28  1  0
  5  6  1  0
  6  7  1  0
  6 29  1  0
  6 30  1  0
  7  8  1  0
  7  9  1  0
  7 31  1  6
  8 32  1  0
  9 10  1  0
  9 33  1  0
  9 34  1  0
 10 11  1  0
 10 15  1  0
 11 12  1  0
 11 35  1  0
 11 36  1  0
 12 13  1  0
 12 37  1  0
 12 38  1  0
 13 14  1  0
 13 39  1  0
 13 40  1  0
 14 15  1  0
 14 16  1  6
 14 19  1  0
 15 41  1  0
 15 42  1  0
 16 17  1  0
 17 18  1  0
 17 43  1  0
 17 44  1  0
 18 19  1  0
 18 45  1  0
 18 46  1  0
M  END

