
     RDKit          3D

 89 97  0  0  0  0  0  0  0  0999 V2000
    0.9272    0.0025   -0.9195 O   0  0  0  0  0  0  0  0  0  0  0  0
    2.1633    0.0529   -0.7353 C   0  0  0  0  0  0  0  0  0  0  0  0
    2.8253    1.3595   -0.5161 C   0  0  0  0  0  0  0  0  0  0  0  0
    2.0165    2.5100   -0.3541 C   0  0  0  0  0  0  0  0  0  0  0  0
    2.5649    3.7457   -0.0514 C   0  0  0  0  0  0  0  0  0  0  0  0
    3.9616    3.9045    0.1305 C   0  0  0  0  0  0  0  0  0  0  0  0
    4.5554    5.2262    0.4655 C   0  0  0  0  0  0  0  0  0  0  0  0
    5.6616    5.3278    1.3337 C   0  0  0  0  0  0  0  0  0  0  0  0
    6.2492    6.5588    1.6249 C   0  0  0  0  0  0  0  0  0  0  0  0
    5.7193    7.7244    1.0631 C   0  0  0  0  0  0  0  0  0  0  0  0
    6.3311    9.0076    1.3558 N   0  0  0  0  0  0  0  0  0  0  0  0
    7.6394    9.2369    0.9253 C   0  0  0  0  0  0  0  0  0  0  0  0
    8.1208    8.5909   -0.2422 C   0  0  0  0  0  0  0  0  0  0  0  0
    9.4231    8.8111   -0.6677 C   0  0  0  0  0  0  0  0  0  0  0  0
   10.2783    9.6534    0.0597 C   0  0  0  0  0  0  0  0  0  0  0  0
    9.8180   10.2749    1.2291 C   0  0  0  0  0  0  0  0  0  0  0  0
    8.5150   10.0737    1.6659 C   0  0  0  0  0  0  0  0  0  0  0  0
    5.5870    9.9624    2.0544 C   0  0  0  0  0  0  0  0  0  0  0  0
    4.6085    9.5452    2.9914 C   0  0  0  0  0  0  0  0  0  0  0  0
    3.8645   10.4918    3.6821 C   0  0  0  0  0  0  0  0  0  0  0  0
    4.0566   11.8617    3.4455 C   0  0  0  0  0  0  0  0  0  0  0  0
    5.0031   12.2807    2.5005 C   0  0  0  0  0  0  0  0  0  0  0  0
    5.7637   11.3480    1.8063 C   0  0  0  0  0  0  0  0  0  0  0  0
    4.6108    7.6602    0.2138 C   0  0  0  0  0  0  0  0  0  0  0  0
    4.0449    6.4197   -0.0834 C   0  0  0  0  0  0  0  0  0  0  0  0
    4.7776    2.7800   -0.0349 C   0  0  0  0  0  0  0  0  0  0  0  0
    4.2208    1.5455   -0.3698 C   0  0  0  0  0  0  0  0  0  0  0  0
    5.3510    0.2415   -0.8122 S   0  0  1  0  0  0  0  0  0  0  0  0
    5.5756    0.3192   -2.2674 O   0  0  0  0  0  0  0  0  0  0  0  0
    6.5357    0.3055    0.0696 O   0  0  0  0  0  0  0  0  0  0  0  0
    4.3849   -1.2032   -0.4530 C   0  0  0  0  0  0  0  0  0  0  0  0
    5.0816   -2.3807   -0.1869 C   0  0  0  0  0  0  0  0  0  0  0  0
    4.4075   -3.6075   -0.0746 C   0  0  0  0  0  0  0  0  0  0  0  0
    5.1339   -4.8648    0.2185 C   0  0  0  0  0  0  0  0  0  0  0  0
    4.5171   -5.9268    0.9120 C   0  0  0  0  0  0  0  0  0  0  0  0
    5.1964   -7.1098    1.1964 C   0  0  0  0  0  0  0  0  0  0  0  0
    6.5266   -7.2878    0.7845 C   0  0  0  0  0  0  0  0  0  0  0  0
    7.2217   -8.5023    1.0658 N   0  0  0  0  0  0  0  0  0  0  0  0
    6.6087   -9.7401    0.7519 C   0  0  0  0  0  0  0  0  0  0  0  0
    5.8556   -9.8844   -0.4295 C   0  0  0  0  0  0  0  0  0  0  0  0
    5.2345  -11.0972   -0.7301 C   0  0  0  0  0  0  0  0  0  0  0  0
    5.3589  -12.1950    0.1275 C   0  0  0  0  0  0  0  0  0  0  0  0
    6.1087  -12.0589    1.3006 C   0  0  0  0  0  0  0  0  0  0  0  0
    6.7213  -10.8459    1.6176 C   0  0  0  0  0  0  0  0  0  0  0  0
    8.5048   -8.4514    1.6608 C   0  0  0  0  0  0  0  0  0  0  0  0
    8.8074   -7.4719    2.6272 C   0  0  0  0  0  0  0  0  0  0  0  0
   10.0775   -7.4118    3.2020 C   0  0  0  0  0  0  0  0  0  0  0  0
   11.0695   -8.3291    2.8412 C   0  0  0  0  0  0  0  0  0  0  0  0
   10.7740   -9.3063    1.8849 C   0  0  0  0  0  0  0  0  0  0  0  0
    9.5120   -9.3657    1.2927 C   0  0  0  0  0  0  0  0  0  0  0  0
    7.1545   -6.2426    0.0875 C   0  0  0  0  0  0  0  0  0  0  0  0
    6.4727   -5.0578   -0.1820 C   0  0  0  0  0  0  0  0  0  0  0  0
    2.9987   -3.5888   -0.2601 C   0  0  0  0  0  0  0  0  0  0  0  0
    2.3098   -2.4154   -0.5087 C   0  0  0  0  0  0  0  0  0  0  0  0
    2.9713   -1.1642   -0.5981 C   0  0  0  0  0  0  0  0  0  0  0  0
    0.9397    2.3705   -0.4652 H   0  0  0  0  0  0  0  0  0  0  0  0
    1.8999    4.6029    0.0846 H   0  0  0  0  0  0  0  0  0  0  0  0
    6.0644    4.4242    1.7940 H   0  0  0  0  0  0  0  0  0  0  0  0
    7.1081    6.6144    2.2977 H   0  0  0  0  0  0  0  0  0  0  0  0
    7.4554    7.9420   -0.8106 H   0  0  0  0  0  0  0  0  0  0  0  0
    9.7792    8.3246   -1.5777 H   0  0  0  0  0  0  0  0  0  0  0  0
   11.3046    9.8126   -0.2766 H   0  0  0  0  0  0  0  0  0  0  0  0
   10.4909   10.9032    1.8162 H   0  0  0  0  0  0  0  0  0  0  0  0
    8.1766   10.5178    2.6023 H   0  0  0  0  0  0  0  0  0  0  0  0
    4.4645    8.4817    3.1796 H   0  0  0  0  0  0  0  0  0  0  0  0
    3.1274   10.1627    4.4171 H   0  0  0  0  0  0  0  0  0  0  0  0
    3.4601   12.5989    3.9864 H   0  0  0  0  0  0  0  0  0  0  0  0
    5.1318   13.3441    2.2887 H   0  0  0  0  0  0  0  0  0  0  0  0
    6.4637   11.6757    1.0373 H   0  0  0  0  0  0  0  0  0  0  0  0
    4.2068    8.5722   -0.2317 H   0  0  0  0  0  0  0  0  0  0  0  0
    3.2024    6.3734   -0.7753 H   0  0  0  0  0  0  0  0  0  0  0  0
    5.8634    2.8430    0.0662 H   0  0  0  0  0  0  0  0  0  0  0  0
    6.1623   -2.3192   -0.0455 H   0  0  0  0  0  0  0  0  0  0  0  0
    3.4917   -5.8118    1.2695 H   0  0  0  0  0  0  0  0  0  0  0  0
    4.6954   -7.9060    1.7512 H   0  0  0  0  0  0  0  0  0  0  0  0
    5.7597   -9.0361   -1.1094 H   0  0  0  0  0  0  0  0  0  0  0  0
    4.6549  -11.1862   -1.6530 H   0  0  0  0  0  0  0  0  0  0  0  0
    4.8754  -13.1445   -0.1140 H   0  0  0  0  0  0  0  0  0  0  0  0
    6.2079  -12.9034    1.9880 H   0  0  0  0  0  0  0  0  0  0  0  0
    7.2905  -10.7463    2.5434 H   0  0  0  0  0  0  0  0  0  0  0  0
    8.0384   -6.7565    2.9229 H   0  0  0  0  0  0  0  0  0  0  0  0
   10.2886   -6.6426    3.9500 H   0  0  0  0  0  0  0  0  0  0  0  0
   12.0612   -8.2818    3.2972 H   0  0  0  0  0  0  0  0  0  0  0  0
   11.5400  -10.0256    1.5823 H   0  0  0  0  0  0  0  0  0  0  0  0
    9.2994  -10.1226    0.5357 H   0  0  0  0  0  0  0  0  0  0  0  0
    8.1848   -6.3677   -0.2527 H   0  0  0  0  0  0  0  0  0  0  0  0
    6.9825   -4.2763   -0.7493 H   0  0  0  0  0  0  0  0  0  0  0  0
    2.4424   -4.5283   -0.2215 H   0  0  0  0  0  0  0  0  0  0  0  0
    1.2260   -2.4078   -0.6377 H   0  0  0  0  0  0  0  0  0  0  0  0
  1  2  2  0
  2  3  1  0
  2 55  1  0
  3  4  1  0
  3 27  2  0
  4  5  2  0
  4 56  1  0
  5  6  1  0
  5 57  1  0
  6  7  1  0
  6 26  2  0
  7  8  2  0
  7 25  1  0
  8  9  1  0
  8 58  1  0
  9 10  2  0
  9 59  1  0
 10 11  1  0
 10 24  1  0
 11 12  1  0
 11 18  1  0
 12 13  2  0
 12 17  1  0
 13 14  1  0
 13 60  1  0
 14 15  2  0
 14 61  1  0
 15 16  1  0
 15 62  1  0
 16 17  2  0
 16 63  1  0
 17 64  1  0
 18 19  2  0
 18 23  1  0
 19 20  1  0
 19 65  1  0
 20 21  2  0
 20 66  1  0
 21 22  1  0
 21 67  1  0
 22 23  2  0
 22 68  1  0
 23 69  1  0
 24 25  2  0
 24 70  1  0
 25 71  1  0
 26 27  1  0
 26 72  1  0
 28 27  1  1
 28 29  2  0
 28 30  2  0
 28 31  1  0
 31 32  1  0
 31 55  2  0
 32 33  2  0
 32 73  1  0
 33 34  1  0
 33 53  1  0
 34 35  2  0
 34 52  1  0
 35 36  1  0
 35 74  1  0
 36 37  2  0
 36 75  1  0
 37 38  1  0
 37 51  1  0
 38 39  1  0
 38 45  1  0
 39 40  2  0
 39 44  1  0
 40 41  1  0
 40 76  1  0
 41 42  2  0
 41 77  1  0
 42 43  1  0
 42 78  1  0
 43 44  2  0
 43 79  1  0
 44 80  1  0
 45 46  2  0
 45 50  1  0
 46 47  1  0
 46 81  1  0
 47 48  2  0
 47 82  1  0
 48 49  1  0
 48 83  1  0
 49 50  2  0
 49 84  1  0
 50 85  1  0
 51 52  2  0
 51 86  1  0
 52 87  1  0
 53 54  2  0
 53 88  1  0
 54 55  1  0
 54 89  1  0
M  END

