
     RDKit          3D

104111  0  0  0  0  0  0  0  0999 V2000
    8.3643   -0.3946   -2.6777 C   0  0  0  0  0  0  0  0  0  0  0  0
    7.9326   -0.3939   -4.1627 C   0  0  1  0  0  0  0  0  0  0  0  0
    9.1559   -0.0757   -5.0534 C   0  0  0  0  0  0  0  0  0  0  0  0
    7.4372   -1.8076   -4.5178 C   0  0  0  0  0  0  0  0  0  0  0  0
    6.8424    0.6752   -4.3776 C   0  0  0  0  0  0  0  0  0  0  0  0
    7.1345    2.0334   -4.1046 C   0  0  0  0  0  0  0  0  0  0  0  0
    6.2019    3.0575   -4.2588 C   0  0  0  0  0  0  0  0  0  0  0  0
    4.9170    2.7178   -4.6924 C   0  0  0  0  0  0  0  0  0  0  0  0
    4.6007    1.3765   -5.0112 C   0  0  0  0  0  0  0  0  0  0  0  0
    5.5594    0.3669   -4.8437 C   0  0  0  0  0  0  0  0  0  0  0  0
    3.2426    1.3715   -5.5245 C   0  0  0  0  0  0  0  0  0  0  0  0
    2.3984    0.3486   -5.9815 C   0  0  0  0  0  0  0  0  0  0  0  0
    1.1051    0.6418   -6.4288 C   0  0  0  0  0  0  0  0  0  0  0  0
    0.1336   -0.4409   -6.9413 C   0  0  1  0  0  0  0  0  0  0  0  0
    0.7637   -1.8450   -6.9153 C   0  0  0  0  0  0  0  0  0  0  0  0
   -1.1296   -0.4637   -6.0495 C   0  0  0  0  0  0  0  0  0  0  0  0
   -0.2739   -0.1245   -8.3992 C   0  0  0  0  0  0  0  0  0  0  0  0
    0.6895    1.9958   -6.4023 C   0  0  0  0  0  0  0  0  0  0  0  0
    1.5065    3.0339   -5.9576 C   0  0  0  0  0  0  0  0  0  0  0  0
    2.7924    2.7112   -5.5128 C   0  0  0  0  0  0  0  0  0  0  0  0
    3.7992    3.5291   -4.9651 N   0  0  0  0  0  0  0  0  0  0  0  0
    3.7247    4.9275   -4.8492 C   0  0  0  0  0  0  0  0  0  0  0  0
    3.2592    5.5924   -5.8795 N   0  0  0  0  0  0  0  0  0  0  0  0
    3.2555    6.9480   -5.8513 C   0  0  0  0  0  0  0  0  0  0  0  0
    2.7602    7.6913   -6.9555 C   0  0  0  0  0  0  0  0  0  0  0  0
    2.8315    9.0696   -6.9417 C   0  0  0  0  0  0  0  0  0  0  0  0
    3.3946    9.7554   -5.8331 C   0  0  0  0  0  0  0  0  0  0  0  0
    3.8755    9.0581   -4.7433 C   0  0  0  0  0  0  0  0  0  0  0  0
    3.8071    7.6396   -4.7270 C   0  0  0  0  0  0  0  0  0  0  0  0
    4.2101    6.9430   -3.6358 N   0  0  0  0  0  0  0  0  0  0  0  0
    4.1364    5.6335   -3.6433 C   0  0  0  0  0  0  0  0  0  0  0  0
    4.4751    4.9616   -2.4567 N   0  0  0  0  0  0  0  0  0  0  0  0
    5.5823    5.2726   -1.6431 C   0  0  0  0  0  0  0  0  0  0  0  0
    6.6150    6.1960   -1.8345 C   0  0  0  0  0  0  0  0  0  0  0  0
    7.6276    6.2524   -0.8778 C   0  0  0  0  0  0  0  0  0  0  0  0
    7.6521    5.4255    0.2718 C   0  0  0  0  0  0  0  0  0  0  0  0
    8.8101    5.5589    1.2815 C   0  0  1  0  0  0  0  0  0  0  0  0
    8.8413    6.9981    1.8465 C   0  0  0  0  0  0  0  0  0  0  0  0
    8.6637    4.5844    2.4642 C   0  0  0  0  0  0  0  0  0  0  0  0
   10.1509    5.2571    0.5727 C   0  0  0  0  0  0  0  0  0  0  0  0
    6.6036    4.5134    0.4392 C   0  0  0  0  0  0  0  0  0  0  0  0
    5.5718    4.4325   -0.5072 C   0  0  0  0  0  0  0  0  0  0  0  0
    4.3789    3.6092   -0.5999 C   0  0  0  0  0  0  0  0  0  0  0  0
    3.8173    2.6471    0.2445 C   0  0  0  0  0  0  0  0  0  0  0  0
    2.5921    2.0403   -0.0731 C   0  0  0  0  0  0  0  0  0  0  0  0
    1.9976    0.9745    0.8716 C   0  0  1  0  0  0  0  0  0  0  0  0
    1.7721    1.5911    2.2716 C   0  0  0  0  0  0  0  0  0  0  0  0
    0.6486    0.4316    0.3659 C   0  0  0  0  0  0  0  0  0  0  0  0
    2.9794   -0.2146    0.9869 C   0  0  0  0  0  0  0  0  0  0  0  0
    1.9451    2.4506   -1.2583 C   0  0  0  0  0  0  0  0  0  0  0  0
    2.4826    3.4094   -2.1223 C   0  0  0  0  0  0  0  0  0  0  0  0
    3.7183    3.9709   -1.8008 C   0  0  0  0  0  0  0  0  0  0  0  0
    9.1464   -1.1520   -2.5023 H   0  0  0  0  0  0  0  0  0  0  0  0
    7.5114   -0.6252   -2.0197 H   0  0  0  0  0  0  0  0  0  0  0  0
    8.7693    0.5808   -2.3679 H   0  0  0  0  0  0  0  0  0  0  0  0
    9.9460   -0.8313   -4.9092 H   0  0  0  0  0  0  0  0  0  0  0  0
    9.5904    0.9080   -4.8191 H   0  0  0  0  0  0  0  0  0  0  0  0
    8.8774   -0.0727   -6.1193 H   0  0  0  0  0  0  0  0  0  0  0  0
    8.2425   -2.5392   -4.3459 H   0  0  0  0  0  0  0  0  0  0  0  0
    7.1406   -1.8862   -5.5755 H   0  0  0  0  0  0  0  0  0  0  0  0
    6.5786   -2.1100   -3.8980 H   0  0  0  0  0  0  0  0  0  0  0  0
    8.1331    2.3082   -3.7583 H   0  0  0  0  0  0  0  0  0  0  0  0
    6.4908    4.0868   -4.0490 H   0  0  0  0  0  0  0  0  0  0  0  0
    5.2872   -0.6584   -5.0948 H   0  0  0  0  0  0  0  0  0  0  0  0
    2.7701   -0.6761   -5.9784 H   0  0  0  0  0  0  0  0  0  0  0  0
    1.0506   -2.1484   -5.8963 H   0  0  0  0  0  0  0  0  0  0  0  0
    1.6583   -1.9055   -7.5548 H   0  0  0  0  0  0  0  0  0  0  0  0
    0.0399   -2.5866   -7.2886 H   0  0  0  0  0  0  0  0  0  0  0  0
   -0.8695   -0.6956   -5.0044 H   0  0  0  0  0  0  0  0  0  0  0  0
   -1.8392   -1.2306   -6.4025 H   0  0  0  0  0  0  0  0  0  0  0  0
   -1.6544    0.5038   -6.0567 H   0  0  0  0  0  0  0  0  0  0  0  0
    0.6075   -0.1027   -9.0597 H   0  0  0  0  0  0  0  0  0  0  0  0
   -0.7776    0.8505   -8.4831 H   0  0  0  0  0  0  0  0  0  0  0  0
   -0.9682   -0.8912   -8.7814 H   0  0  0  0  0  0  0  0  0  0  0  0
   -0.3126    2.2545   -6.7519 H   0  0  0  0  0  0  0  0  0  0  0  0
    1.1562    4.0651   -5.9797 H   0  0  0  0  0  0  0  0  0  0  0  0
    2.3457    7.1405   -7.8021 H   0  0  0  0  0  0  0  0  0  0  0  0
    2.4562    9.6433   -7.7928 H   0  0  0  0  0  0  0  0  0  0  0  0
    3.4412   10.8472   -5.8453 H   0  0  0  0  0  0  0  0  0  0  0  0
    4.2990    9.5630   -3.8728 H   0  0  0  0  0  0  0  0  0  0  0  0
    6.6218    6.8694   -2.6905 H   0  0  0  0  0  0  0  0  0  0  0  0
    8.4285    6.9792   -1.0319 H   0  0  0  0  0  0  0  0  0  0  0  0
    7.8992    7.2388    2.3642 H   0  0  0  0  0  0  0  0  0  0  0  0
    8.9877    7.7478    1.0541 H   0  0  0  0  0  0  0  0  0  0  0  0
    9.6667    7.1119    2.5689 H   0  0  0  0  0  0  0  0  0  0  0  0
    7.7376    4.7642    3.0324 H   0  0  0  0  0  0  0  0  0  0  0  0
    9.5077    4.7113    3.1607 H   0  0  0  0  0  0  0  0  0  0  0  0
    8.6640    3.5338    2.1337 H   0  0  0  0  0  0  0  0  0  0  0  0
   10.3374    5.9476   -0.2639 H   0  0  0  0  0  0  0  0  0  0  0  0
   10.1611    4.2322    0.1687 H   0  0  0  0  0  0  0  0  0  0  0  0
   10.9924    5.3537    1.2787 H   0  0  0  0  0  0  0  0  0  0  0  0
    6.5717    3.8515    1.3047 H   0  0  0  0  0  0  0  0  0  0  0  0
    4.3428    2.3809    1.1645 H   0  0  0  0  0  0  0  0  0  0  0  0
    1.0719    2.4400    2.2201 H   0  0  0  0  0  0  0  0  0  0  0  0
    2.7100    1.9583    2.7156 H   0  0  0  0  0  0  0  0  0  0  0  0
    1.3492    0.8414    2.9610 H   0  0  0  0  0  0  0  0  0  0  0  0
   -0.1120    1.2246    0.2909 H   0  0  0  0  0  0  0  0  0  0  0  0
    0.2660   -0.3272    1.0669 H   0  0  0  0  0  0  0  0  0  0  0  0
    0.7425   -0.0481   -0.6209 H   0  0  0  0  0  0  0  0  0  0  0  0
    3.9572    0.0975    1.3847 H   0  0  0  0  0  0  0  0  0  0  0  0
    3.1525   -0.6793    0.0032 H   0  0  0  0  0  0  0  0  0  0  0  0
    2.5751   -0.9863    1.6630 H   0  0  0  0  0  0  0  0  0  0  0  0
    0.9837    2.0159   -1.5303 H   0  0  0  0  0  0  0  0  0  0  0  0
    1.9279    3.6987   -3.0141 H   0  0  0  0  0  0  0  0  0  0  0  0
  2  1  1  1
  1 53  1  0
  1 54  1  0
  1 55  1  0
  2  3  1  0
  2  4  1  0
  2  5  1  0
  3 56  1  0
  3 57  1  0
  3 58  1  0
  4 59  1  0
  4 60  1  0
  4 61  1  0
  5  6  2  0
  5 10  1  0
  6  7  1  0
  6 62  1  0
  7  8  2  0
  7 63  1  0
  8  9  1  0
  8 21  1  0
  9 10  2  0
  9 11  1  0
 10 64  1  0
 11 12  2  0
 11 20  1  0
 12 13  1  0
 12 65  1  0
 13 14  1  0
 13 18  2  0
 14 15  1  6
 14 16  1  0
 14 17  1  0
 15 66  1  0
 15 67  1  0
 15 68  1  0
 16 69  1  0
 16 70  1  0
 16 71  1  0
 17 72  1  0
 17 73  1  0
 17 74  1  0
 18 19  1  0
 18 75  1  0
 19 20  2  0
 19 76  1  0
 20 21  1  0
 21 22  1  0
 22 23  2  0
 22 31  1  0
 23 24  1  0
 24 25  2  0
 24 29  1  0
 25 26  1  0
 25 77  1  0
 26 27  2  0
 26 78  1  0
 27 28  1  0
 27 79  1  0
 28 29  2  0
 28 80  1  0
 29 30  1  0
 30 31  2  0
 31 32  1  0
 32 33  1  0
 32 52  1  0
 33 34  2  0
 33 42  1  0
 34 35  1  0
 34 81  1  0
 35 36  2  0
 35 82  1  0
 36 37  1  0
 36 41  1  0
 37 38  1  1
 37 39  1  0
 37 40  1  0
 38 83  1  0
 38 84  1  0
 38 85  1  0
 39 86  1  0
 39 87  1  0
 39 88  1  0
 40 89  1  0
 40 90  1  0
 40 91  1  0
 41 42  2  0
 41 92  1  0
 42 43  1  0
 43 44  1  0
 43 52  2  0
 44 45  2  0
 44 93  1  0
 45 46  1  0
 45 50  1  0
 46 47  1  1
 46 48  1  0
 46 49  1  0
 47 94  1  0
 47 95  1  0
 47 96  1  0
 48 97  1  0
 48 98  1  0
 48 99  1  0
 49100  1  0
 49101  1  0
 49102  1  0
 50 51  2  0
 50103  1  0
 51 52  1  0
 51104  1  0
M  END

