
     RDKit          3D

 61 64  0  0  0  0  0  0  0  0999 V2000
    0.9358    0.3114    1.1287 C   0  0  0  0  0  0  0  0  0  0  0  0
    2.4652    0.1884    0.9083 C   0  0  1  0  0  0  0  0  0  0  0  0
    2.7738   -0.3927   -0.4887 C   0  0  0  0  0  0  0  0  0  0  0  0
    2.9886    1.6183    0.9799 C   0  0  0  0  0  0  0  0  0  0  0  0
    2.6386    2.5305    0.0689 N   0  0  0  0  0  0  0  0  0  0  0  0
    3.1155    3.8319    0.4978 C   0  0  1  0  0  0  0  0  0  0  0  0
    1.9587    4.7661    0.8424 C   0  0  0  0  0  0  0  0  0  0  0  0
    0.7982    4.3123    1.4886 C   0  0  0  0  0  0  0  0  0  0  0  0
   -0.2311    5.1969    1.8174 C   0  0  0  0  0  0  0  0  0  0  0  0
   -0.0899    6.5448    1.4959 C   0  0  0  0  0  0  0  0  0  0  0  0
   -1.0704    7.3952    1.8070 F   0  0  0  0  0  0  0  0  0  0  0  0
    1.0513    7.0252    0.8545 C   0  0  0  0  0  0  0  0  0  0  0  0
    2.0674    6.1294    0.5255 C   0  0  0  0  0  0  0  0  0  0  0  0
    4.1516    3.5884    1.6523 C   0  0  1  0  0  0  0  0  0  0  0  0
    4.1594    4.4064    2.7548 N   0  0  0  0  0  0  0  0  0  0  0  0
    5.3622    4.8534    3.4191 C   0  0  0  0  0  0  0  0  0  0  0  0
    5.8055    4.2408    4.6337 C   0  0  0  0  0  0  0  0  0  0  0  0
    6.9081    4.7095    5.3115 C   0  0  0  0  0  0  0  0  0  0  0  0
    7.6290    5.8503    4.8111 C   0  0  0  0  0  0  0  0  0  0  0  0
    9.0994    6.3557    5.5623 S   0  0  1  0  0  0  0  0  0  0  0  0
   10.4844    5.4624    4.7660 C   0  0  0  0  0  0  0  0  0  0  0  0
    9.3572    7.7771    5.2398 O   0  0  0  0  0  0  0  0  0  0  0  0
    9.1250    5.8826    6.9650 O   0  0  0  0  0  0  0  0  0  0  0  0
    7.1468    6.5141    3.6267 C   0  0  0  0  0  0  0  0  0  0  0  0
    6.0404    6.0298    2.9680 C   0  0  0  0  0  0  0  0  0  0  0  0
    3.8032    2.0797    1.9133 N   0  0  0  0  0  0  0  0  0  0  0  0
    4.4206    1.2420    2.9234 C   0  0  0  0  0  0  0  0  0  0  0  0
    4.4532   -0.1825    2.3902 C   0  0  0  0  0  0  0  0  0  0  0  0
    3.1156   -0.6089    1.9840 N   0  0  0  0  0  0  0  0  0  0  0  0
    2.6330   -1.8762    2.2822 C   0  0  0  0  0  0  0  0  0  0  0  0
    1.7163   -2.3860    1.6611 O   0  0  0  0  0  0  0  0  0  0  0  0
    3.2634   -2.6356    3.4587 C   0  0  0  0  0  0  0  0  0  0  0  0
    4.5856   -3.1540    3.1187 N   0  0  0  0  0  0  0  0  0  0  0  0
    0.5157    1.0022    0.3846 H   0  0  0  0  0  0  0  0  0  0  0  0
    0.7194    0.6967    2.1372 H   0  0  0  0  0  0  0  0  0  0  0  0
    0.4644   -0.6699    1.0220 H   0  0  0  0  0  0  0  0  0  0  0  0
    2.3350    0.2375   -1.2739 H   0  0  0  0  0  0  0  0  0  0  0  0
    2.3439   -1.4005   -0.5470 H   0  0  0  0  0  0  0  0  0  0  0  0
    3.8592   -0.4561   -0.6619 H   0  0  0  0  0  0  0  0  0  0  0  0
    3.6339    4.2809   -0.3646 H   0  0  0  0  0  0  0  0  0  0  0  0
    0.6764    3.2576    1.7397 H   0  0  0  0  0  0  0  0  0  0  0  0
   -1.1400    4.8560    2.3159 H   0  0  0  0  0  0  0  0  0  0  0  0
    1.1299    8.0883    0.6214 H   0  0  0  0  0  0  0  0  0  0  0  0
    2.9617    6.5019    0.0209 H   0  0  0  0  0  0  0  0  0  0  0  0
    5.1674    3.5191    1.2338 H   0  0  0  0  0  0  0  0  0  0  0  0
    3.2614    4.7856    3.0423 H   0  0  0  0  0  0  0  0  0  0  0  0
    5.2338    3.4089    5.0558 H   0  0  0  0  0  0  0  0  0  0  0  0
    7.2291    4.2564    6.2506 H   0  0  0  0  0  0  0  0  0  0  0  0
   10.5067    5.7153    3.6974 H   0  0  0  0  0  0  0  0  0  0  0  0
   10.3485    4.3831    4.9177 H   0  0  0  0  0  0  0  0  0  0  0  0
   11.4017    5.8088    5.2631 H   0  0  0  0  0  0  0  0  0  0  0  0
    7.6536    7.4190    3.2882 H   0  0  0  0  0  0  0  0  0  0  0  0
    5.6613    6.5590    2.0886 H   0  0  0  0  0  0  0  0  0  0  0  0
    3.8250    1.3117    3.8470 H   0  0  0  0  0  0  0  0  0  0  0  0
    5.4192    1.6414    3.1426 H   0  0  0  0  0  0  0  0  0  0  0  0
    4.8661   -0.8806    3.1232 H   0  0  0  0  0  0  0  0  0  0  0  0
    5.1425   -0.2250    1.5253 H   0  0  0  0  0  0  0  0  0  0  0  0
    2.5138   -3.4049    3.7175 H   0  0  0  0  0  0  0  0  0  0  0  0
    3.3588   -1.9633    4.3280 H   0  0  0  0  0  0  0  0  0  0  0  0
    4.5115   -3.8601    2.3853 H   0  0  0  0  0  0  0  0  0  0  0  0
    5.0027   -3.6179    3.9254 H   0  0  0  0  0  0  0  0  0  0  0  0
  2  1  1  1
  1 34  1  0
  1 35  1  0
  1 36  1  0
  2  3  1  0
  2  4  1  0
  2 29  1  0
  3 37  1  0
  3 38  1  0
  3 39  1  0
  4  5  2  0
  4 26  1  0
  5  6  1  0
  6  7  1  0
  6 14  1  0
  6 40  1  6
  7  8  2  0
  7 13  1  0
  8  9  1  0
  8 41  1  0
  9 10  2  0
  9 42  1  0
 10 11  1  0
 10 12  1  0
 12 13  2  0
 12 43  1  0
 13 44  1  0
 14 15  1  0
 14 26  1  0
 14 45  1  6
 15 16  1  0
 15 46  1  0
 16 17  2  0
 16 25  1  0
 17 18  1  0
 17 47  1  0
 18 19  2  0
 18 48  1  0
 19 20  1  0
 19 24  1  0
 20 21  1  1
 20 22  2  0
 20 23  2  0
 21 49  1  0
 21 50  1  0
 21 51  1  0
 24 25  2  0
 24 52  1  0
 25 53  1  0
 26 27  1  0
 27 28  1  0
 27 54  1  0
 27 55  1  0
 28 29  1  0
 28 56  1  0
 28 57  1  0
 29 30  1  0
 30 31  2  0
 30 32  1  0
 32 33  1  0
 32 58  1  0
 32 59  1  0
 33 60  1  0
 33 61  1  0
M  END

