
     RDKit          3D

 35 36  0  0  0  0  0  0  0  0999 V2000
    0.0946   -0.1290    0.4604 N   0  0  0  0  0  0  0  0  0  0  0  0
    1.4523    0.1298   -0.0064 C   0  0  0  0  0  0  0  0  0  0  0  0
    2.4644   -0.8334    0.6440 C   0  0  1  0  0  0  0  0  0  0  0  0
    2.1497   -2.3169    0.3569 C   0  0  0  0  0  0  0  0  0  0  0  0
    2.5526   -2.7234   -1.0691 C   0  0  0  0  0  0  0  0  0  0  0  0
    3.9441   -2.4209   -1.4075 N   0  0  0  0  0  0  0  0  0  0  0  0
    4.9345   -3.3474   -0.8874 C   0  0  0  0  0  0  0  0  0  0  0  0
    6.1483   -3.4360   -1.7841 C   0  0  0  0  0  0  0  0  0  0  0  0
    6.2104   -3.2806   -3.1489 C   0  0  0  0  0  0  0  0  0  0  0  0
    7.5157   -3.4960   -3.6780 C   0  0  0  0  0  0  0  0  0  0  0  0
    8.4344   -3.8119   -2.7076 C   0  0  0  0  0  0  0  0  0  0  0  0
    9.8867   -4.1057   -2.9023 C   0  0  1  0  0  0  0  0  0  0  0  0
   10.2370   -3.9493   -4.1897 F   0  0  0  0  0  0  0  0  0  0  0  0
   10.6715   -3.2950   -2.1658 F   0  0  0  0  0  0  0  0  0  0  0  0
   10.2062   -5.3661   -2.5481 F   0  0  0  0  0  0  0  0  0  0  0  0
    7.7080   -3.8412   -1.1276 S   0  0  0  0  0  0  0  0  0  0  0  0
    4.2513   -1.0059   -1.1893 C   0  0  0  0  0  0  0  0  0  0  0  0
    3.9176   -0.5159    0.2330 C   0  0  0  0  0  0  0  0  0  0  0  0
   -0.5788    0.4447   -0.0460 H   0  0  0  0  0  0  0  0  0  0  0  0
    0.0026    0.1223    1.4458 H   0  0  0  0  0  0  0  0  0  0  0  0
    1.8039    1.1683    0.1806 H   0  0  0  0  0  0  0  0  0  0  0  0
    1.4582    0.0050   -1.1027 H   0  0  0  0  0  0  0  0  0  0  0  0
    2.3811   -0.6736    1.7358 H   0  0  0  0  0  0  0  0  0  0  0  0
    1.0742   -2.4958    0.5098 H   0  0  0  0  0  0  0  0  0  0  0  0
    2.6920   -2.9482    1.0832 H   0  0  0  0  0  0  0  0  0  0  0  0
    1.9099   -2.1975   -1.7979 H   0  0  0  0  0  0  0  0  0  0  0  0
    2.3751   -3.7996   -1.2273 H   0  0  0  0  0  0  0  0  0  0  0  0
    4.4675   -4.3468   -0.8372 H   0  0  0  0  0  0  0  0  0  0  0  0
    5.2682   -3.1271    0.1507 H   0  0  0  0  0  0  0  0  0  0  0  0
    5.3344   -3.0136   -3.7397 H   0  0  0  0  0  0  0  0  0  0  0  0
    7.7752   -3.4212   -4.7343 H   0  0  0  0  0  0  0  0  0  0  0  0
    3.6827   -0.4169   -1.9312 H   0  0  0  0  0  0  0  0  0  0  0  0
    5.3157   -0.8349   -1.4149 H   0  0  0  0  0  0  0  0  0  0  0  0
    4.1138    0.5683    0.3048 H   0  0  0  0  0  0  0  0  0  0  0  0
    4.6033   -0.9971    0.9519 H   0  0  0  0  0  0  0  0  0  0  0  0
  1  2  1  0
  1 19  1  0
  1 20  1  0
  2  3  1  0
  2 21  1  0
  2 22  1  0
  3  4  1  0
  3 18  1  0
  3 23  1  1
  4  5  1  0
  4 24  1  0
  4 25  1  0
  5  6  1  0
  5 26  1  0
  5 27  1  0
  6  7  1  0
  6 17  1  0
  7  8  1  0
  7 28  1  0
  7 29  1  0
  8  9  2  0
  8 16  1  0
  9 10  1  0
  9 30  1  0
 10 11  2  0
 10 31  1  0
 11 12  1  0
 11 16  1  0
 12 13  1  6
 12 14  1  0
 12 15  1  0
 17 18  1  0
 17 32  1  0
 17 33  1  0
 18 34  1  0
 18 35  1  0
M  END

