
     RDKit          3D

 35 38  0  0  0  0  0  0  0  0999 V2000
    2.2343    2.7008    0.6209 O   0  0  0  0  0  0  0  0  0  0  0  0
    2.9894    2.1841   -0.1578 C   0  0  0  0  0  0  0  0  0  0  0  0
    3.3195    0.7118   -0.2217 C   0  0  0  0  0  0  0  0  0  0  0  0
    4.8019    0.3864   -0.5290 C   0  0  1  0  0  0  0  0  0  0  0  0
    4.9588   -1.1077   -0.7988 C   0  0  0  0  0  0  0  0  0  0  0  0
    4.5397   -1.6758   -2.0164 C   0  0  0  0  0  0  0  0  0  0  0  0
    4.6360   -3.0519   -2.2309 C   0  0  0  0  0  0  0  0  0  0  0  0
    5.1511   -3.8922   -1.2395 C   0  0  0  0  0  0  0  0  0  0  0  0
    5.5616   -3.3174   -0.0376 C   0  0  0  0  0  0  0  0  0  0  0  0
    6.0630   -4.1064    0.9236 F   0  0  0  0  0  0  0  0  0  0  0  0
    5.4708   -1.9479    0.1967 C   0  0  0  0  0  0  0  0  0  0  0  0
    5.2621    1.2866   -1.6471 C   0  0  0  0  0  0  0  0  0  0  0  0
    4.6207    2.5327   -1.8947 C   0  0  0  0  0  0  0  0  0  0  0  0
    5.0454    3.4334   -2.9017 C   0  0  0  0  0  0  0  0  0  0  0  0
    4.4348    4.6789   -3.1845 C   0  0  0  0  0  0  0  0  0  0  0  0
    4.9373    5.5099   -4.1977 C   0  0  0  0  0  0  0  0  0  0  0  0
    6.0623    5.1516   -4.9686 C   0  0  0  0  0  0  0  0  0  0  0  0
    6.7019    3.9328   -4.7032 C   0  0  0  0  0  0  0  0  0  0  0  0
    6.2057    3.0785   -3.6984 C   0  0  0  0  0  0  0  0  0  0  0  0
    6.8000    1.8767   -3.4322 N   0  0  0  0  0  0  0  0  0  0  0  0
    7.6456    1.6059   -3.9303 H   0  0  0  0  0  0  0  0  0  0  0  0
    6.4380    0.9908   -2.3905 C   0  0  0  0  0  0  0  0  0  0  0  0
    7.2060    0.0271   -2.2287 O   0  0  0  0  0  0  0  0  0  0  0  0
    3.5875    2.9719   -1.1180 O   0  0  0  0  0  0  0  0  0  0  0  0
    2.6866    0.2790   -1.0173 H   0  0  0  0  0  0  0  0  0  0  0  0
    2.9963    0.2595    0.7254 H   0  0  0  0  0  0  0  0  0  0  0  0
    5.3829    0.6009    0.3896 H   0  0  0  0  0  0  0  0  0  0  0  0
    4.1483   -1.0284   -2.8054 H   0  0  0  0  0  0  0  0  0  0  0  0
    4.3089   -3.4792   -3.1821 H   0  0  0  0  0  0  0  0  0  0  0  0
    5.2429   -4.9706   -1.3812 H   0  0  0  0  0  0  0  0  0  0  0  0
    5.8150   -1.5503    1.1541 H   0  0  0  0  0  0  0  0  0  0  0  0
    3.5700    4.9817   -2.5947 H   0  0  0  0  0  0  0  0  0  0  0  0
    4.4419    6.4652   -4.3904 H   0  0  0  0  0  0  0  0  0  0  0  0
    6.4316    5.8125   -5.7534 H   0  0  0  0  0  0  0  0  0  0  0  0
    7.5837    3.6258   -5.2717 H   0  0  0  0  0  0  0  0  0  0  0  0
  1  2  2  0
  2  3  1  0
  2 24  1  0
  3  4  1  0
  3 25  1  0
  3 26  1  0
  4  5  1  0
  4 12  1  0
  4 27  1  1
  5  6  2  0
  5 11  1  0
  6  7  1  0
  6 28  1  0
  7  8  2  0
  7 29  1  0
  8  9  1  0
  8 30  1  0
  9 10  1  0
  9 11  2  0
 11 31  1  0
 12 13  2  0
 12 22  1  0
 13 14  1  0
 13 24  1  0
 14 15  2  0
 14 19  1  0
 15 16  1  0
 15 32  1  0
 16 17  2  0
 16 33  1  0
 17 18  1  0
 17 34  1  0
 18 19  2  0
 18 35  1  0
 19 20  1  0
 20 21  1  0
 20 22  1  0
 22 23  2  0
M  END

