
     RDKit          3D

 36 37  0  0  0  0  0  0  0  0999 V2000
    0.9819   -0.1355   -0.6604 C   0  0  0  0  0  0  0  0  0  0  0  0
    2.4401    0.0301   -0.2153 C   0  0  1  0  0  0  0  0  0  0  0  0
    2.4895    0.4805    1.1395 O   0  0  0  0  0  0  0  0  0  0  0  0
    3.1936   -1.3105   -0.3494 C   0  0  0  0  0  0  0  0  0  0  0  0
    4.6596   -1.2898    0.0995 C   0  0  0  0  0  0  0  0  0  0  0  0
    5.6520   -0.6594   -0.8710 C   0  0  0  0  0  0  0  0  0  0  0  0
    5.5847    0.7740   -1.0669 N   0  0  0  0  0  0  0  0  0  0  0  0
    6.6673    1.3940   -1.8047 C   0  0  0  0  0  0  0  0  0  0  0  0
    6.5329    1.5089   -3.1798 C   0  0  0  0  0  0  0  0  0  0  0  0
    7.5728    2.0771   -3.9317 C   0  0  0  0  0  0  0  0  0  0  0  0
    7.4115    2.2141   -5.6716 Cl  0  0  0  0  0  0  0  0  0  0  0  0
    8.7437    2.5185   -3.2732 C   0  0  0  0  0  0  0  0  0  0  0  0
    8.8620    2.3986   -1.9039 C   0  0  0  0  0  0  0  0  0  0  0  0
    7.8282    1.8369   -1.0807 C   0  0  0  0  0  0  0  0  0  0  0  0
    7.9906    1.7537    0.3446 C   0  0  0  0  0  0  0  0  0  0  0  0
    9.0011    2.1179    0.9742 O   0  0  0  0  0  0  0  0  0  0  0  0
    4.5052    1.5813   -0.5481 C   0  0  0  0  0  0  0  0  0  0  0  0
    3.0976    1.1613   -1.0238 C   0  0  0  0  0  0  0  0  0  0  0  0
    0.4854   -0.9274   -0.0752 H   0  0  0  0  0  0  0  0  0  0  0  0
    0.9106   -0.4140   -1.7234 H   0  0  0  0  0  0  0  0  0  0  0  0
    0.4270    0.8020   -0.5066 H   0  0  0  0  0  0  0  0  0  0  0  0
    2.0128   -0.1491    1.6972 H   0  0  0  0  0  0  0  0  0  0  0  0
    3.1214   -1.6690   -1.3914 H   0  0  0  0  0  0  0  0  0  0  0  0
    2.6536   -2.0550    0.2611 H   0  0  0  0  0  0  0  0  0  0  0  0
    5.0007   -2.3278    0.2381 H   0  0  0  0  0  0  0  0  0  0  0  0
    4.7397   -0.8100    1.0879 H   0  0  0  0  0  0  0  0  0  0  0  0
    5.5594   -1.1081   -1.8818 H   0  0  0  0  0  0  0  0  0  0  0  0
    6.6915   -0.8685   -0.5705 H   0  0  0  0  0  0  0  0  0  0  0  0
    5.6326    1.1553   -3.6868 H   0  0  0  0  0  0  0  0  0  0  0  0
    9.5535    2.9545   -3.8623 H   0  0  0  0  0  0  0  0  0  0  0  0
    9.7617    2.7345   -1.3853 H   0  0  0  0  0  0  0  0  0  0  0  0
    7.1196    1.3233    0.9082 H   0  0  0  0  0  0  0  0  0  0  0  0
    4.7198    2.6149   -0.8376 H   0  0  0  0  0  0  0  0  0  0  0  0
    4.5180    1.5233    0.5557 H   0  0  0  0  0  0  0  0  0  0  0  0
    3.1131    0.9109   -2.0957 H   0  0  0  0  0  0  0  0  0  0  0  0
    2.4674    2.0564   -0.9119 H   0  0  0  0  0  0  0  0  0  0  0  0
  1  2  1  0
  1 19  1  0
  1 20  1  0
  1 21  1  0
  2  3  1  1
  2  4  1  0
  2 18  1  0
  3 22  1  0
  4  5  1  0
  4 23  1  0
  4 24  1  0
  5  6  1  0
  5 25  1  0
  5 26  1  0
  6  7  1  0
  6 27  1  0
  6 28  1  0
  7  8  1  0
  7 17  1  0
  8  9  2  0
  8 14  1  0
  9 10  1  0
  9 29  1  0
 10 11  1  0
 10 12  2  0
 12 13  1  0
 12 30  1  0
 13 14  2  0
 13 31  1  0
 14 15  1  0
 15 16  2  0
 15 32  1  0
 17 18  1  0
 17 33  1  0
 17 34  1  0
 18 35  1  0
 18 36  1  0
M  END

