
     RDKit          3D

 41 41  0  0  0  0  0  0  0  0999 V2000
    0.3068   -1.5448   -5.9189 C   0  0  0  0  0  0  0  0  0  0  0  0
    1.6627   -1.7366   -6.2161 O   0  0  0  0  0  0  0  0  0  0  0  0
    2.5380   -1.1110   -5.3143 C   0  0  0  0  0  0  0  0  0  0  0  0
    3.9613   -1.4067   -5.7554 C   0  0  0  0  0  0  0  0  0  0  0  0
    4.8386   -0.7802   -4.8548 O   0  0  0  0  0  0  0  0  0  0  0  0
    6.2035   -0.9871   -5.1342 C   0  0  0  0  0  0  0  0  0  0  0  0
    7.0318   -0.2487   -4.0917 C   0  0  0  0  0  0  0  0  0  0  0  0
    8.5605   -0.4850   -4.1626 C   0  0  1  0  0  0  0  0  0  0  0  0
    8.9725   -1.8591   -3.8891 N   0  0  0  0  0  0  0  0  0  0  0  0
    9.1520   -0.0050   -5.5110 C   0  0  0  0  0  0  0  0  0  0  0  0
   10.5990    0.4045   -5.5061 C   0  0  0  0  0  0  0  0  0  0  0  0
   11.5761   -0.3233   -4.7682 C   0  0  0  0  0  0  0  0  0  0  0  0
   12.9517    0.0488   -4.8613 C   0  0  0  0  0  0  0  0  0  0  0  0
   13.3134    1.1417   -5.6993 C   0  0  0  0  0  0  0  0  0  0  0  0
   14.6346    1.4130   -5.7307 O   0  0  0  0  0  0  0  0  0  0  0  0
   15.1401    2.5029   -6.4778 C   0  0  0  0  0  0  0  0  0  0  0  0
   12.3540    1.8883   -6.4411 C   0  0  0  0  0  0  0  0  0  0  0  0
   10.9792    1.5269   -6.3066 C   0  0  0  0  0  0  0  0  0  0  0  0
   -0.2844   -2.0716   -6.6825 H   0  0  0  0  0  0  0  0  0  0  0  0
    0.0248   -0.4719   -5.9336 H   0  0  0  0  0  0  0  0  0  0  0  0
    0.0373   -1.9512   -4.9224 H   0  0  0  0  0  0  0  0  0  0  0  0
    2.3887   -1.4820   -4.2787 H   0  0  0  0  0  0  0  0  0  0  0  0
    2.3805   -0.0125   -5.2897 H   0  0  0  0  0  0  0  0  0  0  0  0
    4.1099   -1.0376   -6.7912 H   0  0  0  0  0  0  0  0  0  0  0  0
    4.1189   -2.5050   -5.7779 H   0  0  0  0  0  0  0  0  0  0  0  0
    6.4429   -0.6328   -6.1583 H   0  0  0  0  0  0  0  0  0  0  0  0
    6.4359   -2.0734   -5.1115 H   0  0  0  0  0  0  0  0  0  0  0  0
    6.6723   -0.5611   -3.0955 H   0  0  0  0  0  0  0  0  0  0  0  0
    6.8191    0.8312   -4.1711 H   0  0  0  0  0  0  0  0  0  0  0  0
    9.0069    0.1401   -3.3695 H   0  0  0  0  0  0  0  0  0  0  0  0
    8.6494   -2.5035   -4.6106 H   0  0  0  0  0  0  0  0  0  0  0  0
    8.6094   -2.1880   -2.9949 H   0  0  0  0  0  0  0  0  0  0  0  0
    8.5562    0.8467   -5.8784 H   0  0  0  0  0  0  0  0  0  0  0  0
    9.0046   -0.8148   -6.2572 H   0  0  0  0  0  0  0  0  0  0  0  0
   11.2584   -1.1733   -4.1655 H   0  0  0  0  0  0  0  0  0  0  0  0
   13.7348   -0.4606   -4.3001 H   0  0  0  0  0  0  0  0  0  0  0  0
   16.2242    2.5198   -6.3074 H   0  0  0  0  0  0  0  0  0  0  0  0
   14.6972    3.4550   -6.1419 H   0  0  0  0  0  0  0  0  0  0  0  0
   14.9402    2.3730   -7.5548 H   0  0  0  0  0  0  0  0  0  0  0  0
   12.6518    2.6812   -7.1252 H   0  0  0  0  0  0  0  0  0  0  0  0
   10.2145    2.0876   -6.8471 H   0  0  0  0  0  0  0  0  0  0  0  0
  1  2  1  0
  1 19  1  0
  1 20  1  0
  1 21  1  0
  2  3  1  0
  3  4  1  0
  3 22  1  0
  3 23  1  0
  4  5  1  0
  4 24  1  0
  4 25  1  0
  5  6  1  0
  6  7  1  0
  6 26  1  0
  6 27  1  0
  7  8  1  0
  7 28  1  0
  7 29  1  0
  8  9  1  0
  8 10  1  0
  8 30  1  1
  9 31  1  0
  9 32  1  0
 10 11  1  0
 10 33  1  0
 10 34  1  0
 11 12  2  0
 11 18  1  0
 12 13  1  0
 12 35  1  0
 13 14  2  0
 13 36  1  0
 14 15  1  0
 14 17  1  0
 15 16  1  0
 16 37  1  0
 16 38  1  0
 16 39  1  0
 17 18  2  0
 17 40  1  0
 18 41  1  0
M  END

