
     RDKit          3D

 30 32  0  0  0  0  0  0  0  0999 V2000
    6.0416    2.6940   -2.8246 N   0  0  0  0  0  0  0  0  0  0  0  0
    5.8478    1.9366   -1.9457 C   0  0  0  0  0  0  0  0  0  0  0  0
    5.6125    1.0209   -0.9078 C   0  0  0  0  0  0  0  0  0  0  0  0
    4.8773    1.3754    0.2945 C   0  0  0  0  0  0  0  0  0  0  0  0
    4.6676    0.4508    1.2940 C   0  0  0  0  0  0  0  0  0  0  0  0
    5.1479   -0.8832    1.2033 C   0  0  0  0  0  0  0  0  0  0  0  0
    5.8693   -1.2471    0.0210 C   0  0  0  0  0  0  0  0  0  0  0  0
    6.4417   -2.6304   -0.1143 C   0  0  0  0  0  0  0  0  0  0  0  0
    5.4305   -3.7391   -0.1477 N   0  0  0  0  0  0  0  0  0  0  0  0
    5.4469   -4.8112    0.6395 C   0  0  0  0  0  0  0  0  0  0  0  0
    4.3872   -5.7087    0.3109 C   0  0  0  0  0  0  0  0  0  0  0  0
    3.6938   -5.1197   -0.7526 C   0  0  0  0  0  0  0  0  0  0  0  0
    2.5570   -5.5099   -1.5148 C   0  0  0  0  0  0  0  0  0  0  0  0
    2.1035   -4.6742   -2.5181 C   0  0  0  0  0  0  0  0  0  0  0  0
    2.7741   -3.4576   -2.7532 C   0  0  0  0  0  0  0  0  0  0  0  0
    2.3230   -2.6740   -3.7105 F   0  0  0  0  0  0  0  0  0  0  0  0
    3.9031   -3.0181   -2.0232 C   0  0  0  0  0  0  0  0  0  0  0  0
    4.3486   -3.8709   -1.0363 C   0  0  0  0  0  0  0  0  0  0  0  0
    6.0976   -0.3330   -0.9889 C   0  0  0  0  0  0  0  0  0  0  0  0
    4.4967    2.3934    0.3966 H   0  0  0  0  0  0  0  0  0  0  0  0
    4.1182    0.7574    2.1895 H   0  0  0  0  0  0  0  0  0  0  0  0
    4.9963   -1.5880    2.0214 H   0  0  0  0  0  0  0  0  0  0  0  0
    7.0948   -2.8913    0.7344 H   0  0  0  0  0  0  0  0  0  0  0  0
    7.0350   -2.7285   -1.0353 H   0  0  0  0  0  0  0  0  0  0  0  0
    6.2031   -4.9224    1.4147 H   0  0  0  0  0  0  0  0  0  0  0  0
    4.1805   -6.6515    0.8118 H   0  0  0  0  0  0  0  0  0  0  0  0
    2.0535   -6.4559   -1.3075 H   0  0  0  0  0  0  0  0  0  0  0  0
    1.2383   -4.9215   -3.1337 H   0  0  0  0  0  0  0  0  0  0  0  0
    4.3520   -2.0489   -2.2294 H   0  0  0  0  0  0  0  0  0  0  0  0
    6.6732   -0.6244   -1.8729 H   0  0  0  0  0  0  0  0  0  0  0  0
  1  2  3  0
  2  3  1  0
  3  4  2  0
  3 19  1  0
  4  5  1  0
  4 20  1  0
  5  6  2  0
  5 21  1  0
  6  7  1  0
  6 22  1  0
  7  8  1  0
  7 19  2  0
  8  9  1  0
  8 23  1  0
  8 24  1  0
  9 10  1  0
  9 18  1  0
 10 11  2  0
 10 25  1  0
 11 12  1  0
 11 26  1  0
 12 13  1  0
 12 18  2  0
 13 14  2  0
 13 27  1  0
 14 15  1  0
 14 28  1  0
 15 16  1  0
 15 17  2  0
 17 18  1  0
 17 29  1  0
 19 30  1  0
M  END

