
     RDKit          3D

 41 45  0  0  0  0  0  0  0  0999 V2000
    1.2360    0.0146   -0.3550 C   0  0  0  0  0  0  0  0  0  0  0  0
    2.6679   -0.0982   -0.1073 N   0  0  0  0  0  0  0  0  0  0  0  0
    3.6172    0.9313   -0.0327 C   0  0  0  0  0  0  0  0  0  0  0  0
    3.3789    2.3487   -0.1957 C   0  0  0  0  0  0  0  0  0  0  0  0
    2.1515    3.0560   -0.4732 C   0  0  0  0  0  0  0  0  0  0  0  0
    2.3302    4.4077   -0.5570 C   0  0  0  0  0  0  0  0  0  0  0  0
    3.9876    4.8579   -0.3044 S   0  0  0  0  0  0  0  0  0  0  0  0
    4.4536    3.2319   -0.0830 C   0  0  0  0  0  0  0  0  0  0  0  0
    4.8235    0.4373    0.2154 N   0  0  0  0  0  0  0  0  0  0  0  0
    4.6969   -0.9039    0.2994 C   0  0  0  0  0  0  0  0  0  0  0  0
    5.8355   -1.7628    0.5501 C   0  0  0  0  0  0  0  0  0  0  0  0
    5.7727   -3.1673    0.3721 C   0  0  0  0  0  0  0  0  0  0  0  0
    6.8962   -3.9494    0.6213 C   0  0  0  0  0  0  0  0  0  0  0  0
    8.0910   -3.3584    1.0515 C   0  0  0  0  0  0  0  0  0  0  0  0
    8.1685   -1.9666    1.2210 C   0  0  0  0  0  0  0  0  0  0  0  0
    7.0574   -1.1746    0.9678 C   0  0  0  0  0  0  0  0  0  0  0  0
    3.3042   -1.2812    0.1058 C   0  0  0  0  0  0  0  0  0  0  0  0
    2.5668   -2.5508    0.1549 C   0  0  0  0  0  0  0  0  0  0  0  0
    2.7083   -3.4839   -0.8370 N   0  0  0  0  0  0  0  0  0  0  0  0
    2.3537   -4.6941   -0.3749 C   0  0  0  0  0  0  0  0  0  0  0  0
    2.2480   -5.9121   -1.1262 C   0  0  0  0  0  0  0  0  0  0  0  0
    2.5533   -5.8998   -2.4635 N   0  0  0  0  0  0  0  0  0  0  0  0
    1.8875   -7.0461   -0.5354 N   0  0  0  0  0  0  0  0  0  0  0  0
    1.6414   -7.0331    0.7855 C   0  0  0  0  0  0  0  0  0  0  0  0
    1.7108   -5.9714    1.6001 N   0  0  0  0  0  0  0  0  0  0  0  0
    2.0519   -4.8411    1.0054 C   0  0  0  0  0  0  0  0  0  0  0  0
    2.2234   -3.2540    1.8032 S   0  0  0  0  0  0  0  0  0  0  0  0
    1.0532    0.4547   -1.3450 H   0  0  0  0  0  0  0  0  0  0  0  0
    0.7585    0.6247    0.4239 H   0  0  0  0  0  0  0  0  0  0  0  0
    0.8380   -1.0082   -0.3234 H   0  0  0  0  0  0  0  0  0  0  0  0
    1.1774    2.5944   -0.6061 H   0  0  0  0  0  0  0  0  0  0  0  0
    1.5778    5.1697   -0.7544 H   0  0  0  0  0  0  0  0  0  0  0  0
    5.4854    2.9519    0.1188 H   0  0  0  0  0  0  0  0  0  0  0  0
    4.8559   -3.6228    0.0021 H   0  0  0  0  0  0  0  0  0  0  0  0
    6.8407   -5.0303    0.4763 H   0  0  0  0  0  0  0  0  0  0  0  0
    8.9664   -3.9811    1.2525 H   0  0  0  0  0  0  0  0  0  0  0  0
    9.1026   -1.5076    1.5532 H   0  0  0  0  0  0  0  0  0  0  0  0
    7.0983   -0.0921    1.0936 H   0  0  0  0  0  0  0  0  0  0  0  0
    2.5541   -4.9916   -2.9119 H   0  0  0  0  0  0  0  0  0  0  0  0
    2.2345   -6.6938   -3.0052 H   0  0  0  0  0  0  0  0  0  0  0  0
    1.3499   -7.9864    1.2392 H   0  0  0  0  0  0  0  0  0  0  0  0
  1  2  1  0
  1 28  1  0
  1 29  1  0
  1 30  1  0
  2  3  1  0
  2 17  1  0
  3  4  1  0
  3  9  2  0
  4  5  1  0
  4  8  2  0
  5  6  2  0
  5 31  1  0
  6  7  1  0
  6 32  1  0
  7  8  1  0
  8 33  1  0
  9 10  1  0
 10 11  1  0
 10 17  2  0
 11 12  2  0
 11 16  1  0
 12 13  1  0
 12 34  1  0
 13 14  2  0
 13 35  1  0
 14 15  1  0
 14 36  1  0
 15 16  2  0
 15 37  1  0
 16 38  1  0
 17 18  1  0
 18 19  2  0
 18 27  1  0
 19 20  1  0
 20 21  2  0
 20 26  1  0
 21 22  1  0
 21 23  1  0
 22 39  1  0
 22 40  1  0
 23 24  2  0
 24 25  1  0
 24 41  1  0
 25 26  2  0
 26 27  1  0
M  END

