
     RDKit          3D

 37 39  0  0  0  0  0  0  0  0999 V2000
    0.9594    0.1147    0.8752 C   0  0  0  0  0  0  0  0  0  0  0  0
    2.3622    0.0220    1.0643 O   0  0  0  0  0  0  0  0  0  0  0  0
    3.0683   -1.1060    0.8126 C   0  0  0  0  0  0  0  0  0  0  0  0
    4.4407   -1.0441    1.1114 C   0  0  0  0  0  0  0  0  0  0  0  0
    5.2706   -2.1404    0.8963 C   0  0  0  0  0  0  0  0  0  0  0  0
    4.7548   -3.3268    0.3708 C   0  0  0  0  0  0  0  0  0  0  0  0
    3.3893   -3.4297    0.0543 C   0  0  0  0  0  0  0  0  0  0  0  0
    2.8250   -4.6857   -0.4812 C   0  0  0  0  0  0  0  0  0  0  0  0
    2.9857   -5.9993    0.0689 C   0  0  0  0  0  0  0  0  0  0  0  0
    3.9065   -6.4093    1.5203 S   0  0  0  0  0  0  0  0  0  0  0  0
    3.5485   -8.1903    1.6286 C   0  0  0  0  0  0  0  0  0  0  0  0
    2.3211   -6.9135   -0.6284 N   0  0  0  0  0  0  0  0  0  0  0  0
    1.7245   -6.2216   -1.6134 N   0  0  0  0  0  0  0  0  0  0  0  0
    1.2183   -6.7205   -2.3346 H   0  0  0  0  0  0  0  0  0  0  0  0
    1.9926   -4.8859   -1.5897 C   0  0  0  0  0  0  0  0  0  0  0  0
    1.4542   -3.9785   -2.6146 C   0  0  0  0  0  0  0  0  0  0  0  0
    0.1699   -4.1887   -3.1522 C   0  0  0  0  0  0  0  0  0  0  0  0
   -0.3342   -3.3489   -4.1472 C   0  0  0  0  0  0  0  0  0  0  0  0
    0.4312   -2.2780   -4.6172 C   0  0  0  0  0  0  0  0  0  0  0  0
    1.7066   -2.0562   -4.0866 C   0  0  0  0  0  0  0  0  0  0  0  0
    2.2165   -2.8987   -3.0980 C   0  0  0  0  0  0  0  0  0  0  0  0
    2.5689   -2.3129    0.2909 C   0  0  0  0  0  0  0  0  0  0  0  0
    1.2523   -2.4221    0.0045 F   0  0  0  0  0  0  0  0  0  0  0  0
    0.6867    1.1326    1.1864 H   0  0  0  0  0  0  0  0  0  0  0  0
    0.4112   -0.6120    1.4955 H   0  0  0  0  0  0  0  0  0  0  0  0
    0.6744   -0.0310   -0.1786 H   0  0  0  0  0  0  0  0  0  0  0  0
    4.8219   -0.1052    1.5179 H   0  0  0  0  0  0  0  0  0  0  0  0
    6.3336   -2.0681    1.1379 H   0  0  0  0  0  0  0  0  0  0  0  0
    5.4054   -4.1852    0.1966 H   0  0  0  0  0  0  0  0  0  0  0  0
    4.0792   -8.5497    2.5213 H   0  0  0  0  0  0  0  0  0  0  0  0
    3.9118   -8.7181    0.7367 H   0  0  0  0  0  0  0  0  0  0  0  0
    2.4693   -8.3647    1.7363 H   0  0  0  0  0  0  0  0  0  0  0  0
   -0.4528   -5.0004   -2.7667 H   0  0  0  0  0  0  0  0  0  0  0  0
   -1.3355   -3.5256   -4.5484 H   0  0  0  0  0  0  0  0  0  0  0  0
    0.0358   -1.6182   -5.3935 H   0  0  0  0  0  0  0  0  0  0  0  0
    2.3139   -1.2243   -4.4523 H   0  0  0  0  0  0  0  0  0  0  0  0
    3.2198   -2.7300   -2.7027 H   0  0  0  0  0  0  0  0  0  0  0  0
  1  2  1  0
  1 24  1  0
  1 25  1  0
  1 26  1  0
  2  3  1  0
  3  4  2  0
  3 22  1  0
  4  5  1  0
  4 27  1  0
  5  6  2  0
  5 28  1  0
  6  7  1  0
  6 29  1  0
  7  8  1  0
  7 22  2  0
  8  9  1  0
  8 15  2  0
  9 10  1  0
  9 12  2  0
 10 11  1  0
 11 30  1  0
 11 31  1  0
 11 32  1  0
 12 13  1  0
 13 14  1  0
 13 15  1  0
 15 16  1  0
 16 17  2  0
 16 21  1  0
 17 18  1  0
 17 33  1  0
 18 19  2  0
 18 34  1  0
 19 20  1  0
 19 35  1  0
 20 21  2  0
 20 36  1  0
 21 37  1  0
 22 23  1  0
M  END

