
     RDKit          3D

 51 53  0  0  0  0  0  0  0  0999 V2000
    3.2624   -3.0212   -0.1439 C   0  0  0  0  0  0  0  0  0  0  0  0
    3.5023   -1.5668   -0.4649 C   0  0  0  0  0  0  0  0  0  0  0  0
    2.4573   -0.7430   -0.9245 C   0  0  0  0  0  0  0  0  0  0  0  0
    2.6536    0.6120   -1.2316 C   0  0  0  0  0  0  0  0  0  0  0  0
    3.9303    1.1312   -1.0661 C   0  0  0  0  0  0  0  0  0  0  0  0
    4.9797    0.3259   -0.6104 C   0  0  0  0  0  0  0  0  0  0  0  0
    4.7912   -1.0136   -0.3070 C   0  0  0  0  0  0  0  0  0  0  0  0
    6.2162    1.1663   -0.5416 C   0  0  0  0  0  0  0  0  0  0  0  0
    7.3353    0.8579   -0.2020 O   0  0  0  0  0  0  0  0  0  0  0  0
    5.8263    2.4464   -0.9671 N   0  0  0  0  0  0  0  0  0  0  0  0
    6.7320    3.5777   -1.0490 C   0  0  0  0  0  0  0  0  0  0  0  0
    6.9598    4.2675    0.3025 C   0  0  0  0  0  0  0  0  0  0  0  0
    7.8648    5.4951    0.1852 C   0  0  0  0  0  0  0  0  0  0  0  0
    7.1921    6.6722   -0.4884 C   0  0  0  0  0  0  0  0  0  0  0  0
    5.9975    6.8821   -0.4842 O   0  0  0  0  0  0  0  0  0  0  0  0
    8.0786    7.4872   -1.0779 O   0  0  0  0  0  0  0  0  0  0  0  0
    7.5979    8.7301   -1.6229 C   0  0  0  0  0  0  0  0  0  0  0  0
    7.0881    8.6044   -3.0717 C   0  0  0  0  0  0  0  0  0  0  0  0
    7.7334    9.0886   -3.9837 O   0  0  0  0  0  0  0  0  0  0  0  0
    5.8893    7.9495   -3.1919 N   0  0  0  0  0  0  0  0  0  0  0  0
    5.1436    7.6854   -4.3627 C   0  0  0  0  0  0  0  0  0  0  0  0
    5.6533    7.9714   -5.6403 C   0  0  0  0  0  0  0  0  0  0  0  0
    4.8889    7.6852   -6.7706 C   0  0  0  0  0  0  0  0  0  0  0  0
    3.6235    7.1171   -6.6488 C   0  0  0  0  0  0  0  0  0  0  0  0
    3.1266    6.8430   -5.3712 C   0  0  0  0  0  0  0  0  0  0  0  0
    1.5227    6.1247   -5.2790 Cl  0  0  0  0  0  0  0  0  0  0  0  0
    3.8496    7.1188   -4.1980 C   0  0  0  0  0  0  0  0  0  0  0  0
    3.2986    6.8284   -2.8240 C   0  0  0  0  0  0  0  0  0  0  0  0
    4.4619    2.5067   -1.3029 C   0  0  0  0  0  0  0  0  0  0  0  0
    3.8839    3.4908   -1.7029 O   0  0  0  0  0  0  0  0  0  0  0  0
    2.2136   -3.3078   -0.3069 H   0  0  0  0  0  0  0  0  0  0  0  0
    3.5159   -3.2423    0.9061 H   0  0  0  0  0  0  0  0  0  0  0  0
    3.8937   -3.6738   -0.7695 H   0  0  0  0  0  0  0  0  0  0  0  0
    1.4611   -1.1767   -1.0459 H   0  0  0  0  0  0  0  0  0  0  0  0
    1.8339    1.2390   -1.5892 H   0  0  0  0  0  0  0  0  0  0  0  0
    5.6272   -1.6230    0.0462 H   0  0  0  0  0  0  0  0  0  0  0  0
    6.2943    4.2804   -1.7732 H   0  0  0  0  0  0  0  0  0  0  0  0
    7.6906    3.2129   -1.4504 H   0  0  0  0  0  0  0  0  0  0  0  0
    7.4150    3.5463    0.9986 H   0  0  0  0  0  0  0  0  0  0  0  0
    5.9895    4.5754    0.7222 H   0  0  0  0  0  0  0  0  0  0  0  0
    8.8063    5.2750   -0.3421 H   0  0  0  0  0  0  0  0  0  0  0  0
    8.1574    5.8461    1.1909 H   0  0  0  0  0  0  0  0  0  0  0  0
    8.4683    9.3937   -1.6552 H   0  0  0  0  0  0  0  0  0  0  0  0
    6.8195    9.1423   -0.9622 H   0  0  0  0  0  0  0  0  0  0  0  0
    5.4970    7.6113   -2.3146 H   0  0  0  0  0  0  0  0  0  0  0  0
    6.6392    8.4194   -5.7272 H   0  0  0  0  0  0  0  0  0  0  0  0
    5.2902    7.9089   -7.7621 H   0  0  0  0  0  0  0  0  0  0  0  0
    3.0158    6.8854   -7.5243 H   0  0  0  0  0  0  0  0  0  0  0  0
    2.2202    6.6396   -2.8694 H   0  0  0  0  0  0  0  0  0  0  0  0
    3.4601    7.6743   -2.1364 H   0  0  0  0  0  0  0  0  0  0  0  0
    3.7616    5.9346   -2.3722 H   0  0  0  0  0  0  0  0  0  0  0  0
  1  2  1  0
  1 31  1  0
  1 32  1  0
  1 33  1  0
  2  3  2  0
  2  7  1  0
  3  4  1  0
  3 34  1  0
  4  5  2  0
  4 35  1  0
  5  6  1  0
  5 29  1  0
  6  7  2  0
  6  8  1  0
  7 36  1  0
  8  9  2  0
  8 10  1  0
 10 11  1  0
 10 29  1  0
 11 12  1  0
 11 37  1  0
 11 38  1  0
 12 13  1  0
 12 39  1  0
 12 40  1  0
 13 14  1  0
 13 41  1  0
 13 42  1  0
 14 15  2  0
 14 16  1  0
 16 17  1  0
 17 18  1  0
 17 43  1  0
 17 44  1  0
 18 19  2  0
 18 20  1  0
 20 21  1  0
 20 45  1  0
 21 22  2  0
 21 27  1  0
 22 23  1  0
 22 46  1  0
 23 24  2  0
 23 47  1  0
 24 25  1  0
 24 48  1  0
 25 26  1  0
 25 27  2  0
 27 28  1  0
 28 49  1  0
 28 50  1  0
 28 51  1  0
 29 30  2  0
M  END

