
     RDKit          3D

 38 38  0  0  0  0  0  0  0  0999 V2000
    3.6972   -3.8226   -4.2178 C   0  0  0  0  0  0  0  0  0  0  0  0
    4.1343   -4.4858   -2.6052 S   0  0  0  0  0  0  0  0  0  0  0  0
    3.6912   -3.1803   -1.4046 C   0  0  0  0  0  0  0  0  0  0  0  0
    4.8749   -2.3742   -0.8588 C   0  0  0  0  0  0  0  0  0  0  0  0
    5.4247   -1.2650   -1.8019 C   0  0  1  0  0  0  0  0  0  0  0  0
    5.3632    0.1116   -1.1348 C   0  0  0  0  0  0  0  0  0  0  0  0
    6.7898   -1.5099   -2.2421 N   0  0  0  0  0  0  0  0  0  0  0  0
    7.1784   -2.5943   -2.9644 C   0  0  0  0  0  0  0  0  0  0  0  0
    6.4246   -3.5775   -3.0825 O   0  0  0  0  0  0  0  0  0  0  0  0
    8.5376   -2.5457   -3.5661 C   0  0  0  0  0  0  0  0  0  0  0  0
    9.1960   -1.3146   -3.7889 C   0  0  0  0  0  0  0  0  0  0  0  0
   10.4584   -1.2664   -4.2572 N   0  0  0  0  0  0  0  0  0  0  0  0
   11.0750   -2.3980   -4.5333 C   0  0  0  0  0  0  0  0  0  0  0  0
   10.5159   -3.7169   -4.4008 C   0  0  0  0  0  0  0  0  0  0  0  0
   11.2702   -4.8660   -4.7561 C   0  0  0  0  0  0  0  0  0  0  0  0
   10.8771   -6.2005   -4.6857 C   0  0  0  0  0  0  0  0  0  0  0  0
   11.7707   -7.2662   -5.0870 C   0  0  0  0  0  0  0  0  0  0  0  0
   12.9029   -7.1436   -5.5182 O   0  0  0  0  0  0  0  0  0  0  0  0
   11.2607   -8.5488   -4.9574 O   0  0  0  0  0  0  0  0  0  0  0  0
    9.1844   -3.7385   -3.8757 C   0  0  0  0  0  0  0  0  0  0  0  0
    4.2589   -4.4070   -4.9557 H   0  0  0  0  0  0  0  0  0  0  0  0
    3.9803   -2.7681   -4.2765 H   0  0  0  0  0  0  0  0  0  0  0  0
    2.6146   -3.9550   -4.3618 H   0  0  0  0  0  0  0  0  0  0  0  0
    3.2086   -3.7498   -0.5958 H   0  0  0  0  0  0  0  0  0  0  0  0
    2.9260   -2.5426   -1.8713 H   0  0  0  0  0  0  0  0  0  0  0  0
    5.6871   -3.0474   -0.5528 H   0  0  0  0  0  0  0  0  0  0  0  0
    4.4997   -1.9088    0.0664 H   0  0  0  0  0  0  0  0  0  0  0  0
    4.7753   -1.2222   -2.6984 H   0  0  0  0  0  0  0  0  0  0  0  0
    5.9763    0.1301   -0.2189 H   0  0  0  0  0  0  0  0  0  0  0  0
    4.3288    0.3651   -0.8580 H   0  0  0  0  0  0  0  0  0  0  0  0
    5.7312    0.8955   -1.8139 H   0  0  0  0  0  0  0  0  0  0  0  0
    7.4670   -0.7623   -2.1435 H   0  0  0  0  0  0  0  0  0  0  0  0
    8.6941   -0.3500   -3.6527 H   0  0  0  0  0  0  0  0  0  0  0  0
   12.1076   -2.3161   -4.8995 H   0  0  0  0  0  0  0  0  0  0  0  0
   12.2845   -4.6955   -5.1300 H   0  0  0  0  0  0  0  0  0  0  0  0
    9.8783   -6.4652   -4.3232 H   0  0  0  0  0  0  0  0  0  0  0  0
   10.3671   -8.4834   -4.5978 H   0  0  0  0  0  0  0  0  0  0  0  0
    8.6788   -4.6857   -3.6897 H   0  0  0  0  0  0  0  0  0  0  0  0
  1  2  1  0
  1 21  1  0
  1 22  1  0
  1 23  1  0
  2  3  1  0
  3  4  1  0
  3 24  1  0
  3 25  1  0
  4  5  1  0
  4 26  1  0
  4 27  1  0
  5  6  1  0
  5  7  1  0
  5 28  1  6
  6 29  1  0
  6 30  1  0
  6 31  1  0
  7  8  1  0
  7 32  1  0
  8  9  2  0
  8 10  1  0
 10 11  2  0
 10 20  1  0
 11 12  1  0
 11 33  1  0
 12 13  2  0
 13 14  1  0
 13 34  1  0
 14 15  1  0
 14 20  2  0
 15 16  2  0
 15 35  1  0
 16 17  1  0
 16 36  1  0
 17 18  2  0
 17 19  1  0
 19 37  1  0
 20 38  1  0
M  END

