
     RDKit          3D

 73 78  0  0  0  0  0  0  0  0999 V2000
   12.2585   -1.8989    1.6867 C   0  0  0  0  0  0  0  0  0  0  0  0
   11.6154   -2.6970    0.8297 C   0  0  0  0  0  0  0  0  0  0  0  0
   10.7095   -2.1249   -0.2192 C   0  0  0  0  0  0  0  0  0  0  0  0
   10.5092   -0.9251   -0.3433 O   0  0  0  0  0  0  0  0  0  0  0  0
   10.1220   -3.0544   -1.0344 N   0  0  0  0  0  0  0  0  0  0  0  0
    9.2327   -2.6719   -2.1301 C   0  0  1  0  0  0  0  0  0  0  0  0
    9.2038   -3.7700   -3.2068 C   0  0  0  0  0  0  0  0  0  0  0  0
    8.4007   -5.0065   -2.7546 C   0  0  0  0  0  0  0  0  0  0  0  0
    7.0530   -4.6946   -2.2823 N   0  0  0  0  0  0  0  0  0  0  0  0
    6.0655   -4.4891   -3.3323 C   0  0  0  0  0  0  0  0  0  0  0  0
    5.6913   -5.7686   -4.0618 C   0  0  0  0  0  0  0  0  0  0  0  0
    5.5474   -6.9777   -3.3646 C   0  0  0  0  0  0  0  0  0  0  0  0
    5.1528   -8.1425   -4.0204 C   0  0  0  0  0  0  0  0  0  0  0  0
    4.9062   -8.1278   -5.4029 C   0  0  0  0  0  0  0  0  0  0  0  0
    4.5491   -9.3301   -6.0667 N   0  0  0  0  0  0  0  0  0  0  0  0
    5.0951  -10.5679   -5.8102 C   0  0  0  0  0  0  0  0  0  0  0  0
    4.5016  -11.5176   -6.6335 C   0  0  0  0  0  0  0  0  0  0  0  0
    3.5278  -10.8538   -7.4328 C   0  0  0  0  0  0  0  0  0  0  0  0
    2.5795  -11.2149   -8.4758 C   0  0  0  0  0  0  0  0  0  0  0  0
    2.3213  -12.5241   -8.9751 C   0  0  0  0  0  0  0  0  0  0  0  0
    2.8392  -13.7461   -8.4342 C   0  0  0  0  0  0  0  0  0  0  0  0
    2.5939  -14.9381   -8.9512 N   0  0  0  0  0  0  0  0  0  0  0  0
    1.8069  -14.9913  -10.0403 C   0  0  0  0  0  0  0  0  0  0  0  0
    1.6154  -16.2233  -10.6304 N   0  0  0  0  0  0  0  0  0  0  0  0
    1.2019  -13.9294  -10.6145 N   0  0  0  0  0  0  0  0  0  0  0  0
    1.4500  -12.7435  -10.0951 C   0  0  0  0  0  0  0  0  0  0  0  0
    1.8734  -10.1533   -9.0228 N   0  0  0  0  0  0  0  0  0  0  0  0
    2.0456   -8.9383   -8.5513 C   0  0  0  0  0  0  0  0  0  0  0  0
    1.2571   -7.9171   -9.1538 N   0  0  0  0  0  0  0  0  0  0  0  0
    0.2834   -8.2261  -10.1685 C   0  0  0  0  0  0  0  0  0  0  0  0
   -1.1344   -8.0586   -9.5610 C   0  0  0  0  0  0  0  0  0  0  0  0
   -1.2829   -6.7730   -9.0082 O   0  0  0  0  0  0  0  0  0  0  0  0
   -0.3440   -6.4986   -7.9994 C   0  0  0  0  0  0  0  0  0  0  0  0
    1.1017   -6.6172   -8.5517 C   0  0  0  0  0  0  0  0  0  0  0  0
    2.8505   -8.4903   -7.5827 N   0  0  0  0  0  0  0  0  0  0  0  0
    3.5872   -9.4890   -7.0659 C   0  0  0  0  0  0  0  0  0  0  0  0
    5.0495   -6.9270   -6.1130 C   0  0  0  0  0  0  0  0  0  0  0  0
    5.4364   -5.7665   -5.4404 C   0  0  0  0  0  0  0  0  0  0  0  0
    7.0785   -3.6772   -1.2309 C   0  0  0  0  0  0  0  0  0  0  0  0
    7.7981   -2.3828   -1.6368 C   0  0  0  0  0  0  0  0  0  0  0  0
   12.9241   -2.2954    2.4572 H   0  0  0  0  0  0  0  0  0  0  0  0
   12.1202   -0.8157    1.6203 H   0  0  0  0  0  0  0  0  0  0  0  0
   11.7377   -3.7853    0.8758 H   0  0  0  0  0  0  0  0  0  0  0  0
   10.3281   -4.0341   -0.8835 H   0  0  0  0  0  0  0  0  0  0  0  0
    9.6488   -1.7421   -2.5475 H   0  0  0  0  0  0  0  0  0  0  0  0
   10.2314   -4.0606   -3.4841 H   0  0  0  0  0  0  0  0  0  0  0  0
    8.7448   -3.3460   -4.1151 H   0  0  0  0  0  0  0  0  0  0  0  0
    8.9367   -5.5230   -1.9348 H   0  0  0  0  0  0  0  0  0  0  0  0
    8.3346   -5.7383   -3.5744 H   0  0  0  0  0  0  0  0  0  0  0  0
    6.3582   -3.7275   -4.0881 H   0  0  0  0  0  0  0  0  0  0  0  0
    5.1576   -4.0876   -2.8475 H   0  0  0  0  0  0  0  0  0  0  0  0
    5.7499   -6.9922   -2.2914 H   0  0  0  0  0  0  0  0  0  0  0  0
    5.0171   -9.0685   -3.4577 H   0  0  0  0  0  0  0  0  0  0  0  0
    5.8995  -10.6788   -5.0879 H   0  0  0  0  0  0  0  0  0  0  0  0
    4.7847  -12.5654   -6.6530 H   0  0  0  0  0  0  0  0  0  0  0  0
    3.4466  -13.7431   -7.5260 H   0  0  0  0  0  0  0  0  0  0  0  0
    1.8157  -17.0252  -10.0452 H   0  0  0  0  0  0  0  0  0  0  0  0
    0.8107  -16.2955  -11.2409 H   0  0  0  0  0  0  0  0  0  0  0  0
    0.9553  -11.8844  -10.5564 H   0  0  0  0  0  0  0  0  0  0  0  0
    0.4472   -9.2523  -10.5132 H   0  0  0  0  0  0  0  0  0  0  0  0
    0.3880   -7.5090  -11.0011 H   0  0  0  0  0  0  0  0  0  0  0  0
   -1.2847   -8.8438   -8.7963 H   0  0  0  0  0  0  0  0  0  0  0  0
   -1.8943   -8.1700  -10.3475 H   0  0  0  0  0  0  0  0  0  0  0  0
   -0.4537   -7.1985   -7.1486 H   0  0  0  0  0  0  0  0  0  0  0  0
   -0.5262   -5.4729   -7.6471 H   0  0  0  0  0  0  0  0  0  0  0  0
    1.8398   -6.5022   -7.7504 H   0  0  0  0  0  0  0  0  0  0  0  0
    1.2408   -5.8389   -9.3223 H   0  0  0  0  0  0  0  0  0  0  0  0
    4.8678   -6.9135   -7.1868 H   0  0  0  0  0  0  0  0  0  0  0  0
    5.5561   -4.8388   -6.0081 H   0  0  0  0  0  0  0  0  0  0  0  0
    7.5906   -4.1106   -0.3520 H   0  0  0  0  0  0  0  0  0  0  0  0
    6.0444   -3.4659   -0.9145 H   0  0  0  0  0  0  0  0  0  0  0  0
    7.8402   -1.6722   -0.7970 H   0  0  0  0  0  0  0  0  0  0  0  0
    7.2438   -1.8809   -2.4492 H   0  0  0  0  0  0  0  0  0  0  0  0
  1  2  2  0
  1 41  1  0
  1 42  1  0
  2  3  1  0
  2 43  1  0
  3  4  2  0
  3  5  1  0
  5  6  1  0
  5 44  1  0
  6  7  1  0
  6 40  1  0
  6 45  1  6
  7  8  1  0
  7 46  1  0
  7 47  1  0
  8  9  1  0
  8 48  1  0
  8 49  1  0
  9 10  1  0
  9 39  1  0
 10 11  1  0
 10 50  1  0
 10 51  1  0
 11 12  2  0
 11 38  1  0
 12 13  1  0
 12 52  1  0
 13 14  2  0
 13 53  1  0
 14 15  1  0
 14 37  1  0
 15 16  1  0
 15 36  1  0
 16 17  2  0
 16 54  1  0
 17 18  1  0
 17 55  1  0
 18 19  1  0
 18 36  2  0
 19 20  1  0
 19 27  2  0
 20 21  2  0
 20 26  1  0
 21 22  1  0
 21 56  1  0
 22 23  2  0
 23 24  1  0
 23 25  1  0
 24 57  1  0
 24 58  1  0
 25 26  2  0
 26 59  1  0
 27 28  1  0
 28 29  1  0
 28 35  2  0
 29 30  1  0
 29 34  1  0
 30 31  1  0
 30 60  1  0
 30 61  1  0
 31 32  1  0
 31 62  1  0
 31 63  1  0
 32 33  1  0
 33 34  1  0
 33 64  1  0
 33 65  1  0
 34 66  1  0
 34 67  1  0
 35 36  1  0
 37 38  2  0
 37 68  1  0
 38 69  1  0
 39 40  1  0
 39 70  1  0
 39 71  1  0
 40 72  1  0
 40 73  1  0
M  END

