
     RDKit          3D

 52 53  0  0  0  0  0  0  0  0999 V2000
    0.9369    0.1707    0.1382 C   0  0  0  0  0  0  0  0  0  0  0  0
    2.4504   -0.0451   -0.0710 C   0  0  1  0  0  0  0  0  0  0  0  0
    2.7082   -0.2111   -1.5832 C   0  0  0  0  0  0  0  0  0  0  0  0
    3.1654    1.2437    0.3982 C   0  0  0  0  0  0  0  0  0  0  0  0
    2.9414   -1.2428    0.8299 C   0  0  1  0  0  0  0  0  0  0  0  0
    2.0711   -2.5286    0.8621 C   0  0  0  0  0  0  0  0  0  0  0  0
    2.3341   -3.5452   -0.2577 C   0  0  0  0  0  0  0  0  0  0  0  0
    3.8172   -3.9307   -0.3121 C   0  0  0  0  0  0  0  0  0  0  0  0
    4.6972   -2.6858   -0.4510 C   0  0  0  0  0  0  0  0  0  0  0  0
    4.4507   -1.6231    0.6536 C   0  0  2  0  0  0  0  0  0  0  0  0
    4.9865   -2.0312    1.9435 N   0  0  0  0  0  0  0  0  0  0  0  0
    6.4128   -2.2262    2.1875 C   0  0  1  0  0  0  0  0  0  0  0  0
    7.2104   -0.9027    2.1290 C   0  0  0  0  0  0  0  0  0  0  0  0
    6.9212    0.0367    3.3106 C   0  0  0  0  0  0  0  0  0  0  0  0
    7.0921   -0.6644    4.6815 C   0  0  2  0  0  0  0  0  0  0  0  0
    8.5674   -0.9250    5.0286 C   0  0  0  0  0  0  0  0  0  0  0  0
    9.2698    0.2979    5.3306 N   0  0  0  0  0  0  0  0  0  0  0  0
    9.2209   -1.7985    4.3007 O   0  0  0  0  0  0  0  0  0  0  0  0
    6.2658   -1.9615    4.7291 C   0  0  0  0  0  0  0  0  0  0  0  0
    6.6247   -2.8870    3.5607 C   0  0  0  0  0  0  0  0  0  0  0  0
    0.6240    1.1162   -0.3307 H   0  0  0  0  0  0  0  0  0  0  0  0
    0.6787    0.2288    1.2084 H   0  0  0  0  0  0  0  0  0  0  0  0
    0.3321   -0.6308   -0.3128 H   0  0  0  0  0  0  0  0  0  0  0  0
    2.2896    0.6503   -2.1267 H   0  0  0  0  0  0  0  0  0  0  0  0
    2.2347   -1.1157   -1.9933 H   0  0  0  0  0  0  0  0  0  0  0  0
    3.7819   -0.2487   -1.8240 H   0  0  0  0  0  0  0  0  0  0  0  0
    2.8308    2.1074   -0.1965 H   0  0  0  0  0  0  0  0  0  0  0  0
    4.2599    1.1843    0.2935 H   0  0  0  0  0  0  0  0  0  0  0  0
    2.9450    1.4605    1.4558 H   0  0  0  0  0  0  0  0  0  0  0  0
    2.8780   -0.8277    1.8496 H   0  0  0  0  0  0  0  0  0  0  0  0
    1.0059   -2.2659    0.9023 H   0  0  0  0  0  0  0  0  0  0  0  0
    2.2689   -3.0408    1.8236 H   0  0  0  0  0  0  0  0  0  0  0  0
    2.0268   -3.1320   -1.2328 H   0  0  0  0  0  0  0  0  0  0  0  0
    1.7120   -4.4401   -0.0961 H   0  0  0  0  0  0  0  0  0  0  0  0
    4.0141   -4.6236   -1.1453 H   0  0  0  0  0  0  0  0  0  0  0  0
    4.0838   -4.4837    0.6084 H   0  0  0  0  0  0  0  0  0  0  0  0
    4.5075   -2.2141   -1.4238 H   0  0  0  0  0  0  0  0  0  0  0  0
    5.7624   -2.9647   -0.4564 H   0  0  0  0  0  0  0  0  0  0  0  0
    5.0006   -0.7180    0.3690 H   0  0  0  0  0  0  0  0  0  0  0  0
    4.4725   -2.8456    2.2938 H   0  0  0  0  0  0  0  0  0  0  0  0
    6.8295   -2.9046    1.4157 H   0  0  0  0  0  0  0  0  0  0  0  0
    7.0123   -0.3758    1.1769 H   0  0  0  0  0  0  0  0  0  0  0  0
    8.2756   -1.1655    2.1333 H   0  0  0  0  0  0  0  0  0  0  0  0
    5.8836    0.4197    3.2320 H   0  0  0  0  0  0  0  0  0  0  0  0
    7.5911    0.9088    3.2657 H   0  0  0  0  0  0  0  0  0  0  0  0
    6.7118    0.0211    5.4634 H   0  0  0  0  0  0  0  0  0  0  0  0
    8.8229    0.9718    5.9397 H   0  0  0  0  0  0  0  0  0  0  0  0
   10.2714    0.2099    5.4309 H   0  0  0  0  0  0  0  0  0  0  0  0
    5.1907   -1.6994    4.6786 H   0  0  0  0  0  0  0  0  0  0  0  0
    6.4333   -2.4769    5.6859 H   0  0  0  0  0  0  0  0  0  0  0  0
    6.0501   -3.8354    3.6154 H   0  0  0  0  0  0  0  0  0  0  0  0
    7.6877   -3.1479    3.6490 H   0  0  0  0  0  0  0  0  0  0  0  0
  2  1  1  6
  1 21  1  0
  1 22  1  0
  1 23  1  0
  2  3  1  0
  2  4  1  0
  2  5  1  0
  3 24  1  0
  3 25  1  0
  3 26  1  0
  4 27  1  0
  4 28  1  0
  4 29  1  0
  5  6  1  0
  5 10  1  0
  5 30  1  1
  6  7  1  0
  6 31  1  0
  6 32  1  0
  7  8  1  0
  7 33  1  0
  7 34  1  0
  8  9  1  0
  8 35  1  0
  8 36  1  0
  9 10  1  0
  9 37  1  0
  9 38  1  0
 10 11  1  0
 10 39  1  6
 11 12  1  0
 11 40  1  0
 12 13  1  0
 12 20  1  0
 12 41  1  6
 13 14  1  0
 13 42  1  0
 13 43  1  0
 14 15  1  0
 14 44  1  0
 14 45  1  0
 15 16  1  0
 15 19  1  0
 15 46  1  1
 16 17  1  0
 16 18  2  0
 17 47  1  0
 17 48  1  0
 19 20  1  0
 19 49  1  0
 19 50  1  0
 20 51  1  0
 20 52  1  0
M  END

