
     RDKit          3D

 66 69  0  0  0  0  0  0  0  0999 V2000
    3.2052    3.5451    0.6785 C   0  0  0  0  0  0  0  0  0  0  0  0
    4.2838    2.4911    0.4245 C   0  0  0  0  0  0  0  0  0  0  0  0
    4.6523    1.6822    1.6713 C   0  0  0  0  0  0  0  0  0  0  0  0
    5.7296    0.6240    1.4052 C   0  0  0  0  0  0  0  0  0  0  0  0
    6.0985   -0.1354    2.5834 N   0  0  0  0  0  0  0  0  0  0  0  0
    5.7970   -1.4662    2.7401 C   0  0  0  0  0  0  0  0  0  0  0  0
    5.2322   -2.1055    1.8568 O   0  0  0  0  0  0  0  0  0  0  0  0
    6.2085   -2.0551    4.0410 C   0  0  0  0  0  0  0  0  0  0  0  0
    6.5950   -1.3665    5.2270 C   0  0  0  0  0  0  0  0  0  0  0  0
    6.9219   -2.3102    6.1850 C   0  0  0  0  0  0  0  0  0  0  0  0
    7.3883   -2.0566    7.5509 C   0  0  0  0  0  0  0  0  0  0  0  0
    6.9805   -0.9799    8.3158 C   0  0  0  0  0  0  0  0  0  0  0  0
    7.8279   -0.9472    9.8176 S   0  0  0  0  0  0  0  0  0  0  0  0
    8.6687   -2.4223    9.3445 C   0  0  0  0  0  0  0  0  0  0  0  0
    9.6643   -3.0645   10.2115 C   0  0  0  0  0  0  0  0  0  0  0  0
    9.8530   -2.7136   11.5569 C   0  0  0  0  0  0  0  0  0  0  0  0
   10.8202   -3.3766   12.3076 C   0  0  0  0  0  0  0  0  0  0  0  0
   11.5862   -4.3886   11.7063 C   0  0  0  0  0  0  0  0  0  0  0  0
   12.6425   -5.1486   12.4637 C   0  0  0  0  0  0  0  0  0  0  0  0
   11.4087   -4.7248   10.4182 N   0  0  0  0  0  0  0  0  0  0  0  0
   10.4894   -4.0890    9.7012 C   0  0  0  0  0  0  0  0  0  0  0  0
    8.3326   -2.8527    8.1588 N   0  0  0  0  0  0  0  0  0  0  0  0
    6.7384   -3.5683    5.6162 N   0  0  0  0  0  0  0  0  0  0  0  0
    6.9192   -4.8439    6.3135 C   0  0  0  0  0  0  0  0  0  0  0  0
    5.8476   -5.1311    7.3902 C   0  0  1  0  0  0  0  0  0  0  0  0
    4.4375   -5.3901    6.8189 C   0  0  0  0  0  0  0  0  0  0  0  0
    4.2799   -6.7792    6.1805 C   0  0  0  0  0  0  0  0  0  0  0  0
    4.7075   -7.9005    7.1359 C   0  0  0  0  0  0  0  0  0  0  0  0
    6.1348   -7.6771    7.6513 C   0  0  0  0  0  0  0  0  0  0  0  0
    6.2791   -6.2962    8.3068 C   0  0  0  0  0  0  0  0  0  0  0  0
    6.3066   -3.4240    4.3172 C   0  0  0  0  0  0  0  0  0  0  0  0
    6.0595   -4.5816    3.4033 C   0  0  0  0  0  0  0  0  0  0  0  0
    2.9660    4.1085   -0.2376 H   0  0  0  0  0  0  0  0  0  0  0  0
    3.5276    4.2729    1.4422 H   0  0  0  0  0  0  0  0  0  0  0  0
    2.2709    3.0829    1.0386 H   0  0  0  0  0  0  0  0  0  0  0  0
    5.1913    2.9810    0.0258 H   0  0  0  0  0  0  0  0  0  0  0  0
    3.9454    1.7989   -0.3676 H   0  0  0  0  0  0  0  0  0  0  0  0
    3.7546    1.1792    2.0720 H   0  0  0  0  0  0  0  0  0  0  0  0
    4.9999    2.3694    2.4661 H   0  0  0  0  0  0  0  0  0  0  0  0
    6.6287    1.1066    0.9789 H   0  0  0  0  0  0  0  0  0  0  0  0
    5.3701   -0.1074    0.6669 H   0  0  0  0  0  0  0  0  0  0  0  0
    6.6334    0.3271    3.3064 H   0  0  0  0  0  0  0  0  0  0  0  0
    6.6480   -0.2907    5.3849 H   0  0  0  0  0  0  0  0  0  0  0  0
    6.2260   -0.2351    8.0734 H   0  0  0  0  0  0  0  0  0  0  0  0
    9.2424   -1.9337   12.0206 H   0  0  0  0  0  0  0  0  0  0  0  0
   10.9781   -3.1175   13.3568 H   0  0  0  0  0  0  0  0  0  0  0  0
   12.7237   -4.8177   13.5087 H   0  0  0  0  0  0  0  0  0  0  0  0
   13.6222   -5.0248   11.9745 H   0  0  0  0  0  0  0  0  0  0  0  0
   12.4173   -6.2273   12.4486 H   0  0  0  0  0  0  0  0  0  0  0  0
   10.3795   -4.3828    8.6525 H   0  0  0  0  0  0  0  0  0  0  0  0
    7.9053   -4.8233    6.7952 H   0  0  0  0  0  0  0  0  0  0  0  0
    6.9382   -5.6330    5.5516 H   0  0  0  0  0  0  0  0  0  0  0  0
    5.7945   -4.2266    8.0175 H   0  0  0  0  0  0  0  0  0  0  0  0
    4.1682   -4.5996    6.0984 H   0  0  0  0  0  0  0  0  0  0  0  0
    3.7129   -5.3016    7.6483 H   0  0  0  0  0  0  0  0  0  0  0  0
    4.8869   -6.8438    5.2599 H   0  0  0  0  0  0  0  0  0  0  0  0
    3.2342   -6.9236    5.8606 H   0  0  0  0  0  0  0  0  0  0  0  0
    4.6258   -8.8812    6.6376 H   0  0  0  0  0  0  0  0  0  0  0  0
    4.0131   -7.9314    7.9965 H   0  0  0  0  0  0  0  0  0  0  0  0
    6.8472   -7.7759    6.8116 H   0  0  0  0  0  0  0  0  0  0  0  0
    6.4103   -8.4634    8.3741 H   0  0  0  0  0  0  0  0  0  0  0  0
    7.3136   -6.1365    8.6547 H   0  0  0  0  0  0  0  0  0  0  0  0
    5.6447   -6.2716    9.2111 H   0  0  0  0  0  0  0  0  0  0  0  0
    6.9560   -5.2157    3.2924 H   0  0  0  0  0  0  0  0  0  0  0  0
    5.7716   -4.1894    2.4212 H   0  0  0  0  0  0  0  0  0  0  0  0
    5.2396   -5.2260    3.7594 H   0  0  0  0  0  0  0  0  0  0  0  0
  1  2  1  0
  1 33  1  0
  1 34  1  0
  1 35  1  0
  2  3  1  0
  2 36  1  0
  2 37  1  0
  3  4  1  0
  3 38  1  0
  3 39  1  0
  4  5  1  0
  4 40  1  0
  4 41  1  0
  5  6  1  0
  5 42  1  0
  6  7  2  0
  6  8  1  0
  8  9  1  0
  8 31  2  0
  9 10  2  0
  9 43  1  0
 10 11  1  0
 10 23  1  0
 11 12  2  0
 11 22  1  0
 12 13  1  0
 12 44  1  0
 13 14  1  0
 14 15  1  0
 14 22  2  0
 15 16  2  0
 15 21  1  0
 16 17  1  0
 16 45  1  0
 17 18  2  0
 17 46  1  0
 18 19  1  0
 18 20  1  0
 19 47  1  0
 19 48  1  0
 19 49  1  0
 20 21  2  0
 21 50  1  0
 23 24  1  0
 23 31  1  0
 24 25  1  0
 24 51  1  0
 24 52  1  0
 25 26  1  0
 25 30  1  0
 25 53  1  1
 26 27  1  0
 26 54  1  0
 26 55  1  0
 27 28  1  0
 27 56  1  0
 27 57  1  0
 28 29  1  0
 28 58  1  0
 28 59  1  0
 29 30  1  0
 29 60  1  0
 29 61  1  0
 30 62  1  0
 30 63  1  0
 31 32  1  0
 32 64  1  0
 32 65  1  0
 32 66  1  0
M  END

