
     RDKit          3D

 36 40  0  0  0  0  0  0  0  0999 V2000
   -0.5905    1.2188   -0.2162 C   0  0  0  0  0  0  0  0  0  0  0  0
    0.7957    1.1439   -0.0969 C   0  0  0  0  0  0  0  0  0  0  0  0
    1.4359   -0.1104   -0.0494 C   0  0  0  0  0  0  0  0  0  0  0  0
    2.8384   -0.1353    0.0377 N   0  0  0  0  0  0  0  0  0  0  0  0
    3.6778   -1.0913    0.5643 C   0  0  0  0  0  0  0  0  0  0  0  0
    3.2248   -2.0748    1.5250 C   0  0  0  0  0  0  0  0  0  0  0  0
    4.1199   -2.9621    2.0534 C   0  0  0  0  0  0  0  0  0  0  0  0
    5.4701   -2.8626    1.6285 C   0  0  0  0  0  0  0  0  0  0  0  0
    6.5993   -3.5077    1.9049 N   0  0  0  0  0  0  0  0  0  0  0  0
    7.5490   -2.9031    1.1819 N   0  0  0  0  0  0  0  0  0  0  0  0
    7.0847   -1.9167    0.4680 N   0  0  0  0  0  0  0  0  0  0  0  0
    5.7723   -1.8679    0.7299 N   0  0  0  0  0  0  0  0  0  0  0  0
    4.9370   -0.9924    0.1733 N   0  0  0  0  0  0  0  0  0  0  0  0
    0.6616   -1.2745   -0.1359 C   0  0  0  0  0  0  0  0  0  0  0  0
   -0.7397   -1.1985   -0.2273 C   0  0  0  0  0  0  0  0  0  0  0  0
   -1.5010   -2.4579   -0.2931 C   0  0  0  0  0  0  0  0  0  0  0  0
   -0.9629   -3.6337   -0.1838 N   0  0  0  0  0  0  0  0  0  0  0  0
   -1.8943   -4.6424   -0.2813 C   0  0  0  0  0  0  0  0  0  0  0  0
   -1.6207   -6.0204   -0.2031 C   0  0  0  0  0  0  0  0  0  0  0  0
   -2.6705   -6.9251   -0.3179 C   0  0  0  0  0  0  0  0  0  0  0  0
   -3.9933   -6.4786   -0.5095 C   0  0  0  0  0  0  0  0  0  0  0  0
   -4.2894   -5.1187   -0.5905 C   0  0  0  0  0  0  0  0  0  0  0  0
   -3.2333   -4.2071   -0.4757 C   0  0  0  0  0  0  0  0  0  0  0  0
   -3.2652   -2.4618   -0.5376 S   0  0  0  0  0  0  0  0  0  0  0  0
   -1.3650    0.0583   -0.2687 C   0  0  0  0  0  0  0  0  0  0  0  0
   -1.0753    2.1971   -0.2530 H   0  0  0  0  0  0  0  0  0  0  0  0
    1.3939    2.0563   -0.0324 H   0  0  0  0  0  0  0  0  0  0  0  0
    3.3378    0.6101   -0.4385 H   0  0  0  0  0  0  0  0  0  0  0  0
    2.1824   -2.0829    1.8386 H   0  0  0  0  0  0  0  0  0  0  0  0
    3.8358   -3.7155    2.7890 H   0  0  0  0  0  0  0  0  0  0  0  0
    1.1180   -2.2634   -0.1592 H   0  0  0  0  0  0  0  0  0  0  0  0
   -0.5908   -6.3507   -0.0551 H   0  0  0  0  0  0  0  0  0  0  0  0
   -2.4695   -7.9975   -0.2594 H   0  0  0  0  0  0  0  0  0  0  0  0
   -4.8015   -7.2088   -0.5969 H   0  0  0  0  0  0  0  0  0  0  0  0
   -5.3161   -4.7783   -0.7399 H   0  0  0  0  0  0  0  0  0  0  0  0
   -2.4520    0.1350   -0.3416 H   0  0  0  0  0  0  0  0  0  0  0  0
  1  2  2  0
  1 25  1  0
  1 26  1  0
  2  3  1  0
  2 27  1  0
  3  4  1  0
  3 14  2  0
  4  5  1  0
  4 28  1  0
  5  6  1  0
  5 13  2  0
  6  7  2  0
  6 29  1  0
  7  8  1  0
  7 30  1  0
  8  9  2  0
  8 12  1  0
  9 10  1  0
 10 11  2  0
 11 12  1  0
 12 13  1  0
 14 15  1  0
 14 31  1  0
 15 16  1  0
 15 25  2  0
 16 17  2  0
 16 24  1  0
 17 18  1  0
 18 19  2  0
 18 23  1  0
 19 20  1  0
 19 32  1  0
 20 21  2  0
 20 33  1  0
 21 22  1  0
 21 34  1  0
 22 23  2  0
 22 35  1  0
 23 24  1  0
 25 36  1  0
M  END

