
     RDKit          3D

 89 97  0  0  0  0  0  0  0  0999 V2000
    1.3017    0.5976    1.8857 C   0  0  0  0  0  0  0  0  0  0  0  0
    2.7104    0.6285    1.3444 C   0  0  0  0  0  0  0  0  0  0  0  0
    3.8167    0.3742    2.1681 C   0  0  0  0  0  0  0  0  0  0  0  0
    5.1206    0.4229    1.6676 C   0  0  0  0  0  0  0  0  0  0  0  0
    5.3660    0.7324    0.3203 C   0  0  0  0  0  0  0  0  0  0  0  0
    6.7658    0.7689   -0.2182 C   0  0  0  0  0  0  0  0  0  0  0  0
    7.4540   -0.4620   -0.3077 C   0  0  0  0  0  0  0  0  0  0  0  0
    8.7401   -0.6029   -0.7118 N   0  0  0  0  0  0  0  0  0  0  0  0
    9.0285   -1.9233   -0.6596 C   0  0  0  0  0  0  0  0  0  0  0  0
   10.2909   -2.4635   -1.0308 C   0  0  0  0  0  0  0  0  0  0  0  0
   10.5304   -3.9287   -0.8723 C   0  0  0  0  0  0  0  0  0  0  0  0
   10.4588   -4.5439    0.3890 C   0  0  0  0  0  0  0  0  0  0  0  0
   10.6819   -5.9157    0.5340 C   0  0  0  0  0  0  0  0  0  0  0  0
   10.9812   -6.7264   -0.5704 C   0  0  0  0  0  0  0  0  0  0  0  0
   11.2276   -8.2078   -0.4206 C   0  0  0  0  0  0  0  0  0  0  0  0
   11.0497   -6.1104   -1.8315 C   0  0  0  0  0  0  0  0  0  0  0  0
   10.8320   -4.7412   -1.9817 C   0  0  0  0  0  0  0  0  0  0  0  0
   11.3240   -1.6536   -1.5429 C   0  0  0  0  0  0  0  0  0  0  0  0
   12.6552   -2.0475   -1.8701 C   0  0  0  0  0  0  0  0  0  0  0  0
   13.4414   -1.0161   -2.3392 C   0  0  0  0  0  0  0  0  0  0  0  0
   12.7659    0.2384   -2.4049 C   0  0  0  0  0  0  0  0  0  0  0  0
   11.1186    0.0677   -1.8209 S   0  0  0  0  0  0  0  0  0  0  0  0
   13.2911    1.4756   -2.8280 C   0  0  0  0  0  0  0  0  0  0  0  0
   14.6876    1.5307   -3.3534 C   0  0  0  0  0  0  0  0  0  0  0  0
   15.0704    0.8013   -4.4919 C   0  0  0  0  0  0  0  0  0  0  0  0
   16.3785    0.8621   -4.9792 C   0  0  0  0  0  0  0  0  0  0  0  0
   17.3552    1.6472   -4.3496 C   0  0  0  0  0  0  0  0  0  0  0  0
   18.7671    1.7253   -4.8771 C   0  0  0  0  0  0  0  0  0  0  0  0
   16.9720    2.3732   -3.2094 C   0  0  0  0  0  0  0  0  0  0  0  0
   15.6668    2.3200   -2.7211 C   0  0  0  0  0  0  0  0  0  0  0  0
   12.5282    2.6747   -2.7657 C   0  0  0  0  0  0  0  0  0  0  0  0
   11.2820    2.7374   -2.2438 N   0  0  0  0  0  0  0  0  0  0  0  0
   10.8597    4.0181   -2.3794 C   0  0  0  0  0  0  0  0  0  0  0  0
    9.6013    4.5027   -1.9570 C   0  0  0  0  0  0  0  0  0  0  0  0
    9.3373    5.9687   -2.1365 C   0  0  0  0  0  0  0  0  0  0  0  0
    8.4023    6.4285   -3.0772 C   0  0  0  0  0  0  0  0  0  0  0  0
    8.1727    7.7959   -3.2542 C   0  0  0  0  0  0  0  0  0  0  0  0
    8.8625    8.7538   -2.4974 C   0  0  0  0  0  0  0  0  0  0  0  0
    8.6170   10.2319   -2.6793 C   0  0  0  0  0  0  0  0  0  0  0  0
    9.7962    8.2911   -1.5548 C   0  0  0  0  0  0  0  0  0  0  0  0
   10.0322    6.9275   -1.3780 C   0  0  0  0  0  0  0  0  0  0  0  0
    8.5550    3.7419   -1.3763 C   0  0  0  0  0  0  0  0  0  0  0  0
    7.3298    4.2998   -0.8782 C   0  0  0  0  0  0  0  0  0  0  0  0
    6.5529    3.2764   -0.4000 C   0  0  0  0  0  0  0  0  0  0  0  0
    7.2657    2.0443   -0.5846 C   0  0  0  0  0  0  0  0  0  0  0  0
    8.4758    2.3775   -1.1651 N   0  0  0  0  0  0  0  0  0  0  0  0
    9.2170    1.7121   -1.3831 H   0  0  0  0  0  0  0  0  0  0  0  0
   11.8918    4.8246   -3.0411 C   0  0  0  0  0  0  0  0  0  0  0  0
   12.9348    3.9841   -3.2799 C   0  0  0  0  0  0  0  0  0  0  0  0
    7.8609   -2.6855   -0.2120 C   0  0  0  0  0  0  0  0  0  0  0  0
    6.8758   -1.7733    0.0087 C   0  0  0  0  0  0  0  0  0  0  0  0
    4.2584    0.9865   -0.5079 C   0  0  0  0  0  0  0  0  0  0  0  0
    2.9581    0.9322   -0.0046 C   0  0  0  0  0  0  0  0  0  0  0  0
    1.2538    0.0933    2.8623 H   0  0  0  0  0  0  0  0  0  0  0  0
    0.6169    0.0755    1.1984 H   0  0  0  0  0  0  0  0  0  0  0  0
    0.9045    1.6188    2.0212 H   0  0  0  0  0  0  0  0  0  0  0  0
    3.6576    0.1330    3.2232 H   0  0  0  0  0  0  0  0  0  0  0  0
    5.9642    0.2214    2.3322 H   0  0  0  0  0  0  0  0  0  0  0  0
   10.2368   -3.9358    1.2691 H   0  0  0  0  0  0  0  0  0  0  0  0
   10.6255   -6.3639    1.5302 H   0  0  0  0  0  0  0  0  0  0  0  0
   11.0680   -8.5429    0.6149 H   0  0  0  0  0  0  0  0  0  0  0  0
   12.2610   -8.4724   -0.7027 H   0  0  0  0  0  0  0  0  0  0  0  0
   10.5583   -8.7938   -1.0723 H   0  0  0  0  0  0  0  0  0  0  0  0
   11.2718   -6.7166   -2.7151 H   0  0  0  0  0  0  0  0  0  0  0  0
   10.8782   -4.2913   -2.9764 H   0  0  0  0  0  0  0  0  0  0  0  0
   13.0112   -3.0690   -1.7383 H   0  0  0  0  0  0  0  0  0  0  0  0
   14.4880   -1.1312   -2.6196 H   0  0  0  0  0  0  0  0  0  0  0  0
   14.3283    0.1904   -5.0114 H   0  0  0  0  0  0  0  0  0  0  0  0
   16.6433    0.2891   -5.8727 H   0  0  0  0  0  0  0  0  0  0  0  0
   18.9371    1.0029   -5.6891 H   0  0  0  0  0  0  0  0  0  0  0  0
   19.5048    1.5231   -4.0832 H   0  0  0  0  0  0  0  0  0  0  0  0
   18.9907    2.7309   -5.2730 H   0  0  0  0  0  0  0  0  0  0  0  0
   17.7122    2.9892   -2.6896 H   0  0  0  0  0  0  0  0  0  0  0  0
   15.3994    2.8871   -1.8264 H   0  0  0  0  0  0  0  0  0  0  0  0
    7.8545    5.7047   -3.6857 H   0  0  0  0  0  0  0  0  0  0  0  0
    7.4438    8.1234   -4.0012 H   0  0  0  0  0  0  0  0  0  0  0  0
    7.8864   10.4260   -3.4785 H   0  0  0  0  0  0  0  0  0  0  0  0
    9.5478   10.7645   -2.9367 H   0  0  0  0  0  0  0  0  0  0  0  0
    8.2317   10.6910   -1.7531 H   0  0  0  0  0  0  0  0  0  0  0  0
   10.3490    9.0127   -0.9456 H   0  0  0  0  0  0  0  0  0  0  0  0
   10.7627    6.5949   -0.6364 H   0  0  0  0  0  0  0  0  0  0  0  0
    7.0911    5.3590   -0.8773 H   0  0  0  0  0  0  0  0  0  0  0  0
    5.5717    3.3576    0.0579 H   0  0  0  0  0  0  0  0  0  0  0  0
   11.8154    5.8780   -3.2996 H   0  0  0  0  0  0  0  0  0  0  0  0
   13.8749    4.2158   -3.7755 H   0  0  0  0  0  0  0  0  0  0  0  0
    7.8017   -3.7665   -0.1063 H   0  0  0  0  0  0  0  0  0  0  0  0
    5.8558   -1.9629    0.3343 H   0  0  0  0  0  0  0  0  0  0  0  0
    4.4215    1.2172   -1.5636 H   0  0  0  0  0  0  0  0  0  0  0  0
    2.1160    1.1248   -0.6763 H   0  0  0  0  0  0  0  0  0  0  0  0
  1  2  1  0
  1 54  1  0
  1 55  1  0
  1 56  1  0
  2  3  2  0
  2 53  1  0
  3  4  1  0
  3 57  1  0
  4  5  2  0
  4 58  1  0
  5  6  1  0
  5 52  1  0
  6  7  1  0
  6 45  2  0
  7  8  2  0
  7 51  1  0
  8  9  1  0
  9 10  2  0
  9 50  1  0
 10 11  1  0
 10 18  1  0
 11 12  2  0
 11 17  1  0
 12 13  1  0
 12 59  1  0
 13 14  2  0
 13 60  1  0
 14 15  1  0
 14 16  1  0
 15 61  1  0
 15 62  1  0
 15 63  1  0
 16 17  2  0
 16 64  1  0
 17 65  1  0
 18 19  2  0
 18 22  1  0
 19 20  1  0
 19 66  1  0
 20 21  2  0
 20 67  1  0
 21 22  1  0
 21 23  1  0
 23 24  1  0
 23 31  2  0
 24 25  2  0
 24 30  1  0
 25 26  1  0
 25 68  1  0
 26 27  2  0
 26 69  1  0
 27 28  1  0
 27 29  1  0
 28 70  1  0
 28 71  1  0
 28 72  1  0
 29 30  2  0
 29 73  1  0
 30 74  1  0
 31 32  1  0
 31 49  1  0
 32 33  2  0
 33 34  1  0
 33 48  1  0
 34 35  1  0
 34 42  2  0
 35 36  2  0
 35 41  1  0
 36 37  1  0
 36 75  1  0
 37 38  2  0
 37 76  1  0
 38 39  1  0
 38 40  1  0
 39 77  1  0
 39 78  1  0
 39 79  1  0
 40 41  2  0
 40 80  1  0
 41 81  1  0
 42 43  1  0
 42 46  1  0
 43 44  2  0
 43 82  1  0
 44 45  1  0
 44 83  1  0
 45 46  1  0
 46 47  1  0
 48 49  2  0
 48 84  1  0
 49 85  1  0
 50 51  2  0
 50 86  1  0
 51 87  1  0
 52 53  2  0
 52 88  1  0
 53 89  1  0
M  END

