
     RDKit          3D

 38 39  0  0  0  0  0  0  0  0999 V2000
    2.6670   -0.8630   -0.3319 C   0  0  0  0  0  0  0  0  0  0  0  0
    2.2979    0.1956    0.5108 O   0  0  0  0  0  0  0  0  0  0  0  0
    3.3787    0.7933    1.1782 C   0  0  0  0  0  0  0  0  0  0  0  0
    2.8352    1.9387    2.0313 C   0  0  0  0  0  0  0  0  0  0  0  0
    3.9002    2.5989    2.8435 C   0  0  0  0  0  0  0  0  0  0  0  0
    4.2264    3.8574    2.6947 N   0  0  0  0  0  0  0  0  0  0  0  0
    5.2485    4.0442    3.6264 O   0  0  0  0  0  0  0  0  0  0  0  0
    5.4378    2.8715    4.2372 C   0  0  0  0  0  0  0  0  0  0  0  0
    6.4726    2.7871    5.3203 C   0  0  1  0  0  0  0  0  0  0  0  0
    7.4380    3.1199    4.9017 H   0  0  0  0  0  0  0  0  0  0  0  0
    6.1344    3.7218    6.4982 C   0  0  0  0  0  0  0  0  0  0  0  0
    6.6117    1.3994    5.7152 N   0  0  0  0  0  0  0  0  0  0  0  0
    7.7836    0.9521    6.2437 C   0  0  0  0  0  0  0  0  0  0  0  0
    8.7369    1.7020    6.4223 O   0  0  0  0  0  0  0  0  0  0  0  0
    7.8831   -0.5145    6.6056 C   0  0  0  0  0  0  0  0  0  0  0  0
    9.1326   -0.9258    7.0961 C   0  0  0  0  0  0  0  0  0  0  0  0
    9.3661   -2.2477    7.4633 C   0  0  0  0  0  0  0  0  0  0  0  0
   10.9370   -2.7251    8.0668 Cl  0  0  0  0  0  0  0  0  0  0  0  0
    8.3481   -3.1995    7.3523 C   0  0  0  0  0  0  0  0  0  0  0  0
    7.1014   -2.8076    6.8704 C   0  0  0  0  0  0  0  0  0  0  0  0
    6.8571   -1.4790    6.4957 C   0  0  0  0  0  0  0  0  0  0  0  0
    5.6336   -1.1052    6.0260 O   0  0  0  0  0  0  0  0  0  0  0  0
    4.6401    1.9413    3.8057 N   0  0  0  0  0  0  0  0  0  0  0  0
    1.7521   -1.2568   -0.7982 H   0  0  0  0  0  0  0  0  0  0  0  0
    3.1617   -1.6853    0.2249 H   0  0  0  0  0  0  0  0  0  0  0  0
    3.3584   -0.5342   -1.1346 H   0  0  0  0  0  0  0  0  0  0  0  0
    4.1272    1.1809    0.4548 H   0  0  0  0  0  0  0  0  0  0  0  0
    3.9047    0.0607    1.8248 H   0  0  0  0  0  0  0  0  0  0  0  0
    2.0653    1.5303    2.7066 H   0  0  0  0  0  0  0  0  0  0  0  0
    2.3551    2.6895    1.3881 H   0  0  0  0  0  0  0  0  0  0  0  0
    6.0466    4.7629    6.1534 H   0  0  0  0  0  0  0  0  0  0  0  0
    6.9437    3.6613    7.2385 H   0  0  0  0  0  0  0  0  0  0  0  0
    5.1873    3.4223    6.9727 H   0  0  0  0  0  0  0  0  0  0  0  0
    5.8451    0.7559    5.5361 H   0  0  0  0  0  0  0  0  0  0  0  0
    9.9125   -0.1679    7.1763 H   0  0  0  0  0  0  0  0  0  0  0  0
    8.5308   -4.2357    7.6414 H   0  0  0  0  0  0  0  0  0  0  0  0
    6.2976   -3.5454    6.7821 H   0  0  0  0  0  0  0  0  0  0  0  0
    5.0419   -1.8676    5.9813 H   0  0  0  0  0  0  0  0  0  0  0  0
  1  2  1  0
  1 24  1  0
  1 25  1  0
  1 26  1  0
  2  3  1  0
  3  4  1  0
  3 27  1  0
  3 28  1  0
  4  5  1  0
  4 29  1  0
  4 30  1  0
  5  6  2  0
  5 23  1  0
  6  7  1  0
  7  8  1  0
  8  9  1  0
  8 23  2  0
  9 10  1  6
  9 11  1  0
  9 12  1  0
 11 31  1  0
 11 32  1  0
 11 33  1  0
 12 13  1  0
 12 34  1  0
 13 14  2  0
 13 15  1  0
 15 16  2  0
 15 21  1  0
 16 17  1  0
 16 35  1  0
 17 18  1  0
 17 19  2  0
 19 20  1  0
 19 36  1  0
 20 21  2  0
 20 37  1  0
 21 22  1  0
 22 38  1  0
M  END

