
     RDKit          3D

 36 37  0  0  0  0  0  0  0  0999 V2000
    2.6926    0.8557    1.4184 C   0  0  0  0  0  0  0  0  0  0  0  0
    2.5519   -0.0908    0.2032 C   0  0  1  0  0  0  0  0  0  0  0  0
    3.2800   -1.4154    0.4910 C   0  0  0  0  0  0  0  0  0  0  0  0
    1.0620   -0.3779   -0.0450 C   0  0  0  0  0  0  0  0  0  0  0  0
    3.0694    0.4908   -1.0505 N   0  0  0  0  0  0  0  0  0  0  0  0
    4.4787    0.8578   -1.1283 C   0  0  0  0  0  0  0  0  0  0  0  0
    4.8143    1.5398   -2.4281 C   0  0  0  0  0  0  0  0  0  0  0  0
    5.6421    1.0250   -3.4566 C   0  0  0  0  0  0  0  0  0  0  0  0
    5.7313    1.8491   -4.4963 N   0  0  0  0  0  0  0  0  0  0  0  0
    4.9560    2.8835   -4.1685 N   0  0  0  0  0  0  0  0  0  0  0  0
    4.9087    3.6832   -4.7885 H   0  0  0  0  0  0  0  0  0  0  0  0
    4.3768    2.7721   -2.9326 C   0  0  0  0  0  0  0  0  0  0  0  0
    3.4731    3.8049   -2.4101 C   0  0  0  0  0  0  0  0  0  0  0  0
    2.7389    4.6258   -3.2900 C   0  0  0  0  0  0  0  0  0  0  0  0
    1.8912    5.6009   -2.7730 C   0  0  0  0  0  0  0  0  0  0  0  0
    1.2022    6.3711   -3.6226 F   0  0  0  0  0  0  0  0  0  0  0  0
    1.7157    5.7929   -1.4043 C   0  0  0  0  0  0  0  0  0  0  0  0
    2.4437    4.9632   -0.5542 C   0  0  0  0  0  0  0  0  0  0  0  0
    2.2987    5.1122    0.7683 F   0  0  0  0  0  0  0  0  0  0  0  0
    3.3178    3.9881   -1.0228 C   0  0  0  0  0  0  0  0  0  0  0  0
    2.2577    0.4039    2.3247 H   0  0  0  0  0  0  0  0  0  0  0  0
    2.1724    1.8112    1.2385 H   0  0  0  0  0  0  0  0  0  0  0  0
    3.7474    1.0809    1.6434 H   0  0  0  0  0  0  0  0  0  0  0  0
    2.8190   -1.9292    1.3490 H   0  0  0  0  0  0  0  0  0  0  0  0
    4.3419   -1.2586    0.7384 H   0  0  0  0  0  0  0  0  0  0  0  0
    3.2259   -2.0803   -0.3850 H   0  0  0  0  0  0  0  0  0  0  0  0
    0.5928   -0.8391    0.8380 H   0  0  0  0  0  0  0  0  0  0  0  0
    0.9403   -1.0533   -0.9053 H   0  0  0  0  0  0  0  0  0  0  0  0
    0.5140    0.5542   -0.2651 H   0  0  0  0  0  0  0  0  0  0  0  0
    2.4899    1.2843   -1.3196 H   0  0  0  0  0  0  0  0  0  0  0  0
    5.0911   -0.0558   -1.0675 H   0  0  0  0  0  0  0  0  0  0  0  0
    4.8227    1.4949   -0.2828 H   0  0  0  0  0  0  0  0  0  0  0  0
    6.1746    0.0735   -3.4643 H   0  0  0  0  0  0  0  0  0  0  0  0
    2.7858    4.5006   -4.3725 H   0  0  0  0  0  0  0  0  0  0  0  0
    1.0371    6.5531   -1.0175 H   0  0  0  0  0  0  0  0  0  0  0  0
    3.8828    3.4008   -0.3012 H   0  0  0  0  0  0  0  0  0  0  0  0
  1  2  1  0
  1 21  1  0
  1 22  1  0
  1 23  1  0
  2  3  1  0
  2  4  1  0
  2  5  1  6
  3 24  1  0
  3 25  1  0
  3 26  1  0
  4 27  1  0
  4 28  1  0
  4 29  1  0
  5  6  1  0
  5 30  1  0
  6  7  1  0
  6 31  1  0
  6 32  1  0
  7  8  1  0
  7 12  2  0
  8  9  2  0
  8 33  1  0
  9 10  1  0
 10 11  1  0
 10 12  1  0
 12 13  1  0
 13 14  2  0
 13 20  1  0
 14 15  1  0
 14 34  1  0
 15 16  1  0
 15 17  2  0
 17 18  1  0
 17 35  1  0
 18 19  1  0
 18 20  2  0
 20 36  1  0
M  END

