
     RDKit          3D

 45 46  0  0  0  0  0  0  0  0999 V2000
    3.4397    0.3754    1.2109 C   0  0  0  0  0  0  0  0  0  0  0  0
    4.4543   -0.2149    0.2459 C   0  0  0  0  0  0  0  0  0  0  0  0
    4.8323    0.7220   -0.7837 O   0  0  0  0  0  0  0  0  0  0  0  0
    4.0482    0.7968   -1.8782 C   0  0  0  0  0  0  0  0  0  0  0  0
    3.0423    0.1416   -2.0145 O   0  0  0  0  0  0  0  0  0  0  0  0
    4.6140    1.7491   -2.9334 C   0  0  1  0  0  0  0  0  0  0  0  0
    3.5279    2.1625   -3.9413 C   0  0  0  0  0  0  0  0  0  0  0  0
    2.5474    3.1753   -3.3366 C   0  0  0  0  0  0  0  0  0  0  0  0
    3.2667    4.3911   -2.7398 C   0  0  0  0  0  0  0  0  0  0  0  0
    4.3392    3.9834   -1.7178 C   0  0  2  0  0  0  0  0  0  0  0  0
    5.0004    5.1664   -1.1960 N   0  0  0  0  0  0  0  0  0  0  0  0
    5.5544    5.2859    0.0687 C   0  0  0  0  0  0  0  0  0  0  0  0
    5.7266    4.1629    0.9076 C   0  0  0  0  0  0  0  0  0  0  0  0
    6.2832    4.2965    2.1811 C   0  0  0  0  0  0  0  0  0  0  0  0
    6.6814    5.5462    2.6560 C   0  0  0  0  0  0  0  0  0  0  0  0
    6.5165    6.6606    1.8271 C   0  0  0  0  0  0  0  0  0  0  0  0
    5.9662    6.5653    0.5448 C   0  0  0  0  0  0  0  0  0  0  0  0
    5.8428    7.8023   -0.3212 C   0  0  0  0  0  0  0  0  0  0  0  0
    6.9357    7.9309   -1.3965 C   0  0  0  0  0  0  0  0  0  0  0  0
    5.3279    2.9839   -2.3523 C   0  0  0  0  0  0  0  0  0  0  0  0
    3.2328   -0.3456    2.0181 H   0  0  0  0  0  0  0  0  0  0  0  0
    2.4916    0.5919    0.6972 H   0  0  0  0  0  0  0  0  0  0  0  0
    3.8166    1.3029    1.6693 H   0  0  0  0  0  0  0  0  0  0  0  0
    4.0578   -1.1230   -0.2318 H   0  0  0  0  0  0  0  0  0  0  0  0
    5.3971   -0.4585    0.7567 H   0  0  0  0  0  0  0  0  0  0  0  0
    5.3726    1.1381   -3.4576 H   0  0  0  0  0  0  0  0  0  0  0  0
    2.9859    1.2718   -4.2905 H   0  0  0  0  0  0  0  0  0  0  0  0
    4.0256    2.6093   -4.8194 H   0  0  0  0  0  0  0  0  0  0  0  0
    1.9537    2.6763   -2.5517 H   0  0  0  0  0  0  0  0  0  0  0  0
    1.8270    3.5054   -4.1031 H   0  0  0  0  0  0  0  0  0  0  0  0
    2.5410    5.0691   -2.2594 H   0  0  0  0  0  0  0  0  0  0  0  0
    3.7545    4.9665   -3.5501 H   0  0  0  0  0  0  0  0  0  0  0  0
    3.8223    3.4721   -0.8827 H   0  0  0  0  0  0  0  0  0  0  0  0
    4.7865    6.0317   -1.6721 H   0  0  0  0  0  0  0  0  0  0  0  0
    5.4368    3.1721    0.5572 H   0  0  0  0  0  0  0  0  0  0  0  0
    6.4056    3.4061    2.8043 H   0  0  0  0  0  0  0  0  0  0  0  0
    7.1137    5.6562    3.6530 H   0  0  0  0  0  0  0  0  0  0  0  0
    6.8217    7.6481    2.1875 H   0  0  0  0  0  0  0  0  0  0  0  0
    5.8723    8.6917    0.3286 H   0  0  0  0  0  0  0  0  0  0  0  0
    4.8468    7.8336   -0.8037 H   0  0  0  0  0  0  0  0  0  0  0  0
    7.9327    7.9857   -0.9318 H   0  0  0  0  0  0  0  0  0  0  0  0
    6.7925    8.8399   -2.0035 H   0  0  0  0  0  0  0  0  0  0  0  0
    6.9389    7.0643   -2.0765 H   0  0  0  0  0  0  0  0  0  0  0  0
    6.0877    2.6806   -1.6197 H   0  0  0  0  0  0  0  0  0  0  0  0
    5.8594    3.5018   -3.1689 H   0  0  0  0  0  0  0  0  0  0  0  0
  1  2  1  0
  1 21  1  0
  1 22  1  0
  1 23  1  0
  2  3  1  0
  2 24  1  0
  2 25  1  0
  3  4  1  0
  4  5  2  0
  4  6  1  0
  6  7  1  0
  6 20  1  0
  6 26  1  6
  7  8  1  0
  7 27  1  0
  7 28  1  0
  8  9  1  0
  8 29  1  0
  8 30  1  0
  9 10  1  0
  9 31  1  0
  9 32  1  0
 10 11  1  0
 10 20  1  0
 10 33  1  1
 11 12  1  0
 11 34  1  0
 12 13  2  0
 12 17  1  0
 13 14  1  0
 13 35  1  0
 14 15  2  0
 14 36  1  0
 15 16  1  0
 15 37  1  0
 16 17  2  0
 16 38  1  0
 17 18  1  0
 18 19  1  0
 18 39  1  0
 18 40  1  0
 19 41  1  0
 19 42  1  0
 19 43  1  0
 20 44  1  0
 20 45  1  0
M  END

