
     RDKit          3D

 51 54  0  0  0  0  0  0  0  0999 V2000
    2.9065    0.9294   -0.6719 C   0  0  0  0  0  0  0  0  0  0  0  0
    2.1727   -0.4182   -0.6433 C   0  0  1  0  0  0  0  0  0  0  0  0
    1.3944   -0.7150   -1.9356 C   0  0  0  0  0  0  0  0  0  0  0  0
    2.3060   -0.9849   -3.1355 C   0  0  0  0  0  0  0  0  0  0  0  0
    3.4830   -1.7747   -2.8656 N   0  0  0  0  0  0  0  0  0  0  0  0
    4.1808   -2.3900   -3.9909 C   0  0  0  0  0  0  0  0  0  0  0  0
    5.1441   -1.6905   -4.7355 C   0  0  0  0  0  0  0  0  0  0  0  0
    5.7406   -2.3534   -5.7940 C   0  0  0  0  0  0  0  0  0  0  0  0
    5.3592   -3.7132   -6.0852 C   0  0  0  0  0  0  0  0  0  0  0  0
    5.8763   -4.5089   -7.1768 C   0  0  0  0  0  0  0  0  0  0  0  0
    5.3125   -5.5275   -7.6075 O   0  0  0  0  0  0  0  0  0  0  0  0
    7.0920   -4.0371   -7.7909 N   0  0  0  0  0  0  0  0  0  0  0  0
    7.4244   -4.6418   -9.0912 C   0  0  2  0  0  0  0  0  0  0  0  0
    8.4776   -5.7223   -8.7466 C   0  0  0  0  0  0  0  0  0  0  0  0
    9.1726   -5.2155   -7.4598 C   0  0  0  0  0  0  0  0  0  0  0  0
    8.3216   -4.0018   -6.9607 C   0  0  1  0  0  0  0  0  0  0  0  0
    9.0579   -2.6227   -7.0536 C   0  0  0  0  0  0  0  0  0  0  0  0
    8.6748   -2.0096   -8.3931 C   0  0  0  0  0  0  0  0  0  0  0  0
    7.9825   -1.0222   -8.4999 O   0  0  0  0  0  0  0  0  0  0  0  0
    9.0460   -2.7944   -9.5050 N   0  0  0  0  0  0  0  0  0  0  0  0
    7.9238   -3.5605  -10.0738 C   0  0  0  0  0  0  0  0  0  0  0  0
    4.3096   -4.2625   -5.2726 C   0  0  0  0  0  0  0  0  0  0  0  0
    3.7467   -3.6380   -4.2603 N   0  0  0  0  0  0  0  0  0  0  0  0
    4.0536   -1.8989   -1.5465 C   0  0  0  0  0  0  0  0  0  0  0  0
    3.1038   -1.6134   -0.3813 C   0  0  0  0  0  0  0  0  0  0  0  0
    2.1986    1.7589   -0.8259 H   0  0  0  0  0  0  0  0  0  0  0  0
    3.6593    0.9912   -1.4753 H   0  0  0  0  0  0  0  0  0  0  0  0
    3.4303    1.1119    0.2797 H   0  0  0  0  0  0  0  0  0  0  0  0
    1.4422   -0.3820    0.1815 H   0  0  0  0  0  0  0  0  0  0  0  0
    0.7200    0.1153   -2.1967 H   0  0  0  0  0  0  0  0  0  0  0  0
    0.7557   -1.5990   -1.7757 H   0  0  0  0  0  0  0  0  0  0  0  0
    2.6867   -0.0395   -3.5791 H   0  0  0  0  0  0  0  0  0  0  0  0
    1.7799   -1.4875   -3.9613 H   0  0  0  0  0  0  0  0  0  0  0  0
    5.4015   -0.6517   -4.5108 H   0  0  0  0  0  0  0  0  0  0  0  0
    6.4374   -1.8255   -6.4449 H   0  0  0  0  0  0  0  0  0  0  0  0
    6.5139   -5.1069   -9.4918 H   0  0  0  0  0  0  0  0  0  0  0  0
    9.1852   -5.9187   -9.5694 H   0  0  0  0  0  0  0  0  0  0  0  0
    7.9434   -6.6609   -8.5416 H   0  0  0  0  0  0  0  0  0  0  0  0
   10.2234   -4.9306   -7.6332 H   0  0  0  0  0  0  0  0  0  0  0  0
    9.1936   -6.0010   -6.6897 H   0  0  0  0  0  0  0  0  0  0  0  0
    8.0322   -4.1498   -5.9114 H   0  0  0  0  0  0  0  0  0  0  0  0
   10.1486   -2.7614   -6.9593 H   0  0  0  0  0  0  0  0  0  0  0  0
    8.7348   -1.9416   -6.2554 H   0  0  0  0  0  0  0  0  0  0  0  0
    9.8026   -3.4298   -9.2612 H   0  0  0  0  0  0  0  0  0  0  0  0
    8.2403   -4.0189  -11.0257 H   0  0  0  0  0  0  0  0  0  0  0  0
    7.1135   -2.8514  -10.2940 H   0  0  0  0  0  0  0  0  0  0  0  0
    3.9495   -5.2680   -5.5119 H   0  0  0  0  0  0  0  0  0  0  0  0
    4.9253   -1.2093   -1.5417 H   0  0  0  0  0  0  0  0  0  0  0  0
    4.4946   -2.9060   -1.4946 H   0  0  0  0  0  0  0  0  0  0  0  0
    3.7088   -1.4584    0.5255 H   0  0  0  0  0  0  0  0  0  0  0  0
    2.4923   -2.5124   -0.2002 H   0  0  0  0  0  0  0  0  0  0  0  0
  1  2  1  0
  1 26  1  0
  1 27  1  0
  1 28  1  0
  2  3  1  0
  2 25  1  0
  2 29  1  1
  3  4  1  0
  3 30  1  0
  3 31  1  0
  4  5  1  0
  4 32  1  0
  4 33  1  0
  5  6  1  0
  5 24  1  0
  6  7  2  0
  6 23  1  0
  7  8  1  0
  7 34  1  0
  8  9  2  0
  8 35  1  0
  9 10  1  0
  9 22  1  0
 10 11  2  0
 10 12  1  0
 12 13  1  0
 12 16  1  0
 13 14  1  0
 13 21  1  0
 13 36  1  6
 14 15  1  0
 14 37  1  0
 14 38  1  0
 15 16  1  0
 15 39  1  0
 15 40  1  0
 16 17  1  0
 16 41  1  1
 17 18  1  0
 17 42  1  0
 17 43  1  0
 18 19  2  0
 18 20  1  0
 20 21  1  0
 20 44  1  0
 21 45  1  0
 21 46  1  0
 22 23  2  0
 22 47  1  0
 24 25  1  0
 24 48  1  0
 24 49  1  0
 25 50  1  0
 25 51  1  0
M  END

