
     RDKit          3D

 54 57  0  0  0  0  0  0  0  0999 V2000
    1.6304    0.0034   -0.6029 C   0  0  0  0  0  0  0  0  0  0  0  0
    2.0646   -0.3883    0.6964 O   0  0  0  0  0  0  0  0  0  0  0  0
    2.8430    0.4016    1.4289 C   0  0  0  0  0  0  0  0  0  0  0  0
    3.3018    1.6807    1.0058 C   0  0  0  0  0  0  0  0  0  0  0  0
    4.1224    2.4182    1.8266 C   0  0  0  0  0  0  0  0  0  0  0  0
    4.5586    1.9283    3.0969 C   0  0  0  0  0  0  0  0  0  0  0  0
    5.4679    2.6109    3.8402 N   0  0  0  0  0  0  0  0  0  0  0  0
    5.5907    4.0637    3.7601 C   0  0  0  0  0  0  0  0  0  0  0  0
    4.8257    4.7755    3.1567 O   0  0  0  0  0  0  0  0  0  0  0  0
    6.7703    4.3602    4.5644 C   0  0  0  0  0  0  0  0  0  0  0  0
    7.4629    5.4614    4.8602 N   0  0  0  0  0  0  0  0  0  0  0  0
    8.4837    4.9661    5.5629 N   0  0  0  0  0  0  0  0  0  0  0  0
    9.1942    5.6054    5.9050 H   0  0  0  0  0  0  0  0  0  0  0  0
    8.4900    3.5956    5.7245 C   0  0  0  0  0  0  0  0  0  0  0  0
    9.5759    2.8606    6.4449 C   0  0  0  0  0  0  0  0  0  0  0  0
    9.4267    2.7839    7.9856 C   0  0  1  0  0  0  0  0  0  0  0  0
    8.1514    2.0435    8.4041 C   0  0  0  0  0  0  0  0  0  0  0  0
   10.6726    2.1340    8.5988 C   0  0  0  0  0  0  0  0  0  0  0  0
    7.3403    3.1865    5.0724 C   0  0  0  0  0  0  0  0  0  0  0  0
    6.5664    1.9543    4.7160 C   0  0  2  0  0  0  0  0  0  0  0  0
    7.3561    0.8620    4.0298 C   0  0  0  0  0  0  0  0  0  0  0  0
    7.4367   -0.3781    4.6501 C   0  0  0  0  0  0  0  0  0  0  0  0
    8.2490   -1.4342    4.1033 C   0  0  0  0  0  0  0  0  0  0  0  0
    8.9439   -1.1338    2.9078 C   0  0  0  0  0  0  0  0  0  0  0  0
    9.7106   -2.1213    2.3740 F   0  0  0  0  0  0  0  0  0  0  0  0
    8.8885    0.0787    2.2643 C   0  0  0  0  0  0  0  0  0  0  0  0
    8.0789    1.1438    2.8326 C   0  0  0  0  0  0  0  0  0  0  0  0
    4.0012    0.6544    3.5470 C   0  0  0  0  0  0  0  0  0  0  0  0
    4.2493    0.3244    4.8074 O   0  0  0  0  0  0  0  0  0  0  0  0
    3.8616   -0.9495    5.3071 C   0  0  0  0  0  0  0  0  0  0  0  0
    3.1955   -0.0904    2.7006 C   0  0  0  0  0  0  0  0  0  0  0  0
    1.0108   -0.8212   -0.9740 H   0  0  0  0  0  0  0  0  0  0  0  0
    2.4877    0.1493   -1.2784 H   0  0  0  0  0  0  0  0  0  0  0  0
    1.0273    0.9240   -0.5584 H   0  0  0  0  0  0  0  0  0  0  0  0
    3.0457    2.0693    0.0215 H   0  0  0  0  0  0  0  0  0  0  0  0
    4.5016    3.3766    1.4866 H   0  0  0  0  0  0  0  0  0  0  0  0
   10.5443    3.3334    6.2051 H   0  0  0  0  0  0  0  0  0  0  0  0
    9.6166    1.8414    6.0287 H   0  0  0  0  0  0  0  0  0  0  0  0
    9.3596    3.8205    8.3685 H   0  0  0  0  0  0  0  0  0  0  0  0
    8.1583    1.0082    8.0237 H   0  0  0  0  0  0  0  0  0  0  0  0
    7.2471    2.5379    8.0154 H   0  0  0  0  0  0  0  0  0  0  0  0
    8.0633    2.0013    9.5016 H   0  0  0  0  0  0  0  0  0  0  0  0
   10.7933    1.0992    8.2366 H   0  0  0  0  0  0  0  0  0  0  0  0
   10.6030    2.0985    9.6978 H   0  0  0  0  0  0  0  0  0  0  0  0
   11.5897    2.6866    8.3372 H   0  0  0  0  0  0  0  0  0  0  0  0
    6.0609    1.5502    5.6010 H   0  0  0  0  0  0  0  0  0  0  0  0
    6.8877   -0.5547    5.5794 H   0  0  0  0  0  0  0  0  0  0  0  0
    8.3553   -2.4076    4.5776 H   0  0  0  0  0  0  0  0  0  0  0  0
    9.4636    0.2226    1.3485 H   0  0  0  0  0  0  0  0  0  0  0  0
    8.0691    2.1308    2.3726 H   0  0  0  0  0  0  0  0  0  0  0  0
    4.2219   -0.9911    6.3411 H   0  0  0  0  0  0  0  0  0  0  0  0
    4.3351   -1.7521    4.7223 H   0  0  0  0  0  0  0  0  0  0  0  0
    2.7646   -1.0602    5.2959 H   0  0  0  0  0  0  0  0  0  0  0  0
    2.7838   -1.0510    3.0011 H   0  0  0  0  0  0  0  0  0  0  0  0
  1  2  1  0
  1 32  1  0
  1 33  1  0
  1 34  1  0
  2  3  1  0
  3  4  2  0
  3 31  1  0
  4  5  1  0
  4 35  1  0
  5  6  2  0
  5 36  1  0
  6  7  1  0
  6 28  1  0
  7  8  1  0
  7 20  1  0
  8  9  2  0
  8 10  1  0
 10 11  2  0
 10 19  1  0
 11 12  1  0
 12 13  1  0
 12 14  1  0
 14 15  1  0
 14 19  2  0
 15 16  1  0
 15 37  1  0
 15 38  1  0
 16 17  1  0
 16 18  1  0
 16 39  1  1
 17 40  1  0
 17 41  1  0
 17 42  1  0
 18 43  1  0
 18 44  1  0
 18 45  1  0
 19 20  1  0
 20 21  1  0
 20 46  1  1
 21 22  2  0
 21 27  1  0
 22 23  1  0
 22 47  1  0
 23 24  2  0
 23 48  1  0
 24 25  1  0
 24 26  1  0
 26 27  2  0
 26 49  1  0
 27 50  1  0
 28 29  1  0
 28 31  2  0
 29 30  1  0
 30 51  1  0
 30 52  1  0
 30 53  1  0
 31 54  1  0
M  END

