
     RDKit          3D

 39 39  0  0  0  0  0  0  0  0999 V2000
    1.0099   -3.3781    3.9663 C   0  0  0  0  0  0  0  0  0  0  0  0
    2.2186   -3.3075    4.0147 C   0  0  0  0  0  0  0  0  0  0  0  0
    3.6785   -3.2201    4.0571 C   0  0  0  0  0  0  0  0  0  0  0  0
    4.3275   -3.0133    2.6760 C   0  0  0  0  0  0  0  0  0  0  0  0
    5.8538   -2.9234    2.7590 C   0  0  0  0  0  0  0  0  0  0  0  0
    6.5026   -2.6821    1.3939 C   0  0  1  0  0  0  0  0  0  0  0  0
    6.0584   -1.4820    0.7901 O   0  0  0  0  0  0  0  0  0  0  0  0
    8.0668   -2.6791    1.3829 C   0  0  1  0  0  0  0  0  0  0  0  0
    8.7171   -1.5820    2.1974 C   0  0  0  0  0  0  0  0  0  0  0  0
    8.9501   -1.6698    3.5807 C   0  0  0  0  0  0  0  0  0  0  0  0
    9.5013   -0.5909    4.2775 C   0  0  0  0  0  0  0  0  0  0  0  0
    9.8275    0.6125    3.6348 C   0  0  0  0  0  0  0  0  0  0  0  0
   10.4011    1.7834    4.3941 C   0  0  0  0  0  0  0  0  0  0  0  0
    9.5917    0.6963    2.2528 C   0  0  0  0  0  0  0  0  0  0  0  0
    9.0511   -0.3788    1.5471 C   0  0  0  0  0  0  0  0  0  0  0  0
    8.6955   -4.3820    1.7117 S   0  0  1  0  0  0  0  0  0  0  0  0
   10.4584   -4.2908    1.3318 C   0  0  0  0  0  0  0  0  0  0  0  0
    8.5759   -4.7157    3.1443 O   0  0  0  0  0  0  0  0  0  0  0  0
    8.0654   -5.2546    0.7086 O   0  0  0  0  0  0  0  0  0  0  0  0
   -0.0607   -3.4431    3.9253 H   0  0  0  0  0  0  0  0  0  0  0  0
    4.0813   -4.1388    4.5208 H   0  0  0  0  0  0  0  0  0  0  0  0
    3.9691   -2.3927    4.7302 H   0  0  0  0  0  0  0  0  0  0  0  0
    3.9256   -2.0997    2.2109 H   0  0  0  0  0  0  0  0  0  0  0  0
    4.0391   -3.8470    2.0134 H   0  0  0  0  0  0  0  0  0  0  0  0
    6.2670   -3.8478    3.1932 H   0  0  0  0  0  0  0  0  0  0  0  0
    6.1424   -2.1075    3.4475 H   0  0  0  0  0  0  0  0  0  0  0  0
    6.1951   -3.4862    0.7075 H   0  0  0  0  0  0  0  0  0  0  0  0
    6.2533   -0.7513    1.3954 H   0  0  0  0  0  0  0  0  0  0  0  0
    8.3357   -2.5464    0.3239 H   0  0  0  0  0  0  0  0  0  0  0  0
    8.7203   -2.5962    4.1081 H   0  0  0  0  0  0  0  0  0  0  0  0
    9.6811   -0.6906    5.3518 H   0  0  0  0  0  0  0  0  0  0  0  0
   10.6918    1.5004    5.4164 H   0  0  0  0  0  0  0  0  0  0  0  0
    9.6675    2.6042    4.4717 H   0  0  0  0  0  0  0  0  0  0  0  0
   11.2896    2.1948    3.8884 H   0  0  0  0  0  0  0  0  0  0  0  0
    9.8409    1.6170    1.7169 H   0  0  0  0  0  0  0  0  0  0  0  0
    8.8817   -0.2858    0.4708 H   0  0  0  0  0  0  0  0  0  0  0  0
   10.9438   -3.5705    2.0019 H   0  0  0  0  0  0  0  0  0  0  0  0
   10.5880   -4.0212    0.2758 H   0  0  0  0  0  0  0  0  0  0  0  0
   10.8310   -5.3075    1.5184 H   0  0  0  0  0  0  0  0  0  0  0  0
  1  2  3  0
  1 20  1  0
  2  3  1  0
  3  4  1  0
  3 21  1  0
  3 22  1  0
  4  5  1  0
  4 23  1  0
  4 24  1  0
  5  6  1  0
  5 25  1  0
  5 26  1  0
  6  7  1  0
  6  8  1  0
  6 27  1  6
  7 28  1  0
  8  9  1  0
  8 16  1  0
  8 29  1  6
  9 10  2  0
  9 15  1  0
 10 11  1  0
 10 30  1  0
 11 12  2  0
 11 31  1  0
 12 13  1  0
 12 14  1  0
 13 32  1  0
 13 33  1  0
 13 34  1  0
 14 15  2  0
 14 35  1  0
 15 36  1  0
 16 17  1  6
 16 18  2  0
 16 19  2  0
 17 37  1  0
 17 38  1  0
 17 39  1  0
M  END

