
     RDKit          3D

 37 38  0  0  0  0  0  0  0  0999 V2000
    1.6526   -0.3117    1.9879 C   0  0  0  0  0  0  0  0  0  0  0  0
    2.8519   -0.0736    1.1270 C   0  0  0  0  0  0  0  0  0  0  0  0
    3.6212    1.1148    1.1837 C   0  0  0  0  0  0  0  0  0  0  0  0
    4.7369    1.3232    0.3724 C   0  0  0  0  0  0  0  0  0  0  0  0
    5.0814    0.2473   -0.5431 C   0  0  0  0  0  0  0  0  0  0  0  0
    4.2470   -0.8695   -0.5206 C   0  0  0  0  0  0  0  0  0  0  0  0
    4.5622   -1.9530   -1.3775 N   0  0  0  0  0  0  0  0  0  0  0  0
    3.8620   -3.2011   -1.3872 C   0  0  0  0  0  0  0  0  0  0  0  0
    4.4523   -4.2337   -0.3943 C   0  0  0  0  0  0  0  0  0  0  0  0
    3.7249   -5.5655   -0.4740 C   0  0  0  0  0  0  0  0  0  0  0  0
    3.8763   -6.0950   -1.7753 O   0  0  0  0  0  0  0  0  0  0  0  0
    3.1550   -7.2756   -2.0367 C   0  0  1  0  0  0  0  0  0  0  0  0
    3.2001   -7.6212   -3.5255 C   0  0  0  0  0  0  0  0  0  0  0  0
    2.9155   -9.1260   -3.5255 C   0  0  0  0  0  0  0  0  0  0  0  0
    3.3182   -9.6166   -2.2448 O   0  0  0  0  0  0  0  0  0  0  0  0
    3.7558   -8.5544   -1.4212 C   0  0  0  0  0  0  0  0  0  0  0  0
    3.1699   -1.0813    0.2300 N   0  0  0  0  0  0  0  0  0  0  0  0
    1.4585    0.5342    2.6643 H   0  0  0  0  0  0  0  0  0  0  0  0
    1.7726   -1.2246    2.6053 H   0  0  0  0  0  0  0  0  0  0  0  0
    0.7431   -0.4818    1.3777 H   0  0  0  0  0  0  0  0  0  0  0  0
    3.3112    1.8940    1.8876 H   0  0  0  0  0  0  0  0  0  0  0  0
    5.3209    2.2414    0.4204 H   0  0  0  0  0  0  0  0  0  0  0  0
    5.9619    0.2896   -1.1876 H   0  0  0  0  0  0  0  0  0  0  0  0
    5.4143   -1.8685   -1.9254 H   0  0  0  0  0  0  0  0  0  0  0  0
    3.9031   -3.6275   -2.4019 H   0  0  0  0  0  0  0  0  0  0  0  0
    2.8256   -2.9855   -1.0933 H   0  0  0  0  0  0  0  0  0  0  0  0
    4.3582   -3.8213    0.6218 H   0  0  0  0  0  0  0  0  0  0  0  0
    5.5234   -4.3910   -0.6051 H   0  0  0  0  0  0  0  0  0  0  0  0
    2.6491   -5.4328   -0.2365 H   0  0  0  0  0  0  0  0  0  0  0  0
    4.1428   -6.2523    0.2886 H   0  0  0  0  0  0  0  0  0  0  0  0
    2.1046   -7.1580   -1.7000 H   0  0  0  0  0  0  0  0  0  0  0  0
    4.2166   -7.4021   -3.8906 H   0  0  0  0  0  0  0  0  0  0  0  0
    2.4867   -7.0410   -4.1286 H   0  0  0  0  0  0  0  0  0  0  0  0
    3.4663   -9.6606   -4.3187 H   0  0  0  0  0  0  0  0  0  0  0  0
    1.8394   -9.3378   -3.6682 H   0  0  0  0  0  0  0  0  0  0  0  0
    4.8618   -8.4584   -1.4210 H   0  0  0  0  0  0  0  0  0  0  0  0
    3.4270   -8.7511   -0.3876 H   0  0  0  0  0  0  0  0  0  0  0  0
  1  2  1  0
  1 18  1  0
  1 19  1  0
  1 20  1  0
  2  3  2  0
  2 17  1  0
  3  4  1  0
  3 21  1  0
  4  5  2  0
  4 22  1  0
  5  6  1  0
  5 23  1  0
  6  7  1  0
  6 17  2  0
  7  8  1  0
  7 24  1  0
  8  9  1  0
  8 25  1  0
  8 26  1  0
  9 10  1  0
  9 27  1  0
  9 28  1  0
 10 11  1  0
 10 29  1  0
 10 30  1  0
 11 12  1  0
 12 13  1  0
 12 16  1  0
 12 31  1  1
 13 14  1  0
 13 32  1  0
 13 33  1  0
 14 15  1  0
 14 34  1  0
 14 35  1  0
 15 16  1  0
 16 36  1  0
 16 37  1  0
M  END

