
     RDKit          3D

 58 61  0  0  0  0  0  0  0  0999 V2000
    9.1306  -12.6761    3.4907 C   0  0  0  0  0  0  0  0  0  0  0  0
    8.1256  -11.7265    2.8375 C   0  0  0  0  0  0  0  0  0  0  0  0
    8.7361  -10.3855    2.4182 C   0  0  0  0  0  0  0  0  0  0  0  0
    7.7317   -9.4353    1.7596 C   0  0  0  0  0  0  0  0  0  0  0  0
    8.3602   -8.1133    1.3427 C   0  0  0  0  0  0  0  0  0  0  0  0
    7.3508   -7.2794    0.7968 O   0  0  0  0  0  0  0  0  0  0  0  0
    7.6605   -6.0047    0.3985 C   0  0  0  0  0  0  0  0  0  0  0  0
    8.9663   -5.5375    0.4062 C   0  0  0  0  0  0  0  0  0  0  0  0
    9.2347   -4.1952    0.0535 C   0  0  0  0  0  0  0  0  0  0  0  0
   10.8890   -3.6193    0.0755 Cl  0  0  0  0  0  0  0  0  0  0  0  0
    8.1961   -3.3384   -0.3103 C   0  0  0  0  0  0  0  0  0  0  0  0
    6.8886   -3.8089   -0.3081 C   0  0  0  0  0  0  0  0  0  0  0  0
    5.6804   -2.7099   -0.9631 Cl  0  0  0  0  0  0  0  0  0  0  0  0
    6.5374   -5.1635    0.0530 C   0  0  0  0  0  0  0  0  0  0  0  0
    5.1634   -5.5904    0.1939 C   0  0  0  0  0  0  0  0  0  0  0  0
    4.2551   -4.7152    0.7051 N   0  0  0  0  0  0  0  0  0  0  0  0
    2.9650   -5.0479    0.7875 C   0  0  0  0  0  0  0  0  0  0  0  0
    2.1465   -4.0972    1.3147 N   0  0  0  0  0  0  0  0  0  0  0  0
    2.3572   -6.2040    0.4260 N   0  0  0  0  0  0  0  0  0  0  0  0
    3.2366   -7.0674   -0.0899 C   0  0  0  0  0  0  0  0  0  0  0  0
    4.6094   -6.8582   -0.2290 C   0  0  0  0  0  0  0  0  0  0  0  0
    5.1996   -7.9868   -0.9780 C   0  0  0  0  0  0  0  0  0  0  0  0
    4.1039   -8.8920   -1.2368 N   0  0  0  0  0  0  0  0  0  0  0  0
    4.3536  -10.1687   -1.7624 C   0  0  0  0  0  0  0  0  0  0  0  0
    5.4944  -10.5356   -1.9815 O   0  0  0  0  0  0  0  0  0  0  0  0
    3.2348  -10.9250   -1.9890 N   0  0  0  0  0  0  0  0  0  0  0  0
    3.2994  -12.2560   -2.5443 C   0  0  1  0  0  0  0  0  0  0  0  0
    2.4902  -13.3950   -1.8719 C   0  0  0  0  0  0  0  0  0  0  0  0
    2.2046  -13.9578   -3.2886 C   0  0  0  0  0  0  0  0  0  0  0  0
    2.5654  -12.5686   -3.8759 C   0  0  0  0  0  0  0  0  0  0  0  0
    2.8477   -8.3859   -0.7042 C   0  0  0  0  0  0  0  0  0  0  0  0
    8.6585  -13.6287    3.7796 H   0  0  0  0  0  0  0  0  0  0  0  0
    9.5689  -12.2329    4.4007 H   0  0  0  0  0  0  0  0  0  0  0  0
    9.9628  -12.9116    2.8063 H   0  0  0  0  0  0  0  0  0  0  0  0
    7.2867  -11.5402    3.5325 H   0  0  0  0  0  0  0  0  0  0  0  0
    7.6790  -12.2130    1.9513 H   0  0  0  0  0  0  0  0  0  0  0  0
    9.5769  -10.5714    1.7243 H   0  0  0  0  0  0  0  0  0  0  0  0
    9.1804   -9.8952    3.3043 H   0  0  0  0  0  0  0  0  0  0  0  0
    6.8979   -9.2261    2.4523 H   0  0  0  0  0  0  0  0  0  0  0  0
    7.2913   -9.9242    0.8720 H   0  0  0  0  0  0  0  0  0  0  0  0
    9.1593   -8.2875    0.5976 H   0  0  0  0  0  0  0  0  0  0  0  0
    8.8267   -7.6131    2.2123 H   0  0  0  0  0  0  0  0  0  0  0  0
    9.7945   -6.1751    0.7048 H   0  0  0  0  0  0  0  0  0  0  0  0
    8.4038   -2.3162   -0.6257 H   0  0  0  0  0  0  0  0  0  0  0  0
    2.5447   -3.2043    1.5780 H   0  0  0  0  0  0  0  0  0  0  0  0
    1.1548   -4.2816    1.3937 H   0  0  0  0  0  0  0  0  0  0  0  0
    6.0225   -8.5058   -0.4511 H   0  0  0  0  0  0  0  0  0  0  0  0
    5.6917   -7.6641   -1.9263 H   0  0  0  0  0  0  0  0  0  0  0  0
    2.3178  -10.5132   -1.8645 H   0  0  0  0  0  0  0  0  0  0  0  0
    4.3654  -12.5101   -2.6139 H   0  0  0  0  0  0  0  0  0  0  0  0
    1.5728  -13.0057   -1.3996 H   0  0  0  0  0  0  0  0  0  0  0  0
    3.0152  -14.0316   -1.1435 H   0  0  0  0  0  0  0  0  0  0  0  0
    1.1944  -14.3442   -3.4858 H   0  0  0  0  0  0  0  0  0  0  0  0
    2.9357  -14.7278   -3.5786 H   0  0  0  0  0  0  0  0  0  0  0  0
    1.6704  -11.9353   -3.9945 H   0  0  0  0  0  0  0  0  0  0  0  0
    3.1538  -12.5212   -4.8047 H   0  0  0  0  0  0  0  0  0  0  0  0
    2.4168   -9.0877    0.0377 H   0  0  0  0  0  0  0  0  0  0  0  0
    2.0844   -8.2500   -1.4982 H   0  0  0  0  0  0  0  0  0  0  0  0
  1  2  1  0
  1 32  1  0
  1 33  1  0
  1 34  1  0
  2  3  1  0
  2 35  1  0
  2 36  1  0
  3  4  1  0
  3 37  1  0
  3 38  1  0
  4  5  1  0
  4 39  1  0
  4 40  1  0
  5  6  1  0
  5 41  1  0
  5 42  1  0
  6  7  1  0
  7  8  2  0
  7 14  1  0
  8  9  1  0
  8 43  1  0
  9 10  1  0
  9 11  2  0
 11 12  1  0
 11 44  1  0
 12 13  1  0
 12 14  2  0
 14 15  1  0
 15 16  2  0
 15 21  1  0
 16 17  1  0
 17 18  1  0
 17 19  2  0
 18 45  1  0
 18 46  1  0
 19 20  1  0
 20 21  2  0
 20 31  1  0
 21 22  1  0
 22 23  1  0
 22 47  1  0
 22 48  1  0
 23 24  1  0
 23 31  1  0
 24 25  2  0
 24 26  1  0
 26 27  1  0
 26 49  1  0
 27 28  1  0
 27 30  1  0
 27 50  1  6
 28 29  1  0
 28 51  1  0
 28 52  1  0
 29 30  1  0
 29 53  1  0
 29 54  1  0
 30 55  1  0
 30 56  1  0
 31 57  1  0
 31 58  1  0
M  END

