
     RDKit          3D

 88 99  0  0  0  0  0  0  0  0999 V2000
    9.0087    3.4879    4.4079 C   0  0  0  0  0  0  0  0  0  0  0  0
    7.6459    3.7150    4.6293 C   0  0  0  0  0  0  0  0  0  0  0  0
    6.6920    2.8952    4.0261 C   0  0  0  0  0  0  0  0  0  0  0  0
    7.0906    1.8359    3.1918 C   0  0  0  0  0  0  0  0  0  0  0  0
    6.0750    0.9620    2.5490 C   0  0  0  0  0  0  0  0  0  0  0  0
    4.7816    1.2108    2.7917 N   0  0  0  0  0  0  0  0  0  0  0  0
    3.8967    0.4011    2.1958 C   0  0  0  0  0  0  0  0  0  0  0  0
    2.4505    0.6428    2.4366 C   0  0  0  0  0  0  0  0  0  0  0  0
    2.0337    1.6979    3.2673 C   0  0  0  0  0  0  0  0  0  0  0  0
    0.6757    1.9240    3.4923 C   0  0  0  0  0  0  0  0  0  0  0  0
   -0.2826    1.1004    2.8915 C   0  0  0  0  0  0  0  0  0  0  0  0
    0.1238    0.0482    2.0636 C   0  0  0  0  0  0  0  0  0  0  0  0
    1.4811   -0.1804    1.8367 C   0  0  0  0  0  0  0  0  0  0  0  0
    4.2438   -0.6142    1.3939 N   0  0  0  0  0  0  0  0  0  0  0  0
    5.5562   -0.7953    1.2002 C   0  0  0  0  0  0  0  0  0  0  0  0
    5.9856   -1.9067    0.3143 C   0  0  0  0  0  0  0  0  0  0  0  0
    5.0359   -2.7403   -0.3013 C   0  0  0  0  0  0  0  0  0  0  0  0
    5.4356   -3.7783   -1.1387 C   0  0  0  0  0  0  0  0  0  0  0  0
    6.8010   -4.0152   -1.3696 C   0  0  0  0  0  0  0  0  0  0  0  0
    7.2110   -5.0737   -2.2175 N   0  0  0  0  0  0  0  0  0  0  0  0
    8.0585   -4.9525   -3.3265 C   0  0  0  0  0  0  0  0  0  0  0  0
    8.6621   -3.8111   -3.8691 C   0  0  0  0  0  0  0  0  0  0  0  0
    9.4487   -3.9696   -5.0111 C   0  0  0  0  0  0  0  0  0  0  0  0
    9.6301   -5.2309   -5.6084 C   0  0  0  0  0  0  0  0  0  0  0  0
    9.0151   -6.3622   -5.0740 C   0  0  0  0  0  0  0  0  0  0  0  0
    8.2190   -6.2301   -3.9271 C   0  0  0  0  0  0  0  0  0  0  0  0
    7.4350   -7.1653   -3.1441 C   0  0  0  0  0  0  0  0  0  0  0  0
    7.2191   -8.5477   -3.2359 C   0  0  0  0  0  0  0  0  0  0  0  0
    6.4029   -9.1525   -2.2801 C   0  0  0  0  0  0  0  0  0  0  0  0
    5.8168   -8.3898   -1.2359 C   0  0  0  0  0  0  0  0  0  0  0  0
    6.0186   -7.0202   -1.1236 C   0  0  0  0  0  0  0  0  0  0  0  0
    6.8256   -6.4139   -2.0984 C   0  0  0  0  0  0  0  0  0  0  0  0
    4.9805   -9.2886   -0.3166 C   0  0  2  0  0  0  0  0  0  0  0  0
    3.5144   -8.8551   -0.2034 C   0  0  0  0  0  0  0  0  0  0  0  0
    2.5722   -8.7022   -1.2172 C   0  0  0  0  0  0  0  0  0  0  0  0
    1.2756   -8.2901   -0.8811 C   0  0  0  0  0  0  0  0  0  0  0  0
    0.9319   -8.0353    0.4536 C   0  0  0  0  0  0  0  0  0  0  0  0
    1.8764   -8.1882    1.4738 C   0  0  0  0  0  0  0  0  0  0  0  0
    3.1715   -8.6001    1.1408 C   0  0  0  0  0  0  0  0  0  0  0  0
    4.3541   -8.8435    1.9812 C   0  0  0  0  0  0  0  0  0  0  0  0
    4.5359   -8.7373    3.3645 C   0  0  0  0  0  0  0  0  0  0  0  0
    5.7897   -9.0378    3.9067 C   0  0  0  0  0  0  0  0  0  0  0  0
    6.8475   -9.4385    3.0790 C   0  0  0  0  0  0  0  0  0  0  0  0
    6.6679   -9.5453    1.6934 C   0  0  0  0  0  0  0  0  0  0  0  0
    5.4207   -9.2467    1.1511 C   0  0  0  0  0  0  0  0  0  0  0  0
    5.1688  -10.6589   -0.9774 C   0  0  0  0  0  0  0  0  0  0  0  0
    4.6426  -11.8883   -0.5903 C   0  0  0  0  0  0  0  0  0  0  0  0
    4.9482  -13.0265   -1.3488 C   0  0  0  0  0  0  0  0  0  0  0  0
    5.7707  -12.9281   -2.4791 C   0  0  0  0  0  0  0  0  0  0  0  0
    6.3002  -11.6940   -2.8702 C   0  0  0  0  0  0  0  0  0  0  0  0
    5.9969  -10.5555   -2.1145 C   0  0  0  0  0  0  0  0  0  0  0  0
    7.7556   -3.1903   -0.7514 C   0  0  0  0  0  0  0  0  0  0  0  0
    7.3499   -2.1455    0.0747 C   0  0  0  0  0  0  0  0  0  0  0  0
    6.5034   -0.0304    1.7577 N   0  0  0  0  0  0  0  0  0  0  0  0
    8.4620    1.6145    2.9742 C   0  0  0  0  0  0  0  0  0  0  0  0
    9.4135    2.4358    3.5791 C   0  0  0  0  0  0  0  0  0  0  0  0
    9.7553    4.1308    4.8813 H   0  0  0  0  0  0  0  0  0  0  0  0
    7.3259    4.5359    5.2760 H   0  0  0  0  0  0  0  0  0  0  0  0
    5.6272    3.0614    4.1903 H   0  0  0  0  0  0  0  0  0  0  0  0
    2.7907    2.3321    3.7291 H   0  0  0  0  0  0  0  0  0  0  0  0
    0.3618    2.7469    4.1395 H   0  0  0  0  0  0  0  0  0  0  0  0
   -1.3466    1.2786    3.0684 H   0  0  0  0  0  0  0  0  0  0  0  0
   -0.6220   -0.5971    1.5927 H   0  0  0  0  0  0  0  0  0  0  0  0
    1.8107   -0.9970    1.1940 H   0  0  0  0  0  0  0  0  0  0  0  0
    3.9770   -2.5520   -0.1232 H   0  0  0  0  0  0  0  0  0  0  0  0
    4.6897   -4.4051   -1.6305 H   0  0  0  0  0  0  0  0  0  0  0  0
    8.5204   -2.8262   -3.4221 H   0  0  0  0  0  0  0  0  0  0  0  0
    9.9302   -3.0921   -5.4503 H   0  0  0  0  0  0  0  0  0  0  0  0
   10.2535   -5.3207   -6.5011 H   0  0  0  0  0  0  0  0  0  0  0  0
    9.1468   -7.3395   -5.5452 H   0  0  0  0  0  0  0  0  0  0  0  0
    7.6838   -9.1321   -4.0339 H   0  0  0  0  0  0  0  0  0  0  0  0
    5.5729   -6.4474   -0.3092 H   0  0  0  0  0  0  0  0  0  0  0  0
    2.8374   -8.9013   -2.2586 H   0  0  0  0  0  0  0  0  0  0  0  0
    0.5256   -8.1672   -1.6668 H   0  0  0  0  0  0  0  0  0  0  0  0
   -0.0839   -7.7149    0.6993 H   0  0  0  0  0  0  0  0  0  0  0  0
    1.6032   -7.9888    2.5132 H   0  0  0  0  0  0  0  0  0  0  0  0
    3.7141   -8.4252    4.0140 H   0  0  0  0  0  0  0  0  0  0  0  0
    5.9464   -8.9595    4.9856 H   0  0  0  0  0  0  0  0  0  0  0  0
    7.8212   -9.6698    3.5181 H   0  0  0  0  0  0  0  0  0  0  0  0
    7.4944   -9.8583    1.0504 H   0  0  0  0  0  0  0  0  0  0  0  0
    4.0008  -11.9665    0.2910 H   0  0  0  0  0  0  0  0  0  0  0  0
    4.5418  -13.9980   -1.0563 H   0  0  0  0  0  0  0  0  0  0  0  0
    6.0001  -13.8245   -3.0611 H   0  0  0  0  0  0  0  0  0  0  0  0
    6.9409  -11.6239   -3.7531 H   0  0  0  0  0  0  0  0  0  0  0  0
    8.8177   -3.3841   -0.9114 H   0  0  0  0  0  0  0  0  0  0  0  0
    8.0880   -1.5062    0.5594 H   0  0  0  0  0  0  0  0  0  0  0  0
    8.7646    0.7913    2.3266 H   0  0  0  0  0  0  0  0  0  0  0  0
   10.4772    2.2554    3.4040 H   0  0  0  0  0  0  0  0  0  0  0  0
  1  2  2  0
  1 56  1  0
  1 57  1  0
  2  3  1  0
  2 58  1  0
  3  4  2  0
  3 59  1  0
  4  5  1  0
  4 55  1  0
  5  6  2  0
  5 54  1  0
  6  7  1  0
  7  8  1  0
  7 14  2  0
  8  9  2  0
  8 13  1  0
  9 10  1  0
  9 60  1  0
 10 11  2  0
 10 61  1  0
 11 12  1  0
 11 62  1  0
 12 13  2  0
 12 63  1  0
 13 64  1  0
 14 15  1  0
 15 16  1  0
 15 54  2  0
 16 17  2  0
 16 53  1  0
 17 18  1  0
 17 65  1  0
 18 19  2  0
 18 66  1  0
 19 20  1  0
 19 52  1  0
 20 21  1  0
 20 32  1  0
 21 22  2  0
 21 26  1  0
 22 23  1  0
 22 67  1  0
 23 24  2  0
 23 68  1  0
 24 25  1  0
 24 69  1  0
 25 26  2  0
 25 70  1  0
 26 27  1  0
 27 28  1  0
 27 32  2  0
 28 29  2  0
 28 71  1  0
 29 30  1  0
 29 51  1  0
 30 31  2  0
 33 30  1  6
 31 32  1  0
 31 72  1  0
 33 34  1  0
 33 45  1  0
 33 46  1  0
 34 35  2  0
 34 39  1  0
 35 36  1  0
 35 73  1  0
 36 37  2  0
 36 74  1  0
 37 38  1  0
 37 75  1  0
 38 39  2  0
 38 76  1  0
 39 40  1  0
 40 41  2  0
 40 45  1  0
 41 42  1  0
 41 77  1  0
 42 43  2  0
 42 78  1  0
 43 44  1  0
 43 79  1  0
 44 45  2  0
 44 80  1  0
 46 47  1  0
 46 51  2  0
 47 48  2  0
 47 81  1  0
 48 49  1  0
 48 82  1  0
 49 50  2  0
 49 83  1  0
 50 51  1  0
 50 84  1  0
 52 53  2  0
 52 85  1  0
 53 86  1  0
 55 56  2  0
 55 87  1  0
 56 88  1  0
M  END

