
     RDKit          3D

 48 51  0  0  0  0  0  0  0  0999 V2000
    3.3152   -0.9924   -0.7041 C   0  0  0  0  0  0  0  0  0  0  0  0
    2.8746   -0.2059    0.5301 C   0  0  0  0  0  0  0  0  0  0  0  0
    3.2668    1.1950    0.4931 N   0  0  0  0  0  0  0  0  0  0  0  0
    2.3478    2.2541    0.0410 C   0  0  0  0  0  0  0  0  0  0  0  0
    1.1951    2.0021   -0.2916 O   0  0  0  0  0  0  0  0  0  0  0  0
    3.1382    3.4419    0.0853 C   0  0  0  0  0  0  0  0  0  0  0  0
    2.6974    4.7299   -0.2461 C   0  0  0  0  0  0  0  0  0  0  0  0
    3.4268    5.8898   -0.6651 C   0  0  0  0  0  0  0  0  0  0  0  0
    2.9779    7.2054   -0.5357 C   0  0  0  0  0  0  0  0  0  0  0  0
    3.8717    8.0951   -1.1005 N   0  0  0  0  0  0  0  0  0  0  0  0
    3.6989    9.5369   -1.1452 C   0  0  0  0  0  0  0  0  0  0  0  0
    4.5520   10.3157   -0.1558 C   0  0  0  0  0  0  0  0  0  0  0  0
    4.3527   10.1445    1.2229 C   0  0  0  0  0  0  0  0  0  0  0  0
    3.3834    9.3035    1.6175 F   0  0  0  0  0  0  0  0  0  0  0  0
    5.0890   10.8066    2.1980 C   0  0  0  0  0  0  0  0  0  0  0  0
    6.0782   11.7041    1.7906 C   0  0  0  0  0  0  0  0  0  0  0  0
    6.3050   11.9327    0.4336 C   0  0  0  0  0  0  0  0  0  0  0  0
    5.5428   11.2460   -0.5182 C   0  0  0  0  0  0  0  0  0  0  0  0
    5.8490   11.6109   -2.2088 Cl  0  0  0  0  0  0  0  0  0  0  0  0
    4.9290    7.3770   -1.6382 C   0  0  0  0  0  0  0  0  0  0  0  0
    6.0469    7.8230   -2.3584 C   0  0  0  0  0  0  0  0  0  0  0  0
    6.9185    6.8612   -2.8661 C   0  0  0  0  0  0  0  0  0  0  0  0
    6.6763    5.4861   -2.6772 C   0  0  0  0  0  0  0  0  0  0  0  0
    5.5674    5.0488   -1.9541 C   0  0  0  0  0  0  0  0  0  0  0  0
    4.6880    5.9932   -1.3965 C   0  0  0  0  0  0  0  0  0  0  0  0
    4.4331    3.0534    0.5909 N   0  0  0  0  0  0  0  0  0  0  0  0
    5.4283    3.9563    1.1531 C   0  0  0  0  0  0  0  0  0  0  0  0
    4.4422    1.7349    0.8102 C   0  0  0  0  0  0  0  0  0  0  0  0
    5.8117    0.8472    1.4796 S   0  0  0  0  0  0  0  0  0  0  0  0
    2.9761   -2.0372   -0.6241 H   0  0  0  0  0  0  0  0  0  0  0  0
    4.4108   -0.9973   -0.8150 H   0  0  0  0  0  0  0  0  0  0  0  0
    2.8736   -0.5580   -1.6133 H   0  0  0  0  0  0  0  0  0  0  0  0
    3.2630   -0.6606    1.4565 H   0  0  0  0  0  0  0  0  0  0  0  0
    1.7770   -0.1894    0.5967 H   0  0  0  0  0  0  0  0  0  0  0  0
    1.6064    4.8205   -0.2265 H   0  0  0  0  0  0  0  0  0  0  0  0
    2.0771    7.5696   -0.0474 H   0  0  0  0  0  0  0  0  0  0  0  0
    2.6365    9.7406   -0.9443 H   0  0  0  0  0  0  0  0  0  0  0  0
    3.9109    9.8955   -2.1615 H   0  0  0  0  0  0  0  0  0  0  0  0
    4.8728   10.6152    3.2502 H   0  0  0  0  0  0  0  0  0  0  0  0
    6.6725   12.2363    2.5367 H   0  0  0  0  0  0  0  0  0  0  0  0
    7.0653   12.6401    0.1013 H   0  0  0  0  0  0  0  0  0  0  0  0
    6.2301    8.8845   -2.5300 H   0  0  0  0  0  0  0  0  0  0  0  0
    7.7965    7.1817   -3.4328 H   0  0  0  0  0  0  0  0  0  0  0  0
    7.3615    4.7544   -3.1125 H   0  0  0  0  0  0  0  0  0  0  0  0
    5.3740    3.9803   -1.8384 H   0  0  0  0  0  0  0  0  0  0  0  0
    4.9565    4.9283    1.3342 H   0  0  0  0  0  0  0  0  0  0  0  0
    6.2802    4.1055    0.4749 H   0  0  0  0  0  0  0  0  0  0  0  0
    5.7884    3.5522    2.1125 H   0  0  0  0  0  0  0  0  0  0  0  0
  1  2  1  0
  1 30  1  0
  1 31  1  0
  1 32  1  0
  2  3  1  0
  2 33  1  0
  2 34  1  0
  3  4  1  0
  3 28  1  0
  4  5  2  0
  4  6  1  0
  6  7  2  0
  6 26  1  0
  7  8  1  0
  7 35  1  0
  8  9  2  0
  8 25  1  0
  9 10  1  0
  9 36  1  0
 10 11  1  0
 10 20  1  0
 11 12  1  0
 11 37  1  0
 11 38  1  0
 12 13  2  0
 12 18  1  0
 13 14  1  0
 13 15  1  0
 15 16  2  0
 15 39  1  0
 16 17  1  0
 16 40  1  0
 17 18  2  0
 17 41  1  0
 18 19  1  0
 20 21  1  0
 20 25  2  0
 21 22  2  0
 21 42  1  0
 22 23  1  0
 22 43  1  0
 23 24  2  0
 23 44  1  0
 24 25  1  0
 24 45  1  0
 26 27  1  0
 26 28  1  0
 27 46  1  0
 27 47  1  0
 27 48  1  0
 28 29  2  0
M  END

