
     RDKit          3D

 32 32  0  0  0  0  0  0  0  0999 V2000
    2.8517    2.0006   -1.9667 C   0  0  0  0  0  0  0  0  0  0  0  0
    3.3031    1.1183   -0.8575 C   0  0  0  0  0  0  0  0  0  0  0  0
    2.8436    0.8883    0.4117 C   0  0  0  0  0  0  0  0  0  0  0  0
    3.7328   -0.0662    1.0049 C   0  0  0  0  0  0  0  0  0  0  0  0
    4.6809   -0.3492    0.0605 C   0  0  0  0  0  0  0  0  0  0  0  0
    5.8673   -1.2517    0.0724 C   0  0  0  0  0  0  0  0  0  0  0  0
    5.5831   -2.5769   -0.4538 N   0  0  0  0  0  0  0  0  0  0  0  0
    5.1448   -2.7334   -1.8096 C   0  0  0  0  0  0  0  0  0  0  0  0
    5.8408   -3.8120    0.3876 C   0  0  0  0  0  0  0  0  0  0  0  0
    6.6211   -3.6098    1.6279 C   0  0  0  0  0  0  0  0  0  0  0  0
    8.0523   -3.7198    1.5667 C   0  0  0  0  0  0  0  0  0  0  0  0
    8.9083   -3.6128    2.7827 C   0  0  0  0  0  0  0  0  0  0  0  0
   10.1816   -4.3314    2.6108 N   0  0  0  0  0  0  0  0  0  0  0  0
    4.4180    0.3622   -1.0793 O   0  0  0  0  0  0  0  0  0  0  0  0
    1.9477    2.5479   -1.6673 H   0  0  0  0  0  0  0  0  0  0  0  0
    2.6199    1.4209   -2.8759 H   0  0  0  0  0  0  0  0  0  0  0  0
    3.6288    2.7358   -2.2350 H   0  0  0  0  0  0  0  0  0  0  0  0
    1.9753    1.3546    0.8723 H   0  0  0  0  0  0  0  0  0  0  0  0
    3.6892   -0.4837    2.0085 H   0  0  0  0  0  0  0  0  0  0  0  0
    6.2282   -1.4417    1.0982 H   0  0  0  0  0  0  0  0  0  0  0  0
    6.6930   -0.8197   -0.5198 H   0  0  0  0  0  0  0  0  0  0  0  0
    4.4881   -1.9064   -2.1116 H   0  0  0  0  0  0  0  0  0  0  0  0
    4.6448   -3.7044   -1.9332 H   0  0  0  0  0  0  0  0  0  0  0  0
    6.0287   -2.7186   -2.4766 H   0  0  0  0  0  0  0  0  0  0  0  0
    6.2938   -4.5042   -0.3552 H   0  0  0  0  0  0  0  0  0  0  0  0
    4.8159   -4.1985    0.5559 H   0  0  0  0  0  0  0  0  0  0  0  0
    6.1191   -3.9343    2.5461 H   0  0  0  0  0  0  0  0  0  0  0  0
    8.5707   -3.5167    0.6205 H   0  0  0  0  0  0  0  0  0  0  0  0
    8.3116   -3.9579    3.6607 H   0  0  0  0  0  0  0  0  0  0  0  0
    9.1864   -2.5580    3.0340 H   0  0  0  0  0  0  0  0  0  0  0  0
    9.9704   -5.3087    2.3985 H   0  0  0  0  0  0  0  0  0  0  0  0
   10.7098   -4.3290    3.4860 H   0  0  0  0  0  0  0  0  0  0  0  0
  1  2  1  0
  1 15  1  0
  1 16  1  0
  1 17  1  0
  2  3  2  0
  2 14  1  0
  3  4  1  0
  3 18  1  0
  4  5  2  0
  4 19  1  0
  5  6  1  0
  5 14  1  0
  6  7  1  0
  6 20  1  0
  6 21  1  0
  7  8  1  0
  7  9  1  0
  8 22  1  0
  8 23  1  0
  8 24  1  0
  9 10  1  0
  9 25  1  0
  9 26  1  0
 10 11  2  0
 10 27  1  0
 11 12  1  0
 11 28  1  0
 12 13  1  0
 12 29  1  0
 12 30  1  0
 13 31  1  0
 13 32  1  0
M  END

