
     RDKit          3D

 44 45  0  0  0  0  0  0  0  0999 V2000
    1.5432   -1.2545   -0.6146 C   0  0  0  0  0  0  0  0  0  0  0  0
    2.1852   -0.0521    0.0798 C   0  0  0  0  0  0  0  0  0  0  0  0
    3.0377    0.8506   -0.8336 C   0  0  1  0  0  0  0  0  0  0  0  0
    2.2661    1.4942   -2.0051 C   0  0  0  0  0  0  0  0  0  0  0  0
    1.3165    2.6026   -1.5331 C   0  0  0  0  0  0  0  0  0  0  0  0
    2.0485    3.6375   -0.6734 C   0  0  0  0  0  0  0  0  0  0  0  0
    2.7666    2.9805    0.4189 N   0  0  0  0  0  0  0  0  0  0  0  0
    2.7321    3.5873    1.6658 C   0  0  0  0  0  0  0  0  0  0  0  0
    2.2098    4.6686    1.8647 O   0  0  0  0  0  0  0  0  0  0  0  0
    3.3047    2.8111    2.6884 N   0  0  0  0  0  0  0  0  0  0  0  0
    3.6300    3.1566    3.9913 C   0  0  0  0  0  0  0  0  0  0  0  0
    4.1500    2.0885    4.7864 C   0  0  0  0  0  0  0  0  0  0  0  0
    4.5307    2.3541    6.1355 C   0  0  0  0  0  0  0  0  0  0  0  0
    4.3970    3.6697    6.6397 C   0  0  0  0  0  0  0  0  0  0  0  0
    3.8931    4.7333    5.8511 C   0  0  0  0  0  0  0  0  0  0  0  0
    3.7570    6.1240    6.3832 C   0  0  0  0  0  0  0  0  0  0  0  0
    4.1594    6.2061    7.7272 O   0  0  0  0  0  0  0  0  0  0  0  0
    4.0523    7.4896    8.2733 C   0  0  0  0  0  0  0  0  0  0  0  0
    3.4915    4.4812    4.4944 C   0  0  0  0  0  0  0  0  0  0  0  0
    3.7252    1.9704   -0.0300 C   0  0  0  0  0  0  0  0  0  0  0  0
    1.0302   -1.9008    0.1147 H   0  0  0  0  0  0  0  0  0  0  0  0
    2.2979   -1.8711   -1.1313 H   0  0  0  0  0  0  0  0  0  0  0  0
    0.7939   -0.9514   -1.3628 H   0  0  0  0  0  0  0  0  0  0  0  0
    2.8376   -0.4223    0.8925 H   0  0  0  0  0  0  0  0  0  0  0  0
    1.4047    0.5504    0.5752 H   0  0  0  0  0  0  0  0  0  0  0  0
    3.8440    0.2258   -1.2590 H   0  0  0  0  0  0  0  0  0  0  0  0
    1.7175    0.7305   -2.5782 H   0  0  0  0  0  0  0  0  0  0  0  0
    3.0018    1.9296   -2.7050 H   0  0  0  0  0  0  0  0  0  0  0  0
    0.4835    2.1748   -0.9502 H   0  0  0  0  0  0  0  0  0  0  0  0
    0.8638    3.1117   -2.3998 H   0  0  0  0  0  0  0  0  0  0  0  0
    1.3622    4.3704   -0.2336 H   0  0  0  0  0  0  0  0  0  0  0  0
    2.7706    4.2013   -1.2985 H   0  0  0  0  0  0  0  0  0  0  0  0
    3.4481    1.8299    2.4766 H   0  0  0  0  0  0  0  0  0  0  0  0
    4.2694    1.0934    4.3499 H   0  0  0  0  0  0  0  0  0  0  0  0
    4.9247    1.5579    6.7678 H   0  0  0  0  0  0  0  0  0  0  0  0
    4.6864    3.8912    7.6683 H   0  0  0  0  0  0  0  0  0  0  0  0
    2.6992    6.4706    6.2722 H   0  0  0  0  0  0  0  0  0  0  0  0
    4.3544    6.8329    5.7562 H   0  0  0  0  0  0  0  0  0  0  0  0
    4.3905    7.4421    9.3191 H   0  0  0  0  0  0  0  0  0  0  0  0
    3.0077    7.8643    8.2581 H   0  0  0  0  0  0  0  0  0  0  0  0
    4.6814    8.2272    7.7330 H   0  0  0  0  0  0  0  0  0  0  0  0
    3.0477    5.2544    3.8738 H   0  0  0  0  0  0  0  0  0  0  0  0
    4.2802    1.5537    0.8212 H   0  0  0  0  0  0  0  0  0  0  0  0
    4.4828    2.4641   -0.6712 H   0  0  0  0  0  0  0  0  0  0  0  0
  1  2  1  0
  1 21  1  0
  1 22  1  0
  1 23  1  0
  2  3  1  0
  2 24  1  0
  2 25  1  0
  3  4  1  0
  3 20  1  0
  3 26  1  6
  4  5  1  0
  4 27  1  0
  4 28  1  0
  5  6  1  0
  5 29  1  0
  5 30  1  0
  6  7  1  0
  6 31  1  0
  6 32  1  0
  7  8  1  0
  7 20  1  0
  8  9  2  0
  8 10  1  0
 10 11  1  0
 10 33  1  0
 11 12  2  0
 11 19  1  0
 12 13  1  0
 12 34  1  0
 13 14  2  0
 13 35  1  0
 14 15  1  0
 14 36  1  0
 15 16  1  0
 15 19  2  0
 16 17  1  0
 16 37  1  0
 16 38  1  0
 17 18  1  0
 18 39  1  0
 18 40  1  0
 18 41  1  0
 19 42  1  0
 20 43  1  0
 20 44  1  0
M  END

