
     RDKit          3D

 67 70  0  0  0  0  0  0  0  0999 V2000
    1.9133   -5.1790   -7.3579 C   0  0  0  0  0  0  0  0  0  0  0  0
    2.3053   -4.1330   -8.2140 O   0  0  0  0  0  0  0  0  0  0  0  0
    2.8881   -3.0225   -7.6823 C   0  0  0  0  0  0  0  0  0  0  0  0
    3.2431   -2.0116   -8.5843 C   0  0  0  0  0  0  0  0  0  0  0  0
    3.8327   -0.8338   -8.1264 C   0  0  0  0  0  0  0  0  0  0  0  0
    4.0819   -0.6499   -6.7578 C   0  0  0  0  0  0  0  0  0  0  0  0
    4.6480    0.4673   -6.2273 O   0  0  0  0  0  0  0  0  0  0  0  0
    5.0310    1.5323   -7.0660 C   0  0  0  0  0  0  0  0  0  0  0  0
    3.7470   -1.6683   -5.8402 C   0  0  0  0  0  0  0  0  0  0  0  0
    4.0137   -1.4275   -4.3479 C   0  0  2  0  0  0  0  0  0  0  0  0
    3.6820   -0.3906   -4.1593 H   0  0  0  0  0  0  0  0  0  0  0  0
    5.4861   -1.2945   -3.9874 C   0  0  0  0  0  0  0  0  0  0  0  0
    5.8807   -0.2220   -3.3157 N   0  0  0  0  0  0  0  0  0  0  0  0
    7.2023   -0.3333   -3.1264 N   0  0  0  0  0  0  0  0  0  0  0  0
    7.6427   -1.4217   -3.6465 N   0  0  0  0  0  0  0  0  0  0  0  0
    6.5929   -2.0717   -4.1958 N   0  0  0  0  0  0  0  0  0  0  0  0
    6.8624   -3.3788   -4.8889 C   0  0  1  0  0  0  0  0  0  0  0  0
    8.2597   -3.8711   -4.4755 C   0  0  0  0  0  0  0  0  0  0  0  0
    5.8220   -4.4160   -4.4440 C   0  0  0  0  0  0  0  0  0  0  0  0
    6.8400   -3.1509   -6.4100 C   0  0  0  0  0  0  0  0  0  0  0  0
    3.2792   -2.3843   -3.4973 N   0  0  0  0  0  0  0  0  0  0  0  0
    3.7679   -2.5956   -2.1249 C   0  0  0  0  0  0  0  0  0  0  0  0
    3.3793   -1.4699   -1.1491 C   0  0  0  0  0  0  0  0  0  0  0  0
    1.9354   -1.2186   -1.1065 N   0  0  0  0  0  0  0  0  0  0  0  0
    1.1377   -2.1573   -0.3178 C   0  0  1  0  0  0  0  0  0  0  0  0
    1.5977   -2.2925    1.1454 C   0  0  0  0  0  0  0  0  0  0  0  0
    0.4023   -2.9586    1.8386 C   0  0  0  0  0  0  0  0  0  0  0  0
   -0.8448   -2.3380    1.1616 C   0  0  0  0  0  0  0  0  0  0  0  0
   -0.3364   -1.7097   -0.1633 C   0  0  0  0  0  0  0  0  0  0  0  0
    1.4594   -0.9777   -2.4695 C   0  0  0  0  0  0  0  0  0  0  0  0
    1.8319   -2.0997   -3.4570 C   0  0  0  0  0  0  0  0  0  0  0  0
    3.1423   -2.8387   -6.3147 C   0  0  0  0  0  0  0  0  0  0  0  0
    1.4723   -5.9581   -7.9947 H   0  0  0  0  0  0  0  0  0  0  0  0
    1.1564   -4.8513   -6.6217 H   0  0  0  0  0  0  0  0  0  0  0  0
    2.7711   -5.6109   -6.8103 H   0  0  0  0  0  0  0  0  0  0  0  0
    3.0410   -2.1616   -9.6466 H   0  0  0  0  0  0  0  0  0  0  0  0
    4.0938   -0.0576   -8.8459 H   0  0  0  0  0  0  0  0  0  0  0  0
    5.4633    2.3010   -6.4119 H   0  0  0  0  0  0  0  0  0  0  0  0
    4.1676    1.9617   -7.6059 H   0  0  0  0  0  0  0  0  0  0  0  0
    5.7924    1.2203   -7.8037 H   0  0  0  0  0  0  0  0  0  0  0  0
    8.3463   -3.9696   -3.3845 H   0  0  0  0  0  0  0  0  0  0  0  0
    9.0526   -3.1937   -4.8155 H   0  0  0  0  0  0  0  0  0  0  0  0
    8.4193   -4.8609   -4.9303 H   0  0  0  0  0  0  0  0  0  0  0  0
    5.9519   -4.6616   -3.3787 H   0  0  0  0  0  0  0  0  0  0  0  0
    5.9652   -5.3407   -5.0234 H   0  0  0  0  0  0  0  0  0  0  0  0
    4.7925   -4.0694   -4.5888 H   0  0  0  0  0  0  0  0  0  0  0  0
    7.5671   -2.3727   -6.6880 H   0  0  0  0  0  0  0  0  0  0  0  0
    5.8488   -2.8508   -6.7703 H   0  0  0  0  0  0  0  0  0  0  0  0
    7.1232   -4.0826   -6.9234 H   0  0  0  0  0  0  0  0  0  0  0  0
    4.8578   -2.7326   -2.1288 H   0  0  0  0  0  0  0  0  0  0  0  0
    3.3396   -3.5531   -1.7775 H   0  0  0  0  0  0  0  0  0  0  0  0
    3.8826   -0.5391   -1.4620 H   0  0  0  0  0  0  0  0  0  0  0  0
    3.7515   -1.7021   -0.1410 H   0  0  0  0  0  0  0  0  0  0  0  0
    1.1335   -3.1856   -0.7508 H   0  0  0  0  0  0  0  0  0  0  0  0
    1.7751   -1.2793    1.5471 H   0  0  0  0  0  0  0  0  0  0  0  0
    2.5276   -2.8683    1.2689 H   0  0  0  0  0  0  0  0  0  0  0  0
    0.4135   -2.8204    2.9308 H   0  0  0  0  0  0  0  0  0  0  0  0
    0.4315   -4.0464    1.6573 H   0  0  0  0  0  0  0  0  0  0  0  0
   -1.2987   -1.5658    1.8022 H   0  0  0  0  0  0  0  0  0  0  0  0
   -1.6264   -3.0940    0.9884 H   0  0  0  0  0  0  0  0  0  0  0  0
   -0.3456   -0.6092   -0.1021 H   0  0  0  0  0  0  0  0  0  0  0  0
   -0.9604   -1.9942   -1.0241 H   0  0  0  0  0  0  0  0  0  0  0  0
    1.9005   -0.0257   -2.8164 H   0  0  0  0  0  0  0  0  0  0  0  0
    0.3697   -0.8281   -2.4703 H   0  0  0  0  0  0  0  0  0  0  0  0
    1.4798   -1.8452   -4.4674 H   0  0  0  0  0  0  0  0  0  0  0  0
    1.3161   -3.0329   -3.1679 H   0  0  0  0  0  0  0  0  0  0  0  0
    2.8745   -3.5991   -5.5829 H   0  0  0  0  0  0  0  0  0  0  0  0
  1  2  1  0
  1 33  1  0
  1 34  1  0
  1 35  1  0
  2  3  1  0
  3  4  2  0
  3 32  1  0
  4  5  1  0
  4 36  1  0
  5  6  2  0
  5 37  1  0
  6  7  1  0
  6  9  1  0
  7  8  1  0
  8 38  1  0
  8 39  1  0
  8 40  1  0
  9 10  1  0
  9 32  2  0
 10 11  1  1
 10 12  1  0
 10 21  1  0
 12 13  2  0
 12 16  1  0
 13 14  1  0
 14 15  2  0
 15 16  1  0
 16 17  1  0
 17 18  1  1
 17 19  1  0
 17 20  1  0
 18 41  1  0
 18 42  1  0
 18 43  1  0
 19 44  1  0
 19 45  1  0
 19 46  1  0
 20 47  1  0
 20 48  1  0
 20 49  1  0
 21 22  1  0
 21 31  1  0
 22 23  1  0
 22 50  1  0
 22 51  1  0
 23 24  1  0
 23 52  1  0
 23 53  1  0
 24 25  1  0
 24 30  1  0
 25 26  1  0
 25 29  1  0
 25 54  1  6
 26 27  1  0
 26 55  1  0
 26 56  1  0
 27 28  1  0
 27 57  1  0
 27 58  1  0
 28 29  1  0
 28 59  1  0
 28 60  1  0
 29 61  1  0
 29 62  1  0
 30 31  1  0
 30 63  1  0
 30 64  1  0
 31 65  1  0
 31 66  1  0
 32 67  1  0
M  END

