
     RDKit          3D

 46 47  0  0  0  0  0  0  0  0999 V2000
    1.4046    0.7785   -0.2973 C   0  0  0  0  0  0  0  0  0  0  0  0
    2.9095    1.0243   -0.4032 C   0  0  0  0  0  0  0  0  0  0  0  0
    3.5222    1.3571    0.8724 N   0  0  0  0  0  0  0  0  0  0  0  0
    4.4783    0.5791    1.4652 C   0  0  0  0  0  0  0  0  0  0  0  0
    4.9222   -0.4371    0.9510 O   0  0  0  0  0  0  0  0  0  0  0  0
    4.9827    1.0571    2.8048 C   0  0  0  0  0  0  0  0  0  0  0  0
    4.2593    1.9037    3.6581 C   0  0  0  0  0  0  0  0  0  0  0  0
    4.7863    2.2833    4.8919 C   0  0  0  0  0  0  0  0  0  0  0  0
    6.0524    1.8326    5.3151 C   0  0  0  0  0  0  0  0  0  0  0  0
    6.5579    2.2739    6.6155 C   0  0  0  0  0  0  0  0  0  0  0  0
    7.7498    1.9923    7.1837 C   0  0  0  0  0  0  0  0  0  0  0  0
    8.0718    2.5071    8.5475 C   0  0  0  0  0  0  0  0  0  0  0  0
    7.2338    3.1102    9.2049 O   0  0  0  0  0  0  0  0  0  0  0  0
    9.4607    2.2863    9.0659 C   0  0  0  0  0  0  0  0  0  0  0  0
   10.5284    2.4213    8.1417 C   0  0  0  0  0  0  0  0  0  0  0  0
   11.8592    2.4414    8.5531 C   0  0  0  0  0  0  0  0  0  0  0  0
   12.9291    2.5964    7.7275 O   0  0  0  0  0  0  0  0  0  0  0  0
   12.7119    2.7453    6.3448 C   0  0  0  0  0  0  0  0  0  0  0  0
   12.1465    2.3029    9.9246 C   0  0  0  0  0  0  0  0  0  0  0  0
   11.1196    2.1320   10.8356 C   0  0  0  0  0  0  0  0  0  0  0  0
    9.7662    2.1097   10.4366 C   0  0  0  0  0  0  0  0  0  0  0  0
    8.8944    1.8991   11.4500 O   0  0  0  0  0  0  0  0  0  0  0  0
    7.6744    1.2002   11.2849 C   0  0  0  0  0  0  0  0  0  0  0  0
    6.7649    0.9676    4.4557 C   0  0  0  0  0  0  0  0  0  0  0  0
    6.2355    0.5817    3.2309 C   0  0  0  0  0  0  0  0  0  0  0  0
    0.9830    0.5397   -1.2869 H   0  0  0  0  0  0  0  0  0  0  0  0
    0.8742    1.6675    0.0840 H   0  0  0  0  0  0  0  0  0  0  0  0
    1.1894   -0.0625    0.3802 H   0  0  0  0  0  0  0  0  0  0  0  0
    3.1111    1.8322   -1.1297 H   0  0  0  0  0  0  0  0  0  0  0  0
    3.4271    0.1249   -0.7648 H   0  0  0  0  0  0  0  0  0  0  0  0
    3.2815    2.2412    1.3020 H   0  0  0  0  0  0  0  0  0  0  0  0
    3.2605    2.2519    3.3830 H   0  0  0  0  0  0  0  0  0  0  0  0
    4.2076    2.9370    5.5497 H   0  0  0  0  0  0  0  0  0  0  0  0
    5.8894    2.9126    7.2040 H   0  0  0  0  0  0  0  0  0  0  0  0
    8.4848    1.3593    6.6824 H   0  0  0  0  0  0  0  0  0  0  0  0
   10.2825    2.5721    7.0914 H   0  0  0  0  0  0  0  0  0  0  0  0
   13.7017    2.8443    5.8789 H   0  0  0  0  0  0  0  0  0  0  0  0
   12.1179    3.6490    6.1142 H   0  0  0  0  0  0  0  0  0  0  0  0
   12.2001    1.8666    5.9098 H   0  0  0  0  0  0  0  0  0  0  0  0
   13.1906    2.3177   10.2441 H   0  0  0  0  0  0  0  0  0  0  0  0
   11.3295    1.9943   11.8981 H   0  0  0  0  0  0  0  0  0  0  0  0
    7.4584    0.7206   12.2510 H   0  0  0  0  0  0  0  0  0  0  0  0
    7.7632    0.4187   10.5093 H   0  0  0  0  0  0  0  0  0  0  0  0
    6.8550    1.8789   11.0093 H   0  0  0  0  0  0  0  0  0  0  0  0
    7.7433    0.5867    4.7559 H   0  0  0  0  0  0  0  0  0  0  0  0
    6.7750   -0.1014    2.5724 H   0  0  0  0  0  0  0  0  0  0  0  0
  1  2  1  0
  1 26  1  0
  1 27  1  0
  1 28  1  0
  2  3  1  0
  2 29  1  0
  2 30  1  0
  3  4  1  0
  3 31  1  0
  4  5  2  0
  4  6  1  0
  6  7  2  0
  6 25  1  0
  7  8  1  0
  7 32  1  0
  8  9  2  0
  8 33  1  0
  9 10  1  0
  9 24  1  0
 10 11  2  0
 10 34  1  0
 11 12  1  0
 11 35  1  0
 12 13  2  0
 12 14  1  0
 14 15  2  0
 14 21  1  0
 15 16  1  0
 15 36  1  0
 16 17  1  0
 16 19  2  0
 17 18  1  0
 18 37  1  0
 18 38  1  0
 18 39  1  0
 19 20  1  0
 19 40  1  0
 20 21  2  0
 20 41  1  0
 21 22  1  0
 22 23  1  0
 23 42  1  0
 23 43  1  0
 23 44  1  0
 24 25  2  0
 24 45  1  0
 25 46  1  0
M  END

