
     RDKit          3D

 40 41  0  0  0  0  0  0  0  0999 V2000
    2.3081    2.3003   -2.0198 C   0  0  0  0  0  0  0  0  0  0  0  0
    2.7606    2.7232   -0.7494 O   0  0  0  0  0  0  0  0  0  0  0  0
    3.5108    1.7607   -0.0490 C   0  0  0  0  0  0  0  0  0  0  0  0
    5.0095    1.7759   -0.3717 C   0  0  0  0  0  0  0  0  0  0  0  0
    5.7501    0.8643   -0.0481 O   0  0  0  0  0  0  0  0  0  0  0  0
    5.4354    2.9054   -1.0109 N   0  0  0  0  0  0  0  0  0  0  0  0
    6.8194    3.1166   -1.3410 C   0  0  0  0  0  0  0  0  0  0  0  0
    7.6436    3.6236   -0.1158 C   0  0  0  0  0  0  0  0  0  0  0  0
    9.0261    3.8294   -0.4354 N   0  0  0  0  0  0  0  0  0  0  0  0
    9.5404    4.9766   -0.9931 C   0  0  0  0  0  0  0  0  0  0  0  0
    8.6868    5.9615   -1.2020 N   0  0  0  0  0  0  0  0  0  0  0  0
    9.1330    7.1264   -1.7664 C   0  0  0  0  0  0  0  0  0  0  0  0
    8.1973    8.1762   -1.9832 C   0  0  0  0  0  0  0  0  0  0  0  0
    6.7570    7.9867   -1.6043 C   0  0  0  0  0  0  0  0  0  0  0  0
    8.6424    9.3862   -2.5586 C   0  0  0  0  0  0  0  0  0  0  0  0
    9.9842    9.5448   -2.9059 C   0  0  0  0  0  0  0  0  0  0  0  0
   10.9185    8.5132   -2.6933 C   0  0  0  0  0  0  0  0  0  0  0  0
   10.5277    7.2855   -2.1279 C   0  0  0  0  0  0  0  0  0  0  0  0
   11.4260    6.2107   -1.8920 C   0  0  0  0  0  0  0  0  0  0  0  0
   10.9522    5.0045   -1.3026 C   0  0  0  0  0  0  0  0  0  0  0  0
   11.7356    3.8683   -1.0279 C   0  0  0  0  0  0  0  0  0  0  0  0
   12.3197    2.8832   -0.7699 N   0  0  0  0  0  0  0  0  0  0  0  0
    1.7306    3.1276   -2.4561 H   0  0  0  0  0  0  0  0  0  0  0  0
    1.6513    1.4139   -1.9390 H   0  0  0  0  0  0  0  0  0  0  0  0
    3.1444    2.0525   -2.7013 H   0  0  0  0  0  0  0  0  0  0  0  0
    3.1452    0.7308   -0.2126 H   0  0  0  0  0  0  0  0  0  0  0  0
    3.4078    1.9752    1.0284 H   0  0  0  0  0  0  0  0  0  0  0  0
    4.7480    3.6406   -1.1480 H   0  0  0  0  0  0  0  0  0  0  0  0
    6.8988    3.8653   -2.1420 H   0  0  0  0  0  0  0  0  0  0  0  0
    7.2499    2.1653   -1.6871 H   0  0  0  0  0  0  0  0  0  0  0  0
    7.5743    2.8666    0.6790 H   0  0  0  0  0  0  0  0  0  0  0  0
    7.2167    4.5767    0.2223 H   0  0  0  0  0  0  0  0  0  0  0  0
    9.6782    3.0536   -0.3227 H   0  0  0  0  0  0  0  0  0  0  0  0
    6.6559    7.7331   -0.5361 H   0  0  0  0  0  0  0  0  0  0  0  0
    6.3045    7.1477   -2.1600 H   0  0  0  0  0  0  0  0  0  0  0  0
    6.1691    8.8933   -1.8069 H   0  0  0  0  0  0  0  0  0  0  0  0
    7.9296   10.1960   -2.7279 H   0  0  0  0  0  0  0  0  0  0  0  0
   10.3219   10.4853   -3.3496 H   0  0  0  0  0  0  0  0  0  0  0  0
   11.9660    8.6643   -2.9666 H   0  0  0  0  0  0  0  0  0  0  0  0
   12.4767    6.3099   -2.1646 H   0  0  0  0  0  0  0  0  0  0  0  0
  1  2  1  0
  1 23  1  0
  1 24  1  0
  1 25  1  0
  2  3  1  0
  3  4  1  0
  3 26  1  0
  3 27  1  0
  4  5  2  0
  4  6  1  0
  6  7  1  0
  6 28  1  0
  7  8  1  0
  7 29  1  0
  7 30  1  0
  8  9  1  0
  8 31  1  0
  8 32  1  0
  9 10  1  0
  9 33  1  0
 10 11  2  0
 10 20  1  0
 11 12  1  0
 12 13  2  0
 12 18  1  0
 13 14  1  0
 13 15  1  0
 14 34  1  0
 14 35  1  0
 14 36  1  0
 15 16  2  0
 15 37  1  0
 16 17  1  0
 16 38  1  0
 17 18  2  0
 17 39  1  0
 18 19  1  0
 19 20  2  0
 19 40  1  0
 20 21  1  0
 21 22  3  0
M  END

