
     RDKit          3D

 44 47  0  0  0  0  0  0  0  0999 V2000
    0.8259   -0.4064   -0.6732 C   0  0  0  0  0  0  0  0  0  0  0  0
    2.3108   -0.3761   -0.4229 C   0  0  0  0  0  0  0  0  0  0  0  0
    2.9966   -1.4320   -0.7132 N   0  0  0  0  0  0  0  0  0  0  0  0
    4.3610   -1.4328   -0.5171 C   0  0  0  0  0  0  0  0  0  0  0  0
    5.1209   -2.5790   -0.8330 C   0  0  0  0  0  0  0  0  0  0  0  0
    6.4945   -2.6033   -0.6522 C   0  0  0  0  0  0  0  0  0  0  0  0
    7.1698   -1.4634   -0.1416 C   0  0  0  0  0  0  0  0  0  0  0  0
    8.5599   -1.4244    0.0595 N   0  0  0  0  0  0  0  0  0  0  0  0
    9.5035   -2.4068   -0.1630 C   0  0  0  0  0  0  0  0  0  0  0  0
    9.2407   -3.5196   -0.5891 O   0  0  0  0  0  0  0  0  0  0  0  0
   10.9058   -1.9929    0.1739 C   0  0  1  0  0  0  0  0  0  0  0  0
   11.8332   -3.0675    0.7129 C   0  0  0  0  0  0  0  0  0  0  0  0
   12.0206   -2.5698   -0.6805 C   0  0  0  0  0  0  0  0  0  0  0  0
    6.4298   -0.3230    0.1781 C   0  0  0  0  0  0  0  0  0  0  0  0
    5.0401   -0.3056   -0.0060 C   0  0  0  0  0  0  0  0  0  0  0  0
    4.2679    0.8883    0.3351 C   0  0  0  0  0  0  0  0  0  0  0  0
    4.7419    1.9224    0.7907 O   0  0  0  0  0  0  0  0  0  0  0  0
    2.8850    0.7849    0.1081 N   0  0  0  0  0  0  0  0  0  0  0  0
    2.0793    1.9776    0.4253 C   0  0  1  0  0  0  0  0  0  0  0  0
    1.7680    2.1903    1.9233 C   0  0  0  0  0  0  0  0  0  0  0  0
    2.7183    3.1531    2.6402 C   0  0  0  0  0  0  0  0  0  0  0  0
    2.9220    4.4488    1.8864 C   0  0  0  0  0  0  0  0  0  0  0  0
    3.1721    5.5112    2.4072 O   0  0  0  0  0  0  0  0  0  0  0  0
    2.8269    4.3496    0.4936 N   0  0  0  0  0  0  0  0  0  0  0  0
    2.6610    3.2161   -0.2849 C   0  0  0  0  0  0  0  0  0  0  0  0
    2.8482    3.2247   -1.4793 O   0  0  0  0  0  0  0  0  0  0  0  0
    0.5780   -1.4111   -1.0339 H   0  0  0  0  0  0  0  0  0  0  0  0
    0.5304    0.3249   -1.4435 H   0  0  0  0  0  0  0  0  0  0  0  0
    0.2399   -0.1993    0.2365 H   0  0  0  0  0  0  0  0  0  0  0  0
    4.5955   -3.4505   -1.2282 H   0  0  0  0  0  0  0  0  0  0  0  0
    7.0771   -3.4885   -0.8972 H   0  0  0  0  0  0  0  0  0  0  0  0
    8.9125   -0.5446    0.4173 H   0  0  0  0  0  0  0  0  0  0  0  0
   11.0435   -0.9764    0.5550 H   0  0  0  0  0  0  0  0  0  0  0  0
   11.3901   -4.0589    0.8377 H   0  0  0  0  0  0  0  0  0  0  0  0
   12.5477   -2.7689    1.4847 H   0  0  0  0  0  0  0  0  0  0  0  0
   11.7037   -3.2253   -1.4958 H   0  0  0  0  0  0  0  0  0  0  0  0
   12.8684   -1.9162   -0.9024 H   0  0  0  0  0  0  0  0  0  0  0  0
    6.9075    0.5768    0.5741 H   0  0  0  0  0  0  0  0  0  0  0  0
    1.1272    1.8356   -0.0947 H   0  0  0  0  0  0  0  0  0  0  0  0
    1.7510    1.2144    2.4313 H   0  0  0  0  0  0  0  0  0  0  0  0
    0.7431    2.5922    1.9917 H   0  0  0  0  0  0  0  0  0  0  0  0
    3.7172    2.7037    2.7499 H   0  0  0  0  0  0  0  0  0  0  0  0
    2.3503    3.4135    3.6425 H   0  0  0  0  0  0  0  0  0  0  0  0
    3.0897    5.1907   -0.0187 H   0  0  0  0  0  0  0  0  0  0  0  0
  1  2  1  0
  1 27  1  0
  1 28  1  0
  1 29  1  0
  2  3  2  0
  2 18  1  0
  3  4  1  0
  4  5  2  0
  4 15  1  0
  5  6  1  0
  5 30  1  0
  6  7  2  0
  6 31  1  0
  7  8  1  0
  7 14  1  0
  8  9  1  0
  8 32  1  0
  9 10  2  0
  9 11  1  0
 11 12  1  0
 11 13  1  0
 11 33  1  1
 12 13  1  0
 12 34  1  0
 12 35  1  0
 13 36  1  0
 13 37  1  0
 14 15  2  0
 14 38  1  0
 15 16  1  0
 16 17  2  0
 16 18  1  0
 18 19  1  0
 19 20  1  0
 19 25  1  0
 19 39  1  6
 20 21  1  0
 20 40  1  0
 20 41  1  0
 21 22  1  0
 21 42  1  0
 21 43  1  0
 22 23  2  0
 22 24  1  0
 24 25  1  0
 24 44  1  0
 25 26  2  0
M  END

