
     RDKit          3D

 29 30  0  0  0  0  0  0  0  0999 V2000
    1.4924    0.1830   -1.5579 C   0  0  0  0  0  0  0  0  0  0  0  0
    2.4804   -0.0370   -0.3890 C   0  0  1  0  0  0  0  0  0  0  0  0
    3.8389    0.6161   -0.7299 C   0  0  0  0  0  0  0  0  0  0  0  0
    1.9044    0.5893    0.9111 C   0  0  0  0  0  0  0  0  0  0  0  0
    1.7092    2.0308    0.7814 N   0  0  0  0  0  0  0  0  0  0  0  0
    2.6668   -1.5178   -0.1625 C   0  0  0  0  0  0  0  0  0  0  0  0
    2.3022   -2.1964    0.8734 N   0  0  0  0  0  0  0  0  0  0  0  0
    2.5764   -3.5358    0.7781 C   0  0  0  0  0  0  0  0  0  0  0  0
    2.2641   -4.4399    1.8115 C   0  0  0  0  0  0  0  0  0  0  0  0
    1.6465   -4.2520    3.0768 C   0  0  0  0  0  0  0  0  0  0  0  0
    1.5350   -5.4391    3.7985 C   0  0  0  0  0  0  0  0  0  0  0  0
    2.0531   -6.5647    3.1233 C   0  0  0  0  0  0  0  0  0  0  0  0
    2.6924   -6.1697    1.5699 S   0  0  0  0  0  0  0  0  0  0  0  0
    3.2074   -3.9232   -0.4580 C   0  0  0  0  0  0  0  0  0  0  0  0
    3.4451   -2.5539   -1.4664 S   0  0  0  0  0  0  0  0  0  0  0  0
    1.2878    1.2590   -1.6557 H   0  0  0  0  0  0  0  0  0  0  0  0
    0.5392   -0.3352   -1.3677 H   0  0  0  0  0  0  0  0  0  0  0  0
    1.9009   -0.1953   -2.5082 H   0  0  0  0  0  0  0  0  0  0  0  0
    3.6980    1.6892   -0.9305 H   0  0  0  0  0  0  0  0  0  0  0  0
    4.2907    0.1652   -1.6275 H   0  0  0  0  0  0  0  0  0  0  0  0
    4.5560    0.5018    0.0993 H   0  0  0  0  0  0  0  0  0  0  0  0
    2.5594    0.2985    1.7546 H   0  0  0  0  0  0  0  0  0  0  0  0
    0.9316    0.1161    1.1126 H   0  0  0  0  0  0  0  0  0  0  0  0
    2.5555    2.5415    1.0293 H   0  0  0  0  0  0  0  0  0  0  0  0
    0.9850    2.3518    1.4209 H   0  0  0  0  0  0  0  0  0  0  0  0
    1.3117   -3.2699    3.4088 H   0  0  0  0  0  0  0  0  0  0  0  0
    1.0915   -5.5118    4.7930 H   0  0  0  0  0  0  0  0  0  0  0  0
    2.0794   -7.5928    3.4821 H   0  0  0  0  0  0  0  0  0  0  0  0
    3.4991   -4.9264   -0.7627 H   0  0  0  0  0  0  0  0  0  0  0  0
  2  1  1  6
  1 16  1  0
  1 17  1  0
  1 18  1  0
  2  3  1  0
  2  4  1  0
  2  6  1  0
  3 19  1  0
  3 20  1  0
  3 21  1  0
  4  5  1  0
  4 22  1  0
  4 23  1  0
  5 24  1  0
  5 25  1  0
  6  7  2  0
  6 15  1  0
  7  8  1  0
  8  9  1  0
  8 14  2  0
  9 10  2  0
  9 13  1  0
 10 11  1  0
 10 26  1  0
 11 12  2  0
 11 27  1  0
 12 13  1  0
 12 28  1  0
 14 15  1  0
 14 29  1  0
M  END

