
     RDKit          3D

 31 32  0  0  0  0  0  0  0  0999 V2000
    1.1223    0.6027    0.2744 C   0  0  0  0  0  0  0  0  0  0  0  0
    2.9056    0.2902    0.1985 S   0  0  1  0  0  0  0  0  0  0  0  0
    3.5442    1.5884   -0.0722 O   0  0  0  0  0  0  0  0  0  0  0  0
    3.2386   -0.4935    1.3986 O   0  0  0  0  0  0  0  0  0  0  0  0
    3.1446   -0.7491   -1.2262 C   0  0  0  0  0  0  0  0  0  0  0  0
    3.4524   -0.1738   -2.4697 C   0  0  0  0  0  0  0  0  0  0  0  0
    3.6363   -0.9888   -3.5761 C   0  0  0  0  0  0  0  0  0  0  0  0
    3.5373   -2.4117   -3.4846 C   0  0  0  0  0  0  0  0  0  0  0  0
    3.7395   -3.2843   -4.6763 C   0  0  1  0  0  0  0  0  0  0  0  0
    2.7235   -3.0696   -5.7443 N   0  0  0  0  0  0  0  0  0  0  0  0
    2.8607   -2.1983   -6.7324 C   0  0  0  0  0  0  0  0  0  0  0  0
    1.4828   -1.7358   -7.7288 S   0  0  0  0  0  0  0  0  0  0  0  0
    4.0692   -1.6542   -6.9758 N   0  0  0  0  0  0  0  0  0  0  0  0
    5.2678   -1.9403   -6.2572 C   0  0  0  0  0  0  0  0  0  0  0  0
    6.2455   -1.2414   -6.4008 O   0  0  0  0  0  0  0  0  0  0  0  0
    5.1474   -3.1734   -5.3792 C   0  0  2  0  0  0  0  0  0  0  0  0
    5.3928   -4.3663   -6.1971 C   0  0  0  0  0  0  0  0  0  0  0  0
    5.5588   -5.3067   -6.8555 N   0  0  0  0  0  0  0  0  0  0  0  0
    3.2431   -2.9521   -2.2004 C   0  0  0  0  0  0  0  0  0  0  0  0
    3.1344   -4.6988   -1.9815 Cl  0  0  0  0  0  0  0  0  0  0  0  0
    3.0537   -2.1543   -1.0857 C   0  0  0  0  0  0  0  0  0  0  0  0
    0.9777    1.2343    1.1625 H   0  0  0  0  0  0  0  0  0  0  0  0
    0.5908   -0.3508    0.3901 H   0  0  0  0  0  0  0  0  0  0  0  0
    0.8080    1.1344   -0.6330 H   0  0  0  0  0  0  0  0  0  0  0  0
    3.5607    0.9097   -2.5451 H   0  0  0  0  0  0  0  0  0  0  0  0
    3.8744   -0.5179   -4.5308 H   0  0  0  0  0  0  0  0  0  0  0  0
    3.6160   -4.3288   -4.3688 H   0  0  0  0  0  0  0  0  0  0  0  0
    1.8067   -3.4738   -5.5833 H   0  0  0  0  0  0  0  0  0  0  0  0
    4.1522   -0.8953   -7.6482 H   0  0  0  0  0  0  0  0  0  0  0  0
    5.9267   -3.1017   -4.6063 H   0  0  0  0  0  0  0  0  0  0  0  0
    2.8680   -2.5973   -0.1073 H   0  0  0  0  0  0  0  0  0  0  0  0
  2  1  1  1
  1 22  1  0
  1 23  1  0
  1 24  1  0
  2  3  2  0
  2  4  2  0
  2  5  1  0
  5  6  2  0
  5 21  1  0
  6  7  1  0
  6 25  1  0
  7  8  2  0
  7 26  1  0
  8  9  1  0
  8 19  1  0
  9 10  1  0
  9 16  1  0
  9 27  1  1
 10 11  1  0
 10 28  1  0
 11 12  2  0
 11 13  1  0
 13 14  1  0
 13 29  1  0
 14 15  2  0
 14 16  1  0
 16 17  1  0
 16 30  1  1
 17 18  3  0
 19 20  1  0
 19 21  2  0
 21 31  1  0
M  END

