
     RDKit          3D

 42 43  0  0  0  0  0  0  0  0999 V2000
    4.1056    2.4058    4.3952 C   0  0  0  0  0  0  0  0  0  0  0  0
    4.8468    2.8444    3.2427 N   0  0  0  0  0  0  0  0  0  0  0  0
    4.7900    2.1069    2.0111 C   0  0  0  0  0  0  0  0  0  0  0  0
    6.1346    2.2010    1.4856 C   0  0  0  0  0  0  0  0  0  0  0  0
    6.4950    1.9683    0.0528 C   0  0  0  0  0  0  0  0  0  0  0  0
    5.8537    3.0118   -0.7954 N   0  0  0  0  0  0  0  0  0  0  0  0
    6.4807    4.2064   -0.9738 C   0  0  0  0  0  0  0  0  0  0  0  0
    7.6915    4.3394   -1.0857 O   0  0  0  0  0  0  0  0  0  0  0  0
    5.6425    5.3531   -1.0620 N   0  0  0  0  0  0  0  0  0  0  0  0
    6.3115    6.5966   -1.4149 C   0  0  0  0  0  0  0  0  0  0  0  0
    6.9423    7.3324   -0.2289 C   0  0  0  0  0  0  0  0  0  0  0  0
    5.9477    7.7140    0.8952 C   0  0  0  0  0  0  0  0  0  0  0  0
    5.5428    6.5756    1.7010 N   0  0  0  0  0  0  0  0  0  0  0  0
    6.0964    6.4168    3.0361 C   0  0  0  0  0  0  0  0  0  0  0  0
    5.3349    7.2666    4.0564 C   0  0  1  0  0  0  0  0  0  0  0  0
    4.0411    6.9223    4.1040 F   0  0  0  0  0  0  0  0  0  0  0  0
    5.8723    7.1028    5.2578 F   0  0  0  0  0  0  0  0  0  0  0  0
    5.3830    8.5825    3.7511 F   0  0  0  0  0  0  0  0  0  0  0  0
    4.5765    5.5966    1.2263 C   0  0  0  0  0  0  0  0  0  0  0  0
    4.4164    5.4924   -0.3026 C   0  0  0  0  0  0  0  0  0  0  0  0
    6.8660    2.9340    2.4121 C   0  0  0  0  0  0  0  0  0  0  0  0
    6.1672    3.3040    3.5086 N   0  0  0  0  0  0  0  0  0  0  0  0
    3.0398    2.3013    4.1349 H   0  0  0  0  0  0  0  0  0  0  0  0
    4.2019    3.1459    5.2036 H   0  0  0  0  0  0  0  0  0  0  0  0
    4.4596    1.4260    4.7864 H   0  0  0  0  0  0  0  0  0  0  0  0
    4.1899    1.1815    2.0024 H   0  0  0  0  0  0  0  0  0  0  0  0
    6.1472    0.9919   -0.3234 H   0  0  0  0  0  0  0  0  0  0  0  0
    7.5766    2.0280   -0.1237 H   0  0  0  0  0  0  0  0  0  0  0  0
    4.8556    3.0430   -0.6189 H   0  0  0  0  0  0  0  0  0  0  0  0
    5.5804    7.2547   -1.9182 H   0  0  0  0  0  0  0  0  0  0  0  0
    7.1062    6.3621   -2.1335 H   0  0  0  0  0  0  0  0  0  0  0  0
    7.3864    8.2801   -0.5734 H   0  0  0  0  0  0  0  0  0  0  0  0
    7.7566    6.7192    0.1854 H   0  0  0  0  0  0  0  0  0  0  0  0
    5.0377    8.1566    0.4568 H   0  0  0  0  0  0  0  0  0  0  0  0
    6.3961    8.4532    1.5683 H   0  0  0  0  0  0  0  0  0  0  0  0
    7.1402    6.7608    3.0290 H   0  0  0  0  0  0  0  0  0  0  0  0
    6.0701    5.3489    3.3478 H   0  0  0  0  0  0  0  0  0  0  0  0
    3.6103    5.8915    1.6848 H   0  0  0  0  0  0  0  0  0  0  0  0
    4.8249    4.6321    1.6841 H   0  0  0  0  0  0  0  0  0  0  0  0
    3.8730    6.3672   -0.6965 H   0  0  0  0  0  0  0  0  0  0  0  0
    3.7386    4.6405   -0.4587 H   0  0  0  0  0  0  0  0  0  0  0  0
    7.9071    3.2527    2.3094 H   0  0  0  0  0  0  0  0  0  0  0  0
  1  2  1  0
  1 23  1  0
  1 24  1  0
  1 25  1  0
  2  3  1  0
  2 22  1  0
  3  4  2  0
  3 26  1  0
  4  5  1  0
  4 21  1  0
  5  6  1  0
  5 27  1  0
  5 28  1  0
  6  7  1  0
  6 29  1  0
  7  8  2  0
  7  9  1  0
  9 10  1  0
  9 20  1  0
 10 11  1  0
 10 30  1  0
 10 31  1  0
 11 12  1  0
 11 32  1  0
 11 33  1  0
 12 13  1  0
 12 34  1  0
 12 35  1  0
 13 14  1  0
 13 19  1  0
 14 15  1  0
 14 36  1  0
 14 37  1  0
 15 16  1  1
 15 17  1  0
 15 18  1  0
 19 20  1  0
 19 38  1  0
 19 39  1  0
 20 40  1  0
 20 41  1  0
 21 22  2  0
 21 42  1  0
M  END

