
     RDKit          3D

 41 42  0  0  0  0  0  0  0  0999 V2000
    3.2024    1.5938    2.0075 C   0  0  0  0  0  0  0  0  0  0  0  0
    2.9918    2.3532    0.7832 N   0  0  0  0  0  0  0  0  0  0  0  0
    3.0863    3.8024    0.8804 C   0  0  0  0  0  0  0  0  0  0  0  0
    3.4073    1.6293   -0.6762 S   0  0  1  0  0  0  0  0  0  0  0  0
    3.0110    0.2253   -0.5719 O   0  0  0  0  0  0  0  0  0  0  0  0
    2.9089    2.5092   -1.7332 O   0  0  0  0  0  0  0  0  0  0  0  0
    5.2077    1.6586   -0.7789 C   0  0  0  0  0  0  0  0  0  0  0  0
    5.9482    0.5814   -0.2836 C   0  0  0  0  0  0  0  0  0  0  0  0
    7.3426    0.6223   -0.3374 C   0  0  0  0  0  0  0  0  0  0  0  0
    8.0042    1.7213   -0.9166 C   0  0  0  0  0  0  0  0  0  0  0  0
    9.4245    1.7621   -0.9847 N   0  0  0  0  0  0  0  0  0  0  0  0
   10.1434    2.8563   -0.3031 C   0  0  0  0  0  0  0  0  0  0  0  0
   10.2127    2.6980    1.2038 C   0  0  0  0  0  0  0  0  0  0  0  0
   11.0141    1.6939    1.7752 C   0  0  0  0  0  0  0  0  0  0  0  0
   11.0743    1.5417    3.1618 C   0  0  0  0  0  0  0  0  0  0  0  0
   10.3402    2.3911    3.9981 C   0  0  0  0  0  0  0  0  0  0  0  0
    9.5449    3.3943    3.4395 C   0  0  0  0  0  0  0  0  0  0  0  0
    9.4816    3.5434    2.0498 C   0  0  0  0  0  0  0  0  0  0  0  0
   10.1931    0.7373   -1.5366 C   0  0  0  0  0  0  0  0  0  0  0  0
   11.3933    0.6784   -1.4261 O   0  0  0  0  0  0  0  0  0  0  0  0
    9.5176   -0.1944   -2.2399 O   0  0  0  0  0  0  0  0  0  0  0  0
    7.2407    2.7884   -1.4249 C   0  0  0  0  0  0  0  0  0  0  0  0
    5.8491    2.7617   -1.3547 C   0  0  0  0  0  0  0  0  0  0  0  0
    2.4942    1.9541    2.7705 H   0  0  0  0  0  0  0  0  0  0  0  0
    4.2290    1.7016    2.4115 H   0  0  0  0  0  0  0  0  0  0  0  0
    2.9923    0.5335    1.8212 H   0  0  0  0  0  0  0  0  0  0  0  0
    2.3774    4.1499    1.6487 H   0  0  0  0  0  0  0  0  0  0  0  0
    2.7991    4.2529   -0.0774 H   0  0  0  0  0  0  0  0  0  0  0  0
    4.0995    4.1518    1.1641 H   0  0  0  0  0  0  0  0  0  0  0  0
    5.4335   -0.2843    0.1367 H   0  0  0  0  0  0  0  0  0  0  0  0
    7.9277   -0.2026    0.0738 H   0  0  0  0  0  0  0  0  0  0  0  0
    9.6532    3.8076   -0.5567 H   0  0  0  0  0  0  0  0  0  0  0  0
   11.1535    2.8700   -0.7315 H   0  0  0  0  0  0  0  0  0  0  0  0
   11.5940    1.0393    1.1198 H   0  0  0  0  0  0  0  0  0  0  0  0
   11.7045    0.7601    3.5942 H   0  0  0  0  0  0  0  0  0  0  0  0
   10.3928    2.2728    5.0835 H   0  0  0  0  0  0  0  0  0  0  0  0
    8.9723    4.0647    4.0858 H   0  0  0  0  0  0  0  0  0  0  0  0
    8.8588    4.3323    1.6175 H   0  0  0  0  0  0  0  0  0  0  0  0
    8.5790    0.0307   -2.3276 H   0  0  0  0  0  0  0  0  0  0  0  0
    7.7448    3.6327   -1.8996 H   0  0  0  0  0  0  0  0  0  0  0  0
    5.2539    3.5717   -1.7797 H   0  0  0  0  0  0  0  0  0  0  0  0
  1  2  1  0
  1 24  1  0
  1 25  1  0
  1 26  1  0
  2  3  1  0
  4  2  1  1
  3 27  1  0
  3 28  1  0
  3 29  1  0
  4  5  2  0
  4  6  2  0
  4  7  1  0
  7  8  2  0
  7 23  1  0
  8  9  1  0
  8 30  1  0
  9 10  2  0
  9 31  1  0
 10 11  1  0
 10 22  1  0
 11 12  1  0
 11 19  1  0
 12 13  1  0
 12 32  1  0
 12 33  1  0
 13 14  2  0
 13 18  1  0
 14 15  1  0
 14 34  1  0
 15 16  2  0
 15 35  1  0
 16 17  1  0
 16 36  1  0
 17 18  2  0
 17 37  1  0
 18 38  1  0
 19 20  2  0
 19 21  1  0
 21 39  1  0
 22 23  2  0
 22 40  1  0
 23 41  1  0
M  END

