
     RDKit          3D

 37 39  0  0  0  0  0  0  0  0999 V2000
    1.9676    0.7255   -0.7559 C   0  0  0  0  0  0  0  0  0  0  0  0
    3.4031    0.3276   -0.6057 C   0  0  0  0  0  0  0  0  0  0  0  0
    3.8096   -0.9414   -0.4525 N   0  0  0  0  0  0  0  0  0  0  0  0
    4.7393   -1.3637    0.3876 C   0  0  0  0  0  0  0  0  0  0  0  0
    5.2712   -0.3087    1.1327 C   0  0  0  0  0  0  0  0  0  0  0  0
    6.5263   -0.2995    1.9406 C   0  0  0  0  0  0  0  0  0  0  0  0
    7.7832   -0.1116    1.2064 N   0  0  0  0  0  0  0  0  0  0  0  0
    8.3080   -1.1891    0.5134 C   0  0  0  0  0  0  0  0  0  0  0  0
    7.8864   -2.3311    0.6507 O   0  0  0  0  0  0  0  0  0  0  0  0
    9.3458   -0.8731   -0.3378 N   0  0  0  0  0  0  0  0  0  0  0  0
   10.0904   -1.9154   -1.0351 C   0  0  2  0  0  0  0  0  0  0  0  0
   11.2600   -2.4748   -0.1931 C   0  0  0  0  0  0  0  0  0  0  0  0
   12.2995   -1.3984    0.1778 C   0  0  0  0  0  0  0  0  0  0  0  0
   12.5976   -0.5276   -1.0118 C   0  0  0  0  0  0  0  0  0  0  0  0
   13.6092    0.4321   -1.2866 C   0  0  0  0  0  0  0  0  0  0  0  0
   13.4594    0.9759   -2.4907 N   0  0  0  0  0  0  0  0  0  0  0  0
   12.3647    0.3853   -2.9986 N   0  0  0  0  0  0  0  0  0  0  0  0
   12.0500    0.6399   -3.9270 H   0  0  0  0  0  0  0  0  0  0  0  0
   11.8071   -0.5249   -2.1533 C   0  0  0  0  0  0  0  0  0  0  0  0
   10.5996   -1.3793   -2.3907 C   0  0  0  0  0  0  0  0  0  0  0  0
    4.5094    1.2248    0.5483 S   0  0  0  0  0  0  0  0  0  0  0  0
    1.5136    0.1575   -1.5832 H   0  0  0  0  0  0  0  0  0  0  0  0
    1.8839    1.7947   -1.0001 H   0  0  0  0  0  0  0  0  0  0  0  0
    1.3646    0.5354    0.1588 H   0  0  0  0  0  0  0  0  0  0  0  0
    5.0968   -2.3942    0.3949 H   0  0  0  0  0  0  0  0  0  0  0  0
    6.6150   -1.2614    2.4655 H   0  0  0  0  0  0  0  0  0  0  0  0
    6.4673    0.4935    2.7064 H   0  0  0  0  0  0  0  0  0  0  0  0
    7.9241    0.8069    0.7976 H   0  0  0  0  0  0  0  0  0  0  0  0
    9.8008    0.0275   -0.2329 H   0  0  0  0  0  0  0  0  0  0  0  0
    9.3703   -2.7262   -1.2092 H   0  0  0  0  0  0  0  0  0  0  0  0
   11.7492   -3.2744   -0.7765 H   0  0  0  0  0  0  0  0  0  0  0  0
   10.8488   -2.9458    0.7126 H   0  0  0  0  0  0  0  0  0  0  0  0
   13.2171   -1.8776    0.5579 H   0  0  0  0  0  0  0  0  0  0  0  0
   11.9180   -0.7856    1.0158 H   0  0  0  0  0  0  0  0  0  0  0  0
   14.4402    0.7435   -0.6526 H   0  0  0  0  0  0  0  0  0  0  0  0
   10.8533   -2.2336   -3.0438 H   0  0  0  0  0  0  0  0  0  0  0  0
    9.7925   -0.8217   -2.8946 H   0  0  0  0  0  0  0  0  0  0  0  0
  1  2  1  0
  1 22  1  0
  1 23  1  0
  1 24  1  0
  2  3  2  0
  2 21  1  0
  3  4  1  0
  4  5  2  0
  4 25  1  0
  5  6  1  0
  5 21  1  0
  6  7  1  0
  6 26  1  0
  6 27  1  0
  7  8  1  0
  7 28  1  0
  8  9  2  0
  8 10  1  0
 10 11  1  0
 10 29  1  0
 11 12  1  0
 11 20  1  0
 11 30  1  6
 12 13  1  0
 12 31  1  0
 12 32  1  0
 13 14  1  0
 13 33  1  0
 13 34  1  0
 14 15  1  0
 14 19  2  0
 15 16  2  0
 15 35  1  0
 16 17  1  0
 17 18  1  0
 17 19  1  0
 19 20  1  0
 20 36  1  0
 20 37  1  0
M  END

