
     RDKit          3D

 29 29  0  0  0  0  0  0  0  0999 V2000
    0.9073    0.2653    0.1129 C   0  0  0  0  0  0  0  0  0  0  0  0
    2.3998   -0.0708    0.0943 C   0  0  0  0  0  0  0  0  0  0  0  0
    3.0485    0.1710   -1.2723 C   0  0  0  0  0  0  0  0  0  0  0  0
    4.5606   -0.0572   -1.3119 C   0  0  1  0  0  0  0  0  0  0  0  0
    4.9882   -1.5032   -1.0812 C   0  0  0  0  0  0  0  0  0  0  0  0
    4.9813    0.3676   -2.6239 O   0  0  0  0  0  0  0  0  0  0  0  0
    6.2301    0.8342   -2.8222 C   0  0  0  0  0  0  0  0  0  0  0  0
    6.5599    1.2300   -4.1323 C   0  0  0  0  0  0  0  0  0  0  0  0
    7.8462    1.7212   -4.3388 C   0  0  0  0  0  0  0  0  0  0  0  0
    8.7486    1.8116   -3.2782 C   0  0  0  0  0  0  0  0  0  0  0  0
    8.3115    1.3884   -2.0071 C   0  0  0  0  0  0  0  0  0  0  0  0
    9.1201    1.4808   -0.8969 N   0  0  0  0  0  0  0  0  0  0  0  0
    7.0758    0.9033   -1.8014 N   0  0  0  0  0  0  0  0  0  0  0  0
    0.4643    0.0836    1.1051 H   0  0  0  0  0  0  0  0  0  0  0  0
    0.3507   -0.3456   -0.6175 H   0  0  0  0  0  0  0  0  0  0  0  0
    0.7318    1.3236   -0.1428 H   0  0  0  0  0  0  0  0  0  0  0  0
    2.5377   -1.1234    0.3969 H   0  0  0  0  0  0  0  0  0  0  0  0
    2.9225    0.5341    0.8579 H   0  0  0  0  0  0  0  0  0  0  0  0
    2.8635    1.2125   -1.5865 H   0  0  0  0  0  0  0  0  0  0  0  0
    2.5715   -0.4690   -2.0365 H   0  0  0  0  0  0  0  0  0  0  0  0
    5.0552    0.5878   -0.5682 H   0  0  0  0  0  0  0  0  0  0  0  0
    4.5306   -2.1668   -1.8328 H   0  0  0  0  0  0  0  0  0  0  0  0
    4.6836   -1.8487   -0.0810 H   0  0  0  0  0  0  0  0  0  0  0  0
    6.0816   -1.5926   -1.1496 H   0  0  0  0  0  0  0  0  0  0  0  0
    5.8212    1.1452   -4.9291 H   0  0  0  0  0  0  0  0  0  0  0  0
    8.1525    2.0403   -5.3388 H   0  0  0  0  0  0  0  0  0  0  0  0
    9.7589    2.2002   -3.4209 H   0  0  0  0  0  0  0  0  0  0  0  0
   10.1200    1.5458   -1.0343 H   0  0  0  0  0  0  0  0  0  0  0  0
    8.8136    0.9587   -0.0847 H   0  0  0  0  0  0  0  0  0  0  0  0
  1  2  1  0
  1 14  1  0
  1 15  1  0
  1 16  1  0
  2  3  1  0
  2 17  1  0
  2 18  1  0
  3  4  1  0
  3 19  1  0
  3 20  1  0
  4  5  1  0
  4  6  1  0
  4 21  1  1
  5 22  1  0
  5 23  1  0
  5 24  1  0
  6  7  1  0
  7  8  2  0
  7 13  1  0
  8  9  1  0
  8 25  1  0
  9 10  2  0
  9 26  1  0
 10 11  1  0
 10 27  1  0
 11 12  1  0
 11 13  2  0
 12 28  1  0
 12 29  1  0
M  END

