
     RDKit          3D

 41 41  0  0  0  0  0  0  0  0999 V2000
    7.3611    0.6278   -2.1807 C   0  0  0  0  0  0  0  0  0  0  0  0
    6.2292   -0.1319   -1.5145 C   0  0  0  0  0  0  0  0  0  0  0  0
    6.6300   -0.5116   -0.2177 O   0  0  0  0  0  0  0  0  0  0  0  0
    5.6630   -1.2335    0.5042 C   0  0  0  0  0  0  0  0  0  0  0  0
    6.2117   -1.5589    1.8860 C   0  0  0  0  0  0  0  0  0  0  0  0
    6.5556   -0.3042    2.6966 C   0  0  0  0  0  0  0  0  0  0  0  0
    7.0466   -0.6086    4.0244 N   0  0  0  0  0  0  0  0  0  0  0  0
    8.2807   -0.2965    4.4686 C   0  0  0  0  0  0  0  0  0  0  0  0
    9.1535    0.2971    3.8427 O   0  0  0  0  0  0  0  0  0  0  0  0
    8.5085   -0.7727    5.9127 C   0  0  0  0  0  0  0  0  0  0  0  0
    7.6427   -1.3699    6.5477 O   0  0  0  0  0  0  0  0  0  0  0  0
    9.7566   -0.4345    6.3324 N   0  0  0  0  0  0  0  0  0  0  0  0
   10.3832   -0.6587    7.5529 C   0  0  0  0  0  0  0  0  0  0  0  0
    9.7547   -1.3371    8.6305 C   0  0  0  0  0  0  0  0  0  0  0  0
   10.4242   -1.5298    9.8202 C   0  0  0  0  0  0  0  0  0  0  0  0
   11.7679   -1.0568   10.0130 C   0  0  0  0  0  0  0  0  0  0  0  0
   12.4571   -1.2455   11.2174 C   0  0  0  0  0  0  0  0  0  0  0  0
   11.8806   -1.9575   12.4411 C   0  0  0  0  0  0  0  0  0  0  0  0
   13.6597   -0.8504   11.4588 O   0  0  0  0  0  0  0  0  0  0  0  0
   12.3878   -0.3727    8.9084 C   0  0  0  0  0  0  0  0  0  0  0  0
   11.7102   -0.1857    7.7253 C   0  0  0  0  0  0  0  0  0  0  0  0
    7.0747    0.9346   -3.1989 H   0  0  0  0  0  0  0  0  0  0  0  0
    8.2625   -0.0009   -2.2454 H   0  0  0  0  0  0  0  0  0  0  0  0
    7.6153    1.5297   -1.6026 H   0  0  0  0  0  0  0  0  0  0  0  0
    5.9610   -1.0304   -2.1107 H   0  0  0  0  0  0  0  0  0  0  0  0
    5.3147    0.4973   -1.4650 H   0  0  0  0  0  0  0  0  0  0  0  0
    5.3956   -2.1709   -0.0276 H   0  0  0  0  0  0  0  0  0  0  0  0
    4.7252   -0.6416    0.5935 H   0  0  0  0  0  0  0  0  0  0  0  0
    7.1149   -2.1826    1.7812 H   0  0  0  0  0  0  0  0  0  0  0  0
    5.4615   -2.1646    2.4249 H   0  0  0  0  0  0  0  0  0  0  0  0
    5.6638    0.3461    2.7699 H   0  0  0  0  0  0  0  0  0  0  0  0
    7.3388    0.2690    2.1830 H   0  0  0  0  0  0  0  0  0  0  0  0
    6.4669   -1.1073    4.6963 H   0  0  0  0  0  0  0  0  0  0  0  0
   10.2776    0.0601    5.6060 H   0  0  0  0  0  0  0  0  0  0  0  0
    8.7370   -1.7001    8.4985 H   0  0  0  0  0  0  0  0  0  0  0  0
    9.9081   -2.0558   10.6255 H   0  0  0  0  0  0  0  0  0  0  0  0
   11.6192   -2.9912   12.1693 H   0  0  0  0  0  0  0  0  0  0  0  0
   10.9791   -1.4244   12.7785 H   0  0  0  0  0  0  0  0  0  0  0  0
   12.6109   -1.9780   13.2606 H   0  0  0  0  0  0  0  0  0  0  0  0
   13.4075    0.0031    9.0093 H   0  0  0  0  0  0  0  0  0  0  0  0
   12.2007    0.3377    6.8993 H   0  0  0  0  0  0  0  0  0  0  0  0
  1  2  1  0
  1 22  1  0
  1 23  1  0
  1 24  1  0
  2  3  1  0
  2 25  1  0
  2 26  1  0
  3  4  1  0
  4  5  1  0
  4 27  1  0
  4 28  1  0
  5  6  1  0
  5 29  1  0
  5 30  1  0
  6  7  1  0
  6 31  1  0
  6 32  1  0
  7  8  1  0
  7 33  1  0
  8  9  2  0
  8 10  1  0
 10 11  2  0
 10 12  1  0
 12 13  1  0
 12 34  1  0
 13 14  2  0
 13 21  1  0
 14 15  1  0
 14 35  1  0
 15 16  2  0
 15 36  1  0
 16 17  1  0
 16 20  1  0
 17 18  1  0
 17 19  2  0
 18 37  1  0
 18 38  1  0
 18 39  1  0
 20 21  2  0
 20 40  1  0
 21 41  1  0
M  END

