
     RDKit          3D

 42 44  0  0  0  0  0  0  0  0999 V2000
    3.8045    1.0219   -0.3224 C   0  0  0  0  0  0  0  0  0  0  0  0
    2.5883    0.1281   -0.0203 C   0  0  1  0  0  0  0  0  0  0  0  0
    2.1631    0.3711    1.4464 C   0  0  0  0  0  0  0  0  0  0  0  0
    1.4366    0.5440   -0.9648 C   0  0  0  0  0  0  0  0  0  0  0  0
    2.9012   -1.3679   -0.2201 C   0  0  0  0  0  0  0  0  0  0  0  0
    4.1640   -1.8400   -0.6155 C   0  0  0  0  0  0  0  0  0  0  0  0
    4.4156   -3.2046   -0.7848 C   0  0  0  0  0  0  0  0  0  0  0  0
    3.4138   -4.1583   -0.5619 C   0  0  0  0  0  0  0  0  0  0  0  0
    3.6825   -5.6345   -0.7643 C   0  0  0  0  0  0  0  0  0  0  0  0
    4.8943   -6.0525   -0.0909 N   0  0  0  0  0  0  0  0  0  0  0  0
    5.3920   -7.3428   -0.1598 C   0  0  0  0  0  0  0  0  0  0  0  0
    6.4831   -7.6895    0.7034 C   0  0  0  0  0  0  0  0  0  0  0  0
    7.0652   -8.9415    0.6824 C   0  0  0  0  0  0  0  0  0  0  0  0
    6.5752   -9.9115   -0.2184 C   0  0  0  0  0  0  0  0  0  0  0  0
    6.8678  -11.2713   -0.5584 C   0  0  0  0  0  0  0  0  0  0  0  0
    6.0645  -11.7153   -1.5055 N   0  0  0  0  0  0  0  0  0  0  0  0
    5.2393  -10.6835   -1.8080 N   0  0  0  0  0  0  0  0  0  0  0  0
    4.5339  -10.8100   -2.5215 H   0  0  0  0  0  0  0  0  0  0  0  0
    5.4935   -9.5629   -1.0678 C   0  0  0  0  0  0  0  0  0  0  0  0
    4.8820   -8.2957   -1.0519 C   0  0  0  0  0  0  0  0  0  0  0  0
    2.1516   -3.6975   -0.1635 C   0  0  0  0  0  0  0  0  0  0  0  0
    1.9026   -2.3341   -0.0006 C   0  0  0  0  0  0  0  0  0  0  0  0
    3.5372    2.0795   -0.1706 H   0  0  0  0  0  0  0  0  0  0  0  0
    4.1456    0.9141   -1.3639 H   0  0  0  0  0  0  0  0  0  0  0  0
    4.6543    0.7980    0.3413 H   0  0  0  0  0  0  0  0  0  0  0  0
    1.9348    1.4373    1.6100 H   0  0  0  0  0  0  0  0  0  0  0  0
    2.9673    0.0848    2.1428 H   0  0  0  0  0  0  0  0  0  0  0  0
    1.2655   -0.2062    1.7162 H   0  0  0  0  0  0  0  0  0  0  0  0
    1.1947    1.6112   -0.8302 H   0  0  0  0  0  0  0  0  0  0  0  0
    0.5184   -0.0317   -0.7726 H   0  0  0  0  0  0  0  0  0  0  0  0
    1.7144    0.3885   -2.0194 H   0  0  0  0  0  0  0  0  0  0  0  0
    4.9789   -1.1400   -0.8020 H   0  0  0  0  0  0  0  0  0  0  0  0
    5.4110   -3.5349   -1.0936 H   0  0  0  0  0  0  0  0  0  0  0  0
    3.7959   -5.8374   -1.8460 H   0  0  0  0  0  0  0  0  0  0  0  0
    2.7985   -6.2197   -0.4359 H   0  0  0  0  0  0  0  0  0  0  0  0
    5.1059   -5.5480    0.7622 H   0  0  0  0  0  0  0  0  0  0  0  0
    6.8615   -6.9257    1.3888 H   0  0  0  0  0  0  0  0  0  0  0  0
    7.8953   -9.1711    1.3555 H   0  0  0  0  0  0  0  0  0  0  0  0
    7.6334  -11.9261   -0.1415 H   0  0  0  0  0  0  0  0  0  0  0  0
    4.0428   -8.0723   -1.7103 H   0  0  0  0  0  0  0  0  0  0  0  0
    1.3490   -4.4166    0.0255 H   0  0  0  0  0  0  0  0  0  0  0  0
    0.9029   -2.0235    0.3124 H   0  0  0  0  0  0  0  0  0  0  0  0
  2  1  1  6
  1 23  1  0
  1 24  1  0
  1 25  1  0
  2  3  1  0
  2  4  1  0
  2  5  1  0
  3 26  1  0
  3 27  1  0
  3 28  1  0
  4 29  1  0
  4 30  1  0
  4 31  1  0
  5  6  2  0
  5 22  1  0
  6  7  1  0
  6 32  1  0
  7  8  2  0
  7 33  1  0
  8  9  1  0
  8 21  1  0
  9 10  1  0
  9 34  1  0
  9 35  1  0
 10 11  1  0
 10 36  1  0
 11 12  2  0
 11 20  1  0
 12 13  1  0
 12 37  1  0
 13 14  2  0
 13 38  1  0
 14 15  1  0
 14 19  1  0
 15 16  2  0
 15 39  1  0
 16 17  1  0
 17 18  1  0
 17 19  1  0
 19 20  2  0
 20 40  1  0
 21 22  2  0
 21 41  1  0
 22 42  1  0
M  END

