
     RDKit          3D

 29 29  0  0  0  0  0  0  0  0999 V2000
    2.2887    1.5248    0.5529 C   0  0  0  0  0  0  0  0  0  0  0  0
    2.3493    0.3787   -0.2824 O   0  0  0  0  0  0  0  0  0  0  0  0
    2.9916    0.4925   -1.4613 C   0  0  0  0  0  0  0  0  0  0  0  0
    3.0457   -0.6488   -2.2866 C   0  0  0  0  0  0  0  0  0  0  0  0
    3.6998   -0.5613   -3.5055 C   0  0  0  0  0  0  0  0  0  0  0  0
    4.2877    0.6681   -3.8746 C   0  0  0  0  0  0  0  0  0  0  0  0
    4.9777    0.8794   -5.0823 N   0  0  0  0  0  0  0  0  0  0  0  0
    5.2054   -0.0043   -6.0938 C   0  0  0  0  0  0  0  0  0  0  0  0
    4.8421   -1.1664   -6.1356 O   0  0  0  0  0  0  0  0  0  0  0  0
    6.0066    0.5760   -7.2619 C   0  0  0  0  0  0  0  0  0  0  0  0
    6.3154    1.9352   -7.0507 O   0  0  0  0  0  0  0  0  0  0  0  0
    7.0875    2.5311   -8.0508 C   0  0  0  0  0  0  0  0  0  0  0  0
    7.3159    3.9868   -7.6818 C   0  0  1  0  0  0  0  0  0  0  0  0
    7.9509    4.1049   -6.5086 F   0  0  0  0  0  0  0  0  0  0  0  0
    8.0709    4.5722   -8.6254 F   0  0  0  0  0  0  0  0  0  0  0  0
    6.1627    4.6618   -7.5938 F   0  0  0  0  0  0  0  0  0  0  0  0
    4.1713    1.7349   -2.9762 C   0  0  0  0  0  0  0  0  0  0  0  0
    3.5412    1.6489   -1.8029 N   0  0  0  0  0  0  0  0  0  0  0  0
    1.7329    1.2172    1.4486 H   0  0  0  0  0  0  0  0  0  0  0  0
    1.7693    2.3589    0.0542 H   0  0  0  0  0  0  0  0  0  0  0  0
    3.2960    1.8719    0.8337 H   0  0  0  0  0  0  0  0  0  0  0  0
    2.5752   -1.5757   -1.9552 H   0  0  0  0  0  0  0  0  0  0  0  0
    3.7684   -1.4142   -4.1782 H   0  0  0  0  0  0  0  0  0  0  0  0
    5.3623    1.8084   -5.2327 H   0  0  0  0  0  0  0  0  0  0  0  0
    5.4053    0.4327   -8.1804 H   0  0  0  0  0  0  0  0  0  0  0  0
    6.9229   -0.0366   -7.3699 H   0  0  0  0  0  0  0  0  0  0  0  0
    6.5848    2.5066   -9.0368 H   0  0  0  0  0  0  0  0  0  0  0  0
    8.0781    2.0483   -8.1568 H   0  0  0  0  0  0  0  0  0  0  0  0
    4.6140    2.7088   -3.2249 H   0  0  0  0  0  0  0  0  0  0  0  0
  1  2  1  0
  1 19  1  0
  1 20  1  0
  1 21  1  0
  2  3  1  0
  3  4  2  0
  3 18  1  0
  4  5  1  0
  4 22  1  0
  5  6  2  0
  5 23  1  0
  6  7  1  0
  6 17  1  0
  7  8  1  0
  7 24  1  0
  8  9  2  0
  8 10  1  0
 10 11  1  0
 10 25  1  0
 10 26  1  0
 11 12  1  0
 12 13  1  0
 12 27  1  0
 12 28  1  0
 13 14  1  1
 13 15  1  0
 13 16  1  0
 17 18  2  0
 17 29  1  0
M  END

