
     RDKit          3D

 35 36  0  0  0  0  0  0  0  0999 V2000
    0.5099    1.0487   -1.0858 C   0  0  0  0  0  0  0  0  0  0  0  0
    1.6667    0.6279   -0.4039 O   0  0  0  0  0  0  0  0  0  0  0  0
    2.7738    1.4920   -0.4953 C   0  0  1  0  0  0  0  0  0  0  0  0
    2.5243    2.8002    0.2286 C   0  0  0  0  0  0  0  0  0  0  0  0
    1.9107    2.8643    1.3855 N   0  0  0  0  0  0  0  0  0  0  0  0
    1.9049    4.2255    1.6738 O   0  0  0  0  0  0  0  0  0  0  0  0
    2.5207    4.8466    0.6611 C   0  0  0  0  0  0  0  0  0  0  0  0
    2.5828    6.3431    0.6743 C   0  0  1  0  0  0  0  0  0  0  0  0
    3.8816    6.9005    0.0259 C   0  0  0  0  0  0  0  0  0  0  0  0
    3.4553    8.0523   -0.8937 C   0  0  0  0  0  0  0  0  0  0  0  0
    2.0877    7.6117   -1.4365 C   0  0  0  0  0  0  0  0  0  0  0  0
    1.4699    6.9805   -0.1987 C   0  0  0  0  0  0  0  0  0  0  0  0
    0.2824    6.4903   -0.2098 O   0  0  0  0  0  0  0  0  0  0  0  0
    2.9235    4.0206   -0.2622 N   0  0  0  0  0  0  0  0  0  0  0  0
    4.0038    0.7360    0.0581 C   0  0  1  0  0  0  0  0  0  0  0  0
    4.2093   -0.5792   -0.7014 C   0  0  0  0  0  0  0  0  0  0  0  0
    5.2731    1.5952    0.0320 C   0  0  0  0  0  0  0  0  0  0  0  0
   -0.2363    0.2473   -0.9865 H   0  0  0  0  0  0  0  0  0  0  0  0
    0.7076    1.2178   -2.1632 H   0  0  0  0  0  0  0  0  0  0  0  0
    0.0840    1.9758   -0.6590 H   0  0  0  0  0  0  0  0  0  0  0  0
    2.9696    1.7638   -1.5540 H   0  0  0  0  0  0  0  0  0  0  0  0
    2.4387    6.6631    1.7218 H   0  0  0  0  0  0  0  0  0  0  0  0
    4.3392    6.0962   -0.5682 H   0  0  0  0  0  0  0  0  0  0  0  0
    4.6071    7.2071    0.7950 H   0  0  0  0  0  0  0  0  0  0  0  0
    4.1803    8.2341   -1.7029 H   0  0  0  0  0  0  0  0  0  0  0  0
    3.3432    8.9892   -0.3259 H   0  0  0  0  0  0  0  0  0  0  0  0
    2.1892    6.8584   -2.2481 H   0  0  0  0  0  0  0  0  0  0  0  0
    1.4672    8.4340   -1.8275 H   0  0  0  0  0  0  0  0  0  0  0  0
    3.7580    0.4992    1.1087 H   0  0  0  0  0  0  0  0  0  0  0  0
    4.4572   -0.3879   -1.7601 H   0  0  0  0  0  0  0  0  0  0  0  0
    3.3039   -1.1998   -0.6698 H   0  0  0  0  0  0  0  0  0  0  0  0
    5.0416   -1.1526   -0.2629 H   0  0  0  0  0  0  0  0  0  0  0  0
    5.5298    1.8981   -0.9974 H   0  0  0  0  0  0  0  0  0  0  0  0
    6.1255    1.0244    0.4324 H   0  0  0  0  0  0  0  0  0  0  0  0
    5.1758    2.5114    0.6335 H   0  0  0  0  0  0  0  0  0  0  0  0
  1  2  1  0
  1 18  1  0
  1 19  1  0
  1 20  1  0
  2  3  1  0
  3  4  1  0
  3 15  1  0
  3 21  1  6
  4  5  2  0
  4 14  1  0
  5  6  1  0
  6  7  1  0
  7  8  1  0
  7 14  2  0
  8  9  1  0
  8 12  1  0
  8 22  1  1
  9 10  1  0
  9 23  1  0
  9 24  1  0
 10 11  1  0
 10 25  1  0
 10 26  1  0
 11 12  1  0
 11 27  1  0
 11 28  1  0
 12 13  2  0
 15 16  1  0
 15 17  1  0
 15 29  1  1
 16 30  1  0
 16 31  1  0
 16 32  1  0
 17 33  1  0
 17 34  1  0
 17 35  1  0
M  END

