
     RDKit          3D

 47 49  0  0  0  0  0  0  0  0999 V2000
    1.5951   -0.4956   -1.3898 C   0  0  0  0  0  0  0  0  0  0  0  0
    2.8426    0.2630   -1.8610 C   0  0  1  0  0  0  0  0  0  0  0  0
    2.6902    0.8459   -3.2854 C   0  0  0  0  0  0  0  0  0  0  0  0
    1.7633    2.0692   -3.3203 C   0  0  0  0  0  0  0  0  0  0  0  0
    2.2122    3.1140   -2.2905 C   0  0  0  0  0  0  0  0  0  0  0  0
    2.3635    2.4759   -0.9001 C   0  0  0  0  0  0  0  0  0  0  0  0
    3.2422    1.2985   -0.8830 N   0  0  0  0  0  0  0  0  0  0  0  0
    4.6703    1.6116   -0.8466 C   0  0  0  0  0  0  0  0  0  0  0  0
    5.1077    1.9237    0.5991 C   0  0  1  0  0  0  0  0  0  0  0  0
    4.5595    0.9727    1.4716 O   0  0  0  0  0  0  0  0  0  0  0  0
    6.6210    1.9622    0.7634 C   0  0  0  0  0  0  0  0  0  0  0  0
    7.1885    0.7657    0.2642 O   0  0  0  0  0  0  0  0  0  0  0  0
    8.5230    0.5400    0.3732 C   0  0  0  0  0  0  0  0  0  0  0  0
    9.4333    1.4749    0.9423 C   0  0  0  0  0  0  0  0  0  0  0  0
   10.7787    1.1736    1.0111 C   0  0  0  0  0  0  0  0  0  0  0  0
   11.2931   -0.0568    0.5257 C   0  0  0  0  0  0  0  0  0  0  0  0
   12.6763   -0.3883    0.5867 C   0  0  0  0  0  0  0  0  0  0  0  0
   13.1367   -1.5951    0.1058 C   0  0  0  0  0  0  0  0  0  0  0  0
   12.2277   -2.5283   -0.4600 C   0  0  0  0  0  0  0  0  0  0  0  0
   10.8825   -2.2389   -0.5348 C   0  0  0  0  0  0  0  0  0  0  0  0
   10.3716   -0.9994   -0.0474 C   0  0  0  0  0  0  0  0  0  0  0  0
    8.9951   -0.6722   -0.1090 C   0  0  0  0  0  0  0  0  0  0  0  0
    1.3746   -1.3292   -2.0753 H   0  0  0  0  0  0  0  0  0  0  0  0
    0.6965    0.1390   -1.3479 H   0  0  0  0  0  0  0  0  0  0  0  0
    1.7593   -0.9119   -0.3841 H   0  0  0  0  0  0  0  0  0  0  0  0
    3.6674   -0.4670   -1.8810 H   0  0  0  0  0  0  0  0  0  0  0  0
    2.3293    0.0628   -3.9734 H   0  0  0  0  0  0  0  0  0  0  0  0
    3.6894    1.1429   -3.6511 H   0  0  0  0  0  0  0  0  0  0  0  0
    0.7245    1.7624   -3.1034 H   0  0  0  0  0  0  0  0  0  0  0  0
    1.7467    2.5049   -4.3332 H   0  0  0  0  0  0  0  0  0  0  0  0
    1.4945    3.9502   -2.2373 H   0  0  0  0  0  0  0  0  0  0  0  0
    3.1759    3.5517   -2.6072 H   0  0  0  0  0  0  0  0  0  0  0  0
    1.3676    2.1776   -0.5292 H   0  0  0  0  0  0  0  0  0  0  0  0
    2.7469    3.2106   -0.1749 H   0  0  0  0  0  0  0  0  0  0  0  0
    4.9671    2.4452   -1.5158 H   0  0  0  0  0  0  0  0  0  0  0  0
    5.2251    0.7206   -1.1723 H   0  0  0  0  0  0  0  0  0  0  0  0
    4.7619    2.9484    0.8676 H   0  0  0  0  0  0  0  0  0  0  0  0
    3.7259    0.7140    1.0332 H   0  0  0  0  0  0  0  0  0  0  0  0
    6.8484    2.0797    1.8378 H   0  0  0  0  0  0  0  0  0  0  0  0
    7.0286    2.8394    0.2245 H   0  0  0  0  0  0  0  0  0  0  0  0
    9.0787    2.4308    1.3271 H   0  0  0  0  0  0  0  0  0  0  0  0
   11.4705    1.8980    1.4502 H   0  0  0  0  0  0  0  0  0  0  0  0
   13.3707    0.3347    1.0243 H   0  0  0  0  0  0  0  0  0  0  0  0
   14.2007   -1.8388    0.1582 H   0  0  0  0  0  0  0  0  0  0  0  0
   12.6019   -3.4833   -0.8382 H   0  0  0  0  0  0  0  0  0  0  0  0
   10.1851   -2.9597   -0.9704 H   0  0  0  0  0  0  0  0  0  0  0  0
    8.2806   -1.3784   -0.5376 H   0  0  0  0  0  0  0  0  0  0  0  0
  1  2  1  0
  1 23  1  0
  1 24  1  0
  1 25  1  0
  2  3  1  0
  2  7  1  0
  2 26  1  6
  3  4  1  0
  3 27  1  0
  3 28  1  0
  4  5  1  0
  4 29  1  0
  4 30  1  0
  5  6  1  0
  5 31  1  0
  5 32  1  0
  6  7  1  0
  6 33  1  0
  6 34  1  0
  7  8  1  0
  8  9  1  0
  8 35  1  0
  8 36  1  0
  9 10  1  0
  9 11  1  0
  9 37  1  1
 10 38  1  0
 11 12  1  0
 11 39  1  0
 11 40  1  0
 12 13  1  0
 13 14  2  0
 13 22  1  0
 14 15  1  0
 14 41  1  0
 15 16  2  0
 15 42  1  0
 16 17  1  0
 16 21  1  0
 17 18  2  0
 17 43  1  0
 18 19  1  0
 18 44  1  0
 19 20  2  0
 19 45  1  0
 20 21  1  0
 20 46  1  0
 21 22  2  0
 22 47  1  0
M  END

