
     RDKit          3D

 36 36  0  0  0  0  0  0  0  0999 V2000
    2.9977   -2.5630   -0.5437 C   0  0  0  0  0  0  0  0  0  0  0  0
    3.9117   -1.3701   -0.3420 C   0  0  0  0  0  0  0  0  0  0  0  0
    3.6318   -0.7882    0.9234 O   0  0  0  0  0  0  0  0  0  0  0  0
    4.3787    0.3369    1.2777 C   0  0  1  0  0  0  0  0  0  0  0  0
    3.4228    1.4381    1.7652 C   0  0  0  0  0  0  0  0  0  0  0  0
    4.0886    2.7799    2.0458 C   0  0  0  0  0  0  0  0  0  0  0  0
    5.4305   -0.0275    2.3933 C   0  0  0  0  0  0  0  0  0  0  0  0
    6.2386    0.9289    2.6859 O   0  0  0  0  0  0  0  0  0  0  0  0
    5.9944   -1.4410    2.3928 C   0  0  0  0  0  0  0  0  0  0  0  0
    6.6163   -1.8577    3.7297 C   0  0  1  0  0  0  0  0  0  0  0  0
    5.6547   -1.9035    4.9282 C   0  0  0  0  0  0  0  0  0  0  0  0
    6.4267   -2.6990    5.9986 C   0  0  0  0  0  0  0  0  0  0  0  0
    7.3639   -3.6620    5.2109 C   0  0  0  0  0  0  0  0  0  0  0  0
    7.1983   -3.2843    3.7188 C   0  0  0  0  0  0  0  0  0  0  0  0
    3.1722   -3.0139   -1.5330 H   0  0  0  0  0  0  0  0  0  0  0  0
    1.9423   -2.2568   -0.4809 H   0  0  0  0  0  0  0  0  0  0  0  0
    3.1773   -3.3315    0.2240 H   0  0  0  0  0  0  0  0  0  0  0  0
    3.7509   -0.6151   -1.1366 H   0  0  0  0  0  0  0  0  0  0  0  0
    4.9738   -1.6758   -0.3962 H   0  0  0  0  0  0  0  0  0  0  0  0
    4.9521    0.7142    0.4012 H   0  0  0  0  0  0  0  0  0  0  0  0
    2.9010    1.0612    2.6599 H   0  0  0  0  0  0  0  0  0  0  0  0
    2.6593    1.5498    0.9749 H   0  0  0  0  0  0  0  0  0  0  0  0
    4.8726    2.6907    2.8147 H   0  0  0  0  0  0  0  0  0  0  0  0
    3.3456    3.5100    2.4054 H   0  0  0  0  0  0  0  0  0  0  0  0
    4.5578    3.1959    1.1390 H   0  0  0  0  0  0  0  0  0  0  0  0
    6.7695   -1.5335    1.5970 H   0  0  0  0  0  0  0  0  0  0  0  0
    5.1585   -2.1089    2.1305 H   0  0  0  0  0  0  0  0  0  0  0  0
    7.4301   -1.1483    3.9665 H   0  0  0  0  0  0  0  0  0  0  0  0
    4.7375   -2.4442    4.6312 H   0  0  0  0  0  0  0  0  0  0  0  0
    5.3434   -0.9042    5.2672 H   0  0  0  0  0  0  0  0  0  0  0  0
    5.7537   -3.2328    6.6876 H   0  0  0  0  0  0  0  0  0  0  0  0
    7.0252   -2.0106    6.6170 H   0  0  0  0  0  0  0  0  0  0  0  0
    7.1151   -4.7202    5.3865 H   0  0  0  0  0  0  0  0  0  0  0  0
    8.4096   -3.5321    5.5318 H   0  0  0  0  0  0  0  0  0  0  0  0
    6.4738   -3.9617    3.2316 H   0  0  0  0  0  0  0  0  0  0  0  0
    8.1375   -3.3585    3.1477 H   0  0  0  0  0  0  0  0  0  0  0  0
  1  2  1  0
  1 15  1  0
  1 16  1  0
  1 17  1  0
  2  3  1  0
  2 18  1  0
  2 19  1  0
  3  4  1  0
  4  5  1  0
  4  7  1  0
  4 20  1  6
  5  6  1  0
  5 21  1  0
  5 22  1  0
  6 23  1  0
  6 24  1  0
  6 25  1  0
  7  8  2  0
  7  9  1  0
  9 10  1  0
  9 26  1  0
  9 27  1  0
 10 11  1  0
 10 14  1  0
 10 28  1  6
 11 12  1  0
 11 29  1  0
 11 30  1  0
 12 13  1  0
 12 31  1  0
 12 32  1  0
 13 14  1  0
 13 33  1  0
 13 34  1  0
 14 35  1  0
 14 36  1  0
M  END

