
     RDKit          3D

 88 95  0  0  0  0  0  0  0  0999 V2000
    0.9696   -0.3492   -0.6490 C   0  0  0  0  0  0  0  0  0  0  0  0
    2.0741    0.3166    0.1734 C   0  0  0  0  0  0  0  0  0  0  0  0
    2.7557   -0.5866    1.2499 C   0  0  2  0  0  0  0  0  0  0  0  0
    3.8995    0.1909    1.9715 C   0  0  0  0  0  0  0  0  0  0  0  0
    4.6751   -0.5969    3.0289 C   0  0  0  0  0  0  0  0  0  0  0  0
    3.3514   -1.8009    0.5608 C   0  0  0  0  0  0  0  0  0  0  0  0
    4.3359   -1.7823   -0.4248 C   0  0  0  0  0  0  0  0  0  0  0  0
    4.7762   -2.9961   -0.9579 C   0  0  0  0  0  0  0  0  0  0  0  0
    6.1230   -3.0014   -2.3093 Br  0  0  0  0  0  0  0  0  0  0  0  0
    4.2398   -4.2055   -0.5105 C   0  0  0  0  0  0  0  0  0  0  0  0
    3.2521   -4.2058    0.4782 C   0  0  0  0  0  0  0  0  0  0  0  0
    2.7870   -3.0013    1.0329 C   0  0  0  0  0  0  0  0  0  0  0  0
    1.7740   -2.6614    2.0714 C   0  0  0  0  0  0  0  0  0  0  0  0
    1.7523   -1.2399    2.2134 C   0  0  0  0  0  0  0  0  0  0  0  0
    0.8795   -0.6390    3.1387 C   0  0  0  0  0  0  0  0  0  0  0  0
    0.0164   -1.4504    3.9368 C   0  0  0  0  0  0  0  0  0  0  0  0
    0.0319   -2.8499    3.7922 C   0  0  0  0  0  0  0  0  0  0  0  0
    0.9166   -3.4596    2.8501 C   0  0  0  0  0  0  0  0  0  0  0  0
    0.7432   -4.9871    2.8614 C   0  0  1  0  0  0  0  0  0  0  0  0
    0.2374   -5.5611    1.5024 C   0  0  0  0  0  0  0  0  0  0  0  0
   -1.0375   -4.9246    0.9455 C   0  0  0  0  0  0  0  0  0  0  0  0
    2.0204   -5.7501    3.3363 C   0  0  0  0  0  0  0  0  0  0  0  0
    2.5995   -5.3043    4.6800 C   0  0  0  0  0  0  0  0  0  0  0  0
   -0.3424   -5.1647    3.9086 C   0  0  0  0  0  0  0  0  0  0  0  0
   -0.9068   -6.3692    4.3097 C   0  0  0  0  0  0  0  0  0  0  0  0
   -1.9094   -6.3973    5.3001 C   0  0  0  0  0  0  0  0  0  0  0  0
   -2.5065   -7.6688    5.7283 C   0  0  0  0  0  0  0  0  0  0  0  0
   -1.9931   -8.9476    5.6167 C   0  0  0  0  0  0  0  0  0  0  0  0
   -2.8547   -9.9559    6.1363 C   0  0  0  0  0  0  0  0  0  0  0  0
   -4.0240   -9.4441    6.6411 C   0  0  0  0  0  0  0  0  0  0  0  0
   -4.0859   -7.7246    6.4824 S   0  0  0  0  0  0  0  0  0  0  0  0
   -2.3060   -5.1653    5.8561 C   0  0  0  0  0  0  0  0  0  0  0  0
   -1.7438   -3.9578    5.4444 C   0  0  0  0  0  0  0  0  0  0  0  0
   -0.7470   -3.9308    4.4539 C   0  0  0  0  0  0  0  0  0  0  0  0
   -0.8349   -0.5754    4.8704 C   0  0  1  0  0  0  0  0  0  0  0  0
   -2.3663   -0.6669    4.5830 C   0  0  0  0  0  0  0  0  0  0  0  0
   -2.7841   -0.4240    3.1318 C   0  0  0  0  0  0  0  0  0  0  0  0
   -0.5458   -0.8271    6.3837 C   0  0  0  0  0  0  0  0  0  0  0  0
    0.9183   -0.7035    6.8095 C   0  0  0  0  0  0  0  0  0  0  0  0
   -0.3548    0.8172    4.5043 C   0  0  0  0  0  0  0  0  0  0  0  0
   -0.8056    2.0118    5.0616 C   0  0  0  0  0  0  0  0  0  0  0  0
   -0.2590    3.2143    4.6072 C   0  0  0  0  0  0  0  0  0  0  0  0
   -0.8583    4.8649    5.3525 Br  0  0  0  0  0  0  0  0  0  0  0  0
    0.7205    3.2187    3.6115 C   0  0  0  0  0  0  0  0  0  0  0  0
    1.1619    2.0111    3.0639 C   0  0  0  0  0  0  0  0  0  0  0  0
    0.6334    0.7847    3.5020 C   0  0  0  0  0  0  0  0  0  0  0  0
    0.5604    0.3616   -1.3843 H   0  0  0  0  0  0  0  0  0  0  0  0
    0.1360   -0.6827   -0.0114 H   0  0  0  0  0  0  0  0  0  0  0  0
    1.3401   -1.2248   -1.2040 H   0  0  0  0  0  0  0  0  0  0  0  0
    1.6607    1.2141    0.6515 H   0  0  0  0  0  0  0  0  0  0  0  0
    2.8686    0.6787   -0.5021 H   0  0  0  0  0  0  0  0  0  0  0  0
    3.4957    1.0980    2.4392 H   0  0  0  0  0  0  0  0  0  0  0  0
    4.5966    0.5445    1.1922 H   0  0  0  0  0  0  0  0  0  0  0  0
    4.0202   -0.9249    3.8513 H   0  0  0  0  0  0  0  0  0  0  0  0
    5.4669    0.0313    3.4668 H   0  0  0  0  0  0  0  0  0  0  0  0
    5.1578   -1.4917    2.6060 H   0  0  0  0  0  0  0  0  0  0  0  0
    4.7617   -0.8426   -0.7806 H   0  0  0  0  0  0  0  0  0  0  0  0
    4.5899   -5.1492   -0.9314 H   0  0  0  0  0  0  0  0  0  0  0  0
    2.8661   -5.1693    0.7930 H   0  0  0  0  0  0  0  0  0  0  0  0
    0.0752   -6.6438    1.6436 H   0  0  0  0  0  0  0  0  0  0  0  0
    1.0285   -5.4778    0.7461 H   0  0  0  0  0  0  0  0  0  0  0  0
   -1.8851   -5.0235    1.6412 H   0  0  0  0  0  0  0  0  0  0  0  0
   -1.3248   -5.4114    0.0000 H   0  0  0  0  0  0  0  0  0  0  0  0
   -0.8971   -3.8526    0.7359 H   0  0  0  0  0  0  0  0  0  0  0  0
    2.8070   -5.6719    2.5745 H   0  0  0  0  0  0  0  0  0  0  0  0
    1.7605   -6.8218    3.3857 H   0  0  0  0  0  0  0  0  0  0  0  0
    2.9197   -4.2510    4.6526 H   0  0  0  0  0  0  0  0  0  0  0  0
    3.4821   -5.9118    4.9356 H   0  0  0  0  0  0  0  0  0  0  0  0
    1.8719   -5.4135    5.4990 H   0  0  0  0  0  0  0  0  0  0  0  0
   -0.5883   -7.3026    3.8407 H   0  0  0  0  0  0  0  0  0  0  0  0
   -1.0093   -9.1568    5.1950 H   0  0  0  0  0  0  0  0  0  0  0  0
   -2.6131  -11.0200    6.1407 H   0  0  0  0  0  0  0  0  0  0  0  0
   -4.8556   -9.9806    7.0958 H   0  0  0  0  0  0  0  0  0  0  0  0
   -3.0643   -5.1486    6.6426 H   0  0  0  0  0  0  0  0  0  0  0  0
   -2.0991   -3.0523    5.9240 H   0  0  0  0  0  0  0  0  0  0  0  0
   -2.8670    0.0670    5.2378 H   0  0  0  0  0  0  0  0  0  0  0  0
   -2.7457   -1.6480    4.8960 H   0  0  0  0  0  0  0  0  0  0  0  0
   -2.4752    0.5703    2.7734 H   0  0  0  0  0  0  0  0  0  0  0  0
   -3.8797   -0.4857    3.0353 H   0  0  0  0  0  0  0  0  0  0  0  0
   -2.3494   -1.1760    2.4550 H   0  0  0  0  0  0  0  0  0  0  0  0
   -0.9104   -1.8223    6.6691 H   0  0  0  0  0  0  0  0  0  0  0  0
   -1.1573   -0.1097    6.9582 H   0  0  0  0  0  0  0  0  0  0  0  0
    1.5539   -1.4395    6.2928 H   0  0  0  0  0  0  0  0  0  0  0  0
    1.0170   -0.8832    7.8918 H   0  0  0  0  0  0  0  0  0  0  0  0
    1.3248    0.2981    6.6007 H   0  0  0  0  0  0  0  0  0  0  0  0
   -1.5712    2.0185    5.8395 H   0  0  0  0  0  0  0  0  0  0  0  0
    1.1414    4.1623    3.2608 H   0  0  0  0  0  0  0  0  0  0  0  0
    1.9226    2.0651    2.2926 H   0  0  0  0  0  0  0  0  0  0  0  0
  1  2  1  0
  1 47  1  0
  1 48  1  0
  1 49  1  0
  3  2  1  6
  2 50  1  0
  2 51  1  0
  3  4  1  0
  3  6  1  0
  3 14  1  0
  4  5  1  0
  4 52  1  0
  4 53  1  0
  5 54  1  0
  5 55  1  0
  5 56  1  0
  6  7  2  0
  6 12  1  0
  7  8  1  0
  7 57  1  0
  8  9  1  0
  8 10  2  0
 10 11  1  0
 10 58  1  0
 11 12  2  0
 11 59  1  0
 12 13  1  0
 13 14  2  0
 13 18  1  0
 14 15  1  0
 15 16  2  0
 15 46  1  0
 16 17  1  0
 16 35  1  0
 17 18  2  0
 17 34  1  0
 18 19  1  0
 19 20  1  6
 19 22  1  0
 19 24  1  0
 20 21  1  0
 20 60  1  0
 20 61  1  0
 21 62  1  0
 21 63  1  0
 21 64  1  0
 22 23  1  0
 22 65  1  0
 22 66  1  0
 23 67  1  0
 23 68  1  0
 23 69  1  0
 24 25  1  0
 24 34  2  0
 25 26  2  0
 25 70  1  0
 26 27  1  0
 26 32  1  0
 27 28  2  0
 27 31  1  0
 28 29  1  0
 28 71  1  0
 29 30  2  0
 29 72  1  0
 30 31  1  0
 30 73  1  0
 32 33  2  0
 32 74  1  0
 33 34  1  0
 33 75  1  0
 35 36  1  1
 35 38  1  0
 35 40  1  0
 36 37  1  0
 36 76  1  0
 36 77  1  0
 37 78  1  0
 37 79  1  0
 37 80  1  0
 38 39  1  0
 38 81  1  0
 38 82  1  0
 39 83  1  0
 39 84  1  0
 39 85  1  0
 40 41  1  0
 40 46  2  0
 41 42  2  0
 41 86  1  0
 42 43  1  0
 42 44  1  0
 44 45  2  0
 44 87  1  0
 45 46  1  0
 45 88  1  0
M  END

