
     RDKit          3D

 78 82  0  0  0  0  0  0  0  0999 V2000
    0.5702    1.5763   -0.5344 C   0  0  0  0  0  0  0  0  0  0  0  0
    1.8474    1.0829   -0.1974 O   0  0  0  0  0  0  0  0  0  0  0  0
    2.4486    1.5146    0.9423 C   0  0  0  0  0  0  0  0  0  0  0  0
    1.8624    2.3994    1.8502 C   0  0  0  0  0  0  0  0  0  0  0  0
    2.5704    2.8217    2.9824 C   0  0  0  0  0  0  0  0  0  0  0  0
    3.8645    2.3553    3.2319 C   0  0  0  0  0  0  0  0  0  0  0  0
    4.4734    1.4671    2.3001 C   0  0  0  0  0  0  0  0  0  0  0  0
    5.7600    1.1361    2.5637 O   0  0  0  0  0  0  0  0  0  0  0  0
    6.3973   -0.0314    2.0790 C   0  0  0  0  0  0  0  0  0  0  0  0
    3.7657    1.0432    1.1563 C   0  0  0  0  0  0  0  0  0  0  0  0
    4.3874    0.2687    0.2124 O   0  0  0  0  0  0  0  0  0  0  0  0
    3.8751   -1.0361   -0.0161 C   0  0  0  0  0  0  0  0  0  0  0  0
    4.6112    2.7077    4.4866 C   0  0  0  0  0  0  0  0  0  0  0  0
    4.9481    1.6859    5.3290 C   0  0  0  0  0  0  0  0  0  0  0  0
    5.8280    2.1438    6.4045 C   0  0  0  0  0  0  0  0  0  0  0  0
    7.1580    2.3064    6.0893 C   0  0  0  0  0  0  0  0  0  0  0  0
    8.0463    1.3376    5.6929 N   0  0  0  0  0  0  0  0  0  0  0  0
    8.3838    0.1834    6.5189 C   0  0  1  0  0  0  0  0  0  0  0  0
    7.4912   -0.0632    7.1134 H   0  0  0  0  0  0  0  0  0  0  0  0
    8.7719   -1.0347    5.6790 C   0  0  0  0  0  0  0  0  0  0  0  0
    9.4967    0.4775    7.5684 C   0  0  0  0  0  0  0  0  0  0  0  0
    9.8728   -0.4224    8.3009 O   0  0  0  0  0  0  0  0  0  0  0  0
    9.9752    1.7587    7.5857 N   0  0  0  0  0  0  0  0  0  0  0  0
   10.9607    2.3197    8.4250 C   0  0  0  0  0  0  0  0  0  0  0  0
   11.6411    1.6006    9.4218 C   0  0  0  0  0  0  0  0  0  0  0  0
   12.6069    2.2476   10.1982 C   0  0  0  0  0  0  0  0  0  0  0  0
   12.8984    3.5959   10.0066 C   0  0  0  0  0  0  0  0  0  0  0  0
   12.2119    4.3195    9.0128 C   0  0  0  0  0  0  0  0  0  0  0  0
   11.2556    3.6812    8.2238 C   0  0  0  0  0  0  0  0  0  0  0  0
   12.5040    5.6861    8.8782 N   0  0  0  0  0  0  0  0  0  0  0  0
   13.5937    6.2878    9.4529 C   0  0  0  0  0  0  0  0  0  0  0  0
   13.8596    7.4647    9.3190 O   0  0  0  0  0  0  0  0  0  0  0  0
   14.4894    5.3221   10.2278 C   0  0  0  0  0  0  0  0  0  0  0  0
   13.7996    4.2315   10.8149 O   0  0  0  0  0  0  0  0  0  0  0  0
    7.5180    3.7034    5.6940 C   0  0  0  0  0  0  0  0  0  0  0  0
    8.6976    4.0599    5.5901 O   0  0  0  0  0  0  0  0  0  0  0  0
    6.3707    4.4853    5.2017 C   0  0  0  0  0  0  0  0  0  0  0  0
    5.1216    4.1073    4.7286 C   0  0  0  0  0  0  0  0  0  0  0  0
    4.1262    5.2975    4.5610 C   0  0  1  0  0  0  0  0  0  0  0  0
    3.7547    5.4056    5.5975 H   0  0  0  0  0  0  0  0  0  0  0  0
    4.7813    6.5687    4.2616 N   0  0  0  0  0  0  0  0  0  0  0  0
    5.3871    6.8294    3.0565 C   0  0  0  0  0  0  0  0  0  0  0  0
    6.0314    8.2014    2.9348 C   0  0  0  0  0  0  0  0  0  0  0  0
    5.4340    6.0057    2.1617 O   0  0  0  0  0  0  0  0  0  0  0  0
    2.8538    5.1802    3.6936 C   0  0  0  0  0  0  0  0  0  0  0  0
    2.0154    3.9043    3.8692 C   0  0  0  0  0  0  0  0  0  0  0  0
    0.2997    1.1126   -1.4926 H   0  0  0  0  0  0  0  0  0  0  0  0
    0.5759    2.6739   -0.6565 H   0  0  0  0  0  0  0  0  0  0  0  0
   -0.1894    1.3061    0.2211 H   0  0  0  0  0  0  0  0  0  0  0  0
    0.8606    2.7904    1.6751 H   0  0  0  0  0  0  0  0  0  0  0  0
    7.3050   -0.1424    2.6902 H   0  0  0  0  0  0  0  0  0  0  0  0
    6.6730    0.0542    1.0190 H   0  0  0  0  0  0  0  0  0  0  0  0
    5.7688   -0.9284    2.2152 H   0  0  0  0  0  0  0  0  0  0  0  0
    4.5535   -1.5184   -0.7345 H   0  0  0  0  0  0  0  0  0  0  0  0
    2.8601   -1.0073   -0.4392 H   0  0  0  0  0  0  0  0  0  0  0  0
    3.8601   -1.6317    0.9160 H   0  0  0  0  0  0  0  0  0  0  0  0
    4.6802    0.6524    5.0959 H   0  0  0  0  0  0  0  0  0  0  0  0
    5.4242    3.0393    6.8825 H   0  0  0  0  0  0  0  0  0  0  0  0
    8.8276    1.7092    5.1548 H   0  0  0  0  0  0  0  0  0  0  0  0
    7.9270   -1.3545    5.0518 H   0  0  0  0  0  0  0  0  0  0  0  0
    9.0668   -1.8590    6.3419 H   0  0  0  0  0  0  0  0  0  0  0  0
    9.6260   -0.8029    5.0211 H   0  0  0  0  0  0  0  0  0  0  0  0
    9.5759    2.4197    6.9213 H   0  0  0  0  0  0  0  0  0  0  0  0
   11.4112    0.5492    9.5737 H   0  0  0  0  0  0  0  0  0  0  0  0
   13.1455    1.7077   10.9797 H   0  0  0  0  0  0  0  0  0  0  0  0
   10.7235    4.2431    7.4507 H   0  0  0  0  0  0  0  0  0  0  0  0
   11.9191    6.2726    8.2900 H   0  0  0  0  0  0  0  0  0  0  0  0
   14.9754    5.8828   11.0361 H   0  0  0  0  0  0  0  0  0  0  0  0
   15.2775    4.9611    9.5349 H   0  0  0  0  0  0  0  0  0  0  0  0
    6.6009    5.5506    5.1331 H   0  0  0  0  0  0  0  0  0  0  0  0
    4.7664    7.2944    4.9660 H   0  0  0  0  0  0  0  0  0  0  0  0
    5.6937    8.9220    3.6946 H   0  0  0  0  0  0  0  0  0  0  0  0
    5.8220    8.5994    1.9323 H   0  0  0  0  0  0  0  0  0  0  0  0
    7.1240    8.0853    3.0193 H   0  0  0  0  0  0  0  0  0  0  0  0
    3.1314    5.2874    2.6358 H   0  0  0  0  0  0  0  0  0  0  0  0
    2.2471    6.0620    3.9593 H   0  0  0  0  0  0  0  0  0  0  0  0
    0.9718    4.1165    3.5915 H   0  0  0  0  0  0  0  0  0  0  0  0
    2.0020    3.5895    4.9281 H   0  0  0  0  0  0  0  0  0  0  0  0
  1  2  1  0
  1 47  1  0
  1 48  1  0
  1 49  1  0
  2  3  1  0
  3  4  2  0
  3 10  1  0
  4  5  1  0
  4 50  1  0
  5  6  2  0
  5 46  1  0
  6  7  1  0
  6 13  1  0
  7  8  1  0
  7 10  2  0
  8  9  1  0
  9 51  1  0
  9 52  1  0
  9 53  1  0
 10 11  1  0
 11 12  1  0
 12 54  1  0
 12 55  1  0
 12 56  1  0
 13 14  2  0
 13 38  1  0
 14 15  1  0
 14 57  1  0
 15 16  2  0
 15 58  1  0
 16 17  1  0
 16 35  1  0
 17 18  1  0
 17 59  1  0
 18 19  1  1
 18 20  1  0
 18 21  1  0
 20 60  1  0
 20 61  1  0
 20 62  1  0
 21 22  2  0
 21 23  1  0
 23 24  1  0
 23 63  1  0
 24 25  2  0
 24 29  1  0
 25 26  1  0
 25 64  1  0
 26 27  2  0
 26 65  1  0
 27 28  1  0
 27 34  1  0
 28 29  2  0
 28 30  1  0
 29 66  1  0
 30 31  1  0
 30 67  1  0
 31 32  2  0
 31 33  1  0
 33 34  1  0
 33 68  1  0
 33 69  1  0
 35 36  2  0
 35 37  1  0
 37 38  2  0
 37 70  1  0
 38 39  1  0
 39 40  1  1
 39 41  1  0
 39 45  1  0
 41 42  1  0
 41 71  1  0
 42 43  1  0
 42 44  2  0
 43 72  1  0
 43 73  1  0
 43 74  1  0
 45 46  1  0
 45 75  1  0
 45 76  1  0
 46 77  1  0
 46 78  1  0
M  END

