
     RDKit          3D

 41 43  0  0  0  0  0  0  0  0999 V2000
    3.7996   -1.1529    1.8245 N   0  0  0  0  0  0  0  0  0  0  0  0
    2.9511   -2.0453    1.2125 C   0  0  0  0  0  0  0  0  0  0  0  0
    1.9716   -2.5004    1.8225 O   0  0  0  0  0  0  0  0  0  0  0  0
    3.2643   -2.4603   -0.1607 C   0  0  0  0  0  0  0  0  0  0  0  0
    4.3946   -2.1561   -0.9116 C   0  0  0  0  0  0  0  0  0  0  0  0
    4.4168   -2.7160   -2.2128 C   0  0  0  0  0  0  0  0  0  0  0  0
    5.4359   -2.6078   -3.2011 C   0  0  0  0  0  0  0  0  0  0  0  0
    6.6380   -1.8636   -2.9695 C   0  0  0  0  0  0  0  0  0  0  0  0
    7.6182   -1.7693   -3.9425 C   0  0  0  0  0  0  0  0  0  0  0  0
    7.4562   -2.4070   -5.1879 C   0  0  0  0  0  0  0  0  0  0  0  0
    6.2885   -3.1430   -5.4410 C   0  0  0  0  0  0  0  0  0  0  0  0
    5.2959   -3.2460   -4.4768 C   0  0  0  0  0  0  0  0  0  0  0  0
    2.9287   -3.6809   -2.5411 S   0  0  0  0  0  0  0  0  0  0  0  0
    2.3669   -3.3235   -0.9115 C   0  0  0  0  0  0  0  0  0  0  0  0
    1.2254   -3.8212   -0.3985 N   0  0  0  0  0  0  0  0  0  0  0  0
    0.3204   -4.6328   -1.0640 C   0  0  0  0  0  0  0  0  0  0  0  0
    0.4730   -4.9831   -2.2311 O   0  0  0  0  0  0  0  0  0  0  0  0
   -0.8837   -5.0623   -0.2496 C   0  0  0  0  0  0  0  0  0  0  0  0
   -0.8065   -4.5032    1.0408 O   0  0  0  0  0  0  0  0  0  0  0  0
   -1.7776   -4.7379    1.9635 C   0  0  0  0  0  0  0  0  0  0  0  0
   -2.9079   -5.5340    1.7339 C   0  0  0  0  0  0  0  0  0  0  0  0
   -3.8512   -5.7114    2.7530 C   0  0  0  0  0  0  0  0  0  0  0  0
   -3.6653   -5.0972    3.9911 C   0  0  0  0  0  0  0  0  0  0  0  0
   -4.8485   -5.3207    5.2629 Cl  0  0  0  0  0  0  0  0  0  0  0  0
   -2.5361   -4.3013    4.2243 C   0  0  0  0  0  0  0  0  0  0  0  0
   -1.5962   -4.1226    3.2141 C   0  0  0  0  0  0  0  0  0  0  0  0
    3.4875   -0.8046    2.7239 H   0  0  0  0  0  0  0  0  0  0  0  0
    4.3839   -0.5357    1.2766 H   0  0  0  0  0  0  0  0  0  0  0  0
    5.2244   -1.5581   -0.5337 H   0  0  0  0  0  0  0  0  0  0  0  0
    6.7871   -1.3631   -2.0112 H   0  0  0  0  0  0  0  0  0  0  0  0
    8.5260   -1.1952   -3.7403 H   0  0  0  0  0  0  0  0  0  0  0  0
    8.2344   -2.3286   -5.9507 H   0  0  0  0  0  0  0  0  0  0  0  0
    6.1567   -3.6405   -6.4051 H   0  0  0  0  0  0  0  0  0  0  0  0
    4.3935   -3.8228   -4.6914 H   0  0  0  0  0  0  0  0  0  0  0  0
    1.0651   -3.5450    0.5874 H   0  0  0  0  0  0  0  0  0  0  0  0
   -0.9074   -6.1705   -0.2145 H   0  0  0  0  0  0  0  0  0  0  0  0
   -1.8004   -4.7374   -0.7821 H   0  0  0  0  0  0  0  0  0  0  0  0
   -3.0693   -6.0214    0.7719 H   0  0  0  0  0  0  0  0  0  0  0  0
   -4.7334   -6.3302    2.5811 H   0  0  0  0  0  0  0  0  0  0  0  0
   -2.3997   -3.8256    5.1970 H   0  0  0  0  0  0  0  0  0  0  0  0
   -0.7065   -3.5077    3.3670 H   0  0  0  0  0  0  0  0  0  0  0  0
  1  2  1  0
  1 27  1  0
  1 28  1  0
  2  3  2  0
  2  4  1  0
  4  5  1  0
  4 14  2  0
  5  6  2  0
  5 29  1  0
  6  7  1  0
  6 13  1  0
  7  8  2  0
  7 12  1  0
  8  9  1  0
  8 30  1  0
  9 10  2  0
  9 31  1  0
 10 11  1  0
 10 32  1  0
 11 12  2  0
 11 33  1  0
 12 34  1  0
 13 14  1  0
 14 15  1  0
 15 16  1  0
 15 35  1  0
 16 17  2  0
 16 18  1  0
 18 19  1  0
 18 36  1  0
 18 37  1  0
 19 20  1  0
 20 21  2  0
 20 26  1  0
 21 22  1  0
 21 38  1  0
 22 23  2  0
 22 39  1  0
 23 24  1  0
 23 25  1  0
 25 26  2  0
 25 40  1  0
 26 41  1  0
M  END

