
     RDKit          3D

 30 31  0  0  0  0  0  0  0  0999 V2000
    1.4346    0.2753    0.9353 C   0  0  0  0  0  0  0  0  0  0  0  0
    2.5756   -0.0751   -0.0065 C   0  0  0  0  0  0  0  0  0  0  0  0
    3.0011   -1.2158   -0.0593 O   0  0  0  0  0  0  0  0  0  0  0  0
    3.1589    1.0069   -0.8605 C   0  0  0  0  0  0  0  0  0  0  0  0
    2.6977    2.3318   -0.8445 C   0  0  0  0  0  0  0  0  0  0  0  0
    3.2942    3.2770   -1.6774 C   0  0  0  0  0  0  0  0  0  0  0  0
    4.3454    2.9223   -2.5245 C   0  0  0  0  0  0  0  0  0  0  0  0
    4.8383    1.5868   -2.5618 C   0  0  0  0  0  0  0  0  0  0  0  0
    4.2112    0.6539   -1.7241 C   0  0  0  0  0  0  0  0  0  0  0  0
    5.8985    1.2574   -3.4168 N   0  0  0  0  0  0  0  0  0  0  0  0
    6.2023   -0.1490   -3.5926 C   0  0  0  0  0  0  0  0  0  0  0  0
    6.1483    2.1911   -4.5174 C   0  0  2  0  0  0  0  0  0  0  0  0
    7.4981    1.9793   -5.2045 C   0  0  0  0  0  0  0  0  0  0  0  0
    6.0964    3.6083   -3.9448 C   0  0  0  0  0  0  0  0  0  0  0  0
    4.8600    3.8961   -3.3206 O   0  0  0  0  0  0  0  0  0  0  0  0
    1.1374   -0.6304    1.4790 H   0  0  0  0  0  0  0  0  0  0  0  0
    0.5684    0.6691    0.3795 H   0  0  0  0  0  0  0  0  0  0  0  0
    1.7397    1.0512    1.6559 H   0  0  0  0  0  0  0  0  0  0  0  0
    1.8794    2.6377   -0.1913 H   0  0  0  0  0  0  0  0  0  0  0  0
    2.9613    4.3168   -1.6929 H   0  0  0  0  0  0  0  0  0  0  0  0
    4.5179   -0.3903   -1.7098 H   0  0  0  0  0  0  0  0  0  0  0  0
    6.4158   -0.6194   -2.6213 H   0  0  0  0  0  0  0  0  0  0  0  0
    7.0997   -0.2685   -4.2095 H   0  0  0  0  0  0  0  0  0  0  0  0
    5.3744   -0.7167   -4.0653 H   0  0  0  0  0  0  0  0  0  0  0  0
    5.3468    2.1129   -5.2850 H   0  0  0  0  0  0  0  0  0  0  0  0
    8.3181    1.9683   -4.4685 H   0  0  0  0  0  0  0  0  0  0  0  0
    7.6829    2.7999   -5.9150 H   0  0  0  0  0  0  0  0  0  0  0  0
    7.5354    1.0443   -5.7805 H   0  0  0  0  0  0  0  0  0  0  0  0
    6.2138    4.3504   -4.7476 H   0  0  0  0  0  0  0  0  0  0  0  0
    6.9240    3.7392   -3.2222 H   0  0  0  0  0  0  0  0  0  0  0  0
  1  2  1  0
  1 16  1  0
  1 17  1  0
  1 18  1  0
  2  3  2  0
  2  4  1  0
  4  5  2  0
  4  9  1  0
  5  6  1  0
  5 19  1  0
  6  7  2  0
  6 20  1  0
  7  8  1  0
  7 15  1  0
  8  9  2  0
  8 10  1  0
  9 21  1  0
 10 11  1  0
 10 12  1  0
 11 22  1  0
 11 23  1  0
 11 24  1  0
 12 13  1  0
 12 14  1  0
 12 25  1  6
 13 26  1  0
 13 27  1  0
 13 28  1  0
 14 15  1  0
 14 29  1  0
 14 30  1  0
M  END

