
     RDKit          3D

 40 42  0  0  0  0  0  0  0  0999 V2000
   -0.3601   -7.4113    3.3617 C   0  0  0  0  0  0  0  0  0  0  0  0
   -0.7268   -7.7744    2.0354 O   0  0  0  0  0  0  0  0  0  0  0  0
   -0.4797   -8.9790    1.5551 C   0  0  0  0  0  0  0  0  0  0  0  0
    0.1532  -10.0124    2.2804 C   0  0  0  0  0  0  0  0  0  0  0  0
    0.3638  -11.2352    1.6667 C   0  0  0  0  0  0  0  0  0  0  0  0
   -0.0430  -11.4629    0.3248 C   0  0  0  0  0  0  0  0  0  0  0  0
   -0.6742  -10.4613   -0.3917 C   0  0  0  0  0  0  0  0  0  0  0  0
   -0.8755   -9.1924    0.1811 C   0  0  0  0  0  0  0  0  0  0  0  0
   -1.6587   -8.1292   -0.5373 C   0  0  0  0  0  0  0  0  0  0  0  0
   -2.8454   -8.3654   -0.1968 O   0  0  0  0  0  0  0  0  0  0  0  0
   -1.1216   -7.1518   -1.3817 C   0  0  0  0  0  0  0  0  0  0  0  0
    0.2978   -7.1530   -1.5142 C   0  0  0  0  0  0  0  0  0  0  0  0
    1.4616   -7.2121   -1.5642 N   0  0  0  0  0  0  0  0  0  0  0  0
   -2.0019   -6.2101   -2.0231 C   0  0  0  0  0  0  0  0  0  0  0  0
   -1.6713   -5.1691   -2.8830 C   0  0  0  0  0  0  0  0  0  0  0  0
   -2.4563   -4.2008   -3.5390 C   0  0  0  0  0  0  0  0  0  0  0  0
   -1.5685   -3.3895   -4.2843 C   0  0  0  0  0  0  0  0  0  0  0  0
   -0.2949   -3.8772   -4.0671 C   0  0  0  0  0  0  0  0  0  0  0  0
    1.0257   -3.4694   -4.5579 C   0  0  2  0  0  0  0  0  0  0  0  0
    0.9838   -2.5874   -5.2040 H   0  0  0  0  0  0  0  0  0  0  0  0
    2.0983   -4.4990   -4.8926 C   0  0  0  0  0  0  0  0  0  0  0  0
    2.2728   -3.6127   -3.6960 C   0  0  1  0  0  0  0  0  0  0  0  0
    2.0993   -4.1114   -2.7364 H   0  0  0  0  0  0  0  0  0  0  0  0
    3.3118   -2.5149   -3.6722 C   0  0  0  0  0  0  0  0  0  0  0  0
   -0.3525   -4.9454   -3.2266 O   0  0  0  0  0  0  0  0  0  0  0  0
   -0.6774   -6.3701    3.4859 H   0  0  0  0  0  0  0  0  0  0  0  0
    0.7302   -7.4859    3.4982 H   0  0  0  0  0  0  0  0  0  0  0  0
   -0.8770   -8.0468    4.0983 H   0  0  0  0  0  0  0  0  0  0  0  0
    0.4628   -9.8583    3.3131 H   0  0  0  0  0  0  0  0  0  0  0  0
    0.8471  -12.0399    2.2249 H   0  0  0  0  0  0  0  0  0  0  0  0
    0.1571  -12.4299   -0.1402 H   0  0  0  0  0  0  0  0  0  0  0  0
   -0.9890  -10.6237   -1.4230 H   0  0  0  0  0  0  0  0  0  0  0  0
   -3.0633   -6.3281   -1.8045 H   0  0  0  0  0  0  0  0  0  0  0  0
   -3.5378   -4.1139   -3.4685 H   0  0  0  0  0  0  0  0  0  0  0  0
   -1.8211   -2.5402   -4.9159 H   0  0  0  0  0  0  0  0  0  0  0  0
    2.7114   -4.3075   -5.7790 H   0  0  0  0  0  0  0  0  0  0  0  0
    1.8533   -5.5491   -4.7146 H   0  0  0  0  0  0  0  0  0  0  0  0
    3.4289   -2.0507   -4.6658 H   0  0  0  0  0  0  0  0  0  0  0  0
    4.2976   -2.9089   -3.3724 H   0  0  0  0  0  0  0  0  0  0  0  0
    3.0399   -1.7175   -2.9605 H   0  0  0  0  0  0  0  0  0  0  0  0
  1  2  1  0
  1 26  1  0
  1 27  1  0
  1 28  1  0
  2  3  1  0
  3  4  2  0
  3  8  1  0
  4  5  1  0
  4 29  1  0
  5  6  2  0
  5 30  1  0
  6  7  1  0
  6 31  1  0
  7  8  2  0
  7 32  1  0
  8  9  1  0
  9 10  2  0
  9 11  1  0
 11 12  1  0
 11 14  2  0
 12 13  3  0
 14 15  1  0
 14 33  1  0
 15 16  2  0
 15 25  1  0
 16 17  1  0
 16 34  1  0
 17 18  2  0
 17 35  1  0
 18 19  1  0
 18 25  1  0
 19 20  1  6
 19 21  1  0
 19 22  1  0
 21 22  1  0
 21 36  1  0
 21 37  1  0
 22 23  1  1
 22 24  1  0
 24 38  1  0
 24 39  1  0
 24 40  1  0
M  END

