
     RDKit          3D

 69 72  0  0  0  0  0  0  0  0999 V2000
    1.4213   -0.8791    0.5816 C   0  0  0  0  0  0  0  0  0  0  0  0
    2.7215   -1.1225    0.3347 C   0  0  0  0  0  0  0  0  0  0  0  0
    3.3540   -2.4441    0.6368 C   0  0  0  0  0  0  0  0  0  0  0  0
    2.7785   -3.1175    1.6893 N   0  0  0  0  0  0  0  0  0  0  0  0
    3.1137   -4.4381    2.2099 C   0  0  2  0  0  0  0  0  0  0  0  0
    4.4094   -4.3647    3.0529 C   0  0  0  0  0  0  0  0  0  0  0  0
    5.0092   -5.7366    3.2917 C   0  0  0  0  0  0  0  0  0  0  0  0
    5.2570   -6.3848    2.0546 O   0  0  0  0  0  0  0  0  0  0  0  0
    4.1403   -6.6286    1.2877 C   0  0  0  0  0  0  0  0  0  0  0  0
    4.0231   -7.9124    0.8201 C   0  0  0  0  0  0  0  0  0  0  0  0
    2.9433   -8.4737    0.0466 C   0  0  0  0  0  0  0  0  0  0  0  0
    2.1507   -7.7912   -0.8107 C   0  0  0  0  0  0  0  0  0  0  0  0
    2.4437   -6.3533   -1.1588 C   0  0  0  0  0  0  0  0  0  0  0  0
    2.3158   -5.5323    0.0837 C   0  0  0  0  0  0  0  0  0  0  0  0
    1.2772   -4.6749    0.0787 F   0  0  0  0  0  0  0  0  0  0  0  0
    3.1690   -5.5433    1.1408 C   0  0  0  0  0  0  0  0  0  0  0  0
    4.4184   -2.9512   -0.0742 C   0  0  0  0  0  0  0  0  0  0  0  0
    5.0693   -2.4637   -1.2875 C   0  0  0  0  0  0  0  0  0  0  0  0
    6.0254   -3.4803   -1.8818 C   0  0  0  0  0  0  0  0  0  0  0  0
    5.6286   -4.6080   -2.1493 O   0  0  0  0  0  0  0  0  0  0  0  0
    7.3157   -3.0822   -2.1419 N   0  0  0  0  0  0  0  0  0  0  0  0
    8.2164   -4.0008   -2.8337 C   0  0  0  0  0  0  0  0  0  0  0  0
    9.0652   -3.2155   -3.8319 C   0  0  0  0  0  0  0  0  0  0  0  0
    9.7529   -2.1475   -3.2099 O   0  0  0  0  0  0  0  0  0  0  0  0
    8.8721   -1.2483   -2.5664 C   0  0  0  0  0  0  0  0  0  0  0  0
    8.0166   -1.9590   -1.5198 C   0  0  0  0  0  0  0  0  0  0  0  0
    4.8545   -1.3234   -1.9850 C   0  0  0  0  0  0  0  0  0  0  0  0
    3.8650   -0.2389   -1.6494 C   0  0  0  0  0  0  0  0  0  0  0  0
    3.5353   -0.0942   -0.2355 N   0  0  0  0  0  0  0  0  0  0  0  0
    4.2920    0.7757    0.6090 C   0  0  0  0  0  0  0  0  0  0  0  0
    5.0242    0.1113    1.7593 C   0  0  0  0  0  0  0  0  0  0  0  0
    6.1012   -0.7238    1.3688 O   0  0  0  0  0  0  0  0  0  0  0  0
    4.3326    2.1121    0.3672 C   0  0  0  0  0  0  0  0  0  0  0  0
    3.4534    2.7746   -0.6643 C   0  0  0  0  0  0  0  0  0  0  0  0
    5.2578    3.0728    1.0760 C   0  0  0  0  0  0  0  0  0  0  0  0
    0.7472   -1.6485    0.9647 H   0  0  0  0  0  0  0  0  0  0  0  0
    1.0005    0.1044    0.3636 H   0  0  0  0  0  0  0  0  0  0  0  0
    2.1062   -2.5932    2.2303 H   0  0  0  0  0  0  0  0  0  0  0  0
    2.2839   -4.6924    2.8931 H   0  0  0  0  0  0  0  0  0  0  0  0
    4.1891   -3.8637    4.0094 H   0  0  0  0  0  0  0  0  0  0  0  0
    5.1482   -3.7407    2.5272 H   0  0  0  0  0  0  0  0  0  0  0  0
    5.9799   -5.6638    3.8037 H   0  0  0  0  0  0  0  0  0  0  0  0
    4.3428   -6.3655    3.9158 H   0  0  0  0  0  0  0  0  0  0  0  0
    4.8051   -8.5919    1.1710 H   0  0  0  0  0  0  0  0  0  0  0  0
    2.7598   -9.5450    0.1866 H   0  0  0  0  0  0  0  0  0  0  0  0
    1.2871   -8.2830   -1.2685 H   0  0  0  0  0  0  0  0  0  0  0  0
    1.7389   -5.9635   -1.9057 H   0  0  0  0  0  0  0  0  0  0  0  0
    3.4680   -6.2368   -1.5591 H   0  0  0  0  0  0  0  0  0  0  0  0
    4.7858   -3.9271    0.2361 H   0  0  0  0  0  0  0  0  0  0  0  0
    7.6141   -4.7726   -3.3297 H   0  0  0  0  0  0  0  0  0  0  0  0
    8.8775   -4.5027   -2.1012 H   0  0  0  0  0  0  0  0  0  0  0  0
    8.4128   -2.8315   -4.6441 H   0  0  0  0  0  0  0  0  0  0  0  0
    9.8287   -3.8675   -4.2833 H   0  0  0  0  0  0  0  0  0  0  0  0
    8.2118   -0.7558   -3.3112 H   0  0  0  0  0  0  0  0  0  0  0  0
    9.4938   -0.4742   -2.0914 H   0  0  0  0  0  0  0  0  0  0  0  0
    7.3094   -1.2679   -1.0468 H   0  0  0  0  0  0  0  0  0  0  0  0
    8.6843   -2.3474   -0.7259 H   0  0  0  0  0  0  0  0  0  0  0  0
    5.4265   -1.1740   -2.9072 H   0  0  0  0  0  0  0  0  0  0  0  0
    2.9310   -0.4012   -2.2236 H   0  0  0  0  0  0  0  0  0  0  0  0
    4.2654    0.7197   -2.0086 H   0  0  0  0  0  0  0  0  0  0  0  0
    4.2889   -0.4601    2.3618 H   0  0  0  0  0  0  0  0  0  0  0  0
    5.4391    0.8688    2.4354 H   0  0  0  0  0  0  0  0  0  0  0  0
    5.7180   -1.4980    0.9250 H   0  0  0  0  0  0  0  0  0  0  0  0
    2.6003    2.1431   -0.9483 H   0  0  0  0  0  0  0  0  0  0  0  0
    4.0090    3.0311   -1.5863 H   0  0  0  0  0  0  0  0  0  0  0  0
    3.0644    3.7295   -0.2699 H   0  0  0  0  0  0  0  0  0  0  0  0
    6.0245    2.5849    1.6903 H   0  0  0  0  0  0  0  0  0  0  0  0
    4.6915    3.7689    1.7217 H   0  0  0  0  0  0  0  0  0  0  0  0
    5.7850    3.7030    0.3374 H   0  0  0  0  0  0  0  0  0  0  0  0
  1  2  2  0
  1 36  1  0
  1 37  1  0
  2  3  1  0
  2 29  1  0
  3  4  1  0
  3 17  2  0
  4  5  1  0
  4 38  1  0
  5  6  1  0
  5 16  1  0
  5 39  1  1
  6  7  1  0
  6 40  1  0
  6 41  1  0
  7  8  1  0
  7 42  1  0
  7 43  1  0
  8  9  1  0
  9 10  2  0
  9 16  1  0
 10 11  1  0
 10 44  1  0
 11 12  2  0
 11 45  1  0
 12 13  1  0
 12 46  1  0
 13 14  1  0
 13 47  1  0
 13 48  1  0
 14 15  1  0
 14 16  2  0
 17 18  1  0
 17 49  1  0
 18 19  1  0
 18 27  2  0
 19 20  2  0
 19 21  1  0
 21 22  1  0
 21 26  1  0
 22 23  1  0
 22 50  1  0
 22 51  1  0
 23 24  1  0
 23 52  1  0
 23 53  1  0
 24 25  1  0
 25 26  1  0
 25 54  1  0
 25 55  1  0
 26 56  1  0
 26 57  1  0
 27 28  1  0
 27 58  1  0
 28 29  1  0
 28 59  1  0
 28 60  1  0
 29 30  1  0
 30 31  1  0
 30 33  2  0
 31 32  1  0
 31 61  1  0
 31 62  1  0
 32 63  1  0
 33 34  1  0
 33 35  1  0
 34 64  1  0
 34 65  1  0
 34 66  1  0
 35 67  1  0
 35 68  1  0
 35 69  1  0
M  END

