
     RDKit          3D

 25 27  0  0  0  0  0  0  0  0999 V2000
    2.5919    1.4385    0.2997 O   0  0  0  0  0  0  0  0  0  0  0  0
    2.3353    0.3461   -0.1391 C   0  0  0  0  0  0  0  0  0  0  0  0
    3.0708   -0.2805   -1.2981 C   0  0  0  0  0  0  0  0  0  0  0  0
    3.6704    0.5705   -2.1066 N   0  0  0  0  0  0  0  0  0  0  0  0
    4.2283    0.1057   -3.2453 C   0  0  0  0  0  0  0  0  0  0  0  0
    4.8854    0.9976   -4.1387 C   0  0  0  0  0  0  0  0  0  0  0  0
    5.4079    0.5202   -5.3209 C   0  0  0  0  0  0  0  0  0  0  0  0
    5.2928   -0.8573   -5.6596 C   0  0  0  0  0  0  0  0  0  0  0  0
    4.6678   -1.7462   -4.8116 C   0  0  0  0  0  0  0  0  0  0  0  0
    4.1297   -1.2870   -3.5768 C   0  0  0  0  0  0  0  0  0  0  0  0
    3.5567   -2.1572   -2.7168 N   0  0  0  0  0  0  0  0  0  0  0  0
    3.0553   -1.7025   -1.5777 C   0  0  0  0  0  0  0  0  0  0  0  0
    2.5241   -2.7326   -0.6676 C   0  0  0  0  0  0  0  0  0  0  0  0
    2.0770   -3.9833   -1.0537 C   0  0  0  0  0  0  0  0  0  0  0  0
    1.7052   -4.8119    0.0382 C   0  0  0  0  0  0  0  0  0  0  0  0
    1.8910   -4.1984    1.2547 C   0  0  0  0  0  0  0  0  0  0  0  0
    2.5160   -2.6022    1.0776 S   0  0  0  0  0  0  0  0  0  0  0  0
    1.4919   -0.2587    0.2723 H   0  0  0  0  0  0  0  0  0  0  0  0
    4.9477    2.0499   -3.8548 H   0  0  0  0  0  0  0  0  0  0  0  0
    5.9121    1.2010   -6.0111 H   0  0  0  0  0  0  0  0  0  0  0  0
    5.7112   -1.2108   -6.6055 H   0  0  0  0  0  0  0  0  0  0  0  0
    4.5774   -2.8084   -5.0471 H   0  0  0  0  0  0  0  0  0  0  0  0
    2.0319   -4.2745   -2.1027 H   0  0  0  0  0  0  0  0  0  0  0  0
    1.3162   -5.8256   -0.0685 H   0  0  0  0  0  0  0  0  0  0  0  0
    1.6941   -4.5958    2.2496 H   0  0  0  0  0  0  0  0  0  0  0  0
  1  2  2  0
  2  3  1  0
  2 18  1  0
  3  4  2  0
  3 12  1  0
  4  5  1  0
  5  6  2  0
  5 10  1  0
  6  7  1  0
  6 19  1  0
  7  8  2  0
  7 20  1  0
  8  9  1  0
  8 21  1  0
  9 10  2  0
  9 22  1  0
 10 11  1  0
 11 12  2  0
 12 13  1  0
 13 14  2  0
 13 17  1  0
 14 15  1  0
 14 23  1  0
 15 16  2  0
 15 24  1  0
 16 17  1  0
 16 25  1  0
M  END

