
     RDKit          3D

 92 97  0  0  0  0  0  0  0  0999 V2000
    0.7915  -10.9334   10.3147 C   0  0  0  0  0  0  0  0  0  0  0  0
    1.8543  -11.7514    9.8813 O   0  0  0  0  0  0  0  0  0  0  0  0
    2.2892  -11.6527    8.5995 C   0  0  0  0  0  0  0  0  0  0  0  0
    3.3613  -12.4892    8.2425 C   0  0  0  0  0  0  0  0  0  0  0  0
    3.8795  -12.4504    6.9521 C   0  0  0  0  0  0  0  0  0  0  0  0
    3.3437  -11.5902    5.9789 C   0  0  0  0  0  0  0  0  0  0  0  0
    3.8764  -11.6085    4.5602 C   0  0  0  0  0  0  0  0  0  0  0  0
    3.7210  -10.3827    3.8622 O   0  0  0  0  0  0  0  0  0  0  0  0
    4.5577   -9.3310    4.0982 C   0  0  0  0  0  0  0  0  0  0  0  0
    5.5880   -9.3611    5.0518 C   0  0  0  0  0  0  0  0  0  0  0  0
    6.3957   -8.2365    5.2120 C   0  0  0  0  0  0  0  0  0  0  0  0
    6.2032   -7.0853    4.4478 C   0  0  0  0  0  0  0  0  0  0  0  0
    5.1661   -7.0551    3.5005 C   0  0  0  0  0  0  0  0  0  0  0  0
    4.9276   -5.9983    2.6889 O   0  0  0  0  0  0  0  0  0  0  0  0
    5.6711   -4.7987    2.8381 C   0  0  0  0  0  0  0  0  0  0  0  0
    5.1388   -3.7842    1.8634 C   0  0  1  0  0  0  0  0  0  0  0  0
    6.0503   -2.6996    1.3447 C   0  0  0  0  0  0  0  0  0  0  0  0
    5.5916   -3.8038    0.4271 C   0  0  0  0  0  0  0  0  0  0  0  0
    4.3218   -8.1759    3.3230 C   0  0  0  0  0  0  0  0  0  0  0  0
    3.2017   -8.1287    2.3357 C   0  0  0  0  0  0  0  0  0  0  0  0
    3.1389   -9.0399    1.2719 C   0  0  0  0  0  0  0  0  0  0  0  0
    2.0929   -8.9894    0.3388 C   0  0  0  0  0  0  0  0  0  0  0  0
    1.9761   -9.9639   -0.8318 C   0  0  1  0  0  0  0  0  0  0  0  0
    3.2668  -10.7184   -1.2316 C   0  0  0  0  0  0  0  0  0  0  0  0
    3.5964  -11.9608   -0.3887 C   0  0  0  0  0  0  0  0  0  0  0  0
    2.4298  -12.8181   -0.2229 N   0  0  0  0  0  0  0  0  0  0  0  0
    2.5387  -14.1608   -0.4811 C   0  0  0  0  0  0  0  0  0  0  0  0
    3.5591  -14.6923   -0.8810 O   0  0  0  0  0  0  0  0  0  0  0  0
    1.3759  -14.8066   -0.2375 O   0  0  0  0  0  0  0  0  0  0  0  0
    1.2372  -16.2500   -0.4422 C   0  0  1  0  0  0  0  0  0  0  0  0
    2.1927  -17.0076    0.4863 C   0  0  0  0  0  0  0  0  0  0  0  0
   -0.2181  -16.5116   -0.0478 C   0  0  0  0  0  0  0  0  0  0  0  0
    1.4674  -16.6003   -1.9165 C   0  0  0  0  0  0  0  0  0  0  0  0
    1.2403  -12.1517    0.2943 C   0  0  0  0  0  0  0  0  0  0  0  0
    0.8339  -10.9951   -0.6222 C   0  0  0  0  0  0  0  0  0  0  0  0
    1.1305   -7.9725    0.5075 C   0  0  0  0  0  0  0  0  0  0  0  0
    1.2827   -7.1267    1.6202 C   0  0  0  0  0  0  0  0  0  0  0  0
    2.2638   -7.1896    2.5108 N   0  0  0  0  0  0  0  0  0  0  0  0
    0.3398   -6.1049    1.8346 N   0  0  0  0  0  0  0  0  0  0  0  0
   -0.9049   -6.0072    1.2781 C   0  0  0  0  0  0  0  0  0  0  0  0
   -1.6781   -5.1225    1.6246 O   0  0  0  0  0  0  0  0  0  0  0  0
   -1.2406   -7.1189    0.2785 C   0  0  1  0  0  0  0  0  0  0  0  0
   -2.3672   -6.8286   -0.7450 C   0  0  0  0  0  0  0  0  0  0  0  0
   -3.3164   -5.9497   -0.3543 N   0  0  0  0  0  0  0  0  0  0  0  0
   -2.3891   -7.4312   -1.8059 O   0  0  0  0  0  0  0  0  0  0  0  0
    0.0079   -7.6446   -0.4472 C   0  0  0  0  0  0  0  0  0  0  0  0
    2.2762  -10.7639    6.3428 C   0  0  0  0  0  0  0  0  0  0  0  0
    1.7492  -10.7838    7.6389 C   0  0  0  0  0  0  0  0  0  0  0  0
    0.6181  -11.1787   11.3712 H   0  0  0  0  0  0  0  0  0  0  0  0
   -0.1365  -11.1271    9.7466 H   0  0  0  0  0  0  0  0  0  0  0  0
    1.0384   -9.8593   10.2333 H   0  0  0  0  0  0  0  0  0  0  0  0
    3.7759  -13.1545    9.0026 H   0  0  0  0  0  0  0  0  0  0  0  0
    4.7201  -13.1035    6.6972 H   0  0  0  0  0  0  0  0  0  0  0  0
    3.3080  -12.3335    3.9538 H   0  0  0  0  0  0  0  0  0  0  0  0
    4.9309  -11.9372    4.5456 H   0  0  0  0  0  0  0  0  0  0  0  0
    5.7453  -10.2365    5.6790 H   0  0  0  0  0  0  0  0  0  0  0  0
    7.1967   -8.2568    5.9554 H   0  0  0  0  0  0  0  0  0  0  0  0
    6.8586   -6.2273    4.5886 H   0  0  0  0  0  0  0  0  0  0  0  0
    6.7452   -4.9858    2.6451 H   0  0  0  0  0  0  0  0  0  0  0  0
    5.5791   -4.4265    3.8759 H   0  0  0  0  0  0  0  0  0  0  0  0
    4.0943   -3.5081    2.0439 H   0  0  0  0  0  0  0  0  0  0  0  0
    7.0949   -2.7031    1.6721 H   0  0  0  0  0  0  0  0  0  0  0  0
    5.6320   -1.6983    1.2108 H   0  0  0  0  0  0  0  0  0  0  0  0
    6.3200   -4.5661    0.1342 H   0  0  0  0  0  0  0  0  0  0  0  0
    4.8566   -3.5682   -0.3473 H   0  0  0  0  0  0  0  0  0  0  0  0
    3.9280   -9.7821    1.1896 H   0  0  0  0  0  0  0  0  0  0  0  0
    1.6945   -9.3524   -1.7041 H   0  0  0  0  0  0  0  0  0  0  0  0
    4.1308  -10.0345   -1.2279 H   0  0  0  0  0  0  0  0  0  0  0  0
    3.1370  -11.0519   -2.2748 H   0  0  0  0  0  0  0  0  0  0  0  0
    3.9761  -11.6776    0.6096 H   0  0  0  0  0  0  0  0  0  0  0  0
    4.3802  -12.5543   -0.8748 H   0  0  0  0  0  0  0  0  0  0  0  0
    2.0216  -16.7132    1.5339 H   0  0  0  0  0  0  0  0  0  0  0  0
    3.2385  -16.8022    0.2262 H   0  0  0  0  0  0  0  0  0  0  0  0
    2.0109  -18.0907    0.4032 H   0  0  0  0  0  0  0  0  0  0  0  0
   -0.3951  -16.2188    0.9984 H   0  0  0  0  0  0  0  0  0  0  0  0
   -0.4561  -17.5808   -0.1554 H   0  0  0  0  0  0  0  0  0  0  0  0
   -0.9035  -15.9363   -0.6887 H   0  0  0  0  0  0  0  0  0  0  0  0
    2.5052  -16.4022   -2.2119 H   0  0  0  0  0  0  0  0  0  0  0  0
    0.7958  -16.0096   -2.5593 H   0  0  0  0  0  0  0  0  0  0  0  0
    1.2471  -17.6665   -2.0831 H   0  0  0  0  0  0  0  0  0  0  0  0
    1.4499  -11.7703    1.3130 H   0  0  0  0  0  0  0  0  0  0  0  0
    0.4296  -12.8825    0.3747 H   0  0  0  0  0  0  0  0  0  0  0  0
   -0.0637  -10.5067   -0.2135 H   0  0  0  0  0  0  0  0  0  0  0  0
    0.5533  -11.4128   -1.6040 H   0  0  0  0  0  0  0  0  0  0  0  0
    0.5518   -5.4602    2.5925 H   0  0  0  0  0  0  0  0  0  0  0  0
   -1.6394   -7.9360    0.9143 H   0  0  0  0  0  0  0  0  0  0  0  0
   -3.1416   -5.3717    0.4687 H   0  0  0  0  0  0  0  0  0  0  0  0
   -4.0461   -5.7247   -1.0204 H   0  0  0  0  0  0  0  0  0  0  0  0
    0.3525   -6.8688   -1.1579 H   0  0  0  0  0  0  0  0  0  0  0  0
   -0.2967   -8.4926   -1.0676 H   0  0  0  0  0  0  0  0  0  0  0  0
    1.8519  -10.0811    5.6030 H   0  0  0  0  0  0  0  0  0  0  0  0
    0.9218  -10.1180    7.8857 H   0  0  0  0  0  0  0  0  0  0  0  0
  1  2  1  0
  1 49  1  0
  1 50  1  0
  1 51  1  0
  2  3  1  0
  3  4  2  0
  3 48  1  0
  4  5  1  0
  4 52  1  0
  5  6  2  0
  5 53  1  0
  6  7  1  0
  6 47  1  0
  7  8  1  0
  7 54  1  0
  7 55  1  0
  8  9  1  0
  9 10  2  0
  9 19  1  0
 10 11  1  0
 10 56  1  0
 11 12  2  0
 11 57  1  0
 12 13  1  0
 12 58  1  0
 13 14  1  0
 13 19  2  0
 14 15  1  0
 15 16  1  0
 15 59  1  0
 15 60  1  0
 16 17  1  0
 16 18  1  0
 16 61  1  6
 17 18  1  0
 17 62  1  0
 17 63  1  0
 18 64  1  0
 18 65  1  0
 19 20  1  0
 20 21  2  0
 20 38  1  0
 21 22  1  0
 21 66  1  0
 22 23  1  0
 22 36  2  0
 23 24  1  0
 23 35  1  0
 23 67  1  6
 24 25  1  0
 24 68  1  0
 24 69  1  0
 25 26  1  0
 25 70  1  0
 25 71  1  0
 26 27  1  0
 26 34  1  0
 27 28  2  0
 27 29  1  0
 30 29  1  6
 30 31  1  0
 30 32  1  0
 30 33  1  0
 31 72  1  0
 31 73  1  0
 31 74  1  0
 32 75  1  0
 32 76  1  0
 32 77  1  0
 33 78  1  0
 33 79  1  0
 33 80  1  0
 34 35  1  0
 34 81  1  0
 34 82  1  0
 35 83  1  0
 35 84  1  0
 36 37  1  0
 36 46  1  0
 37 38  2  0
 37 39  1  0
 39 40  1  0
 39 85  1  0
 40 41  2  0
 40 42  1  0
 42 43  1  0
 42 46  1  0
 42 86  1  1
 43 44  1  0
 43 45  2  0
 44 87  1  0
 44 88  1  0
 46 89  1  0
 46 90  1  0
 47 48  2  0
 47 91  1  0
 48 92  1  0
M  END

