
     RDKit          3D

 52 52  0  0  0  0  0  0  0  0999 V2000
    1.7169    0.1294    1.3866 C   0  0  0  0  0  0  0  0  0  0  0  0
    2.7257    0.1243    0.2384 C   0  0  0  0  0  0  0  0  0  0  0  0
    3.3553   -1.2463   -0.0135 C   0  0  0  0  0  0  0  0  0  0  0  0
    4.2802   -1.2055   -1.1286 N   0  0  0  0  0  0  0  0  0  0  0  0
    4.8779   -2.4561   -1.5911 C   0  0  1  0  0  0  0  0  0  0  0  0
    4.4848   -2.7193   -3.0653 C   0  0  0  0  0  0  0  0  0  0  0  0
    4.9031   -1.6418   -4.0809 C   0  0  0  0  0  0  0  0  0  0  0  0
    4.3172   -1.8677   -5.4571 C   0  0  0  0  0  0  0  0  0  0  0  0
    2.9897   -1.5019   -5.7526 C   0  0  0  0  0  0  0  0  0  0  0  0
    2.4309   -1.7309   -7.0055 C   0  0  0  0  0  0  0  0  0  0  0  0
    3.1895   -2.3420   -8.0191 C   0  0  0  0  0  0  0  0  0  0  0  0
    2.5619   -2.5243   -9.2133 O   0  0  0  0  0  0  0  0  0  0  0  0
    3.2689   -3.1180  -10.2750 C   0  0  0  0  0  0  0  0  0  0  0  0
    4.5136   -2.7131   -7.7495 C   0  0  0  0  0  0  0  0  0  0  0  0
    5.0563   -2.4730   -6.4798 C   0  0  0  0  0  0  0  0  0  0  0  0
    6.4084   -2.5202   -1.2675 C   0  0  1  0  0  0  0  0  0  0  0  0
    6.6109   -2.6083    0.2569 C   0  0  0  0  0  0  0  0  0  0  0  0
    7.0832   -3.7211   -1.9459 C   0  0  0  0  0  0  0  0  0  0  0  0
    6.9329   -1.2738   -1.7590 O   0  0  0  0  0  0  0  0  0  0  0  0
    8.3267   -1.0394   -1.7387 C   0  0  0  0  0  0  0  0  0  0  0  0
    8.5718    0.4066   -2.1360 C   0  0  0  0  0  0  0  0  0  0  0  0
    1.2878    1.1320    1.5405 H   0  0  0  0  0  0  0  0  0  0  0  0
    2.1830   -0.1812    2.3369 H   0  0  0  0  0  0  0  0  0  0  0  0
    0.8802   -0.5620    1.1893 H   0  0  0  0  0  0  0  0  0  0  0  0
    3.5306    0.8528    0.4508 H   0  0  0  0  0  0  0  0  0  0  0  0
    2.2494    0.4644   -0.6968 H   0  0  0  0  0  0  0  0  0  0  0  0
    2.5529   -1.9692   -0.2504 H   0  0  0  0  0  0  0  0  0  0  0  0
    3.8131   -1.6089    0.9374 H   0  0  0  0  0  0  0  0  0  0  0  0
    4.9919   -0.4858   -1.0271 H   0  0  0  0  0  0  0  0  0  0  0  0
    4.4326   -3.2861   -1.0134 H   0  0  0  0  0  0  0  0  0  0  0  0
    3.3836   -2.7895   -3.0768 H   0  0  0  0  0  0  0  0  0  0  0  0
    4.8480   -3.7071   -3.3954 H   0  0  0  0  0  0  0  0  0  0  0  0
    5.9999   -1.5937   -4.1475 H   0  0  0  0  0  0  0  0  0  0  0  0
    4.5717   -0.6683   -3.6858 H   0  0  0  0  0  0  0  0  0  0  0  0
    2.3831   -1.0198   -4.9798 H   0  0  0  0  0  0  0  0  0  0  0  0
    1.4027   -1.4403   -7.2321 H   0  0  0  0  0  0  0  0  0  0  0  0
    2.5779   -3.1630  -11.1280 H   0  0  0  0  0  0  0  0  0  0  0  0
    3.5996   -4.1445  -10.0308 H   0  0  0  0  0  0  0  0  0  0  0  0
    4.1552   -2.5240  -10.5658 H   0  0  0  0  0  0  0  0  0  0  0  0
    5.1327   -3.1840   -8.5136 H   0  0  0  0  0  0  0  0  0  0  0  0
    6.0938   -2.7652   -6.2896 H   0  0  0  0  0  0  0  0  0  0  0  0
    6.1630   -3.5318    0.6545 H   0  0  0  0  0  0  0  0  0  0  0  0
    6.1444   -1.7525    0.7650 H   0  0  0  0  0  0  0  0  0  0  0  0
    7.6789   -2.6222    0.5227 H   0  0  0  0  0  0  0  0  0  0  0  0
    6.5415   -4.6494   -1.7065 H   0  0  0  0  0  0  0  0  0  0  0  0
    8.1188   -3.8478   -1.5942 H   0  0  0  0  0  0  0  0  0  0  0  0
    7.1057   -3.6104   -3.0391 H   0  0  0  0  0  0  0  0  0  0  0  0
    8.8507   -1.7157   -2.4419 H   0  0  0  0  0  0  0  0  0  0  0  0
    8.7513   -1.2294   -0.7340 H   0  0  0  0  0  0  0  0  0  0  0  0
    8.1595    0.6097   -3.1364 H   0  0  0  0  0  0  0  0  0  0  0  0
    9.6516    0.6237   -2.1537 H   0  0  0  0  0  0  0  0  0  0  0  0
    8.0907    1.0944   -1.4232 H   0  0  0  0  0  0  0  0  0  0  0  0
  1  2  1  0
  1 22  1  0
  1 23  1  0
  1 24  1  0
  2  3  1  0
  2 25  1  0
  2 26  1  0
  3  4  1  0
  3 27  1  0
  3 28  1  0
  4  5  1  0
  4 29  1  0
  5  6  1  0
  5 16  1  0
  5 30  1  1
  6  7  1  0
  6 31  1  0
  6 32  1  0
  7  8  1  0
  7 33  1  0
  7 34  1  0
  8  9  2  0
  8 15  1  0
  9 10  1  0
  9 35  1  0
 10 11  2  0
 10 36  1  0
 11 12  1  0
 11 14  1  0
 12 13  1  0
 13 37  1  0
 13 38  1  0
 13 39  1  0
 14 15  2  0
 14 40  1  0
 15 41  1  0
 16 17  1  0
 16 18  1  0
 16 19  1  6
 17 42  1  0
 17 43  1  0
 17 44  1  0
 18 45  1  0
 18 46  1  0
 18 47  1  0
 19 20  1  0
 20 21  1  0
 20 48  1  0
 20 49  1  0
 21 50  1  0
 21 51  1  0
 21 52  1  0
M  END

