
     RDKit          3D

 30 30  0  0  0  0  0  0  0  0999 V2000
    2.9150   -0.5912    1.3544 C   0  0  0  0  0  0  0  0  0  0  0  0
    2.4677   -0.0863   -0.0231 C   0  0  1  0  0  0  0  0  0  0  0  0
    2.9419    1.2807   -0.2187 N   0  0  0  0  0  0  0  0  0  0  0  0
    2.4261    1.9749   -1.3886 C   0  0  0  0  0  0  0  0  0  0  0  0
    2.8878    3.4350   -1.3812 C   0  0  0  0  0  0  0  0  0  0  0  0
    2.4766    4.1842   -2.5596 N   0  0  0  0  0  0  0  0  0  0  0  0
    1.0555    4.4710   -2.5982 C   0  0  0  0  0  0  0  0  0  0  0  0
    3.2701    5.3794   -2.7666 C   0  0  0  0  0  0  0  0  0  0  0  0
    2.9282   -1.0355   -1.1193 C   0  0  0  0  0  0  0  0  0  0  0  0
    2.1382   -1.8248   -1.9178 C   0  0  0  0  0  0  0  0  0  0  0  0
    3.1157   -2.7293   -3.0258 S   0  0  0  0  0  0  0  0  0  0  0  0
    4.5242   -1.9689   -2.3358 C   0  0  0  0  0  0  0  0  0  0  0  0
    4.2792   -1.1307   -1.3755 N   0  0  0  0  0  0  0  0  0  0  0  0
    2.5894    0.1135    2.1339 H   0  0  0  0  0  0  0  0  0  0  0  0
    4.0132   -0.6725    1.3917 H   0  0  0  0  0  0  0  0  0  0  0  0
    2.4971   -1.5870    1.5683 H   0  0  0  0  0  0  0  0  0  0  0  0
    1.3645   -0.0594   -0.0471 H   0  0  0  0  0  0  0  0  0  0  0  0
    3.9628    1.2627   -0.2483 H   0  0  0  0  0  0  0  0  0  0  0  0
    1.3243    1.9252   -1.3471 H   0  0  0  0  0  0  0  0  0  0  0  0
    2.7228    1.5218   -2.3585 H   0  0  0  0  0  0  0  0  0  0  0  0
    3.9913    3.4395   -1.3514 H   0  0  0  0  0  0  0  0  0  0  0  0
    2.5515    3.9131   -0.4320 H   0  0  0  0  0  0  0  0  0  0  0  0
    0.4647    3.5448   -2.5413 H   0  0  0  0  0  0  0  0  0  0  0  0
    0.7972    4.9661   -3.5480 H   0  0  0  0  0  0  0  0  0  0  0  0
    0.7196    5.1369   -1.7679 H   0  0  0  0  0  0  0  0  0  0  0  0
    4.3395    5.1219   -2.8278 H   0  0  0  0  0  0  0  0  0  0  0  0
    3.1516    6.1387   -1.9573 H   0  0  0  0  0  0  0  0  0  0  0  0
    2.9862    5.8624   -3.7157 H   0  0  0  0  0  0  0  0  0  0  0  0
    1.0536   -1.9191   -1.9116 H   0  0  0  0  0  0  0  0  0  0  0  0
    5.5231   -2.2049   -2.7108 H   0  0  0  0  0  0  0  0  0  0  0  0
  1  2  1  0
  1 14  1  0
  1 15  1  0
  1 16  1  0
  2  3  1  0
  2  9  1  0
  2 17  1  1
  3  4  1  0
  3 18  1  0
  4  5  1  0
  4 19  1  0
  4 20  1  0
  5  6  1  0
  5 21  1  0
  5 22  1  0
  6  7  1  0
  6  8  1  0
  7 23  1  0
  7 24  1  0
  7 25  1  0
  8 26  1  0
  8 27  1  0
  8 28  1  0
  9 10  2  0
  9 13  1  0
 10 11  1  0
 10 29  1  0
 11 12  1  0
 12 13  2  0
 12 30  1  0
M  END

