
     RDKit          3D

 42 45  0  0  0  0  0  0  0  0999 V2000
    4.8296   -6.1870    6.3921 C   0  0  0  0  0  0  0  0  0  0  0  0
    4.3533   -5.5591    5.2210 O   0  0  0  0  0  0  0  0  0  0  0  0
    5.1565   -4.6261    4.6638 C   0  0  0  0  0  0  0  0  0  0  0  0
    4.9084   -4.1182    3.4421 C   0  0  0  0  0  0  0  0  0  0  0  0
    5.6880   -3.0672    2.7755 C   0  0  0  0  0  0  0  0  0  0  0  0
    6.5737   -2.2277    3.4862 C   0  0  0  0  0  0  0  0  0  0  0  0
    7.3370   -1.2551    2.8452 C   0  0  0  0  0  0  0  0  0  0  0  0
    7.2267   -1.0785    1.4626 C   0  0  0  0  0  0  0  0  0  0  0  0
    6.3425   -1.8830    0.7420 C   0  0  0  0  0  0  0  0  0  0  0  0
    5.5704   -2.8719    1.3719 C   0  0  0  0  0  0  0  0  0  0  0  0
    4.6634   -3.7177    0.5293 C   0  0  0  0  0  0  0  0  0  0  0  0
    5.1756   -4.7842   -0.1581 C   0  0  0  0  0  0  0  0  0  0  0  0
    4.3687   -5.6214   -0.9989 C   0  0  0  0  0  0  0  0  0  0  0  0
    4.9411   -6.7184   -1.6903 C   0  0  0  0  0  0  0  0  0  0  0  0
    4.1698   -7.5323   -2.5000 C   0  0  0  0  0  0  0  0  0  0  0  0
    2.7922   -7.2688   -2.6401 C   0  0  0  0  0  0  0  0  0  0  0  0
    2.2120   -6.2017   -1.9733 C   0  0  0  0  0  0  0  0  0  0  0  0
    2.9753   -5.3487   -1.1380 C   0  0  0  0  0  0  0  0  0  0  0  0
    2.4076   -4.2120   -0.4209 C   0  0  0  0  0  0  0  0  0  0  0  0
    1.0359   -3.8689   -0.5134 C   0  0  0  0  0  0  0  0  0  0  0  0
    0.5093   -2.7841    0.1676 C   0  0  0  0  0  0  0  0  0  0  0  0
    1.3421   -1.9877    0.9763 C   0  0  0  0  0  0  0  0  0  0  0  0
    2.6867   -2.2944    1.0885 C   0  0  0  0  0  0  0  0  0  0  0  0
    3.2510   -3.4018    0.4048 C   0  0  0  0  0  0  0  0  0  0  0  0
    4.0305   -6.8483    6.7535 H   0  0  0  0  0  0  0  0  0  0  0  0
    5.0657   -5.4507    7.1829 H   0  0  0  0  0  0  0  0  0  0  0  0
    5.7314   -6.7946    6.1923 H   0  0  0  0  0  0  0  0  0  0  0  0
    6.0133   -4.3125    5.2746 H   0  0  0  0  0  0  0  0  0  0  0  0
    4.0611   -4.5428    2.8987 H   0  0  0  0  0  0  0  0  0  0  0  0
    6.6516   -2.3291    4.5711 H   0  0  0  0  0  0  0  0  0  0  0  0
    8.0119   -0.6238    3.4293 H   0  0  0  0  0  0  0  0  0  0  0  0
    7.8170   -0.3145    0.9507 H   0  0  0  0  0  0  0  0  0  0  0  0
    6.2412   -1.7486   -0.3381 H   0  0  0  0  0  0  0  0  0  0  0  0
    6.2391   -5.0207   -0.0663 H   0  0  0  0  0  0  0  0  0  0  0  0
    6.0108   -6.9119   -1.5712 H   0  0  0  0  0  0  0  0  0  0  0  0
    4.6235   -8.3748   -3.0280 H   0  0  0  0  0  0  0  0  0  0  0  0
    2.1766   -7.9087   -3.2775 H   0  0  0  0  0  0  0  0  0  0  0  0
    1.1437   -6.0244   -2.1020 H   0  0  0  0  0  0  0  0  0  0  0  0
    0.3701   -4.4681   -1.1353 H   0  0  0  0  0  0  0  0  0  0  0  0
   -0.5536   -2.5475    0.0742 H   0  0  0  0  0  0  0  0  0  0  0  0
    0.9293   -1.1300    1.5132 H   0  0  0  0  0  0  0  0  0  0  0  0
    3.3351   -1.6775    1.7127 H   0  0  0  0  0  0  0  0  0  0  0  0
  1  2  1  0
  1 25  1  0
  1 26  1  0
  1 27  1  0
  2  3  1  0
  3  4  2  0
  3 28  1  0
  4  5  1  0
  4 29  1  0
  5  6  2  0
  5 10  1  0
  6  7  1  0
  6 30  1  0
  7  8  2  0
  7 31  1  0
  8  9  1  0
  8 32  1  0
  9 10  2  0
  9 33  1  0
 10 11  1  0
 11 12  2  0
 11 24  1  0
 12 13  1  0
 12 34  1  0
 13 14  2  0
 13 18  1  0
 14 15  1  0
 14 35  1  0
 15 16  2  0
 15 36  1  0
 16 17  1  0
 16 37  1  0
 17 18  2  0
 17 38  1  0
 18 19  1  0
 19 20  1  0
 19 24  2  0
 20 21  2  0
 20 39  1  0
 21 22  1  0
 21 40  1  0
 22 23  2  0
 22 41  1  0
 23 24  1  0
 23 42  1  0
M  END

