
     RDKit          3D

 31 31  0  0  0  0  0  0  0  0999 V2000
    1.4850   -0.6325   -0.9916 C   0  0  0  0  0  0  0  0  0  0  0  0
    2.4318   -0.1232   -0.1060 C   0  0  0  0  0  0  0  0  0  0  0  0
    2.7408   -0.8197    1.0939 C   0  0  0  0  0  0  0  0  0  0  0  0
    3.7635   -0.3486    2.1107 C   0  0  0  0  0  0  0  0  0  0  0  0
    2.1840   -1.9235    1.4276 O   0  0  0  0  0  0  0  0  0  0  0  0
    3.1325    1.1552   -0.4168 C   0  0  0  0  0  0  0  0  0  0  0  0
    2.6477    2.3880    0.0531 C   0  0  0  0  0  0  0  0  0  0  0  0
    3.2821    3.5870   -0.2759 C   0  0  0  0  0  0  0  0  0  0  0  0
    4.4252    3.5742   -1.0913 C   0  0  0  0  0  0  0  0  0  0  0  0
    5.1008    4.6910   -1.4589 O   0  0  0  0  0  0  0  0  0  0  0  0
    4.6624    5.9575   -1.0156 C   0  0  0  0  0  0  0  0  0  0  0  0
    4.9470    2.3479   -1.5805 C   0  0  0  0  0  0  0  0  0  0  0  0
    6.1655    2.3370   -2.4756 C   0  0  0  0  0  0  0  0  0  0  0  0
    5.8651    2.7236   -3.9327 C   0  0  0  0  0  0  0  0  0  0  0  0
    4.2870    1.1715   -1.2282 C   0  0  0  0  0  0  0  0  0  0  0  0
    0.9673   -1.5694   -0.7789 H   0  0  0  0  0  0  0  0  0  0  0  0
    1.2394   -0.1031   -1.9125 H   0  0  0  0  0  0  0  0  0  0  0  0
    4.1976    0.5994    1.7611 H   0  0  0  0  0  0  0  0  0  0  0  0
    4.5585   -1.1031    2.2348 H   0  0  0  0  0  0  0  0  0  0  0  0
    3.2892   -0.2043    3.0958 H   0  0  0  0  0  0  0  0  0  0  0  0
    1.7544    2.4059    0.6821 H   0  0  0  0  0  0  0  0  0  0  0  0
    2.8779    4.5262    0.1018 H   0  0  0  0  0  0  0  0  0  0  0  0
    5.3599    6.6935   -1.4370 H   0  0  0  0  0  0  0  0  0  0  0  0
    4.6810    6.0344    0.0859 H   0  0  0  0  0  0  0  0  0  0  0  0
    3.6421    6.1841   -1.3722 H   0  0  0  0  0  0  0  0  0  0  0  0
    6.6120    1.3299   -2.4488 H   0  0  0  0  0  0  0  0  0  0  0  0
    6.9186    3.0318   -2.0695 H   0  0  0  0  0  0  0  0  0  0  0  0
    5.1368    2.0322   -4.3858 H   0  0  0  0  0  0  0  0  0  0  0  0
    6.7831    2.6958   -4.5417 H   0  0  0  0  0  0  0  0  0  0  0  0
    5.4502    3.7411   -3.9925 H   0  0  0  0  0  0  0  0  0  0  0  0
    4.6760    0.2188   -1.5981 H   0  0  0  0  0  0  0  0  0  0  0  0
  1  2  2  0
  1 16  1  0
  1 17  1  0
  2  3  1  0
  2  6  1  0
  3  4  1  0
  3  5  2  0
  4 18  1  0
  4 19  1  0
  4 20  1  0
  6  7  2  0
  6 15  1  0
  7  8  1  0
  7 21  1  0
  8  9  2  0
  8 22  1  0
  9 10  1  0
  9 12  1  0
 10 11  1  0
 11 23  1  0
 11 24  1  0
 11 25  1  0
 12 13  1  0
 12 15  2  0
 13 14  1  0
 13 26  1  0
 13 27  1  0
 14 28  1  0
 14 29  1  0
 14 30  1  0
 15 31  1  0
M  END

