
     RDKit          3D

 37 38  0  0  0  0  0  0  0  0999 V2000
    4.5534    1.3234    4.1868 C   0  0  0  0  0  0  0  0  0  0  0  0
    5.1929    1.1347    3.0286 C   0  0  0  0  0  0  0  0  0  0  0  0
    5.2252   -0.1604    2.2645 C   0  0  0  0  0  0  0  0  0  0  0  0
    4.5482   -0.1069    0.8811 C   0  0  2  0  0  0  0  0  0  0  0  0
    3.4891    0.1518    1.0722 H   0  0  0  0  0  0  0  0  0  0  0  0
    4.5524   -1.4799    0.1753 C   0  0  0  0  0  0  0  0  0  0  0  0
    3.7433   -1.4218   -1.1285 C   0  0  0  0  0  0  0  0  0  0  0  0
    4.2009   -0.2568   -2.0157 C   0  0  0  0  0  0  0  0  0  0  0  0
    4.2407    1.0563   -1.2146 C   0  0  0  0  0  0  0  0  0  0  0  0
    5.0448    0.9707    0.0075 N   0  0  0  0  0  0  0  0  0  0  0  0
    6.4799    1.0392   -0.2315 C   0  0  0  0  0  0  0  0  0  0  0  0
    6.9590    2.4213   -0.6546 C   0  0  0  0  0  0  0  0  0  0  0  0
    6.3521    3.5856   -0.1586 C   0  0  0  0  0  0  0  0  0  0  0  0
    6.8384    4.8482   -0.5081 C   0  0  0  0  0  0  0  0  0  0  0  0
    7.9411    4.9692   -1.3599 C   0  0  0  0  0  0  0  0  0  0  0  0
    8.5496    3.8164   -1.8643 C   0  0  0  0  0  0  0  0  0  0  0  0
    8.0579    2.5546   -1.5162 C   0  0  0  0  0  0  0  0  0  0  0  0
    4.5645    2.2911    4.6965 H   0  0  0  0  0  0  0  0  0  0  0  0
    3.9944    0.5159    4.6729 H   0  0  0  0  0  0  0  0  0  0  0  0
    5.7349    1.9760    2.5819 H   0  0  0  0  0  0  0  0  0  0  0  0
    4.7156   -0.9440    2.8490 H   0  0  0  0  0  0  0  0  0  0  0  0
    6.2711   -0.5025    2.1545 H   0  0  0  0  0  0  0  0  0  0  0  0
    4.1370   -2.2492    0.8486 H   0  0  0  0  0  0  0  0  0  0  0  0
    5.5948   -1.7812   -0.0370 H   0  0  0  0  0  0  0  0  0  0  0  0
    2.6748   -1.2858   -0.8769 H   0  0  0  0  0  0  0  0  0  0  0  0
    3.8134   -2.3786   -1.6727 H   0  0  0  0  0  0  0  0  0  0  0  0
    3.5313   -0.1421   -2.8851 H   0  0  0  0  0  0  0  0  0  0  0  0
    5.2032   -0.4738   -2.4260 H   0  0  0  0  0  0  0  0  0  0  0  0
    3.2102    1.3327   -0.9241 H   0  0  0  0  0  0  0  0  0  0  0  0
    4.6238    1.8806   -1.8358 H   0  0  0  0  0  0  0  0  0  0  0  0
    6.8459    0.3023   -0.9786 H   0  0  0  0  0  0  0  0  0  0  0  0
    6.9992    0.7797    0.7049 H   0  0  0  0  0  0  0  0  0  0  0  0
    5.4822    3.4843    0.4941 H   0  0  0  0  0  0  0  0  0  0  0  0
    6.3517    5.7445   -0.1138 H   0  0  0  0  0  0  0  0  0  0  0  0
    8.3204    5.9571   -1.6340 H   0  0  0  0  0  0  0  0  0  0  0  0
    9.4071    3.8986   -2.5376 H   0  0  0  0  0  0  0  0  0  0  0  0
    8.5352    1.6571   -1.9220 H   0  0  0  0  0  0  0  0  0  0  0  0
  1  2  2  0
  1 18  1  0
  1 19  1  0
  2  3  1  0
  2 20  1  0
  3  4  1  0
  3 21  1  0
  3 22  1  0
  4  5  1  1
  4  6  1  0
  4 10  1  0
  6  7  1  0
  6 23  1  0
  6 24  1  0
  7  8  1  0
  7 25  1  0
  7 26  1  0
  8  9  1  0
  8 27  1  0
  8 28  1  0
  9 10  1  0
  9 29  1  0
  9 30  1  0
 10 11  1  0
 11 12  1  0
 11 31  1  0
 11 32  1  0
 12 13  2  0
 12 17  1  0
 13 14  1  0
 13 33  1  0
 14 15  2  0
 14 34  1  0
 15 16  1  0
 15 35  1  0
 16 17  2  0
 16 36  1  0
 17 37  1  0
M  END

