
     RDKit          3D

 35 35  0  0  0  0  0  0  0  0999 V2000
   10.6158    1.5766   -2.1830 C   0  0  0  0  0  0  0  0  0  0  0  0
    9.7573    0.4714   -2.1864 O   0  0  0  0  0  0  0  0  0  0  0  0
    8.5188    0.7109   -2.8155 C   0  0  0  0  0  0  0  0  0  0  0  0
    7.6602   -0.5429   -2.7431 C   0  0  0  0  0  0  0  0  0  0  0  0
    7.3194   -0.9766   -1.3162 C   0  0  0  0  0  0  0  0  0  0  0  0
    6.5074   -2.2767   -1.2427 C   0  0  0  0  0  0  0  0  0  0  0  0
    7.2114   -3.4280   -1.8008 N   0  0  0  0  0  0  0  0  0  0  0  0
    8.2430   -4.0120   -0.9466 C   0  0  0  0  0  0  0  0  0  0  0  0
    7.6725   -4.9827    0.0956 C   0  0  0  0  0  0  0  0  0  0  0  0
    6.8872   -6.0073   -0.5836 N   0  0  0  0  0  0  0  0  0  0  0  0
    5.7852   -5.4594   -1.3745 C   0  0  2  0  0  0  0  0  0  0  0  0
    5.0202   -6.5854   -2.0618 C   0  0  0  0  0  0  0  0  0  0  0  0
    6.3853   -4.4718   -2.3940 C   0  0  0  0  0  0  0  0  0  0  0  0
   11.5466    1.2830   -1.6750 H   0  0  0  0  0  0  0  0  0  0  0  0
   10.1799    2.4437   -1.6441 H   0  0  0  0  0  0  0  0  0  0  0  0
   10.8681    1.9130   -3.2103 H   0  0  0  0  0  0  0  0  0  0  0  0
    8.6772    1.0041   -3.8756 H   0  0  0  0  0  0  0  0  0  0  0  0
    8.0002    1.5644   -2.3245 H   0  0  0  0  0  0  0  0  0  0  0  0
    8.1819   -1.3679   -3.2541 H   0  0  0  0  0  0  0  0  0  0  0  0
    6.7318   -0.3554   -3.3129 H   0  0  0  0  0  0  0  0  0  0  0  0
    6.7411   -0.1820   -0.8096 H   0  0  0  0  0  0  0  0  0  0  0  0
    8.2562   -1.0780   -0.7440 H   0  0  0  0  0  0  0  0  0  0  0  0
    5.5788   -2.1434   -1.8239 H   0  0  0  0  0  0  0  0  0  0  0  0
    6.1832   -2.4338   -0.1909 H   0  0  0  0  0  0  0  0  0  0  0  0
    8.8124   -3.2097   -0.4532 H   0  0  0  0  0  0  0  0  0  0  0  0
    8.9503   -4.5701   -1.5859 H   0  0  0  0  0  0  0  0  0  0  0  0
    7.0786   -4.4109    0.8459 H   0  0  0  0  0  0  0  0  0  0  0  0
    8.5000   -5.4642    0.6435 H   0  0  0  0  0  0  0  0  0  0  0  0
    6.5370   -6.6934    0.0832 H   0  0  0  0  0  0  0  0  0  0  0  0
    5.0691   -4.8893   -0.7348 H   0  0  0  0  0  0  0  0  0  0  0  0
    5.6895   -7.1545   -2.7269 H   0  0  0  0  0  0  0  0  0  0  0  0
    4.1823   -6.1904   -2.6584 H   0  0  0  0  0  0  0  0  0  0  0  0
    4.5998   -7.2895   -1.3241 H   0  0  0  0  0  0  0  0  0  0  0  0
    5.5811   -4.0062   -2.9863 H   0  0  0  0  0  0  0  0  0  0  0  0
    7.0137   -5.0579   -3.0908 H   0  0  0  0  0  0  0  0  0  0  0  0
  1  2  1  0
  1 14  1  0
  1 15  1  0
  1 16  1  0
  2  3  1  0
  3  4  1  0
  3 17  1  0
  3 18  1  0
  4  5  1  0
  4 19  1  0
  4 20  1  0
  5  6  1  0
  5 21  1  0
  5 22  1  0
  6  7  1  0
  6 23  1  0
  6 24  1  0
  7  8  1  0
  7 13  1  0
  8  9  1  0
  8 25  1  0
  8 26  1  0
  9 10  1  0
  9 27  1  0
  9 28  1  0
 10 11  1  0
 10 29  1  0
 11 12  1  0
 11 13  1  0
 11 30  1  1
 12 31  1  0
 12 32  1  0
 12 33  1  0
 13 34  1  0
 13 35  1  0
M  END

