
     RDKit          3D

 36 38  0  0  0  0  0  0  0  0999 V2000
    1.7066    1.2255    0.4294 C   0  0  0  0  0  0  0  0  0  0  0  0
    2.4358    0.1610   -0.1244 O   0  0  0  0  0  0  0  0  0  0  0  0
    2.9533    0.3070   -1.3762 C   0  0  0  0  0  0  0  0  0  0  0  0
    2.8199    1.4389   -2.1855 C   0  0  0  0  0  0  0  0  0  0  0  0
    3.3909    1.4957   -3.4615 C   0  0  0  0  0  0  0  0  0  0  0  0
    4.1190    0.4090   -3.9723 C   0  0  0  0  0  0  0  0  0  0  0  0
    4.7145    0.5008   -5.2318 N   0  0  0  0  0  0  0  0  0  0  0  0
    5.2264   -0.6580   -5.9289 C   0  0  0  0  0  0  0  0  0  0  0  0
    5.8744   -0.2582   -7.2277 C   0  0  0  0  0  0  0  0  0  0  0  0
    6.6348    0.8522   -7.4910 C   0  0  0  0  0  0  0  0  0  0  0  0
    7.1289    0.9095   -8.8422 C   0  0  0  0  0  0  0  0  0  0  0  0
    7.9635    1.9993   -9.3500 C   0  0  0  0  0  0  0  0  0  0  0  0
    8.6363    2.9696   -8.6327 C   0  0  0  0  0  0  0  0  0  0  0  0
    9.3667    3.8786   -9.4529 C   0  0  0  0  0  0  0  0  0  0  0  0
    9.2462    3.5991  -10.7904 C   0  0  0  0  0  0  0  0  0  0  0  0
    8.2316    2.2247  -11.0635 S   0  0  0  0  0  0  0  0  0  0  0  0
    6.7169   -0.1889   -9.5717 C   0  0  0  0  0  0  0  0  0  0  0  0
    5.7378   -1.2640   -8.6413 S   0  0  0  0  0  0  0  0  0  0  0  0
    4.2429   -0.7398   -3.1626 C   0  0  0  0  0  0  0  0  0  0  0  0
    3.6802   -0.7940   -1.8846 C   0  0  0  0  0  0  0  0  0  0  0  0
    3.7914   -1.8870   -1.0870 O   0  0  0  0  0  0  0  0  0  0  0  0
    1.3865    0.9028    1.4299 H   0  0  0  0  0  0  0  0  0  0  0  0
    0.8084    1.4710   -0.1687 H   0  0  0  0  0  0  0  0  0  0  0  0
    2.3191    2.1415    0.5308 H   0  0  0  0  0  0  0  0  0  0  0  0
    2.2620    2.3035   -1.8245 H   0  0  0  0  0  0  0  0  0  0  0  0
    3.2762    2.4014   -4.0626 H   0  0  0  0  0  0  0  0  0  0  0  0
    4.2880    1.1882   -5.8437 H   0  0  0  0  0  0  0  0  0  0  0  0
    4.4476   -1.4278   -6.1224 H   0  0  0  0  0  0  0  0  0  0  0  0
    5.9823   -1.1513   -5.2902 H   0  0  0  0  0  0  0  0  0  0  0  0
    6.8284    1.6165   -6.7383 H   0  0  0  0  0  0  0  0  0  0  0  0
    8.6209    3.0197   -7.5433 H   0  0  0  0  0  0  0  0  0  0  0  0
    9.9612    4.7065   -9.0633 H   0  0  0  0  0  0  0  0  0  0  0  0
    9.6919    4.1242  -11.6340 H   0  0  0  0  0  0  0  0  0  0  0  0
    6.9496   -0.4258  -10.6089 H   0  0  0  0  0  0  0  0  0  0  0  0
    4.7861   -1.6179   -3.5193 H   0  0  0  0  0  0  0  0  0  0  0  0
    4.3093   -2.5598   -1.5471 H   0  0  0  0  0  0  0  0  0  0  0  0
  1  2  1  0
  1 22  1  0
  1 23  1  0
  1 24  1  0
  2  3  1  0
  3  4  2  0
  3 20  1  0
  4  5  1  0
  4 25  1  0
  5  6  2  0
  5 26  1  0
  6  7  1  0
  6 19  1  0
  7  8  1  0
  7 27  1  0
  8  9  1  0
  8 28  1  0
  8 29  1  0
  9 10  2  0
  9 18  1  0
 10 11  1  0
 10 30  1  0
 11 12  1  0
 11 17  2  0
 12 13  2  0
 12 16  1  0
 13 14  1  0
 13 31  1  0
 14 15  2  0
 14 32  1  0
 15 16  1  0
 15 33  1  0
 17 18  1  0
 17 34  1  0
 19 20  2  0
 19 35  1  0
 20 21  1  0
 21 36  1  0
M  END

