
     RDKit          3D

 94106  0  0  0  0  0  0  0  0999 V2000
    1.0825   -0.2198   -0.3186 N   0  0  0  0  0  0  0  0  0  0  0  0
    2.2382   -0.1752   -0.2297 C   0  0  0  0  0  0  0  0  0  0  0  0
    3.6674   -0.1173   -0.1148 C   0  0  0  0  0  0  0  0  0  0  0  0
    4.3021    1.1487   -0.0705 C   0  0  0  0  0  0  0  0  0  0  0  0
    3.5162    2.3183   -0.0999 N   0  0  0  0  0  0  0  0  0  0  0  0
    2.6318    2.7309    0.9143 C   0  0  0  0  0  0  0  0  0  0  0  0
    2.3292    2.1261    2.1373 C   0  0  0  0  0  0  0  0  0  0  0  0
    1.4210    2.7648    2.9824 C   0  0  0  0  0  0  0  0  0  0  0  0
    0.8328    3.9858    2.6072 C   0  0  0  0  0  0  0  0  0  0  0  0
   -0.4017    4.8204    3.7970 Br  0  0  0  0  0  0  0  0  0  0  0  0
    1.1305    4.5947    1.3897 C   0  0  0  0  0  0  0  0  0  0  0  0
    2.0394    3.9598    0.5328 C   0  0  0  0  0  0  0  0  0  0  0  0
    2.5669    4.2968   -0.7763 C   0  0  0  0  0  0  0  0  0  0  0  0
    2.3252    5.3572   -1.6596 C   0  0  0  0  0  0  0  0  0  0  0  0
    2.9826    5.3567   -2.8884 C   0  0  0  0  0  0  0  0  0  0  0  0
    2.6786    6.7842   -4.1157 Br  0  0  0  0  0  0  0  0  0  0  0  0
    3.8606    4.3205   -3.2527 C   0  0  0  0  0  0  0  0  0  0  0  0
    4.1076    3.2601   -2.3801 C   0  0  0  0  0  0  0  0  0  0  0  0
    3.4679    3.2644   -1.1387 C   0  0  0  0  0  0  0  0  0  0  0  0
    5.7121    1.2059    0.0116 C   0  0  0  0  0  0  0  0  0  0  0  0
    6.4039    2.4336   -0.0098 N   0  0  0  0  0  0  0  0  0  0  0  0
    6.3785    3.4225    0.9891 C   0  0  0  0  0  0  0  0  0  0  0  0
    5.7369    3.4218    2.2296 C   0  0  0  0  0  0  0  0  0  0  0  0
    5.9004    4.5335    3.0570 C   0  0  0  0  0  0  0  0  0  0  0  0
    6.6989    5.6169    2.6495 C   0  0  0  0  0  0  0  0  0  0  0  0
    6.8890    7.1144    3.8147 Br  0  0  0  0  0  0  0  0  0  0  0  0
    7.3582    5.6157    1.4217 C   0  0  0  0  0  0  0  0  0  0  0  0
    7.1993    4.5043    0.5833 C   0  0  0  0  0  0  0  0  0  0  0  0
    7.7530    4.1548   -0.7117 C   0  0  0  0  0  0  0  0  0  0  0  0
    8.6125    4.8213   -1.5953 C   0  0  0  0  0  0  0  0  0  0  0  0
    8.9568    4.1876   -2.7876 C   0  0  0  0  0  0  0  0  0  0  0  0
   10.1263    5.0640   -4.0125 Br  0  0  0  0  0  0  0  0  0  0  0  0
    8.4625    2.9115   -3.1119 C   0  0  0  0  0  0  0  0  0  0  0  0
    7.6041    2.2410   -2.2400 C   0  0  0  0  0  0  0  0  0  0  0  0
    7.2558    2.8702   -1.0416 C   0  0  0  0  0  0  0  0  0  0  0  0
    6.4442   -0.0033    0.1080 C   0  0  0  0  0  0  0  0  0  0  0  0
    7.8734    0.0556    0.2226 C   0  0  0  0  0  0  0  0  0  0  0  0
    9.0287    0.1030    0.3152 N   0  0  0  0  0  0  0  0  0  0  0  0
    5.8070   -1.2687    0.0958 C   0  0  0  0  0  0  0  0  0  0  0  0
    6.5843   -2.4356    0.2388 N   0  0  0  0  0  0  0  0  0  0  0  0
    6.7934   -3.4244   -0.7385 C   0  0  0  0  0  0  0  0  0  0  0  0
    6.3556   -3.4769   -2.0636 C   0  0  0  0  0  0  0  0  0  0  0  0
    6.7317   -4.5740   -2.8396 C   0  0  0  0  0  0  0  0  0  0  0  0
    7.5379   -5.5904   -2.2971 C   0  0  0  0  0  0  0  0  0  0  0  0
    8.0240   -7.0713   -3.3958 Br  0  0  0  0  0  0  0  0  0  0  0  0
    7.9944   -5.5352   -0.9816 C   0  0  0  0  0  0  0  0  0  0  0  0
    7.6207   -4.4383   -0.1940 C   0  0  0  0  0  0  0  0  0  0  0  0
    7.9323   -4.0464    1.1679 C   0  0  0  0  0  0  0  0  0  0  0  0
    8.6844   -4.6466    2.1865 C   0  0  0  0  0  0  0  0  0  0  0  0
    8.7812   -3.9909    3.4121 C   0  0  0  0  0  0  0  0  0  0  0  0
    9.7939   -4.7819    4.8208 Br  0  0  0  0  0  0  0  0  0  0  0  0
    8.1474   -2.7559    3.6372 C   0  0  0  0  0  0  0  0  0  0  0  0
    7.3945   -2.1511    2.6299 C   0  0  0  0  0  0  0  0  0  0  0  0
    7.2924   -2.8040    1.3982 C   0  0  0  0  0  0  0  0  0  0  0  0
    4.4018   -1.3271   -0.0488 C   0  0  0  0  0  0  0  0  0  0  0  0
    3.7185   -2.5567   -0.1358 N   0  0  0  0  0  0  0  0  0  0  0  0
    3.0402   -3.0313   -1.2741 C   0  0  0  0  0  0  0  0  0  0  0  0
    2.8915   -2.4464   -2.5347 C   0  0  0  0  0  0  0  0  0  0  0  0
    2.1855   -3.1516   -3.5099 C   0  0  0  0  0  0  0  0  0  0  0  0
    1.6436   -4.4177   -3.2248 C   0  0  0  0  0  0  0  0  0  0  0  0
    0.6911   -5.3442   -4.5922 Br  0  0  0  0  0  0  0  0  0  0  0  0
    1.7879   -5.0063   -1.9700 C   0  0  0  0  0  0  0  0  0  0  0  0
    2.4933   -4.3050   -0.9831 C   0  0  0  0  0  0  0  0  0  0  0  0
    2.8323   -4.6074    0.3952 C   0  0  0  0  0  0  0  0  0  0  0  0
    2.5392   -5.6894    1.2359 C   0  0  0  0  0  0  0  0  0  0  0  0
    2.9967   -5.6468    2.5516 C   0  0  0  0  0  0  0  0  0  0  0  0
    2.6164   -7.1018    3.7240 Br  0  0  0  0  0  0  0  0  0  0  0  0
    3.7262   -4.5492    3.0419 C   0  0  0  0  0  0  0  0  0  0  0  0
    4.0219   -3.4665    2.2130 C   0  0  0  0  0  0  0  0  0  0  0  0
    3.5825   -3.5104    0.8881 C   0  0  0  0  0  0  0  0  0  0  0  0
    2.7721    1.1744    2.4363 H   0  0  0  0  0  0  0  0  0  0  0  0
    1.1594    2.3118    3.9396 H   0  0  0  0  0  0  0  0  0  0  0  0
    0.6662    5.5427    1.1143 H   0  0  0  0  0  0  0  0  0  0  0  0
    1.6341    6.1601   -1.3988 H   0  0  0  0  0  0  0  0  0  0  0  0
    4.3514    4.3461   -4.2265 H   0  0  0  0  0  0  0  0  0  0  0  0
    4.7843    2.4592   -2.6778 H   0  0  0  0  0  0  0  0  0  0  0  0
    5.1218    2.5853    2.5608 H   0  0  0  0  0  0  0  0  0  0  0  0
    5.4055    4.5630    4.0286 H   0  0  0  0  0  0  0  0  0  0  0  0
    7.9875    6.4569    1.1277 H   0  0  0  0  0  0  0  0  0  0  0  0
    9.0034    5.8122   -1.3597 H   0  0  0  0  0  0  0  0  0  0  0  0
    8.7581    2.4414   -4.0508 H   0  0  0  0  0  0  0  0  0  0  0  0
    7.2337    1.2478   -2.5001 H   0  0  0  0  0  0  0  0  0  0  0  0
    5.7365   -2.6923   -2.4983 H   0  0  0  0  0  0  0  0  0  0  0  0
    6.3982   -4.6443   -3.8758 H   0  0  0  0  0  0  0  0  0  0  0  0
    8.6325   -6.3243   -0.5812 H   0  0  0  0  0  0  0  0  0  0  0  0
    9.1816   -5.6047    2.0286 H   0  0  0  0  0  0  0  0  0  0  0  0
    8.2501   -2.2652    4.6061 H   0  0  0  0  0  0  0  0  0  0  0  0
    6.9138   -1.1890    2.8161 H   0  0  0  0  0  0  0  0  0  0  0  0
    3.3005   -1.4613   -2.7664 H   0  0  0  0  0  0  0  0  0  0  0  0
    2.0467   -2.7163   -4.5005 H   0  0  0  0  0  0  0  0  0  0  0  0
    1.3631   -5.9901   -1.7654 H   0  0  0  0  0  0  0  0  0  0  0  0
    1.9611   -6.5415    0.8753 H   0  0  0  0  0  0  0  0  0  0  0  0
    4.0630   -4.5448    4.0794 H   0  0  0  0  0  0  0  0  0  0  0  0
    4.5822   -2.6189    2.6071 H   0  0  0  0  0  0  0  0  0  0  0  0
  1  2  3  0
  2  3  1  0
  3  4  2  0
  3 55  1  0
  4  5  1  0
  4 20  1  0
  5  6  1  0
  5 19  1  0
  6  7  2  0
  6 12  1  0
  7  8  1  0
  7 71  1  0
  8  9  2  0
  8 72  1  0
  9 10  1  0
  9 11  1  0
 11 12  2  0
 11 73  1  0
 12 13  1  0
 13 14  1  0
 13 19  2  0
 14 15  2  0
 14 74  1  0
 15 16  1  0
 15 17  1  0
 17 18  2  0
 17 75  1  0
 18 19  1  0
 18 76  1  0
 20 21  1  0
 20 36  2  0
 21 22  1  0
 21 35  1  0
 22 23  2  0
 22 28  1  0
 23 24  1  0
 23 77  1  0
 24 25  2  0
 24 78  1  0
 25 26  1  0
 25 27  1  0
 27 28  2  0
 27 79  1  0
 28 29  1  0
 29 30  1  0
 29 35  2  0
 30 31  2  0
 30 80  1  0
 31 32  1  0
 31 33  1  0
 33 34  2  0
 33 81  1  0
 34 35  1  0
 34 82  1  0
 36 37  1  0
 36 39  1  0
 37 38  3  0
 39 40  1  0
 39 55  2  0
 40 41  1  0
 40 54  1  0
 41 42  2  0
 41 47  1  0
 42 43  1  0
 42 83  1  0
 43 44  2  0
 43 84  1  0
 44 45  1  0
 44 46  1  0
 46 47  2  0
 46 85  1  0
 47 48  1  0
 48 49  1  0
 48 54  2  0
 49 50  2  0
 49 86  1  0
 50 51  1  0
 50 52  1  0
 52 53  2  0
 52 87  1  0
 53 54  1  0
 53 88  1  0
 55 56  1  0
 56 57  1  0
 56 70  1  0
 57 58  2  0
 57 63  1  0
 58 59  1  0
 58 89  1  0
 59 60  2  0
 59 90  1  0
 60 61  1  0
 60 62  1  0
 62 63  2  0
 62 91  1  0
 63 64  1  0
 64 65  1  0
 64 70  2  0
 65 66  2  0
 65 92  1  0
 66 67  1  0
 66 68  1  0
 68 69  2  0
 68 93  1  0
 69 70  1  0
 69 94  1  0
M  END

