
     RDKit          3D

 72 77  0  0  0  0  0  0  0  0999 V2000
   -0.9813   -2.6029   -0.1133 C   0  0  0  0  0  0  0  0  0  0  0  0
   -2.0527   -1.8619   -0.4786 C   0  0  0  0  0  0  0  0  0  0  0  0
   -2.1631   -0.4500   -0.1944 C   0  0  0  0  0  0  0  0  0  0  0  0
   -1.3263    0.3496    0.4167 N   0  0  0  0  0  0  0  0  0  0  0  0
   -1.9337    1.5774    0.4117 C   0  0  0  0  0  0  0  0  0  0  0  0
   -3.1554    1.4922   -0.2174 C   0  0  0  0  0  0  0  0  0  0  0  0
   -4.2241    2.4325   -0.5201 C   0  0  0  0  0  0  0  0  0  0  0  0
   -5.3675    2.0297   -1.2359 C   0  0  0  0  0  0  0  0  0  0  0  0
   -6.3765    2.9462   -1.5277 C   0  0  0  0  0  0  0  0  0  0  0  0
   -6.2825    4.2782   -1.1128 C   0  0  0  0  0  0  0  0  0  0  0  0
   -7.3050    5.1441   -1.3918 O   0  0  0  0  0  0  0  0  0  0  0  0
   -7.0169    6.2099   -2.3024 C   0  0  0  0  0  0  0  0  0  0  0  0
   -8.2601    7.0338   -2.5351 C   0  0  0  0  0  0  0  0  0  0  0  0
   -9.5387    6.4642   -2.4499 C   0  0  0  0  0  0  0  0  0  0  0  0
  -10.6752    7.2340   -2.7130 C   0  0  0  0  0  0  0  0  0  0  0  0
  -10.5491    8.5801   -3.0697 C   0  0  0  0  0  0  0  0  0  0  0  0
   -9.2776    9.1552   -3.1540 C   0  0  0  0  0  0  0  0  0  0  0  0
   -8.1419    8.3877   -2.8822 C   0  0  0  0  0  0  0  0  0  0  0  0
   -5.1505    4.6869   -0.3715 C   0  0  0  0  0  0  0  0  0  0  0  0
   -5.0090    5.9836    0.0487 O   0  0  0  0  0  0  0  0  0  0  0  0
   -5.9019    6.4200    1.0780 C   0  0  0  0  0  0  0  0  0  0  0  0
   -5.5756    7.8405    1.4710 C   0  0  0  0  0  0  0  0  0  0  0  0
   -6.5845    8.6692    1.9837 C   0  0  0  0  0  0  0  0  0  0  0  0
   -6.2932    9.9697    2.4039 C   0  0  0  0  0  0  0  0  0  0  0  0
   -4.9887   10.4628    2.3046 C   0  0  0  0  0  0  0  0  0  0  0  0
   -3.9801    9.6464    1.7837 C   0  0  0  0  0  0  0  0  0  0  0  0
   -4.2700    8.3427    1.3718 C   0  0  0  0  0  0  0  0  0  0  0  0
   -4.1381    3.7713   -0.0904 C   0  0  0  0  0  0  0  0  0  0  0  0
   -3.2961    0.1880   -0.6052 O   0  0  0  0  0  0  0  0  0  0  0  0
   -0.7711   -4.0321   -0.3506 C   0  0  0  0  0  0  0  0  0  0  0  0
   -1.7034   -4.8444   -1.0302 C   0  0  0  0  0  0  0  0  0  0  0  0
   -1.4267   -6.1970   -1.2104 C   0  0  0  0  0  0  0  0  0  0  0  0
   -0.2462   -6.7724   -0.7358 C   0  0  0  0  0  0  0  0  0  0  0  0
    0.7082   -5.9843   -0.0476 C   0  0  0  0  0  0  0  0  0  0  0  0
    1.8771   -6.5318    0.4319 N   0  0  0  0  0  0  0  0  0  0  0  0
    2.9416   -5.7528    1.0537 C   0  0  0  0  0  0  0  0  0  0  0  0
    4.1085   -6.7446    1.1522 C   0  0  0  0  0  0  0  0  0  0  0  0
    3.4040   -8.1000    1.2983 C   0  0  0  0  0  0  0  0  0  0  0  0
    2.1794   -7.9573    0.3850 C   0  0  0  0  0  0  0  0  0  0  0  0
    0.4165   -4.6114    0.1303 C   0  0  0  0  0  0  0  0  0  0  0  0
   -0.1804   -2.0797    0.4198 H   0  0  0  0  0  0  0  0  0  0  0  0
   -2.9010   -2.2968   -1.0118 H   0  0  0  0  0  0  0  0  0  0  0  0
   -1.4644    2.4540    0.8549 H   0  0  0  0  0  0  0  0  0  0  0  0
   -5.4556    0.9952   -1.5701 H   0  0  0  0  0  0  0  0  0  0  0  0
   -7.2625    2.6451   -2.0910 H   0  0  0  0  0  0  0  0  0  0  0  0
   -6.6649    5.7724   -3.2574 H   0  0  0  0  0  0  0  0  0  0  0  0
   -6.2039    6.8424   -1.9096 H   0  0  0  0  0  0  0  0  0  0  0  0
   -9.6356    5.4155   -2.1638 H   0  0  0  0  0  0  0  0  0  0  0  0
  -11.6664    6.7787   -2.6386 H   0  0  0  0  0  0  0  0  0  0  0  0
  -11.4388    9.1806   -3.2758 H   0  0  0  0  0  0  0  0  0  0  0  0
   -9.1687   10.2091   -3.4231 H   0  0  0  0  0  0  0  0  0  0  0  0
   -7.1509    8.8482   -2.9361 H   0  0  0  0  0  0  0  0  0  0  0  0
   -5.7899    5.7476    1.9514 H   0  0  0  0  0  0  0  0  0  0  0  0
   -6.9477    6.3452    0.7366 H   0  0  0  0  0  0  0  0  0  0  0  0
   -7.6103    8.2947    2.0509 H   0  0  0  0  0  0  0  0  0  0  0  0
   -7.0907   10.6032    2.8008 H   0  0  0  0  0  0  0  0  0  0  0  0
   -4.7604   11.4820    2.6268 H   0  0  0  0  0  0  0  0  0  0  0  0
   -2.9590   10.0272    1.6966 H   0  0  0  0  0  0  0  0  0  0  0  0
   -3.4855    7.7071    0.9575 H   0  0  0  0  0  0  0  0  0  0  0  0
   -3.2796    4.1284    0.4812 H   0  0  0  0  0  0  0  0  0  0  0  0
   -2.6337   -4.4234   -1.4146 H   0  0  0  0  0  0  0  0  0  0  0  0
   -2.1455   -6.8287   -1.7397 H   0  0  0  0  0  0  0  0  0  0  0  0
   -0.0630   -7.8330   -0.9089 H   0  0  0  0  0  0  0  0  0  0  0  0
    2.6414   -5.3800    2.0544 H   0  0  0  0  0  0  0  0  0  0  0  0
    3.1998   -4.8679    0.4464 H   0  0  0  0  0  0  0  0  0  0  0  0
    4.7909   -6.5132    1.9834 H   0  0  0  0  0  0  0  0  0  0  0  0
    4.6985   -6.7226    0.2207 H   0  0  0  0  0  0  0  0  0  0  0  0
    3.0781   -8.2468    2.3415 H   0  0  0  0  0  0  0  0  0  0  0  0
    4.0389   -8.9557    1.0246 H   0  0  0  0  0  0  0  0  0  0  0  0
    1.3254   -8.5607    0.7388 H   0  0  0  0  0  0  0  0  0  0  0  0
    2.4041   -8.2922   -0.6485 H   0  0  0  0  0  0  0  0  0  0  0  0
    1.1207   -3.9720    0.6637 H   0  0  0  0  0  0  0  0  0  0  0  0
  1  2  2  0
  1 30  1  0
  1 41  1  0
  2  3  1  0
  2 42  1  0
  3  4  2  0
  3 29  1  0
  4  5  1  0
  5  6  2  0
  5 43  1  0
  6  7  1  0
  6 29  1  0
  7  8  2  0
  7 28  1  0
  8  9  1  0
  8 44  1  0
  9 10  2  0
  9 45  1  0
 10 11  1  0
 10 19  1  0
 11 12  1  0
 12 13  1  0
 12 46  1  0
 12 47  1  0
 13 14  2  0
 13 18  1  0
 14 15  1  0
 14 48  1  0
 15 16  2  0
 15 49  1  0
 16 17  1  0
 16 50  1  0
 17 18  2  0
 17 51  1  0
 18 52  1  0
 19 20  1  0
 19 28  2  0
 20 21  1  0
 21 22  1  0
 21 53  1  0
 21 54  1  0
 22 23  2  0
 22 27  1  0
 23 24  1  0
 23 55  1  0
 24 25  2  0
 24 56  1  0
 25 26  1  0
 25 57  1  0
 26 27  2  0
 26 58  1  0
 27 59  1  0
 28 60  1  0
 30 31  2  0
 30 40  1  0
 31 32  1  0
 31 61  1  0
 32 33  2  0
 32 62  1  0
 33 34  1  0
 33 63  1  0
 34 35  1  0
 34 40  2  0
 35 36  1  0
 35 39  1  0
 36 37  1  0
 36 64  1  0
 36 65  1  0
 37 38  1  0
 37 66  1  0
 37 67  1  0
 38 39  1  0
 38 68  1  0
 38 69  1  0
 39 70  1  0
 39 71  1  0
 40 72  1  0
M  END

