
     RDKit          3D

 36 37  0  0  0  0  0  0  0  0999 V2000
    2.6383   -0.2517    1.4488 C   0  0  0  0  0  0  0  0  0  0  0  0
    2.7544    0.0352   -0.0518 C   0  0  1  0  0  0  0  0  0  0  0  0
    1.3995   -0.1795   -0.7610 C   0  0  0  0  0  0  0  0  0  0  0  0
    1.3973    0.0377   -2.2374 C   0  0  0  0  0  0  0  0  0  0  0  0
    1.4179   -0.7973   -3.3209 C   0  0  0  0  0  0  0  0  0  0  0  0
    1.4297    0.0403   -4.4877 C   0  0  0  0  0  0  0  0  0  0  0  0
    1.4173    1.3246   -4.0306 C   0  0  0  0  0  0  0  0  0  0  0  0
    1.3947    1.3364   -2.6698 O   0  0  0  0  0  0  0  0  0  0  0  0
    3.2383    1.3916   -0.3025 N   0  0  0  0  0  0  0  0  0  0  0  0
    4.5501    1.7279   -0.0962 C   0  0  0  0  0  0  0  0  0  0  0  0
    5.3578    0.9398    0.3786 O   0  0  0  0  0  0  0  0  0  0  0  0
    4.9415    3.1288   -0.4978 C   0  0  0  0  0  0  0  0  0  0  0  0
    4.0092    4.1718   -0.5898 C   0  0  0  0  0  0  0  0  0  0  0  0
    4.4342    5.4620   -0.9623 C   0  0  0  0  0  0  0  0  0  0  0  0
    3.5143    6.4963   -1.0961 N   0  0  0  0  0  0  0  0  0  0  0  0
    5.7948    5.6805   -1.2367 C   0  0  0  0  0  0  0  0  0  0  0  0
    6.7347    4.6391   -1.1358 C   0  0  0  0  0  0  0  0  0  0  0  0
    8.0680    4.8604   -1.4488 N   0  0  0  0  0  0  0  0  0  0  0  0
    6.2954    3.3574   -0.7548 C   0  0  0  0  0  0  0  0  0  0  0  0
    2.3166   -1.2915    1.6218 H   0  0  0  0  0  0  0  0  0  0  0  0
    1.9054    0.4232    1.9210 H   0  0  0  0  0  0  0  0  0  0  0  0
    3.6144   -0.1077    1.9311 H   0  0  0  0  0  0  0  0  0  0  0  0
    3.4910   -0.6704   -0.4768 H   0  0  0  0  0  0  0  0  0  0  0  0
    0.6460    0.4828   -0.2972 H   0  0  0  0  0  0  0  0  0  0  0  0
    1.0745   -1.2117   -0.5642 H   0  0  0  0  0  0  0  0  0  0  0  0
    1.4224   -1.8850   -3.2902 H   0  0  0  0  0  0  0  0  0  0  0  0
    1.4436   -0.2761   -5.5287 H   0  0  0  0  0  0  0  0  0  0  0  0
    1.4200    2.2955   -4.5187 H   0  0  0  0  0  0  0  0  0  0  0  0
    2.6990    1.9763   -0.9313 H   0  0  0  0  0  0  0  0  0  0  0  0
    2.9594    4.0081   -0.3361 H   0  0  0  0  0  0  0  0  0  0  0  0
    2.6424    6.3826   -0.5920 H   0  0  0  0  0  0  0  0  0  0  0  0
    3.8850    7.4370   -1.0255 H   0  0  0  0  0  0  0  0  0  0  0  0
    6.1280    6.6791   -1.5365 H   0  0  0  0  0  0  0  0  0  0  0  0
    8.3974    5.8167   -1.3930 H   0  0  0  0  0  0  0  0  0  0  0  0
    8.7311    4.1869   -1.0836 H   0  0  0  0  0  0  0  0  0  0  0  0
    6.9957    2.5267   -0.6514 H   0  0  0  0  0  0  0  0  0  0  0  0
  1  2  1  0
  1 20  1  0
  1 21  1  0
  1 22  1  0
  2  3  1  0
  2  9  1  0
  2 23  1  6
  3  4  1  0
  3 24  1  0
  3 25  1  0
  4  5  2  0
  4  8  1  0
  5  6  1  0
  5 26  1  0
  6  7  2  0
  6 27  1  0
  7  8  1  0
  7 28  1  0
  9 10  1  0
  9 29  1  0
 10 11  2  0
 10 12  1  0
 12 13  2  0
 12 19  1  0
 13 14  1  0
 13 30  1  0
 14 15  1  0
 14 16  2  0
 15 31  1  0
 15 32  1  0
 16 17  1  0
 16 33  1  0
 17 18  1  0
 17 19  2  0
 18 34  1  0
 18 35  1  0
 19 36  1  0
M  END

