
     RDKit          3D

 68 76  0  0  0  0  0  0  0  0999 V2000
    2.4226    0.9498   -0.7781 C   0  0  0  0  0  0  0  0  0  0  0  0
    2.4749    0.0194    0.2913 C   0  0  0  0  0  0  0  0  0  0  0  0
    1.3303   -0.6249    0.7118 C   0  0  0  0  0  0  0  0  0  0  0  0
    0.0784   -0.3697    0.0832 C   0  0  0  0  0  0  0  0  0  0  0  0
   -1.1206   -1.0085    0.5023 C   0  0  0  0  0  0  0  0  0  0  0  0
   -2.3238   -0.7471   -0.1275 C   0  0  0  0  0  0  0  0  0  0  0  0
   -3.5142   -1.4065    0.2818 N   0  0  0  0  0  0  0  0  0  0  0  0
   -4.6864   -0.7780    0.7150 C   0  0  0  0  0  0  0  0  0  0  0  0
   -4.9534    0.5863    0.8871 C   0  0  0  0  0  0  0  0  0  0  0  0
   -6.2165    0.9477    1.3576 C   0  0  0  0  0  0  0  0  0  0  0  0
   -7.1934   -0.0205    1.6572 C   0  0  0  0  0  0  0  0  0  0  0  0
   -6.9191   -1.3780    1.4962 C   0  0  0  0  0  0  0  0  0  0  0  0
   -5.6576   -1.7687    1.0246 C   0  0  0  0  0  0  0  0  0  0  0  0
   -5.0392   -3.0542    0.7614 C   0  0  0  0  0  0  0  0  0  0  0  0
   -5.4864   -4.3765    0.8618 C   0  0  0  0  0  0  0  0  0  0  0  0
   -4.6353   -5.4381    0.5178 C   0  0  0  0  0  0  0  0  0  0  0  0
   -5.0927   -6.8487    0.6244 C   0  0  0  0  0  0  0  0  0  0  0  0
   -6.4178   -7.2136    0.3165 C   0  0  0  0  0  0  0  0  0  0  0  0
   -6.8548   -8.5329    0.4288 C   0  0  0  0  0  0  0  0  0  0  0  0
   -5.9683   -9.5407    0.8356 C   0  0  0  0  0  0  0  0  0  0  0  0
   -6.4062  -10.8882    0.9419 N   0  0  0  0  0  0  0  0  0  0  0  0
   -6.9505  -11.6551   -0.0922 C   0  0  0  0  0  0  0  0  0  0  0  0
   -7.1655  -11.3167   -1.4346 C   0  0  0  0  0  0  0  0  0  0  0  0
   -7.7136  -12.2891   -2.2721 C   0  0  0  0  0  0  0  0  0  0  0  0
   -8.0387  -13.5724   -1.7931 C   0  0  0  0  0  0  0  0  0  0  0  0
   -7.8124  -13.9090   -0.4591 C   0  0  0  0  0  0  0  0  0  0  0  0
   -7.2623  -12.9505    0.4045 C   0  0  0  0  0  0  0  0  0  0  0  0
   -6.8882  -12.9611    1.8053 C   0  0  0  0  0  0  0  0  0  0  0  0
   -6.9592  -13.9263    2.8204 C   0  0  0  0  0  0  0  0  0  0  0  0
   -6.5189  -13.5990    4.1021 C   0  0  0  0  0  0  0  0  0  0  0  0
   -6.0149  -12.3139    4.3791 C   0  0  0  0  0  0  0  0  0  0  0  0
   -5.9327  -11.3352    3.3879 C   0  0  0  0  0  0  0  0  0  0  0  0
   -6.3649  -11.6720    2.0985 C   0  0  0  0  0  0  0  0  0  0  0  0
   -4.6421   -9.1972    1.1351 C   0  0  0  0  0  0  0  0  0  0  0  0
   -4.2187   -7.8721    1.0395 C   0  0  0  0  0  0  0  0  0  0  0  0
   -3.3272   -5.1371    0.0618 C   0  0  0  0  0  0  0  0  0  0  0  0
   -2.8571   -3.8309   -0.0493 C   0  0  0  0  0  0  0  0  0  0  0  0
   -3.7181   -2.7873    0.3114 C   0  0  0  0  0  0  0  0  0  0  0  0
   -2.3737    0.1823   -1.2052 C   0  0  0  0  0  0  0  0  0  0  0  0
   -1.2296    0.8273   -1.6188 C   0  0  0  0  0  0  0  0  0  0  0  0
    0.0254    0.5747   -0.9966 C   0  0  0  0  0  0  0  0  0  0  0  0
    1.2249    1.2203   -1.4066 C   0  0  0  0  0  0  0  0  0  0  0  0
    3.3373    1.4523   -1.1023 H   0  0  0  0  0  0  0  0  0  0  0  0
    3.4294   -0.1857    0.7823 H   0  0  0  0  0  0  0  0  0  0  0  0
    1.3699   -1.3415    1.5366 H   0  0  0  0  0  0  0  0  0  0  0  0
   -1.0885   -1.7096    1.3392 H   0  0  0  0  0  0  0  0  0  0  0  0
   -4.1996    1.3440    0.6673 H   0  0  0  0  0  0  0  0  0  0  0  0
   -6.4483    2.0065    1.4991 H   0  0  0  0  0  0  0  0  0  0  0  0
   -8.1724    0.2969    2.0239 H   0  0  0  0  0  0  0  0  0  0  0  0
   -7.6757   -2.1285    1.7388 H   0  0  0  0  0  0  0  0  0  0  0  0
   -6.4936   -4.5811    1.2319 H   0  0  0  0  0  0  0  0  0  0  0  0
   -7.1192   -6.4517   -0.0305 H   0  0  0  0  0  0  0  0  0  0  0  0
   -7.8904   -8.7899    0.1971 H   0  0  0  0  0  0  0  0  0  0  0  0
   -6.9103  -10.3271   -1.8171 H   0  0  0  0  0  0  0  0  0  0  0  0
   -7.8910  -12.0469   -3.3232 H   0  0  0  0  0  0  0  0  0  0  0  0
   -8.4681  -14.3100   -2.4752 H   0  0  0  0  0  0  0  0  0  0  0  0
   -8.0574  -14.9084   -0.0905 H   0  0  0  0  0  0  0  0  0  0  0  0
   -7.3583  -14.9217    2.6090 H   0  0  0  0  0  0  0  0  0  0  0  0
   -6.5681  -14.3427    4.9011 H   0  0  0  0  0  0  0  0  0  0  0  0
   -5.6822  -12.0740    5.3923 H   0  0  0  0  0  0  0  0  0  0  0  0
   -5.5473  -10.3397    3.6136 H   0  0  0  0  0  0  0  0  0  0  0  0
   -3.9431   -9.9761    1.4468 H   0  0  0  0  0  0  0  0  0  0  0  0
   -3.1885   -7.6259    1.3060 H   0  0  0  0  0  0  0  0  0  0  0  0
   -2.6703   -5.9554   -0.2410 H   0  0  0  0  0  0  0  0  0  0  0  0
   -1.8501   -3.6332   -0.4198 H   0  0  0  0  0  0  0  0  0  0  0  0
   -3.3277    0.3657   -1.7032 H   0  0  0  0  0  0  0  0  0  0  0  0
   -1.2738    1.5382   -2.4483 H   0  0  0  0  0  0  0  0  0  0  0  0
    1.1820    1.9372   -2.2311 H   0  0  0  0  0  0  0  0  0  0  0  0
  1  2  2  0
  1 42  1  0
  1 43  1  0
  2  3  1  0
  2 44  1  0
  3  4  2  0
  3 45  1  0
  4  5  1  0
  4 41  1  0
  5  6  2  0
  5 46  1  0
  6  7  1  0
  6 39  1  0
  7  8  1  0
  7 38  1  0
  8  9  2  0
  8 13  1  0
  9 10  1  0
  9 47  1  0
 10 11  2  0
 10 48  1  0
 11 12  1  0
 11 49  1  0
 12 13  2  0
 12 50  1  0
 13 14  1  0
 14 15  1  0
 14 38  2  0
 15 16  2  0
 15 51  1  0
 16 17  1  0
 16 36  1  0
 17 18  2  0
 17 35  1  0
 18 19  1  0
 18 52  1  0
 19 20  2  0
 19 53  1  0
 20 21  1  0
 20 34  1  0
 21 22  1  0
 21 33  1  0
 22 23  2  0
 22 27  1  0
 23 24  1  0
 23 54  1  0
 24 25  2  0
 24 55  1  0
 25 26  1  0
 25 56  1  0
 26 27  2  0
 26 57  1  0
 27 28  1  0
 28 29  1  0
 28 33  2  0
 29 30  2  0
 29 58  1  0
 30 31  1  0
 30 59  1  0
 31 32  2  0
 31 60  1  0
 32 33  1  0
 32 61  1  0
 34 35  2  0
 34 62  1  0
 35 63  1  0
 36 37  2  0
 36 64  1  0
 37 38  1  0
 37 65  1  0
 39 40  2  0
 39 66  1  0
 40 41  1  0
 40 67  1  0
 41 42  2  0
 42 68  1  0
M  END

