
     RDKit          3D

 38 38  0  0  0  0  0  0  0  0999 V2000
    3.1775   -1.0546   -3.7657 C   0  0  0  0  0  0  0  0  0  0  0  0
    2.4459   -0.4236   -2.5779 C   0  0  0  0  0  0  0  0  0  0  0  0
    3.0085    0.9279   -2.1283 C   0  0  0  0  0  0  0  0  0  0  0  0
    4.3013    0.9488   -1.4750 N   0  0  0  0  0  0  0  0  0  0  0  0
    4.7802   -0.1947   -0.7437 C   0  0  0  0  0  0  0  0  0  0  0  0
    4.0405   -0.4252    0.6240 C   0  0  0  0  0  0  0  0  0  0  0  0
    3.1522   -1.2559    0.7015 O   0  0  0  0  0  0  0  0  0  0  0  0
    4.4980    0.3370    1.6367 N   0  0  0  0  0  0  0  0  0  0  0  0
    3.9220    0.3001    2.9675 C   0  0  0  0  0  0  0  0  0  0  0  0
    5.0212    2.2171   -1.3827 C   0  0  0  0  0  0  0  0  0  0  0  0
    4.8198    2.9227   -0.1361 C   0  0  0  0  0  0  0  0  0  0  0  0
    5.8279    3.7163    0.3825 C   0  0  0  0  0  0  0  0  0  0  0  0
    7.0922    3.8057   -0.2420 C   0  0  0  0  0  0  0  0  0  0  0  0
    7.3309    3.0647   -1.4375 C   0  0  0  0  0  0  0  0  0  0  0  0
    8.5934    3.1857   -2.0415 N   0  0  0  0  0  0  0  0  0  0  0  0
    6.3576    2.2270   -1.9862 C   0  0  0  0  0  0  0  0  0  0  0  0
    6.5973    1.5187   -3.2974 C   0  0  0  0  0  0  0  0  0  0  0  0
    2.6826   -1.9882   -4.0745 H   0  0  0  0  0  0  0  0  0  0  0  0
    4.2256   -1.3027   -3.5325 H   0  0  0  0  0  0  0  0  0  0  0  0
    3.1886   -0.3769   -4.6346 H   0  0  0  0  0  0  0  0  0  0  0  0
    2.3990   -1.1142   -1.7211 H   0  0  0  0  0  0  0  0  0  0  0  0
    1.3972   -0.2344   -2.8617 H   0  0  0  0  0  0  0  0  0  0  0  0
    2.3019    1.3988   -1.4097 H   0  0  0  0  0  0  0  0  0  0  0  0
    3.0850    1.6506   -2.9564 H   0  0  0  0  0  0  0  0  0  0  0  0
    5.8530   -0.0361   -0.5681 H   0  0  0  0  0  0  0  0  0  0  0  0
    4.6188   -1.1213   -1.3062 H   0  0  0  0  0  0  0  0  0  0  0  0
    5.1295    1.1045    1.4016 H   0  0  0  0  0  0  0  0  0  0  0  0
    3.1747   -0.5026    3.0017 H   0  0  0  0  0  0  0  0  0  0  0  0
    3.4319    1.2571    3.2132 H   0  0  0  0  0  0  0  0  0  0  0  0
    4.6971    0.1016    3.7248 H   0  0  0  0  0  0  0  0  0  0  0  0
    3.8334    2.9121    0.3386 H   0  0  0  0  0  0  0  0  0  0  0  0
    5.6200    4.3350    1.2621 H   0  0  0  0  0  0  0  0  0  0  0  0
    7.8831    4.4309    0.1766 H   0  0  0  0  0  0  0  0  0  0  0  0
    9.0969    4.0184   -1.7525 H   0  0  0  0  0  0  0  0  0  0  0  0
    8.5978    3.1030   -3.0526 H   0  0  0  0  0  0  0  0  0  0  0  0
    6.3338    2.1400   -4.1801 H   0  0  0  0  0  0  0  0  0  0  0  0
    5.9998    0.5975   -3.3929 H   0  0  0  0  0  0  0  0  0  0  0  0
    7.6504    1.2151   -3.4110 H   0  0  0  0  0  0  0  0  0  0  0  0
  1  2  1  0
  1 18  1  0
  1 19  1  0
  1 20  1  0
  2  3  1  0
  2 21  1  0
  2 22  1  0
  3  4  1  0
  3 23  1  0
  3 24  1  0
  4  5  1  0
  4 10  1  0
  5  6  1  0
  5 25  1  0
  5 26  1  0
  6  7  2  0
  6  8  1  0
  8  9  1  0
  8 27  1  0
  9 28  1  0
  9 29  1  0
  9 30  1  0
 10 11  2  0
 10 16  1  0
 11 12  1  0
 11 31  1  0
 12 13  2  0
 12 32  1  0
 13 14  1  0
 13 33  1  0
 14 15  1  0
 14 16  2  0
 15 34  1  0
 15 35  1  0
 16 17  1  0
 17 36  1  0
 17 37  1  0
 17 38  1  0
M  END

