
     RDKit          3D

 67 68  0  0  0  0  0  0  0  0999 V2000
    0.5441    0.6222    0.4573 C   0  0  0  0  0  0  0  0  0  0  0  0
    2.0681    0.5224    0.3743 C   0  0  0  0  0  0  0  0  0  0  0  0
    2.6786   -0.4078    1.4270 C   0  0  0  0  0  0  0  0  0  0  0  0
    4.2016   -0.5417    1.3343 C   0  0  0  0  0  0  0  0  0  0  0  0
    4.8069   -1.4403    2.4168 C   0  0  0  0  0  0  0  0  0  0  0  0
    6.3191   -1.6497    2.2861 C   0  0  0  0  0  0  0  0  0  0  0  0
    6.9191   -2.4560    3.4417 C   0  0  0  0  0  0  0  0  0  0  0  0
    8.4159   -2.7786    3.2704 C   0  0  0  0  0  0  0  0  0  0  0  0
    8.9825   -3.5576    4.4376 C   0  0  0  0  0  0  0  0  0  0  0  0
    9.5203   -2.8809    5.5532 C   0  0  0  0  0  0  0  0  0  0  0  0
    9.9786   -3.6037    6.6563 C   0  0  0  0  0  0  0  0  0  0  0  0
    9.9272   -4.9949    6.6796 C   0  0  0  0  0  0  0  0  0  0  0  0
    9.4031   -5.7036    5.5641 C   0  0  0  0  0  0  0  0  0  0  0  0
    9.3898   -7.0904    5.5483 N   0  0  0  0  0  0  0  0  0  0  0  0
   10.0626   -7.8446    6.5368 C   0  0  0  0  0  0  0  0  0  0  0  0
    9.8479   -9.2213    6.5853 C   0  0  0  0  0  0  0  0  0  0  0  0
   10.4718  -10.0348    7.5021 O   0  0  0  0  0  0  0  0  0  0  0  0
   11.3375   -9.6758    8.4962 C   0  0  0  0  0  0  0  0  0  0  0  0
   11.7862   -8.5525    8.6645 O   0  0  0  0  0  0  0  0  0  0  0  0
   11.8131  -10.9053    9.2590 C   0  0  1  0  0  0  0  0  0  0  0  0
   13.3408  -11.0476    9.0805 C   0  0  0  0  0  0  0  0  0  0  0  0
   13.8180  -11.2571    7.6441 C   0  0  0  0  0  0  0  0  0  0  0  0
   11.4392  -10.8160   10.7497 C   0  0  0  0  0  0  0  0  0  0  0  0
    9.9353  -10.7388   11.0330 C   0  0  0  0  0  0  0  0  0  0  0  0
    9.6135  -10.6703   12.5271 C   0  0  0  0  0  0  0  0  0  0  0  0
    9.1127   -9.9536    5.7177 N   0  0  0  0  0  0  0  0  0  0  0  0
    8.5290   -9.2708    4.7368 C   0  0  0  0  0  0  0  0  0  0  0  0
    8.6924   -7.8064    4.5135 C   0  0  0  0  0  0  0  0  0  0  0  0
    8.9271   -4.9501    4.4571 C   0  0  0  0  0  0  0  0  0  0  0  0
    0.1384    1.2974   -0.3130 H   0  0  0  0  0  0  0  0  0  0  0  0
    0.2203    1.0054    1.4397 H   0  0  0  0  0  0  0  0  0  0  0  0
    0.0699   -0.3640    0.3182 H   0  0  0  0  0  0  0  0  0  0  0  0
    2.5098    1.5301    0.4804 H   0  0  0  0  0  0  0  0  0  0  0  0
    2.3598    0.1723   -0.6328 H   0  0  0  0  0  0  0  0  0  0  0  0
    2.2209   -1.4110    1.3372 H   0  0  0  0  0  0  0  0  0  0  0  0
    2.4031   -0.0458    2.4355 H   0  0  0  0  0  0  0  0  0  0  0  0
    4.6617    0.4621    1.3959 H   0  0  0  0  0  0  0  0  0  0  0  0
    4.4702   -0.9365    0.3367 H   0  0  0  0  0  0  0  0  0  0  0  0
    4.3069   -2.4266    2.3973 H   0  0  0  0  0  0  0  0  0  0  0  0
    4.5783   -1.0136    3.4112 H   0  0  0  0  0  0  0  0  0  0  0  0
    6.8255   -0.6682    2.2303 H   0  0  0  0  0  0  0  0  0  0  0  0
    6.5327   -2.1576    1.3274 H   0  0  0  0  0  0  0  0  0  0  0  0
    6.3661   -3.4057    3.5579 H   0  0  0  0  0  0  0  0  0  0  0  0
    6.7721   -1.9087    4.3896 H   0  0  0  0  0  0  0  0  0  0  0  0
    8.9799   -1.8366    3.1616 H   0  0  0  0  0  0  0  0  0  0  0  0
    8.5590   -3.3455    2.3348 H   0  0  0  0  0  0  0  0  0  0  0  0
    9.5686   -1.7888    5.5525 H   0  0  0  0  0  0  0  0  0  0  0  0
   10.3858   -3.0742    7.5215 H   0  0  0  0  0  0  0  0  0  0  0  0
   10.2365   -5.5267    7.5770 H   0  0  0  0  0  0  0  0  0  0  0  0
   10.7855   -7.3427    7.1608 H   0  0  0  0  0  0  0  0  0  0  0  0
   11.3295  -11.7820    8.7990 H   0  0  0  0  0  0  0  0  0  0  0  0
   13.6568  -11.9060    9.6988 H   0  0  0  0  0  0  0  0  0  0  0  0
   13.8331  -10.1605    9.5135 H   0  0  0  0  0  0  0  0  0  0  0  0
   13.4283  -12.1923    7.2095 H   0  0  0  0  0  0  0  0  0  0  0  0
   14.9180  -11.3099    7.6098 H   0  0  0  0  0  0  0  0  0  0  0  0
   13.5131  -10.4295    6.9830 H   0  0  0  0  0  0  0  0  0  0  0  0
   11.9235   -9.9160   11.1688 H   0  0  0  0  0  0  0  0  0  0  0  0
   11.8754  -11.6881   11.2663 H   0  0  0  0  0  0  0  0  0  0  0  0
    9.4217  -11.6037   10.5767 H   0  0  0  0  0  0  0  0  0  0  0  0
    9.5157   -9.8419   10.5426 H   0  0  0  0  0  0  0  0  0  0  0  0
    9.9763  -11.5642   13.0619 H   0  0  0  0  0  0  0  0  0  0  0  0
    8.5306  -10.5824   12.7082 H   0  0  0  0  0  0  0  0  0  0  0  0
   10.0944   -9.7938   12.9936 H   0  0  0  0  0  0  0  0  0  0  0  0
    7.9664   -9.8217    3.9758 H   0  0  0  0  0  0  0  0  0  0  0  0
    7.7154   -7.3221    4.3266 H   0  0  0  0  0  0  0  0  0  0  0  0
    9.2567   -7.6735    3.5590 H   0  0  0  0  0  0  0  0  0  0  0  0
    8.5308   -5.4594    3.5783 H   0  0  0  0  0  0  0  0  0  0  0  0
  1  2  1  0
  1 30  1  0
  1 31  1  0
  1 32  1  0
  2  3  1  0
  2 33  1  0
  2 34  1  0
  3  4  1  0
  3 35  1  0
  3 36  1  0
  4  5  1  0
  4 37  1  0
  4 38  1  0
  5  6  1  0
  5 39  1  0
  5 40  1  0
  6  7  1  0
  6 41  1  0
  6 42  1  0
  7  8  1  0
  7 43  1  0
  7 44  1  0
  8  9  1  0
  8 45  1  0
  8 46  1  0
  9 10  2  0
  9 29  1  0
 10 11  1  0
 10 47  1  0
 11 12  2  0
 11 48  1  0
 12 13  1  0
 12 49  1  0
 13 14  1  0
 13 29  2  0
 14 15  1  0
 14 28  1  0
 15 16  2  0
 15 50  1  0
 16 17  1  0
 16 26  1  0
 17 18  1  0
 18 19  2  0
 18 20  1  0
 20 21  1  0
 20 23  1  0
 20 51  1  6
 21 22  1  0
 21 52  1  0
 21 53  1  0
 22 54  1  0
 22 55  1  0
 22 56  1  0
 23 24  1  0
 23 57  1  0
 23 58  1  0
 24 25  1  0
 24 59  1  0
 24 60  1  0
 25 61  1  0
 25 62  1  0
 25 63  1  0
 26 27  2  0
 27 28  1  0
 27 64  1  0
 28 65  1  0
 28 66  1  0
 29 67  1  0
M  END

