
     RDKit          3D

 47 49  0  0  0  0  0  0  0  0999 V2000
    1.1390   -1.2288   -0.9331 C   0  0  0  0  0  0  0  0  0  0  0  0
    1.5696   -2.4417   -0.1255 C   0  0  0  0  0  0  0  0  0  0  0  0
    2.9499   -2.7780   -0.3641 O   0  0  0  0  0  0  0  0  0  0  0  0
    3.8831   -2.1601    0.3839 C   0  0  0  0  0  0  0  0  0  0  0  0
    3.6237   -1.3221    1.2139 O   0  0  0  0  0  0  0  0  0  0  0  0
    5.2924   -2.6189    0.0110 C   0  0  1  0  0  0  0  0  0  0  0  0
    6.3462   -2.0570    0.9771 C   0  0  0  0  0  0  0  0  0  0  0  0
    6.2916   -2.7717    2.3325 C   0  0  0  0  0  0  0  0  0  0  0  0
    6.3179   -4.2911    2.1674 C   0  0  0  0  0  0  0  0  0  0  0  0
    5.2624   -4.7374    1.2578 N   0  0  0  0  0  0  0  0  0  0  0  0
    5.0856   -6.1823    1.2430 C   0  0  0  0  0  0  0  0  0  0  0  0
    4.3166   -6.6536    2.4407 C   0  0  0  0  0  0  0  0  0  0  0  0
    4.7442   -6.9235    3.6384 N   0  0  0  0  0  0  0  0  0  0  0  0
    3.5852   -7.2454    4.3099 C   0  0  0  0  0  0  0  0  0  0  0  0
    3.5464   -7.6491    5.7545 C   0  0  0  0  0  0  0  0  0  0  0  0
    4.1868   -9.0025    6.0195 C   0  0  0  0  0  0  0  0  0  0  0  0
    5.5827   -9.1523    6.0004 C   0  0  0  0  0  0  0  0  0  0  0  0
    6.1670  -10.3989    6.2364 C   0  0  0  0  0  0  0  0  0  0  0  0
    5.3650  -11.5156    6.4942 C   0  0  0  0  0  0  0  0  0  0  0  0
    3.9747  -11.3773    6.5114 C   0  0  0  0  0  0  0  0  0  0  0  0
    3.3914  -10.1289    6.2733 C   0  0  0  0  0  0  0  0  0  0  0  0
    2.5082   -7.1831    3.5681 N   0  0  0  0  0  0  0  0  0  0  0  0
    2.9897   -6.7906    2.3241 O   0  0  0  0  0  0  0  0  0  0  0  0
    5.3932   -4.1508   -0.0698 C   0  0  0  0  0  0  0  0  0  0  0  0
    0.0613   -1.0481   -0.7914 H   0  0  0  0  0  0  0  0  0  0  0  0
    1.3226   -1.3846   -2.0078 H   0  0  0  0  0  0  0  0  0  0  0  0
    1.6815   -0.3293   -0.6066 H   0  0  0  0  0  0  0  0  0  0  0  0
    1.0085   -3.3399   -0.4214 H   0  0  0  0  0  0  0  0  0  0  0  0
    1.4281   -2.2687    0.9513 H   0  0  0  0  0  0  0  0  0  0  0  0
    5.4698   -2.2224   -1.0053 H   0  0  0  0  0  0  0  0  0  0  0  0
    6.1994   -0.9747    1.1068 H   0  0  0  0  0  0  0  0  0  0  0  0
    7.3412   -2.2015    0.5204 H   0  0  0  0  0  0  0  0  0  0  0  0
    5.3687   -2.4821    2.8586 H   0  0  0  0  0  0  0  0  0  0  0  0
    7.1391   -2.4587    2.9643 H   0  0  0  0  0  0  0  0  0  0  0  0
    6.1779   -4.7849    3.1403 H   0  0  0  0  0  0  0  0  0  0  0  0
    7.3169   -4.6142    1.7865 H   0  0  0  0  0  0  0  0  0  0  0  0
    6.0478   -6.7364    1.2090 H   0  0  0  0  0  0  0  0  0  0  0  0
    4.5080   -6.4599    0.3497 H   0  0  0  0  0  0  0  0  0  0  0  0
    2.4953   -7.6558    6.0738 H   0  0  0  0  0  0  0  0  0  0  0  0
    4.0683   -6.8707    6.3348 H   0  0  0  0  0  0  0  0  0  0  0  0
    6.2124   -8.2850    5.7871 H   0  0  0  0  0  0  0  0  0  0  0  0
    7.2556  -10.4990    6.2203 H   0  0  0  0  0  0  0  0  0  0  0  0
    5.8231  -12.4902    6.6818 H   0  0  0  0  0  0  0  0  0  0  0  0
    3.3391  -12.2439    6.7115 H   0  0  0  0  0  0  0  0  0  0  0  0
    2.3024  -10.0276    6.2869 H   0  0  0  0  0  0  0  0  0  0  0  0
    4.5924   -4.5385   -0.7143 H   0  0  0  0  0  0  0  0  0  0  0  0
    6.3659   -4.4179   -0.5460 H   0  0  0  0  0  0  0  0  0  0  0  0
  1  2  1  0
  1 25  1  0
  1 26  1  0
  1 27  1  0
  2  3  1  0
  2 28  1  0
  2 29  1  0
  3  4  1  0
  4  5  2  0
  4  6  1  0
  6  7  1  0
  6 24  1  0
  6 30  1  6
  7  8  1  0
  7 31  1  0
  7 32  1  0
  8  9  1  0
  8 33  1  0
  8 34  1  0
  9 10  1  0
  9 35  1  0
  9 36  1  0
 10 11  1  0
 10 24  1  0
 11 12  1  0
 11 37  1  0
 11 38  1  0
 12 13  2  0
 12 23  1  0
 13 14  1  0
 14 15  1  0
 14 22  2  0
 15 16  1  0
 15 39  1  0
 15 40  1  0
 16 17  2  0
 16 21  1  0
 17 18  1  0
 17 41  1  0
 18 19  2  0
 18 42  1  0
 19 20  1  0
 19 43  1  0
 20 21  2  0
 20 44  1  0
 21 45  1  0
 22 23  1  0
 24 46  1  0
 24 47  1  0
M  END

