
     RDKit          3D

 48 53  0  0  0  0  0  0  0  0999 V2000
    1.2294    0.4533   -1.0248 O   0  0  0  0  0  0  0  0  0  0  0  0
    2.2194    0.4987   -0.3578 C   0  0  0  0  0  0  0  0  0  0  0  0
    3.1177    1.6981   -0.1668 C   0  0  0  0  0  0  0  0  0  0  0  0
    3.6768    1.8208    1.2671 C   0  0  1  0  0  0  0  0  0  0  0  0
    2.6488    2.3867    2.2463 C   0  0  0  0  0  0  0  0  0  0  0  0
    1.6732    1.5840    2.8544 C   0  0  0  0  0  0  0  0  0  0  0  0
    0.7173    2.1380    3.7092 C   0  0  0  0  0  0  0  0  0  0  0  0
    0.7249    3.5103    3.9718 C   0  0  0  0  0  0  0  0  0  0  0  0
   -0.2697    4.1261    4.9231 C   0  0  1  0  0  0  0  0  0  0  0  0
   -1.2758    3.2874    5.2207 F   0  0  0  0  0  0  0  0  0  0  0  0
    0.3119    4.4773    6.0873 F   0  0  0  0  0  0  0  0  0  0  0  0
   -0.8146    5.2464    4.4120 F   0  0  0  0  0  0  0  0  0  0  0  0
    1.6933    4.3252    3.3716 C   0  0  0  0  0  0  0  0  0  0  0  0
    2.6428    3.7642    2.5200 C   0  0  0  0  0  0  0  0  0  0  0  0
    4.2315    0.4747    1.6713 C   0  0  0  0  0  0  0  0  0  0  0  0
    3.7026   -0.6717    1.1484 C   0  0  0  0  0  0  0  0  0  0  0  0
    4.1785   -1.9991    1.4899 C   0  0  0  0  0  0  0  0  0  0  0  0
    3.6077   -3.1600    0.9251 C   0  0  0  0  0  0  0  0  0  0  0  0
    4.0858   -4.4151    1.2775 C   0  0  0  0  0  0  0  0  0  0  0  0
    5.1398   -4.5398    2.2007 C   0  0  0  0  0  0  0  0  0  0  0  0
    5.7099   -3.4075    2.7668 C   0  0  0  0  0  0  0  0  0  0  0  0
    5.2425   -2.1236    2.4237 C   0  0  0  0  0  0  0  0  0  0  0  0
    5.8304   -0.9195    3.0073 C   0  0  0  0  0  0  0  0  0  0  0  0
    6.8213   -1.0287    3.8799 N   0  0  0  0  0  0  0  0  0  0  0  0
    7.3451    0.0979    4.4016 C   0  0  0  0  0  0  0  0  0  0  0  0
    8.4093    0.0212    5.3473 C   0  0  0  0  0  0  0  0  0  0  0  0
    8.9468    1.1720    5.8766 C   0  0  0  0  0  0  0  0  0  0  0  0
    8.4514    2.4507    5.4889 C   0  0  0  0  0  0  0  0  0  0  0  0
    7.4256    2.5618    4.5784 C   0  0  0  0  0  0  0  0  0  0  0  0
    6.8430    1.3907    4.0105 C   0  0  0  0  0  0  0  0  0  0  0  0
    5.8376    1.4972    3.1205 N   0  0  0  0  0  0  0  0  0  0  0  0
    5.3205    0.3793    2.6207 C   0  0  0  0  0  0  0  0  0  0  0  0
    2.6384   -0.6539    0.2775 O   0  0  0  0  0  0  0  0  0  0  0  0
    2.5562    2.5881   -0.4790 H   0  0  0  0  0  0  0  0  0  0  0  0
    3.9618    1.5708   -0.8689 H   0  0  0  0  0  0  0  0  0  0  0  0
    4.5151    2.5303    1.2474 H   0  0  0  0  0  0  0  0  0  0  0  0
    1.6554    0.5076    2.6708 H   0  0  0  0  0  0  0  0  0  0  0  0
   -0.0371    1.5002    4.1723 H   0  0  0  0  0  0  0  0  0  0  0  0
    1.7042    5.3988    3.5723 H   0  0  0  0  0  0  0  0  0  0  0  0
    3.3997    4.4068    2.0622 H   0  0  0  0  0  0  0  0  0  0  0  0
    2.7878   -3.0542    0.2142 H   0  0  0  0  0  0  0  0  0  0  0  0
    3.6388   -5.3089    0.8355 H   0  0  0  0  0  0  0  0  0  0  0  0
    5.5108   -5.5309    2.4737 H   0  0  0  0  0  0  0  0  0  0  0  0
    6.5275   -3.4798    3.4850 H   0  0  0  0  0  0  0  0  0  0  0  0
    8.7707   -0.9704    5.6268 H   0  0  0  0  0  0  0  0  0  0  0  0
    9.7620    1.1116    6.6019 H   0  0  0  0  0  0  0  0  0  0  0  0
    8.8946    3.3499    5.9241 H   0  0  0  0  0  0  0  0  0  0  0  0
    7.0277    3.5299    4.2681 H   0  0  0  0  0  0  0  0  0  0  0  0
  1  2  2  0
  2  3  1  0
  2 33  1  0
  3  4  1  0
  3 34  1  0
  3 35  1  0
  4  5  1  0
  4 15  1  0
  4 36  1  6
  5  6  2  0
  5 14  1  0
  6  7  1  0
  6 37  1  0
  7  8  2  0
  7 38  1  0
  8  9  1  0
  8 13  1  0
  9 10  1  1
  9 11  1  0
  9 12  1  0
 13 14  2  0
 13 39  1  0
 14 40  1  0
 15 16  2  0
 15 32  1  0
 16 17  1  0
 16 33  1  0
 17 18  2  0
 17 22  1  0
 18 19  1  0
 18 41  1  0
 19 20  2  0
 19 42  1  0
 20 21  1  0
 20 43  1  0
 21 22  2  0
 21 44  1  0
 22 23  1  0
 23 24  1  0
 23 32  2  0
 24 25  2  0
 25 26  1  0
 25 30  1  0
 26 27  2  0
 26 45  1  0
 27 28  1  0
 27 46  1  0
 28 29  2  0
 28 47  1  0
 29 30  1  0
 29 48  1  0
 30 31  2  0
 31 32  1  0
M  END

