
     RDKit          3D

 88 93  0  0  0  0  0  0  0  0999 V2000
    5.7314    0.6788    0.7719 C   0  0  0  0  0  0  0  0  0  0  0  0
    4.4509    1.0695    1.5280 C   0  0  0  0  0  0  0  0  0  0  0  0
    3.3202    1.4807    0.6061 C   0  0  0  0  0  0  0  0  0  0  0  0
    3.1330    2.8361    0.3013 C   0  0  0  0  0  0  0  0  0  0  0  0
    2.1519    3.2383   -0.6038 C   0  0  0  0  0  0  0  0  0  0  0  0
    1.3348    2.2822   -1.2069 C   0  0  0  0  0  0  0  0  0  0  0  0
    1.4683    0.9164   -0.9165 C   0  0  0  0  0  0  0  0  0  0  0  0
    0.5101   -0.0781   -1.5398 C   0  0  0  0  0  0  0  0  0  0  0  0
   -0.5674   -0.5949   -0.5733 C   0  0  0  0  0  0  0  0  0  0  0  0
    2.4773    0.5266   -0.0073 C   0  0  0  0  0  0  0  0  0  0  0  0
    2.6428   -0.8470    0.3462 N   0  0  0  0  0  0  0  0  0  0  0  0
    3.0684   -1.8519   -0.4796 C   0  0  0  0  0  0  0  0  0  0  0  0
    3.2793   -1.7284   -1.6780 O   0  0  0  0  0  0  0  0  0  0  0  0
    3.2568   -3.1597    0.2138 C   0  0  0  0  0  0  0  0  0  0  0  0
    3.0589   -3.2952    1.5334 N   0  0  0  0  0  0  0  0  0  0  0  0
    3.3287   -4.5635    1.8315 N   0  0  0  0  0  0  0  0  0  0  0  0
    3.1871   -5.0187    3.2036 C   0  0  0  0  0  0  0  0  0  0  0  0
    3.7099   -5.2681    0.7179 C   0  0  0  0  0  0  0  0  0  0  0  0
    3.6834   -4.3788   -0.3565 C   0  0  0  0  0  0  0  0  0  0  0  0
    4.0260   -4.8082   -1.7513 C   0  0  0  0  0  0  0  0  0  0  0  0
    5.0340   -5.9701   -1.6941 C   0  0  0  0  0  0  0  0  0  0  0  0
    4.6691   -7.0238   -0.6700 C   0  0  0  0  0  0  0  0  0  0  0  0
    4.9539   -8.3840   -0.8182 C   0  0  0  0  0  0  0  0  0  0  0  0
    4.6861   -9.2949    0.1113 N   0  0  0  0  0  0  0  0  0  0  0  0
    4.1121   -8.8528    1.2437 C   0  0  0  0  0  0  0  0  0  0  0  0
    3.8747   -9.8582    2.1597 N   0  0  0  0  0  0  0  0  0  0  0  0
    3.2660   -9.8753    3.4041 C   0  0  0  0  0  0  0  0  0  0  0  0
    2.6707   -8.7670    4.0377 C   0  0  0  0  0  0  0  0  0  0  0  0
    2.0976   -8.8943    5.2997 C   0  0  0  0  0  0  0  0  0  0  0  0
    2.0709  -10.1207    5.9805 C   0  0  0  0  0  0  0  0  0  0  0  0
    1.5247  -10.1360    7.3864 C   0  0  0  0  0  0  0  0  0  0  0  0
    1.7677   -9.1896    8.1236 O   0  0  0  0  0  0  0  0  0  0  0  0
    0.7812  -11.2220    7.8096 N   0  0  0  0  0  0  0  0  0  0  0  0
    0.3642  -11.2391    9.2116 C   0  0  0  0  0  0  0  0  0  0  0  0
    0.4550  -12.6154    9.8785 C   0  0  0  0  0  0  0  0  0  0  0  0
   -0.5224  -13.6649    9.3126 C   0  0  0  0  0  0  0  0  0  0  0  0
   -0.1277  -14.3731    8.0982 N   0  0  0  0  0  0  0  0  0  0  0  0
    0.5046  -15.6578    8.3092 C   0  0  0  0  0  0  0  0  0  0  0  0
    0.5406  -13.6142    7.0517 C   0  0  0  0  0  0  0  0  0  0  0  0
    0.0976  -12.1525    6.9121 C   0  0  0  0  0  0  0  0  0  0  0  0
    2.6771  -11.2270    5.3680 C   0  0  0  0  0  0  0  0  0  0  0  0
    3.2408  -11.1036    4.1048 C   0  0  0  0  0  0  0  0  0  0  0  0
    3.8840  -12.1943    3.4970 O   0  0  0  0  0  0  0  0  0  0  0  0
    3.1394  -13.2478    3.0830 C   0  0  1  0  0  0  0  0  0  0  0  0
    2.1502  -12.8742    2.2612 F   0  0  0  0  0  0  0  0  0  0  0  0
    3.9426  -14.0813    2.4382 F   0  0  0  0  0  0  0  0  0  0  0  0
    2.5735  -13.9122    4.1055 F   0  0  0  0  0  0  0  0  0  0  0  0
    3.7830   -7.5835    1.5094 N   0  0  0  0  0  0  0  0  0  0  0  0
    4.0600   -6.6771    0.5592 C   0  0  0  0  0  0  0  0  0  0  0  0
    6.5267    0.3779    1.4730 H   0  0  0  0  0  0  0  0  0  0  0  0
    6.1064    1.5246    0.1741 H   0  0  0  0  0  0  0  0  0  0  0  0
    5.5510   -0.1579    0.0795 H   0  0  0  0  0  0  0  0  0  0  0  0
    4.6739    1.9077    2.2082 H   0  0  0  0  0  0  0  0  0  0  0  0
    4.1448    0.2300    2.1736 H   0  0  0  0  0  0  0  0  0  0  0  0
    3.7773    3.5815    0.7765 H   0  0  0  0  0  0  0  0  0  0  0  0
    2.0219    4.2979   -0.8385 H   0  0  0  0  0  0  0  0  0  0  0  0
    0.5625    2.5962   -1.9146 H   0  0  0  0  0  0  0  0  0  0  0  0
    1.0795   -0.9206   -1.9596 H   0  0  0  0  0  0  0  0  0  0  0  0
    0.0162    0.4127   -2.3942 H   0  0  0  0  0  0  0  0  0  0  0  0
   -0.1214   -1.1250    0.2822 H   0  0  0  0  0  0  0  0  0  0  0  0
   -1.2444   -1.2977   -1.0857 H   0  0  0  0  0  0  0  0  0  0  0  0
   -1.1779    0.2320   -0.1757 H   0  0  0  0  0  0  0  0  0  0  0  0
    2.5977   -1.0953    1.3312 H   0  0  0  0  0  0  0  0  0  0  0  0
    3.2682   -4.1389    3.8532 H   0  0  0  0  0  0  0  0  0  0  0  0
    3.9740   -5.7433    3.4419 H   0  0  0  0  0  0  0  0  0  0  0  0
    2.2069   -5.4953    3.3588 H   0  0  0  0  0  0  0  0  0  0  0  0
    4.4206   -3.9604   -2.3266 H   0  0  0  0  0  0  0  0  0  0  0  0
    3.1030   -5.1270   -2.2707 H   0  0  0  0  0  0  0  0  0  0  0  0
    6.0269   -5.5588   -1.4292 H   0  0  0  0  0  0  0  0  0  0  0  0
    5.1479   -6.4355   -2.6856 H   0  0  0  0  0  0  0  0  0  0  0  0
    5.4244   -8.7501   -1.7397 H   0  0  0  0  0  0  0  0  0  0  0  0
    4.2324  -10.7514    1.8370 H   0  0  0  0  0  0  0  0  0  0  0  0
    2.6757   -7.8149    3.5172 H   0  0  0  0  0  0  0  0  0  0  0  0
    1.6644   -8.0195    5.7884 H   0  0  0  0  0  0  0  0  0  0  0  0
   -0.6814  -10.8765    9.2873 H   0  0  0  0  0  0  0  0  0  0  0  0
    0.9889  -10.5062    9.7359 H   0  0  0  0  0  0  0  0  0  0  0  0
    0.2146  -12.4635   10.9449 H   0  0  0  0  0  0  0  0  0  0  0  0
    1.4926  -12.9899    9.8450 H   0  0  0  0  0  0  0  0  0  0  0  0
   -1.4973  -13.1639    9.1527 H   0  0  0  0  0  0  0  0  0  0  0  0
   -0.7136  -14.4317   10.0785 H   0  0  0  0  0  0  0  0  0  0  0  0
   -0.0991  -16.2788    8.9892 H   0  0  0  0  0  0  0  0  0  0  0  0
    1.5366  -15.5945    8.7288 H   0  0  0  0  0  0  0  0  0  0  0  0
    0.5823  -16.1981    7.3506 H   0  0  0  0  0  0  0  0  0  0  0  0
    0.3601  -14.1250    6.0878 H   0  0  0  0  0  0  0  0  0  0  0  0
    1.6470  -13.6155    7.1879 H   0  0  0  0  0  0  0  0  0  0  0  0
   -0.9932  -12.0803    7.0762 H   0  0  0  0  0  0  0  0  0  0  0  0
    0.2697  -11.8301    5.8796 H   0  0  0  0  0  0  0  0  0  0  0  0
    2.7377  -12.1902    5.8720 H   0  0  0  0  0  0  0  0  0  0  0  0
  1  2  1  0
  1 50  1  0
  1 51  1  0
  1 52  1  0
  2  3  1  0
  2 53  1  0
  2 54  1  0
  3  4  2  0
  3 10  1  0
  4  5  1  0
  4 55  1  0
  5  6  2  0
  5 56  1  0
  6  7  1  0
  6 57  1  0
  7  8  1  0
  7 10  2  0
  8  9  1  0
  8 58  1  0
  8 59  1  0
  9 60  1  0
  9 61  1  0
  9 62  1  0
 10 11  1  0
 11 12  1  0
 11 63  1  0
 12 13  2  0
 12 14  1  0
 14 15  2  0
 14 19  1  0
 15 16  1  0
 16 17  1  0
 16 18  1  0
 17 64  1  0
 17 65  1  0
 17 66  1  0
 18 19  2  0
 18 49  1  0
 19 20  1  0
 20 21  1  0
 20 67  1  0
 20 68  1  0
 21 22  1  0
 21 69  1  0
 21 70  1  0
 22 23  1  0
 22 49  2  0
 23 24  2  0
 23 71  1  0
 24 25  1  0
 25 26  1  0
 25 48  2  0
 26 27  1  0
 26 72  1  0
 27 28  2  0
 27 42  1  0
 28 29  1  0
 28 73  1  0
 29 30  2  0
 29 74  1  0
 30 31  1  0
 30 41  1  0
 31 32  2  0
 31 33  1  0
 33 34  1  0
 33 40  1  0
 34 35  1  0
 34 75  1  0
 34 76  1  0
 35 36  1  0
 35 77  1  0
 35 78  1  0
 36 37  1  0
 36 79  1  0
 36 80  1  0
 37 38  1  0
 37 39  1  0
 38 81  1  0
 38 82  1  0
 38 83  1  0
 39 40  1  0
 39 84  1  0
 39 85  1  0
 40 86  1  0
 40 87  1  0
 41 42  2  0
 41 88  1  0
 42 43  1  0
 43 44  1  0
 44 45  1  6
 44 46  1  0
 44 47  1  0
 48 49  1  0
M  END

