
     RDKit          3D

 43 44  0  0  0  0  0  0  0  0999 V2000
    5.8348   -3.0674    0.1796 C   0  0  0  0  0  0  0  0  0  0  0  0
    5.3828   -3.2674   -1.2746 C   0  0  0  0  0  0  0  0  0  0  0  0
    4.3875   -2.2388   -1.7296 C   0  0  0  0  0  0  0  0  0  0  0  0
    4.7746   -1.2379   -2.4860 N   0  0  0  0  0  0  0  0  0  0  0  0
    3.6466   -0.4630   -2.7002 O   0  0  0  0  0  0  0  0  0  0  0  0
    2.5916   -1.0126   -2.0696 C   0  0  0  0  0  0  0  0  0  0  0  0
    1.2897   -0.3008   -2.1895 C   0  0  0  0  0  0  0  0  0  0  0  0
    2.9839   -2.1584   -1.4292 C   0  0  0  0  0  0  0  0  0  0  0  0
    2.1539   -3.0957   -0.5970 C   0  0  0  0  0  0  0  0  0  0  0  0
    2.1580   -2.7468    0.8089 N   0  0  0  0  0  0  0  0  0  0  0  0
    1.6398   -3.5625    1.6607 C   0  0  0  0  0  0  0  0  0  0  0  0
    0.9520   -4.7284    1.3293 N   0  0  0  0  0  0  0  0  0  0  0  0
    1.7309   -3.3105    3.0263 N   0  0  0  0  0  0  0  0  0  0  0  0
    2.4875   -2.1383    3.4652 C   0  0  0  0  0  0  0  0  0  0  0  0
    1.5807   -0.9206    3.6752 C   0  0  0  0  0  0  0  0  0  0  0  0
    0.4328   -1.2554    4.6353 C   0  0  0  0  0  0  0  0  0  0  0  0
   -0.3340   -2.5118    4.1911 C   0  0  2  0  0  0  0  0  0  0  0  0
   -1.4224   -2.9142    5.1878 C   0  0  0  0  0  0  0  0  0  0  0  0
    0.6536   -3.6718    3.9461 C   0  0  0  0  0  0  0  0  0  0  0  0
    6.5454   -3.8539    0.4806 H   0  0  0  0  0  0  0  0  0  0  0  0
    4.9764   -3.0908    0.8684 H   0  0  0  0  0  0  0  0  0  0  0  0
    6.3337   -2.0929    0.2990 H   0  0  0  0  0  0  0  0  0  0  0  0
    4.9400   -4.2718   -1.3913 H   0  0  0  0  0  0  0  0  0  0  0  0
    6.2504   -3.2201   -1.9507 H   0  0  0  0  0  0  0  0  0  0  0  0
    1.3572    0.7111   -1.7575 H   0  0  0  0  0  0  0  0  0  0  0  0
    0.5010   -0.8482   -1.6561 H   0  0  0  0  0  0  0  0  0  0  0  0
    0.9940   -0.1892   -3.2454 H   0  0  0  0  0  0  0  0  0  0  0  0
    2.5282   -4.1296   -0.7736 H   0  0  0  0  0  0  0  0  0  0  0  0
    1.1203   -3.0889   -1.0036 H   0  0  0  0  0  0  0  0  0  0  0  0
    1.0215   -5.0079    0.3587 H   0  0  0  0  0  0  0  0  0  0  0  0
    1.0559   -5.5094    1.9684 H   0  0  0  0  0  0  0  0  0  0  0  0
    3.2575   -1.9270    2.7151 H   0  0  0  0  0  0  0  0  0  0  0  0
    2.9853   -2.4000    4.4181 H   0  0  0  0  0  0  0  0  0  0  0  0
    1.1816   -0.6129    2.6941 H   0  0  0  0  0  0  0  0  0  0  0  0
    2.1751   -0.0755    4.0621 H   0  0  0  0  0  0  0  0  0  0  0  0
   -0.2617   -0.4026    4.7265 H   0  0  0  0  0  0  0  0  0  0  0  0
    0.8420   -1.4308    5.6493 H   0  0  0  0  0  0  0  0  0  0  0  0
   -0.8133   -2.2914    3.2187 H   0  0  0  0  0  0  0  0  0  0  0  0
   -0.9890   -3.1649    6.1714 H   0  0  0  0  0  0  0  0  0  0  0  0
   -1.9884   -3.7936    4.8383 H   0  0  0  0  0  0  0  0  0  0  0  0
   -2.1419   -2.0944    5.3440 H   0  0  0  0  0  0  0  0  0  0  0  0
    0.1057   -4.5434    3.5657 H   0  0  0  0  0  0  0  0  0  0  0  0
    1.1049   -3.9696    4.9122 H   0  0  0  0  0  0  0  0  0  0  0  0
  1  2  1  0
  1 20  1  0
  1 21  1  0
  1 22  1  0
  2  3  1  0
  2 23  1  0
  2 24  1  0
  3  4  2  0
  3  8  1  0
  4  5  1  0
  5  6  1  0
  6  7  1  0
  6  8  2  0
  7 25  1  0
  7 26  1  0
  7 27  1  0
  8  9  1  0
  9 10  1  0
  9 28  1  0
  9 29  1  0
 10 11  2  0
 11 12  1  0
 11 13  1  0
 12 30  1  0
 12 31  1  0
 13 14  1  0
 13 19  1  0
 14 15  1  0
 14 32  1  0
 14 33  1  0
 15 16  1  0
 15 34  1  0
 15 35  1  0
 16 17  1  0
 16 36  1  0
 16 37  1  0
 17 18  1  0
 17 19  1  0
 17 38  1  6
 18 39  1  0
 18 40  1  0
 18 41  1  0
 19 42  1  0
 19 43  1  0
M  END

