
     RDKit          3D

 55 57  0  0  0  0  0  0  0  0999 V2000
    1.5972   -0.0608    0.6468 C   0  0  0  0  0  0  0  0  0  0  0  0
    2.7708   -0.5366   -0.1931 C   0  0  0  0  0  0  0  0  0  0  0  0
    3.4940   -1.5988    0.4562 O   0  0  0  0  0  0  0  0  0  0  0  0
    4.4609   -1.2509    1.3282 C   0  0  0  0  0  0  0  0  0  0  0  0
    4.7639   -0.1212    1.6031 O   0  0  0  0  0  0  0  0  0  0  0  0
    5.0921   -2.5124    1.8876 C   0  0  0  0  0  0  0  0  0  0  0  0
    6.0834   -2.1546    2.8196 O   0  0  0  0  0  0  0  0  0  0  0  0
    6.7554   -3.1663    3.3948 C   0  0  0  0  0  0  0  0  0  0  0  0
    7.7830   -3.0069    4.3558 C   0  0  0  0  0  0  0  0  0  0  0  0
    8.1674   -4.3038    4.6711 C   0  0  0  0  0  0  0  0  0  0  0  0
    9.1421   -4.7381    5.6893 C   0  0  0  0  0  0  0  0  0  0  0  0
    8.8511   -5.7582    6.6198 C   0  0  0  0  0  0  0  0  0  0  0  0
    9.7626   -6.1100    7.6061 C   0  0  0  0  0  0  0  0  0  0  0  0
   11.0011   -5.4491    7.7028 C   0  0  0  0  0  0  0  0  0  0  0  0
   11.8229   -5.8637    8.6978 O   0  0  0  0  0  0  0  0  0  0  0  0
   13.0742   -5.2367    8.8691 C   0  0  0  0  0  0  0  0  0  0  0  0
   11.3036   -4.4261    6.7917 C   0  0  0  0  0  0  0  0  0  0  0  0
   10.3779   -4.0833    5.8009 C   0  0  0  0  0  0  0  0  0  0  0  0
    7.3894   -5.1376    3.8953 N   0  0  0  0  0  0  0  0  0  0  0  0
    7.4339   -6.5507    3.7438 C   0  0  0  0  0  0  0  0  0  0  0  0
    6.2355   -7.2619    3.6070 C   0  0  0  0  0  0  0  0  0  0  0  0
    6.2636   -8.6466    3.4371 C   0  0  0  0  0  0  0  0  0  0  0  0
    7.4714   -9.3609    3.4049 C   0  0  0  0  0  0  0  0  0  0  0  0
    7.4805  -10.8736    3.2262 C   0  0  1  0  0  0  0  0  0  0  0  0
    8.1772  -11.2959    1.9209 C   0  0  0  0  0  0  0  0  0  0  0  0
    8.0884  -11.5948    4.4417 C   0  0  0  0  0  0  0  0  0  0  0  0
    8.6623   -8.6267    3.5338 C   0  0  0  0  0  0  0  0  0  0  0  0
    8.6530   -7.2404    3.6905 C   0  0  0  0  0  0  0  0  0  0  0  0
    6.5160   -4.4364    3.1197 N   0  0  0  0  0  0  0  0  0  0  0  0
    1.0188    0.6938    0.0898 H   0  0  0  0  0  0  0  0  0  0  0  0
    1.9481    0.4004    1.5819 H   0  0  0  0  0  0  0  0  0  0  0  0
    0.9242   -0.8968    0.8936 H   0  0  0  0  0  0  0  0  0  0  0  0
    3.4652    0.2908   -0.4024 H   0  0  0  0  0  0  0  0  0  0  0  0
    2.4314   -0.9703   -1.1449 H   0  0  0  0  0  0  0  0  0  0  0  0
    5.5095   -3.1099    1.0575 H   0  0  0  0  0  0  0  0  0  0  0  0
    4.3068   -3.1390    2.3473 H   0  0  0  0  0  0  0  0  0  0  0  0
    8.1442   -2.0824    4.7964 H   0  0  0  0  0  0  0  0  0  0  0  0
    7.8898   -6.2735    6.5754 H   0  0  0  0  0  0  0  0  0  0  0  0
    9.5371   -6.8954    8.3301 H   0  0  0  0  0  0  0  0  0  0  0  0
   13.5555   -5.7272    9.7258 H   0  0  0  0  0  0  0  0  0  0  0  0
   12.9676   -4.1588    9.0878 H   0  0  0  0  0  0  0  0  0  0  0  0
   13.7200   -5.3561    7.9803 H   0  0  0  0  0  0  0  0  0  0  0  0
   12.2534   -3.8932    6.8386 H   0  0  0  0  0  0  0  0  0  0  0  0
   10.6290   -3.2920    5.0905 H   0  0  0  0  0  0  0  0  0  0  0  0
    5.2913   -6.7165    3.6251 H   0  0  0  0  0  0  0  0  0  0  0  0
    5.3184   -9.1872    3.3313 H   0  0  0  0  0  0  0  0  0  0  0  0
    6.4253  -11.1893    3.1516 H   0  0  0  0  0  0  0  0  0  0  0  0
    9.2468  -11.0287    1.9311 H   0  0  0  0  0  0  0  0  0  0  0  0
    7.7194  -10.8075    1.0466 H   0  0  0  0  0  0  0  0  0  0  0  0
    8.1098  -12.3869    1.7774 H   0  0  0  0  0  0  0  0  0  0  0  0
    9.1528  -11.3379    4.5716 H   0  0  0  0  0  0  0  0  0  0  0  0
    8.0241  -12.6885    4.3194 H   0  0  0  0  0  0  0  0  0  0  0  0
    7.5643  -11.3243    5.3717 H   0  0  0  0  0  0  0  0  0  0  0  0
    9.6267   -9.1403    3.4977 H   0  0  0  0  0  0  0  0  0  0  0  0
    9.5929   -6.6924    3.7627 H   0  0  0  0  0  0  0  0  0  0  0  0
  1  2  1  0
  1 30  1  0
  1 31  1  0
  1 32  1  0
  2  3  1  0
  2 33  1  0
  2 34  1  0
  3  4  1  0
  4  5  2  0
  4  6  1  0
  6  7  1  0
  6 35  1  0
  6 36  1  0
  7  8  1  0
  8  9  1  0
  8 29  2  0
  9 10  2  0
  9 37  1  0
 10 11  1  0
 10 19  1  0
 11 12  2  0
 11 18  1  0
 12 13  1  0
 12 38  1  0
 13 14  2  0
 13 39  1  0
 14 15  1  0
 14 17  1  0
 15 16  1  0
 16 40  1  0
 16 41  1  0
 16 42  1  0
 17 18  2  0
 17 43  1  0
 18 44  1  0
 19 20  1  0
 19 29  1  0
 20 21  2  0
 20 28  1  0
 21 22  1  0
 21 45  1  0
 22 23  2  0
 22 46  1  0
 23 24  1  0
 23 27  1  0
 24 25  1  0
 24 26  1  0
 24 47  1  6
 25 48  1  0
 25 49  1  0
 25 50  1  0
 26 51  1  0
 26 52  1  0
 26 53  1  0
 27 28  2  0
 27 54  1  0
 28 55  1  0
M  END

