
     RDKit          3D

 27 27  0  0  0  0  0  0  0  0999 V2000
    5.6123   -1.8192    0.7552 C   0  0  0  0  0  0  0  0  0  0  0  0
    4.6731   -0.6872    0.3323 C   0  0  1  0  0  0  0  0  0  0  0  0
    4.5415    0.4146    1.2897 N   0  0  0  0  0  0  0  0  0  0  0  0
    5.0591   -0.1512   -1.0650 C   0  0  0  0  0  0  0  0  0  0  0  0
    5.5188   -0.8651   -1.9334 O   0  0  0  0  0  0  0  0  0  0  0  0
    4.7777    1.1989   -1.2149 N   0  0  0  0  0  0  0  0  0  0  0  0
    4.9076    2.0464   -2.2994 C   0  0  0  0  0  0  0  0  0  0  0  0
    4.5288    3.4100   -2.0617 C   0  0  0  0  0  0  0  0  0  0  0  0
    4.6621    4.3206   -3.1380 C   0  0  0  0  0  0  0  0  0  0  0  0
    5.1346    3.8811   -4.3843 C   0  0  0  0  0  0  0  0  0  0  0  0
    5.2673    5.0611   -5.6416 Cl  0  0  0  0  0  0  0  0  0  0  0  0
    5.5052    2.5163   -4.6467 C   0  0  0  0  0  0  0  0  0  0  0  0
    6.0028    2.0485   -5.9669 C   0  0  1  0  0  0  0  0  0  0  0  0
    5.1244    2.2650   -6.9810 F   0  0  0  0  0  0  0  0  0  0  0  0
    7.1530    2.6595   -6.3583 F   0  0  0  0  0  0  0  0  0  0  0  0
    6.2568    0.7253   -5.9507 F   0  0  0  0  0  0  0  0  0  0  0  0
    5.3822    1.6000   -3.5509 C   0  0  0  0  0  0  0  0  0  0  0  0
    5.2533   -2.2875    1.6844 H   0  0  0  0  0  0  0  0  0  0  0  0
    6.6316   -1.4357    0.9291 H   0  0  0  0  0  0  0  0  0  0  0  0
    5.6738   -2.5853   -0.0298 H   0  0  0  0  0  0  0  0  0  0  0  0
    3.6611   -1.1094    0.1878 H   0  0  0  0  0  0  0  0  0  0  0  0
    5.4361    0.6117    1.7419 H   0  0  0  0  0  0  0  0  0  0  0  0
    3.8796    0.1885    2.0301 H   0  0  0  0  0  0  0  0  0  0  0  0
    4.4299    1.5952   -0.3326 H   0  0  0  0  0  0  0  0  0  0  0  0
    4.1640    3.7303   -1.0858 H   0  0  0  0  0  0  0  0  0  0  0  0
    4.4031    5.3727   -3.0186 H   0  0  0  0  0  0  0  0  0  0  0  0
    5.6541    0.5574   -3.6814 H   0  0  0  0  0  0  0  0  0  0  0  0
  1  2  1  0
  1 18  1  0
  1 19  1  0
  1 20  1  0
  2  3  1  0
  2  4  1  0
  2 21  1  6
  3 22  1  0
  3 23  1  0
  4  5  2  0
  4  6  1  0
  6  7  1  0
  6 24  1  0
  7  8  2  0
  7 17  1  0
  8  9  1  0
  8 25  1  0
  9 10  2  0
  9 26  1  0
 10 11  1  0
 10 12  1  0
 12 13  1  0
 12 17  2  0
 13 14  1  6
 13 15  1  0
 13 16  1  0
 17 27  1  0
M  END

