
     RDKit          3D

 66 69  0  0  0  0  0  0  0  0999 V2000
   -0.4830    6.0551    3.9687 C   0  0  0  0  0  0  0  0  0  0  0  0
    1.0529    5.9706    4.0112 C   0  0  1  0  0  0  0  0  0  0  0  0
    1.5241    4.5681    4.4331 C   0  0  0  0  0  0  0  0  0  0  0  0
    1.6822    6.4152    2.6981 C   0  0  0  0  0  0  0  0  0  0  0  0
    2.4959    7.5552    2.6320 C   0  0  0  0  0  0  0  0  0  0  0  0
    3.0797    7.9909    1.4418 C   0  0  0  0  0  0  0  0  0  0  0  0
    2.8596    7.2792    0.2490 C   0  0  0  0  0  0  0  0  0  0  0  0
    3.4658    7.6739   -0.9859 N   0  0  0  0  0  0  0  0  0  0  0  0
    4.0289    8.9255   -1.2289 C   0  0  0  0  0  0  0  0  0  0  0  0
    3.9955    9.8786   -0.4850 O   0  0  0  0  0  0  0  0  0  0  0  0
    4.7021    8.9785   -2.6024 C   0  0  0  0  0  0  0  0  0  0  0  0
    4.9808    7.2576   -3.1203 S   0  0  0  0  0  0  0  0  0  0  0  0
    3.5123    6.7473   -2.1055 C   0  0  2  0  0  0  0  0  0  0  0  0
    3.7234    5.7306   -1.7443 H   0  0  0  0  0  0  0  0  0  0  0  0
    2.2604    6.7382   -2.9741 C   0  0  0  0  0  0  0  0  0  0  0  0
    2.1624    5.7779   -4.0171 C   0  0  0  0  0  0  0  0  0  0  0  0
    1.0440    5.7430   -4.8668 C   0  0  0  0  0  0  0  0  0  0  0  0
    0.0103    6.6447   -4.7146 C   0  0  0  0  0  0  0  0  0  0  0  0
    0.0799    7.6264   -3.6635 C   0  0  0  0  0  0  0  0  0  0  0  0
   -0.8980    8.5034   -3.4896 N   0  0  0  0  0  0  0  0  0  0  0  0
   -2.2969    8.4390   -4.1273 C   0  0  0  0  0  0  0  0  0  0  0  0
   -3.0370    7.6395   -3.5343 O   0  0  0  0  0  0  0  0  0  0  0  0
   -2.5064    9.3118   -5.2169 C   0  0  0  0  0  0  0  0  0  0  0  0
   -1.5353   10.2109   -5.7694 C   0  0  0  0  0  0  0  0  0  0  0  0
   -1.8447   11.0400   -6.8394 C   0  0  0  0  0  0  0  0  0  0  0  0
   -3.1183   11.0552   -7.4472 C   0  0  0  0  0  0  0  0  0  0  0  0
   -3.4909   11.9739   -8.6230 C   0  0  1  0  0  0  0  0  0  0  0  0
   -2.3055   12.8441   -9.0788 C   0  0  0  0  0  0  0  0  0  0  0  0
   -3.9512   11.1245   -9.8314 C   0  0  0  0  0  0  0  0  0  0  0  0
   -4.6429   12.9180   -8.2030 C   0  0  0  0  0  0  0  0  0  0  0  0
   -4.0801   10.1651   -6.8981 C   0  0  0  0  0  0  0  0  0  0  0  0
   -3.8043    9.3295   -5.8353 C   0  0  0  0  0  0  0  0  0  0  0  0
    1.2320    7.6384   -2.7974 C   0  0  0  0  0  0  0  0  0  0  0  0
    2.0416    6.1351    0.2984 C   0  0  0  0  0  0  0  0  0  0  0  0
    1.4712    5.7163    1.5009 C   0  0  0  0  0  0  0  0  0  0  0  0
   -0.9145    5.7925    4.9482 H   0  0  0  0  0  0  0  0  0  0  0  0
   -0.9045    5.3600    3.2238 H   0  0  0  0  0  0  0  0  0  0  0  0
   -0.8223    7.0697    3.7081 H   0  0  0  0  0  0  0  0  0  0  0  0
    1.3999    6.6794    4.7829 H   0  0  0  0  0  0  0  0  0  0  0  0
    1.1955    3.7986    3.7151 H   0  0  0  0  0  0  0  0  0  0  0  0
    1.1088    4.2991    5.4178 H   0  0  0  0  0  0  0  0  0  0  0  0
    2.6221    4.5163    4.5006 H   0  0  0  0  0  0  0  0  0  0  0  0
    2.6863    8.1294    3.5433 H   0  0  0  0  0  0  0  0  0  0  0  0
    3.6938    8.8868    1.4364 H   0  0  0  0  0  0  0  0  0  0  0  0
    5.6566    9.5128   -2.5094 H   0  0  0  0  0  0  0  0  0  0  0  0
    4.0612    9.5344   -3.3072 H   0  0  0  0  0  0  0  0  0  0  0  0
    2.9742    5.0625   -4.1651 H   0  0  0  0  0  0  0  0  0  0  0  0
    0.9940    4.9925   -5.6578 H   0  0  0  0  0  0  0  0  0  0  0  0
   -0.8645    6.6281   -5.3605 H   0  0  0  0  0  0  0  0  0  0  0  0
   -0.8038    9.1245   -2.6849 H   0  0  0  0  0  0  0  0  0  0  0  0
   -0.5288   10.2619   -5.3491 H   0  0  0  0  0  0  0  0  0  0  0  0
   -1.0585   11.7012   -7.2076 H   0  0  0  0  0  0  0  0  0  0  0  0
   -1.4551   12.2316   -9.4178 H   0  0  0  0  0  0  0  0  0  0  0  0
   -1.9491   13.5045   -8.2726 H   0  0  0  0  0  0  0  0  0  0  0  0
   -2.6101   13.4854   -9.9217 H   0  0  0  0  0  0  0  0  0  0  0  0
   -3.1438   10.4561  -10.1713 H   0  0  0  0  0  0  0  0  0  0  0  0
   -4.2407   11.7698  -10.6784 H   0  0  0  0  0  0  0  0  0  0  0  0
   -4.8189   10.4954   -9.5806 H   0  0  0  0  0  0  0  0  0  0  0  0
   -4.3390   13.5541   -7.3563 H   0  0  0  0  0  0  0  0  0  0  0  0
   -5.5359   12.3553   -7.8902 H   0  0  0  0  0  0  0  0  0  0  0  0
   -4.9375   13.5766   -9.0381 H   0  0  0  0  0  0  0  0  0  0  0  0
   -5.0874   10.1336   -7.3235 H   0  0  0  0  0  0  0  0  0  0  0  0
   -4.5723    8.6640   -5.4373 H   0  0  0  0  0  0  0  0  0  0  0  0
    1.2627    8.3663   -1.9848 H   0  0  0  0  0  0  0  0  0  0  0  0
    1.8247    5.5596   -0.6013 H   0  0  0  0  0  0  0  0  0  0  0  0
    0.8409    4.8235    1.4904 H   0  0  0  0  0  0  0  0  0  0  0  0
  1  2  1  0
  1 36  1  0
  1 37  1  0
  1 38  1  0
  2  3  1  0
  2  4  1  0
  2 39  1  1
  3 40  1  0
  3 41  1  0
  3 42  1  0
  4  5  2  0
  4 35  1  0
  5  6  1  0
  5 43  1  0
  6  7  2  0
  6 44  1  0
  7  8  1  0
  7 34  1  0
  8  9  1  0
  8 13  1  0
  9 10  2  0
  9 11  1  0
 11 12  1  0
 11 45  1  0
 11 46  1  0
 12 13  1  0
 13 14  1  1
 13 15  1  0
 15 16  2  0
 15 33  1  0
 16 17  1  0
 16 47  1  0
 17 18  2  0
 17 48  1  0
 18 19  1  0
 18 49  1  0
 19 20  1  0
 19 33  2  0
 20 21  1  0
 20 50  1  0
 21 22  2  0
 21 23  1  0
 23 24  2  0
 23 32  1  0
 24 25  1  0
 24 51  1  0
 25 26  2  0
 25 52  1  0
 26 27  1  0
 26 31  1  0
 27 28  1  1
 27 29  1  0
 27 30  1  0
 28 53  1  0
 28 54  1  0
 28 55  1  0
 29 56  1  0
 29 57  1  0
 29 58  1  0
 30 59  1  0
 30 60  1  0
 30 61  1  0
 31 32  2  0
 31 62  1  0
 32 63  1  0
 33 64  1  0
 34 35  2  0
 34 65  1  0
 35 66  1  0
M  END

