
     RDKit          3D

 37 38  0  0  0  0  0  0  0  0999 V2000
    5.7824    0.1771    3.5877 C   0  0  0  0  0  0  0  0  0  0  0  0
    4.4875    0.2000    3.9498 C   0  0  0  0  0  0  0  0  0  0  0  0
    3.2752   -0.2071    3.2214 C   0  0  0  0  0  0  0  0  0  0  0  0
    2.0352    0.0342    3.8460 C   0  0  0  0  0  0  0  0  0  0  0  0
    0.8187   -0.3046    3.2563 C   0  0  0  0  0  0  0  0  0  0  0  0
    0.8217   -0.9115    1.9999 C   0  0  0  0  0  0  0  0  0  0  0  0
    2.0280   -1.1761    1.3445 C   0  0  0  0  0  0  0  0  0  0  0  0
    3.2481   -0.8256    1.9404 C   0  0  0  0  0  0  0  0  0  0  0  0
    4.4578   -1.0458    1.3452 O   0  0  0  0  0  0  0  0  0  0  0  0
    4.5721   -1.7768    0.1285 C   0  0  1  0  0  0  0  0  0  0  0  0
    5.9472   -1.4516   -0.4395 C   0  0  0  0  0  0  0  0  0  0  0  0
    4.3610   -3.2028    0.3654 N   0  0  0  0  0  0  0  0  0  0  0  0
    5.2650   -3.8642    1.3165 C   0  0  0  0  0  0  0  0  0  0  0  0
    4.6858   -5.1598    1.8701 C   0  0  0  0  0  0  0  0  0  0  0  0
    4.2212   -6.0521    0.7221 C   0  0  0  0  0  0  0  0  0  0  0  0
    3.1370   -5.3268   -0.0741 C   0  0  0  0  0  0  0  0  0  0  0  0
    3.3982   -3.8545   -0.3780 C   0  0  0  0  0  0  0  0  0  0  0  0
    2.7237   -3.2752   -1.2188 O   0  0  0  0  0  0  0  0  0  0  0  0
    6.5431    0.5366    4.2863 H   0  0  0  0  0  0  0  0  0  0  0  0
    6.1148   -0.1765    2.6139 H   0  0  0  0  0  0  0  0  0  0  0  0
    4.2628    0.5899    4.9503 H   0  0  0  0  0  0  0  0  0  0  0  0
    2.0425    0.5080    4.8317 H   0  0  0  0  0  0  0  0  0  0  0  0
   -0.1208   -0.0984    3.7740 H   0  0  0  0  0  0  0  0  0  0  0  0
   -0.1180   -1.1895    1.5158 H   0  0  0  0  0  0  0  0  0  0  0  0
    2.0021   -1.6592    0.3673 H   0  0  0  0  0  0  0  0  0  0  0  0
    3.7971   -1.4744   -0.5867 H   0  0  0  0  0  0  0  0  0  0  0  0
    6.7516   -1.7229    0.2602 H   0  0  0  0  0  0  0  0  0  0  0  0
    6.0182   -0.3722   -0.6368 H   0  0  0  0  0  0  0  0  0  0  0  0
    6.0992   -1.9928   -1.3852 H   0  0  0  0  0  0  0  0  0  0  0  0
    5.4691   -3.1528    2.1306 H   0  0  0  0  0  0  0  0  0  0  0  0
    6.2323   -4.0801    0.8235 H   0  0  0  0  0  0  0  0  0  0  0  0
    3.8366   -4.9337    2.5385 H   0  0  0  0  0  0  0  0  0  0  0  0
    5.4541   -5.6577    2.4831 H   0  0  0  0  0  0  0  0  0  0  0  0
    3.8392   -7.0167    1.0929 H   0  0  0  0  0  0  0  0  0  0  0  0
    5.0811   -6.2858    0.0687 H   0  0  0  0  0  0  0  0  0  0  0  0
    2.1842   -5.3368    0.4852 H   0  0  0  0  0  0  0  0  0  0  0  0
    2.9217   -5.8097   -1.0388 H   0  0  0  0  0  0  0  0  0  0  0  0
  1  2  2  0
  1 19  1  0
  1 20  1  0
  2  3  1  0
  2 21  1  0
  3  4  2  0
  3  8  1  0
  4  5  1  0
  4 22  1  0
  5  6  2  0
  5 23  1  0
  6  7  1  0
  6 24  1  0
  7  8  2  0
  7 25  1  0
  8  9  1  0
  9 10  1  0
 10 11  1  0
 10 12  1  0
 10 26  1  6
 11 27  1  0
 11 28  1  0
 11 29  1  0
 12 13  1  0
 12 17  1  0
 13 14  1  0
 13 30  1  0
 13 31  1  0
 14 15  1  0
 14 32  1  0
 14 33  1  0
 15 16  1  0
 15 34  1  0
 15 35  1  0
 16 17  1  0
 16 36  1  0
 16 37  1  0
 17 18  2  0
M  END

