
     RDKit          3D

 38 39  0  0  0  0  0  0  0  0999 V2000
    0.8257   -1.5460   -1.1025 C   0  0  0  0  0  0  0  0  0  0  0  0
    2.2885   -1.4983   -1.5089 C   0  0  0  0  0  0  0  0  0  0  0  0
    3.0448   -1.1138   -0.3772 O   0  0  0  0  0  0  0  0  0  0  0  0
    4.4665   -1.2533   -0.4307 C   0  0  1  0  0  0  0  0  0  0  0  0
    5.0735   -0.4349   -1.5764 C   0  0  0  0  0  0  0  0  0  0  0  0
    4.9257   -0.7359    0.9517 C   0  0  0  0  0  0  0  0  0  0  0  0
    6.4279   -0.7802    1.2252 C   0  0  0  0  0  0  0  0  0  0  0  0
    4.8234   -2.7280   -0.5638 C   0  0  0  0  0  0  0  0  0  0  0  0
    5.7007   -3.1691   -1.4470 N   0  0  0  0  0  0  0  0  0  0  0  0
    5.7481   -4.5579   -1.2107 O   0  0  0  0  0  0  0  0  0  0  0  0
    4.8739   -4.8129   -0.1987 C   0  0  0  0  0  0  0  0  0  0  0  0
    4.6946   -6.1635    0.2605 C   0  0  0  0  0  0  0  0  0  0  0  0
    5.4044   -7.2441   -0.2803 C   0  0  0  0  0  0  0  0  0  0  0  0
    5.2139   -8.5772    0.1925 C   0  0  0  0  0  0  0  0  0  0  0  0
    4.3104   -8.8484    1.2111 C   0  0  0  0  0  0  0  0  0  0  0  0
    4.0531  -10.6157    1.8506 Br  0  0  0  0  0  0  0  0  0  0  0  0
    3.5663   -7.7800    1.7861 C   0  0  0  0  0  0  0  0  0  0  0  0
    3.7513   -6.4693    1.3237 C   0  0  0  0  0  0  0  0  0  0  0  0
    3.0531   -5.4261    1.8461 N   0  0  0  0  0  0  0  0  0  0  0  0
    4.2873   -3.6876    0.2264 N   0  0  0  0  0  0  0  0  0  0  0  0
    0.1917   -1.8117   -1.9632 H   0  0  0  0  0  0  0  0  0  0  0  0
    0.4999   -0.5664   -0.7189 H   0  0  0  0  0  0  0  0  0  0  0  0
    0.6693   -2.2916   -0.3074 H   0  0  0  0  0  0  0  0  0  0  0  0
    2.4253   -0.7791   -2.3398 H   0  0  0  0  0  0  0  0  0  0  0  0
    2.6128   -2.4884   -1.8840 H   0  0  0  0  0  0  0  0  0  0  0  0
    4.7713    0.6183   -1.4703 H   0  0  0  0  0  0  0  0  0  0  0  0
    4.7438   -0.8049   -2.5567 H   0  0  0  0  0  0  0  0  0  0  0  0
    6.1696   -0.4983   -1.5682 H   0  0  0  0  0  0  0  0  0  0  0  0
    4.3843   -1.3327    1.7027 H   0  0  0  0  0  0  0  0  0  0  0  0
    4.5462    0.2955    1.0427 H   0  0  0  0  0  0  0  0  0  0  0  0
    6.8358   -1.7976    1.1147 H   0  0  0  0  0  0  0  0  0  0  0  0
    6.6375   -0.4488    2.2545 H   0  0  0  0  0  0  0  0  0  0  0  0
    6.9943   -0.1211    0.5488 H   0  0  0  0  0  0  0  0  0  0  0  0
    6.1213   -7.0615   -1.0810 H   0  0  0  0  0  0  0  0  0  0  0  0
    5.7907   -9.3874   -0.2573 H   0  0  0  0  0  0  0  0  0  0  0  0
    2.8485   -7.9736    2.5852 H   0  0  0  0  0  0  0  0  0  0  0  0
    2.3830   -5.5770    2.5923 H   0  0  0  0  0  0  0  0  0  0  0  0
    3.2438   -4.4761    1.4554 H   0  0  0  0  0  0  0  0  0  0  0  0
  1  2  1  0
  1 21  1  0
  1 22  1  0
  1 23  1  0
  2  3  1  0
  2 24  1  0
  2 25  1  0
  4  3  1  1
  4  5  1  0
  4  6  1  0
  4  8  1  0
  5 26  1  0
  5 27  1  0
  5 28  1  0
  6  7  1  0
  6 29  1  0
  6 30  1  0
  7 31  1  0
  7 32  1  0
  7 33  1  0
  8  9  2  0
  8 20  1  0
  9 10  1  0
 10 11  1  0
 11 12  1  0
 11 20  2  0
 12 13  2  0
 12 18  1  0
 13 14  1  0
 13 34  1  0
 14 15  2  0
 14 35  1  0
 15 16  1  0
 15 17  1  0
 17 18  2  0
 17 36  1  0
 18 19  1  0
 19 37  1  0
 19 38  1  0
M  END

