
     RDKit          3D

 33 34  0  0  0  0  0  0  0  0999 V2000
    7.4252    3.0390   -5.7775 C   0  0  0  0  0  0  0  0  0  0  0  0
    7.2384    2.2840   -4.4882 C   0  0  0  0  0  0  0  0  0  0  0  0
    6.7861    0.9600   -4.4418 C   0  0  0  0  0  0  0  0  0  0  0  0
    6.6262    0.2922   -3.2228 C   0  0  0  0  0  0  0  0  0  0  0  0
    6.2568   -1.0421   -3.1831 O   0  0  0  0  0  0  0  0  0  0  0  0
    5.1710   -1.5150   -3.8666 C   0  0  0  0  0  0  0  0  0  0  0  0
    4.0420   -0.7385   -4.1625 C   0  0  0  0  0  0  0  0  0  0  0  0
    2.9565   -1.3284   -4.8095 C   0  0  0  0  0  0  0  0  0  0  0  0
    2.9729   -2.6811   -5.1645 C   0  0  0  0  0  0  0  0  0  0  0  0
    1.5941   -3.3737   -5.9705 Cl  0  0  0  0  0  0  0  0  0  0  0  0
    4.1079   -3.4533   -4.8599 C   0  0  0  0  0  0  0  0  0  0  0  0
    4.1833   -5.1400   -5.2797 Cl  0  0  0  0  0  0  0  0  0  0  0  0
    5.2015   -2.8695   -4.2172 C   0  0  0  0  0  0  0  0  0  0  0  0
    6.9318    0.9160   -2.0032 C   0  0  0  0  0  0  0  0  0  0  0  0
    6.7664    0.1845   -0.6826 C   0  0  2  0  0  0  0  0  0  0  0  0
    7.1628   -0.8406   -0.8192 H   0  0  0  0  0  0  0  0  0  0  0  0
    5.2948    0.0789   -0.2616 C   0  0  0  0  0  0  0  0  0  0  0  0
    7.5222    0.8802    0.2947 O   0  0  0  0  0  0  0  0  0  0  0  0
    7.3982    2.2357   -2.0430 C   0  0  0  0  0  0  0  0  0  0  0  0
    7.5346    2.8894   -3.2606 C   0  0  0  0  0  0  0  0  0  0  0  0
    7.9807    4.1601   -3.2700 F   0  0  0  0  0  0  0  0  0  0  0  0
    7.1665    2.4150   -6.6446 H   0  0  0  0  0  0  0  0  0  0  0  0
    8.4679    3.3768   -5.8936 H   0  0  0  0  0  0  0  0  0  0  0  0
    6.7969    3.9446   -5.8044 H   0  0  0  0  0  0  0  0  0  0  0  0
    6.5615    0.4339   -5.3723 H   0  0  0  0  0  0  0  0  0  0  0  0
    4.0089    0.3167   -3.8895 H   0  0  0  0  0  0  0  0  0  0  0  0
    2.0701   -0.7360   -5.0431 H   0  0  0  0  0  0  0  0  0  0  0  0
    6.0838   -3.4648   -3.9818 H   0  0  0  0  0  0  0  0  0  0  0  0
    5.2075   -0.4738    0.6899 H   0  0  0  0  0  0  0  0  0  0  0  0
    4.6972   -0.4586   -1.0122 H   0  0  0  0  0  0  0  0  0  0  0  0
    4.8681    1.0841   -0.1204 H   0  0  0  0  0  0  0  0  0  0  0  0
    7.3812    0.4470    1.1455 H   0  0  0  0  0  0  0  0  0  0  0  0
    7.6655    2.7443   -1.1172 H   0  0  0  0  0  0  0  0  0  0  0  0
  1  2  1  0
  1 22  1  0
  1 23  1  0
  1 24  1  0
  2  3  2  0
  2 20  1  0
  3  4  1  0
  3 25  1  0
  4  5  1  0
  4 14  2  0
  5  6  1  0
  6  7  2  0
  6 13  1  0
  7  8  1  0
  7 26  1  0
  8  9  2  0
  8 27  1  0
  9 10  1  0
  9 11  1  0
 11 12  1  0
 11 13  2  0
 13 28  1  0
 14 15  1  0
 14 19  1  0
 15 16  1  6
 15 17  1  0
 15 18  1  0
 17 29  1  0
 17 30  1  0
 17 31  1  0
 18 32  1  0
 19 20  2  0
 19 33  1  0
 20 21  1  0
M  END

