
     RDKit          3D

 43 44  0  0  0  0  0  0  0  0999 V2000
    3.4129    7.7921   -4.6428 C   0  0  0  0  0  0  0  0  0  0  0  0
    4.3620    6.9769   -5.3066 O   0  0  0  0  0  0  0  0  0  0  0  0
    4.4131    5.6557   -5.0567 C   0  0  0  0  0  0  0  0  0  0  0  0
    3.6646    5.0095   -4.0200 C   0  0  0  0  0  0  0  0  0  0  0  0
    3.7496    3.5918   -3.9337 C   0  0  0  0  0  0  0  0  0  0  0  0
    4.5850    2.8232   -4.8021 C   0  0  0  0  0  0  0  0  0  0  0  0
    4.6491    1.3359   -4.5426 C   0  0  1  0  0  0  0  0  0  0  0  0
    3.4660    0.8617   -3.9296 O   0  0  0  0  0  0  0  0  0  0  0  0
    5.0314    0.3666   -5.7589 C   0  0  1  0  0  0  0  0  0  0  0  0
    6.2895    0.7531   -6.3044 O   0  0  0  0  0  0  0  0  0  0  0  0
    7.4787    0.5312   -5.5817 C   0  0  0  0  0  0  0  0  0  0  0  0
    5.0711   -1.0719   -5.2022 C   0  0  0  0  0  0  0  0  0  0  0  0
    5.3035   -2.2083   -6.2109 C   0  0  0  0  0  0  0  0  0  0  0  0
    4.0823   -2.5291   -7.0877 C   0  0  0  0  0  0  0  0  0  0  0  0
    3.8899   -1.6426   -8.3344 C   0  0  0  0  0  0  0  0  0  0  0  0
    4.3465   -0.1791   -8.2125 C   0  0  0  0  0  0  0  0  0  0  0  0
    4.0092    0.5539   -6.9033 C   0  0  0  0  0  0  0  0  0  0  0  0
    5.3775    3.4798   -5.7873 C   0  0  0  0  0  0  0  0  0  0  0  0
    5.2512    4.8955   -5.9049 C   0  0  0  0  0  0  0  0  0  0  0  0
    5.8045    5.4998   -6.9704 F   0  0  0  0  0  0  0  0  0  0  0  0
    3.4836    8.7852   -5.1050 H   0  0  0  0  0  0  0  0  0  0  0  0
    3.6450    7.8775   -3.5674 H   0  0  0  0  0  0  0  0  0  0  0  0
    2.3916    7.3952   -4.7598 H   0  0  0  0  0  0  0  0  0  0  0  0
    3.2155    5.5824   -3.2079 H   0  0  0  0  0  0  0  0  0  0  0  0
    3.2402    3.0829   -3.1149 H   0  0  0  0  0  0  0  0  0  0  0  0
    5.4516    1.1662   -3.7949 H   0  0  0  0  0  0  0  0  0  0  0  0
    2.7237    1.3501   -4.3176 H   0  0  0  0  0  0  0  0  0  0  0  0
    8.2763    1.0610   -6.1227 H   0  0  0  0  0  0  0  0  0  0  0  0
    7.7476   -0.5388   -5.5255 H   0  0  0  0  0  0  0  0  0  0  0  0
    7.4391    0.9348   -4.5535 H   0  0  0  0  0  0  0  0  0  0  0  0
    4.1203   -1.2432   -4.6779 H   0  0  0  0  0  0  0  0  0  0  0  0
    5.8450   -1.1169   -4.4180 H   0  0  0  0  0  0  0  0  0  0  0  0
    5.5577   -3.1090   -5.6267 H   0  0  0  0  0  0  0  0  0  0  0  0
    6.1869   -2.0002   -6.8395 H   0  0  0  0  0  0  0  0  0  0  0  0
    3.1844   -2.4709   -6.4472 H   0  0  0  0  0  0  0  0  0  0  0  0
    4.1356   -3.5805   -7.4171 H   0  0  0  0  0  0  0  0  0  0  0  0
    2.8230   -1.6743   -8.6180 H   0  0  0  0  0  0  0  0  0  0  0  0
    4.4322   -2.0899   -9.1857 H   0  0  0  0  0  0  0  0  0  0  0  0
    3.8997    0.3847   -9.0484 H   0  0  0  0  0  0  0  0  0  0  0  0
    5.4344   -0.1077   -8.3617 H   0  0  0  0  0  0  0  0  0  0  0  0
    3.0145    0.2578   -6.5308 H   0  0  0  0  0  0  0  0  0  0  0  0
    3.9625    1.6326   -7.1146 H   0  0  0  0  0  0  0  0  0  0  0  0
    6.0282    2.9392   -6.4662 H   0  0  0  0  0  0  0  0  0  0  0  0
  1  2  1  0
  1 21  1  0
  1 22  1  0
  1 23  1  0
  2  3  1  0
  3  4  2  0
  3 19  1  0
  4  5  1  0
  4 24  1  0
  5  6  2  0
  5 25  1  0
  6  7  1  0
  6 18  1  0
  7  8  1  0
  7  9  1  0
  7 26  1  1
  8 27  1  0
  9 10  1  6
  9 12  1  0
  9 17  1  0
 10 11  1  0
 11 28  1  0
 11 29  1  0
 11 30  1  0
 12 13  1  0
 12 31  1  0
 12 32  1  0
 13 14  1  0
 13 33  1  0
 13 34  1  0
 14 15  1  0
 14 35  1  0
 14 36  1  0
 15 16  1  0
 15 37  1  0
 15 38  1  0
 16 17  1  0
 16 39  1  0
 16 40  1  0
 17 41  1  0
 17 42  1  0
 18 19  2  0
 18 43  1  0
 19 20  1  0
M  END

