
     RDKit          3D

 41 41  0  0  0  0  0  0  0  0999 V2000
    4.6763    0.4003    3.1301 C   0  0  0  0  0  0  0  0  0  0  0  0
    3.8596   -0.8978    3.1501 C   0  0  1  0  0  0  0  0  0  0  0  0
    3.0601   -1.0381    4.4544 C   0  0  0  0  0  0  0  0  0  0  0  0
    2.8919   -1.0380    1.9586 C   0  0  0  0  0  0  0  0  0  0  0  0
    3.4778   -1.1570    0.5373 C   0  0  0  0  0  0  0  0  0  0  0  0
    4.3410   -2.3195    0.3395 N   0  0  0  0  0  0  0  0  0  0  0  0
    3.7856   -3.6294    0.0978 C   0  0  0  0  0  0  0  0  0  0  0  0
    4.1058   -4.0533   -1.3529 C   0  0  0  0  0  0  0  0  0  0  0  0
    5.5818   -3.8801   -1.7251 C   0  0  0  0  0  0  0  0  0  0  0  0
    6.1144   -2.4857   -1.3576 C   0  0  2  0  0  0  0  0  0  0  0  0
    7.6350   -2.2653   -1.5735 C   0  0  1  0  0  0  0  0  0  0  0  0
    8.1280   -2.8349   -2.9125 C   0  0  0  0  0  0  0  0  0  0  0  0
    8.0141   -0.7785   -1.4657 C   0  0  0  0  0  0  0  0  0  0  0  0
    5.7613   -2.1795    0.1259 C   0  0  0  0  0  0  0  0  0  0  0  0
    5.3184    0.4637    4.0284 H   0  0  0  0  0  0  0  0  0  0  0  0
    4.0145    1.2849    3.1220 H   0  0  0  0  0  0  0  0  0  0  0  0
    5.3366    0.4639    2.2329 H   0  0  0  0  0  0  0  0  0  0  0  0
    4.5742   -1.7453    3.1153 H   0  0  0  0  0  0  0  0  0  0  0  0
    2.2974   -0.2452    4.5397 H   0  0  0  0  0  0  0  0  0  0  0  0
    3.7202   -0.9578    5.3324 H   0  0  0  0  0  0  0  0  0  0  0  0
    2.5420   -2.0135    4.5067 H   0  0  0  0  0  0  0  0  0  0  0  0
    2.2349   -0.1470    1.9272 H   0  0  0  0  0  0  0  0  0  0  0  0
    2.2242   -1.9023    2.1252 H   0  0  0  0  0  0  0  0  0  0  0  0
    4.0782   -0.2646    0.2750 H   0  0  0  0  0  0  0  0  0  0  0  0
    2.6347   -1.2905   -0.1774 H   0  0  0  0  0  0  0  0  0  0  0  0
    2.6879   -3.5893    0.2710 H   0  0  0  0  0  0  0  0  0  0  0  0
    4.2538   -4.3292    0.8139 H   0  0  0  0  0  0  0  0  0  0  0  0
    3.4725   -3.4425   -2.0235 H   0  0  0  0  0  0  0  0  0  0  0  0
    3.7833   -5.1013   -1.4749 H   0  0  0  0  0  0  0  0  0  0  0  0
    5.6809   -4.0494   -2.8169 H   0  0  0  0  0  0  0  0  0  0  0  0
    6.1931   -4.6525   -1.2284 H   0  0  0  0  0  0  0  0  0  0  0  0
    5.5761   -1.7411   -1.9758 H   0  0  0  0  0  0  0  0  0  0  0  0
    8.1597   -2.8148   -0.7678 H   0  0  0  0  0  0  0  0  0  0  0  0
    7.5881   -2.3819   -3.7613 H   0  0  0  0  0  0  0  0  0  0  0  0
    8.0092   -3.9280   -2.9815 H   0  0  0  0  0  0  0  0  0  0  0  0
    9.1984   -2.6085   -3.0458 H   0  0  0  0  0  0  0  0  0  0  0  0
    7.5937   -0.2105   -2.3133 H   0  0  0  0  0  0  0  0  0  0  0  0
    9.1103   -0.6569   -1.4935 H   0  0  0  0  0  0  0  0  0  0  0  0
    7.6377   -0.2954   -0.5422 H   0  0  0  0  0  0  0  0  0  0  0  0
    6.0387   -1.1334    0.4231 H   0  0  0  0  0  0  0  0  0  0  0  0
    6.2792   -2.8991    0.7825 H   0  0  0  0  0  0  0  0  0  0  0  0
  1  2  1  0
  1 15  1  0
  1 16  1  0
  1 17  1  0
  2  3  1  0
  2  4  1  0
  2 18  1  1
  3 19  1  0
  3 20  1  0
  3 21  1  0
  4  5  1  0
  4 22  1  0
  4 23  1  0
  5  6  1  0
  5 24  1  0
  5 25  1  0
  6  7  1  0
  6 14  1  0
  7  8  1  0
  7 26  1  0
  7 27  1  0
  8  9  1  0
  8 28  1  0
  8 29  1  0
  9 10  1  0
  9 30  1  0
  9 31  1  0
 10 11  1  0
 10 14  1  0
 10 32  1  6
 11 12  1  0
 11 13  1  0
 11 33  1  1
 12 34  1  0
 12 35  1  0
 12 36  1  0
 13 37  1  0
 13 38  1  0
 13 39  1  0
 14 40  1  0
 14 41  1  0
M  END

