
     RDKit          3D

 42 44  0  0  0  0  0  0  0  0999 V2000
    4.3617    7.9012    2.0253 C   0  0  0  0  0  0  0  0  0  0  0  0
    5.5791    7.5046    1.4339 O   0  0  0  0  0  0  0  0  0  0  0  0
    5.5820    6.4733    0.5542 C   0  0  0  0  0  0  0  0  0  0  0  0
    4.4454    5.7467    0.1789 C   0  0  0  0  0  0  0  0  0  0  0  0
    4.5710    4.7194   -0.7584 C   0  0  0  0  0  0  0  0  0  0  0  0
    3.1238    3.8411   -1.2167 Cl  0  0  0  0  0  0  0  0  0  0  0  0
    5.8027    4.3472   -1.3430 C   0  0  0  0  0  0  0  0  0  0  0  0
    5.8595    3.2883   -2.2441 N   0  0  0  0  0  0  0  0  0  0  0  0
    6.4551    3.2596   -3.4911 C   0  0  0  0  0  0  0  0  0  0  0  0
    7.0515    4.3320   -4.0483 N   0  0  0  0  0  0  0  0  0  0  0  0
    7.6364    4.3107   -5.2405 C   0  0  0  0  0  0  0  0  0  0  0  0
    8.3773    5.5065   -5.7497 C   0  0  0  0  0  0  0  0  0  0  0  0
    7.5847    3.2113   -5.9663 N   0  0  0  0  0  0  0  0  0  0  0  0
    6.8586    2.1260   -5.5602 N   0  0  0  0  0  0  0  0  0  0  0  0
    7.0648    0.8909   -6.3394 C   0  0  1  0  0  0  0  0  0  0  0  0
    6.6743    1.1080   -7.8035 C   0  0  0  0  0  0  0  0  0  0  0  0
    8.4800    0.3545   -6.1855 C   0  0  1  0  0  0  0  0  0  0  0  0
    8.8753   -0.3823   -4.9310 C   0  0  0  0  0  0  0  0  0  0  0  0
    8.7205   -1.1334   -6.2294 C   0  0  0  0  0  0  0  0  0  0  0  0
    6.3455    2.0411   -4.2456 C   0  0  0  0  0  0  0  0  0  0  0  0
    5.8015    1.0145   -3.8185 O   0  0  0  0  0  0  0  0  0  0  0  0
    6.9361    5.0731   -0.8909 C   0  0  0  0  0  0  0  0  0  0  0  0
    8.5375    4.6040   -1.4032 Cl  0  0  0  0  0  0  0  0  0  0  0  0
    6.8296    6.1220    0.0138 C   0  0  0  0  0  0  0  0  0  0  0  0
    4.5965    8.7433    2.6897 H   0  0  0  0  0  0  0  0  0  0  0  0
    3.9115    7.0884    2.6236 H   0  0  0  0  0  0  0  0  0  0  0  0
    3.6279    8.2354    1.2697 H   0  0  0  0  0  0  0  0  0  0  0  0
    3.4588    5.9651    0.5825 H   0  0  0  0  0  0  0  0  0  0  0  0
    5.1551    2.5637   -2.1286 H   0  0  0  0  0  0  0  0  0  0  0  0
    7.6907    6.3605   -5.8634 H   0  0  0  0  0  0  0  0  0  0  0  0
    8.8363    5.2783   -6.7203 H   0  0  0  0  0  0  0  0  0  0  0  0
    9.1564    5.8033   -5.0300 H   0  0  0  0  0  0  0  0  0  0  0  0
    6.3685    0.1747   -5.8792 H   0  0  0  0  0  0  0  0  0  0  0  0
    7.3345    1.8447   -8.2842 H   0  0  0  0  0  0  0  0  0  0  0  0
    5.6373    1.4683   -7.8837 H   0  0  0  0  0  0  0  0  0  0  0  0
    6.7577    0.1583   -8.3531 H   0  0  0  0  0  0  0  0  0  0  0  0
    9.2457    0.9898   -6.6438 H   0  0  0  0  0  0  0  0  0  0  0  0
    8.1077   -0.5219   -4.1645 H   0  0  0  0  0  0  0  0  0  0  0  0
    9.8834   -0.2246   -4.5377 H   0  0  0  0  0  0  0  0  0  0  0  0
    7.8515   -1.7905   -6.3381 H   0  0  0  0  0  0  0  0  0  0  0  0
    9.6183   -1.4980   -6.7365 H   0  0  0  0  0  0  0  0  0  0  0  0
    7.7198    6.6605    0.3382 H   0  0  0  0  0  0  0  0  0  0  0  0
  1  2  1  0
  1 25  1  0
  1 26  1  0
  1 27  1  0
  2  3  1  0
  3  4  2  0
  3 24  1  0
  4  5  1  0
  4 28  1  0
  5  6  1  0
  5  7  2  0
  7  8  1  0
  7 22  1  0
  8  9  1  0
  8 29  1  0
  9 10  2  0
  9 20  1  0
 10 11  1  0
 11 12  1  0
 11 13  2  0
 12 30  1  0
 12 31  1  0
 12 32  1  0
 13 14  1  0
 14 15  1  0
 14 20  1  0
 15 16  1  0
 15 17  1  0
 15 33  1  1
 16 34  1  0
 16 35  1  0
 16 36  1  0
 17 18  1  0
 17 19  1  0
 17 37  1  6
 18 19  1  0
 18 38  1  0
 18 39  1  0
 19 40  1  0
 19 41  1  0
 20 21  2  0
 22 23  1  0
 22 24  2  0
 24 42  1  0
M  END

