
     RDKit          3D

 51 54  0  0  0  0  0  0  0  0999 V2000
    6.3059    3.4177   -1.3217 O   0  0  0  0  0  0  0  0  0  0  0  0
    7.2700    2.8221   -1.7201 C   0  0  0  0  0  0  0  0  0  0  0  0
    7.6498    2.9423   -3.0130 O   0  0  0  0  0  0  0  0  0  0  0  0
    8.1616    1.9268   -0.8462 C   0  0  1  0  0  0  0  0  0  0  0  0
    7.5941    1.8022    0.5786 C   0  0  0  0  0  0  0  0  0  0  0  0
    6.3508    0.8999    0.6424 C   0  0  0  0  0  0  0  0  0  0  0  0
    6.5708   -0.4837    0.0109 C   0  0  2  0  0  0  0  0  0  0  0  0
    7.4214   -1.3027    0.8791 N   0  0  0  0  0  0  0  0  0  0  0  0
    7.4273   -2.6723    0.7708 C   0  0  0  0  0  0  0  0  0  0  0  0
    6.7621   -3.2635   -0.0702 O   0  0  0  0  0  0  0  0  0  0  0  0
    8.2236   -3.3722    1.6750 N   0  0  0  0  0  0  0  0  0  0  0  0
    8.4127   -4.7833    1.4016 C   0  0  0  0  0  0  0  0  0  0  0  0
    8.8472   -5.5955    2.5586 C   0  0  0  0  0  0  0  0  0  0  0  0
    9.0058   -5.1113    3.8497 C   0  0  0  0  0  0  0  0  0  0  0  0
    9.4058   -5.9492    4.9211 C   0  0  0  0  0  0  0  0  0  0  0  0
    9.3383   -5.5397    6.2972 C   0  0  0  0  0  0  0  0  0  0  0  0
    9.6616   -6.5911    7.0460 N   0  0  0  0  0  0  0  0  0  0  0  0
    9.6901   -6.6229    8.0608 H   0  0  0  0  0  0  0  0  0  0  0  0
    9.9858   -7.7236    6.2538 C   0  0  0  0  0  0  0  0  0  0  0  0
   10.3626   -8.8863    6.8111 N   0  0  0  0  0  0  0  0  0  0  0  0
   10.6498   -9.8222    5.8427 C   0  0  0  0  0  0  0  0  0  0  0  0
   10.5820   -9.6020    4.4775 C   0  0  0  0  0  0  0  0  0  0  0  0
   10.1753   -8.3425    3.9305 C   0  0  0  0  0  0  0  0  0  0  0  0
    9.8471   -7.3577    4.9191 C   0  0  0  0  0  0  0  0  0  0  0  0
    8.6817   -3.6471    4.0798 C   0  0  0  0  0  0  0  0  0  0  0  0
    8.9208   -2.8091    2.8179 C   0  0  0  0  0  0  0  0  0  0  0  0
    7.1360   -0.3441   -1.4180 C   0  0  0  0  0  0  0  0  0  0  0  0
    8.3970    0.5252   -1.4589 C   0  0  0  0  0  0  0  0  0  0  0  0
    8.4404    2.4123   -3.1876 H   0  0  0  0  0  0  0  0  0  0  0  0
    9.1345    2.4517   -0.7974 H   0  0  0  0  0  0  0  0  0  0  0  0
    7.3420    2.8011    0.9630 H   0  0  0  0  0  0  0  0  0  0  0  0
    8.3948    1.4110    1.2330 H   0  0  0  0  0  0  0  0  0  0  0  0
    5.5331    1.4010    0.1032 H   0  0  0  0  0  0  0  0  0  0  0  0
    6.0183    0.7826    1.6869 H   0  0  0  0  0  0  0  0  0  0  0  0
    5.6097   -1.0135   -0.0579 H   0  0  0  0  0  0  0  0  0  0  0  0
    8.1516   -0.8376    1.4003 H   0  0  0  0  0  0  0  0  0  0  0  0
    9.1440   -4.9433    0.5752 H   0  0  0  0  0  0  0  0  0  0  0  0
    7.4703   -5.1873    0.9829 H   0  0  0  0  0  0  0  0  0  0  0  0
    9.0205   -6.6521    2.3615 H   0  0  0  0  0  0  0  0  0  0  0  0
    9.0296   -4.5916    6.7296 H   0  0  0  0  0  0  0  0  0  0  0  0
   10.9610  -10.8049    6.2142 H   0  0  0  0  0  0  0  0  0  0  0  0
   10.8530  -10.4190    3.8031 H   0  0  0  0  0  0  0  0  0  0  0  0
   10.2283   -8.1515    2.8621 H   0  0  0  0  0  0  0  0  0  0  0  0
    9.2889   -3.2381    4.8999 H   0  0  0  0  0  0  0  0  0  0  0  0
    7.6228   -3.5521    4.3780 H   0  0  0  0  0  0  0  0  0  0  0  0
   10.0103   -2.7354    2.6253 H   0  0  0  0  0  0  0  0  0  0  0  0
    8.5492   -1.7939    3.0053 H   0  0  0  0  0  0  0  0  0  0  0  0
    6.3539    0.1027   -2.0570 H   0  0  0  0  0  0  0  0  0  0  0  0
    7.3355   -1.3476   -1.8220 H   0  0  0  0  0  0  0  0  0  0  0  0
    8.7792    0.5898   -2.4931 H   0  0  0  0  0  0  0  0  0  0  0  0
    9.2037    0.0334   -0.8883 H   0  0  0  0  0  0  0  0  0  0  0  0
  1  2  2  0
  2  3  1  0
  2  4  1  0
  3 29  1  0
  4  5  1  0
  4 28  1  0
  4 30  1  1
  5  6  1  0
  5 31  1  0
  5 32  1  0
  6  7  1  0
  6 33  1  0
  6 34  1  0
  7  8  1  0
  7 27  1  0
  7 35  1  6
  8  9  1  0
  8 36  1  0
  9 10  2  0
  9 11  1  0
 11 12  1  0
 11 26  1  0
 12 13  1  0
 12 37  1  0
 12 38  1  0
 13 14  2  0
 13 39  1  0
 14 15  1  0
 14 25  1  0
 15 16  2  0
 15 24  1  0
 16 17  1  0
 16 40  1  0
 17 18  1  0
 17 19  1  0
 19 20  1  0
 19 24  2  0
 20 21  2  0
 21 22  1  0
 21 41  1  0
 22 23  2  0
 22 42  1  0
 23 24  1  0
 23 43  1  0
 25 26  1  0
 25 44  1  0
 25 45  1  0
 26 46  1  0
 26 47  1  0
 27 28  1  0
 27 48  1  0
 27 49  1  0
 28 50  1  0
 28 51  1  0
M  END

