
     RDKit          3D

 43 46  0  0  0  0  0  0  0  0999 V2000
    0.6401    0.0458   -0.1677 C   0  0  0  0  0  0  0  0  0  0  0  0
    1.9566   -0.2515    0.5468 C   0  0  2  0  0  0  0  0  0  0  0  0
    2.6539   -0.7152   -0.1807 H   0  0  0  0  0  0  0  0  0  0  0  0
    1.7717   -1.2720    1.6975 C   0  0  0  0  0  0  0  0  0  0  0  0
    3.0065   -1.3455    2.4482 N   0  0  0  0  0  0  0  0  0  0  0  0
    3.9701   -2.2343    2.2564 C   0  0  0  0  0  0  0  0  0  0  0  0
    5.2064   -2.1058    3.0151 C   0  0  0  0  0  0  0  0  0  0  0  0
    6.2366   -3.0092    2.8274 C   0  0  0  0  0  0  0  0  0  0  0  0
    6.1129   -4.0681    1.9189 C   0  0  0  0  0  0  0  0  0  0  0  0
    4.9031   -4.2045    1.1960 C   0  0  0  0  0  0  0  0  0  0  0  0
    4.8057   -5.2205    0.3411 F   0  0  0  0  0  0  0  0  0  0  0  0
    3.8500   -3.3386    1.3376 C   0  0  0  0  0  0  0  0  0  0  0  0
    3.2930   -0.0143    3.2635 C   0  0  0  0  0  0  0  0  0  0  0  0
    3.4933   -0.1321    4.4737 O   0  0  0  0  0  0  0  0  0  0  0  0
    3.1213    1.0736    2.3907 C   0  0  0  0  0  0  0  0  0  0  0  0
    3.3628    2.4614    2.5404 C   0  0  0  0  0  0  0  0  0  0  0  0
    2.9708    3.0324    1.3187 C   0  0  0  0  0  0  0  0  0  0  0  0
    3.0239    4.4703    0.9122 C   0  0  0  0  0  0  0  0  0  0  0  0
    4.3922    4.9118    0.9430 O   0  0  0  0  0  0  0  0  0  0  0  0
    4.6556    6.1868    0.6273 C   0  0  0  0  0  0  0  0  0  0  0  0
    6.0067    6.5987    0.6837 C   0  0  0  0  0  0  0  0  0  0  0  0
    6.3060    7.9119    0.3586 C   0  0  0  0  0  0  0  0  0  0  0  0
    5.2582    8.7710   -0.0098 C   0  0  0  0  0  0  0  0  0  0  0  0
    5.5759   10.4369   -0.4310 Cl  0  0  0  0  0  0  0  0  0  0  0  0
    3.9583    8.2713   -0.0341 C   0  0  0  0  0  0  0  0  0  0  0  0
    3.6691    7.0038    0.2785 N   0  0  0  0  0  0  0  0  0  0  0  0
    2.4983    2.1265    0.4536 N   0  0  0  0  0  0  0  0  0  0  0  0
    2.5668    0.9410    1.1068 N   0  0  0  0  0  0  0  0  0  0  0  0
    0.2311   -0.8733   -0.6170 H   0  0  0  0  0  0  0  0  0  0  0  0
    0.8066    0.7865   -0.9598 H   0  0  0  0  0  0  0  0  0  0  0  0
   -0.1019    0.4611    0.5323 H   0  0  0  0  0  0  0  0  0  0  0  0
    1.4560   -2.2433    1.2947 H   0  0  0  0  0  0  0  0  0  0  0  0
    0.9915   -0.9170    2.3892 H   0  0  0  0  0  0  0  0  0  0  0  0
    5.2679   -1.3162    3.7593 H   0  0  0  0  0  0  0  0  0  0  0  0
    7.1567   -2.9010    3.4046 H   0  0  0  0  0  0  0  0  0  0  0  0
    6.9113   -4.7931    1.7560 H   0  0  0  0  0  0  0  0  0  0  0  0
    2.9561   -3.4989    0.7399 H   0  0  0  0  0  0  0  0  0  0  0  0
    3.8004    2.9494    3.4059 H   0  0  0  0  0  0  0  0  0  0  0  0
    2.4324    5.1085    1.5891 H   0  0  0  0  0  0  0  0  0  0  0  0
    2.6121    4.5874   -0.1011 H   0  0  0  0  0  0  0  0  0  0  0  0
    6.7762    5.8836    0.9782 H   0  0  0  0  0  0  0  0  0  0  0  0
    7.3336    8.2799    0.3859 H   0  0  0  0  0  0  0  0  0  0  0  0
    3.1246    8.9226   -0.3177 H   0  0  0  0  0  0  0  0  0  0  0  0
  1  2  1  0
  1 29  1  0
  1 30  1  0
  1 31  1  0
  2  3  1  6
  2  4  1  0
  2 28  1  0
  4  5  1  0
  4 32  1  0
  4 33  1  0
  5  6  1  0
  5 13  1  0
  6  7  2  0
  6 12  1  0
  7  8  1  0
  7 34  1  0
  8  9  2  0
  8 35  1  0
  9 10  1  0
  9 36  1  0
 10 11  1  0
 10 12  2  0
 12 37  1  0
 13 14  2  0
 13 15  1  0
 15 16  2  0
 15 28  1  0
 16 17  1  0
 16 38  1  0
 17 18  1  0
 17 27  2  0
 18 19  1  0
 18 39  1  0
 18 40  1  0
 19 20  1  0
 20 21  2  0
 20 26  1  0
 21 22  1  0
 21 41  1  0
 22 23  2  0
 22 42  1  0
 23 24  1  0
 23 25  1  0
 25 26  2  0
 25 43  1  0
 27 28  1  0
M  END

