
     RDKit          3D

 47 49  0  0  0  0  0  0  0  0999 V2000
    1.3261    0.7843    0.2952 C   0  0  0  0  0  0  0  0  0  0  0  0
    2.7001    0.1701    0.0311 C   0  0  0  0  0  0  0  0  0  0  0  0
    3.0011   -0.9757    0.9015 N   0  0  0  0  0  0  0  0  0  0  0  0
    3.6838   -0.6944    2.0880 C   0  0  0  0  0  0  0  0  0  0  0  0
    4.0037    0.4447    2.3948 O   0  0  0  0  0  0  0  0  0  0  0  0
    3.9979   -1.8742    2.9432 C   0  0  0  0  0  0  0  0  0  0  0  0
    4.7493   -1.5867    4.2065 C   0  0  0  0  0  0  0  0  0  0  0  0
    3.6506   -3.0811    2.6403 N   0  0  0  0  0  0  0  0  0  0  0  0
    2.9535   -3.3170    1.4718 C   0  0  0  0  0  0  0  0  0  0  0  0
    2.5808   -4.6397    1.1720 C   0  0  0  0  0  0  0  0  0  0  0  0
    1.8680   -4.9498    0.0159 C   0  0  0  0  0  0  0  0  0  0  0  0
    1.4160   -6.3348   -0.3608 C   0  0  0  0  0  0  0  0  0  0  0  0
    0.6209   -6.5205   -1.2758 O   0  0  0  0  0  0  0  0  0  0  0  0
    1.9367   -7.3684    0.3577 N   0  0  0  0  0  0  0  0  0  0  0  0
    1.5436   -8.7362    0.1305 C   0  0  1  0  0  0  0  0  0  0  0  0
    2.3248   -9.3969   -1.0541 C   0  0  0  0  0  0  0  0  0  0  0  0
    2.2168  -10.9291   -1.2369 C   0  0  0  0  0  0  0  0  0  0  0  0
    2.8839  -11.8055   -0.1474 C   0  0  0  0  0  0  0  0  0  0  0  0
    2.0472  -11.9747    1.1460 C   0  0  0  0  0  0  0  0  0  0  0  0
    1.2082  -10.7923    1.3860 N   0  0  0  0  0  0  0  0  0  0  0  0
    1.8821   -9.5808    1.3503 C   0  0  0  0  0  0  0  0  0  0  0  0
    2.8111   -9.3023    2.0826 O   0  0  0  0  0  0  0  0  0  0  0  0
    1.5118   -3.8973   -0.8516 C   0  0  0  0  0  0  0  0  0  0  0  0
    1.8701   -2.5838   -0.5856 C   0  0  0  0  0  0  0  0  0  0  0  0
    2.6028   -2.2670    0.5789 C   0  0  0  0  0  0  0  0  0  0  0  0
    1.1602    1.6347   -0.3848 H   0  0  0  0  0  0  0  0  0  0  0  0
    1.2666    1.1594    1.3278 H   0  0  0  0  0  0  0  0  0  0  0  0
    0.5122    0.0593    0.1400 H   0  0  0  0  0  0  0  0  0  0  0  0
    3.4811    0.9140    0.2319 H   0  0  0  0  0  0  0  0  0  0  0  0
    2.8034   -0.1548   -1.0137 H   0  0  0  0  0  0  0  0  0  0  0  0
    5.7046   -1.0845    3.9829 H   0  0  0  0  0  0  0  0  0  0  0  0
    4.9335   -2.5222    4.7493 H   0  0  0  0  0  0  0  0  0  0  0  0
    4.1818   -0.8877    4.8425 H   0  0  0  0  0  0  0  0  0  0  0  0
    2.8702   -5.3888    1.9118 H   0  0  0  0  0  0  0  0  0  0  0  0
    2.6446   -7.2354    1.0733 H   0  0  0  0  0  0  0  0  0  0  0  0
    0.4655   -8.7615   -0.0998 H   0  0  0  0  0  0  0  0  0  0  0  0
    3.3876   -9.1330   -0.9184 H   0  0  0  0  0  0  0  0  0  0  0  0
    1.9824   -8.8935   -1.9712 H   0  0  0  0  0  0  0  0  0  0  0  0
    2.7043  -11.1610   -2.1978 H   0  0  0  0  0  0  0  0  0  0  0  0
    1.1597  -11.2257   -1.3746 H   0  0  0  0  0  0  0  0  0  0  0  0
    3.8605  -11.3590    0.1049 H   0  0  0  0  0  0  0  0  0  0  0  0
    3.1033  -12.8031   -0.5623 H   0  0  0  0  0  0  0  0  0  0  0  0
    2.6974  -12.1434    2.0164 H   0  0  0  0  0  0  0  0  0  0  0  0
    1.3730  -12.8416    1.0713 H   0  0  0  0  0  0  0  0  0  0  0  0
    0.4046  -10.7876    0.7648 H   0  0  0  0  0  0  0  0  0  0  0  0
    0.9354   -4.1472   -1.7441 H   0  0  0  0  0  0  0  0  0  0  0  0
    1.5698   -1.8021   -1.2820 H   0  0  0  0  0  0  0  0  0  0  0  0
  1  2  1  0
  1 26  1  0
  1 27  1  0
  1 28  1  0
  2  3  1  0
  2 29  1  0
  2 30  1  0
  3  4  1  0
  3 25  1  0
  4  5  2  0
  4  6  1  0
  6  7  1  0
  6  8  2  0
  7 31  1  0
  7 32  1  0
  7 33  1  0
  8  9  1  0
  9 10  1  0
  9 25  2  0
 10 11  2  0
 10 34  1  0
 11 12  1  0
 11 23  1  0
 12 13  2  0
 12 14  1  0
 14 15  1  0
 14 35  1  0
 15 16  1  0
 15 21  1  0
 15 36  1  6
 16 17  1  0
 16 37  1  0
 16 38  1  0
 17 18  1  0
 17 39  1  0
 17 40  1  0
 18 19  1  0
 18 41  1  0
 18 42  1  0
 19 20  1  0
 19 43  1  0
 19 44  1  0
 20 21  1  0
 20 45  1  0
 21 22  2  0
 23 24  2  0
 23 46  1  0
 24 25  1  0
 24 47  1  0
M  END

