
     RDKit          3D

103112  0  0  0  0  0  0  0  0999 V2000
   -1.1935   -1.3507    2.8760 C   0  0  0  0  0  0  0  0  0  0  0  0
   -1.0051   -0.5074    1.5867 C   0  0  1  0  0  0  0  0  0  0  0  0
   -2.2668   -0.6511    0.6941 C   0  0  0  0  0  0  0  0  0  0  0  0
   -0.8313    0.9667    1.9794 C   0  0  0  0  0  0  0  0  0  0  0  0
   -1.8712    1.6297    2.6474 C   0  0  0  0  0  0  0  0  0  0  0  0
   -1.7873    2.9622    3.0518 C   0  0  0  0  0  0  0  0  0  0  0  0
   -0.6145    3.6720    2.7804 C   0  0  0  0  0  0  0  0  0  0  0  0
    0.4401    3.0505    2.1223 C   0  0  0  0  0  0  0  0  0  0  0  0
    0.3570    1.6965    1.7134 C   0  0  0  0  0  0  0  0  0  0  0  0
    1.4301    1.0937    1.0597 N   0  0  0  0  0  0  0  0  0  0  0  0
    2.6261    1.8467    0.8224 C   0  0  0  0  0  0  0  0  0  0  0  0
    3.6594    1.8418    1.7683 C   0  0  0  0  0  0  0  0  0  0  0  0
    4.8252    2.5771    1.5368 C   0  0  0  0  0  0  0  0  0  0  0  0
    4.9660    3.3187    0.3594 C   0  0  0  0  0  0  0  0  0  0  0  0
    3.9369    3.3219   -0.5876 C   0  0  0  0  0  0  0  0  0  0  0  0
    2.7704    2.5868   -0.3584 C   0  0  0  0  0  0  0  0  0  0  0  0
    1.3699   -0.2472    0.6104 C   0  0  0  0  0  0  0  0  0  0  0  0
    2.4662   -0.8251   -0.0670 C   0  0  0  0  0  0  0  0  0  0  0  0
    2.4295   -2.1307   -0.5278 C   0  0  0  0  0  0  0  0  0  0  0  0
    1.2886   -2.9562   -0.3471 C   0  0  0  0  0  0  0  0  0  0  0  0
    1.2304   -4.3312   -0.8334 C   0  0  0  0  0  0  0  0  0  0  0  0
    2.4138   -5.0659   -1.1670 C   0  0  0  0  0  0  0  0  0  0  0  0
    2.3739   -6.3629   -1.6322 C   0  0  0  0  0  0  0  0  0  0  0  0
    1.1211   -7.0184   -1.8100 C   0  0  0  0  0  0  0  0  0  0  0  0
    1.0434   -8.6094   -2.4892 S   0  0  1  0  0  0  0  0  0  0  0  0
    2.3267   -9.3075   -2.2653 O   0  0  0  0  0  0  0  0  0  0  0  0
   -0.2524   -9.2292   -2.1409 O   0  0  0  0  0  0  0  0  0  0  0  0
    0.9612   -8.3843   -4.2891 C   0  0  0  0  0  0  0  0  0  0  0  0
    2.1423   -8.3275   -5.0474 C   0  0  0  0  0  0  0  0  0  0  0  0
    2.0725   -8.1315   -6.4208 C   0  0  0  0  0  0  0  0  0  0  0  0
    0.8289   -7.9747   -7.0754 C   0  0  0  0  0  0  0  0  0  0  0  0
    0.7619   -7.7517   -8.5342 C   0  0  0  0  0  0  0  0  0  0  0  0
    1.7504   -8.2642   -9.4109 C   0  0  0  0  0  0  0  0  0  0  0  0
    1.6832   -8.0457  -10.7722 C   0  0  0  0  0  0  0  0  0  0  0  0
    0.6204   -7.2963  -11.3390 C   0  0  0  0  0  0  0  0  0  0  0  0
   -0.3848   -6.7622  -10.4905 C   0  0  0  0  0  0  0  0  0  0  0  0
   -0.2837   -7.0078   -9.1217 C   0  0  0  0  0  0  0  0  0  0  0  0
   -1.5416   -5.9213  -11.0278 C   0  0  2  0  0  0  0  0  0  0  0  0
   -1.4822   -4.5088  -10.3805 C   0  0  0  0  0  0  0  0  0  0  0  0
   -2.8827   -6.6099  -10.6517 C   0  0  0  0  0  0  0  0  0  0  0  0
   -1.4742   -5.7712  -12.5473 C   0  0  0  0  0  0  0  0  0  0  0  0
   -2.4621   -5.0428  -13.2214 C   0  0  0  0  0  0  0  0  0  0  0  0
   -2.4520   -4.8722  -14.6061 C   0  0  0  0  0  0  0  0  0  0  0  0
   -1.4232   -5.4455  -15.3647 C   0  0  0  0  0  0  0  0  0  0  0  0
   -0.4268   -6.1742  -14.7361 C   0  0  0  0  0  0  0  0  0  0  0  0
   -0.4349   -6.3466  -13.3279 C   0  0  0  0  0  0  0  0  0  0  0  0
    0.5755   -7.0851  -12.7184 N   0  0  0  0  0  0  0  0  0  0  0  0
    1.6165   -7.6587  -13.5428 C   0  0  0  0  0  0  0  0  0  0  0  0
    2.7732   -6.9190  -13.8091 C   0  0  0  0  0  0  0  0  0  0  0  0
    3.7788   -7.4795  -14.6013 C   0  0  0  0  0  0  0  0  0  0  0  0
    3.6268   -8.7685  -15.1221 C   0  0  0  0  0  0  0  0  0  0  0  0
    2.4674   -9.5016  -14.8499 C   0  0  0  0  0  0  0  0  0  0  0  0
    1.4570   -8.9491  -14.0577 C   0  0  0  0  0  0  0  0  0  0  0  0
   -0.3470   -8.0480   -6.2931 C   0  0  0  0  0  0  0  0  0  0  0  0
   -0.2857   -8.2669   -4.9221 C   0  0  0  0  0  0  0  0  0  0  0  0
   -0.0742   -6.3201   -1.4773 C   0  0  0  0  0  0  0  0  0  0  0  0
   -0.0099   -5.0284   -0.9998 C   0  0  0  0  0  0  0  0  0  0  0  0
    0.2090   -2.3475    0.3422 C   0  0  0  0  0  0  0  0  0  0  0  0
    0.2173   -1.0361    0.8227 C   0  0  0  0  0  0  0  0  0  0  0  0
   -2.0695   -1.0125    3.4515 H   0  0  0  0  0  0  0  0  0  0  0  0
   -0.3085   -1.2700    3.5253 H   0  0  0  0  0  0  0  0  0  0  0  0
   -1.3391   -2.4150    2.6371 H   0  0  0  0  0  0  0  0  0  0  0  0
   -3.1698   -0.3051    1.2201 H   0  0  0  0  0  0  0  0  0  0  0  0
   -2.4310   -1.7008    0.4098 H   0  0  0  0  0  0  0  0  0  0  0  0
   -2.1589   -0.0610   -0.2286 H   0  0  0  0  0  0  0  0  0  0  0  0
   -2.7889    1.0793    2.8658 H   0  0  0  0  0  0  0  0  0  0  0  0
   -2.6239    3.4359    3.5706 H   0  0  0  0  0  0  0  0  0  0  0  0
   -0.5160    4.7181    3.0829 H   0  0  0  0  0  0  0  0  0  0  0  0
    1.3473    3.6174    1.9195 H   0  0  0  0  0  0  0  0  0  0  0  0
    3.5385    1.2564    2.6822 H   0  0  0  0  0  0  0  0  0  0  0  0
    5.6275    2.5695    2.2791 H   0  0  0  0  0  0  0  0  0  0  0  0
    5.8785    3.8928    0.1793 H   0  0  0  0  0  0  0  0  0  0  0  0
    4.0428    3.8982   -1.5104 H   0  0  0  0  0  0  0  0  0  0  0  0
    1.9601    2.5793   -1.0906 H   0  0  0  0  0  0  0  0  0  0  0  0
    3.3620   -0.2316   -0.2474 H   0  0  0  0  0  0  0  0  0  0  0  0
    3.2996   -2.5118   -1.0650 H   0  0  0  0  0  0  0  0  0  0  0  0
    3.3917   -4.6088   -1.0016 H   0  0  0  0  0  0  0  0  0  0  0  0
    3.2967   -6.9088   -1.8364 H   0  0  0  0  0  0  0  0  0  0  0  0
    3.1046   -8.4461   -4.5466 H   0  0  0  0  0  0  0  0  0  0  0  0
    3.0020   -8.0704   -6.9914 H   0  0  0  0  0  0  0  0  0  0  0  0
    2.5693   -8.8635   -9.0115 H   0  0  0  0  0  0  0  0  0  0  0  0
    2.4529   -8.4635  -11.4179 H   0  0  0  0  0  0  0  0  0  0  0  0
   -1.0351   -6.5782   -8.4602 H   0  0  0  0  0  0  0  0  0  0  0  0
   -1.5494   -4.5758   -9.2855 H   0  0  0  0  0  0  0  0  0  0  0  0
   -2.3161   -3.8801  -10.7264 H   0  0  0  0  0  0  0  0  0  0  0  0
   -0.5402   -3.9993  -10.6332 H   0  0  0  0  0  0  0  0  0  0  0  0
   -2.9795   -6.7056   -9.5608 H   0  0  0  0  0  0  0  0  0  0  0  0
   -2.9464   -7.6166  -11.0911 H   0  0  0  0  0  0  0  0  0  0  0  0
   -3.7398   -6.0233  -11.0114 H   0  0  0  0  0  0  0  0  0  0  0  0
   -3.2722   -4.5904  -12.6479 H   0  0  0  0  0  0  0  0  0  0  0  0
   -3.2434   -4.2965  -15.0904 H   0  0  0  0  0  0  0  0  0  0  0  0
   -1.4012   -5.3234  -16.4496 H   0  0  0  0  0  0  0  0  0  0  0  0
    0.3692   -6.6195  -15.3291 H   0  0  0  0  0  0  0  0  0  0  0  0
    2.8813   -5.9148  -13.3939 H   0  0  0  0  0  0  0  0  0  0  0  0
    4.6848   -6.9060  -14.8097 H   0  0  0  0  0  0  0  0  0  0  0  0
    4.4153   -9.2039  -15.7402 H   0  0  0  0  0  0  0  0  0  0  0  0
    2.3476  -10.5098  -15.2527 H   0  0  0  0  0  0  0  0  0  0  0  0
    0.5484   -9.5125  -13.8355 H   0  0  0  0  0  0  0  0  0  0  0  0
   -1.3265   -7.9880   -6.7736 H   0  0  0  0  0  0  0  0  0  0  0  0
   -1.1931   -8.3656   -4.3235 H   0  0  0  0  0  0  0  0  0  0  0  0
   -1.0361   -6.8238   -1.5888 H   0  0  0  0  0  0  0  0  0  0  0  0
   -0.9485   -4.5264   -0.7563 H   0  0  0  0  0  0  0  0  0  0  0  0
   -0.6783   -2.9507    0.5350 H   0  0  0  0  0  0  0  0  0  0  0  0
  2  1  1  1
  1 60  1  0
  1 61  1  0
  1 62  1  0
  2  3  1  0
  2  4  1  0
  2 59  1  0
  3 63  1  0
  3 64  1  0
  3 65  1  0
  4  5  1  0
  4  9  2  0
  5  6  2  0
  5 66  1  0
  6  7  1  0
  6 67  1  0
  7  8  2  0
  7 68  1  0
  8  9  1  0
  8 69  1  0
  9 10  1  0
 10 11  1  0
 10 17  1  0
 11 12  2  0
 11 16  1  0
 12 13  1  0
 12 70  1  0
 13 14  2  0
 13 71  1  0
 14 15  1  0
 14 72  1  0
 15 16  2  0
 15 73  1  0
 16 74  1  0
 17 18  1  0
 17 59  2  0
 18 19  2  0
 18 75  1  0
 19 20  1  0
 19 76  1  0
 20 21  1  0
 20 58  2  0
 21 22  2  0
 21 57  1  0
 22 23  1  0
 22 77  1  0
 23 24  2  0
 23 78  1  0
 25 24  1  1
 24 56  1  0
 25 26  2  0
 25 27  2  0
 25 28  1  0
 28 29  2  0
 28 55  1  0
 29 30  1  0
 29 79  1  0
 30 31  2  0
 30 80  1  0
 31 32  1  0
 31 54  1  0
 32 33  2  0
 32 37  1  0
 33 34  1  0
 33 81  1  0
 34 35  2  0
 34 82  1  0
 35 36  1  0
 35 47  1  0
 36 37  2  0
 36 38  1  0
 37 83  1  0
 38 39  1  1
 38 40  1  0
 38 41  1  0
 39 84  1  0
 39 85  1  0
 39 86  1  0
 40 87  1  0
 40 88  1  0
 40 89  1  0
 41 42  2  0
 41 46  1  0
 42 43  1  0
 42 90  1  0
 43 44  2  0
 43 91  1  0
 44 45  1  0
 44 92  1  0
 45 46  2  0
 45 93  1  0
 46 47  1  0
 47 48  1  0
 48 49  2  0
 48 53  1  0
 49 50  1  0
 49 94  1  0
 50 51  2  0
 50 95  1  0
 51 52  1  0
 51 96  1  0
 52 53  2  0
 52 97  1  0
 53 98  1  0
 54 55  2  0
 54 99  1  0
 55100  1  0
 56 57  2  0
 56101  1  0
 57102  1  0
 58 59  1  0
 58103  1  0
M  END

