
     RDKit          3D

 52 55  0  0  0  0  0  0  0  0999 V2000
    4.9647  -11.6770   -2.9982 C   0  0  0  0  0  0  0  0  0  0  0  0
    4.7241  -10.5392   -3.8055 O   0  0  0  0  0  0  0  0  0  0  0  0
    4.1168   -9.4600   -3.2782 C   0  0  0  0  0  0  0  0  0  0  0  0
    3.9106   -8.3763   -4.1566 C   0  0  0  0  0  0  0  0  0  0  0  0
    3.2961   -7.2201   -3.7046 C   0  0  0  0  0  0  0  0  0  0  0  0
    2.8853   -7.1048   -2.3581 C   0  0  0  0  0  0  0  0  0  0  0  0
    2.2448   -5.8525   -1.9433 C   0  0  0  0  0  0  0  0  0  0  0  0
    1.3617   -5.2183   -2.7116 N   0  0  0  0  0  0  0  0  0  0  0  0
    1.0867   -4.0927   -2.0624 N   0  0  0  0  0  0  0  0  0  0  0  0
    0.3438   -3.4716   -2.3946 H   0  0  0  0  0  0  0  0  0  0  0  0
    1.7735   -3.9569   -0.9134 C   0  0  0  0  0  0  0  0  0  0  0  0
    1.8183   -2.5570    0.0515 S   0  0  0  0  0  0  0  0  0  0  0  0
    2.5052   -5.1053   -0.8169 N   0  0  0  0  0  0  0  0  0  0  0  0
    3.5068   -5.3874    0.2268 C   0  0  0  0  0  0  0  0  0  0  0  0
    3.1568   -5.4976    1.7295 C   0  0  0  0  0  0  0  0  0  0  0  0
    4.1221   -5.3342    2.4641 O   0  0  0  0  0  0  0  0  0  0  0  0
    1.9137   -5.7726    2.1945 N   0  0  0  0  0  0  0  0  0  0  0  0
    0.7853   -6.3675    1.5774 C   0  0  0  0  0  0  0  0  0  0  0  0
    0.9098   -7.2340    0.5481 N   0  0  0  0  0  0  0  0  0  0  0  0
   -0.2398   -7.3393   -0.1442 C   0  0  0  0  0  0  0  0  0  0  0  0
   -1.2976   -6.5052    0.1890 C   0  0  0  0  0  0  0  0  0  0  0  0
   -2.5819   -6.2765   -0.5563 C   0  0  0  0  0  0  0  0  0  0  0  0
   -2.5742   -4.9788   -1.3523 C   0  0  0  0  0  0  0  0  0  0  0  0
   -2.1463   -4.9397   -2.6868 C   0  0  0  0  0  0  0  0  0  0  0  0
   -2.0615   -3.7294   -3.3826 C   0  0  0  0  0  0  0  0  0  0  0  0
   -2.3951   -2.4998   -2.7823 C   0  0  0  0  0  0  0  0  0  0  0  0
   -2.3316   -1.2027   -3.5468 C   0  0  0  0  0  0  0  0  0  0  0  0
   -2.8230   -2.5590   -1.4437 C   0  0  0  0  0  0  0  0  0  0  0  0
   -3.2722   -1.0733   -0.6195 Cl  0  0  0  0  0  0  0  0  0  0  0  0
   -2.9185   -3.7625   -0.7398 C   0  0  0  0  0  0  0  0  0  0  0  0
   -0.8188   -5.4835    1.5658 S   0  0  0  0  0  0  0  0  0  0  0  0
    3.0683   -8.1952   -1.4900 C   0  0  0  0  0  0  0  0  0  0  0  0
    3.6802   -9.3627   -1.9450 C   0  0  0  0  0  0  0  0  0  0  0  0
    5.4678  -12.4107   -3.6411 H   0  0  0  0  0  0  0  0  0  0  0  0
    4.0241  -12.1137   -2.6207 H   0  0  0  0  0  0  0  0  0  0  0  0
    5.6202  -11.4373   -2.1431 H   0  0  0  0  0  0  0  0  0  0  0  0
    4.2452   -8.4753   -5.1907 H   0  0  0  0  0  0  0  0  0  0  0  0
    3.1360   -6.3868   -4.3916 H   0  0  0  0  0  0  0  0  0  0  0  0
    4.2498   -4.5807    0.1920 H   0  0  0  0  0  0  0  0  0  0  0  0
    4.0127   -6.3134   -0.0675 H   0  0  0  0  0  0  0  0  0  0  0  0
    1.9225   -5.7737    3.2153 H   0  0  0  0  0  0  0  0  0  0  0  0
   -0.3062   -8.0623   -0.9648 H   0  0  0  0  0  0  0  0  0  0  0  0
   -3.4493   -6.2713    0.1301 H   0  0  0  0  0  0  0  0  0  0  0  0
   -2.7333   -7.1228   -1.2462 H   0  0  0  0  0  0  0  0  0  0  0  0
   -1.8696   -5.8694   -3.1912 H   0  0  0  0  0  0  0  0  0  0  0  0
   -1.7522   -3.7333   -4.4326 H   0  0  0  0  0  0  0  0  0  0  0  0
   -1.9490   -1.3632   -4.5655 H   0  0  0  0  0  0  0  0  0  0  0  0
   -1.6882   -0.4633   -3.0427 H   0  0  0  0  0  0  0  0  0  0  0  0
   -3.3289   -0.7389   -3.6248 H   0  0  0  0  0  0  0  0  0  0  0  0
   -3.2648   -3.7447    0.2950 H   0  0  0  0  0  0  0  0  0  0  0  0
    2.6483   -8.1410   -0.4801 H   0  0  0  0  0  0  0  0  0  0  0  0
    3.7929  -10.1984   -1.2549 H   0  0  0  0  0  0  0  0  0  0  0  0
  1  2  1  0
  1 34  1  0
  1 35  1  0
  1 36  1  0
  2  3  1  0
  3  4  2  0
  3 33  1  0
  4  5  1  0
  4 37  1  0
  5  6  2  0
  5 38  1  0
  6  7  1  0
  6 32  1  0
  7  8  2  0
  7 13  1  0
  8  9  1  0
  9 10  1  0
  9 11  1  0
 11 12  2  0
 11 13  1  0
 13 14  1  0
 14 15  1  0
 14 39  1  0
 14 40  1  0
 15 16  2  0
 15 17  1  0
 17 18  1  0
 17 41  1  0
 18 19  2  0
 18 31  1  0
 19 20  1  0
 20 21  2  0
 20 42  1  0
 21 22  1  0
 21 31  1  0
 22 23  1  0
 22 43  1  0
 22 44  1  0
 23 24  2  0
 23 30  1  0
 24 25  1  0
 24 45  1  0
 25 26  2  0
 25 46  1  0
 26 27  1  0
 26 28  1  0
 27 47  1  0
 27 48  1  0
 27 49  1  0
 28 29  1  0
 28 30  2  0
 30 50  1  0
 32 33  2  0
 32 51  1  0
 33 52  1  0
M  END

