
     RDKit          3D

 59 62  0  0  0  0  0  0  0  0999 V2000
    1.8620    5.5818    0.0460 C   0  0  0  0  0  0  0  0  0  0  0  0
    1.7601    5.1641    1.4394 N   0  0  0  0  0  0  0  0  0  0  0  0
    2.7935    5.7564    2.3008 C   0  0  0  0  0  0  0  0  0  0  0  0
    2.7843    5.3401    3.7748 C   0  0  0  0  0  0  0  0  0  0  0  0
    3.4692    4.0155    4.1239 C   0  0  0  0  0  0  0  0  0  0  0  0
    3.6673    3.8487    5.3826 N   0  0  0  0  0  0  0  0  0  0  0  0
    4.1670    2.6014    5.7251 O   0  0  0  0  0  0  0  0  0  0  0  0
    3.7616    3.0509    3.0454 C   0  0  0  0  0  0  0  0  0  0  0  0
    2.9223    2.7624    1.9658 C   0  0  0  0  0  0  0  0  0  0  0  0
    3.5669    1.8339    1.1140 C   0  0  0  0  0  0  0  0  0  0  0  0
    4.7938    1.5838    1.6954 C   0  0  0  0  0  0  0  0  0  0  0  0
    4.9134    2.3139    2.8556 N   0  0  0  0  0  0  0  0  0  0  0  0
    6.1640    2.3993    3.6127 C   0  0  0  0  0  0  0  0  0  0  0  0
    6.5677    1.0782    4.2686 C   0  0  0  0  0  0  0  0  0  0  0  0
    7.8701    1.2020    5.0711 C   0  0  0  0  0  0  0  0  0  0  0  0
    7.7777    2.1695    6.1618 N   0  0  0  0  0  0  0  0  0  0  0  0
    7.1052    1.6976    7.3662 C   0  0  0  0  0  0  0  0  0  0  0  0
    8.0046    0.8695    8.2989 C   0  0  0  0  0  0  0  0  0  0  0  0
    9.2194    1.6032    8.6218 N   0  0  0  0  0  0  0  0  0  0  0  0
    9.9780    1.1957    9.7380 C   0  0  0  0  0  0  0  0  0  0  0  0
    9.7145   -0.0022   10.4343 C   0  0  0  0  0  0  0  0  0  0  0  0
   10.4516   -0.3613   11.5675 C   0  0  0  0  0  0  0  0  0  0  0  0
   11.4767    0.4651   12.0096 C   0  0  0  0  0  0  0  0  0  0  0  0
   12.1916    0.1203   13.0946 F   0  0  0  0  0  0  0  0  0  0  0  0
   11.7717    1.6524   11.3414 C   0  0  0  0  0  0  0  0  0  0  0  0
   11.0243    2.0131   10.2230 C   0  0  0  0  0  0  0  0  0  0  0  0
    9.9354    2.0573    7.4277 C   0  0  0  0  0  0  0  0  0  0  0  0
    9.0046    2.8701    6.5207 C   0  0  0  0  0  0  0  0  0  0  0  0
    1.3574    3.5279    1.7092 S   0  0  2  0  0  0  0  0  0  0  0  0
    0.7804    3.0135    0.4663 O   0  0  0  0  0  0  0  0  0  0  0  0
    0.6088    3.4747    2.9638 O   0  0  0  0  0  0  0  0  0  0  0  0
    1.7480    6.6770    0.0021 H   0  0  0  0  0  0  0  0  0  0  0  0
    1.0586    5.1211   -0.5389 H   0  0  0  0  0  0  0  0  0  0  0  0
    2.8364    5.3166   -0.4124 H   0  0  0  0  0  0  0  0  0  0  0  0
    2.6314    6.8458    2.2564 H   0  0  0  0  0  0  0  0  0  0  0  0
    3.8008    5.5710    1.8704 H   0  0  0  0  0  0  0  0  0  0  0  0
    1.7479    5.3077    4.1405 H   0  0  0  0  0  0  0  0  0  0  0  0
    3.3009    6.1245    4.3489 H   0  0  0  0  0  0  0  0  0  0  0  0
    4.2215    2.6535    6.6883 H   0  0  0  0  0  0  0  0  0  0  0  0
    3.1616    1.4087    0.1996 H   0  0  0  0  0  0  0  0  0  0  0  0
    5.6085    0.9470    1.3577 H   0  0  0  0  0  0  0  0  0  0  0  0
    6.0548    3.1665    4.3848 H   0  0  0  0  0  0  0  0  0  0  0  0
    6.9560    2.7350    2.9204 H   0  0  0  0  0  0  0  0  0  0  0  0
    6.7095    0.2967    3.5027 H   0  0  0  0  0  0  0  0  0  0  0  0
    5.7388    0.7419    4.9100 H   0  0  0  0  0  0  0  0  0  0  0  0
    8.6717    1.5424    4.3935 H   0  0  0  0  0  0  0  0  0  0  0  0
    8.1730    0.1882    5.4080 H   0  0  0  0  0  0  0  0  0  0  0  0
    6.2238    1.0997    7.0891 H   0  0  0  0  0  0  0  0  0  0  0  0
    6.7446    2.5770    7.9303 H   0  0  0  0  0  0  0  0  0  0  0  0
    8.2303   -0.1164    7.8334 H   0  0  0  0  0  0  0  0  0  0  0  0
    7.4490    0.6651    9.2264 H   0  0  0  0  0  0  0  0  0  0  0  0
    8.9322   -0.6807   10.0948 H   0  0  0  0  0  0  0  0  0  0  0  0
   10.2421   -1.2896   12.1032 H   0  0  0  0  0  0  0  0  0  0  0  0
   12.5738    2.2927   11.7145 H   0  0  0  0  0  0  0  0  0  0  0  0
   11.2420    2.9634    9.7327 H   0  0  0  0  0  0  0  0  0  0  0  0
   10.3490    1.1890    6.8672 H   0  0  0  0  0  0  0  0  0  0  0  0
   10.7906    2.6816    7.7181 H   0  0  0  0  0  0  0  0  0  0  0  0
    9.5399    3.1647    5.6041 H   0  0  0  0  0  0  0  0  0  0  0  0
    8.7285    3.7979    7.0541 H   0  0  0  0  0  0  0  0  0  0  0  0
  1  2  1  0
  1 32  1  0
  1 33  1  0
  1 34  1  0
  2  3  1  0
 29  2  1  6
  3  4  1  0
  3 35  1  0
  3 36  1  0
  4  5  1  0
  4 37  1  0
  4 38  1  0
  5  6  2  0
  5  8  1  0
  6  7  1  0
  7 39  1  0
  8  9  2  0
  8 12  1  0
  9 10  1  0
  9 29  1  0
 10 11  2  0
 10 40  1  0
 11 12  1  0
 11 41  1  0
 12 13  1  0
 13 14  1  0
 13 42  1  0
 13 43  1  0
 14 15  1  0
 14 44  1  0
 14 45  1  0
 15 16  1  0
 15 46  1  0
 15 47  1  0
 16 17  1  0
 16 28  1  0
 17 18  1  0
 17 48  1  0
 17 49  1  0
 18 19  1  0
 18 50  1  0
 18 51  1  0
 19 20  1  0
 19 27  1  0
 20 21  2  0
 20 26  1  0
 21 22  1  0
 21 52  1  0
 22 23  2  0
 22 53  1  0
 23 24  1  0
 23 25  1  0
 25 26  2  0
 25 54  1  0
 26 55  1  0
 27 28  1  0
 27 56  1  0
 27 57  1  0
 28 58  1  0
 28 59  1  0
 29 30  2  0
 29 31  2  0
M  END

