
     RDKit          3D

 59 62  0  0  0  0  0  0  0  0999 V2000
    1.9192    0.3595    2.5571 C   0  0  0  0  0  0  0  0  0  0  0  0
    2.1263    0.4976    1.0496 C   0  0  0  0  0  0  0  0  0  0  0  0
    3.2669    1.4317    0.6170 C   0  0  0  0  0  0  0  0  0  0  0  0
    4.6048    1.0076    1.0651 N   0  0  0  0  0  0  0  0  0  0  0  0
    5.1621   -0.0984    0.4367 C   0  0  0  0  0  0  0  0  0  0  0  0
    4.5900   -0.6548   -0.4923 O   0  0  0  0  0  0  0  0  0  0  0  0
    6.4631   -0.5740    0.9805 C   0  0  0  0  0  0  0  0  0  0  0  0
    7.1007   -1.6527    0.3503 C   0  0  0  0  0  0  0  0  0  0  0  0
    8.2609   -2.1990    0.8897 C   0  0  0  0  0  0  0  0  0  0  0  0
    8.7796   -1.6698    2.0792 C   0  0  0  0  0  0  0  0  0  0  0  0
    8.1648   -0.5975    2.7249 C   0  0  0  0  0  0  0  0  0  0  0  0
    7.0052   -0.0315    2.1665 C   0  0  0  0  0  0  0  0  0  0  0  0
    6.3339    1.0660    2.7284 N   0  0  0  0  0  0  0  0  0  0  0  0
    6.5440    1.6328    3.9866 C   0  0  0  0  0  0  0  0  0  0  0  0
    7.2938    1.2093    4.8357 O   0  0  0  0  0  0  0  0  0  0  0  0
    5.6678    2.8711    4.0816 C   0  0  0  0  0  0  0  0  0  0  0  0
    4.7132    2.7640    2.8909 C   0  0  0  0  0  0  0  0  0  0  0  0
    5.4703    1.8745    1.8665 C   0  0  2  0  0  0  0  0  0  0  0  0
    6.4000    2.8059    0.9972 C   0  0  0  0  0  0  0  0  0  0  0  0
    7.2443    3.4751    1.5725 O   0  0  0  0  0  0  0  0  0  0  0  0
    6.1523    2.8143   -0.3394 N   0  0  0  0  0  0  0  0  0  0  0  0
    6.7980    3.5451   -1.3692 C   0  0  0  0  0  0  0  0  0  0  0  0
    7.8370    4.4525   -1.0844 C   0  0  0  0  0  0  0  0  0  0  0  0
    8.4618    5.1604   -2.1091 C   0  0  0  0  0  0  0  0  0  0  0  0
    9.4659    6.0482   -1.9206 O   0  0  0  0  0  0  0  0  0  0  0  0
    9.9302    6.2834   -0.6105 C   0  0  0  0  0  0  0  0  0  0  0  0
    8.0484    4.9634   -3.4531 C   0  0  0  0  0  0  0  0  0  0  0  0
    8.7069    5.6865   -4.3923 O   0  0  0  0  0  0  0  0  0  0  0  0
    8.3498    5.5360   -5.7444 C   0  0  0  0  0  0  0  0  0  0  0  0
    7.0179    4.0599   -3.7132 C   0  0  0  0  0  0  0  0  0  0  0  0
    6.3737    3.3360   -2.6932 C   0  0  0  0  0  0  0  0  0  0  0  0
    5.2552    2.3784   -3.0334 C   0  0  0  0  0  0  0  0  0  0  0  0
    1.1051   -0.3493    2.7751 H   0  0  0  0  0  0  0  0  0  0  0  0
    1.6488    1.3208    3.0263 H   0  0  0  0  0  0  0  0  0  0  0  0
    2.8252   -0.0206    3.0558 H   0  0  0  0  0  0  0  0  0  0  0  0
    1.2040    0.8830    0.5803 H   0  0  0  0  0  0  0  0  0  0  0  0
    2.3083   -0.4898    0.5992 H   0  0  0  0  0  0  0  0  0  0  0  0
    3.0910    2.4517    0.9846 H   0  0  0  0  0  0  0  0  0  0  0  0
    3.2648    1.4753   -0.4846 H   0  0  0  0  0  0  0  0  0  0  0  0
    6.6446   -2.0519   -0.5575 H   0  0  0  0  0  0  0  0  0  0  0  0
    8.7566   -3.0382    0.3966 H   0  0  0  0  0  0  0  0  0  0  0  0
    9.6865   -2.0975    2.5148 H   0  0  0  0  0  0  0  0  0  0  0  0
    8.5632   -0.1926    3.6518 H   0  0  0  0  0  0  0  0  0  0  0  0
    6.3284    3.7469    4.0061 H   0  0  0  0  0  0  0  0  0  0  0  0
    5.1647    2.8996    5.0586 H   0  0  0  0  0  0  0  0  0  0  0  0
    4.4353    3.7373    2.4650 H   0  0  0  0  0  0  0  0  0  0  0  0
    3.7962    2.2403    3.1886 H   0  0  0  0  0  0  0  0  0  0  0  0
    5.4357    2.1736   -0.6549 H   0  0  0  0  0  0  0  0  0  0  0  0
    8.1391    4.5794   -0.0499 H   0  0  0  0  0  0  0  0  0  0  0  0
   10.7360    7.0251   -0.6941 H   0  0  0  0  0  0  0  0  0  0  0  0
   10.3322    5.3658   -0.1446 H   0  0  0  0  0  0  0  0  0  0  0  0
    9.1353    6.6882    0.0418 H   0  0  0  0  0  0  0  0  0  0  0  0
    9.0052    6.2051   -6.3183 H   0  0  0  0  0  0  0  0  0  0  0  0
    7.2978    5.8227   -5.9293 H   0  0  0  0  0  0  0  0  0  0  0  0
    8.4995    4.4994   -6.0996 H   0  0  0  0  0  0  0  0  0  0  0  0
    6.6904    3.8983   -4.7405 H   0  0  0  0  0  0  0  0  0  0  0  0
    5.1353    2.2889   -4.1222 H   0  0  0  0  0  0  0  0  0  0  0  0
    4.2825    2.7164   -2.6317 H   0  0  0  0  0  0  0  0  0  0  0  0
    5.4280    1.3594   -2.6452 H   0  0  0  0  0  0  0  0  0  0  0  0
  1  2  1  0
  1 33  1  0
  1 34  1  0
  1 35  1  0
  2  3  1  0
  2 36  1  0
  2 37  1  0
  3  4  1  0
  3 38  1  0
  3 39  1  0
  4  5  1  0
  4 18  1  0
  5  6  2  0
  5  7  1  0
  7  8  1  0
  7 12  2  0
  8  9  2  0
  8 40  1  0
  9 10  1  0
  9 41  1  0
 10 11  2  0
 10 42  1  0
 11 12  1  0
 11 43  1  0
 12 13  1  0
 13 14  1  0
 13 18  1  0
 14 15  2  0
 14 16  1  0
 16 17  1  0
 16 44  1  0
 16 45  1  0
 17 18  1  0
 17 46  1  0
 17 47  1  0
 18 19  1  6
 19 20  2  0
 19 21  1  0
 21 22  1  0
 21 48  1  0
 22 23  2  0
 22 31  1  0
 23 24  1  0
 23 49  1  0
 24 25  1  0
 24 27  2  0
 25 26  1  0
 26 50  1  0
 26 51  1  0
 26 52  1  0
 27 28  1  0
 27 30  1  0
 28 29  1  0
 29 53  1  0
 29 54  1  0
 29 55  1  0
 30 31  2  0
 30 56  1  0
 31 32  1  0
 32 57  1  0
 32 58  1  0
 32 59  1  0
M  END

