
     RDKit          3D

 31 31  0  0  0  0  0  0  0  0999 V2000
    1.0956    0.2457   -0.0527 C   0  0  0  0  0  0  0  0  0  0  0  0
    2.5854    0.2190    0.0663 C   0  0  0  0  0  0  0  0  0  0  0  0
    3.4878    1.2505    0.1466 C   0  0  0  0  0  0  0  0  0  0  0  0
    4.8078    0.6872    0.2413 C   0  0  0  0  0  0  0  0  0  0  0  0
    6.0811    1.4099    0.3663 C   0  0  0  0  0  0  0  0  0  0  0  0
    7.1700    0.8630    0.4438 O   0  0  0  0  0  0  0  0  0  0  0  0
    6.0220    2.9516    0.4331 C   0  0  1  0  0  0  0  0  0  0  0  0
    7.3265    3.5748    0.8851 C   0  0  0  0  0  0  0  0  0  0  0  0
    5.5823    3.5611   -1.2407 Cl  0  0  0  0  0  0  0  0  0  0  0  0
    4.6597   -0.7060    0.2147 C   0  0  0  0  0  0  0  0  0  0  0  0
    5.6833   -1.7928    0.2787 C   0  0  0  0  0  0  0  0  0  0  0  0
    3.3134   -0.9742    0.1109 N   0  0  0  0  0  0  0  0  0  0  0  0
    2.7367   -2.2967   -0.0191 C   0  0  0  0  0  0  0  0  0  0  0  0
    2.5702   -2.8373   -1.4526 C   0  0  0  0  0  0  0  0  0  0  0  0
    2.9915   -2.0195   -2.4528 N   0  0  0  0  0  0  0  0  0  0  0  0
    2.0836   -3.9363   -1.6277 O   0  0  0  0  0  0  0  0  0  0  0  0
    0.7515    1.2881   -0.1001 H   0  0  0  0  0  0  0  0  0  0  0  0
    0.5946   -0.2288    0.8094 H   0  0  0  0  0  0  0  0  0  0  0  0
    0.7372   -0.2662   -0.9622 H   0  0  0  0  0  0  0  0  0  0  0  0
    3.2314    2.3063    0.1096 H   0  0  0  0  0  0  0  0  0  0  0  0
    5.1852    3.2655    1.0721 H   0  0  0  0  0  0  0  0  0  0  0  0
    8.1528    3.2491    0.2394 H   0  0  0  0  0  0  0  0  0  0  0  0
    7.5550    3.2481    1.9122 H   0  0  0  0  0  0  0  0  0  0  0  0
    7.2563    4.6715    0.8682 H   0  0  0  0  0  0  0  0  0  0  0  0
    6.6789   -1.3403    0.3391 H   0  0  0  0  0  0  0  0  0  0  0  0
    5.6429   -2.4433   -0.6119 H   0  0  0  0  0  0  0  0  0  0  0  0
    5.5387   -2.4385    1.1628 H   0  0  0  0  0  0  0  0  0  0  0  0
    1.7404   -2.3207    0.4439 H   0  0  0  0  0  0  0  0  0  0  0  0
    3.3484   -3.0297    0.5247 H   0  0  0  0  0  0  0  0  0  0  0  0
    3.3992   -1.1098   -2.2778 H   0  0  0  0  0  0  0  0  0  0  0  0
    2.9059   -2.3487   -3.4075 H   0  0  0  0  0  0  0  0  0  0  0  0
  1  2  1  0
  1 17  1  0
  1 18  1  0
  1 19  1  0
  2  3  2  0
  2 12  1  0
  3  4  1  0
  3 20  1  0
  4  5  1  0
  4 10  2  0
  5  6  2  0
  5  7  1  0
  7  8  1  0
  7  9  1  0
  7 21  1  1
  8 22  1  0
  8 23  1  0
  8 24  1  0
 10 11  1  0
 10 12  1  0
 11 25  1  0
 11 26  1  0
 11 27  1  0
 12 13  1  0
 13 14  1  0
 13 28  1  0
 13 29  1  0
 14 15  1  0
 14 16  2  0
 15 30  1  0
 15 31  1  0
M  END

