
     RDKit          3D

 35 34  0  0  0  0  0  0  0  0999 V2000
    2.6915   -1.4584    0.4709 C   0  0  0  0  0  0  0  0  0  0  0  0
    2.4866   -0.1994    0.0625 C   0  0  0  0  0  0  0  0  0  0  0  0
    3.1014    1.0380    0.6545 C   0  0  0  0  0  0  0  0  0  0  0  0
    2.0855    2.0409    1.2316 C   0  0  0  0  0  0  0  0  0  0  0  0
    1.3369    1.5436    2.4715 C   0  0  0  0  0  0  0  0  0  0  0  0
    0.3236    2.5526    3.0192 C   0  0  0  0  0  0  0  0  0  0  0  0
   -0.4218    2.0679    4.2668 C   0  0  0  0  0  0  0  0  0  0  0  0
   -1.4393    3.0760    4.8025 C   0  0  0  0  0  0  0  0  0  0  0  0
    1.6918    0.1291   -1.0215 O   0  0  0  0  0  0  0  0  0  0  0  0
    0.6943   -0.6780   -1.4257 C   0  0  0  0  0  0  0  0  0  0  0  0
    0.1468   -0.5761   -2.6493 C   0  0  0  0  0  0  0  0  0  0  0  0
   -0.9923   -1.4417   -3.0003 C   0  0  0  0  0  0  0  0  0  0  0  0
   -1.5097   -2.2674   -2.2782 O   0  0  0  0  0  0  0  0  0  0  0  0
   -1.4067   -1.2079   -4.2652 O   0  0  0  0  0  0  0  0  0  0  0  0
   -2.5042   -1.9937   -4.7200 C   0  0  0  0  0  0  0  0  0  0  0  0
    3.3248   -1.6433    1.3390 H   0  0  0  0  0  0  0  0  0  0  0  0
    2.2659   -2.3235   -0.0400 H   0  0  0  0  0  0  0  0  0  0  0  0
    3.6779    1.5369   -0.1446 H   0  0  0  0  0  0  0  0  0  0  0  0
    3.8236    0.7342    1.4280 H   0  0  0  0  0  0  0  0  0  0  0  0
    1.3626    2.3083    0.4418 H   0  0  0  0  0  0  0  0  0  0  0  0
    2.6238    2.9726    1.4786 H   0  0  0  0  0  0  0  0  0  0  0  0
    2.0682    1.2932    3.2628 H   0  0  0  0  0  0  0  0  0  0  0  0
    0.8171    0.5970    2.2370 H   0  0  0  0  0  0  0  0  0  0  0  0
   -0.4100    2.7967    2.2283 H   0  0  0  0  0  0  0  0  0  0  0  0
    0.8404    3.5031    3.2502 H   0  0  0  0  0  0  0  0  0  0  0  0
    0.3125    1.8290    5.0578 H   0  0  0  0  0  0  0  0  0  0  0  0
   -0.9326    1.1152    4.0362 H   0  0  0  0  0  0  0  0  0  0  0  0
   -0.9547    4.0280    5.0778 H   0  0  0  0  0  0  0  0  0  0  0  0
   -1.9544    2.6944    5.6985 H   0  0  0  0  0  0  0  0  0  0  0  0
   -2.2105    3.3062    4.0483 H   0  0  0  0  0  0  0  0  0  0  0  0
    0.3153   -1.4027   -0.6964 H   0  0  0  0  0  0  0  0  0  0  0  0
    0.5241    0.1328   -3.3876 H   0  0  0  0  0  0  0  0  0  0  0  0
   -2.7037   -1.6754   -5.7511 H   0  0  0  0  0  0  0  0  0  0  0  0
   -3.3942   -1.8299   -4.0926 H   0  0  0  0  0  0  0  0  0  0  0  0
   -2.2593   -3.0669   -4.6939 H   0  0  0  0  0  0  0  0  0  0  0  0
  1  2  2  0
  1 16  1  0
  1 17  1  0
  2  3  1  0
  2  9  1  0
  3  4  1  0
  3 18  1  0
  3 19  1  0
  4  5  1  0
  4 20  1  0
  4 21  1  0
  5  6  1  0
  5 22  1  0
  5 23  1  0
  6  7  1  0
  6 24  1  0
  6 25  1  0
  7  8  1  0
  7 26  1  0
  7 27  1  0
  8 28  1  0
  8 29  1  0
  8 30  1  0
  9 10  1  0
 10 11  2  0
 10 31  1  0
 11 12  1  0
 11 32  1  0
 12 13  2  0
 12 14  1  0
 14 15  1  0
 15 33  1  0
 15 34  1  0
 15 35  1  0
M  END

