
     RDKit          3D

 37 38  0  0  0  0  0  0  0  0999 V2000
    4.6219   -2.2507    0.7882 C   0  0  0  0  0  0  0  0  0  0  0  0
    3.5633   -1.7412   -0.1762 C   0  0  0  0  0  0  0  0  0  0  0  0
    4.1558   -1.1028   -1.3207 O   0  0  0  0  0  0  0  0  0  0  0  0
    4.5002    0.1933   -1.1991 C   0  0  0  0  0  0  0  0  0  0  0  0
    4.2713    0.8547   -0.2163 O   0  0  0  0  0  0  0  0  0  0  0  0
    5.2249    0.6702   -2.4564 C   0  0  1  0  0  0  0  0  0  0  0  0
    4.9585    2.1149   -2.8421 C   0  0  0  0  0  0  0  0  0  0  0  0
    5.1025    3.1753   -1.9258 C   0  0  0  0  0  0  0  0  0  0  0  0
    4.9565    4.5014   -2.3379 C   0  0  0  0  0  0  0  0  0  0  0  0
    4.6723    4.7735   -3.6743 C   0  0  0  0  0  0  0  0  0  0  0  0
    4.5312    6.0518   -4.0731 F   0  0  0  0  0  0  0  0  0  0  0  0
    4.5312    3.7501   -4.6088 C   0  0  0  0  0  0  0  0  0  0  0  0
    4.6789    2.4281   -4.1845 C   0  0  0  0  0  0  0  0  0  0  0  0
    6.7156    0.3840   -2.3248 C   0  0  0  0  0  0  0  0  0  0  0  0
    7.5429    0.2957   -3.4206 N   0  0  0  0  0  0  0  0  0  0  0  0
    8.6457    0.8718   -2.9634 C   0  0  0  0  0  0  0  0  0  0  0  0
    9.8201    0.9923   -3.7653 N   0  0  0  0  0  0  0  0  0  0  0  0
   11.0046    1.6210   -3.2457 C   0  0  0  0  0  0  0  0  0  0  0  0
    9.7957    0.5157   -5.1180 C   0  0  0  0  0  0  0  0  0  0  0  0
    8.6775    1.3756   -1.7592 N   0  0  0  0  0  0  0  0  0  0  0  0
    7.4035    1.1061   -1.2860 O   0  0  0  0  0  0  0  0  0  0  0  0
    4.1448   -2.8054    1.6124 H   0  0  0  0  0  0  0  0  0  0  0  0
    5.1894   -1.4135    1.2205 H   0  0  0  0  0  0  0  0  0  0  0  0
    5.3253   -2.9256    0.2764 H   0  0  0  0  0  0  0  0  0  0  0  0
    2.8870   -1.0298    0.3208 H   0  0  0  0  0  0  0  0  0  0  0  0
    2.9709   -2.5688   -0.5933 H   0  0  0  0  0  0  0  0  0  0  0  0
    4.9039    0.0131   -3.2758 H   0  0  0  0  0  0  0  0  0  0  0  0
    5.3176    2.9536   -0.8813 H   0  0  0  0  0  0  0  0  0  0  0  0
    5.0575    5.3293   -1.6329 H   0  0  0  0  0  0  0  0  0  0  0  0
    4.3017    3.9982   -5.6473 H   0  0  0  0  0  0  0  0  0  0  0  0
    4.5697    1.6193   -4.9125 H   0  0  0  0  0  0  0  0  0  0  0  0
   10.8259    1.9355   -2.2128 H   0  0  0  0  0  0  0  0  0  0  0  0
   11.2693    2.4909   -3.8750 H   0  0  0  0  0  0  0  0  0  0  0  0
   11.8524    0.9135   -3.2977 H   0  0  0  0  0  0  0  0  0  0  0  0
    8.8525   -0.0128   -5.2892 H   0  0  0  0  0  0  0  0  0  0  0  0
   10.6680   -0.1374   -5.3005 H   0  0  0  0  0  0  0  0  0  0  0  0
    9.8863    1.3722   -5.8150 H   0  0  0  0  0  0  0  0  0  0  0  0
  1  2  1  0
  1 22  1  0
  1 23  1  0
  1 24  1  0
  2  3  1  0
  2 25  1  0
  2 26  1  0
  3  4  1  0
  4  5  2  0
  4  6  1  0
  6  7  1  0
  6 14  1  0
  6 27  1  6
  7  8  2  0
  7 13  1  0
  8  9  1  0
  8 28  1  0
  9 10  2  0
  9 29  1  0
 10 11  1  0
 10 12  1  0
 12 13  2  0
 12 30  1  0
 13 31  1  0
 14 15  2  0
 14 21  1  0
 15 16  1  0
 16 17  1  0
 16 20  2  0
 17 18  1  0
 17 19  1  0
 18 32  1  0
 18 33  1  0
 18 34  1  0
 19 35  1  0
 19 36  1  0
 19 37  1  0
 20 21  1  0
M  END

