
     RDKit          3D

 52 54  0  0  0  0  0  0  0  0999 V2000
    1.7746    1.8156    0.8208 C   0  0  0  0  0  0  0  0  0  0  0  0
    2.6433    0.7409    0.5715 O   0  0  0  0  0  0  0  0  0  0  0  0
    3.2273    0.1933    1.7264 C   0  0  0  0  0  0  0  0  0  0  0  0
    4.1791   -0.9177    1.2612 C   0  0  1  0  0  0  0  0  0  0  0  0
    5.3894   -0.3880    0.4864 C   0  0  0  0  0  0  0  0  0  0  0  0
    4.5466   -1.8399    2.3451 N   0  0  0  0  0  0  0  0  0  0  0  0
    5.2056   -1.5273    3.5403 C   0  0  0  0  0  0  0  0  0  0  0  0
    5.5684   -0.1464    3.9919 C   0  0  0  0  0  0  0  0  0  0  0  0
    5.4152   -2.7061    4.2149 C   0  0  0  0  0  0  0  0  0  0  0  0
    4.8795   -3.7785    3.4272 C   0  0  0  0  0  0  0  0  0  0  0  0
    4.8893   -5.2048    3.7619 C   0  0  0  0  0  0  0  0  0  0  0  0
    4.4221   -6.0947    3.0721 O   0  0  0  0  0  0  0  0  0  0  0  0
    5.5598   -5.5681    5.1012 C   0  0  0  0  0  0  0  0  0  0  0  0
    5.4419   -6.9559    5.3688 O   0  0  0  0  0  0  0  0  0  0  0  0
    6.2860   -7.7620    4.7129 C   0  0  0  0  0  0  0  0  0  0  0  0
    7.2120   -7.3915    4.0358 O   0  0  0  0  0  0  0  0  0  0  0  0
    5.9839   -9.2139    4.9532 C   0  0  0  0  0  0  0  0  0  0  0  0
    6.7524  -10.1920    4.4159 C   0  0  0  0  0  0  0  0  0  0  0  0
    6.4598  -11.6094    4.6515 C   0  0  0  0  0  0  0  0  0  0  0  0
    7.1274  -12.5240    4.1903 O   0  0  0  0  0  0  0  0  0  0  0  0
    5.2677  -11.8283    5.5110 C   0  0  0  0  0  0  0  0  0  0  0  0
    4.8365  -13.1262    5.8411 C   0  0  0  0  0  0  0  0  0  0  0  0
    3.7200  -13.3165    6.6443 C   0  0  0  0  0  0  0  0  0  0  0  0
    3.0107  -12.2034    7.1339 C   0  0  0  0  0  0  0  0  0  0  0  0
    3.4158  -10.9106    6.8228 C   0  0  0  0  0  0  0  0  0  0  0  0
    4.5454  -10.7312    6.0115 C   0  0  0  0  0  0  0  0  0  0  0  0
    4.9089   -9.4456    5.7331 O   0  0  0  0  0  0  0  0  0  0  0  0
    4.3484   -3.2004    2.2675 C   0  0  0  0  0  0  0  0  0  0  0  0
    3.6839   -3.8713    1.1075 C   0  0  0  0  0  0  0  0  0  0  0  0
    1.3817    2.1600   -0.1466 H   0  0  0  0  0  0  0  0  0  0  0  0
    2.2937    2.6624    1.3137 H   0  0  0  0  0  0  0  0  0  0  0  0
    0.9212    1.5181    1.4629 H   0  0  0  0  0  0  0  0  0  0  0  0
    2.4567   -0.2376    2.3988 H   0  0  0  0  0  0  0  0  0  0  0  0
    3.7618    0.9787    2.2959 H   0  0  0  0  0  0  0  0  0  0  0  0
    3.5764   -1.5104    0.5615 H   0  0  0  0  0  0  0  0  0  0  0  0
    6.0527    0.2219    1.1178 H   0  0  0  0  0  0  0  0  0  0  0  0
    5.0345    0.2403   -0.3429 H   0  0  0  0  0  0  0  0  0  0  0  0
    5.9809   -1.2183    0.0723 H   0  0  0  0  0  0  0  0  0  0  0  0
    6.1470    0.4180    3.2439 H   0  0  0  0  0  0  0  0  0  0  0  0
    6.1897   -0.2235    4.8953 H   0  0  0  0  0  0  0  0  0  0  0  0
    4.6875    0.4630    4.2557 H   0  0  0  0  0  0  0  0  0  0  0  0
    5.9061   -2.7789    5.1835 H   0  0  0  0  0  0  0  0  0  0  0  0
    5.0550   -5.0530    5.9309 H   0  0  0  0  0  0  0  0  0  0  0  0
    6.6180   -5.2638    5.0763 H   0  0  0  0  0  0  0  0  0  0  0  0
    7.6040   -9.9140    3.7954 H   0  0  0  0  0  0  0  0  0  0  0  0
    5.4135  -13.9623    5.4403 H   0  0  0  0  0  0  0  0  0  0  0  0
    3.3894  -14.3266    6.8971 H   0  0  0  0  0  0  0  0  0  0  0  0
    2.1312  -12.3528    7.7652 H   0  0  0  0  0  0  0  0  0  0  0  0
    2.8824  -10.0317    7.1889 H   0  0  0  0  0  0  0  0  0  0  0  0
    3.6619   -4.9504    1.2971 H   0  0  0  0  0  0  0  0  0  0  0  0
    4.2238   -3.6960    0.1615 H   0  0  0  0  0  0  0  0  0  0  0  0
    2.6462   -3.5230    0.9663 H   0  0  0  0  0  0  0  0  0  0  0  0
  1  2  1  0
  1 30  1  0
  1 31  1  0
  1 32  1  0
  2  3  1  0
  3  4  1  0
  3 33  1  0
  3 34  1  0
  4  5  1  0
  4  6  1  0
  4 35  1  6
  5 36  1  0
  5 37  1  0
  5 38  1  0
  6  7  1  0
  6 28  1  0
  7  8  1  0
  7  9  2  0
  8 39  1  0
  8 40  1  0
  8 41  1  0
  9 10  1  0
  9 42  1  0
 10 11  1  0
 10 28  2  0
 11 12  2  0
 11 13  1  0
 13 14  1  0
 13 43  1  0
 13 44  1  0
 14 15  1  0
 15 16  2  0
 15 17  1  0
 17 18  2  0
 17 27  1  0
 18 19  1  0
 18 45  1  0
 19 20  2  0
 19 21  1  0
 21 22  2  0
 21 26  1  0
 22 23  1  0
 22 46  1  0
 23 24  2  0
 23 47  1  0
 24 25  1  0
 24 48  1  0
 25 26  2  0
 25 49  1  0
 26 27  1  0
 28 29  1  0
 29 50  1  0
 29 51  1  0
 29 52  1  0
M  END

