
     RDKit          3D

 49 53  0  0  0  0  0  0  0  0999 V2000
    7.1475   -1.5628    4.5473 C   0  0  0  0  0  0  0  0  0  0  0  0
    6.4111   -0.9751    3.3974 C   0  0  0  0  0  0  0  0  0  0  0  0
    5.7952    0.2351    3.1919 C   0  0  0  0  0  0  0  0  0  0  0  0
    5.2625    0.2111    1.8711 C   0  0  0  0  0  0  0  0  0  0  0  0
    5.5865   -1.0216    1.3415 C   0  0  0  0  0  0  0  0  0  0  0  0
    5.2652   -1.5925    0.0460 C   0  0  0  0  0  0  0  0  0  0  0  0
    4.5672   -0.9065   -0.7639 O   0  0  0  0  0  0  0  0  0  0  0  0
    5.6717   -2.9247   -0.3438 C   0  0  0  0  0  0  0  0  0  0  0  0
    5.1888   -3.4554   -1.5428 C   0  0  0  0  0  0  0  0  0  0  0  0
    4.4076   -2.8361   -2.4184 O   0  0  0  0  0  0  0  0  0  0  0  0
    5.6021   -4.8261   -1.7013 C   0  0  0  0  0  0  0  0  0  0  0  0
    5.4003   -5.6841   -2.5255 O   0  0  0  0  0  0  0  0  0  0  0  0
    6.4125   -5.1222   -0.4707 N   0  0  0  0  0  0  0  0  0  0  0  0
    6.7021   -6.3425   -0.0609 C   0  0  0  0  0  0  0  0  0  0  0  0
    7.2914   -6.5859    1.1205 N   0  0  0  0  0  0  0  0  0  0  0  0
    7.4697   -7.9008    1.2996 C   0  0  0  0  0  0  0  0  0  0  0  0
    8.0551   -8.5392    2.4230 C   0  0  0  0  0  0  0  0  0  0  0  0
    8.1408   -9.9193    2.4013 C   0  0  0  0  0  0  0  0  0  0  0  0
    7.6553  -10.6433    1.2800 C   0  0  0  0  0  0  0  0  0  0  0  0
    7.0980  -10.0713    0.2066 N   0  0  0  0  0  0  0  0  0  0  0  0
    7.0082   -8.7575    0.2227 C   0  0  0  0  0  0  0  0  0  0  0  0
    6.3125   -7.7870   -1.0662 S   0  0  0  0  0  0  0  0  0  0  0  0
    6.6230   -3.8882    0.3413 C   0  0  1  0  0  0  0  0  0  0  0  0
    8.0923   -3.4716    0.3167 C   0  0  0  0  0  0  0  0  0  0  0  0
    8.8957   -3.6301    1.4538 C   0  0  0  0  0  0  0  0  0  0  0  0
   10.2377   -3.2573    1.4350 C   0  0  0  0  0  0  0  0  0  0  0  0
   10.8045   -2.7275    0.2698 C   0  0  0  0  0  0  0  0  0  0  0  0
   12.1207   -2.3562    0.2336 O   0  0  0  0  0  0  0  0  0  0  0  0
   10.0244   -2.5670   -0.8934 C   0  0  0  0  0  0  0  0  0  0  0  0
   10.5243   -2.0198   -2.2142 C   0  0  0  0  0  0  0  0  0  0  0  0
    9.8034   -1.9444   -3.1761 O   0  0  0  0  0  0  0  0  0  0  0  0
   11.8032   -1.6219   -2.2784 O   0  0  0  0  0  0  0  0  0  0  0  0
    8.6728   -2.9391   -0.8378 C   0  0  0  0  0  0  0  0  0  0  0  0
    6.2878   -1.7448    2.2782 O   0  0  0  0  0  0  0  0  0  0  0  0
    7.1385   -0.8653    5.3962 H   0  0  0  0  0  0  0  0  0  0  0  0
    8.1998   -1.7762    4.2899 H   0  0  0  0  0  0  0  0  0  0  0  0
    6.6908   -2.5122    4.8769 H   0  0  0  0  0  0  0  0  0  0  0  0
    5.7360    1.0477    3.9135 H   0  0  0  0  0  0  0  0  0  0  0  0
    4.7032    0.9825    1.3493 H   0  0  0  0  0  0  0  0  0  0  0  0
    4.2940   -1.9189   -2.0046 H   0  0  0  0  0  0  0  0  0  0  0  0
    8.4174   -7.9406    3.2605 H   0  0  0  0  0  0  0  0  0  0  0  0
    8.5818  -10.4668    3.2366 H   0  0  0  0  0  0  0  0  0  0  0  0
    7.7289  -11.7356    1.2650 H   0  0  0  0  0  0  0  0  0  0  0  0
    6.3391   -4.1057    1.3805 H   0  0  0  0  0  0  0  0  0  0  0  0
    8.4656   -4.0519    2.3641 H   0  0  0  0  0  0  0  0  0  0  0  0
   10.8567   -3.3756    2.3300 H   0  0  0  0  0  0  0  0  0  0  0  0
   12.5442   -2.4851    1.0925 H   0  0  0  0  0  0  0  0  0  0  0  0
   12.2503   -1.7510   -1.4228 H   0  0  0  0  0  0  0  0  0  0  0  0
    8.0889   -2.7859   -1.7478 H   0  0  0  0  0  0  0  0  0  0  0  0
  1  2  1  0
  1 35  1  0
  1 36  1  0
  1 37  1  0
  2  3  2  0
  2 34  1  0
  3  4  1  0
  3 38  1  0
  4  5  2  0
  4 39  1  0
  5  6  1  0
  5 34  1  0
  6  7  2  0
  6  8  1  0
  8  9  2  0
  8 23  1  0
  9 10  1  0
  9 11  1  0
 10 40  1  0
 11 12  2  0
 11 13  1  0
 13 14  1  0
 13 23  1  0
 14 15  2  0
 14 22  1  0
 15 16  1  0
 16 17  2  0
 16 21  1  0
 17 18  1  0
 17 41  1  0
 18 19  2  0
 18 42  1  0
 19 20  1  0
 19 43  1  0
 20 21  2  0
 21 22  1  0
 23 24  1  0
 23 44  1  1
 24 25  2  0
 24 33  1  0
 25 26  1  0
 25 45  1  0
 26 27  2  0
 26 46  1  0
 27 28  1  0
 27 29  1  0
 28 47  1  0
 29 30  1  0
 29 33  2  0
 30 31  2  0
 30 32  1  0
 32 48  1  0
 33 49  1  0
M  END

