
     RDKit          3D

 43 44  0  0  0  0  0  0  0  0999 V2000
    1.6486    1.4901    0.6178 C   0  0  0  0  0  0  0  0  0  0  0  0
    2.7598    0.9868    1.5449 C   0  0  1  0  0  0  0  0  0  0  0  0
    2.3040    0.8180    3.0141 C   0  0  0  0  0  0  0  0  0  0  0  0
    1.2349   -0.6450    3.3382 S   0  0  1  0  0  0  0  0  0  0  0  0
    2.3493   -1.9335    3.9237 C   0  0  0  0  0  0  0  0  0  0  0  0
    0.3416   -0.2759    4.4424 O   0  0  0  0  0  0  0  0  0  0  0  0
    0.6773   -1.1126    2.0498 O   0  0  0  0  0  0  0  0  0  0  0  0
    3.3332   -0.2443    1.0336 N   0  0  0  0  0  0  0  0  0  0  0  0
    4.6147   -0.7157    1.2532 C   0  0  0  0  0  0  0  0  0  0  0  0
    5.6217    0.1048    1.8010 C   0  0  0  0  0  0  0  0  0  0  0  0
    6.9308   -0.4378    2.0282 C   0  0  0  0  0  0  0  0  0  0  0  0
    7.1650   -1.7801    1.6396 C   0  0  0  0  0  0  0  0  0  0  0  0
    6.1545   -2.6012    1.0984 C   0  0  0  0  0  0  0  0  0  0  0  0
    6.5301   -3.8826    0.8156 O   0  0  0  0  0  0  0  0  0  0  0  0
    5.6948   -4.7396    0.0332 C   0  0  1  0  0  0  0  0  0  0  0  0
    6.5899   -5.8860   -0.4973 C   0  0  0  0  0  0  0  0  0  0  0  0
    6.2542   -7.1408    0.3524 C   0  0  0  0  0  0  0  0  0  0  0  0
    5.4173   -6.6112    1.5310 C   0  0  0  0  0  0  0  0  0  0  0  0
    4.6407   -5.4439    0.9095 C   0  0  0  0  0  0  0  0  0  0  0  0
    4.8211   -2.1019    0.9308 C   0  0  0  0  0  0  0  0  0  0  0  0
    1.2662    2.4563    0.9808 H   0  0  0  0  0  0  0  0  0  0  0  0
    0.8123    0.7780    0.5821 H   0  0  0  0  0  0  0  0  0  0  0  0
    2.0427    1.6369   -0.3988 H   0  0  0  0  0  0  0  0  0  0  0  0
    3.5604    1.7414    1.5596 H   0  0  0  0  0  0  0  0  0  0  0  0
    1.6828    1.6626    3.3459 H   0  0  0  0  0  0  0  0  0  0  0  0
    3.1689    0.7258    3.6881 H   0  0  0  0  0  0  0  0  0  0  0  0
    2.8441   -1.5945    4.8431 H   0  0  0  0  0  0  0  0  0  0  0  0
    3.0710   -2.1977    3.1314 H   0  0  0  0  0  0  0  0  0  0  0  0
    1.6863   -2.7833    4.1385 H   0  0  0  0  0  0  0  0  0  0  0  0
    2.6427   -0.9354    0.7429 H   0  0  0  0  0  0  0  0  0  0  0  0
    5.4133    1.1431    2.0599 H   0  0  0  0  0  0  0  0  0  0  0  0
    7.7319    0.1788    2.4325 H   0  0  0  0  0  0  0  0  0  0  0  0
    8.1570   -2.2255    1.7497 H   0  0  0  0  0  0  0  0  0  0  0  0
    5.2447   -4.1517   -0.7841 H   0  0  0  0  0  0  0  0  0  0  0  0
    7.6399   -5.5777   -0.3907 H   0  0  0  0  0  0  0  0  0  0  0  0
    6.4091   -6.0589   -1.5690 H   0  0  0  0  0  0  0  0  0  0  0  0
    7.1544   -7.6839    0.6786 H   0  0  0  0  0  0  0  0  0  0  0  0
    5.6520   -7.8504   -0.2396 H   0  0  0  0  0  0  0  0  0  0  0  0
    6.0788   -6.2243    2.3238 H   0  0  0  0  0  0  0  0  0  0  0  0
    4.7682   -7.3773    1.9832 H   0  0  0  0  0  0  0  0  0  0  0  0
    4.1840   -4.7582    1.6390 H   0  0  0  0  0  0  0  0  0  0  0  0
    3.8346   -5.8276    0.2580 H   0  0  0  0  0  0  0  0  0  0  0  0
    4.0662   -2.6289    0.3478 H   0  0  0  0  0  0  0  0  0  0  0  0
  1  2  1  0
  1 21  1  0
  1 22  1  0
  1 23  1  0
  2  3  1  0
  2  8  1  0
  2 24  1  1
  4  3  1  6
  3 25  1  0
  3 26  1  0
  4  5  1  0
  4  6  2  0
  4  7  2  0
  5 27  1  0
  5 28  1  0
  5 29  1  0
  8  9  1  0
  8 30  1  0
  9 10  2  0
  9 20  1  0
 10 11  1  0
 10 31  1  0
 11 12  2  0
 11 32  1  0
 12 13  1  0
 12 33  1  0
 13 14  1  0
 13 20  2  0
 14 15  1  0
 15 16  1  0
 15 19  1  0
 15 34  1  6
 16 17  1  0
 16 35  1  0
 16 36  1  0
 17 18  1  0
 17 37  1  0
 17 38  1  0
 18 19  1  0
 18 39  1  0
 18 40  1  0
 19 41  1  0
 19 42  1  0
 20 43  1  0
M  END

