
     RDKit          3D

 45 48  0  0  0  0  0  0  0  0999 V2000
    1.3304   -0.1988   -0.4097 C   0  0  0  0  0  0  0  0  0  0  0  0
    2.7866    0.0304   -0.1311 C   0  0  0  0  0  0  0  0  0  0  0  0
    3.4503    1.2792   -0.2730 C   0  0  0  0  0  0  0  0  0  0  0  0
    4.8868    1.3071   -0.1241 C   0  0  0  0  0  0  0  0  0  0  0  0
    5.5486    0.1610    0.3292 C   0  0  0  0  0  0  0  0  0  0  0  0
    6.8905    0.0510    0.6096 N   0  0  0  0  0  0  0  0  0  0  0  0
    7.5673   -1.2377    0.5301 C   0  0  0  0  0  0  0  0  0  0  0  0
    8.3575   -1.3573   -0.7823 C   0  0  0  0  0  0  0  0  0  0  0  0
    9.3010   -0.1613   -0.9769 C   0  0  0  0  0  0  0  0  0  0  0  0
    8.5627    1.1760   -0.8194 C   0  0  2  0  0  0  0  0  0  0  0  0
    9.4902    2.2856   -0.9268 N   0  0  0  0  0  0  0  0  0  0  0  0
    9.1267    3.5588   -1.2798 C   0  0  0  0  0  0  0  0  0  0  0  0
   10.1420    4.5775   -1.3441 C   0  0  0  0  0  0  0  0  0  0  0  0
    9.7808    5.8420   -1.7208 C   0  0  0  0  0  0  0  0  0  0  0  0
    8.4233    6.1329   -2.0445 C   0  0  0  0  0  0  0  0  0  0  0  0
    7.9738    7.4153   -2.4468 C   0  0  0  0  0  0  0  0  0  0  0  0
    6.6449    7.6406   -2.7489 C   0  0  0  0  0  0  0  0  0  0  0  0
    5.7393    6.5635   -2.6488 C   0  0  0  0  0  0  0  0  0  0  0  0
    4.4525    6.7965   -2.9475 F   0  0  0  0  0  0  0  0  0  0  0  0
    6.1244    5.2992   -2.2618 C   0  0  0  0  0  0  0  0  0  0  0  0
    7.4870    5.0495   -1.9469 C   0  0  0  0  0  0  0  0  0  0  0  0
    7.8571    3.7987   -1.5612 N   0  0  0  0  0  0  0  0  0  0  0  0
    7.7851    1.1884    0.5174 C   0  0  0  0  0  0  0  0  0  0  0  0
    4.7782   -0.9439    0.5711 N   0  0  0  0  0  0  0  0  0  0  0  0
    3.5569   -0.9702    0.2366 N   0  0  0  0  0  0  0  0  0  0  0  0
    1.0754    0.1078   -1.4370 H   0  0  0  0  0  0  0  0  0  0  0  0
    0.7094    0.4034    0.2738 H   0  0  0  0  0  0  0  0  0  0  0  0
    1.0678   -1.2575   -0.2815 H   0  0  0  0  0  0  0  0  0  0  0  0
    2.8991    2.1378   -0.6552 H   0  0  0  0  0  0  0  0  0  0  0  0
    5.4609    2.1797   -0.4333 H   0  0  0  0  0  0  0  0  0  0  0  0
    6.8165   -2.0336    0.6200 H   0  0  0  0  0  0  0  0  0  0  0  0
    8.2578   -1.3247    1.3901 H   0  0  0  0  0  0  0  0  0  0  0  0
    7.6443   -1.4076   -1.6229 H   0  0  0  0  0  0  0  0  0  0  0  0
    8.9307   -2.2995   -0.7911 H   0  0  0  0  0  0  0  0  0  0  0  0
    9.7893   -0.2050   -1.9644 H   0  0  0  0  0  0  0  0  0  0  0  0
   10.1080   -0.2113   -0.2191 H   0  0  0  0  0  0  0  0  0  0  0  0
    7.8213    1.2881   -1.6267 H   0  0  0  0  0  0  0  0  0  0  0  0
   10.4491    2.1348   -0.6415 H   0  0  0  0  0  0  0  0  0  0  0  0
   11.1785    4.3328   -1.0988 H   0  0  0  0  0  0  0  0  0  0  0  0
   10.5288    6.6379   -1.7799 H   0  0  0  0  0  0  0  0  0  0  0  0
    8.6967    8.2328   -2.5170 H   0  0  0  0  0  0  0  0  0  0  0  0
    6.2762    8.6191   -3.0611 H   0  0  0  0  0  0  0  0  0  0  0  0
    5.3962    4.4901   -2.1992 H   0  0  0  0  0  0  0  0  0  0  0  0
    7.2245    2.1234    0.6290 H   0  0  0  0  0  0  0  0  0  0  0  0
    8.5134    1.1353    1.3496 H   0  0  0  0  0  0  0  0  0  0  0  0
  1  2  1  0
  1 26  1  0
  1 27  1  0
  1 28  1  0
  2  3  2  0
  2 25  1  0
  3  4  1  0
  3 29  1  0
  4  5  2  0
  4 30  1  0
  5  6  1  0
  5 24  1  0
  6  7  1  0
  6 23  1  0
  7  8  1  0
  7 31  1  0
  7 32  1  0
  8  9  1  0
  8 33  1  0
  8 34  1  0
  9 10  1  0
  9 35  1  0
  9 36  1  0
 10 11  1  0
 10 23  1  0
 10 37  1  6
 11 12  1  0
 11 38  1  0
 12 13  2  0
 12 22  1  0
 13 14  1  0
 13 39  1  0
 14 15  2  0
 14 40  1  0
 15 16  1  0
 15 21  1  0
 16 17  2  0
 16 41  1  0
 17 18  1  0
 17 42  1  0
 18 19  1  0
 18 20  2  0
 20 21  1  0
 20 43  1  0
 21 22  2  0
 23 44  1  0
 23 45  1  0
 24 25  2  0
M  END

