
     RDKit          3D

 62 64  0  0  0  0  0  0  0  0999 V2000
    0.9784    1.6968    1.8211 C   0  0  0  0  0  0  0  0  0  0  0  0
    2.1545    2.1354    1.3454 C   0  0  0  0  0  0  0  0  0  0  0  0
    2.7895    3.4274    1.8018 C   0  0  0  0  0  0  0  0  0  0  0  0
    2.8328    1.3909    0.2381 C   0  0  0  0  0  0  0  0  0  0  0  0
    2.0541    1.2378   -0.9321 O   0  0  0  0  0  0  0  0  0  0  0  0
    1.4774    2.4960   -1.7738 P   0  0  1  0  0  0  0  0  0  0  0  0
    2.1075    3.7960   -1.4770 O   0  0  0  0  0  0  0  0  0  0  0  0
    1.6779    2.0625   -3.3202 O   0  0  0  0  0  0  0  0  0  0  0  0
    1.2340    0.9526   -4.0256 C   0  0  0  0  0  0  0  0  0  0  0  0
    0.6874    1.1828   -5.2907 C   0  0  0  0  0  0  0  0  0  0  0  0
    0.2818    0.1055   -6.0756 C   0  0  0  0  0  0  0  0  0  0  0  0
    0.4108   -1.2232   -5.6250 C   0  0  0  0  0  0  0  0  0  0  0  0
   -0.0206   -2.3695   -6.4660 C   0  0  0  0  0  0  0  0  0  0  0  0
    0.1327   -2.3503   -7.8638 C   0  0  0  0  0  0  0  0  0  0  0  0
   -0.2694   -3.4255   -8.6571 C   0  0  0  0  0  0  0  0  0  0  0  0
   -0.8418   -4.5617   -8.0687 C   0  0  0  0  0  0  0  0  0  0  0  0
   -1.2514   -5.6374   -8.7880 O   0  0  0  0  0  0  0  0  0  0  0  0
   -1.0041   -4.6012   -6.6760 C   0  0  0  0  0  0  0  0  0  0  0  0
   -0.5989   -3.5218   -5.8959 C   0  0  0  0  0  0  0  0  0  0  0  0
    0.9691   -1.4221   -4.3491 C   0  0  0  0  0  0  0  0  0  0  0  0
    1.3808   -0.3531   -3.5495 C   0  0  0  0  0  0  0  0  0  0  0  0
   -0.1076    2.3523   -1.4909 O   0  0  0  0  0  0  0  0  0  0  0  0
   -1.2316    2.5413   -2.2961 C   0  0  0  0  0  0  0  0  0  0  0  0
   -2.1424    1.4687   -2.3157 C   0  0  0  0  0  0  0  0  0  0  0  0
   -1.8560    0.2099   -1.5402 C   0  0  0  0  0  0  0  0  0  0  0  0
   -3.3176    1.6235   -3.0614 C   0  0  0  0  0  0  0  0  0  0  0  0
   -3.5760    2.8069   -3.7550 C   0  0  0  0  0  0  0  0  0  0  0  0
   -2.6628    3.8588   -3.6954 C   0  0  0  0  0  0  0  0  0  0  0  0
   -1.4711    3.7585   -2.9582 C   0  0  0  0  0  0  0  0  0  0  0  0
   -0.5150    4.9222   -2.8869 C   0  0  0  0  0  0  0  0  0  0  0  0
    4.0521    0.8215    0.2617 C   0  0  0  0  0  0  0  0  0  0  0  0
    4.8779    0.7629    1.5215 C   0  0  0  0  0  0  0  0  0  0  0  0
    4.6653    0.1582   -0.9433 C   0  0  0  0  0  0  0  0  0  0  0  0
    0.4384    2.2496    2.5953 H   0  0  0  0  0  0  0  0  0  0  0  0
    0.5142    0.7818    1.4439 H   0  0  0  0  0  0  0  0  0  0  0  0
    2.2183    3.8829    2.6246 H   0  0  0  0  0  0  0  0  0  0  0  0
    2.8214    4.1302    0.9535 H   0  0  0  0  0  0  0  0  0  0  0  0
    3.8277    3.2810    2.1391 H   0  0  0  0  0  0  0  0  0  0  0  0
    0.5771    2.2101   -5.6418 H   0  0  0  0  0  0  0  0  0  0  0  0
   -0.1697    0.3042   -7.0500 H   0  0  0  0  0  0  0  0  0  0  0  0
    0.5993   -1.4877   -8.3451 H   0  0  0  0  0  0  0  0  0  0  0  0
   -0.1277   -3.3868   -9.7422 H   0  0  0  0  0  0  0  0  0  0  0  0
   -1.0911   -5.4784   -9.7275 H   0  0  0  0  0  0  0  0  0  0  0  0
   -1.4606   -5.4849   -6.2255 H   0  0  0  0  0  0  0  0  0  0  0  0
   -0.7585   -3.5653   -4.8160 H   0  0  0  0  0  0  0  0  0  0  0  0
    1.1150   -2.4387   -3.9771 H   0  0  0  0  0  0  0  0  0  0  0  0
    1.8245   -0.5300   -2.5700 H   0  0  0  0  0  0  0  0  0  0  0  0
   -1.7173    0.4258   -0.4684 H   0  0  0  0  0  0  0  0  0  0  0  0
   -0.9287   -0.2724   -1.8882 H   0  0  0  0  0  0  0  0  0  0  0  0
   -2.6792   -0.5111   -1.6459 H   0  0  0  0  0  0  0  0  0  0  0  0
   -4.0372    0.8011   -3.0919 H   0  0  0  0  0  0  0  0  0  0  0  0
   -4.4971    2.9141   -4.3331 H   0  0  0  0  0  0  0  0  0  0  0  0
   -2.8742    4.7940   -4.2209 H   0  0  0  0  0  0  0  0  0  0  0  0
   -0.9975    5.8354   -3.2636 H   0  0  0  0  0  0  0  0  0  0  0  0
    0.3909    4.7487   -3.4900 H   0  0  0  0  0  0  0  0  0  0  0  0
   -0.1640    5.1047   -1.8611 H   0  0  0  0  0  0  0  0  0  0  0  0
    4.3261    1.0814    2.4153 H   0  0  0  0  0  0  0  0  0  0  0  0
    5.7876    1.3830    1.4311 H   0  0  0  0  0  0  0  0  0  0  0  0
    5.2226   -0.2717    1.6947 H   0  0  0  0  0  0  0  0  0  0  0  0
    4.1272    0.3865   -1.8712 H   0  0  0  0  0  0  0  0  0  0  0  0
    4.6895   -0.9398   -0.8198 H   0  0  0  0  0  0  0  0  0  0  0  0
    5.7136    0.4816   -1.0626 H   0  0  0  0  0  0  0  0  0  0  0  0
  1  2  2  0
  1 34  1  0
  1 35  1  0
  2  3  1  0
  2  4  1  0
  3 36  1  0
  3 37  1  0
  3 38  1  0
  4  5  1  0
  4 31  2  0
  6  5  1  1
  6  7  2  0
  6  8  1  0
  6 22  1  0
  8  9  1  0
  9 10  2  0
  9 21  1  0
 10 11  1  0
 10 39  1  0
 11 12  2  0
 11 40  1  0
 12 13  1  0
 12 20  1  0
 13 14  2  0
 13 19  1  0
 14 15  1  0
 14 41  1  0
 15 16  2  0
 15 42  1  0
 16 17  1  0
 16 18  1  0
 17 43  1  0
 18 19  2  0
 18 44  1  0
 19 45  1  0
 20 21  2  0
 20 46  1  0
 21 47  1  0
 22 23  1  0
 23 24  2  0
 23 29  1  0
 24 25  1  0
 24 26  1  0
 25 48  1  0
 25 49  1  0
 25 50  1  0
 26 27  2  0
 26 51  1  0
 27 28  1  0
 27 52  1  0
 28 29  2  0
 28 53  1  0
 29 30  1  0
 30 54  1  0
 30 55  1  0
 30 56  1  0
 31 32  1  0
 31 33  1  0
 32 57  1  0
 32 58  1  0
 32 59  1  0
 33 60  1  0
 33 61  1  0
 33 62  1  0
M  END

