
     RDKit          3D

 47 49  0  0  0  0  0  0  0  0999 V2000
    1.9904    0.5447    0.9173 C   0  0  0  0  0  0  0  0  0  0  0  0
    3.1088    0.0522   -0.0105 C   0  0  1  0  0  0  0  0  0  0  0  0
    2.9993   -1.4472   -0.3422 C   0  0  0  0  0  0  0  0  0  0  0  0
    1.8694   -1.7353   -1.3369 C   0  0  2  0  0  0  0  0  0  0  0  0
    1.8166   -3.2201   -1.7018 C   0  0  0  0  0  0  0  0  0  0  0  0
    2.5198   -4.0660   -1.2209 O   0  0  0  0  0  0  0  0  0  0  0  0
    0.8841   -3.5582   -2.6253 O   0  0  0  0  0  0  0  0  0  0  0  0
    2.0018   -0.8404   -2.5847 C   0  0  0  0  0  0  0  0  0  0  0  0
    2.0546    0.5639   -2.2037 N   0  0  0  0  0  0  0  0  0  0  0  0
    1.7315    1.4693   -3.2463 C   0  0  0  0  0  0  0  0  0  0  0  0
    1.6135    1.0225   -4.4232 O   0  0  0  0  0  0  0  0  0  0  0  0
    1.4892    2.8514   -2.9446 C   0  0  0  0  0  0  0  0  0  0  0  0
    1.2995    3.4719   -1.6510 C   0  0  0  0  0  0  0  0  0  0  0  0
    1.0456    4.8295   -1.5663 C   0  0  0  0  0  0  0  0  0  0  0  0
    0.9559    5.6217   -2.7264 C   0  0  0  0  0  0  0  0  0  0  0  0
    1.0787    5.0521   -3.9571 N   0  0  0  0  0  0  0  0  0  0  0  0
    1.3207    3.7771   -4.0245 C   0  0  0  0  0  0  0  0  0  0  0  0
    1.4439    3.2694   -5.3886 N   0  0  0  0  0  0  0  0  0  0  0  0
    0.2852    3.1215   -6.2211 C   0  0  0  0  0  0  0  0  0  0  0  0
    0.2521    4.3214   -7.2151 C   0  0  0  0  0  0  0  0  0  0  0  0
    1.4629    4.3797   -7.9277 O   0  0  0  0  0  0  0  0  0  0  0  0
    2.5784    4.5637   -7.0949 C   0  0  0  0  0  0  0  0  0  0  0  0
    2.6902    3.3757   -6.0910 C   0  0  0  0  0  0  0  0  0  0  0  0
    3.1870    0.8585   -1.3190 C   0  0  0  0  0  0  0  0  0  0  0  0
    1.9329   -0.0724    1.8284 H   0  0  0  0  0  0  0  0  0  0  0  0
    1.0069    0.5144    0.4235 H   0  0  0  0  0  0  0  0  0  0  0  0
    2.1690    1.5853    1.2331 H   0  0  0  0  0  0  0  0  0  0  0  0
    4.0692    0.2046    0.5129 H   0  0  0  0  0  0  0  0  0  0  0  0
    2.8599   -2.0464    0.5706 H   0  0  0  0  0  0  0  0  0  0  0  0
    3.9447   -1.7947   -0.7918 H   0  0  0  0  0  0  0  0  0  0  0  0
    0.8956   -1.5001   -0.8671 H   0  0  0  0  0  0  0  0  0  0  0  0
    0.4064   -2.7714   -2.9248 H   0  0  0  0  0  0  0  0  0  0  0  0
    1.1605   -0.9614   -3.2824 H   0  0  0  0  0  0  0  0  0  0  0  0
    2.9079   -1.1385   -3.1547 H   0  0  0  0  0  0  0  0  0  0  0  0
    1.3161    2.8622   -0.7496 H   0  0  0  0  0  0  0  0  0  0  0  0
    0.8958    5.2946   -0.5880 H   0  0  0  0  0  0  0  0  0  0  0  0
    0.7654    6.6954   -2.6895 H   0  0  0  0  0  0  0  0  0  0  0  0
   -0.6180    3.0922   -5.6017 H   0  0  0  0  0  0  0  0  0  0  0  0
    0.3762    2.1847   -6.7912 H   0  0  0  0  0  0  0  0  0  0  0  0
    0.0740    5.2474   -6.6424 H   0  0  0  0  0  0  0  0  0  0  0  0
   -0.5563    4.1701   -7.9438 H   0  0  0  0  0  0  0  0  0  0  0  0
    2.5053    5.5043   -6.5217 H   0  0  0  0  0  0  0  0  0  0  0  0
    3.4726    4.5863   -7.7333 H   0  0  0  0  0  0  0  0  0  0  0  0
    3.5082    3.5327   -5.3788 H   0  0  0  0  0  0  0  0  0  0  0  0
    2.8608    2.4445   -6.6525 H   0  0  0  0  0  0  0  0  0  0  0  0
    3.2186    1.9347   -1.1072 H   0  0  0  0  0  0  0  0  0  0  0  0
    4.1383    0.6080   -1.8372 H   0  0  0  0  0  0  0  0  0  0  0  0
  1  2  1  0
  1 25  1  0
  1 26  1  0
  1 27  1  0
  2  3  1  0
  2 24  1  0
  2 28  1  1
  3  4  1  0
  3 29  1  0
  3 30  1  0
  4  5  1  0
  4  8  1  0
  4 31  1  1
  5  6  2  0
  5  7  1  0
  7 32  1  0
  8  9  1  0
  8 33  1  0
  8 34  1  0
  9 10  1  0
  9 24  1  0
 10 11  2  0
 10 12  1  0
 12 13  2  0
 12 17  1  0
 13 14  1  0
 13 35  1  0
 14 15  2  0
 14 36  1  0
 15 16  1  0
 15 37  1  0
 16 17  2  0
 17 18  1  0
 18 19  1  0
 18 23  1  0
 19 20  1  0
 19 38  1  0
 19 39  1  0
 20 21  1  0
 20 40  1  0
 20 41  1  0
 21 22  1  0
 22 23  1  0
 22 42  1  0
 22 43  1  0
 23 44  1  0
 23 45  1  0
 24 46  1  0
 24 47  1  0
M  END

