
     RDKit          3D

 58 62  0  0  0  0  0  0  0  0999 V2000
   13.3833   -2.0761    5.0203 C   0  0  0  0  0  0  0  0  0  0  0  0
   12.1272   -2.2884    4.4235 C   0  0  0  0  0  0  0  0  0  0  0  0
   11.2885   -1.2386    3.9744 C   0  0  0  0  0  0  0  0  0  0  0  0
   11.5329   -0.0151    3.9830 O   0  0  0  0  0  0  0  0  0  0  0  0
    9.9573   -1.5961    3.4485 N   0  0  0  0  0  0  0  0  0  0  0  0
    9.5568   -2.9508    3.1584 C   0  0  0  0  0  0  0  0  0  0  0  0
    8.1330   -2.8058    2.5477 C   0  0  1  0  0  0  0  0  0  0  0  0
    6.9596   -3.1394    3.4793 C   0  0  0  0  0  0  0  0  0  0  0  0
    6.5011   -1.8449    4.0173 N   0  0  0  0  0  0  0  0  0  0  0  0
    5.6465   -1.7181    5.0263 C   0  0  0  0  0  0  0  0  0  0  0  0
    5.3179   -0.4631    5.4297 N   0  0  0  0  0  0  0  0  0  0  0  0
    4.4868   -0.2992    6.4446 C   0  0  0  0  0  0  0  0  0  0  0  0
    4.1202    0.9185    6.9035 N   0  0  0  0  0  0  0  0  0  0  0  0
    4.5053    2.1726    6.4476 C   0  0  0  0  0  0  0  0  0  0  0  0
    5.3996    2.5448    5.4019 C   0  0  0  0  0  0  0  0  0  0  0  0
    5.4708    3.8636    5.3072 N   0  0  0  0  0  0  0  0  0  0  0  0
    4.6565    4.3551    6.2547 N   0  0  0  0  0  0  0  0  0  0  0  0
    4.5308    5.7927    6.4117 C   0  0  0  0  0  0  0  0  0  0  0  0
    4.0485    3.3844    6.9731 C   0  0  0  0  0  0  0  0  0  0  0  0
    3.9362   -1.4505    7.1002 C   0  0  0  0  0  0  0  0  0  0  0  0
    3.0864   -1.6058    8.1352 N   0  0  0  0  0  0  0  0  0  0  0  0
    2.9674   -2.9263    8.2623 C   0  0  0  0  0  0  0  0  0  0  0  0
    3.6958   -3.6466    7.3570 N   0  0  0  0  0  0  0  0  0  0  0  0
    3.8075   -5.1156    7.2194 C   0  0  1  0  0  0  0  0  0  0  0  0
    4.4444   -5.7324    8.4664 C   0  0  0  0  0  0  0  0  0  0  0  0
    2.4541   -5.7329    6.8607 C   0  0  0  0  0  0  0  0  0  0  0  0
    4.3499   -2.7085    6.5722 C   0  0  0  0  0  0  0  0  0  0  0  0
    5.1656   -2.8972    5.5727 N   0  0  0  0  0  0  0  0  0  0  0  0
    7.1333   -0.6949    3.3480 C   0  0  0  0  0  0  0  0  0  0  0  0
    8.0196   -1.2790    2.2344 C   0  0  1  0  0  0  0  0  0  0  0  0
    9.4705   -0.7941    2.3511 C   0  0  0  0  0  0  0  0  0  0  0  0
   13.9995   -2.9127    5.3507 H   0  0  0  0  0  0  0  0  0  0  0  0
   13.7681   -1.0643    5.1443 H   0  0  0  0  0  0  0  0  0  0  0  0
   11.7832   -3.3191    4.3123 H   0  0  0  0  0  0  0  0  0  0  0  0
    9.5688   -3.5795    4.0637 H   0  0  0  0  0  0  0  0  0  0  0  0
   10.2206   -3.4550    2.4172 H   0  0  0  0  0  0  0  0  0  0  0  0
    8.0471   -3.4110    1.6337 H   0  0  0  0  0  0  0  0  0  0  0  0
    7.2345   -3.8064    4.3064 H   0  0  0  0  0  0  0  0  0  0  0  0
    6.1197   -3.6111    2.9419 H   0  0  0  0  0  0  0  0  0  0  0  0
    3.4780    0.8891    7.6918 H   0  0  0  0  0  0  0  0  0  0  0  0
    5.9752    1.8951    4.7513 H   0  0  0  0  0  0  0  0  0  0  0  0
    4.1707    6.2389    5.4738 H   0  0  0  0  0  0  0  0  0  0  0  0
    5.5099    6.2275    6.6590 H   0  0  0  0  0  0  0  0  0  0  0  0
    3.8188    6.0081    7.2186 H   0  0  0  0  0  0  0  0  0  0  0  0
    3.3565    3.6007    7.7843 H   0  0  0  0  0  0  0  0  0  0  0  0
    2.3488   -3.4107    9.0172 H   0  0  0  0  0  0  0  0  0  0  0  0
    4.4940   -5.2442    6.3694 H   0  0  0  0  0  0  0  0  0  0  0  0
    3.7964   -5.6219    9.3512 H   0  0  0  0  0  0  0  0  0  0  0  0
    5.4179   -5.2700    8.6869 H   0  0  0  0  0  0  0  0  0  0  0  0
    4.6073   -6.8082    8.3057 H   0  0  0  0  0  0  0  0  0  0  0  0
    1.7269   -5.6245    7.6819 H   0  0  0  0  0  0  0  0  0  0  0  0
    2.5770   -6.8087    6.6668 H   0  0  0  0  0  0  0  0  0  0  0  0
    2.0302   -5.2702    5.9568 H   0  0  0  0  0  0  0  0  0  0  0  0
    7.7362   -0.1559    4.0932 H   0  0  0  0  0  0  0  0  0  0  0  0
    6.3477   -0.0181    2.9779 H   0  0  0  0  0  0  0  0  0  0  0  0
    7.5758   -1.0871    1.2455 H   0  0  0  0  0  0  0  0  0  0  0  0
    9.5848    0.2736    2.5806 H   0  0  0  0  0  0  0  0  0  0  0  0
   10.0035   -0.9827    1.3883 H   0  0  0  0  0  0  0  0  0  0  0  0
  1  2  2  0
  1 32  1  0
  1 33  1  0
  2  3  1  0
  2 34  1  0
  3  4  2  0
  3  5  1  0
  5  6  1  0
  5 31  1  0
  6  7  1  0
  6 35  1  0
  6 36  1  0
  7  8  1  0
  7 30  1  0
  7 37  1  6
  8  9  1  0
  8 38  1  0
  8 39  1  0
  9 10  1  0
  9 29  1  0
 10 11  2  0
 10 28  1  0
 11 12  1  0
 12 13  1  0
 12 20  2  0
 13 14  1  0
 13 40  1  0
 14 15  1  0
 14 19  2  0
 15 16  2  0
 15 41  1  0
 16 17  1  0
 17 18  1  0
 17 19  1  0
 18 42  1  0
 18 43  1  0
 18 44  1  0
 19 45  1  0
 20 21  1  0
 20 27  1  0
 21 22  2  0
 22 23  1  0
 22 46  1  0
 23 24  1  0
 23 27  1  0
 24 25  1  0
 24 26  1  0
 24 47  1  6
 25 48  1  0
 25 49  1  0
 25 50  1  0
 26 51  1  0
 26 52  1  0
 26 53  1  0
 27 28  2  0
 29 30  1  0
 29 54  1  0
 29 55  1  0
 30 31  1  0
 30 56  1  6
 31 57  1  0
 31 58  1  0
M  END

