
     RDKit          3D

 25 26  0  0  0  0  0  0  0  0999 V2000
    1.1567    0.1048    0.3878 C   0  0  0  0  0  0  0  0  0  0  0  0
    2.5708    0.1519    0.4793 O   0  0  0  0  0  0  0  0  0  0  0  0
    3.1898   -1.0510    0.6313 C   0  0  0  0  0  0  0  0  0  0  0  0
    2.5690   -2.1085    0.6872 O   0  0  0  0  0  0  0  0  0  0  0  0
    4.6477   -0.9647    0.7218 C   0  0  0  0  0  0  0  0  0  0  0  0
    5.3423   -2.1837    0.8788 C   0  0  0  0  0  0  0  0  0  0  0  0
    6.7513   -2.2758    0.9811 C   0  0  0  0  0  0  0  0  0  0  0  0
    7.5310   -3.9638    1.1870 Br  0  0  0  0  0  0  0  0  0  0  0  0
    7.5735   -1.1158    0.9298 C   0  0  0  0  0  0  0  0  0  0  0  0
    8.9419   -0.7586    0.9865 C   0  0  0  0  0  0  0  0  0  0  0  0
    9.0156    0.6212    0.8646 C   0  0  0  0  0  0  0  0  0  0  0  0
   10.1295    1.5929    0.8463 C   0  0  0  0  0  0  0  0  0  0  0  0
    7.7241    1.1490    0.7323 O   0  0  0  0  0  0  0  0  0  0  0  0
    6.8568    0.0991    0.7718 C   0  0  0  0  0  0  0  0  0  0  0  0
    5.4705    0.2360    0.6679 C   0  0  0  0  0  0  0  0  0  0  0  0
    4.9200    1.4455    0.5226 O   0  0  0  0  0  0  0  0  0  0  0  0
    0.8212    1.1442    0.2720 H   0  0  0  0  0  0  0  0  0  0  0  0
    0.7096   -0.3376    1.2929 H   0  0  0  0  0  0  0  0  0  0  0  0
    0.8297   -0.4959   -0.4765 H   0  0  0  0  0  0  0  0  0  0  0  0
    4.7341   -3.0882    0.9204 H   0  0  0  0  0  0  0  0  0  0  0  0
    9.7915   -1.4278    1.1029 H   0  0  0  0  0  0  0  0  0  0  0  0
   11.0872    1.0654    0.9579 H   0  0  0  0  0  0  0  0  0  0  0  0
   10.0481    2.3328    1.6651 H   0  0  0  0  0  0  0  0  0  0  0  0
   10.1628    2.1676   -0.0989 H   0  0  0  0  0  0  0  0  0  0  0  0
    5.6308    2.1081    0.5106 H   0  0  0  0  0  0  0  0  0  0  0  0
  1  2  1  0
  1 17  1  0
  1 18  1  0
  1 19  1  0
  2  3  1  0
  3  4  2  0
  3  5  1  0
  5  6  2  0
  5 15  1  0
  6  7  1  0
  6 20  1  0
  7  8  1  0
  7  9  2  0
  9 10  1  0
  9 14  1  0
 10 11  2  0
 10 21  1  0
 11 12  1  0
 11 13  1  0
 12 22  1  0
 12 23  1  0
 12 24  1  0
 13 14  1  0
 14 15  2  0
 15 16  1  0
 16 25  1  0
M  END

