
     RDKit          3D

 62 65  0  0  0  0  0  0  0  0999 V2000
    4.0437   -1.1410   -3.2294 C   0  0  0  0  0  0  0  0  0  0  0  0
    4.7425   -0.6515   -2.0472 C   0  0  0  0  0  0  0  0  0  0  0  0
    5.3248   -0.2508   -1.0577 C   0  0  0  0  0  0  0  0  0  0  0  0
    6.0124    0.2179    0.1132 C   0  0  0  0  0  0  0  0  0  0  0  0
    6.4230   -0.5948    1.0531 N   0  0  0  0  0  0  0  0  0  0  0  0
    6.1228   -1.9173    0.7785 O   0  0  0  0  0  0  0  0  0  0  0  0
    6.5506   -2.7433    1.8389 C   0  0  0  0  0  0  0  0  0  0  0  0
    6.2085   -4.1801    1.4721 C   0  0  0  0  0  0  0  0  0  0  0  0
    6.5973   -5.0864    2.5389 N   0  0  0  0  0  0  0  0  0  0  0  0
    6.3967   -6.4890    2.2299 C   0  0  0  0  0  0  0  0  0  0  0  0
    6.2757    1.6541    0.2833 C   0  0  0  0  0  0  0  0  0  0  0  0
    5.8559    2.5874   -0.6852 C   0  0  0  0  0  0  0  0  0  0  0  0
    6.0919    3.9507   -0.5370 C   0  0  0  0  0  0  0  0  0  0  0  0
    6.7698    4.4585    0.5996 C   0  0  0  0  0  0  0  0  0  0  0  0
    6.9860    5.7897    0.7381 N   0  0  0  0  0  0  0  0  0  0  0  0
    7.6267    6.2028    1.8365 C   0  0  0  0  0  0  0  0  0  0  0  0
    8.0959    5.4388    2.8208 N   0  0  0  0  0  0  0  0  0  0  0  0
    7.9008    4.1239    2.6784 C   0  0  0  0  0  0  0  0  0  0  0  0
    8.3883    3.3108    3.7837 N   0  0  0  0  0  0  0  0  0  0  0  0
    9.5999    2.7802    3.8942 C   0  0  0  0  0  0  0  0  0  0  0  0
   10.5978    2.9556    2.8731 C   0  0  0  0  0  0  0  0  0  0  0  0
   11.8228    2.3631    3.0137 C   0  0  0  0  0  0  0  0  0  0  0  0
   12.1576    1.5525    4.1387 C   0  0  0  0  0  0  0  0  0  0  0  0
   13.3805    1.0408    4.1326 O   0  0  0  0  0  0  0  0  0  0  0  0
   13.7234   -0.3302    4.4809 C   0  0  0  0  0  0  0  0  0  0  0  0
   15.1244   -0.3690    5.0286 C   0  0  0  0  0  0  0  0  0  0  0  0
   16.1362   -1.0523    4.3417 C   0  0  0  0  0  0  0  0  0  0  0  0
   17.4333   -1.1028    4.8638 C   0  0  0  0  0  0  0  0  0  0  0  0
   17.7365   -0.4648    6.0672 C   0  0  0  0  0  0  0  0  0  0  0  0
   16.7198    0.2174    6.7358 C   0  0  0  0  0  0  0  0  0  0  0  0
   16.9993    0.8324    7.8913 F   0  0  0  0  0  0  0  0  0  0  0  0
   15.4213    0.2729    6.2407 C   0  0  0  0  0  0  0  0  0  0  0  0
   11.1872    1.4358    5.1904 C   0  0  0  0  0  0  0  0  0  0  0  0
   11.5713    0.6494    6.6970 Cl  0  0  0  0  0  0  0  0  0  0  0  0
    9.9501    2.0241    5.0637 C   0  0  0  0  0  0  0  0  0  0  0  0
    7.2170    3.5046    1.5986 C   0  0  0  0  0  0  0  0  0  0  0  0
    6.9593    2.1311    1.4311 C   0  0  0  0  0  0  0  0  0  0  0  0
    3.0265   -0.7194   -3.2985 H   0  0  0  0  0  0  0  0  0  0  0  0
    3.9493   -2.2394   -3.2108 H   0  0  0  0  0  0  0  0  0  0  0  0
    4.5776   -0.8667   -4.1551 H   0  0  0  0  0  0  0  0  0  0  0  0
    6.0418   -2.4502    2.7794 H   0  0  0  0  0  0  0  0  0  0  0  0
    7.6381   -2.6407    2.0058 H   0  0  0  0  0  0  0  0  0  0  0  0
    6.7615   -4.4520    0.5561 H   0  0  0  0  0  0  0  0  0  0  0  0
    5.1285   -4.2352    1.2065 H   0  0  0  0  0  0  0  0  0  0  0  0
    6.0886   -4.8480    3.3901 H   0  0  0  0  0  0  0  0  0  0  0  0
    7.0587   -6.7898    1.3998 H   0  0  0  0  0  0  0  0  0  0  0  0
    5.3577   -6.7532    1.9276 H   0  0  0  0  0  0  0  0  0  0  0  0
    6.6620   -7.1092    3.1010 H   0  0  0  0  0  0  0  0  0  0  0  0
    5.3305    2.2261   -1.5715 H   0  0  0  0  0  0  0  0  0  0  0  0
    5.7615    4.6701   -1.2881 H   0  0  0  0  0  0  0  0  0  0  0  0
    7.7874    7.2832    1.9377 H   0  0  0  0  0  0  0  0  0  0  0  0
    7.7511    3.1580    4.5657 H   0  0  0  0  0  0  0  0  0  0  0  0
   10.3527    3.5490    1.9955 H   0  0  0  0  0  0  0  0  0  0  0  0
   12.5903    2.4684    2.2455 H   0  0  0  0  0  0  0  0  0  0  0  0
   13.6530   -0.9079    3.5472 H   0  0  0  0  0  0  0  0  0  0  0  0
   12.9969   -0.7284    5.1991 H   0  0  0  0  0  0  0  0  0  0  0  0
   15.9114   -1.5486    3.3945 H   0  0  0  0  0  0  0  0  0  0  0  0
   18.2171   -1.6396    4.3246 H   0  0  0  0  0  0  0  0  0  0  0  0
   18.7404   -0.4840    6.4953 H   0  0  0  0  0  0  0  0  0  0  0  0
   14.6597    0.8165    6.8025 H   0  0  0  0  0  0  0  0  0  0  0  0
    9.2304    1.9327    5.8781 H   0  0  0  0  0  0  0  0  0  0  0  0
    7.2779    1.4047    2.1770 H   0  0  0  0  0  0  0  0  0  0  0  0
  1  2  1  0
  1 38  1  0
  1 39  1  0
  1 40  1  0
  2  3  3  0
  3  4  1  0
  4  5  2  0
  4 11  1  0
  5  6  1  0
  6  7  1  0
  7  8  1  0
  7 41  1  0
  7 42  1  0
  8  9  1  0
  8 43  1  0
  8 44  1  0
  9 10  1  0
  9 45  1  0
 10 46  1  0
 10 47  1  0
 10 48  1  0
 11 12  2  0
 11 37  1  0
 12 13  1  0
 12 49  1  0
 13 14  2  0
 13 50  1  0
 14 15  1  0
 14 36  1  0
 15 16  2  0
 16 17  1  0
 16 51  1  0
 17 18  2  0
 18 19  1  0
 18 36  1  0
 19 20  1  0
 19 52  1  0
 20 21  2  0
 20 35  1  0
 21 22  1  0
 21 53  1  0
 22 23  2  0
 22 54  1  0
 23 24  1  0
 23 33  1  0
 24 25  1  0
 25 26  1  0
 25 55  1  0
 25 56  1  0
 26 27  2  0
 26 32  1  0
 27 28  1  0
 27 57  1  0
 28 29  2  0
 28 58  1  0
 29 30  1  0
 29 59  1  0
 30 31  1  0
 30 32  2  0
 32 60  1  0
 33 34  1  0
 33 35  2  0
 35 61  1  0
 36 37  2  0
 37 62  1  0
M  END

