
     RDKit          3D

 26 26  0  0  0  0  0  0  0  0999 V2000
    3.1776   -2.7926    4.5129 O   0  0  0  0  0  0  0  0  0  0  0  0
    2.6277   -3.1281    3.5015 C   0  0  0  0  0  0  0  0  0  0  0  0
    1.3581   -3.5920    3.5288 O   0  0  0  0  0  0  0  0  0  0  0  0
    3.2764   -3.0843    2.1224 C   0  0  0  0  0  0  0  0  0  0  0  0
    4.6538   -2.4296    2.1548 C   0  0  0  0  0  0  0  0  0  0  0  0
    5.2851   -2.5381    0.8387 N   0  0  0  0  0  0  0  0  0  0  0  0
    6.9026   -2.0782    0.6778 S   0  0  1  0  0  0  0  0  0  0  0  0
    7.0583   -1.7659   -0.7432 O   0  0  0  0  0  0  0  0  0  0  0  0
    7.2714   -1.1266    1.7280 O   0  0  0  0  0  0  0  0  0  0  0  0
    7.7784   -3.6144    1.0234 C   0  0  0  0  0  0  0  0  0  0  0  0
    7.7777   -4.6170    0.0502 C   0  0  0  0  0  0  0  0  0  0  0  0
    8.4711   -5.7961    0.3259 C   0  0  0  0  0  0  0  0  0  0  0  0
    8.4945   -7.0781   -0.8561 Cl  0  0  0  0  0  0  0  0  0  0  0  0
    9.1567   -5.9707    1.5343 C   0  0  0  0  0  0  0  0  0  0  0  0
    9.1444   -4.9392    2.4762 C   0  0  0  0  0  0  0  0  0  0  0  0
   10.0052   -5.1443    3.9772 Cl  0  0  0  0  0  0  0  0  0  0  0  0
    8.4577   -3.7441    2.2340 C   0  0  0  0  0  0  0  0  0  0  0  0
    1.0537   -3.8229    2.6395 H   0  0  0  0  0  0  0  0  0  0  0  0
    2.6033   -2.5487    1.4274 H   0  0  0  0  0  0  0  0  0  0  0  0
    3.3594   -4.1165    1.7375 H   0  0  0  0  0  0  0  0  0  0  0  0
    5.2797   -2.9536    2.8920 H   0  0  0  0  0  0  0  0  0  0  0  0
    4.5753   -1.3861    2.5041 H   0  0  0  0  0  0  0  0  0  0  0  0
    4.7770   -2.0974    0.0702 H   0  0  0  0  0  0  0  0  0  0  0  0
    7.2594   -4.4769   -0.8983 H   0  0  0  0  0  0  0  0  0  0  0  0
    9.6968   -6.8960    1.7341 H   0  0  0  0  0  0  0  0  0  0  0  0
    8.4592   -2.9298    2.9587 H   0  0  0  0  0  0  0  0  0  0  0  0
  1  2  2  0
  2  3  1  0
  2  4  1  0
  3 18  1  0
  4  5  1  0
  4 19  1  0
  4 20  1  0
  5  6  1  0
  5 21  1  0
  5 22  1  0
  7  6  1  6
  6 23  1  0
  7  8  2  0
  7  9  2  0
  7 10  1  0
 10 11  2  0
 10 17  1  0
 11 12  1  0
 11 24  1  0
 12 13  1  0
 12 14  2  0
 14 15  1  0
 14 25  1  0
 15 16  1  0
 15 17  2  0
 17 26  1  0
M  END

