
     RDKit          3D

 34 34  0  0  0  0  0  0  0  0999 V2000
    2.3482    3.2935    0.5911 C   0  0  0  0  0  0  0  0  0  0  0  0
    2.1532    2.2318    1.6776 C   0  0  1  0  0  0  0  0  0  0  0  0
    0.6683    1.9883    1.9649 C   0  0  0  0  0  0  0  0  0  0  0  0
    2.8586    0.8870    1.3105 C   0  0  0  0  0  0  0  0  0  0  0  0
    4.3444    0.9584    1.1794 C   0  0  0  0  0  0  0  0  0  0  0  0
    5.1719    1.0280    2.3478 C   0  0  0  0  0  0  0  0  0  0  0  0
    6.5911    1.1303    2.2379 C   0  0  0  0  0  0  0  0  0  0  0  0
    7.2074    1.1720    0.9493 C   0  0  0  0  0  0  0  0  0  0  0  0
    8.6831    1.4195    0.8271 C   0  0  1  0  0  0  0  0  0  0  0  0
    9.3430    0.8624    1.8990 F   0  0  0  0  0  0  0  0  0  0  0  0
    9.1726    0.7891   -0.2948 F   0  0  0  0  0  0  0  0  0  0  0  0
    9.0701    2.8975    0.7470 C   0  0  0  0  0  0  0  0  0  0  0  0
   10.5934    3.0905    0.6187 C   0  0  0  0  0  0  0  0  0  0  0  0
   10.9739    4.5006    0.5346 C   0  0  0  0  0  0  0  0  0  0  0  0
   11.2527    5.6235    0.4696 N   0  0  0  0  0  0  0  0  0  0  0  0
    6.4004    1.0701   -0.2241 C   0  0  0  0  0  0  0  0  0  0  0  0
    4.9816    0.9744   -0.1039 C   0  0  0  0  0  0  0  0  0  0  0  0
    1.8726    4.2444    0.8813 H   0  0  0  0  0  0  0  0  0  0  0  0
    1.8930    2.9723   -0.3620 H   0  0  0  0  0  0  0  0  0  0  0  0
    3.4145    3.4928    0.4022 H   0  0  0  0  0  0  0  0  0  0  0  0
    2.6272    2.6004    2.6057 H   0  0  0  0  0  0  0  0  0  0  0  0
    0.1493    1.6037    1.0700 H   0  0  0  0  0  0  0  0  0  0  0  0
    0.1650    2.9219    2.2645 H   0  0  0  0  0  0  0  0  0  0  0  0
    0.5251    1.2549    2.7749 H   0  0  0  0  0  0  0  0  0  0  0  0
    2.4149    0.5074    0.3735 H   0  0  0  0  0  0  0  0  0  0  0  0
    2.6038    0.1614    2.1066 H   0  0  0  0  0  0  0  0  0  0  0  0
    4.7119    0.9887    3.3373 H   0  0  0  0  0  0  0  0  0  0  0  0
    7.2116    1.1603    3.1337 H   0  0  0  0  0  0  0  0  0  0  0  0
    8.6915    3.3999    1.6497 H   0  0  0  0  0  0  0  0  0  0  0  0
    8.5503    3.3398   -0.1161 H   0  0  0  0  0  0  0  0  0  0  0  0
   10.9614    2.5685   -0.2787 H   0  0  0  0  0  0  0  0  0  0  0  0
   11.1025    2.6360    1.4833 H   0  0  0  0  0  0  0  0  0  0  0  0
    6.8726    1.0518   -1.2062 H   0  0  0  0  0  0  0  0  0  0  0  0
    4.3699    0.9044   -1.0055 H   0  0  0  0  0  0  0  0  0  0  0  0
  1  2  1  0
  1 18  1  0
  1 19  1  0
  1 20  1  0
  2  3  1  0
  2  4  1  0
  2 21  1  1
  3 22  1  0
  3 23  1  0
  3 24  1  0
  4  5  1  0
  4 25  1  0
  4 26  1  0
  5  6  2  0
  5 17  1  0
  6  7  1  0
  6 27  1  0
  7  8  2  0
  7 28  1  0
  8  9  1  0
  8 16  1  0
  9 10  1  1
  9 11  1  0
  9 12  1  0
 12 13  1  0
 12 29  1  0
 12 30  1  0
 13 14  1  0
 13 31  1  0
 13 32  1  0
 14 15  3  0
 16 17  2  0
 16 33  1  0
 17 34  1  0
M  END

