
     RDKit          3D

 84 88  0  0  0  0  0  0  0  0999 V2000
    4.8264   -0.0956    4.3101 C   0  0  0  0  0  0  0  0  0  0  0  0
    5.3896   -1.3140    4.5353 C   0  0  0  0  0  0  0  0  0  0  0  0
    4.5150   -2.5000    4.0201 C   0  0  2  0  0  0  0  0  0  0  0  0
    3.5453   -1.9909    4.0002 H   0  0  0  0  0  0  0  0  0  0  0  0
    4.1299   -3.7939    4.8420 C   0  0  1  0  0  0  0  0  0  0  0  0
    3.7157   -3.3672    6.2621 C   0  0  0  0  0  0  0  0  0  0  0  0
    2.8732   -4.3789    4.1489 C   0  0  0  0  0  0  0  0  0  0  0  0
    5.1765   -4.9274    4.8705 C   0  0  0  0  0  0  0  0  0  0  0  0
    4.7140   -2.7916    2.5864 N   0  0  0  0  0  0  0  0  0  0  0  0
    5.7639   -3.0157    1.7471 C   0  0  0  0  0  0  0  0  0  0  0  0
    5.6303   -3.0580    0.5414 O   0  0  0  0  0  0  0  0  0  0  0  0
    6.9703   -3.1835    2.3606 O   0  0  0  0  0  0  0  0  0  0  0  0
    8.0383   -3.2947    1.4358 C   0  0  2  0  0  0  0  0  0  0  0  0
    7.9804   -2.5416    0.6460 H   0  0  0  0  0  0  0  0  0  0  0  0
    8.5829   -4.6386    1.0575 C   0  0  0  0  0  0  0  0  0  0  0  0
    9.3933   -3.6921    1.9237 C   0  0  1  0  0  0  0  0  0  0  0  0
    9.4552   -3.9781    2.9799 H   0  0  0  0  0  0  0  0  0  0  0  0
   10.5979   -2.9349    1.3901 C   0  0  0  0  0  0  0  0  0  0  0  0
   10.8361   -1.6581    2.1994 C   0  0  0  0  0  0  0  0  0  0  0  0
   11.8857   -0.6798    1.6378 C   0  0  0  0  0  0  0  0  0  0  0  0
   12.0504    0.4661    2.5334 C   0  0  0  0  0  0  0  0  0  0  0  0
   12.1231    1.3390    3.3778 C   0  0  0  0  0  0  0  0  0  0  0  0
   12.2468    2.3115    4.4287 C   0  0  0  0  0  0  0  0  0  0  0  0
   13.3432    3.0512    4.4452 N   0  0  0  0  0  0  0  0  0  0  0  0
   13.5005    3.9441    5.4490 C   0  0  0  0  0  0  0  0  0  0  0  0
   14.6600    4.7597    5.5076 C   0  0  0  0  0  0  0  0  0  0  0  0
   14.8326    5.6666    6.5329 C   0  0  0  0  0  0  0  0  0  0  0  0
   13.8442    5.7975    7.5528 C   0  0  0  0  0  0  0  0  0  0  0  0
   13.9522    6.6665    8.5859 O   0  0  0  0  0  0  0  0  0  0  0  0
   15.0828    7.5043    8.6913 C   0  0  0  0  0  0  0  0  0  0  0  0
   12.6990    5.0107    7.5167 C   0  0  0  0  0  0  0  0  0  0  0  0
   12.5089    4.0807    6.4730 C   0  0  0  0  0  0  0  0  0  0  0  0
   11.3802    3.3175    6.4336 N   0  0  0  0  0  0  0  0  0  0  0  0
   11.2208    2.4574    5.4534 C   0  0  0  0  0  0  0  0  0  0  0  0
    9.9235    1.6728    5.4477 C   0  0  0  0  0  0  0  0  0  0  0  0
   10.0583    0.1418    5.5551 C   0  0  0  0  0  0  0  0  0  0  0  0
    8.7647   -0.5970    5.9303 C   0  0  2  0  0  0  0  0  0  0  0  0
    8.5789   -0.4411    7.0057 H   0  0  0  0  0  0  0  0  0  0  0  0
    8.8253   -2.1092    5.6646 C   0  0  0  0  0  0  0  0  0  0  0  0
    7.3430   -2.5356    5.6634 C   0  0  1  0  0  0  0  0  0  0  0  0
    7.2072   -3.4489    5.0763 H   0  0  0  0  0  0  0  0  0  0  0  0
    6.9561   -2.8705    7.1111 C   0  0  0  0  0  0  0  0  0  0  0  0
    7.1066   -3.9631    7.6037 O   0  0  0  0  0  0  0  0  0  0  0  0
    6.5030   -1.8068    7.7982 O   0  0  0  0  0  0  0  0  0  0  0  0
    6.1896   -2.0280    9.1760 C   0  0  0  0  0  0  0  0  0  0  0  0
    6.6787   -1.4005    5.0529 N   0  0  0  0  0  0  0  0  0  0  0  0
    7.4805   -0.1806    5.1855 C   0  0  0  0  0  0  0  0  0  0  0  0
    3.8434   -0.0217    3.8453 H   0  0  0  0  0  0  0  0  0  0  0  0
    5.3216    0.8467    4.5350 H   0  0  0  0  0  0  0  0  0  0  0  0
    3.4784   -4.2500    6.8766 H   0  0  0  0  0  0  0  0  0  0  0  0
    2.8191   -2.7260    6.2339 H   0  0  0  0  0  0  0  0  0  0  0  0
    4.4975   -2.7933    6.7744 H   0  0  0  0  0  0  0  0  0  0  0  0
    2.4637   -5.2042    4.7519 H   0  0  0  0  0  0  0  0  0  0  0  0
    3.1087   -4.7805    3.1520 H   0  0  0  0  0  0  0  0  0  0  0  0
    2.0763   -3.6237    4.0375 H   0  0  0  0  0  0  0  0  0  0  0  0
    4.6733   -5.8826    5.0910 H   0  0  0  0  0  0  0  0  0  0  0  0
    5.9414   -4.8042    5.6450 H   0  0  0  0  0  0  0  0  0  0  0  0
    5.6712   -5.0375    3.8937 H   0  0  0  0  0  0  0  0  0  0  0  0
    3.8814   -2.6590    2.0251 H   0  0  0  0  0  0  0  0  0  0  0  0
    8.8738   -4.8009    0.0153 H   0  0  0  0  0  0  0  0  0  0  0  0
    8.1479   -5.5102    1.5534 H   0  0  0  0  0  0  0  0  0  0  0  0
   10.4267   -2.6861    0.3276 H   0  0  0  0  0  0  0  0  0  0  0  0
   11.4959   -3.5784    1.4134 H   0  0  0  0  0  0  0  0  0  0  0  0
   11.1345   -1.9362    3.2231 H   0  0  0  0  0  0  0  0  0  0  0  0
    9.8808   -1.1160    2.2966 H   0  0  0  0  0  0  0  0  0  0  0  0
   11.5860   -0.3353    0.6314 H   0  0  0  0  0  0  0  0  0  0  0  0
   12.8586   -1.1876    1.5077 H   0  0  0  0  0  0  0  0  0  0  0  0
   15.4067    4.6445    4.7194 H   0  0  0  0  0  0  0  0  0  0  0  0
   15.7326    6.2812    6.5559 H   0  0  0  0  0  0  0  0  0  0  0  0
   14.9370    8.1086    9.5966 H   0  0  0  0  0  0  0  0  0  0  0  0
   15.1777    8.1815    7.8237 H   0  0  0  0  0  0  0  0  0  0  0  0
   16.0179    6.9257    8.7973 H   0  0  0  0  0  0  0  0  0  0  0  0
   11.9392    5.1091    8.2927 H   0  0  0  0  0  0  0  0  0  0  0  0
    9.3669    1.9205    4.5264 H   0  0  0  0  0  0  0  0  0  0  0  0
    9.3409    2.0654    6.2945 H   0  0  0  0  0  0  0  0  0  0  0  0
   10.8233   -0.1061    6.3111 H   0  0  0  0  0  0  0  0  0  0  0  0
   10.4346   -0.2491    4.6014 H   0  0  0  0  0  0  0  0  0  0  0  0
    9.4271   -2.6698    6.3953 H   0  0  0  0  0  0  0  0  0  0  0  0
    9.2385   -2.2996    4.6635 H   0  0  0  0  0  0  0  0  0  0  0  0
    5.8625   -1.0599    9.5742 H   0  0  0  0  0  0  0  0  0  0  0  0
    7.0723   -2.3920    9.7225 H   0  0  0  0  0  0  0  0  0  0  0  0
    5.3859   -2.7731    9.2742 H   0  0  0  0  0  0  0  0  0  0  0  0
    6.9426    0.5992    5.7511 H   0  0  0  0  0  0  0  0  0  0  0  0
    7.6818    0.2349    4.1788 H   0  0  0  0  0  0  0  0  0  0  0  0
  1  2  2  0
  1 48  1  0
  1 49  1  0
  2  3  1  0
  2 46  1  0
  3  4  1  6
  3  5  1  0
  3  9  1  0
  5  6  1  1
  5  7  1  0
  5  8  1  0
  6 50  1  0
  6 51  1  0
  6 52  1  0
  7 53  1  0
  7 54  1  0
  7 55  1  0
  8 56  1  0
  8 57  1  0
  8 58  1  0
  9 10  1  0
  9 59  1  0
 10 11  2  0
 10 12  1  0
 12 13  1  0
 13 14  1  6
 13 15  1  0
 13 16  1  0
 15 16  1  0
 15 60  1  0
 15 61  1  0
 16 17  1  1
 16 18  1  0
 18 19  1  0
 18 62  1  0
 18 63  1  0
 19 20  1  0
 19 64  1  0
 19 65  1  0
 20 21  1  0
 20 66  1  0
 20 67  1  0
 21 22  3  0
 22 23  1  0
 23 24  2  0
 23 34  1  0
 24 25  1  0
 25 26  2  0
 25 32  1  0
 26 27  1  0
 26 68  1  0
 27 28  2  0
 27 69  1  0
 28 29  1  0
 28 31  1  0
 29 30  1  0
 30 70  1  0
 30 71  1  0
 30 72  1  0
 31 32  2  0
 31 73  1  0
 32 33  1  0
 33 34  2  0
 34 35  1  0
 35 36  1  0
 35 74  1  0
 35 75  1  0
 36 37  1  0
 36 76  1  0
 36 77  1  0
 37 38  1  1
 37 39  1  0
 37 47  1  0
 39 40  1  0
 39 78  1  0
 39 79  1  0
 40 41  1  6
 40 42  1  0
 40 46  1  0
 42 43  2  0
 42 44  1  0
 44 45  1  0
 45 80  1  0
 45 81  1  0
 45 82  1  0
 46 47  1  0
 47 83  1  0
 47 84  1  0
M  END

