
     RDKit          3D

 68 72  0  0  0  0  0  0  0  0999 V2000
   10.3711    1.2959   -0.8818 C   0  0  0  0  0  0  0  0  0  0  0  0
    9.1011    0.5517   -1.2964 C   0  0  0  0  0  0  0  0  0  0  0  0
    8.2614    0.0727   -0.1087 C   0  0  0  0  0  0  0  0  0  0  0  0
    6.9776   -0.6731   -0.4943 C   0  0  0  0  0  0  0  0  0  0  0  0
    7.2012   -1.9179   -1.2166 N   0  0  0  0  0  0  0  0  0  0  0  0
    7.3138   -3.1208   -0.5819 C   0  0  0  0  0  0  0  0  0  0  0  0
    7.2046   -3.2445    0.6281 O   0  0  0  0  0  0  0  0  0  0  0  0
    7.6042   -4.3186   -1.4861 C   0  0  1  0  0  0  0  0  0  0  0  0
    7.5019   -4.0355   -2.5480 H   0  0  0  0  0  0  0  0  0  0  0  0
    9.0116   -4.9095   -1.2506 C   0  0  0  0  0  0  0  0  0  0  0  0
    8.9011   -6.3354   -1.7991 C   0  0  0  0  0  0  0  0  0  0  0  0
    7.4986   -6.6711   -1.5661 N   0  0  0  0  0  0  0  0  0  0  0  0
    7.0161   -7.9389   -1.6636 C   0  0  0  0  0  0  0  0  0  0  0  0
    5.7158   -8.1290   -1.3476 N   0  0  0  0  0  0  0  0  0  0  0  0
    5.1905   -9.3499   -1.4387 C   0  0  0  0  0  0  0  0  0  0  0  0
    3.8557   -9.4749   -1.0791 N   0  0  0  0  0  0  0  0  0  0  0  0
    3.0516   -8.2829   -0.8453 C   0  0  0  0  0  0  0  0  0  0  0  0
    2.9725   -7.9379    0.6432 C   0  0  0  0  0  0  0  0  0  0  0  0
    2.5996   -9.1564    1.3646 N   0  0  0  0  0  0  0  0  0  0  0  0
    2.7490  -10.4235    0.8756 C   0  0  0  0  0  0  0  0  0  0  0  0
    2.3410  -11.3113    1.7541 N   0  0  0  0  0  0  0  0  0  0  0  0
    1.9154  -10.6302    2.8577 N   0  0  0  0  0  0  0  0  0  0  0  0
    2.0782   -9.3529    2.6172 C   0  0  0  0  0  0  0  0  0  0  0  0
    1.7396   -8.2316    3.5528 C   0  0  1  0  0  0  0  0  0  0  0  0
    2.8157   -7.4481    3.7717 F   0  0  0  0  0  0  0  0  0  0  0  0
    0.7884   -7.4313    3.0195 F   0  0  0  0  0  0  0  0  0  0  0  0
    1.2999   -8.6803    4.7192 F   0  0  0  0  0  0  0  0  0  0  0  0
    3.2986  -10.6908   -0.5000 C   0  0  0  0  0  0  0  0  0  0  0  0
    5.9792  -10.4420   -1.9164 C   0  0  0  0  0  0  0  0  0  0  0  0
    5.7048  -11.8186   -2.2525 C   0  0  0  0  0  0  0  0  0  0  0  0
    6.7942  -12.5100   -2.7021 C   0  0  0  0  0  0  0  0  0  0  0  0
    6.8431  -13.9474   -3.1456 C   0  0  0  0  0  0  0  0  0  0  0  0
    6.6404  -14.1939   -4.6573 C   0  0  0  0  0  0  0  0  0  0  0  0
    7.7714  -13.6944   -5.5566 C   0  0  0  0  0  0  0  0  0  0  0  0
    8.2351  -11.4905   -2.7459 S   0  0  0  0  0  0  0  0  0  0  0  0
    7.3316  -10.0998   -2.1709 C   0  0  0  0  0  0  0  0  0  0  0  0
    7.8744   -8.8963   -2.0483 N   0  0  0  0  0  0  0  0  0  0  0  0
    6.6881   -5.5190   -1.1866 C   0  0  0  0  0  0  0  0  0  0  0  0
   10.9528    1.6239   -1.7580 H   0  0  0  0  0  0  0  0  0  0  0  0
   11.0258    0.6562   -0.2669 H   0  0  0  0  0  0  0  0  0  0  0  0
   10.1337    2.1926   -0.2852 H   0  0  0  0  0  0  0  0  0  0  0  0
    9.3777   -0.3163   -1.9221 H   0  0  0  0  0  0  0  0  0  0  0  0
    8.4828    1.2058   -1.9395 H   0  0  0  0  0  0  0  0  0  0  0  0
    7.9750    0.9406    0.5125 H   0  0  0  0  0  0  0  0  0  0  0  0
    8.8658   -0.5839    0.5411 H   0  0  0  0  0  0  0  0  0  0  0  0
    6.3343   -0.0264   -1.1154 H   0  0  0  0  0  0  0  0  0  0  0  0
    6.4170   -0.9305    0.4157 H   0  0  0  0  0  0  0  0  0  0  0  0
    7.3235   -1.8880   -2.2209 H   0  0  0  0  0  0  0  0  0  0  0  0
    9.2044   -4.9276   -0.1662 H   0  0  0  0  0  0  0  0  0  0  0  0
    9.8103   -4.3259   -1.7320 H   0  0  0  0  0  0  0  0  0  0  0  0
    9.5653   -7.0506   -1.2915 H   0  0  0  0  0  0  0  0  0  0  0  0
    9.1447   -6.3862   -2.8772 H   0  0  0  0  0  0  0  0  0  0  0  0
    2.0345   -8.4689   -1.2354 H   0  0  0  0  0  0  0  0  0  0  0  0
    3.4921   -7.4427   -1.3913 H   0  0  0  0  0  0  0  0  0  0  0  0
    2.2165   -7.1624    0.8331 H   0  0  0  0  0  0  0  0  0  0  0  0
    3.9472   -7.5764    1.0051 H   0  0  0  0  0  0  0  0  0  0  0  0
    2.4947  -11.1101   -1.1356 H   0  0  0  0  0  0  0  0  0  0  0  0
    4.0713  -11.4610   -0.4062 H   0  0  0  0  0  0  0  0  0  0  0  0
    4.7269  -12.2952   -2.1883 H   0  0  0  0  0  0  0  0  0  0  0  0
    6.0543  -14.4876   -2.5962 H   0  0  0  0  0  0  0  0  0  0  0  0
    7.7991  -14.4014   -2.8301 H   0  0  0  0  0  0  0  0  0  0  0  0
    5.6862  -13.7318   -4.9650 H   0  0  0  0  0  0  0  0  0  0  0  0
    6.5149  -15.2814   -4.8021 H   0  0  0  0  0  0  0  0  0  0  0  0
    7.9021  -12.6034   -5.4850 H   0  0  0  0  0  0  0  0  0  0  0  0
    7.5700  -13.9371   -6.6123 H   0  0  0  0  0  0  0  0  0  0  0  0
    8.7336  -14.1621   -5.2871 H   0  0  0  0  0  0  0  0  0  0  0  0
    6.4310   -5.5356   -0.1129 H   0  0  0  0  0  0  0  0  0  0  0  0
    5.7476   -5.4888   -1.7582 H   0  0  0  0  0  0  0  0  0  0  0  0
  1  2  1  0
  1 39  1  0
  1 40  1  0
  1 41  1  0
  2  3  1  0
  2 42  1  0
  2 43  1  0
  3  4  1  0
  3 44  1  0
  3 45  1  0
  4  5  1  0
  4 46  1  0
  4 47  1  0
  5  6  1  0
  5 48  1  0
  6  7  2  0
  6  8  1  0
  8  9  1  6
  8 10  1  0
  8 38  1  0
 10 11  1  0
 10 49  1  0
 10 50  1  0
 11 12  1  0
 11 51  1  0
 11 52  1  0
 12 13  1  0
 12 38  1  0
 13 14  2  0
 13 37  1  0
 14 15  1  0
 15 16  1  0
 15 29  2  0
 16 17  1  0
 16 28  1  0
 17 18  1  0
 17 53  1  0
 17 54  1  0
 18 19  1  0
 18 55  1  0
 18 56  1  0
 19 20  1  0
 19 23  1  0
 20 21  2  0
 20 28  1  0
 21 22  1  0
 22 23  2  0
 23 24  1  0
 24 25  1  1
 24 26  1  0
 24 27  1  0
 28 57  1  0
 28 58  1  0
 29 30  1  0
 29 36  1  0
 30 31  2  0
 30 59  1  0
 31 32  1  0
 31 35  1  0
 32 33  1  0
 32 60  1  0
 32 61  1  0
 33 34  1  0
 33 62  1  0
 33 63  1  0
 34 64  1  0
 34 65  1  0
 34 66  1  0
 35 36  1  0
 36 37  2  0
 38 67  1  0
 38 68  1  0
M  END

