
     RDKit          3D

 44 47  0  0  0  0  0  0  0  0999 V2000
    4.3757   -1.2813   -0.4634 C   0  0  0  0  0  0  0  0  0  0  0  0
    3.3318   -0.1952   -0.1589 C   0  0  0  0  0  0  0  0  0  0  0  0
    3.3516    0.9499   -1.1481 C   0  0  0  0  0  0  0  0  0  0  0  0
    2.5814    0.9080   -2.3235 C   0  0  0  0  0  0  0  0  0  0  0  0
    2.6262    1.9344   -3.2642 C   0  0  0  0  0  0  0  0  0  0  0  0
    3.4496    3.0489   -3.0436 C   0  0  0  0  0  0  0  0  0  0  0  0
    3.4748    4.0933   -4.0011 N   0  0  0  0  0  0  0  0  0  0  0  0
    2.3371    4.4166   -4.6666 N   0  0  0  0  0  0  0  0  0  0  0  0
    2.6771    5.3947   -5.5033 C   0  0  0  0  0  0  0  0  0  0  0  0
    1.6314    5.9897   -6.3353 C   0  0  0  0  0  0  0  0  0  0  0  0
    0.2684    5.8815   -6.1488 C   0  0  0  0  0  0  0  0  0  0  0  0
   -0.5051    6.5272   -7.1542 C   0  0  0  0  0  0  0  0  0  0  0  0
    0.2819    7.1230   -8.1076 C   0  0  0  0  0  0  0  0  0  0  0  0
   -0.2408    8.0265   -9.4841 Cl  0  0  0  0  0  0  0  0  0  0  0  0
    1.9781    6.9009   -7.7917 S   0  0  0  0  0  0  0  0  0  0  0  0
    4.0676    5.7255   -5.4004 C   0  0  0  0  0  0  0  0  0  0  0  0
    4.5442    4.8459   -4.4308 C   0  0  0  0  0  0  0  0  0  0  0  0
    5.8410    4.6788   -3.9657 N   0  0  0  0  0  0  0  0  0  0  0  0
    6.9137    4.9801   -4.9187 C   0  0  0  0  0  0  0  0  0  0  0  0
    7.2151    6.4781   -5.0472 C   0  0  0  0  0  0  0  0  0  0  0  0
    5.9787    7.3869   -5.1763 C   0  0  0  0  0  0  0  0  0  0  0  0
    4.8434    6.8409   -6.0598 C   0  0  0  0  0  0  0  0  0  0  0  0
    4.2056    3.1241   -1.8641 C   0  0  0  0  0  0  0  0  0  0  0  0
    4.1597    2.0767   -0.9398 C   0  0  0  0  0  0  0  0  0  0  0  0
    4.3264   -2.0961    0.2769 H   0  0  0  0  0  0  0  0  0  0  0  0
    5.3969   -0.8677   -0.4449 H   0  0  0  0  0  0  0  0  0  0  0  0
    4.2147   -1.7196   -1.4615 H   0  0  0  0  0  0  0  0  0  0  0  0
    3.5027    0.1978    0.8575 H   0  0  0  0  0  0  0  0  0  0  0  0
    2.3270   -0.6502   -0.1494 H   0  0  0  0  0  0  0  0  0  0  0  0
    1.9294    0.0488   -2.5072 H   0  0  0  0  0  0  0  0  0  0  0  0
    2.0196    1.9014   -4.1695 H   0  0  0  0  0  0  0  0  0  0  0  0
   -0.1501    5.3433   -5.2986 H   0  0  0  0  0  0  0  0  0  0  0  0
   -1.5945    6.5608   -7.1762 H   0  0  0  0  0  0  0  0  0  0  0  0
    5.9763    3.8031   -3.4710 H   0  0  0  0  0  0  0  0  0  0  0  0
    6.6652    4.5624   -5.9140 H   0  0  0  0  0  0  0  0  0  0  0  0
    7.8196    4.4574   -4.5750 H   0  0  0  0  0  0  0  0  0  0  0  0
    7.8687    6.6036   -5.9285 H   0  0  0  0  0  0  0  0  0  0  0  0
    7.8031    6.8093   -4.1745 H   0  0  0  0  0  0  0  0  0  0  0  0
    6.3067    8.3644   -5.5670 H   0  0  0  0  0  0  0  0  0  0  0  0
    5.5651    7.5827   -4.1731 H   0  0  0  0  0  0  0  0  0  0  0  0
    5.2446    6.5352   -7.0452 H   0  0  0  0  0  0  0  0  0  0  0  0
    4.1468    7.6668   -6.2754 H   0  0  0  0  0  0  0  0  0  0  0  0
    4.8019    4.0133   -1.6515 H   0  0  0  0  0  0  0  0  0  0  0  0
    4.7506    2.1539   -0.0223 H   0  0  0  0  0  0  0  0  0  0  0  0
  1  2  1  0
  1 25  1  0
  1 26  1  0
  1 27  1  0
  2  3  1  0
  2 28  1  0
  2 29  1  0
  3  4  2  0
  3 24  1  0
  4  5  1  0
  4 30  1  0
  5  6  2  0
  5 31  1  0
  6  7  1  0
  6 23  1  0
  7  8  1  0
  7 17  1  0
  8  9  2  0
  9 10  1  0
  9 16  1  0
 10 11  2  0
 10 15  1  0
 11 12  1  0
 11 32  1  0
 12 13  2  0
 12 33  1  0
 13 14  1  0
 13 15  1  0
 16 17  2  0
 16 22  1  0
 17 18  1  0
 18 19  1  0
 18 34  1  0
 19 20  1  0
 19 35  1  0
 19 36  1  0
 20 21  1  0
 20 37  1  0
 20 38  1  0
 21 22  1  0
 21 39  1  0
 21 40  1  0
 22 41  1  0
 22 42  1  0
 23 24  2  0
 23 43  1  0
 24 44  1  0
M  END

