
     RDKit          3D

 49 51  0  0  0  0  0  0  0  0999 V2000
    0.9350   -0.5801   -0.5482 C   0  0  0  0  0  0  0  0  0  0  0  0
    2.0529    0.0143    0.3079 C   0  0  0  0  0  0  0  0  0  0  0  0
    3.0092   -1.0222    0.9393 C   0  0  1  0  0  0  0  0  0  0  0  0
    4.1411   -0.3917    1.7695 C   0  0  0  0  0  0  0  0  0  0  0  0
    4.2097    0.9822    2.0388 C   0  0  0  0  0  0  0  0  0  0  0  0
    5.2364    1.5158    2.8249 C   0  0  0  0  0  0  0  0  0  0  0  0
    6.2052    0.6613    3.3385 C   0  0  0  0  0  0  0  0  0  0  0  0
    7.1929    1.1649    4.0926 F   0  0  0  0  0  0  0  0  0  0  0  0
    6.1740   -0.7083    3.0809 C   0  0  0  0  0  0  0  0  0  0  0  0
    5.1433   -1.2272    2.2990 C   0  0  0  0  0  0  0  0  0  0  0  0
    2.2903   -2.0354    1.7143 N   0  0  0  0  0  0  0  0  0  0  0  0
    2.4636   -3.3130    1.2617 C   0  0  0  0  0  0  0  0  0  0  0  0
    2.0541   -4.3508    1.7258 O   0  0  0  0  0  0  0  0  0  0  0  0
    3.2315   -3.2034    0.0770 N   0  0  0  0  0  0  0  0  0  0  0  0
    3.7101   -4.3541   -0.6334 C   0  0  0  0  0  0  0  0  0  0  0  0
    4.9371   -4.9756    0.0623 C   0  0  0  0  0  0  0  0  0  0  0  0
    5.4970   -4.4211    0.9899 O   0  0  0  0  0  0  0  0  0  0  0  0
    5.2981   -6.1746   -0.4937 N   0  0  0  0  0  0  0  0  0  0  0  0
    6.3497   -7.0257   -0.1529 C   0  0  0  0  0  0  0  0  0  0  0  0
    7.2608   -6.7118    0.8757 C   0  0  0  0  0  0  0  0  0  0  0  0
    8.2986   -7.5847    1.1882 C   0  0  0  0  0  0  0  0  0  0  0  0
    8.4621   -8.7895    0.4943 C   0  0  0  0  0  0  0  0  0  0  0  0
    7.5682   -9.1084   -0.5204 C   0  0  0  0  0  0  0  0  0  0  0  0
    6.5017   -8.2544   -0.8730 C   0  0  0  0  0  0  0  0  0  0  0  0
    5.5726   -8.6463   -1.9693 C   0  0  0  0  0  0  0  0  0  0  0  0
    5.7776   -9.9696   -2.6837 C   0  0  0  0  0  0  0  0  0  0  0  0
    4.6351   -7.9323   -2.3213 O   0  0  0  0  0  0  0  0  0  0  0  0
    3.6134   -1.9040   -0.1877 C   0  0  0  0  0  0  0  0  0  0  0  0
    4.2667   -1.5264   -1.1298 O   0  0  0  0  0  0  0  0  0  0  0  0
    0.2726    0.2185   -0.9162 H   0  0  0  0  0  0  0  0  0  0  0  0
    0.3184   -1.2887    0.0258 H   0  0  0  0  0  0  0  0  0  0  0  0
    1.3324   -1.1066   -1.4301 H   0  0  0  0  0  0  0  0  0  0  0  0
    1.6122    0.6152    1.1207 H   0  0  0  0  0  0  0  0  0  0  0  0
    2.6658    0.6964   -0.3015 H   0  0  0  0  0  0  0  0  0  0  0  0
    3.4625    1.6673    1.6386 H   0  0  0  0  0  0  0  0  0  0  0  0
    5.2928    2.5847    3.0394 H   0  0  0  0  0  0  0  0  0  0  0  0
    6.9573   -1.3507    3.4876 H   0  0  0  0  0  0  0  0  0  0  0  0
    5.1410   -2.2993    2.0843 H   0  0  0  0  0  0  0  0  0  0  0  0
    1.9088   -1.8685    2.6372 H   0  0  0  0  0  0  0  0  0  0  0  0
    3.9965   -4.0343   -1.6479 H   0  0  0  0  0  0  0  0  0  0  0  0
    2.9065   -5.1027   -0.7066 H   0  0  0  0  0  0  0  0  0  0  0  0
    4.7318   -6.5495   -1.2665 H   0  0  0  0  0  0  0  0  0  0  0  0
    7.1306   -5.7777    1.4160 H   0  0  0  0  0  0  0  0  0  0  0  0
    8.9919   -7.3174    1.9900 H   0  0  0  0  0  0  0  0  0  0  0  0
    9.2782   -9.4706    0.7440 H   0  0  0  0  0  0  0  0  0  0  0  0
    7.6984  -10.0477   -1.0583 H   0  0  0  0  0  0  0  0  0  0  0  0
    5.7148  -10.8164   -1.9825 H   0  0  0  0  0  0  0  0  0  0  0  0
    6.7649  -10.0144   -3.1695 H   0  0  0  0  0  0  0  0  0  0  0  0
    4.9945  -10.0704   -3.4453 H   0  0  0  0  0  0  0  0  0  0  0  0
  1  2  1  0
  1 30  1  0
  1 31  1  0
  1 32  1  0
  3  2  1  6
  2 33  1  0
  2 34  1  0
  3  4  1  0
  3 11  1  0
  3 28  1  0
  4  5  2  0
  4 10  1  0
  5  6  1  0
  5 35  1  0
  6  7  2  0
  6 36  1  0
  7  8  1  0
  7  9  1  0
  9 10  2  0
  9 37  1  0
 10 38  1  0
 11 12  1  0
 11 39  1  0
 12 13  2  0
 12 14  1  0
 14 15  1  0
 14 28  1  0
 15 16  1  0
 15 40  1  0
 15 41  1  0
 16 17  2  0
 16 18  1  0
 18 19  1  0
 18 42  1  0
 19 20  2  0
 19 24  1  0
 20 21  1  0
 20 43  1  0
 21 22  2  0
 21 44  1  0
 22 23  1  0
 22 45  1  0
 23 24  2  0
 23 46  1  0
 24 25  1  0
 25 26  1  0
 25 27  2  0
 26 47  1  0
 26 48  1  0
 26 49  1  0
 28 29  2  0
M  END

