
     RDKit          3D

 57 60  0  0  0  0  0  0  0  0999 V2000
    3.8748    2.0065    7.5514 C   0  0  0  0  0  0  0  0  0  0  0  0
    3.6951    1.0024    6.4127 C   0  0  0  0  0  0  0  0  0  0  0  0
    4.5543    1.3173    5.1833 C   0  0  0  0  0  0  0  0  0  0  0  0
    4.3680    0.3095    4.0450 C   0  0  0  0  0  0  0  0  0  0  0  0
    5.1703    0.6271    2.7749 C   0  0  0  0  0  0  0  0  0  0  0  0
    6.6386    0.6064    2.9817 N   0  0  0  0  0  0  0  0  0  0  0  0
    7.2349   -0.6068    3.2943 C   0  0  0  0  0  0  0  0  0  0  0  0
    6.5931   -1.8356    2.9835 C   0  0  0  0  0  0  0  0  0  0  0  0
    7.1722   -3.0514    3.3014 C   0  0  0  0  0  0  0  0  0  0  0  0
    8.4177   -3.1114    3.9556 C   0  0  0  0  0  0  0  0  0  0  0  0
    9.0726   -1.9348    4.2721 C   0  0  0  0  0  0  0  0  0  0  0  0
    8.5026   -0.6865    3.9487 C   0  0  0  0  0  0  0  0  0  0  0  0
    9.3805    0.7195    4.4662 S   0  0  0  0  0  0  0  0  0  0  0  0
    8.6076    1.9898    3.5518 C   0  0  0  0  0  0  0  0  0  0  0  0
    9.2941    3.2205    3.5107 C   0  0  0  0  0  0  0  0  0  0  0  0
    8.8136    4.3018    2.7812 C   0  0  0  0  0  0  0  0  0  0  0  0
    9.5421    5.6018    2.7321 C   0  0  0  0  0  0  0  0  0  0  0  0
   10.6335    5.8052    1.9478 C   0  0  0  0  0  0  0  0  0  0  0  0
   11.4131    7.0024    1.7951 C   0  0  0  0  0  0  0  0  0  0  0  0
   11.2590    8.2602    2.3890 C   0  0  0  0  0  0  0  0  0  0  0  0
   12.2247    9.2014    2.0303 C   0  0  0  0  0  0  0  0  0  0  0  0
   13.1973    8.7092    1.1225 C   0  0  0  0  0  0  0  0  0  0  0  0
   14.3146    9.3227    0.5321 C   0  0  0  0  0  0  0  0  0  0  0  0
   14.7925   10.6415    0.6749 C   0  0  0  0  0  0  0  0  0  0  0  0
   14.1877   11.6301    1.4848 C   0  0  0  0  0  0  0  0  0  0  0  0
   13.7377   12.4941    2.1353 N   0  0  0  0  0  0  0  0  0  0  0  0
   16.0104   11.0194   -0.0729 C   0  0  0  0  0  0  0  0  0  0  0  0
   16.6285   10.2701   -0.7989 O   0  0  0  0  0  0  0  0  0  0  0  0
   16.4430   12.3020    0.0840 O   0  0  0  0  0  0  0  0  0  0  0  0
   12.8306    7.0184    0.7451 S   0  0  0  0  0  0  0  0  0  0  0  0
    7.5997    4.0977    2.0770 C   0  0  0  0  0  0  0  0  0  0  0  0
    6.8912    2.9096    2.1384 C   0  0  0  0  0  0  0  0  0  0  0  0
    7.3639    1.8141    2.8981 C   0  0  0  0  0  0  0  0  0  0  0  0
    3.2436    1.7488    8.4157 H   0  0  0  0  0  0  0  0  0  0  0  0
    3.6032    3.0268    7.2342 H   0  0  0  0  0  0  0  0  0  0  0  0
    4.9204    2.0364    7.9005 H   0  0  0  0  0  0  0  0  0  0  0  0
    2.6324    0.9689    6.1120 H   0  0  0  0  0  0  0  0  0  0  0  0
    3.9373   -0.0141    6.7726 H   0  0  0  0  0  0  0  0  0  0  0  0
    5.6170    1.3493    5.4852 H   0  0  0  0  0  0  0  0  0  0  0  0
    4.3144    2.3328    4.8186 H   0  0  0  0  0  0  0  0  0  0  0  0
    3.3069    0.2848    3.7415 H   0  0  0  0  0  0  0  0  0  0  0  0
    4.6015   -0.7070    4.4024 H   0  0  0  0  0  0  0  0  0  0  0  0
    4.8978    1.6267    2.4325 H   0  0  0  0  0  0  0  0  0  0  0  0
    4.9107   -0.0601    1.9569 H   0  0  0  0  0  0  0  0  0  0  0  0
    5.6384   -1.8334    2.4637 H   0  0  0  0  0  0  0  0  0  0  0  0
    6.6554   -3.9735    3.0289 H   0  0  0  0  0  0  0  0  0  0  0  0
    8.8679   -4.0741    4.2025 H   0  0  0  0  0  0  0  0  0  0  0  0
   10.0440   -1.9575    4.7709 H   0  0  0  0  0  0  0  0  0  0  0  0
   10.2409    3.3209    4.0460 H   0  0  0  0  0  0  0  0  0  0  0  0
    9.1336    6.4043    3.3542 H   0  0  0  0  0  0  0  0  0  0  0  0
   10.9781    4.9529    1.3473 H   0  0  0  0  0  0  0  0  0  0  0  0
   10.4429    8.4850    3.0795 H   0  0  0  0  0  0  0  0  0  0  0  0
   12.2436   10.2239    2.4040 H   0  0  0  0  0  0  0  0  0  0  0  0
   14.9288    8.7223   -0.1437 H   0  0  0  0  0  0  0  0  0  0  0  0
   15.8507   12.7779    0.6877 H   0  0  0  0  0  0  0  0  0  0  0  0
    7.2178    4.9098    1.4553 H   0  0  0  0  0  0  0  0  0  0  0  0
    5.9803    2.8216    1.5490 H   0  0  0  0  0  0  0  0  0  0  0  0
  1  2  1  0
  1 34  1  0
  1 35  1  0
  1 36  1  0
  2  3  1  0
  2 37  1  0
  2 38  1  0
  3  4  1  0
  3 39  1  0
  3 40  1  0
  4  5  1  0
  4 41  1  0
  4 42  1  0
  5  6  1  0
  5 43  1  0
  5 44  1  0
  6  7  1  0
  6 33  1  0
  7  8  1  0
  7 12  2  0
  8  9  2  0
  8 45  1  0
  9 10  1  0
  9 46  1  0
 10 11  2  0
 10 47  1  0
 11 12  1  0
 11 48  1  0
 12 13  1  0
 13 14  1  0
 14 15  1  0
 14 33  2  0
 15 16  2  0
 15 49  1  0
 16 17  1  0
 16 31  1  0
 17 18  2  0
 17 50  1  0
 18 19  1  0
 18 51  1  0
 19 20  2  0
 19 30  1  0
 20 21  1  0
 20 52  1  0
 21 22  2  0
 21 53  1  0
 22 23  1  0
 22 30  1  0
 23 24  2  0
 23 54  1  0
 24 25  1  0
 24 27  1  0
 25 26  3  0
 27 28  2  0
 27 29  1  0
 29 55  1  0
 31 32  2  0
 31 56  1  0
 32 33  1  0
 32 57  1  0
M  END

