
     RDKit          3D

 73 77  0  0  0  0  0  0  0  0999 V2000
    7.6954   15.0557    0.5230 C   0  0  0  0  0  0  0  0  0  0  0  0
    7.6903   13.5570    0.5615 C   0  0  0  0  0  0  0  0  0  0  0  0
    7.3204   12.6620   -0.4762 C   0  0  0  0  0  0  0  0  0  0  0  0
    7.4599   11.2713    0.0227 C   0  0  1  0  0  0  0  0  0  0  0  0
    6.4962   10.7444    0.1931 H   0  0  0  0  0  0  0  0  0  0  0  0
    8.3339   10.4224   -0.8863 C   0  0  0  0  0  0  0  0  0  0  0  0
    7.8804   10.5638   -2.3366 C   0  0  0  0  0  0  0  0  0  0  0  0
    7.2666   11.6867   -2.7775 C   0  0  0  0  0  0  0  0  0  0  0  0
    6.8128   11.8735   -4.2062 C   0  0  0  0  0  0  0  0  0  0  0  0
    6.8975   10.6087   -5.0593 C   0  0  0  0  0  0  0  0  0  0  0  0
    8.1921    9.8518   -4.7406 C   0  0  2  0  0  0  0  0  0  0  0  0
    8.9920   10.6160   -4.7358 H   0  0  0  0  0  0  0  0  0  0  0  0
    8.6815    8.8445   -5.8388 C   0  0  2  0  0  0  0  0  0  0  0  0
    8.9810    9.6143   -7.1453 C   0  0  0  0  0  0  0  0  0  0  0  0
    7.6279    7.7691   -6.1660 C   0  0  0  0  0  0  0  0  0  0  0  0
    8.1317    6.9221   -7.1936 O   0  0  0  0  0  0  0  0  0  0  0  0
    7.2123    6.1530   -7.8586 C   0  0  2  0  0  0  0  0  0  0  0  0
    6.3252    6.7593   -8.1552 H   0  0  0  0  0  0  0  0  0  0  0  0
    6.7787    5.0994   -6.9982 O   0  0  0  0  0  0  0  0  0  0  0  0
    5.8058    4.2228   -7.5503 C   0  0  2  0  0  0  0  0  0  0  0  0
    4.9081    4.8083   -7.8513 H   0  0  0  0  0  0  0  0  0  0  0  0
    5.3972    3.2673   -6.4363 C   0  0  0  0  0  0  0  0  0  0  0  0
    4.8504    3.9562   -5.3413 O   0  0  0  0  0  0  0  0  0  0  0  0
    6.3864    3.5285   -8.7882 C   0  0  1  0  0  0  0  0  0  0  0  0
    7.2316    2.8924   -8.4771 H   0  0  0  0  0  0  0  0  0  0  0  0
    5.4680    2.6543   -9.4272 O   0  0  0  0  0  0  0  0  0  0  0  0
    6.9022    4.5770   -9.7715 C   0  0  2  0  0  0  0  0  0  0  0  0
    6.0254    5.1669  -10.1246 H   0  0  0  0  0  0  0  0  0  0  0  0
    7.5694    3.9925  -10.8682 O   0  0  0  0  0  0  0  0  0  0  0  0
    7.8642    5.5609   -9.1094 C   0  0  1  0  0  0  0  0  0  0  0  0
    8.7613    5.0038   -8.7731 H   0  0  0  0  0  0  0  0  0  0  0  0
    8.1999    6.6035   -9.9908 O   0  0  0  0  0  0  0  0  0  0  0  0
   10.0080    8.1970   -5.3671 C   0  0  0  0  0  0  0  0  0  0  0  0
    9.9754    7.6571   -3.9383 C   0  0  0  0  0  0  0  0  0  0  0  0
    9.5505    8.7324   -2.9328 C   0  0  0  0  0  0  0  0  0  0  0  0
    8.1604    9.3482   -3.2528 C   0  0  1  0  0  0  0  0  0  0  0  0
    7.0602    8.3008   -2.9361 C   0  0  0  0  0  0  0  0  0  0  0  0
    7.0612   12.9337   -1.9090 C   0  0  1  0  0  0  0  0  0  0  0  0
    7.7586   13.7072   -2.2890 H   0  0  0  0  0  0  0  0  0  0  0  0
    5.7719   13.5488   -2.1356 O   0  0  0  0  0  0  0  0  0  0  0  0
    8.0364   11.4251    1.3603 O   0  0  0  0  0  0  0  0  0  0  0  0
    8.0956   12.7326    1.6124 C   0  0  0  0  0  0  0  0  0  0  0  0
    8.5074   13.0409    2.8079 O   0  0  0  0  0  0  0  0  0  0  0  0
    6.8969   15.4098   -0.1466 H   0  0  0  0  0  0  0  0  0  0  0  0
    8.6498   15.4649    0.1452 H   0  0  0  0  0  0  0  0  0  0  0  0
    7.5215   15.4966    1.5162 H   0  0  0  0  0  0  0  0  0  0  0  0
    8.2998    9.3714   -0.5633 H   0  0  0  0  0  0  0  0  0  0  0  0
    9.3823   10.7512   -0.7768 H   0  0  0  0  0  0  0  0  0  0  0  0
    7.4361   12.6709   -4.6576 H   0  0  0  0  0  0  0  0  0  0  0  0
    5.7931   12.2883   -4.1976 H   0  0  0  0  0  0  0  0  0  0  0  0
    6.8498   10.8874   -6.1218 H   0  0  0  0  0  0  0  0  0  0  0  0
    6.0182    9.9707   -4.8720 H   0  0  0  0  0  0  0  0  0  0  0  0
    9.7054   10.4245   -6.9644 H   0  0  0  0  0  0  0  0  0  0  0  0
    8.0755   10.0619   -7.5830 H   0  0  0  0  0  0  0  0  0  0  0  0
    9.3975    8.9332   -7.9001 H   0  0  0  0  0  0  0  0  0  0  0  0
    7.3730    7.1561   -5.2906 H   0  0  0  0  0  0  0  0  0  0  0  0
    6.6943    8.2496   -6.5156 H   0  0  0  0  0  0  0  0  0  0  0  0
    6.2840    2.6638   -6.1520 H   0  0  0  0  0  0  0  0  0  0  0  0
    4.6346    2.5723   -6.8188 H   0  0  0  0  0  0  0  0  0  0  0  0
    5.4988    4.6318   -5.0956 H   0  0  0  0  0  0  0  0  0  0  0  0
    4.6705    3.1583   -9.6481 H   0  0  0  0  0  0  0  0  0  0  0  0
    7.0135    3.2647  -11.1840 H   0  0  0  0  0  0  0  0  0  0  0  0
    8.4893    6.1856  -10.8148 H   0  0  0  0  0  0  0  0  0  0  0  0
   10.7963    8.9687   -5.4284 H   0  0  0  0  0  0  0  0  0  0  0  0
   10.2924    7.4050   -6.0765 H   0  0  0  0  0  0  0  0  0  0  0  0
   10.9752    7.2795   -3.6650 H   0  0  0  0  0  0  0  0  0  0  0  0
    9.3047    6.7833   -3.8725 H   0  0  0  0  0  0  0  0  0  0  0  0
   10.3044    9.5398   -2.9373 H   0  0  0  0  0  0  0  0  0  0  0  0
    9.5583    8.3048   -1.9182 H   0  0  0  0  0  0  0  0  0  0  0  0
    6.9599    8.1753   -1.8464 H   0  0  0  0  0  0  0  0  0  0  0  0
    7.2876    7.3068   -3.3442 H   0  0  0  0  0  0  0  0  0  0  0  0
    6.0754    8.6090   -3.3146 H   0  0  0  0  0  0  0  0  0  0  0  0
    5.1329   13.0552   -1.6007 H   0  0  0  0  0  0  0  0  0  0  0  0
  1  2  1  0
  1 44  1  0
  1 45  1  0
  1 46  1  0
  2  3  2  0
  2 42  1  0
  3  4  1  0
  3 38  1  0
  4  5  1  1
  4  6  1  0
  4 41  1  0
  6  7  1  0
  6 47  1  0
  6 48  1  0
  7  8  2  0
  7 36  1  0
  8  9  1  0
  8 38  1  0
  9 10  1  0
  9 49  1  0
  9 50  1  0
 10 11  1  0
 10 51  1  0
 10 52  1  0
 11 12  1  1
 11 13  1  0
 11 36  1  0
 13 14  1  6
 13 15  1  0
 13 33  1  0
 14 53  1  0
 14 54  1  0
 14 55  1  0
 15 16  1  0
 15 56  1  0
 15 57  1  0
 16 17  1  0
 17 18  1  6
 17 19  1  0
 17 30  1  0
 19 20  1  0
 20 21  1  6
 20 22  1  0
 20 24  1  0
 22 23  1  0
 22 58  1  0
 22 59  1  0
 23 60  1  0
 24 25  1  1
 24 26  1  0
 24 27  1  0
 26 61  1  0
 27 28  1  6
 27 29  1  0
 27 30  1  0
 29 62  1  0
 30 31  1  1
 30 32  1  0
 32 63  1  0
 33 34  1  0
 33 64  1  0
 33 65  1  0
 34 35  1  0
 34 66  1  0
 34 67  1  0
 35 36  1  0
 35 68  1  0
 35 69  1  0
 36 37  1  6
 37 70  1  0
 37 71  1  0
 37 72  1  0
 38 39  1  6
 38 40  1  0
 40 73  1  0
 41 42  1  0
 42 43  2  0
M  END

