
     RDKit          3D

 81 84  0  0  0  0  0  0  0  0999 V2000
    4.8970   -1.5965    4.7287 C   0  0  0  0  0  0  0  0  0  0  0  0
    4.3627   -0.4225    4.0667 N   0  0  0  0  0  0  0  0  0  0  0  0
    5.2190    0.1147    3.0184 C   0  0  0  0  0  0  0  0  0  0  0  0
    4.5652    1.3458    2.3841 C   0  0  0  0  0  0  0  0  0  0  0  0
    5.2726    2.0045    1.1673 C   0  0  1  0  0  0  0  0  0  0  0  0
    5.4446    0.9209    0.0752 C   0  0  0  0  0  0  0  0  0  0  0  0
    4.3429    3.0792    0.5652 C   0  0  0  0  0  0  0  0  0  0  0  0
    6.7016    2.5298    1.6021 C   0  0  1  0  0  0  0  0  0  0  0  0
    7.6709    2.8538    0.4564 C   0  0  0  0  0  0  0  0  0  0  0  0
    8.2310    1.8522   -0.1917 N   0  0  0  0  0  0  0  0  0  0  0  0
    9.0654    2.3757   -1.1461 C   0  0  0  0  0  0  0  0  0  0  0  0
    9.8394    1.5047   -2.0388 C   0  0  0  0  0  0  0  0  0  0  0  0
    9.7534    0.1066   -1.9032 C   0  0  0  0  0  0  0  0  0  0  0  0
   10.4788   -0.7254   -2.7466 C   0  0  0  0  0  0  0  0  0  0  0  0
   10.3776   -2.0561   -2.5939 F   0  0  0  0  0  0  0  0  0  0  0  0
   11.3094   -0.2232   -3.7474 C   0  0  0  0  0  0  0  0  0  0  0  0
   11.4068    1.1624   -3.8944 C   0  0  0  0  0  0  0  0  0  0  0  0
   10.6819    1.9962   -3.0504 C   0  0  0  0  0  0  0  0  0  0  0  0
   10.8008    3.3309   -3.2204 F   0  0  0  0  0  0  0  0  0  0  0  0
    9.0270    3.7522   -1.0589 C   0  0  0  0  0  0  0  0  0  0  0  0
    8.1464    4.0615   -0.0416 N   0  0  0  0  0  0  0  0  0  0  0  0
    7.9538    5.4485    0.3709 C   0  0  0  0  0  0  0  0  0  0  0  0
    6.8038    6.1910   -0.2903 C   0  0  0  0  0  0  0  0  0  0  0  0
    6.2243    5.7619   -1.4917 C   0  0  0  0  0  0  0  0  0  0  0  0
    5.2077    6.5093   -2.0966 C   0  0  0  0  0  0  0  0  0  0  0  0
    4.7613    7.6969   -1.5128 C   0  0  0  0  0  0  0  0  0  0  0  0
    5.3389    8.1364   -0.3170 C   0  0  0  0  0  0  0  0  0  0  0  0
    6.3504    7.3877    0.2885 C   0  0  0  0  0  0  0  0  0  0  0  0
    6.7783    3.4864    2.7423 N   0  0  0  0  0  0  0  0  0  0  0  0
    5.9711    4.7166    2.8256 C   0  0  0  0  0  0  0  0  0  0  0  0
    4.7469    4.7141    3.7575 C   0  0  1  0  0  0  0  0  0  0  0  0
    4.9279    4.7200    5.2834 C   0  0  0  0  0  0  0  0  0  0  0  0
    3.5846    5.0649    5.7242 N   0  0  0  0  0  0  0  0  0  0  0  0
    3.1714    6.1978    4.9006 C   0  0  0  0  0  0  0  0  0  0  0  0
    3.8255    5.9295    3.5311 C   0  0  2  0  0  0  0  0  0  0  0  0
    2.8760    5.6380    2.5575 F   0  0  0  0  0  0  0  0  0  0  0  0
    7.8374    3.2505    3.6032 C   0  0  0  0  0  0  0  0  0  0  0  0
    8.5069    2.2286    3.5544 O   0  0  0  0  0  0  0  0  0  0  0  0
    8.2956    4.3867    4.5478 C   0  0  1  0  0  0  0  0  0  0  0  0
    9.1494    3.8570    5.6887 C   0  0  0  0  0  0  0  0  0  0  0  0
    8.9957    5.3456    3.7507 O   0  0  0  0  0  0  0  0  0  0  0  0
    4.2186   -1.9162    5.5358 H   0  0  0  0  0  0  0  0  0  0  0  0
    5.9119   -1.4615    5.1680 H   0  0  0  0  0  0  0  0  0  0  0  0
    4.9681   -2.4324    4.0116 H   0  0  0  0  0  0  0  0  0  0  0  0
    4.1653    0.3037    4.7549 H   0  0  0  0  0  0  0  0  0  0  0  0
    5.3536   -0.6771    2.2619 H   0  0  0  0  0  0  0  0  0  0  0  0
    6.2396    0.3594    3.3887 H   0  0  0  0  0  0  0  0  0  0  0  0
    4.4209    2.0943    3.1774 H   0  0  0  0  0  0  0  0  0  0  0  0
    3.5509    1.0533    2.0653 H   0  0  0  0  0  0  0  0  0  0  0  0
    4.4799    0.4069   -0.0657 H   0  0  0  0  0  0  0  0  0  0  0  0
    6.2074    0.1742    0.3294 H   0  0  0  0  0  0  0  0  0  0  0  0
    5.7372    1.3583   -0.8886 H   0  0  0  0  0  0  0  0  0  0  0  0
    3.4815    2.5876    0.0853 H   0  0  0  0  0  0  0  0  0  0  0  0
    4.8576    3.6614   -0.2143 H   0  0  0  0  0  0  0  0  0  0  0  0
    3.9278    3.7809    1.2983 H   0  0  0  0  0  0  0  0  0  0  0  0
    7.1887    1.6375    2.0068 H   0  0  0  0  0  0  0  0  0  0  0  0
    9.1127   -0.3135   -1.1278 H   0  0  0  0  0  0  0  0  0  0  0  0
   11.8632   -0.9090   -4.3906 H   0  0  0  0  0  0  0  0  0  0  0  0
   12.0421    1.6112   -4.6603 H   0  0  0  0  0  0  0  0  0  0  0  0
    9.5554    4.5263   -1.6049 H   0  0  0  0  0  0  0  0  0  0  0  0
    8.8910    5.9712    0.1188 H   0  0  0  0  0  0  0  0  0  0  0  0
    7.8920    5.4996    1.4630 H   0  0  0  0  0  0  0  0  0  0  0  0
    6.5689    4.8380   -1.9613 H   0  0  0  0  0  0  0  0  0  0  0  0
    4.7634    6.1580   -3.0314 H   0  0  0  0  0  0  0  0  0  0  0  0
    3.9660    8.2782   -1.9856 H   0  0  0  0  0  0  0  0  0  0  0  0
    4.9981    9.0654    0.1475 H   0  0  0  0  0  0  0  0  0  0  0  0
    6.8002    7.7394    1.2222 H   0  0  0  0  0  0  0  0  0  0  0  0
    5.6054    4.9375    1.8176 H   0  0  0  0  0  0  0  0  0  0  0  0
    6.6235    5.5605    3.0932 H   0  0  0  0  0  0  0  0  0  0  0  0
    4.1077    3.8512    3.5332 H   0  0  0  0  0  0  0  0  0  0  0  0
    5.6901    5.4755    5.5852 H   0  0  0  0  0  0  0  0  0  0  0  0
    5.2482    3.7446    5.6840 H   0  0  0  0  0  0  0  0  0  0  0  0
    3.5158    5.2438    6.7229 H   0  0  0  0  0  0  0  0  0  0  0  0
    3.5255    7.1764    5.2889 H   0  0  0  0  0  0  0  0  0  0  0  0
    2.0769    6.2566    4.7895 H   0  0  0  0  0  0  0  0  0  0  0  0
    4.3778    6.8124    3.1669 H   0  0  0  0  0  0  0  0  0  0  0  0
    7.4457    4.9369    4.9629 H   0  0  0  0  0  0  0  0  0  0  0  0
    9.9867    3.2601    5.2984 H   0  0  0  0  0  0  0  0  0  0  0  0
    8.5618    3.1996    6.3481 H   0  0  0  0  0  0  0  0  0  0  0  0
    9.5372    4.6994    6.2804 H   0  0  0  0  0  0  0  0  0  0  0  0
    9.7916    4.9119    3.4084 H   0  0  0  0  0  0  0  0  0  0  0  0
  1  2  1  0
  1 42  1  0
  1 43  1  0
  1 44  1  0
  2  3  1  0
  2 45  1  0
  3  4  1  0
  3 46  1  0
  3 47  1  0
  5  4  1  1
  4 48  1  0
  4 49  1  0
  5  6  1  0
  5  7  1  0
  5  8  1  0
  6 50  1  0
  6 51  1  0
  6 52  1  0
  7 53  1  0
  7 54  1  0
  7 55  1  0
  8  9  1  0
  8 29  1  0
  8 56  1  1
  9 10  2  0
  9 21  1  0
 10 11  1  0
 11 12  1  0
 11 20  2  0
 12 13  2  0
 12 18  1  0
 13 14  1  0
 13 57  1  0
 14 15  1  0
 14 16  2  0
 16 17  1  0
 16 58  1  0
 17 18  2  0
 17 59  1  0
 18 19  1  0
 20 21  1  0
 20 60  1  0
 21 22  1  0
 22 23  1  0
 22 61  1  0
 22 62  1  0
 23 24  2  0
 23 28  1  0
 24 25  1  0
 24 63  1  0
 25 26  2  0
 25 64  1  0
 26 27  1  0
 26 65  1  0
 27 28  2  0
 27 66  1  0
 28 67  1  0
 29 30  1  0
 29 37  1  0
 30 31  1  0
 30 68  1  0
 30 69  1  0
 31 32  1  0
 31 35  1  0
 31 70  1  6
 32 33  1  0
 32 71  1  0
 32 72  1  0
 33 34  1  0
 33 73  1  0
 34 35  1  0
 34 74  1  0
 34 75  1  0
 35 36  1  0
 35 76  1  6
 37 38  2  0
 37 39  1  0
 39 40  1  0
 39 41  1  0
 39 77  1  1
 40 78  1  0
 40 79  1  0
 40 80  1  0
 41 81  1  0
M  END

