
     RDKit          3D

 66 69  0  0  0  0  0  0  0  0999 V2000
    1.5424    0.1609    4.0302 C   0  0  0  0  0  0  0  0  0  0  0  0
    2.3041    0.1397    2.7285 C   0  0  0  0  0  0  0  0  0  0  0  0
    2.9639    1.2287    2.4146 N   0  0  0  0  0  0  0  0  0  0  0  0
    3.7082    1.3340    1.2732 C   0  0  0  0  0  0  0  0  0  0  0  0
    4.3856    2.6114    1.0240 C   0  0  0  0  0  0  0  0  0  0  0  0
    4.3088    3.6537    1.9798 C   0  0  0  0  0  0  0  0  0  0  0  0
    4.9450    4.8743    1.7711 C   0  0  0  0  0  0  0  0  0  0  0  0
    5.6814    5.1066    0.6020 C   0  0  0  0  0  0  0  0  0  0  0  0
    5.7663    4.0903   -0.3568 C   0  0  0  0  0  0  0  0  0  0  0  0
    5.1310    2.8664   -0.1527 C   0  0  0  0  0  0  0  0  0  0  0  0
    3.8115    0.2120    0.4096 C   0  0  0  0  0  0  0  0  0  0  0  0
    3.1402   -0.9516    0.7034 C   0  0  0  0  0  0  0  0  0  0  0  0
    2.3020   -1.0426    1.8723 C   0  0  0  0  0  0  0  0  0  0  0  0
    1.5348   -2.1771    2.1998 C   0  0  0  0  0  0  0  0  0  0  0  0
    0.8545   -2.5082    3.1619 O   0  0  0  0  0  0  0  0  0  0  0  0
    1.7253   -3.3852    1.2078 N   0  0  0  0  0  0  0  0  0  0  0  0
    0.8084   -4.0875    0.5450 C   0  0  0  0  0  0  0  0  0  0  0  0
    1.0866   -5.4728    0.2581 C   0  0  0  0  0  0  0  0  0  0  0  0
    0.1152   -6.3028   -0.2319 C   0  0  0  0  0  0  0  0  0  0  0  0
    0.5138   -8.0299   -0.5653 S   0  0  1  0  0  0  0  0  0  0  0  0
    0.0217   -8.3220   -1.9128 O   0  0  0  0  0  0  0  0  0  0  0  0
    1.9271   -8.1967   -0.2107 O   0  0  0  0  0  0  0  0  0  0  0  0
   -0.4722   -8.8436    0.5148 N   0  0  0  0  0  0  0  0  0  0  0  0
   -1.3439   -9.9215    0.0149 C   0  0  0  0  0  0  0  0  0  0  0  0
   -0.6807  -11.2968    0.1396 C   0  0  0  0  0  0  0  0  0  0  0  0
   -0.1800  -11.5446    1.5691 C   0  0  0  0  0  0  0  0  0  0  0  0
    0.7274  -10.4021    2.0457 C   0  0  0  0  0  0  0  0  0  0  0  0
    0.0353   -9.0448    1.8834 C   0  0  0  0  0  0  0  0  0  0  0  0
   -1.1925   -5.8231   -0.5074 C   0  0  0  0  0  0  0  0  0  0  0  0
   -1.4779   -4.4846   -0.2961 C   0  0  0  0  0  0  0  0  0  0  0  0
   -0.5072   -3.5731    0.1592 C   0  0  0  0  0  0  0  0  0  0  0  0
   -0.8736   -2.3071    0.2763 O   0  0  0  0  0  0  0  0  0  0  0  0
   -0.2323   -1.2050   -0.4620 C   0  0  1  0  0  0  0  0  0  0  0  0
   -0.6073   -1.3165   -1.9333 C   0  0  0  0  0  0  0  0  0  0  0  0
   -0.7181    0.0698    0.1966 C   0  0  0  0  0  0  0  0  0  0  0  0
    1.6795    1.1429    4.5012 H   0  0  0  0  0  0  0  0  0  0  0  0
    1.8904   -0.6303    4.7128 H   0  0  0  0  0  0  0  0  0  0  0  0
    0.4685   -0.0339    3.8799 H   0  0  0  0  0  0  0  0  0  0  0  0
    3.7359    3.4676    2.8884 H   0  0  0  0  0  0  0  0  0  0  0  0
    4.8681    5.6575    2.5308 H   0  0  0  0  0  0  0  0  0  0  0  0
    6.1807    6.0650    0.4399 H   0  0  0  0  0  0  0  0  0  0  0  0
    6.3339    4.2539   -1.2772 H   0  0  0  0  0  0  0  0  0  0  0  0
    5.2139    2.1010   -0.9265 H   0  0  0  0  0  0  0  0  0  0  0  0
    4.4461    0.2499   -0.4768 H   0  0  0  0  0  0  0  0  0  0  0  0
    3.2668   -1.8137    0.0467 H   0  0  0  0  0  0  0  0  0  0  0  0
    2.5305   -3.9486    1.4818 H   0  0  0  0  0  0  0  0  0  0  0  0
    2.0771   -5.8755    0.4798 H   0  0  0  0  0  0  0  0  0  0  0  0
   -1.6132   -9.6990   -1.0249 H   0  0  0  0  0  0  0  0  0  0  0  0
   -2.2686   -9.8868    0.6189 H   0  0  0  0  0  0  0  0  0  0  0  0
    0.1630  -11.3471   -0.5707 H   0  0  0  0  0  0  0  0  0  0  0  0
   -1.4002  -12.0756   -0.1636 H   0  0  0  0  0  0  0  0  0  0  0  0
    0.3546  -12.5064    1.6268 H   0  0  0  0  0  0  0  0  0  0  0  0
   -1.0484  -11.6306    2.2489 H   0  0  0  0  0  0  0  0  0  0  0  0
    1.6602  -10.3880    1.4580 H   0  0  0  0  0  0  0  0  0  0  0  0
    1.0101  -10.5421    3.1022 H   0  0  0  0  0  0  0  0  0  0  0  0
    0.7143   -8.2201    2.1409 H   0  0  0  0  0  0  0  0  0  0  0  0
   -0.8342   -8.9705    2.5607 H   0  0  0  0  0  0  0  0  0  0  0  0
   -1.9493   -6.4981   -0.9087 H   0  0  0  0  0  0  0  0  0  0  0  0
   -2.4638   -4.0768   -0.5228 H   0  0  0  0  0  0  0  0  0  0  0  0
    0.8539   -1.2977   -0.3386 H   0  0  0  0  0  0  0  0  0  0  0  0
   -1.6979   -1.2453   -2.0701 H   0  0  0  0  0  0  0  0  0  0  0  0
   -0.2585   -2.2627   -2.3758 H   0  0  0  0  0  0  0  0  0  0  0  0
   -0.1355   -0.4935   -2.4916 H   0  0  0  0  0  0  0  0  0  0  0  0
   -1.8125    0.1583    0.1096 H   0  0  0  0  0  0  0  0  0  0  0  0
   -0.2539    0.9381   -0.2932 H   0  0  0  0  0  0  0  0  0  0  0  0
   -0.4416    0.0885    1.2588 H   0  0  0  0  0  0  0  0  0  0  0  0
  1  2  1  0
  1 36  1  0
  1 37  1  0
  1 38  1  0
  2  3  2  0
  2 13  1  0
  3  4  1  0
  4  5  1  0
  4 11  2  0
  5  6  2  0
  5 10  1  0
  6  7  1  0
  6 39  1  0
  7  8  2  0
  7 40  1  0
  8  9  1  0
  8 41  1  0
  9 10  2  0
  9 42  1  0
 10 43  1  0
 11 12  1  0
 11 44  1  0
 12 13  2  0
 12 45  1  0
 13 14  1  0
 14 15  2  0
 14 16  1  0
 16 17  1  0
 16 46  1  0
 17 18  2  0
 17 31  1  0
 18 19  1  0
 18 47  1  0
 20 19  1  1
 19 29  2  0
 20 21  2  0
 20 22  2  0
 20 23  1  0
 23 24  1  0
 23 28  1  0
 24 25  1  0
 24 48  1  0
 24 49  1  0
 25 26  1  0
 25 50  1  0
 25 51  1  0
 26 27  1  0
 26 52  1  0
 26 53  1  0
 27 28  1  0
 27 54  1  0
 27 55  1  0
 28 56  1  0
 28 57  1  0
 29 30  1  0
 29 58  1  0
 30 31  2  0
 30 59  1  0
 31 32  1  0
 32 33  1  0
 33 34  1  0
 33 35  1  0
 33 60  1  6
 34 61  1  0
 34 62  1  0
 34 63  1  0
 35 64  1  0
 35 65  1  0
 35 66  1  0
M  END

