
     RDKit          3D

 62 66  0  0  0  0  0  0  0  0999 V2000
    2.5794    0.3040    0.0117 C   0  0  0  0  0  0  0  0  0  0  0  0
    2.4992   -0.5726   -1.2381 C   0  0  0  0  0  0  0  0  0  0  0  0
    3.7591   -0.5166   -2.1306 C   0  0  0  0  0  0  0  0  0  0  0  0
    4.9899   -1.0343   -1.4624 C   0  0  0  0  0  0  0  0  0  0  0  0
    5.8087   -0.1377   -0.8853 O   0  0  0  0  0  0  0  0  0  0  0  0
    6.8587   -0.7801   -0.2597 N   0  0  0  0  0  0  0  0  0  0  0  0
    6.6605   -2.0616   -0.4646 C   0  0  0  0  0  0  0  0  0  0  0  0
    7.5980   -3.0634    0.1038 C   0  0  0  0  0  0  0  0  0  0  0  0
    7.5709   -3.4002    1.4725 C   0  0  0  0  0  0  0  0  0  0  0  0
    6.4032   -2.6556    2.5332 Cl  0  0  0  0  0  0  0  0  0  0  0  0
    8.4555   -4.3358    2.0163 C   0  0  0  0  0  0  0  0  0  0  0  0
    9.3883   -4.9613    1.1894 C   0  0  0  0  0  0  0  0  0  0  0  0
    9.4383   -4.6641   -0.1728 C   0  0  0  0  0  0  0  0  0  0  0  0
    8.5460   -3.7272   -0.6983 C   0  0  0  0  0  0  0  0  0  0  0  0
    8.6240   -3.3786   -2.4122 Cl  0  0  0  0  0  0  0  0  0  0  0  0
    5.4794   -2.2972   -1.2432 C   0  0  0  0  0  0  0  0  0  0  0  0
    4.8982   -3.6021   -1.6720 C   0  0  0  0  0  0  0  0  0  0  0  0
    3.9705   -4.0521   -0.6892 O   0  0  0  0  0  0  0  0  0  0  0  0
    3.3645   -5.2607   -0.8530 C   0  0  0  0  0  0  0  0  0  0  0  0
    3.5516   -6.1116   -1.9518 C   0  0  0  0  0  0  0  0  0  0  0  0
    2.8690   -7.3310   -2.0258 C   0  0  0  0  0  0  0  0  0  0  0  0
    2.0027   -7.7403   -1.0013 C   0  0  0  0  0  0  0  0  0  0  0  0
    1.2619   -8.9343   -1.0582 N   0  0  0  0  0  0  0  0  0  0  0  0
    1.6393  -10.1713   -1.5585 C   0  0  0  0  0  0  0  0  0  0  0  0
    2.9681  -10.5166   -1.7991 C   0  0  0  0  0  0  0  0  0  0  0  0
    3.3145  -11.8031   -2.2623 C   0  0  0  0  0  0  0  0  0  0  0  0
    2.3579  -12.7734   -2.4812 C   0  0  0  0  0  0  0  0  0  0  0  0
    0.9898  -12.4710   -2.2565 C   0  0  0  0  0  0  0  0  0  0  0  0
   -0.0326  -13.4406   -2.4619 C   0  0  0  0  0  0  0  0  0  0  0  0
   -1.3624  -13.1356   -2.2763 C   0  0  0  0  0  0  0  0  0  0  0  0
   -1.7494  -11.8246   -1.8855 C   0  0  0  0  0  0  0  0  0  0  0  0
   -3.1772  -11.4035   -1.6918 C   0  0  0  0  0  0  0  0  0  0  0  0
   -3.4979  -10.3950   -1.1168 O   0  0  0  0  0  0  0  0  0  0  0  0
   -4.1251  -12.2193   -2.2089 O   0  0  0  0  0  0  0  0  0  0  0  0
   -0.7680  -10.8720   -1.6552 C   0  0  0  0  0  0  0  0  0  0  0  0
    0.6092  -11.1561   -1.8136 C   0  0  0  0  0  0  0  0  0  0  0  0
    1.8257   -6.8774    0.0994 C   0  0  0  0  0  0  0  0  0  0  0  0
    2.4851   -5.6567    0.1690 C   0  0  0  0  0  0  0  0  0  0  0  0
    1.6466    0.2416    0.5939 H   0  0  0  0  0  0  0  0  0  0  0  0
    2.7421    1.3631   -0.2486 H   0  0  0  0  0  0  0  0  0  0  0  0
    3.4051   -0.0045    0.6724 H   0  0  0  0  0  0  0  0  0  0  0  0
    1.6366   -0.2673   -1.8550 H   0  0  0  0  0  0  0  0  0  0  0  0
    2.3215   -1.6218   -0.9479 H   0  0  0  0  0  0  0  0  0  0  0  0
    3.9514    0.5207   -2.4495 H   0  0  0  0  0  0  0  0  0  0  0  0
    3.5821   -1.1078   -3.0440 H   0  0  0  0  0  0  0  0  0  0  0  0
    8.4019   -4.5647    3.0811 H   0  0  0  0  0  0  0  0  0  0  0  0
   10.0830   -5.6917    1.6110 H   0  0  0  0  0  0  0  0  0  0  0  0
   10.1606   -5.1470   -0.8318 H   0  0  0  0  0  0  0  0  0  0  0  0
    5.7016   -4.3474   -1.8051 H   0  0  0  0  0  0  0  0  0  0  0  0
    4.3876   -3.4907   -2.6467 H   0  0  0  0  0  0  0  0  0  0  0  0
    4.2145   -5.8356   -2.7719 H   0  0  0  0  0  0  0  0  0  0  0  0
    3.0038   -7.9587   -2.9078 H   0  0  0  0  0  0  0  0  0  0  0  0
    0.3942   -8.9185   -0.5378 H   0  0  0  0  0  0  0  0  0  0  0  0
    3.7579   -9.7942   -1.5946 H   0  0  0  0  0  0  0  0  0  0  0  0
    4.3707  -12.0321   -2.4277 H   0  0  0  0  0  0  0  0  0  0  0  0
    2.6370  -13.7718   -2.8250 H   0  0  0  0  0  0  0  0  0  0  0  0
    0.2598  -14.4485   -2.7676 H   0  0  0  0  0  0  0  0  0  0  0  0
   -2.1080  -13.9251   -2.4126 H   0  0  0  0  0  0  0  0  0  0  0  0
   -3.7197  -12.9126   -2.7475 H   0  0  0  0  0  0  0  0  0  0  0  0
   -1.1151   -9.8790   -1.3653 H   0  0  0  0  0  0  0  0  0  0  0  0
    1.1578   -7.1749    0.9128 H   0  0  0  0  0  0  0  0  0  0  0  0
    2.3454   -4.9904    1.0226 H   0  0  0  0  0  0  0  0  0  0  0  0
  1  2  1  0
  1 39  1  0
  1 40  1  0
  1 41  1  0
  2  3  1  0
  2 42  1  0
  2 43  1  0
  3  4  1  0
  3 44  1  0
  3 45  1  0
  4  5  1  0
  4 16  2  0
  5  6  1  0
  6  7  2  0
  7  8  1  0
  7 16  1  0
  8  9  2  0
  8 14  1  0
  9 10  1  0
  9 11  1  0
 11 12  2  0
 11 46  1  0
 12 13  1  0
 12 47  1  0
 13 14  2  0
 13 48  1  0
 14 15  1  0
 16 17  1  0
 17 18  1  0
 17 49  1  0
 17 50  1  0
 18 19  1  0
 19 20  2  0
 19 38  1  0
 20 21  1  0
 20 51  1  0
 21 22  2  0
 21 52  1  0
 22 23  1  0
 22 37  1  0
 23 24  1  0
 23 53  1  0
 24 25  2  0
 24 36  1  0
 25 26  1  0
 25 54  1  0
 26 27  2  0
 26 55  1  0
 27 28  1  0
 27 56  1  0
 28 29  1  0
 28 36  2  0
 29 30  2  0
 29 57  1  0
 30 31  1  0
 30 58  1  0
 31 32  1  0
 31 35  2  0
 32 33  2  0
 32 34  1  0
 34 59  1  0
 35 36  1  0
 35 60  1  0
 37 38  2  0
 37 61  1  0
 38 62  1  0
M  END

