
     RDKit          3D

 67 69  0  0  0  0  0  0  0  0999 V2000
    1.5632    1.8078   -3.7279 C   0  0  0  0  0  0  0  0  0  0  0  0
    1.7415    1.2807   -2.2958 C   0  0  1  0  0  0  0  0  0  0  0  0
    0.4238    1.2971   -1.5168 C   0  0  0  0  0  0  0  0  0  0  0  0
    2.2917   -0.0723   -2.2589 N   0  0  0  0  0  0  0  0  0  0  0  0
    3.5995   -0.4083   -2.5211 C   0  0  0  0  0  0  0  0  0  0  0  0
    4.6067    0.5626   -2.6360 C   0  0  0  0  0  0  0  0  0  0  0  0
    5.9364    0.1787   -2.9133 C   0  0  0  0  0  0  0  0  0  0  0  0
    6.8889    1.1777   -2.9956 N   0  0  0  0  0  0  0  0  0  0  0  0
    8.2594    1.1631   -3.2835 C   0  0  0  0  0  0  0  0  0  0  0  0
    8.9936   -0.0153   -3.5802 C   0  0  0  0  0  0  0  0  0  0  0  0
   10.3519    0.0497   -3.8591 C   0  0  0  0  0  0  0  0  0  0  0  0
   11.0233    1.2835   -3.8524 C   0  0  0  0  0  0  0  0  0  0  0  0
   12.3667    1.4844   -4.1132 N   0  0  0  0  0  0  0  0  0  0  0  0
   12.6717    2.7327   -4.0281 C   0  0  0  0  0  0  0  0  0  0  0  0
   11.3532    3.8398   -3.6149 S   0  0  0  0  0  0  0  0  0  0  0  0
   10.2822    2.4567   -3.5542 C   0  0  0  0  0  0  0  0  0  0  0  0
    8.9168    2.4076   -3.2719 C   0  0  0  0  0  0  0  0  0  0  0  0
    6.2939   -1.0968   -3.1084 N   0  0  0  0  0  0  0  0  0  0  0  0
    5.3383   -2.0170   -3.0054 C   0  0  0  0  0  0  0  0  0  0  0  0
    3.9984   -1.7764   -2.6876 C   0  0  0  0  0  0  0  0  0  0  0  0
    3.1168   -2.9830   -2.5959 C   0  0  0  0  0  0  0  0  0  0  0  0
    3.3512   -4.0063   -3.2211 O   0  0  0  0  0  0  0  0  0  0  0  0
    2.0200   -2.8898   -1.7541 N   0  0  0  0  0  0  0  0  0  0  0  0
    1.1942   -4.0606   -1.4875 C   0  0  0  0  0  0  0  0  0  0  0  0
    1.7441   -4.9677   -0.3785 C   0  0  0  0  0  0  0  0  0  0  0  0
    0.8256   -6.1495    0.0011 C   0  0  1  0  0  0  0  0  0  0  0  0
    0.6621   -7.1570   -1.1405 C   0  0  0  0  0  0  0  0  0  0  0  0
    1.2778   -6.8494    1.2045 N   0  0  0  0  0  0  0  0  0  0  0  0
    1.0113   -6.2281    2.4763 C   0  0  0  0  0  0  0  0  0  0  0  0
   -0.3255   -6.3929    2.8866 O   0  0  0  0  0  0  0  0  0  0  0  0
   -0.7076   -7.7230    3.2473 C   0  0  1  0  0  0  0  0  0  0  0  0
   -0.3882   -7.9882    4.7196 C   0  0  0  0  0  0  0  0  0  0  0  0
   -2.1932   -7.8613    2.9396 C   0  0  0  0  0  0  0  0  0  0  0  0
    1.2058    2.8501   -3.7217 H   0  0  0  0  0  0  0  0  0  0  0  0
    0.8241    1.1984   -4.2741 H   0  0  0  0  0  0  0  0  0  0  0  0
    2.5090    1.7727   -4.2890 H   0  0  0  0  0  0  0  0  0  0  0  0
    2.4499    1.9371   -1.7631 H   0  0  0  0  0  0  0  0  0  0  0  0
   -0.3213    0.6343   -1.9900 H   0  0  0  0  0  0  0  0  0  0  0  0
   -0.0041    2.3106   -1.4954 H   0  0  0  0  0  0  0  0  0  0  0  0
    0.5725    0.9615   -0.4790 H   0  0  0  0  0  0  0  0  0  0  0  0
    1.6194   -0.8145   -2.4301 H   0  0  0  0  0  0  0  0  0  0  0  0
    4.3696    1.6214   -2.5321 H   0  0  0  0  0  0  0  0  0  0  0  0
    6.5227    2.1041   -2.8167 H   0  0  0  0  0  0  0  0  0  0  0  0
    8.4637   -0.9640   -3.5815 H   0  0  0  0  0  0  0  0  0  0  0  0
   10.9146   -0.8578   -4.0875 H   0  0  0  0  0  0  0  0  0  0  0  0
   13.6747    3.1354   -4.1926 H   0  0  0  0  0  0  0  0  0  0  0  0
    8.3608    3.3213   -3.0447 H   0  0  0  0  0  0  0  0  0  0  0  0
    5.6356   -3.0565   -3.1768 H   0  0  0  0  0  0  0  0  0  0  0  0
    2.0679   -2.1864   -1.0228 H   0  0  0  0  0  0  0  0  0  0  0  0
    1.1234   -4.6153   -2.4323 H   0  0  0  0  0  0  0  0  0  0  0  0
    0.1800   -3.7150   -1.2226 H   0  0  0  0  0  0  0  0  0  0  0  0
    1.9174   -4.3517    0.5219 H   0  0  0  0  0  0  0  0  0  0  0  0
    2.7276   -5.3572   -0.6952 H   0  0  0  0  0  0  0  0  0  0  0  0
   -0.1727   -5.7476    0.2504 H   0  0  0  0  0  0  0  0  0  0  0  0
    1.6354   -7.6017   -1.4105 H   0  0  0  0  0  0  0  0  0  0  0  0
    0.2495   -6.6915   -2.0487 H   0  0  0  0  0  0  0  0  0  0  0  0
   -0.0090   -7.9723   -0.8327 H   0  0  0  0  0  0  0  0  0  0  0  0
    2.2380   -7.1761    1.1228 H   0  0  0  0  0  0  0  0  0  0  0  0
    1.1559   -5.1288    2.4765 H   0  0  0  0  0  0  0  0  0  0  0  0
    1.7205   -6.6541    3.2127 H   0  0  0  0  0  0  0  0  0  0  0  0
   -0.1447   -8.4317    2.6129 H   0  0  0  0  0  0  0  0  0  0  0  0
   -0.9472   -7.2915    5.3653 H   0  0  0  0  0  0  0  0  0  0  0  0
    0.6856   -7.8588    4.9299 H   0  0  0  0  0  0  0  0  0  0  0  0
   -0.6588   -9.0184    5.0024 H   0  0  0  0  0  0  0  0  0  0  0  0
   -2.7728   -7.1164    3.5089 H   0  0  0  0  0  0  0  0  0  0  0  0
   -2.5599   -8.8648    3.2077 H   0  0  0  0  0  0  0  0  0  0  0  0
   -2.3823   -7.6944    1.8684 H   0  0  0  0  0  0  0  0  0  0  0  0
  1  2  1  0
  1 34  1  0
  1 35  1  0
  1 36  1  0
  2  3  1  0
  2  4  1  0
  2 37  1  1
  3 38  1  0
  3 39  1  0
  3 40  1  0
  4  5  1  0
  4 41  1  0
  5  6  2  0
  5 20  1  0
  6  7  1  0
  6 42  1  0
  7  8  1  0
  7 18  2  0
  8  9  1  0
  8 43  1  0
  9 10  2  0
  9 17  1  0
 10 11  1  0
 10 44  1  0
 11 12  2  0
 11 45  1  0
 12 13  1  0
 12 16  1  0
 13 14  2  0
 14 15  1  0
 14 46  1  0
 15 16  1  0
 16 17  2  0
 17 47  1  0
 18 19  1  0
 19 20  2  0
 19 48  1  0
 20 21  1  0
 21 22  2  0
 21 23  1  0
 23 24  1  0
 23 49  1  0
 24 25  1  0
 24 50  1  0
 24 51  1  0
 25 26  1  0
 25 52  1  0
 25 53  1  0
 26 27  1  0
 26 28  1  0
 26 54  1  1
 27 55  1  0
 27 56  1  0
 27 57  1  0
 28 29  1  0
 28 58  1  0
 29 30  1  0
 29 59  1  0
 29 60  1  0
 30 31  1  0
 31 32  1  0
 31 33  1  0
 31 61  1  6
 32 62  1  0
 32 63  1  0
 32 64  1  0
 33 65  1  0
 33 66  1  0
 33 67  1  0
M  END

