
     RDKit          3D

 46 49  0  0  0  0  0  0  0  0999 V2000
    0.9343   -2.0402    3.3562 C   0  0  0  0  0  0  0  0  0  0  0  0
    0.6144   -2.4199    2.0058 O   0  0  0  0  0  0  0  0  0  0  0  0
   -0.5870   -2.5898    1.5517 C   0  0  0  0  0  0  0  0  0  0  0  0
   -1.7652   -2.3978    2.3392 C   0  0  0  0  0  0  0  0  0  0  0  0
   -2.9998   -2.5153    1.7470 C   0  0  0  0  0  0  0  0  0  0  0  0
   -3.1035   -2.8303    0.3637 C   0  0  0  0  0  0  0  0  0  0  0  0
   -1.9607   -3.0497   -0.4144 C   0  0  0  0  0  0  0  0  0  0  0  0
   -0.6906   -2.9608    0.1443 C   0  0  0  0  0  0  0  0  0  0  0  0
    0.5048   -3.2075   -0.6752 C   0  0  0  0  0  0  0  0  0  0  0  0
    0.4303   -3.0810   -1.9850 N   0  0  0  0  0  0  0  0  0  0  0  0
    1.6943   -3.3680   -2.3977 O   0  0  0  0  0  0  0  0  0  0  0  0
    2.4424   -3.6563   -1.2991 C   0  0  0  0  0  0  0  0  0  0  0  0
    3.8969   -4.0089   -1.5087 C   0  0  2  0  0  0  0  0  0  0  0  0
    4.3415   -3.1560   -2.0445 H   0  0  0  0  0  0  0  0  0  0  0  0
    4.0288   -5.3240   -2.3207 C   0  0  0  0  0  0  0  0  0  0  0  0
    3.9203   -6.3861   -1.2204 C   0  0  0  0  0  0  0  0  0  0  0  0
    4.5747   -5.7127    0.0075 C   0  0  0  0  0  0  0  0  0  0  0  0
    4.5921   -4.2646   -0.2639 N   0  0  0  0  0  0  0  0  0  0  0  0
    5.8772   -3.5947   -0.0441 C   0  0  0  0  0  0  0  0  0  0  0  0
    6.8658   -4.2957    0.1934 O   0  0  0  0  0  0  0  0  0  0  0  0
    5.8936   -2.1548   -0.1047 C   0  0  0  0  0  0  0  0  0  0  0  0
    4.7306   -1.3127   -0.0333 C   0  0  0  0  0  0  0  0  0  0  0  0
    4.8237    0.0592   -0.0698 C   0  0  0  0  0  0  0  0  0  0  0  0
    6.0910    0.7195   -0.1813 C   0  0  0  0  0  0  0  0  0  0  0  0
    6.1747    2.1285   -0.2272 C   0  0  0  0  0  0  0  0  0  0  0  0
    6.2306    3.2984   -0.2617 N   0  0  0  0  0  0  0  0  0  0  0  0
    7.2615   -0.1134   -0.2170 C   0  0  0  0  0  0  0  0  0  0  0  0
    7.1641   -1.4824   -0.1702 C   0  0  0  0  0  0  0  0  0  0  0  0
    1.7336   -3.5736   -0.2109 N   0  0  0  0  0  0  0  0  0  0  0  0
    2.0262   -1.9858    3.3832 H   0  0  0  0  0  0  0  0  0  0  0  0
    0.5687   -2.8066    4.0539 H   0  0  0  0  0  0  0  0  0  0  0  0
    0.4942   -1.0588    3.5811 H   0  0  0  0  0  0  0  0  0  0  0  0
   -1.6757   -2.1416    3.3934 H   0  0  0  0  0  0  0  0  0  0  0  0
   -3.9057   -2.3594    2.3345 H   0  0  0  0  0  0  0  0  0  0  0  0
   -4.0904   -2.9128   -0.0942 H   0  0  0  0  0  0  0  0  0  0  0  0
   -2.0487   -3.3067   -1.4700 H   0  0  0  0  0  0  0  0  0  0  0  0
    5.0321   -5.3284   -2.7725 H   0  0  0  0  0  0  0  0  0  0  0  0
    3.2912   -5.4304   -3.1309 H   0  0  0  0  0  0  0  0  0  0  0  0
    4.4159   -7.3294   -1.4954 H   0  0  0  0  0  0  0  0  0  0  0  0
    2.8605   -6.6252   -1.0258 H   0  0  0  0  0  0  0  0  0  0  0  0
    5.6149   -6.0379    0.1517 H   0  0  0  0  0  0  0  0  0  0  0  0
    4.0154   -5.9402    0.9317 H   0  0  0  0  0  0  0  0  0  0  0  0
    3.7530   -1.7701    0.1117 H   0  0  0  0  0  0  0  0  0  0  0  0
    3.9216    0.6715    0.0034 H   0  0  0  0  0  0  0  0  0  0  0  0
    8.2432    0.3621   -0.2785 H   0  0  0  0  0  0  0  0  0  0  0  0
    8.0624   -2.1020   -0.1865 H   0  0  0  0  0  0  0  0  0  0  0  0
  1  2  1  0
  1 30  1  0
  1 31  1  0
  1 32  1  0
  2  3  1  0
  3  4  2  0
  3  8  1  0
  4  5  1  0
  4 33  1  0
  5  6  2  0
  5 34  1  0
  6  7  1  0
  6 35  1  0
  7  8  2  0
  7 36  1  0
  8  9  1  0
  9 10  2  0
  9 29  1  0
 10 11  1  0
 11 12  1  0
 12 13  1  0
 12 29  2  0
 13 14  1  6
 13 15  1  0
 13 18  1  0
 15 16  1  0
 15 37  1  0
 15 38  1  0
 16 17  1  0
 16 39  1  0
 16 40  1  0
 17 18  1  0
 17 41  1  0
 17 42  1  0
 18 19  1  0
 19 20  2  0
 19 21  1  0
 21 22  2  0
 21 28  1  0
 22 23  1  0
 22 43  1  0
 23 24  2  0
 23 44  1  0
 24 25  1  0
 24 27  1  0
 25 26  3  0
 27 28  2  0
 27 45  1  0
 28 46  1  0
M  END

