
     RDKit          3D

 62 64  0  0  0  0  0  0  0  0999 V2000
    2.2116    0.3431   -0.6808 C   0  0  0  0  0  0  0  0  0  0  0  0
    1.7425   -0.6520    0.3863 C   0  0  1  0  0  0  0  0  0  0  0  0
    1.0605    0.0472    1.5671 C   0  0  0  0  0  0  0  0  0  0  0  0
    0.8149   -1.7031   -0.2272 C   0  0  0  0  0  0  0  0  0  0  0  0
    2.8739   -1.4533    0.8615 O   0  0  0  0  0  0  0  0  0  0  0  0
    3.9350   -0.8895    1.4793 C   0  0  0  0  0  0  0  0  0  0  0  0
    4.0611    0.3009    1.7002 O   0  0  0  0  0  0  0  0  0  0  0  0
    4.8701   -1.8322    1.8299 N   0  0  0  0  0  0  0  0  0  0  0  0
    4.7454   -3.2677    1.6008 C   0  0  0  0  0  0  0  0  0  0  0  0
    5.9713   -3.8027    0.8490 C   0  0  0  0  0  0  0  0  0  0  0  0
    7.2811   -3.4104    1.5319 C   0  0  2  0  0  0  0  0  0  0  0  0
    7.3297   -4.1536    2.7777 O   0  0  0  0  0  0  0  0  0  0  0  0
    8.5109   -4.4434    3.3356 C   0  0  0  0  0  0  0  0  0  0  0  0
    8.5066   -5.2060    4.5271 C   0  0  0  0  0  0  0  0  0  0  0  0
    9.6419   -5.5403    5.1196 N   0  0  0  0  0  0  0  0  0  0  0  0
   10.7984   -5.1417    4.5708 C   0  0  0  0  0  0  0  0  0  0  0  0
   12.0935   -5.5415    5.2537 C   0  0  0  0  0  0  0  0  0  0  0  0
   11.8166   -6.2919    6.4440 N   0  0  0  0  0  0  0  0  0  0  0  0
   12.7614   -6.8562    7.2445 C   0  0  0  0  0  0  0  0  0  0  0  0
   14.1539   -6.7267    7.0421 C   0  0  0  0  0  0  0  0  0  0  0  0
   15.0641   -7.3389    7.9048 C   0  0  0  0  0  0  0  0  0  0  0  0
   14.6042   -8.0843    8.9911 C   0  0  0  0  0  0  0  0  0  0  0  0
   15.7718   -8.8841   10.0862 S   0  0  1  0  0  0  0  0  0  0  0  0
   16.0786   -7.6773   11.3991 C   0  0  0  0  0  0  0  0  0  0  0  0
   15.0954  -10.0294   10.7139 O   0  0  0  0  0  0  0  0  0  0  0  0
   17.0394   -9.0496    9.3591 O   0  0  0  0  0  0  0  0  0  0  0  0
   13.2271   -8.2477    9.2171 C   0  0  0  0  0  0  0  0  0  0  0  0
   12.3435   -7.6339    8.3560 C   0  0  0  0  0  0  0  0  0  0  0  0
   11.0133   -7.7696    8.5361 F   0  0  0  0  0  0  0  0  0  0  0  0
   10.7854   -4.3830    3.3973 C   0  0  0  0  0  0  0  0  0  0  0  0
    9.6491   -4.0365    2.7878 N   0  0  0  0  0  0  0  0  0  0  0  0
    7.3316   -1.9039    1.8078 C   0  0  0  0  0  0  0  0  0  0  0  0
    6.0761   -1.4135    2.5362 C   0  0  0  0  0  0  0  0  0  0  0  0
    1.3410    0.8581   -1.1163 H   0  0  0  0  0  0  0  0  0  0  0  0
    2.7355   -0.1854   -1.4929 H   0  0  0  0  0  0  0  0  0  0  0  0
    2.8879    1.0926   -0.2513 H   0  0  0  0  0  0  0  0  0  0  0  0
    0.1470    0.5551    1.2201 H   0  0  0  0  0  0  0  0  0  0  0  0
    1.7275    0.7892    2.0232 H   0  0  0  0  0  0  0  0  0  0  0  0
    0.7714   -0.6901    2.3324 H   0  0  0  0  0  0  0  0  0  0  0  0
   -0.0904   -1.2239   -0.6296 H   0  0  0  0  0  0  0  0  0  0  0  0
    0.5105   -2.4419    0.5298 H   0  0  0  0  0  0  0  0  0  0  0  0
    1.3197   -2.2363   -1.0474 H   0  0  0  0  0  0  0  0  0  0  0  0
    3.8279   -3.4615    1.0368 H   0  0  0  0  0  0  0  0  0  0  0  0
    4.6600   -3.7873    2.5733 H   0  0  0  0  0  0  0  0  0  0  0  0
    5.9831   -3.3885   -0.1729 H   0  0  0  0  0  0  0  0  0  0  0  0
    5.9136   -4.8995    0.7628 H   0  0  0  0  0  0  0  0  0  0  0  0
    8.1481   -3.7105    0.9263 H   0  0  0  0  0  0  0  0  0  0  0  0
    7.5604   -5.5306    4.9710 H   0  0  0  0  0  0  0  0  0  0  0  0
   12.6818   -4.6278    5.4773 H   0  0  0  0  0  0  0  0  0  0  0  0
   12.7100   -6.1272    4.5403 H   0  0  0  0  0  0  0  0  0  0  0  0
   10.8330   -6.4636    6.6353 H   0  0  0  0  0  0  0  0  0  0  0  0
   14.5251   -6.1498    6.1942 H   0  0  0  0  0  0  0  0  0  0  0  0
   16.1380   -7.2560    7.7272 H   0  0  0  0  0  0  0  0  0  0  0  0
   15.1376   -7.4604   11.9208 H   0  0  0  0  0  0  0  0  0  0  0  0
   16.5182   -6.7710   10.9631 H   0  0  0  0  0  0  0  0  0  0  0  0
   16.7924   -8.1673   12.0764 H   0  0  0  0  0  0  0  0  0  0  0  0
   12.8571   -8.8628   10.0390 H   0  0  0  0  0  0  0  0  0  0  0  0
   11.7203   -4.0423    2.9364 H   0  0  0  0  0  0  0  0  0  0  0  0
    7.4191   -1.3852    0.8381 H   0  0  0  0  0  0  0  0  0  0  0  0
    8.2361   -1.6608    2.3861 H   0  0  0  0  0  0  0  0  0  0  0  0
    6.0606   -0.3198    2.6099 H   0  0  0  0  0  0  0  0  0  0  0  0
    6.0591   -1.8232    3.5637 H   0  0  0  0  0  0  0  0  0  0  0  0
  1  2  1  0
  1 34  1  0
  1 35  1  0
  1 36  1  0
  2  3  1  0
  2  4  1  0
  2  5  1  1
  3 37  1  0
  3 38  1  0
  3 39  1  0
  4 40  1  0
  4 41  1  0
  4 42  1  0
  5  6  1  0
  6  7  2  0
  6  8  1  0
  8  9  1  0
  8 33  1  0
  9 10  1  0
  9 43  1  0
  9 44  1  0
 10 11  1  0
 10 45  1  0
 10 46  1  0
 11 12  1  0
 11 32  1  0
 11 47  1  6
 12 13  1  0
 13 14  2  0
 13 31  1  0
 14 15  1  0
 14 48  1  0
 15 16  2  0
 16 17  1  0
 16 30  1  0
 17 18  1  0
 17 49  1  0
 17 50  1  0
 18 19  1  0
 18 51  1  0
 19 20  2  0
 19 28  1  0
 20 21  1  0
 20 52  1  0
 21 22  2  0
 21 53  1  0
 22 23  1  0
 22 27  1  0
 23 24  1  1
 23 25  2  0
 23 26  2  0
 24 54  1  0
 24 55  1  0
 24 56  1  0
 27 28  2  0
 27 57  1  0
 28 29  1  0
 30 31  2  0
 30 58  1  0
 32 33  1  0
 32 59  1  0
 32 60  1  0
 33 61  1  0
 33 62  1  0
M  END

