
     RDKit          3D

 32 34  0  0  0  0  0  0  0  0999 V2000
    2.0271   -1.4952    1.2859 O   0  0  0  0  0  0  0  0  0  0  0  0
    2.5329   -0.6757    0.5413 C   0  0  0  0  0  0  0  0  0  0  0  0
    2.6308    0.6711    0.7845 N   0  0  0  0  0  0  0  0  0  0  0  0
    2.2086    1.3996    1.9108 C   0  0  0  0  0  0  0  0  0  0  0  0
    1.5757    0.8054    3.0189 C   0  0  0  0  0  0  0  0  0  0  0  0
    1.1884    1.5988    4.0970 C   0  0  0  0  0  0  0  0  0  0  0  0
    1.4136    2.9792    4.1055 C   0  0  0  0  0  0  0  0  0  0  0  0
    1.0376    3.7990    5.1696 N   0  0  0  0  0  0  0  0  0  0  0  0
    0.5802    3.3790    5.9751 H   0  0  0  0  0  0  0  0  0  0  0  0
    1.2214    5.1630    5.2582 C   0  0  0  0  0  0  0  0  0  0  0  0
    0.8710    5.8140    6.2151 O   0  0  0  0  0  0  0  0  0  0  0  0
    1.9140    5.8137    4.0478 C   0  0  0  0  0  0  0  0  0  0  0  0
    2.1353    7.0009    4.0016 O   0  0  0  0  0  0  0  0  0  0  0  0
    2.2628    4.9504    3.0262 N   0  0  0  0  0  0  0  0  0  0  0  0
    2.7197    5.3974    2.2351 H   0  0  0  0  0  0  0  0  0  0  0  0
    2.0474    3.5744    2.9963 C   0  0  0  0  0  0  0  0  0  0  0  0
    2.4390    2.7850    1.9117 C   0  0  0  0  0  0  0  0  0  0  0  0
    3.1855   -1.0878   -0.7847 C   0  0  1  0  0  0  0  0  0  0  0  0
    2.6097   -2.3895   -1.3768 C   0  0  0  0  0  0  0  0  0  0  0  0
    3.1120   -2.3722   -3.1501 S   0  0  0  0  0  0  0  0  0  0  0  0
    3.6837   -0.5798   -3.0143 C   0  0  0  0  0  0  0  0  0  0  0  0
    3.1233   -0.0339   -1.8009 N   0  0  0  0  0  0  0  0  0  0  0  0
    3.0745    1.1946    0.0330 H   0  0  0  0  0  0  0  0  0  0  0  0
    1.3966   -0.2667    3.0213 H   0  0  0  0  0  0  0  0  0  0  0  0
    0.6975    1.1339    4.9561 H   0  0  0  0  0  0  0  0  0  0  0  0
    2.9313    3.2603    1.0587 H   0  0  0  0  0  0  0  0  0  0  0  0
    4.2563   -1.2589   -0.5638 H   0  0  0  0  0  0  0  0  0  0  0  0
    1.5133   -2.4142   -1.2867 H   0  0  0  0  0  0  0  0  0  0  0  0
    3.0136   -3.2780   -0.8738 H   0  0  0  0  0  0  0  0  0  0  0  0
    3.3553   -0.0180   -3.8991 H   0  0  0  0  0  0  0  0  0  0  0  0
    4.7830   -0.5694   -2.9693 H   0  0  0  0  0  0  0  0  0  0  0  0
    2.1397    0.1924   -1.9692 H   0  0  0  0  0  0  0  0  0  0  0  0
  1  2  2  0
  2  3  1  0
  2 18  1  0
  3  4  1  0
  3 23  1  0
  4  5  2  0
  4 17  1  0
  5  6  1  0
  5 24  1  0
  6  7  2  0
  6 25  1  0
  7  8  1  0
  7 16  1  0
  8  9  1  0
  8 10  1  0
 10 11  2  0
 10 12  1  0
 12 13  2  0
 12 14  1  0
 14 15  1  0
 14 16  1  0
 16 17  2  0
 17 26  1  0
 18 19  1  0
 18 22  1  0
 18 27  1  1
 19 20  1  0
 19 28  1  0
 19 29  1  0
 20 21  1  0
 21 22  1  0
 21 30  1  0
 21 31  1  0
 22 32  1  0
M  END

