
     RDKit          3D

 50 52  0  0  0  0  0  0  0  0999 V2000
    0.6112    5.4840   -0.5771 C   0  0  0  0  0  0  0  0  0  0  0  0
    1.1130    4.2211   -1.2083 C   0  0  0  0  0  0  0  0  0  0  0  0
    1.9353    3.2211   -0.6885 C   0  0  0  0  0  0  0  0  0  0  0  0
    2.5266    3.0935    0.6931 C   0  0  2  0  0  0  0  0  0  0  0  0
    3.0792    2.1388    0.7328 H   0  0  0  0  0  0  0  0  0  0  0  0
    1.4780    3.0460    1.8157 C   0  0  0  0  0  0  0  0  0  0  0  0
    3.5110    4.1675    0.9154 N   0  0  0  0  0  0  0  0  0  0  0  0
    4.4903    4.0462    1.8641 C   0  0  0  0  0  0  0  0  0  0  0  0
    4.5321    3.1054    2.6448 O   0  0  0  0  0  0  0  0  0  0  0  0
    5.5281    5.1425    1.8930 C   0  0  0  0  0  0  0  0  0  0  0  0
    5.3052    6.4299    1.3831 C   0  0  0  0  0  0  0  0  0  0  0  0
    6.3209    7.3855    1.4673 C   0  0  0  0  0  0  0  0  0  0  0  0
    7.5451    7.0705    2.0539 C   0  0  0  0  0  0  0  0  0  0  0  0
    7.7711    5.7849    2.5817 C   0  0  0  0  0  0  0  0  0  0  0  0
    9.0010    5.5320    3.2123 N   0  0  0  0  0  0  0  0  0  0  0  0
    9.7021    4.0368    3.5892 S   0  0  1  0  0  0  0  0  0  0  0  0
    9.0088    3.6425    5.1996 C   0  0  0  0  0  0  0  0  0  0  0  0
    9.2480    3.0171    2.6485 O   0  0  0  0  0  0  0  0  0  0  0  0
   11.1177    4.3538    3.7660 O   0  0  0  0  0  0  0  0  0  0  0  0
    6.7512    4.8264    2.4969 C   0  0  0  0  0  0  0  0  0  0  0  0
    2.1222    2.3212   -1.7692 C   0  0  0  0  0  0  0  0  0  0  0  0
    1.4807    2.7091   -2.8585 N   0  0  0  0  0  0  0  0  0  0  0  0
    0.8608    3.8599   -2.5141 N   0  0  0  0  0  0  0  0  0  0  0  0
    0.1109    4.5500   -3.5074 C   0  0  0  0  0  0  0  0  0  0  0  0
    0.6253    4.6299   -4.8106 C   0  0  0  0  0  0  0  0  0  0  0  0
   -0.0927    5.2853   -5.8090 C   0  0  0  0  0  0  0  0  0  0  0  0
   -1.3214    5.8649   -5.4941 C   0  0  0  0  0  0  0  0  0  0  0  0
   -2.0087    6.5034   -6.4504 F   0  0  0  0  0  0  0  0  0  0  0  0
   -1.8535    5.7878   -4.2098 C   0  0  0  0  0  0  0  0  0  0  0  0
   -1.1372    5.1166   -3.2160 C   0  0  0  0  0  0  0  0  0  0  0  0
    1.2689    5.7720    0.2544 H   0  0  0  0  0  0  0  0  0  0  0  0
   -0.4046    5.3728   -0.1615 H   0  0  0  0  0  0  0  0  0  0  0  0
    0.5832    6.3152   -1.2976 H   0  0  0  0  0  0  0  0  0  0  0  0
    1.9787    2.9038    2.7834 H   0  0  0  0  0  0  0  0  0  0  0  0
    0.7903    2.2025    1.6499 H   0  0  0  0  0  0  0  0  0  0  0  0
    0.8850    3.9722    1.8581 H   0  0  0  0  0  0  0  0  0  0  0  0
    3.6809    4.7955    0.1390 H   0  0  0  0  0  0  0  0  0  0  0  0
    4.3410    6.7022    0.9495 H   0  0  0  0  0  0  0  0  0  0  0  0
    6.1572    8.3933    1.0777 H   0  0  0  0  0  0  0  0  0  0  0  0
    8.3338    7.8257    2.1138 H   0  0  0  0  0  0  0  0  0  0  0  0
    9.7156    6.2535    3.1705 H   0  0  0  0  0  0  0  0  0  0  0  0
    7.9151    3.5851    5.1221 H   0  0  0  0  0  0  0  0  0  0  0  0
    9.3230    4.4160    5.9111 H   0  0  0  0  0  0  0  0  0  0  0  0
    9.4239    2.6635    5.4760 H   0  0  0  0  0  0  0  0  0  0  0  0
    6.8843    3.8126    2.8705 H   0  0  0  0  0  0  0  0  0  0  0  0
    2.7045    1.3988   -1.7764 H   0  0  0  0  0  0  0  0  0  0  0  0
    1.5852    4.1611   -5.0281 H   0  0  0  0  0  0  0  0  0  0  0  0
    0.2889    5.3583   -6.8292 H   0  0  0  0  0  0  0  0  0  0  0  0
   -2.8279    6.2345   -4.0040 H   0  0  0  0  0  0  0  0  0  0  0  0
   -1.5678    5.0156   -2.2198 H   0  0  0  0  0  0  0  0  0  0  0  0
  1  2  1  0
  1 31  1  0
  1 32  1  0
  1 33  1  0
  2  3  2  0
  2 23  1  0
  3  4  1  0
  3 21  1  0
  4  5  1  6
  4  6  1  0
  4  7  1  0
  6 34  1  0
  6 35  1  0
  6 36  1  0
  7  8  1  0
  7 37  1  0
  8  9  2  0
  8 10  1  0
 10 11  2  0
 10 20  1  0
 11 12  1  0
 11 38  1  0
 12 13  2  0
 12 39  1  0
 13 14  1  0
 13 40  1  0
 14 15  1  0
 14 20  2  0
 16 15  1  6
 15 41  1  0
 16 17  1  0
 16 18  2  0
 16 19  2  0
 17 42  1  0
 17 43  1  0
 17 44  1  0
 20 45  1  0
 21 22  2  0
 21 46  1  0
 22 23  1  0
 23 24  1  0
 24 25  2  0
 24 30  1  0
 25 26  1  0
 25 47  1  0
 26 27  2  0
 26 48  1  0
 27 28  1  0
 27 29  1  0
 29 30  2  0
 29 49  1  0
 30 50  1  0
M  END

