
     RDKit          3D

 48 52  0  0  0  0  0  0  0  0999 V2000
    0.5754    0.9239   -0.9408 C   0  0  0  0  0  0  0  0  0  0  0  0
    1.9976    1.2935   -1.2384 C   0  0  0  0  0  0  0  0  0  0  0  0
    2.4317    1.5483   -2.9276 S   0  0  0  0  0  0  0  0  0  0  0  0
    4.0784    1.9161   -2.4875 C   0  0  0  0  0  0  0  0  0  0  0  0
    5.0149    2.2318   -3.3785 N   0  0  0  0  0  0  0  0  0  0  0  0
    6.2088    2.4827   -2.8589 C   0  0  0  0  0  0  0  0  0  0  0  0
    6.5341    2.4408   -1.5594 N   0  0  0  0  0  0  0  0  0  0  0  0
    5.5936    2.1341   -0.6750 C   0  0  0  0  0  0  0  0  0  0  0  0
    6.0497    2.1030    1.0594 S   0  0  0  0  0  0  0  0  0  0  0  0
    7.6815    2.7621    1.0141 C   0  0  0  0  0  0  0  0  0  0  0  0
    7.9782    3.9551    1.4659 N   0  0  0  0  0  0  0  0  0  0  0  0
    9.3222    4.1204    1.3274 N   0  0  0  0  0  0  0  0  0  0  0  0
    9.8296    3.0240    0.7967 C   0  0  0  0  0  0  0  0  0  0  0  0
   11.2669    2.8461    0.3917 C   0  0  1  0  0  0  0  0  0  0  0  0
   11.4812    3.1515   -1.1158 C   0  0  0  0  0  0  0  0  0  0  0  0
   11.3876    4.6537   -1.4137 C   0  0  0  0  0  0  0  0  0  0  0  0
   12.3203    5.4523   -0.4856 C   0  0  0  0  0  0  0  0  0  0  0  0
   12.1305    5.1650    0.9308 N   0  0  0  0  0  0  0  0  0  0  0  0
   12.2125    3.7471    1.2315 C   0  0  0  0  0  0  0  0  0  0  0  0
    8.8259    2.1009    0.6023 N   0  0  0  0  0  0  0  0  0  0  0  0
    8.9198    0.8075   -0.0202 C   0  0  1  0  0  0  0  0  0  0  0  0
    9.8284   -0.2484    0.5613 C   0  0  0  0  0  0  0  0  0  0  0  0
    8.3373   -0.4011    0.6648 C   0  0  0  0  0  0  0  0  0  0  0  0
    4.2657    1.8384   -1.0814 C   0  0  0  0  0  0  0  0  0  0  0  0
    3.0494    1.4787   -0.3728 C   0  0  0  0  0  0  0  0  0  0  0  0
    2.9586    1.3337    1.1230 C   0  0  0  0  0  0  0  0  0  0  0  0
    0.2817    0.0009   -1.4682 H   0  0  0  0  0  0  0  0  0  0  0  0
   -0.1203    1.7169   -1.2631 H   0  0  0  0  0  0  0  0  0  0  0  0
    0.4197    0.7597    0.1334 H   0  0  0  0  0  0  0  0  0  0  0  0
    7.0123    2.7493   -3.5549 H   0  0  0  0  0  0  0  0  0  0  0  0
   11.5417    1.7941    0.5677 H   0  0  0  0  0  0  0  0  0  0  0  0
   10.7651    2.5831   -1.7327 H   0  0  0  0  0  0  0  0  0  0  0  0
   12.4874    2.7855   -1.3897 H   0  0  0  0  0  0  0  0  0  0  0  0
   10.3491    4.9985   -1.2696 H   0  0  0  0  0  0  0  0  0  0  0  0
   11.6426    4.8443   -2.4707 H   0  0  0  0  0  0  0  0  0  0  0  0
   12.1892    6.5346   -0.6485 H   0  0  0  0  0  0  0  0  0  0  0  0
   13.3716    5.2231   -0.7485 H   0  0  0  0  0  0  0  0  0  0  0  0
   11.2150    5.4991    1.2353 H   0  0  0  0  0  0  0  0  0  0  0  0
   12.0176    3.5973    2.3050 H   0  0  0  0  0  0  0  0  0  0  0  0
   13.2467    3.4045    1.0405 H   0  0  0  0  0  0  0  0  0  0  0  0
    8.8223    0.8524   -1.1090 H   0  0  0  0  0  0  0  0  0  0  0  0
   10.3667   -0.0057    1.4809 H   0  0  0  0  0  0  0  0  0  0  0  0
   10.3876   -0.8720   -0.1411 H   0  0  0  0  0  0  0  0  0  0  0  0
    7.8816   -0.2553    1.6463 H   0  0  0  0  0  0  0  0  0  0  0  0
    7.8262   -1.1328    0.0340 H   0  0  0  0  0  0  0  0  0  0  0  0
    3.2134    2.2756    1.6339 H   0  0  0  0  0  0  0  0  0  0  0  0
    3.6546    0.5658    1.4970 H   0  0  0  0  0  0  0  0  0  0  0  0
    1.9484    1.0458    1.4420 H   0  0  0  0  0  0  0  0  0  0  0  0
  1  2  1  0
  1 27  1  0
  1 28  1  0
  1 29  1  0
  2  3  1  0
  2 25  2  0
  3  4  1  0
  4  5  2  0
  4 24  1  0
  5  6  1  0
  6  7  2  0
  6 30  1  0
  7  8  1  0
  8  9  1  0
  8 24  2  0
  9 10  1  0
 10 11  2  0
 10 20  1  0
 11 12  1  0
 12 13  2  0
 13 14  1  0
 13 20  1  0
 14 15  1  0
 14 19  1  0
 14 31  1  6
 15 16  1  0
 15 32  1  0
 15 33  1  0
 16 17  1  0
 16 34  1  0
 16 35  1  0
 17 18  1  0
 17 36  1  0
 17 37  1  0
 18 19  1  0
 18 38  1  0
 19 39  1  0
 19 40  1  0
 20 21  1  0
 21 22  1  0
 21 23  1  0
 21 41  1  6
 22 23  1  0
 22 42  1  0
 22 43  1  0
 23 44  1  0
 23 45  1  0
 24 25  1  0
 25 26  1  0
 26 46  1  0
 26 47  1  0
 26 48  1  0
M  END

