
     RDKit          3D

 32 33  0  0  0  0  0  0  0  0999 V2000
    0.8671    0.1770    0.4325 C   0  0  0  0  0  0  0  0  0  0  0  0
    2.2879    0.0573    0.1671 N   0  0  0  0  0  0  0  0  0  0  0  0
    2.7427   -1.2886   -0.1644 C   0  0  0  0  0  0  0  0  0  0  0  0
    2.4622   -1.7033   -1.6214 C   0  0  0  0  0  0  0  0  0  0  0  0
    3.0289   -0.6853   -2.6352 C   0  0  2  0  0  0  0  0  0  0  0  0
    4.5932   -0.7819   -2.7602 C   0  0  1  0  0  0  0  0  0  0  0  0
    5.0042   -2.1542   -3.0912 C   0  0  0  0  0  0  0  0  0  0  0  0
    5.3144   -3.2376   -3.3620 N   0  0  0  0  0  0  0  0  0  0  0  0
    5.1767    0.2109   -3.7583 C   0  0  0  0  0  0  0  0  0  0  0  0
    5.1857   -0.0285   -5.1442 C   0  0  0  0  0  0  0  0  0  0  0  0
    5.6672    0.8612   -6.0106 N   0  0  0  0  0  0  0  0  0  0  0  0
    6.1517    1.9964   -5.5039 C   0  0  0  0  0  0  0  0  0  0  0  0
    6.1535    2.2391   -4.1264 C   0  0  0  0  0  0  0  0  0  0  0  0
    5.6656    1.3501   -3.2594 N   0  0  0  0  0  0  0  0  0  0  0  0
    2.5548    0.7304   -2.2428 C   0  0  0  0  0  0  0  0  0  0  0  0
    2.8283    1.0466   -0.7595 C   0  0  0  0  0  0  0  0  0  0  0  0
    0.5784   -0.5268    1.2300 H   0  0  0  0  0  0  0  0  0  0  0  0
    0.1965   -0.0175   -0.4351 H   0  0  0  0  0  0  0  0  0  0  0  0
    0.6428    1.1939    0.7940 H   0  0  0  0  0  0  0  0  0  0  0  0
    2.2726   -2.0060    0.5273 H   0  0  0  0  0  0  0  0  0  0  0  0
    3.8295   -1.3443    0.0337 H   0  0  0  0  0  0  0  0  0  0  0  0
    1.3722   -1.7663   -1.7792 H   0  0  0  0  0  0  0  0  0  0  0  0
    2.8598   -2.7130   -1.8132 H   0  0  0  0  0  0  0  0  0  0  0  0
    2.6303   -0.9268   -3.6355 H   0  0  0  0  0  0  0  0  0  0  0  0
    5.0513   -0.5335   -1.7902 H   0  0  0  0  0  0  0  0  0  0  0  0
    4.8032   -0.9712   -5.5516 H   0  0  0  0  0  0  0  0  0  0  0  0
    6.5525    2.7359   -6.2062 H   0  0  0  0  0  0  0  0  0  0  0  0
    6.5585    3.1719   -3.7183 H   0  0  0  0  0  0  0  0  0  0  0  0
    1.4695    0.7818   -2.4340 H   0  0  0  0  0  0  0  0  0  0  0  0
    3.0158    1.5006   -2.8796 H   0  0  0  0  0  0  0  0  0  0  0  0
    2.4147    2.0359   -0.5056 H   0  0  0  0  0  0  0  0  0  0  0  0
    3.9190    1.1216   -0.5990 H   0  0  0  0  0  0  0  0  0  0  0  0
  1  2  1  0
  1 17  1  0
  1 18  1  0
  1 19  1  0
  2  3  1  0
  2 16  1  0
  3  4  1  0
  3 20  1  0
  3 21  1  0
  4  5  1  0
  4 22  1  0
  4 23  1  0
  5  6  1  0
  5 15  1  0
  5 24  1  6
  6  7  1  0
  6  9  1  0
  6 25  1  1
  7  8  3  0
  9 10  2  0
  9 14  1  0
 10 11  1  0
 10 26  1  0
 11 12  2  0
 12 13  1  0
 12 27  1  0
 13 14  2  0
 13 28  1  0
 15 16  1  0
 15 29  1  0
 15 30  1  0
 16 31  1  0
 16 32  1  0
M  END

