
     RDKit          3D

 43 45  0  0  0  0  0  0  0  0999 V2000
    5.9934   -2.0390    2.0424 C   0  0  0  0  0  0  0  0  0  0  0  0
    4.7235   -1.8029    2.7952 C   0  0  0  0  0  0  0  0  0  0  0  0
    4.6084   -0.9220    3.8199 N   0  0  0  0  0  0  0  0  0  0  0  0
    3.3689   -0.9879    4.2386 C   0  0  0  0  0  0  0  0  0  0  0  0
    2.5893   -1.8952    3.5478 O   0  0  0  0  0  0  0  0  0  0  0  0
    3.4678   -2.4401    2.5888 C   0  0  0  0  0  0  0  0  0  0  0  0
    2.9815   -3.3927    1.6786 C   0  0  0  0  0  0  0  0  0  0  0  0
    3.6135   -3.9373    0.7368 O   0  0  0  0  0  0  0  0  0  0  0  0
    1.5872   -3.7683    1.8650 N   0  0  0  0  0  0  0  0  0  0  0  0
    0.9804   -4.4033    0.7337 C   0  0  2  0  0  0  0  0  0  0  0  0
    0.7639   -3.4965   -0.4930 C   0  0  0  0  0  0  0  0  0  0  0  0
    0.1694   -4.2375   -1.6862 C   0  0  0  0  0  0  0  0  0  0  0  0
   -0.9474   -5.1209   -1.3504 N   0  0  0  0  0  0  0  0  0  0  0  0
   -1.9104   -5.5612   -2.3439 C   0  0  1  0  0  0  0  0  0  0  0  0
   -1.9952   -4.7884   -3.6632 C   0  0  0  0  0  0  0  0  0  0  0  0
   -2.8985   -5.7072   -4.4966 C   0  0  0  0  0  0  0  0  0  0  0  0
   -2.4045   -7.1366   -4.1681 C   0  0  0  0  0  0  0  0  0  0  0  0
   -1.6984   -7.0462   -2.7887 C   0  0  0  0  0  0  0  0  0  0  0  0
   -0.9437   -5.8355   -0.0706 C   0  0  0  0  0  0  0  0  0  0  0  0
   -0.3600   -5.0445    1.0959 C   0  0  0  0  0  0  0  0  0  0  0  0
    6.3865   -1.1053    1.6015 H   0  0  0  0  0  0  0  0  0  0  0  0
    5.8121   -2.7622    1.2355 H   0  0  0  0  0  0  0  0  0  0  0  0
    6.7904   -2.4389    2.6961 H   0  0  0  0  0  0  0  0  0  0  0  0
    2.8951   -0.4475    5.0526 H   0  0  0  0  0  0  0  0  0  0  0  0
    1.0403   -3.0315    2.3037 H   0  0  0  0  0  0  0  0  0  0  0  0
    1.6879   -5.1895    0.4191 H   0  0  0  0  0  0  0  0  0  0  0  0
    1.7342   -3.0866   -0.7994 H   0  0  0  0  0  0  0  0  0  0  0  0
    0.1087   -2.6498   -0.2234 H   0  0  0  0  0  0  0  0  0  0  0  0
    0.9249   -4.9018   -2.1534 H   0  0  0  0  0  0  0  0  0  0  0  0
   -0.1663   -3.5539   -2.4752 H   0  0  0  0  0  0  0  0  0  0  0  0
   -2.8899   -5.5020   -1.8361 H   0  0  0  0  0  0  0  0  0  0  0  0
   -1.0017   -4.7182   -4.1342 H   0  0  0  0  0  0  0  0  0  0  0  0
   -2.3899   -3.7685   -3.5437 H   0  0  0  0  0  0  0  0  0  0  0  0
   -2.8584   -5.4733   -5.5693 H   0  0  0  0  0  0  0  0  0  0  0  0
   -3.9466   -5.5815   -4.1793 H   0  0  0  0  0  0  0  0  0  0  0  0
   -1.6904   -7.4864   -4.9278 H   0  0  0  0  0  0  0  0  0  0  0  0
   -3.2315   -7.8603   -4.1535 H   0  0  0  0  0  0  0  0  0  0  0  0
   -0.6186   -7.2410   -2.8803 H   0  0  0  0  0  0  0  0  0  0  0  0
   -2.0967   -7.7525   -2.0481 H   0  0  0  0  0  0  0  0  0  0  0  0
   -0.3368   -6.7429   -0.2551 H   0  0  0  0  0  0  0  0  0  0  0  0
   -1.9710   -6.1789    0.1193 H   0  0  0  0  0  0  0  0  0  0  0  0
   -0.2392   -5.7285    1.9479 H   0  0  0  0  0  0  0  0  0  0  0  0
   -1.0821   -4.2713    1.4125 H   0  0  0  0  0  0  0  0  0  0  0  0
  1  2  1  0
  1 21  1  0
  1 22  1  0
  1 23  1  0
  2  3  1  0
  2  6  2  0
  3  4  2  0
  4  5  1  0
  4 24  1  0
  5  6  1  0
  6  7  1  0
  7  8  2  0
  7  9  1  0
  9 10  1  0
  9 25  1  0
 10 11  1  0
 10 20  1  0
 10 26  1  6
 11 12  1  0
 11 27  1  0
 11 28  1  0
 12 13  1  0
 12 29  1  0
 12 30  1  0
 13 14  1  0
 13 19  1  0
 14 15  1  0
 14 18  1  0
 14 31  1  1
 15 16  1  0
 15 32  1  0
 15 33  1  0
 16 17  1  0
 16 34  1  0
 16 35  1  0
 17 18  1  0
 17 36  1  0
 17 37  1  0
 18 38  1  0
 18 39  1  0
 19 20  1  0
 19 40  1  0
 19 41  1  0
 20 42  1  0
 20 43  1  0
M  END

