
     RDKit          3D

 55 59  0  0  0  0  0  0  0  0999 V2000
    2.1231   -1.1174   -1.1433 O   0  0  0  0  0  0  0  0  0  0  0  0
    2.0652   -0.1444   -0.4036 C   0  0  0  0  0  0  0  0  0  0  0  0
    2.9418    0.9060   -0.5124 N   0  0  0  0  0  0  0  0  0  0  0  0
    3.9604    0.8771   -1.5614 C   0  0  0  0  0  0  0  0  0  0  0  0
    3.9255    2.1614   -2.3979 C   0  0  0  0  0  0  0  0  0  0  0  0
    4.0195    3.4407   -1.5418 C   0  0  2  0  0  0  0  0  0  0  0  0
    5.4651    3.6585   -1.0484 C   0  0  0  0  0  0  0  0  0  0  0  0
    5.6534    4.8968   -0.2853 N   0  0  0  0  0  0  0  0  0  0  0  0
    5.6897    4.7687    1.0403 N   0  0  0  0  0  0  0  0  0  0  0  0
    5.8662    5.8309    1.7945 C   0  0  0  0  0  0  0  0  0  0  0  0
    5.9172    5.6163    3.2467 C   0  0  0  0  0  0  0  0  0  0  0  0
    5.8919    4.4144    3.9264 C   0  0  0  0  0  0  0  0  0  0  0  0
    5.9572    4.5676    5.3393 C   0  0  0  0  0  0  0  0  0  0  0  0
    6.0321    5.8828    5.7289 C   0  0  0  0  0  0  0  0  0  0  0  0
    6.0218    6.9502    4.3712 S   0  0  0  0  0  0  0  0  0  0  0  0
    6.0153    7.1349    1.2020 C   0  0  0  0  0  0  0  0  0  0  0  0
    5.9775    7.2646   -0.1495 C   0  0  0  0  0  0  0  0  0  0  0  0
    5.7825    6.1050   -1.0081 C   0  0  0  0  0  0  0  0  0  0  0  0
    5.7292    6.1144   -2.2291 O   0  0  0  0  0  0  0  0  0  0  0  0
    2.9729    3.3772   -0.4127 C   0  0  0  0  0  0  0  0  0  0  0  0
    3.0198    2.0619    0.3759 C   0  0  0  0  0  0  0  0  0  0  0  0
    0.9770   -0.0450    0.6719 C   0  0  1  0  0  0  0  0  0  0  0  0
   -0.1072    0.9583    0.3684 C   0  0  0  0  0  0  0  0  0  0  0  0
   -0.6796    0.9665   -0.9177 C   0  0  0  0  0  0  0  0  0  0  0  0
   -1.7007    1.8550   -1.2522 C   0  0  0  0  0  0  0  0  0  0  0  0
   -2.1712    2.7550   -0.2901 C   0  0  0  0  0  0  0  0  0  0  0  0
   -3.4550    3.8710   -0.6997 Cl  0  0  0  0  0  0  0  0  0  0  0  0
   -1.6232    2.7681    0.9936 C   0  0  0  0  0  0  0  0  0  0  0  0
   -0.5959    1.8742    1.3116 C   0  0  0  0  0  0  0  0  0  0  0  0
    0.5738   -1.3726    1.2757 C   0  0  0  0  0  0  0  0  0  0  0  0
    1.3748   -0.3983    2.0914 C   0  0  0  0  0  0  0  0  0  0  0  0
    3.7705   -0.0084   -2.1794 H   0  0  0  0  0  0  0  0  0  0  0  0
    4.9554    0.7421   -1.0947 H   0  0  0  0  0  0  0  0  0  0  0  0
    2.9781    2.1842   -2.9616 H   0  0  0  0  0  0  0  0  0  0  0  0
    4.7370    2.1349   -3.1446 H   0  0  0  0  0  0  0  0  0  0  0  0
    3.7875    4.3021   -2.1873 H   0  0  0  0  0  0  0  0  0  0  0  0
    6.1260    3.7194   -1.9245 H   0  0  0  0  0  0  0  0  0  0  0  0
    5.8110    2.8483   -0.3945 H   0  0  0  0  0  0  0  0  0  0  0  0
    5.8336    3.4579    3.4077 H   0  0  0  0  0  0  0  0  0  0  0  0
    5.9525    3.7342    6.0436 H   0  0  0  0  0  0  0  0  0  0  0  0
    6.0937    6.2883    6.7377 H   0  0  0  0  0  0  0  0  0  0  0  0
    6.1646    8.0086    1.8413 H   0  0  0  0  0  0  0  0  0  0  0  0
    6.0903    8.2265   -0.6525 H   0  0  0  0  0  0  0  0  0  0  0  0
    1.9700    3.4811   -0.8593 H   0  0  0  0  0  0  0  0  0  0  0  0
    3.0959    4.2188    0.2871 H   0  0  0  0  0  0  0  0  0  0  0  0
    2.1988    2.0308    1.0985 H   0  0  0  0  0  0  0  0  0  0  0  0
    3.9594    2.0062    0.9591 H   0  0  0  0  0  0  0  0  0  0  0  0
   -0.3214    0.2536   -1.6650 H   0  0  0  0  0  0  0  0  0  0  0  0
   -2.1389    1.8509   -2.2517 H   0  0  0  0  0  0  0  0  0  0  0  0
   -1.9955    3.4756    1.7366 H   0  0  0  0  0  0  0  0  0  0  0  0
   -0.1710    1.9037    2.3174 H   0  0  0  0  0  0  0  0  0  0  0  0
    1.0660   -2.2596    0.8704 H   0  0  0  0  0  0  0  0  0  0  0  0
   -0.4824   -1.5004    1.5254 H   0  0  0  0  0  0  0  0  0  0  0  0
    2.4305   -0.6222    2.2719 H   0  0  0  0  0  0  0  0  0  0  0  0
    0.8857    0.1171    2.9224 H   0  0  0  0  0  0  0  0  0  0  0  0
  1  2  2  0
  2  3  1  0
 22  2  1  6
  3  4  1  0
  3 21  1  0
  4  5  1  0
  4 32  1  0
  4 33  1  0
  5  6  1  0
  5 34  1  0
  5 35  1  0
  6  7  1  0
  6 20  1  0
  6 36  1  6
  7  8  1  0
  7 37  1  0
  7 38  1  0
  8  9  1  0
  8 18  1  0
  9 10  2  0
 10 11  1  0
 10 16  1  0
 11 12  2  0
 11 15  1  0
 12 13  1  0
 12 39  1  0
 13 14  2  0
 13 40  1  0
 14 15  1  0
 14 41  1  0
 16 17  2  0
 16 42  1  0
 17 18  1  0
 17 43  1  0
 18 19  2  0
 20 21  1  0
 20 44  1  0
 20 45  1  0
 21 46  1  0
 21 47  1  0
 22 23  1  0
 22 30  1  0
 22 31  1  0
 23 24  2  0
 23 29  1  0
 24 25  1  0
 24 48  1  0
 25 26  2  0
 25 49  1  0
 26 27  1  0
 26 28  1  0
 28 29  2  0
 28 50  1  0
 29 51  1  0
 30 31  1  0
 30 52  1  0
 30 53  1  0
 31 54  1  0
 31 55  1  0
M  END

