
     RDKit          3D

 54 57  0  0  0  0  0  0  0  0999 V2000
    3.5668    1.4771    0.9353 C   0  0  0  0  0  0  0  0  0  0  0  0
    3.6305    0.1433    1.3924 O   0  0  0  0  0  0  0  0  0  0  0  0
    2.6509   -0.7391    0.8736 C   0  0  1  0  0  0  0  0  0  0  0  0
    3.0402   -1.2607   -0.5155 C   0  0  0  0  0  0  0  0  0  0  0  0
    4.3612   -2.0397   -0.4571 C   0  0  0  0  0  0  0  0  0  0  0  0
    4.3976   -3.0328    0.5980 N   0  0  0  0  0  0  0  0  0  0  0  0
    5.1524   -4.2529    0.4171 C   0  0  0  0  0  0  0  0  0  0  0  0
    6.5233   -4.2646    0.6932 C   0  0  0  0  0  0  0  0  0  0  0  0
    7.2761   -5.4195    0.5315 C   0  0  0  0  0  0  0  0  0  0  0  0
    6.6716   -6.6262    0.0800 C   0  0  0  0  0  0  0  0  0  0  0  0
    7.3536   -7.7830   -0.0956 N   0  0  0  0  0  0  0  0  0  0  0  0
    8.7562   -8.0545    0.1202 C   0  0  0  0  0  0  0  0  0  0  0  0
    9.5408   -7.1705    0.5127 O   0  0  0  0  0  0  0  0  0  0  0  0
    9.0724   -9.4162   -0.1779 C   0  0  0  0  0  0  0  0  0  0  0  0
    8.1181  -10.2896   -0.6057 N   0  0  0  0  0  0  0  0  0  0  0  0
    8.7885  -11.5153   -0.8080 O   0  0  0  0  0  0  0  0  0  0  0  0
   10.0983  -11.3431   -0.4997 C   0  0  0  0  0  0  0  0  0  0  0  0
   10.3536  -10.0706   -0.1038 C   0  0  0  0  0  0  0  0  0  0  0  0
   11.7183   -9.5903    0.2911 C   0  0  0  0  0  0  0  0  0  0  0  0
   12.7818  -10.6015   -0.1777 C   0  0  0  0  0  0  0  0  0  0  0  0
   12.3759  -12.0576    0.1102 C   0  0  0  0  0  0  0  0  0  0  0  0
   11.0794  -12.4603   -0.6219 C   0  0  0  0  0  0  0  0  0  0  0  0
    5.2748   -6.5885   -0.1938 C   0  0  0  0  0  0  0  0  0  0  0  0
    4.5248   -5.4311   -0.0312 C   0  0  0  0  0  0  0  0  0  0  0  0
    3.0504   -5.4353   -0.3258 C   0  0  1  0  0  0  0  0  0  0  0  0
    2.7284   -4.5056   -1.2689 F   0  0  0  0  0  0  0  0  0  0  0  0
    2.5910   -6.6057   -0.7518 F   0  0  0  0  0  0  0  0  0  0  0  0
    2.3227   -5.0884    0.7722 F   0  0  0  0  0  0  0  0  0  0  0  0
    3.8786   -2.6859    1.9042 C   0  0  0  0  0  0  0  0  0  0  0  0
    2.5536   -1.9154    1.8414 C   0  0  0  0  0  0  0  0  0  0  0  0
    4.3581    2.0378    1.4514 H   0  0  0  0  0  0  0  0  0  0  0  0
    2.5908    1.9398    1.1742 H   0  0  0  0  0  0  0  0  0  0  0  0
    3.7344    1.5629   -0.1549 H   0  0  0  0  0  0  0  0  0  0  0  0
    1.6699   -0.2299    0.8151 H   0  0  0  0  0  0  0  0  0  0  0  0
    3.1599   -0.4385   -1.2360 H   0  0  0  0  0  0  0  0  0  0  0  0
    2.2476   -1.9176   -0.9043 H   0  0  0  0  0  0  0  0  0  0  0  0
    5.1853   -1.3334   -0.2255 H   0  0  0  0  0  0  0  0  0  0  0  0
    4.6035   -2.5399   -1.4006 H   0  0  0  0  0  0  0  0  0  0  0  0
    7.0154   -3.3532    1.0430 H   0  0  0  0  0  0  0  0  0  0  0  0
    8.3437   -5.4402    0.7432 H   0  0  0  0  0  0  0  0  0  0  0  0
    6.8457   -8.6052   -0.4175 H   0  0  0  0  0  0  0  0  0  0  0  0
   11.7704   -9.4611    1.3884 H   0  0  0  0  0  0  0  0  0  0  0  0
   11.9092   -8.5889   -0.1250 H   0  0  0  0  0  0  0  0  0  0  0  0
   13.7507  -10.3823    0.3014 H   0  0  0  0  0  0  0  0  0  0  0  0
   12.9376  -10.4848   -1.2659 H   0  0  0  0  0  0  0  0  0  0  0  0
   12.2250  -12.1777    1.1982 H   0  0  0  0  0  0  0  0  0  0  0  0
   13.1919  -12.7441   -0.1704 H   0  0  0  0  0  0  0  0  0  0  0  0
   10.6634  -13.3922   -0.2013 H   0  0  0  0  0  0  0  0  0  0  0  0
   11.2875  -12.6736   -1.6880 H   0  0  0  0  0  0  0  0  0  0  0  0
    4.7759   -7.4941   -0.5404 H   0  0  0  0  0  0  0  0  0  0  0  0
    4.6458   -2.0316    2.3688 H   0  0  0  0  0  0  0  0  0  0  0  0
    3.8121   -3.6035    2.4981 H   0  0  0  0  0  0  0  0  0  0  0  0
    2.3164   -1.5563    2.8526 H   0  0  0  0  0  0  0  0  0  0  0  0
    1.7525   -2.5992    1.5245 H   0  0  0  0  0  0  0  0  0  0  0  0
  1  2  1  0
  1 31  1  0
  1 32  1  0
  1 33  1  0
  2  3  1  0
  3  4  1  0
  3 30  1  0
  3 34  1  6
  4  5  1  0
  4 35  1  0
  4 36  1  0
  5  6  1  0
  5 37  1  0
  5 38  1  0
  6  7  1  0
  6 29  1  0
  7  8  2  0
  7 24  1  0
  8  9  1  0
  8 39  1  0
  9 10  2  0
  9 40  1  0
 10 11  1  0
 10 23  1  0
 11 12  1  0
 11 41  1  0
 12 13  2  0
 12 14  1  0
 14 15  2  0
 14 18  1  0
 15 16  1  0
 16 17  1  0
 17 18  2  0
 17 22  1  0
 18 19  1  0
 19 20  1  0
 19 42  1  0
 19 43  1  0
 20 21  1  0
 20 44  1  0
 20 45  1  0
 21 22  1  0
 21 46  1  0
 21 47  1  0
 22 48  1  0
 22 49  1  0
 23 24  2  0
 23 50  1  0
 24 25  1  0
 25 26  1  6
 25 27  1  0
 25 28  1  0
 29 30  1  0
 29 51  1  0
 29 52  1  0
 30 53  1  0
 30 54  1  0
M  END

