
     RDKit          3D

 38 40  0  0  0  0  0  0  0  0999 V2000
    0.8406    0.3500    0.7077 C   0  0  0  0  0  0  0  0  0  0  0  0
    2.2888    0.2604    0.3182 C   0  0  0  0  0  0  0  0  0  0  0  0
    2.9554    1.3366   -0.3094 C   0  0  0  0  0  0  0  0  0  0  0  0
    4.2863    1.2519   -0.6810 C   0  0  0  0  0  0  0  0  0  0  0  0
    5.0467    0.0632   -0.4431 C   0  0  0  0  0  0  0  0  0  0  0  0
    6.4170   -0.0352   -0.8236 C   0  0  0  0  0  0  0  0  0  0  0  0
    7.2380    0.9346   -1.4595 C   0  0  0  0  0  0  0  0  0  0  0  0
    8.5380    0.5190   -1.6940 C   0  0  0  0  0  0  0  0  0  0  0  0
    8.8070   -0.8099   -1.2487 C   0  0  0  0  0  0  0  0  0  0  0  0
   10.0294   -1.5462   -1.3292 C   0  0  0  0  0  0  0  0  0  0  0  0
   10.1373   -2.8811   -0.8197 C   0  0  0  0  0  0  0  0  0  0  0  0
   11.3217   -3.5906   -0.9059 C   0  0  0  0  0  0  0  0  0  0  0  0
   12.4466   -2.9974   -1.5133 C   0  0  0  0  0  0  0  0  0  0  0  0
   13.9741   -3.9122   -1.6296 S   0  0  1  0  0  0  0  0  0  0  0  0
   13.8875   -4.7769   -3.2194 C   0  0  0  0  0  0  0  0  0  0  0  0
   15.0802   -2.9470   -1.7393 O   0  0  0  0  0  0  0  0  0  0  0  0
   13.9672   -4.9526   -0.5883 O   0  0  0  0  0  0  0  0  0  0  0  0
   12.3849   -1.6766   -2.0039 C   0  0  0  0  0  0  0  0  0  0  0  0
   11.2012   -0.9666   -1.9171 C   0  0  0  0  0  0  0  0  0  0  0  0
    7.3553   -1.5141   -0.5261 S   0  0  0  0  0  0  0  0  0  0  0  0
    4.3634   -1.0209    0.1957 C   0  0  0  0  0  0  0  0  0  0  0  0
    3.0326   -0.9166    0.5598 C   0  0  0  0  0  0  0  0  0  0  0  0
    0.4386    1.3622    0.5552 H   0  0  0  0  0  0  0  0  0  0  0  0
    0.6901    0.0769    1.7666 H   0  0  0  0  0  0  0  0  0  0  0  0
    0.2230   -0.3491    0.1147 H   0  0  0  0  0  0  0  0  0  0  0  0
    2.4051    2.2610   -0.5064 H   0  0  0  0  0  0  0  0  0  0  0  0
    4.7595    2.1092   -1.1625 H   0  0  0  0  0  0  0  0  0  0  0  0
    6.8678    1.9217   -1.7367 H   0  0  0  0  0  0  0  0  0  0  0  0
    9.2929    1.1416   -2.1720 H   0  0  0  0  0  0  0  0  0  0  0  0
    9.2712   -3.3470   -0.3426 H   0  0  0  0  0  0  0  0  0  0  0  0
   11.4047   -4.5983   -0.4938 H   0  0  0  0  0  0  0  0  0  0  0  0
   13.8149   -4.0403   -4.0300 H   0  0  0  0  0  0  0  0  0  0  0  0
   13.0285   -5.4602   -3.2146 H   0  0  0  0  0  0  0  0  0  0  0  0
   14.8293   -5.3404   -3.2924 H   0  0  0  0  0  0  0  0  0  0  0  0
   13.2815   -1.2230   -2.4311 H   0  0  0  0  0  0  0  0  0  0  0  0
   11.1688    0.0560   -2.2965 H   0  0  0  0  0  0  0  0  0  0  0  0
    4.9043   -1.9481    0.4010 H   0  0  0  0  0  0  0  0  0  0  0  0
    2.5448   -1.7661    1.0470 H   0  0  0  0  0  0  0  0  0  0  0  0
  1  2  1  0
  1 23  1  0
  1 24  1  0
  1 25  1  0
  2  3  2  0
  2 22  1  0
  3  4  1  0
  3 26  1  0
  4  5  2  0
  4 27  1  0
  5  6  1  0
  5 21  1  0
  6  7  2  0
  6 20  1  0
  7  8  1  0
  7 28  1  0
  8  9  2  0
  8 29  1  0
  9 10  1  0
  9 20  1  0
 10 11  2  0
 10 19  1  0
 11 12  1  0
 11 30  1  0
 12 13  2  0
 12 31  1  0
 13 14  1  0
 13 18  1  0
 14 15  1  6
 14 16  2  0
 14 17  2  0
 15 32  1  0
 15 33  1  0
 15 34  1  0
 18 19  2  0
 18 35  1  0
 19 36  1  0
 21 22  2  0
 21 37  1  0
 22 38  1  0
M  END

