
     RDKit          3D

 74 78  0  0  0  0  0  0  0  0999 V2000
    4.8468   -1.6211    0.5702 C   0  0  0  0  0  0  0  0  0  0  0  0
    5.0995   -0.2728    1.2530 C   0  0  1  0  0  0  0  0  0  0  0  0
    3.9648    0.1153    2.2069 C   0  0  0  0  0  0  0  0  0  0  0  0
    6.4450   -0.2784    1.9813 C   0  0  0  0  0  0  0  0  0  0  0  0
    5.2835    0.7723    0.2436 O   0  0  0  0  0  0  0  0  0  0  0  0
    4.3382    1.0572   -0.6643 C   0  0  0  0  0  0  0  0  0  0  0  0
    3.2138    0.6113   -0.6908 O   0  0  0  0  0  0  0  0  0  0  0  0
    4.8120    1.9993   -1.5768 N   0  0  0  0  0  0  0  0  0  0  0  0
    3.9144    2.5670   -2.5415 C   0  0  0  0  0  0  0  0  0  0  0  0
    2.8057    3.3191   -2.1490 C   0  0  0  0  0  0  0  0  0  0  0  0
    1.9440    3.8636   -3.0986 C   0  0  0  0  0  0  0  0  0  0  0  0
    2.1638    3.6799   -4.4826 C   0  0  0  0  0  0  0  0  0  0  0  0
    1.2822    4.1907   -5.4498 N   0  0  0  0  0  0  0  0  0  0  0  0
    1.8278    4.7877   -6.6673 C   0  0  0  0  0  0  0  0  0  0  0  0
    0.7615    4.8569   -7.7561 C   0  0  0  0  0  0  0  0  0  0  0  0
   -0.3897    5.5415   -7.3107 O   0  0  0  0  0  0  0  0  0  0  0  0
   -0.9433    4.9106   -6.1765 C   0  0  0  0  0  0  0  0  0  0  0  0
    0.0517    4.8382   -5.0190 C   0  0  0  0  0  0  0  0  0  0  0  0
    3.2982    2.9282   -4.8619 C   0  0  0  0  0  0  0  0  0  0  0  0
    4.1502    2.3774   -3.9084 C   0  0  0  0  0  0  0  0  0  0  0  0
    6.1821    2.3478   -1.6590 C   0  0  0  0  0  0  0  0  0  0  0  0
    7.0707    1.4288   -1.9607 N   0  0  0  0  0  0  0  0  0  0  0  0
    8.3733    1.7944   -2.0535 C   0  0  0  0  0  0  0  0  0  0  0  0
    8.8591    3.0764   -1.8789 C   0  0  0  0  0  0  0  0  0  0  0  0
   10.3712    3.4089   -2.0292 B   0  0  0  0  0  0  0  0  0  0  0  0
   11.2931    2.4675   -2.3901 O   0  0  0  0  0  0  0  0  0  0  0  0
   12.6139    3.0467   -2.2192 C   0  0  2  0  0  0  0  0  0  0  0  0
   13.5138    2.5419   -3.3433 C   0  0  0  0  0  0  0  0  0  0  0  0
   13.1405    2.5606   -0.8639 C   0  0  0  0  0  0  0  0  0  0  0  0
   12.3054    4.6022   -2.2528 C   0  0  2  0  0  0  0  0  0  0  0  0
   12.3464    5.2014   -3.6627 C   0  0  0  0  0  0  0  0  0  0  0  0
   13.1398    5.4486   -1.2962 C   0  0  0  0  0  0  0  0  0  0  0  0
   10.9167    4.6468   -1.8187 O   0  0  0  0  0  0  0  0  0  0  0  0
    7.9069    4.0407   -1.5629 N   0  0  0  0  0  0  0  0  0  0  0  0
    8.0009    5.3797   -1.2874 C   0  0  0  0  0  0  0  0  0  0  0  0
    6.7023    5.7886   -1.0037 C   0  0  0  0  0  0  0  0  0  0  0  0
    5.8201    4.7652   -1.0903 N   0  0  0  0  0  0  0  0  0  0  0  0
    6.5477    3.7083   -1.4302 C   0  0  0  0  0  0  0  0  0  0  0  0
    4.8366   -2.4227    1.3252 H   0  0  0  0  0  0  0  0  0  0  0  0
    5.6495   -1.8373   -0.1519 H   0  0  0  0  0  0  0  0  0  0  0  0
    3.8854   -1.6236    0.0408 H   0  0  0  0  0  0  0  0  0  0  0  0
    3.9025   -0.6161    3.0282 H   0  0  0  0  0  0  0  0  0  0  0  0
    3.0019    0.1418    1.6816 H   0  0  0  0  0  0  0  0  0  0  0  0
    4.1569    1.1069    2.6459 H   0  0  0  0  0  0  0  0  0  0  0  0
    6.4424   -1.0344    2.7814 H   0  0  0  0  0  0  0  0  0  0  0  0
    6.6448    0.7062    2.4307 H   0  0  0  0  0  0  0  0  0  0  0  0
    7.2609   -0.5094    1.2803 H   0  0  0  0  0  0  0  0  0  0  0  0
    2.6262    3.4958   -1.0879 H   0  0  0  0  0  0  0  0  0  0  0  0
    1.1035    4.4611   -2.7474 H   0  0  0  0  0  0  0  0  0  0  0  0
    2.6747    4.1961   -7.0376 H   0  0  0  0  0  0  0  0  0  0  0  0
    2.2047    5.8137   -6.4636 H   0  0  0  0  0  0  0  0  0  0  0  0
    0.4965    3.8274   -8.0757 H   0  0  0  0  0  0  0  0  0  0  0  0
    1.1469    5.4040   -8.6302 H   0  0  0  0  0  0  0  0  0  0  0  0
   -1.2757    3.8835   -6.4337 H   0  0  0  0  0  0  0  0  0  0  0  0
   -1.8265    5.4959   -5.8781 H   0  0  0  0  0  0  0  0  0  0  0  0
   -0.4052    4.2547   -4.2062 H   0  0  0  0  0  0  0  0  0  0  0  0
    0.2398    5.8638   -4.6322 H   0  0  0  0  0  0  0  0  0  0  0  0
    3.4999    2.7333   -5.9160 H   0  0  0  0  0  0  0  0  0  0  0  0
    5.0032    1.7731   -4.2256 H   0  0  0  0  0  0  0  0  0  0  0  0
    9.0846    1.0016   -2.3009 H   0  0  0  0  0  0  0  0  0  0  0  0
   13.6510    1.4547   -3.2444 H   0  0  0  0  0  0  0  0  0  0  0  0
   14.5067    3.0157   -3.2946 H   0  0  0  0  0  0  0  0  0  0  0  0
   13.0794    2.7361   -4.3325 H   0  0  0  0  0  0  0  0  0  0  0  0
   13.1326    1.4607   -0.8535 H   0  0  0  0  0  0  0  0  0  0  0  0
   12.5074    2.9101   -0.0349 H   0  0  0  0  0  0  0  0  0  0  0  0
   14.1709    2.9006   -0.6827 H   0  0  0  0  0  0  0  0  0  0  0  0
   13.3755    5.2675   -4.0458 H   0  0  0  0  0  0  0  0  0  0  0  0
   11.9248    6.2171   -3.6319 H   0  0  0  0  0  0  0  0  0  0  0  0
   11.7488    4.6090   -4.3710 H   0  0  0  0  0  0  0  0  0  0  0  0
   14.2102    5.3813   -1.5462 H   0  0  0  0  0  0  0  0  0  0  0  0
   13.0033    5.1394   -0.2519 H   0  0  0  0  0  0  0  0  0  0  0  0
   12.8390    6.5039   -1.3775 H   0  0  0  0  0  0  0  0  0  0  0  0
    8.9520    5.9014   -1.3088 H   0  0  0  0  0  0  0  0  0  0  0  0
    6.3836    6.7968   -0.7366 H   0  0  0  0  0  0  0  0  0  0  0  0
  1  2  1  0
  1 39  1  0
  1 40  1  0
  1 41  1  0
  2  3  1  0
  2  4  1  0
  2  5  1  6
  3 42  1  0
  3 43  1  0
  3 44  1  0
  4 45  1  0
  4 46  1  0
  4 47  1  0
  5  6  1  0
  6  7  2  0
  6  8  1  0
  8  9  1  0
  8 21  1  0
  9 10  2  0
  9 20  1  0
 10 11  1  0
 10 48  1  0
 11 12  2  0
 11 49  1  0
 12 13  1  0
 12 19  1  0
 13 14  1  0
 13 18  1  0
 14 15  1  0
 14 50  1  0
 14 51  1  0
 15 16  1  0
 15 52  1  0
 15 53  1  0
 16 17  1  0
 17 18  1  0
 17 54  1  0
 17 55  1  0
 18 56  1  0
 18 57  1  0
 19 20  2  0
 19 58  1  0
 20 59  1  0
 21 22  2  0
 21 38  1  0
 22 23  1  0
 23 24  2  0
 23 60  1  0
 24 25  1  0
 24 34  1  0
 25 26  1  0
 25 33  1  0
 26 27  1  0
 27 28  1  6
 27 29  1  0
 27 30  1  0
 28 61  1  0
 28 62  1  0
 28 63  1  0
 29 64  1  0
 29 65  1  0
 29 66  1  0
 30 31  1  6
 30 32  1  0
 30 33  1  0
 31 67  1  0
 31 68  1  0
 31 69  1  0
 32 70  1  0
 32 71  1  0
 32 72  1  0
 34 35  1  0
 34 38  1  0
 35 36  2  0
 35 73  1  0
 36 37  1  0
 36 74  1  0
 37 38  2  0
M  END

