
     RDKit          3D

 50 53  0  0  0  0  0  0  0  0999 V2000
    1.2807   -0.4062    0.5047 C   0  0  0  0  0  0  0  0  0  0  0  0
    2.0189    0.3503   -0.4363 O   0  0  0  0  0  0  0  0  0  0  0  0
    2.6719   -0.2306   -1.4495 C   0  0  0  0  0  0  0  0  0  0  0  0
    2.6644   -1.6426   -1.6445 C   0  0  0  0  0  0  0  0  0  0  0  0
    3.3576   -2.1836   -2.7123 C   0  0  0  0  0  0  0  0  0  0  0  0
    4.0616   -1.3147   -3.5956 C   0  0  0  0  0  0  0  0  0  0  0  0
    4.7364   -1.7715   -4.6582 O   0  0  0  0  0  0  0  0  0  0  0  0
    4.8250   -3.1508   -4.9597 C   0  0  0  0  0  0  0  0  0  0  0  0
    5.6526   -3.3017   -6.2377 C   0  0  1  0  0  0  0  0  0  0  0  0
    6.9416   -2.7612   -6.1084 O   0  0  0  0  0  0  0  0  0  0  0  0
    5.6672   -4.7655   -6.6826 C   0  0  0  0  0  0  0  0  0  0  0  0
    6.3593   -4.8426   -7.9028 O   0  0  0  0  0  0  0  0  0  0  0  0
    6.5395   -6.0454   -8.5100 C   0  0  0  0  0  0  0  0  0  0  0  0
    6.0238   -7.2433   -8.0457 C   0  0  0  0  0  0  0  0  0  0  0  0
    6.2598   -8.4427   -8.7673 C   0  0  0  0  0  0  0  0  0  0  0  0
    6.9962   -8.4415   -9.9291 C   0  0  0  0  0  0  0  0  0  0  0  0
    7.5459   -7.2249  -10.4290 C   0  0  0  0  0  0  0  0  0  0  0  0
    8.3181   -7.1764  -11.6230 C   0  0  0  0  0  0  0  0  0  0  0  0
    8.8460   -5.9865  -12.0808 C   0  0  0  0  0  0  0  0  0  0  0  0
    8.6289   -4.7854  -11.3623 C   0  0  0  0  0  0  0  0  0  0  0  0
    7.8826   -4.7930  -10.2007 C   0  0  0  0  0  0  0  0  0  0  0  0
    7.3237   -6.0043   -9.7121 C   0  0  0  0  0  0  0  0  0  0  0  0
    4.0996    0.1134   -3.4166 C   0  0  0  0  0  0  0  0  0  0  0  0
    4.8264    0.9596   -4.2998 C   0  0  0  0  0  0  0  0  0  0  0  0
    4.8141    2.3691   -4.0692 C   0  0  0  0  0  0  0  0  0  0  0  0
    4.1136    2.9105   -3.0097 C   0  0  0  0  0  0  0  0  0  0  0  0
    3.3820    2.0770   -2.1089 C   0  0  0  0  0  0  0  0  0  0  0  0
    3.3811    0.6702   -2.3206 C   0  0  0  0  0  0  0  0  0  0  0  0
    0.8575    0.3162    1.2140 H   0  0  0  0  0  0  0  0  0  0  0  0
    1.9278   -1.1136    1.0506 H   0  0  0  0  0  0  0  0  0  0  0  0
    0.4598   -0.9622    0.0206 H   0  0  0  0  0  0  0  0  0  0  0  0
    2.1203   -2.2960   -0.9644 H   0  0  0  0  0  0  0  0  0  0  0  0
    3.3552   -3.2608   -2.8700 H   0  0  0  0  0  0  0  0  0  0  0  0
    3.8161   -3.5796   -5.1004 H   0  0  0  0  0  0  0  0  0  0  0  0
    5.3104   -3.6898   -4.1228 H   0  0  0  0  0  0  0  0  0  0  0  0
    5.1646   -2.7082   -7.0283 H   0  0  0  0  0  0  0  0  0  0  0  0
    7.4444   -3.2825   -5.4667 H   0  0  0  0  0  0  0  0  0  0  0  0
    4.6314   -5.1416   -6.7910 H   0  0  0  0  0  0  0  0  0  0  0  0
    6.1662   -5.3928   -5.9145 H   0  0  0  0  0  0  0  0  0  0  0  0
    5.4301   -7.2839   -7.1325 H   0  0  0  0  0  0  0  0  0  0  0  0
    5.8412   -9.3768   -8.3840 H   0  0  0  0  0  0  0  0  0  0  0  0
    7.1704   -9.3688  -10.4803 H   0  0  0  0  0  0  0  0  0  0  0  0
    8.4881   -8.1052  -12.1744 H   0  0  0  0  0  0  0  0  0  0  0  0
    9.4373   -5.9686  -13.0000 H   0  0  0  0  0  0  0  0  0  0  0  0
    9.0563   -3.8490  -11.7298 H   0  0  0  0  0  0  0  0  0  0  0  0
    7.7152   -3.8752   -9.6357 H   0  0  0  0  0  0  0  0  0  0  0  0
    5.3887    0.5277   -5.1245 H   0  0  0  0  0  0  0  0  0  0  0  0
    5.3706    3.0225   -4.7467 H   0  0  0  0  0  0  0  0  0  0  0  0
    4.1148    3.9923   -2.8501 H   0  0  0  0  0  0  0  0  0  0  0  0
    2.8319    2.5014   -1.2722 H   0  0  0  0  0  0  0  0  0  0  0  0
  1  2  1  0
  1 29  1  0
  1 30  1  0
  1 31  1  0
  2  3  1  0
  3  4  2  0
  3 28  1  0
  4  5  1  0
  4 32  1  0
  5  6  2  0
  5 33  1  0
  6  7  1  0
  6 23  1  0
  7  8  1  0
  8  9  1  0
  8 34  1  0
  8 35  1  0
  9 10  1  0
  9 11  1  0
  9 36  1  6
 10 37  1  0
 11 12  1  0
 11 38  1  0
 11 39  1  0
 12 13  1  0
 13 14  2  0
 13 22  1  0
 14 15  1  0
 14 40  1  0
 15 16  2  0
 15 41  1  0
 16 17  1  0
 16 42  1  0
 17 18  1  0
 17 22  2  0
 18 19  2  0
 18 43  1  0
 19 20  1  0
 19 44  1  0
 20 21  2  0
 20 45  1  0
 21 22  1  0
 21 46  1  0
 23 24  1  0
 23 28  2  0
 24 25  2  0
 24 47  1  0
 25 26  1  0
 25 48  1  0
 26 27  2  0
 26 49  1  0
 27 28  1  0
 27 50  1  0
M  END

