
     RDKit          3D

 43 44  0  0  0  0  0  0  0  0999 V2000
    5.9869   -2.2340   -0.0446 C   0  0  0  0  0  0  0  0  0  0  0  0
    4.8445   -1.2598   -0.0556 C   0  0  0  0  0  0  0  0  0  0  0  0
    5.0332    0.0731   -0.3914 C   0  0  0  0  0  0  0  0  0  0  0  0
    3.9744    0.9965   -0.3894 C   0  0  0  0  0  0  0  0  0  0  0  0
    2.6809    0.5643   -0.0396 C   0  0  0  0  0  0  0  0  0  0  0  0
    1.3141    1.7639   -0.0838 S   0  0  1  0  0  0  0  0  0  0  0  0
    1.1274    2.2789    1.6343 C   0  0  0  0  0  0  0  0  0  0  0  0
    1.8017    2.9181   -0.8492 O   0  0  0  0  0  0  0  0  0  0  0  0
    0.1060    1.0308   -0.4683 O   0  0  0  0  0  0  0  0  0  0  0  0
    2.4191   -0.7478    0.2747 C   0  0  0  0  0  0  0  0  0  0  0  0
    3.5015   -1.6984    0.2927 C   0  0  0  0  0  0  0  0  0  0  0  0
    3.2608   -2.9607    0.6262 N   0  0  0  0  0  0  0  0  0  0  0  0
    2.0114   -3.4724    1.3387 C   0  0  0  0  0  0  0  0  0  0  0  0
    2.0590   -3.2194    2.5664 O   0  0  0  0  0  0  0  0  0  0  0  0
    1.0925   -4.2112    0.5598 C   0  0  0  0  0  0  0  0  0  0  0  0
   -0.1146   -4.7976    1.1316 C   0  0  0  0  0  0  0  0  0  0  0  0
   -0.5725   -4.7338    2.5532 C   0  0  0  0  0  0  0  0  0  0  0  0
   -0.8190   -5.4322    0.2372 N   0  0  0  0  0  0  0  0  0  0  0  0
   -0.1481   -5.3199   -0.9639 O   0  0  0  0  0  0  0  0  0  0  0  0
    1.0043   -4.5968   -0.7897 C   0  0  0  0  0  0  0  0  0  0  0  0
    1.8332   -4.4233   -2.0294 C   0  0  1  0  0  0  0  0  0  0  0  0
    2.3273   -5.7783   -2.5763 C   0  0  0  0  0  0  0  0  0  0  0  0
    1.0737   -3.6377   -3.1175 C   0  0  0  0  0  0  0  0  0  0  0  0
    6.9285   -1.7370   -0.3123 H   0  0  0  0  0  0  0  0  0  0  0  0
    5.8269   -3.0567   -0.7622 H   0  0  0  0  0  0  0  0  0  0  0  0
    6.1204   -2.6875    0.9529 H   0  0  0  0  0  0  0  0  0  0  0  0
    6.0339    0.4153   -0.6645 H   0  0  0  0  0  0  0  0  0  0  0  0
    4.1304    2.0395   -0.6699 H   0  0  0  0  0  0  0  0  0  0  0  0
    2.0568    2.7536    1.9740 H   0  0  0  0  0  0  0  0  0  0  0  0
    0.8608    1.4099    2.2496 H   0  0  0  0  0  0  0  0  0  0  0  0
    0.3049    3.0082    1.6193 H   0  0  0  0  0  0  0  0  0  0  0  0
    1.4119   -1.0876    0.5111 H   0  0  0  0  0  0  0  0  0  0  0  0
    4.0766   -3.5694    0.6932 H   0  0  0  0  0  0  0  0  0  0  0  0
    0.1867   -5.1578    3.2274 H   0  0  0  0  0  0  0  0  0  0  0  0
   -1.5170   -5.2848    2.6621 H   0  0  0  0  0  0  0  0  0  0  0  0
   -0.7143   -3.6903    2.8731 H   0  0  0  0  0  0  0  0  0  0  0  0
    2.7195   -3.8338   -1.7465 H   0  0  0  0  0  0  0  0  0  0  0  0
    1.4717   -6.4185   -2.8413 H   0  0  0  0  0  0  0  0  0  0  0  0
    2.9246   -6.3191   -1.8251 H   0  0  0  0  0  0  0  0  0  0  0  0
    2.9454   -5.6421   -3.4792 H   0  0  0  0  0  0  0  0  0  0  0  0
    0.1609   -4.1787   -3.4113 H   0  0  0  0  0  0  0  0  0  0  0  0
    1.6952   -3.5016   -4.0179 H   0  0  0  0  0  0  0  0  0  0  0  0
    0.7668   -2.6445   -2.7541 H   0  0  0  0  0  0  0  0  0  0  0  0
  1  2  1  0
  1 24  1  0
  1 25  1  0
  1 26  1  0
  2  3  2  0
  2 11  1  0
  3  4  1  0
  3 27  1  0
  4  5  2  0
  4 28  1  0
  5  6  1  0
  5 10  1  0
  6  7  1  1
  6  8  2  0
  6  9  2  0
  7 29  1  0
  7 30  1  0
  7 31  1  0
 10 11  2  0
 10 32  1  0
 11 12  1  0
 12 13  1  0
 12 33  1  0
 13 14  2  0
 13 15  1  0
 15 16  1  0
 15 20  2  0
 16 17  1  0
 16 18  2  0
 17 34  1  0
 17 35  1  0
 17 36  1  0
 18 19  1  0
 19 20  1  0
 20 21  1  0
 21 22  1  0
 21 23  1  0
 21 37  1  6
 22 38  1  0
 22 39  1  0
 22 40  1  0
 23 41  1  0
 23 42  1  0
 23 43  1  0
M  END

