
     RDKit          3D

 60 63  0  0  0  0  0  0  0  0999 V2000
    2.7860   -0.3703    1.2329 C   0  0  0  0  0  0  0  0  0  0  0  0
    1.9482   -0.1208    0.1099 O   0  0  0  0  0  0  0  0  0  0  0  0
    2.5481   -0.2013   -1.1153 C   0  0  0  0  0  0  0  0  0  0  0  0
    2.4291   -1.3615   -1.8708 C   0  0  0  0  0  0  0  0  0  0  0  0
    3.0668   -1.4280   -3.1309 C   0  0  0  0  0  0  0  0  0  0  0  0
    3.0152   -2.4882   -3.9559 N   0  0  0  0  0  0  0  0  0  0  0  0
    2.3049   -3.7285   -3.7573 C   0  0  0  0  0  0  0  0  0  0  0  0
    2.5499   -4.6922   -4.9178 C   0  0  0  0  0  0  0  0  0  0  0  0
    1.8129   -6.0232   -4.7469 C   0  0  0  0  0  0  0  0  0  0  0  0
    1.9549   -7.0072   -5.9363 C   0  0  1  0  0  0  0  0  0  0  0  0
    3.4038   -7.4647   -6.1479 C   0  0  0  0  0  0  0  0  0  0  0  0
    1.0252   -8.1837   -5.7732 C   0  0  0  0  0  0  0  0  0  0  0  0
    1.2522   -9.4933   -5.3779 C   0  0  0  0  0  0  0  0  0  0  0  0
   -0.0055  -10.1677   -5.3497 C   0  0  0  0  0  0  0  0  0  0  0  0
   -0.9680   -9.2539   -5.7283 C   0  0  0  0  0  0  0  0  0  0  0  0
   -0.3326   -8.0602   -5.9779 N   0  0  0  0  0  0  0  0  0  0  0  0
   -0.7912   -7.2188   -6.3026 H   0  0  0  0  0  0  0  0  0  0  0  0
    3.8627   -0.3269   -3.6432 C   0  0  0  0  0  0  0  0  0  0  0  0
    4.4133   -0.5654   -4.8751 N   0  0  0  0  0  0  0  0  0  0  0  0
    5.1592    0.4594   -5.3755 C   0  0  0  0  0  0  0  0  0  0  0  0
    5.3635    1.6556   -4.7163 C   0  0  0  0  0  0  0  0  0  0  0  0
    4.8033    1.9294   -3.4324 C   0  0  0  0  0  0  0  0  0  0  0  0
    5.0756    3.2461   -2.7605 C   0  0  0  0  0  0  0  0  0  0  0  0
    4.0025    0.8511   -2.8908 C   0  0  0  0  0  0  0  0  0  0  0  0
    3.2827    0.9014   -1.6297 C   0  0  0  0  0  0  0  0  0  0  0  0
    3.3897    2.0338   -0.8930 O   0  0  0  0  0  0  0  0  0  0  0  0
    2.3219    2.6772   -0.3123 C   0  0  0  0  0  0  0  0  0  0  0  0
    2.5955    3.4579    0.8147 C   0  0  0  0  0  0  0  0  0  0  0  0
    1.5675    4.1883    1.4063 C   0  0  0  0  0  0  0  0  0  0  0  0
    0.2700    4.1518    0.8830 C   0  0  0  0  0  0  0  0  0  0  0  0
   -0.9887    5.0729    1.6533 Cl  0  0  0  0  0  0  0  0  0  0  0  0
    0.0118    3.3736   -0.2599 C   0  0  0  0  0  0  0  0  0  0  0  0
   -1.5804    3.3093   -0.9576 Cl  0  0  0  0  0  0  0  0  0  0  0  0
    1.0374    2.6404   -0.8604 C   0  0  0  0  0  0  0  0  0  0  0  0
    2.1522   -0.2899    2.1266 H   0  0  0  0  0  0  0  0  0  0  0  0
    3.6045    0.3669    1.3034 H   0  0  0  0  0  0  0  0  0  0  0  0
    3.2226   -1.3837    1.1859 H   0  0  0  0  0  0  0  0  0  0  0  0
    1.8566   -2.1970   -1.4679 H   0  0  0  0  0  0  0  0  0  0  0  0
    3.5690   -2.2829   -4.8086 H   0  0  0  0  0  0  0  0  0  0  0  0
    1.2203   -3.5293   -3.6501 H   0  0  0  0  0  0  0  0  0  0  0  0
    2.6238   -4.1965   -2.8058 H   0  0  0  0  0  0  0  0  0  0  0  0
    3.6360   -4.8596   -5.0073 H   0  0  0  0  0  0  0  0  0  0  0  0
    2.2306   -4.2066   -5.8576 H   0  0  0  0  0  0  0  0  0  0  0  0
    0.7395   -5.8181   -4.5872 H   0  0  0  0  0  0  0  0  0  0  0  0
    2.1588   -6.5328   -3.8297 H   0  0  0  0  0  0  0  0  0  0  0  0
    1.6410   -6.4601   -6.8477 H   0  0  0  0  0  0  0  0  0  0  0  0
    3.7951   -7.9663   -5.2476 H   0  0  0  0  0  0  0  0  0  0  0  0
    4.0674   -6.6167   -6.3726 H   0  0  0  0  0  0  0  0  0  0  0  0
    3.4721   -8.1757   -6.9845 H   0  0  0  0  0  0  0  0  0  0  0  0
    2.2213   -9.9242   -5.1355 H   0  0  0  0  0  0  0  0  0  0  0  0
   -0.1824  -11.2086   -5.0853 H   0  0  0  0  0  0  0  0  0  0  0  0
   -2.0441   -9.3580   -5.8491 H   0  0  0  0  0  0  0  0  0  0  0  0
    5.6098    0.2923   -6.3601 H   0  0  0  0  0  0  0  0  0  0  0  0
    5.9791    2.4215   -5.1965 H   0  0  0  0  0  0  0  0  0  0  0  0
    5.7494    3.8460   -3.3921 H   0  0  0  0  0  0  0  0  0  0  0  0
    5.5611    3.1452   -1.7728 H   0  0  0  0  0  0  0  0  0  0  0  0
    4.1679    3.8556   -2.5930 H   0  0  0  0  0  0  0  0  0  0  0  0
    3.6107    3.4878    1.2131 H   0  0  0  0  0  0  0  0  0  0  0  0
    1.7617    4.8013    2.2877 H   0  0  0  0  0  0  0  0  0  0  0  0
    0.8269    2.0482   -1.7507 H   0  0  0  0  0  0  0  0  0  0  0  0
  1  2  1  0
  1 35  1  0
  1 36  1  0
  1 37  1  0
  2  3  1  0
  3  4  2  0
  3 25  1  0
  4  5  1  0
  4 38  1  0
  5  6  1  0
  5 18  2  0
  6  7  1  0
  6 39  1  0
  7  8  1  0
  7 40  1  0
  7 41  1  0
  8  9  1  0
  8 42  1  0
  8 43  1  0
  9 10  1  0
  9 44  1  0
  9 45  1  0
 10 11  1  0
 10 12  1  0
 10 46  1  6
 11 47  1  0
 11 48  1  0
 11 49  1  0
 12 13  2  0
 12 16  1  0
 13 14  1  0
 13 50  1  0
 14 15  2  0
 14 51  1  0
 15 16  1  0
 15 52  1  0
 16 17  1  0
 18 19  1  0
 18 24  1  0
 19 20  2  0
 20 21  1  0
 20 53  1  0
 21 22  2  0
 21 54  1  0
 22 23  1  0
 22 24  1  0
 23 55  1  0
 23 56  1  0
 23 57  1  0
 24 25  2  0
 25 26  1  0
 26 27  1  0
 27 28  2  0
 27 34  1  0
 28 29  1  0
 28 58  1  0
 29 30  2  0
 29 59  1  0
 30 31  1  0
 30 32  1  0
 32 33  1  0
 32 34  2  0
 34 60  1  0
M  END

