
     RDKit          3D

 51 52  0  0  0  0  0  0  0  0999 V2000
    7.9344    1.1414    3.1337 C   0  0  0  0  0  0  0  0  0  0  0  0
    6.6481    0.6168    2.9241 O   0  0  0  0  0  0  0  0  0  0  0  0
    6.6370   -0.6743    2.3796 C   0  0  0  0  0  0  0  0  0  0  0  0
    5.1729   -1.0974    2.2520 C   0  0  0  0  0  0  0  0  0  0  0  0
    5.0122   -2.4233    1.6785 N   0  0  0  0  0  0  0  0  0  0  0  0
    4.7631   -2.6726    0.3260 C   0  0  0  0  0  0  0  0  0  0  0  0
    4.6073   -1.5817   -0.6840 C   0  0  0  0  0  0  0  0  0  0  0  0
    4.6875   -4.0324    0.1675 C   0  0  0  0  0  0  0  0  0  0  0  0
    4.9412   -4.6508    1.4420 C   0  0  0  0  0  0  0  0  0  0  0  0
    4.9498   -6.0727    1.6347 C   0  0  0  0  0  0  0  0  0  0  0  0
    5.6333   -6.8563    2.5302 C   0  0  0  0  0  0  0  0  0  0  0  0
    6.6580   -6.3623    3.3955 C   0  0  0  0  0  0  0  0  0  0  0  0
    7.5195   -5.9454    4.0559 N   0  0  0  0  0  0  0  0  0  0  0  0
    5.3628   -8.3193    2.5059 C   0  0  0  0  0  0  0  0  0  0  0  0
    4.5908   -8.8746    1.7593 O   0  0  0  0  0  0  0  0  0  0  0  0
    6.1124   -8.9830    3.4162 O   0  0  0  0  0  0  0  0  0  0  0  0
    5.8703  -10.3670    3.5244 C   0  0  0  0  0  0  0  0  0  0  0  0
    4.5412  -10.6475    4.2499 C   0  0  0  0  0  0  0  0  0  0  0  0
    3.9464   -9.7847    4.8584 O   0  0  0  0  0  0  0  0  0  0  0  0
    4.1557  -11.9634    4.1545 N   0  0  0  0  0  0  0  0  0  0  0  0
    3.0484  -12.6057    4.7431 C   0  0  0  0  0  0  0  0  0  0  0  0
    2.1140  -11.9388    5.5555 C   0  0  0  0  0  0  0  0  0  0  0  0
    1.0432  -12.6440    6.1074 C   0  0  0  0  0  0  0  0  0  0  0  0
    0.8910  -14.0098    5.8570 C   0  0  0  0  0  0  0  0  0  0  0  0
   -0.4556  -14.8835    6.5534 Cl  0  0  0  0  0  0  0  0  0  0  0  0
    1.8119  -14.6827    5.0496 C   0  0  0  0  0  0  0  0  0  0  0  0
    2.8820  -13.9807    4.4991 C   0  0  0  0  0  0  0  0  0  0  0  0
    5.1186   -3.6063    2.3708 C   0  0  0  0  0  0  0  0  0  0  0  0
    5.2340   -3.6537    3.8596 C   0  0  0  0  0  0  0  0  0  0  0  0
    7.8200    2.1457    3.5663 H   0  0  0  0  0  0  0  0  0  0  0  0
    8.5061    1.2269    2.1876 H   0  0  0  0  0  0  0  0  0  0  0  0
    8.5259    0.5189    3.8347 H   0  0  0  0  0  0  0  0  0  0  0  0
    7.1854   -1.3907    3.0256 H   0  0  0  0  0  0  0  0  0  0  0  0
    7.1288   -0.6990    1.3840 H   0  0  0  0  0  0  0  0  0  0  0  0
    4.6444   -0.3677    1.6246 H   0  0  0  0  0  0  0  0  0  0  0  0
    4.7047   -1.0593    3.2457 H   0  0  0  0  0  0  0  0  0  0  0  0
    3.7481   -0.9241   -0.4649 H   0  0  0  0  0  0  0  0  0  0  0  0
    4.4366   -2.0257   -1.6744 H   0  0  0  0  0  0  0  0  0  0  0  0
    5.5014   -0.9393   -0.7579 H   0  0  0  0  0  0  0  0  0  0  0  0
    4.5091   -4.5546   -0.7708 H   0  0  0  0  0  0  0  0  0  0  0  0
    4.3391   -6.6516    0.9320 H   0  0  0  0  0  0  0  0  0  0  0  0
    6.7006  -10.7726    4.1231 H   0  0  0  0  0  0  0  0  0  0  0  0
    5.8689  -10.8444    2.5305 H   0  0  0  0  0  0  0  0  0  0  0  0
    4.7322  -12.5594    3.5707 H   0  0  0  0  0  0  0  0  0  0  0  0
    2.2339  -10.8745    5.7445 H   0  0  0  0  0  0  0  0  0  0  0  0
    0.3183  -12.1258    6.7376 H   0  0  0  0  0  0  0  0  0  0  0  0
    1.6906  -15.7494    4.8546 H   0  0  0  0  0  0  0  0  0  0  0  0
    3.6005  -14.5126    3.8682 H   0  0  0  0  0  0  0  0  0  0  0  0
    4.8147   -4.5945    4.2393 H   0  0  0  0  0  0  0  0  0  0  0  0
    4.6811   -2.8278    4.3331 H   0  0  0  0  0  0  0  0  0  0  0  0
    6.2789   -3.6162    4.2098 H   0  0  0  0  0  0  0  0  0  0  0  0
  1  2  1  0
  1 30  1  0
  1 31  1  0
  1 32  1  0
  2  3  1  0
  3  4  1  0
  3 33  1  0
  3 34  1  0
  4  5  1  0
  4 35  1  0
  4 36  1  0
  5  6  1  0
  5 28  1  0
  6  7  1  0
  6  8  2  0
  7 37  1  0
  7 38  1  0
  7 39  1  0
  8  9  1  0
  8 40  1  0
  9 10  1  0
  9 28  2  0
 10 11  2  0
 10 41  1  0
 11 12  1  0
 11 14  1  0
 12 13  3  0
 14 15  2  0
 14 16  1  0
 16 17  1  0
 17 18  1  0
 17 42  1  0
 17 43  1  0
 18 19  2  0
 18 20  1  0
 20 21  1  0
 20 44  1  0
 21 22  2  0
 21 27  1  0
 22 23  1  0
 22 45  1  0
 23 24  2  0
 23 46  1  0
 24 25  1  0
 24 26  1  0
 26 27  2  0
 26 47  1  0
 27 48  1  0
 28 29  1  0
 29 49  1  0
 29 50  1  0
 29 51  1  0
M  END

