
     RDKit          3D

 37 37  0  0  0  0  0  0  0  0999 V2000
    2.5297   -5.9775    2.1133 C   0  0  0  0  0  0  0  0  0  0  0  0
    3.4910   -5.0454    1.6986 O   0  0  0  0  0  0  0  0  0  0  0  0
    3.5373   -3.8818    2.4831 C   0  0  0  0  0  0  0  0  0  0  0  0
    4.6132   -2.9456    1.9252 C   0  0  1  0  0  0  0  0  0  0  0  0
    4.3763   -2.5702    0.4622 C   0  0  0  0  0  0  0  0  0  0  0  0
    4.6948   -1.7792    2.8133 N   0  0  0  0  0  0  0  0  0  0  0  0
    6.1698   -0.9846    3.0406 S   0  0  1  0  0  0  0  0  0  0  0  0
    7.0671   -1.2453    1.9066 O   0  0  0  0  0  0  0  0  0  0  0  0
    5.7804    0.3805    3.4092 O   0  0  0  0  0  0  0  0  0  0  0  0
    6.8717   -1.7896    4.4643 C   0  0  0  0  0  0  0  0  0  0  0  0
    8.0053   -2.6067    4.3227 C   0  0  0  0  0  0  0  0  0  0  0  0
    8.5553   -3.2095    5.4427 C   0  0  0  0  0  0  0  0  0  0  0  0
    8.0032   -3.0173    6.7462 C   0  0  0  0  0  0  0  0  0  0  0  0
    8.6012   -3.6551    7.8648 C   0  0  0  0  0  0  0  0  0  0  0  0
    8.1925   -3.5627    9.2131 C   0  0  0  0  0  0  0  0  0  0  0  0
    8.8427   -4.2260   10.2466 C   0  0  0  0  0  0  0  0  0  0  0  0
    9.8770   -5.0008   10.1044 O   0  0  0  0  0  0  0  0  0  0  0  0
    8.4839   -4.1502   11.5212 O   0  0  0  0  0  0  0  0  0  0  0  0
    6.8564   -2.1665    6.8489 C   0  0  0  0  0  0  0  0  0  0  0  0
    6.3059   -1.5638    5.7329 C   0  0  0  0  0  0  0  0  0  0  0  0
    2.5829   -6.8416    1.4349 H   0  0  0  0  0  0  0  0  0  0  0  0
    1.5023   -5.5608    2.0736 H   0  0  0  0  0  0  0  0  0  0  0  0
    2.7121   -6.3303    3.1490 H   0  0  0  0  0  0  0  0  0  0  0  0
    3.7742   -4.1173    3.5404 H   0  0  0  0  0  0  0  0  0  0  0  0
    2.5518   -3.3642    2.4798 H   0  0  0  0  0  0  0  0  0  0  0  0
    5.5761   -3.4757    2.0016 H   0  0  0  0  0  0  0  0  0  0  0  0
    3.4339   -2.0045    0.3542 H   0  0  0  0  0  0  0  0  0  0  0  0
    4.2997   -3.4758   -0.1563 H   0  0  0  0  0  0  0  0  0  0  0  0
    5.2050   -1.9482    0.0953 H   0  0  0  0  0  0  0  0  0  0  0  0
    3.9849   -1.0620    2.6596 H   0  0  0  0  0  0  0  0  0  0  0  0
    8.4417   -2.7469    3.3326 H   0  0  0  0  0  0  0  0  0  0  0  0
    9.4382   -3.8446    5.3320 H   0  0  0  0  0  0  0  0  0  0  0  0
    9.4709   -4.2788    7.6416 H   0  0  0  0  0  0  0  0  0  0  0  0
    7.3383   -2.9535    9.5153 H   0  0  0  0  0  0  0  0  0  0  0  0
    7.7170   -3.5652   11.6011 H   0  0  0  0  0  0  0  0  0  0  0  0
    6.4039   -1.9781    7.8243 H   0  0  0  0  0  0  0  0  0  0  0  0
    5.4395   -0.9062    5.8265 H   0  0  0  0  0  0  0  0  0  0  0  0
  1  2  1  0
  1 21  1  0
  1 22  1  0
  1 23  1  0
  2  3  1  0
  3  4  1  0
  3 24  1  0
  3 25  1  0
  4  5  1  0
  4  6  1  0
  4 26  1  6
  5 27  1  0
  5 28  1  0
  5 29  1  0
  7  6  1  6
  6 30  1  0
  7  8  2  0
  7  9  2  0
  7 10  1  0
 10 11  2  0
 10 20  1  0
 11 12  1  0
 11 31  1  0
 12 13  2  0
 12 32  1  0
 13 14  1  0
 13 19  1  0
 14 15  2  0
 14 33  1  0
 15 16  1  0
 15 34  1  0
 16 17  2  0
 16 18  1  0
 18 35  1  0
 19 20  2  0
 19 36  1  0
 20 37  1  0
M  END

