
     RDKit          3D

 48 51  0  0  0  0  0  0  0  0999 V2000
    0.6365    0.8359    0.1524 O   0  0  0  0  0  0  0  0  0  0  0  0
    1.6630    0.1787    0.1702 C   0  0  0  0  0  0  0  0  0  0  0  0
    2.0396   -0.5461    1.4674 C   0  0  0  0  0  0  0  0  0  0  0  0
    3.3009   -1.2021    1.3355 O   0  0  0  0  0  0  0  0  0  0  0  0
    3.4770   -2.4282    1.8470 C   0  0  0  0  0  0  0  0  0  0  0  0
    2.7033   -2.9743    2.5957 O   0  0  0  0  0  0  0  0  0  0  0  0
    4.7758   -3.0343    1.4133 C   0  0  0  0  0  0  0  0  0  0  0  0
    5.2908   -4.0440    2.1743 C   0  0  0  0  0  0  0  0  0  0  0  0
    6.5358   -4.6738    1.8491 C   0  0  0  0  0  0  0  0  0  0  0  0
    7.1273   -5.7033    2.6141 C   0  0  0  0  0  0  0  0  0  0  0  0
    8.3475   -6.2451    2.2346 C   0  0  0  0  0  0  0  0  0  0  0  0
    8.9992   -5.7654    1.0830 C   0  0  0  0  0  0  0  0  0  0  0  0
    8.4381   -4.7520    0.3100 C   0  0  0  0  0  0  0  0  0  0  0  0
    7.2069   -4.2122    0.6963 C   0  0  0  0  0  0  0  0  0  0  0  0
    6.6697   -3.2334   -0.0736 O   0  0  0  0  0  0  0  0  0  0  0  0
    5.4592   -2.6112    0.1778 C   0  0  0  0  0  0  0  0  0  0  0  0
    5.0760   -1.8127   -0.6404 O   0  0  0  0  0  0  0  0  0  0  0  0
    2.5403    0.0059   -0.8579 N   0  0  0  0  0  0  0  0  0  0  0  0
    2.4723    0.5388   -2.1610 C   0  0  0  0  0  0  0  0  0  0  0  0
    1.4212    1.3578   -2.6096 C   0  0  0  0  0  0  0  0  0  0  0  0
    1.4348    1.8503   -3.9164 C   0  0  0  0  0  0  0  0  0  0  0  0
    2.4782    1.5313   -4.7872 C   0  0  0  0  0  0  0  0  0  0  0  0
    2.4051    1.9754   -6.0913 O   0  0  0  0  0  0  0  0  0  0  0  0
    3.4014    2.7350   -6.6463 C   0  0  0  0  0  0  0  0  0  0  0  0
    3.4489    2.7715   -8.0473 C   0  0  0  0  0  0  0  0  0  0  0  0
    4.4041    3.5598   -8.6891 C   0  0  0  0  0  0  0  0  0  0  0  0
    5.3205    4.3125   -7.9454 C   0  0  0  0  0  0  0  0  0  0  0  0
    5.2652    4.2713   -6.5497 C   0  0  0  0  0  0  0  0  0  0  0  0
    4.3104    3.4895   -5.8918 C   0  0  0  0  0  0  0  0  0  0  0  0
    3.5232    0.7079   -4.3504 C   0  0  0  0  0  0  0  0  0  0  0  0
    3.5208    0.2203   -3.0459 C   0  0  0  0  0  0  0  0  0  0  0  0
    1.2526   -1.2695    1.7268 H   0  0  0  0  0  0  0  0  0  0  0  0
    2.0933    0.2011    2.2745 H   0  0  0  0  0  0  0  0  0  0  0  0
    4.7311   -4.3649    3.0572 H   0  0  0  0  0  0  0  0  0  0  0  0
    6.6090   -6.0623    3.5067 H   0  0  0  0  0  0  0  0  0  0  0  0
    8.8030   -7.0412    2.8268 H   0  0  0  0  0  0  0  0  0  0  0  0
    9.9601   -6.1935    0.7872 H   0  0  0  0  0  0  0  0  0  0  0  0
    8.9276   -4.3696   -0.5870 H   0  0  0  0  0  0  0  0  0  0  0  0
    3.3589   -0.5727   -0.6614 H   0  0  0  0  0  0  0  0  0  0  0  0
    0.6086    1.6025   -1.9295 H   0  0  0  0  0  0  0  0  0  0  0  0
    0.6243    2.4870   -4.2771 H   0  0  0  0  0  0  0  0  0  0  0  0
    2.7257    2.1770   -8.6092 H   0  0  0  0  0  0  0  0  0  0  0  0
    4.4344    3.5831   -9.7817 H   0  0  0  0  0  0  0  0  0  0  0  0
    6.0695    4.9270   -8.4504 H   0  0  0  0  0  0  0  0  0  0  0  0
    5.9708    4.8596   -5.9568 H   0  0  0  0  0  0  0  0  0  0  0  0
    4.2678    3.4688   -4.8018 H   0  0  0  0  0  0  0  0  0  0  0  0
    4.3337    0.4482   -5.0346 H   0  0  0  0  0  0  0  0  0  0  0  0
    4.3346   -0.4231   -2.7022 H   0  0  0  0  0  0  0  0  0  0  0  0
  1  2  2  0
  2  3  1  0
  2 18  1  0
  3  4  1  0
  3 32  1  0
  3 33  1  0
  4  5  1  0
  5  6  2  0
  5  7  1  0
  7  8  2  0
  7 16  1  0
  8  9  1  0
  8 34  1  0
  9 10  2  0
  9 14  1  0
 10 11  1  0
 10 35  1  0
 11 12  2  0
 11 36  1  0
 12 13  1  0
 12 37  1  0
 13 14  2  0
 13 38  1  0
 14 15  1  0
 15 16  1  0
 16 17  2  0
 18 19  1  0
 18 39  1  0
 19 20  2  0
 19 31  1  0
 20 21  1  0
 20 40  1  0
 21 22  2  0
 21 41  1  0
 22 23  1  0
 22 30  1  0
 23 24  1  0
 24 25  2  0
 24 29  1  0
 25 26  1  0
 25 42  1  0
 26 27  2  0
 26 43  1  0
 27 28  1  0
 27 44  1  0
 28 29  2  0
 28 45  1  0
 29 46  1  0
 30 31  2  0
 30 47  1  0
 31 48  1  0
M  END

