
     RDKit          3D

 58 59  0  0  0  0  0  0  0  0999 V2000
    2.3814    1.8067    2.4670 C   0  0  0  0  0  0  0  0  0  0  0  0
    3.3217    1.0220    1.5426 C   0  0  1  0  0  0  0  0  0  0  0  0
    2.6775   -0.3039    1.1154 C   0  0  0  0  0  0  0  0  0  0  0  0
    3.7496    1.8906    0.3443 C   0  0  0  0  0  0  0  0  0  0  0  0
    4.8356    1.2889   -0.5552 C   0  0  0  0  0  0  0  0  0  0  0  0
    5.2652    2.2309   -1.6850 C   0  0  0  0  0  0  0  0  0  0  0  0
    6.4365    1.7245   -2.5466 C   0  0  1  0  0  0  0  0  0  0  0  0
    6.1299    0.4280   -3.3055 C   0  0  0  0  0  0  0  0  0  0  0  0
    6.8614    2.7708   -3.4744 N   0  0  0  0  0  0  0  0  0  0  0  0
    8.1231    3.2906   -3.5069 C   0  0  0  0  0  0  0  0  0  0  0  0
    9.0074    2.9248   -2.7406 O   0  0  0  0  0  0  0  0  0  0  0  0
    8.3644    4.3403   -4.5955 C   0  0  1  0  0  0  0  0  0  0  0  0
    9.0786    5.5946   -4.0417 C   0  0  0  0  0  0  0  0  0  0  0  0
   10.5685    5.3638   -3.7609 C   0  0  0  0  0  0  0  0  0  0  0  0
   11.2484    4.7834   -4.9296 N   0  0  0  0  0  0  0  0  0  0  0  0
   12.0080    5.8093   -6.0050 S   0  0  1  0  0  0  0  0  0  0  0  0
   11.9434    5.2100   -7.3389 O   0  0  0  0  0  0  0  0  0  0  0  0
   11.5528    7.1852   -5.7698 O   0  0  0  0  0  0  0  0  0  0  0  0
   13.7370    5.7754   -5.4877 C   0  0  0  0  0  0  0  0  0  0  0  0
   14.3646    6.9760   -5.1481 C   0  0  0  0  0  0  0  0  0  0  0  0
   15.7114    6.9538   -4.7938 C   0  0  0  0  0  0  0  0  0  0  0  0
   16.3175    8.1013   -4.4641 F   0  0  0  0  0  0  0  0  0  0  0  0
   16.4439    5.7683   -4.7752 C   0  0  0  0  0  0  0  0  0  0  0  0
   15.8112    4.5708   -5.1182 C   0  0  0  0  0  0  0  0  0  0  0  0
   14.4662    4.5808   -5.4760 C   0  0  0  0  0  0  0  0  0  0  0  0
   13.8683    3.4279   -5.7927 F   0  0  0  0  0  0  0  0  0  0  0  0
   10.6537    3.5343   -5.4264 C   0  0  0  0  0  0  0  0  0  0  0  0
    9.1730    3.7284   -5.7682 C   0  0  0  0  0  0  0  0  0  0  0  0
    2.1000    1.2136    3.3523 H   0  0  0  0  0  0  0  0  0  0  0  0
    1.4500    2.0808    1.9418 H   0  0  0  0  0  0  0  0  0  0  0  0
    2.8488    2.7395    2.8223 H   0  0  0  0  0  0  0  0  0  0  0  0
    4.2358    0.7822    2.1194 H   0  0  0  0  0  0  0  0  0  0  0  0
    1.7732   -0.1244    0.5076 H   0  0  0  0  0  0  0  0  0  0  0  0
    2.3734   -0.8964    1.9934 H   0  0  0  0  0  0  0  0  0  0  0  0
    3.3612   -0.9292    0.5205 H   0  0  0  0  0  0  0  0  0  0  0  0
    4.1098    2.8623    0.7282 H   0  0  0  0  0  0  0  0  0  0  0  0
    2.8555    2.1233   -0.2657 H   0  0  0  0  0  0  0  0  0  0  0  0
    4.4785    0.3371   -0.9814 H   0  0  0  0  0  0  0  0  0  0  0  0
    5.7192    1.0359    0.0600 H   0  0  0  0  0  0  0  0  0  0  0  0
    5.5616    3.2028   -1.2544 H   0  0  0  0  0  0  0  0  0  0  0  0
    4.3966    2.4378   -2.3402 H   0  0  0  0  0  0  0  0  0  0  0  0
    7.3092    1.5586   -1.8963 H   0  0  0  0  0  0  0  0  0  0  0  0
    5.2668    0.5563   -3.9821 H   0  0  0  0  0  0  0  0  0  0  0  0
    5.8937   -0.3958   -2.6153 H   0  0  0  0  0  0  0  0  0  0  0  0
    6.9966    0.1215   -3.9106 H   0  0  0  0  0  0  0  0  0  0  0  0
    6.1784    3.1203   -4.1368 H   0  0  0  0  0  0  0  0  0  0  0  0
    7.3840    4.6557   -4.9910 H   0  0  0  0  0  0  0  0  0  0  0  0
    8.5801    5.9418   -3.1215 H   0  0  0  0  0  0  0  0  0  0  0  0
    8.9906    6.4037   -4.7854 H   0  0  0  0  0  0  0  0  0  0  0  0
   10.6915    4.6596   -2.9259 H   0  0  0  0  0  0  0  0  0  0  0  0
   11.0563    6.3110   -3.4972 H   0  0  0  0  0  0  0  0  0  0  0  0
   13.8007    7.9095   -5.1624 H   0  0  0  0  0  0  0  0  0  0  0  0
   17.4976    5.7924   -4.4917 H   0  0  0  0  0  0  0  0  0  0  0  0
   16.3494    3.6210   -5.1128 H   0  0  0  0  0  0  0  0  0  0  0  0
   10.7735    2.7808   -4.6326 H   0  0  0  0  0  0  0  0  0  0  0  0
   11.2142    3.2002   -6.3069 H   0  0  0  0  0  0  0  0  0  0  0  0
    8.7305    2.7648   -6.0731 H   0  0  0  0  0  0  0  0  0  0  0  0
    9.1036    4.4043   -6.6369 H   0  0  0  0  0  0  0  0  0  0  0  0
  1  2  1  0
  1 29  1  0
  1 30  1  0
  1 31  1  0
  2  3  1  0
  2  4  1  0
  2 32  1  1
  3 33  1  0
  3 34  1  0
  3 35  1  0
  4  5  1  0
  4 36  1  0
  4 37  1  0
  5  6  1  0
  5 38  1  0
  5 39  1  0
  6  7  1  0
  6 40  1  0
  6 41  1  0
  7  8  1  0
  7  9  1  0
  7 42  1  1
  8 43  1  0
  8 44  1  0
  8 45  1  0
  9 10  1  0
  9 46  1  0
 10 11  2  0
 10 12  1  0
 12 13  1  0
 12 28  1  0
 12 47  1  6
 13 14  1  0
 13 48  1  0
 13 49  1  0
 14 15  1  0
 14 50  1  0
 14 51  1  0
 15 16  1  0
 15 27  1  0
 16 17  2  0
 16 18  2  0
 16 19  1  1
 19 20  2  0
 19 25  1  0
 20 21  1  0
 20 52  1  0
 21 22  1  0
 21 23  2  0
 23 24  1  0
 23 53  1  0
 24 25  2  0
 24 54  1  0
 25 26  1  0
 27 28  1  0
 27 55  1  0
 27 56  1  0
 28 57  1  0
 28 58  1  0
M  END

