
     RDKit          3D

 51 53  0  0  0  0  0  0  0  0999 V2000
    1.1548   -0.1764   -0.2507 C   0  0  0  0  0  0  0  0  0  0  0  0
    2.6485   -0.0441   -0.0797 C   0  0  0  0  0  0  0  0  0  0  0  0
    3.2456    1.2196   -0.0231 C   0  0  0  0  0  0  0  0  0  0  0  0
    4.6273    1.3981    0.1456 C   0  0  0  0  0  0  0  0  0  0  0  0
    5.4647    0.2561    0.2666 C   0  0  0  0  0  0  0  0  0  0  0  0
    4.8556   -1.0053    0.1822 C   0  0  0  0  0  0  0  0  0  0  0  0
    3.4734   -1.1830    0.0236 C   0  0  0  0  0  0  0  0  0  0  0  0
    2.8889   -2.5742   -0.0378 C   0  0  0  0  0  0  0  0  0  0  0  0
    6.8599    0.4710    0.4189 N   0  0  0  0  0  0  0  0  0  0  0  0
    7.7476   -0.6674    0.6318 C   0  0  0  0  0  0  0  0  0  0  0  0
    7.9966   -1.1102    2.1100 C   0  0  1  0  0  0  0  0  0  0  0  0
    6.7192   -1.5928    2.8202 C   0  0  0  0  0  0  0  0  0  0  0  0
    9.0075   -2.2718    2.0560 C   0  0  0  0  0  0  0  0  0  0  0  0
    8.5983    0.0495    2.9203 C   0  0  0  0  0  0  0  0  0  0  0  0
    7.3087    1.6259   -0.4029 C   0  0  2  0  0  0  0  0  0  0  0  0
    8.8086    1.8395   -0.5110 C   0  0  0  0  0  0  0  0  0  0  0  0
    9.4643    1.5028   -1.7073 C   0  0  0  0  0  0  0  0  0  0  0  0
   10.8350    1.7206   -1.8695 C   0  0  0  0  0  0  0  0  0  0  0  0
   11.5800    2.2896   -0.8330 C   0  0  0  0  0  0  0  0  0  0  0  0
   10.9421    2.6357    0.3616 C   0  0  0  0  0  0  0  0  0  0  0  0
    9.5713    2.4124    0.5208 C   0  0  0  0  0  0  0  0  0  0  0  0
    6.6029    2.8840    0.1322 C   0  0  0  0  0  0  0  0  0  0  0  0
    5.1779    2.6674    0.2100 N   0  0  0  0  0  0  0  0  0  0  0  0
    0.6671    0.8082   -0.3075 H   0  0  0  0  0  0  0  0  0  0  0  0
    0.6939   -0.7288    0.5866 H   0  0  0  0  0  0  0  0  0  0  0  0
    0.8939   -0.7309   -1.1691 H   0  0  0  0  0  0  0  0  0  0  0  0
    2.6163    2.1119   -0.1072 H   0  0  0  0  0  0  0  0  0  0  0  0
    5.4719   -1.8998    0.2535 H   0  0  0  0  0  0  0  0  0  0  0  0
    3.6727   -3.3422    0.0434 H   0  0  0  0  0  0  0  0  0  0  0  0
    2.3461   -2.7540   -0.9825 H   0  0  0  0  0  0  0  0  0  0  0  0
    2.1639   -2.7550    0.7756 H   0  0  0  0  0  0  0  0  0  0  0  0
    8.7292   -0.4064    0.2157 H   0  0  0  0  0  0  0  0  0  0  0  0
    7.4115   -1.5486    0.0529 H   0  0  0  0  0  0  0  0  0  0  0  0
    6.2758   -2.4687    2.3216 H   0  0  0  0  0  0  0  0  0  0  0  0
    5.9533   -0.8046    2.8606 H   0  0  0  0  0  0  0  0  0  0  0  0
    6.9551   -1.8881    3.8563 H   0  0  0  0  0  0  0  0  0  0  0  0
    8.6094   -3.1254    1.4821 H   0  0  0  0  0  0  0  0  0  0  0  0
    9.2434   -2.6346    3.0697 H   0  0  0  0  0  0  0  0  0  0  0  0
    9.9546   -1.9625    1.5829 H   0  0  0  0  0  0  0  0  0  0  0  0
    7.9158    0.9133    2.9305 H   0  0  0  0  0  0  0  0  0  0  0  0
    9.5624    0.3772    2.5012 H   0  0  0  0  0  0  0  0  0  0  0  0
    8.7729   -0.2569    3.9647 H   0  0  0  0  0  0  0  0  0  0  0  0
    6.9428    1.4744   -1.4390 H   0  0  0  0  0  0  0  0  0  0  0  0
    8.8872    1.0613   -2.5248 H   0  0  0  0  0  0  0  0  0  0  0  0
   11.3205    1.4486   -2.8103 H   0  0  0  0  0  0  0  0  0  0  0  0
   12.6518    2.4650   -0.9560 H   0  0  0  0  0  0  0  0  0  0  0  0
   11.5146    3.0844    1.1777 H   0  0  0  0  0  0  0  0  0  0  0  0
    9.0950    2.6859    1.4633 H   0  0  0  0  0  0  0  0  0  0  0  0
    6.8227    3.7325   -0.5396 H   0  0  0  0  0  0  0  0  0  0  0  0
    7.0264    3.1373    1.1219 H   0  0  0  0  0  0  0  0  0  0  0  0
    4.5713    3.4381   -0.0338 H   0  0  0  0  0  0  0  0  0  0  0  0
  1  2  1  0
  1 24  1  0
  1 25  1  0
  1 26  1  0
  2  3  2  0
  2  7  1  0
  3  4  1  0
  3 27  1  0
  4  5  2  0
  4 23  1  0
  5  6  1  0
  5  9  1  0
  6  7  2  0
  6 28  1  0
  7  8  1  0
  8 29  1  0
  8 30  1  0
  8 31  1  0
  9 10  1  0
  9 15  1  0
 11 10  1  6
 10 32  1  0
 10 33  1  0
 11 12  1  0
 11 13  1  0
 11 14  1  0
 12 34  1  0
 12 35  1  0
 12 36  1  0
 13 37  1  0
 13 38  1  0
 13 39  1  0
 14 40  1  0
 14 41  1  0
 14 42  1  0
 15 16  1  0
 15 22  1  0
 15 43  1  6
 16 17  2  0
 16 21  1  0
 17 18  1  0
 17 44  1  0
 18 19  2  0
 18 45  1  0
 19 20  1  0
 19 46  1  0
 20 21  2  0
 20 47  1  0
 21 48  1  0
 22 23  1  0
 22 49  1  0
 22 50  1  0
 23 51  1  0
M  END

