
     RDKit          3D

 29 30  0  0  0  0  0  0  0  0999 V2000
    1.2417    0.4907    0.5312 C   0  0  0  0  0  0  0  0  0  0  0  0
    2.1995    0.0023   -0.3828 O   0  0  0  0  0  0  0  0  0  0  0  0
    2.8783    0.8677   -1.1789 C   0  0  0  0  0  0  0  0  0  0  0  0
    2.7557    2.2614   -1.1055 C   0  0  0  0  0  0  0  0  0  0  0  0
    3.4844    3.0730   -1.9827 C   0  0  0  0  0  0  0  0  0  0  0  0
    4.3295    2.5041   -2.9327 C   0  0  0  0  0  0  0  0  0  0  0  0
    4.4510    1.1104   -2.9973 C   0  0  0  0  0  0  0  0  0  0  0  0
    3.7476    0.2748   -2.1270 C   0  0  0  0  0  0  0  0  0  0  0  0
    3.8603   -1.2428   -2.1902 C   0  0  1  0  0  0  0  0  0  0  0  0
    2.6217   -1.8135   -2.7413 C   0  0  0  0  0  0  0  0  0  0  0  0
    1.6667   -2.2982   -3.1876 N   0  0  0  0  0  0  0  0  0  0  0  0
    5.1148   -1.8762   -2.8935 C   0  0  0  0  0  0  0  0  0  0  0  0
    5.2684   -2.8905   -1.7325 C   0  0  2  0  0  0  0  0  0  0  0  0
    4.8600   -4.2335   -2.0950 N   0  0  0  0  0  0  0  0  0  0  0  0
    4.2951   -2.0104   -0.8859 C   0  0  0  0  0  0  0  0  0  0  0  0
    0.7997   -0.3886    1.0180 H   0  0  0  0  0  0  0  0  0  0  0  0
    0.4432    1.0570    0.0205 H   0  0  0  0  0  0  0  0  0  0  0  0
    1.7010    1.1349    1.3024 H   0  0  0  0  0  0  0  0  0  0  0  0
    2.0928    2.7215   -0.3728 H   0  0  0  0  0  0  0  0  0  0  0  0
    3.3797    4.1591   -1.9175 H   0  0  0  0  0  0  0  0  0  0  0  0
    4.8918    3.1344   -3.6250 H   0  0  0  0  0  0  0  0  0  0  0  0
    5.1050    0.6669   -3.7509 H   0  0  0  0  0  0  0  0  0  0  0  0
    5.9486   -1.1629   -2.9306 H   0  0  0  0  0  0  0  0  0  0  0  0
    4.9605   -2.3069   -3.8930 H   0  0  0  0  0  0  0  0  0  0  0  0
    6.2871   -2.9454   -1.3159 H   0  0  0  0  0  0  0  0  0  0  0  0
    3.9177   -4.2422   -2.4888 H   0  0  0  0  0  0  0  0  0  0  0  0
    4.8382   -4.8368   -1.2722 H   0  0  0  0  0  0  0  0  0  0  0  0
    4.8171   -1.3279   -0.1995 H   0  0  0  0  0  0  0  0  0  0  0  0
    3.4966   -2.5311   -0.3399 H   0  0  0  0  0  0  0  0  0  0  0  0
  1  2  1  0
  1 16  1  0
  1 17  1  0
  1 18  1  0
  2  3  1  0
  3  4  2  0
  3  8  1  0
  4  5  1  0
  4 19  1  0
  5  6  2  0
  5 20  1  0
  6  7  1  0
  6 21  1  0
  7  8  2  0
  7 22  1  0
  8  9  1  0
  9 10  1  6
  9 12  1  0
  9 15  1  0
 10 11  3  0
 12 13  1  0
 12 23  1  0
 12 24  1  0
 13 14  1  0
 13 15  1  0
 13 25  1  1
 14 26  1  0
 14 27  1  0
 15 28  1  0
 15 29  1  0
M  END

