
     RDKit          3D

 46 49  0  0  0  0  0  0  0  0999 V2000
    2.2104   -1.1475   -1.0924 C   0  0  0  0  0  0  0  0  0  0  0  0
    3.3923   -0.8051   -0.1959 C   0  0  1  0  0  0  0  0  0  0  0  0
    4.7040   -0.7118   -0.9777 C   0  0  0  0  0  0  0  0  0  0  0  0
    3.1611    0.4495    0.7022 C   0  0  0  0  0  0  0  0  0  0  0  0
    3.6759   -0.0093    2.0463 C   0  0  0  0  0  0  0  0  0  0  0  0
    3.9676    0.6684    3.2303 C   0  0  0  0  0  0  0  0  0  0  0  0
    4.4301   -0.0692    4.3274 C   0  0  0  0  0  0  0  0  0  0  0  0
    4.5919   -1.4603    4.2457 C   0  0  0  0  0  0  0  0  0  0  0  0
    4.2932   -2.1458    3.0597 C   0  0  0  0  0  0  0  0  0  0  0  0
    4.4045   -3.4966    2.8776 O   0  0  0  0  0  0  0  0  0  0  0  0
    5.4198   -4.1901    3.5733 C   0  0  0  0  0  0  0  0  0  0  0  0
    5.5317   -5.6465    3.1053 C   0  0  0  0  0  0  0  0  0  0  0  0
    5.5555   -6.5249    3.9541 O   0  0  0  0  0  0  0  0  0  0  0  0
    5.6556   -5.9156    1.7634 N   0  0  0  0  0  0  0  0  0  0  0  0
    5.8293   -7.3075    1.3534 C   0  0  0  0  0  0  0  0  0  0  0  0
    4.7675   -7.6878    0.3212 C   0  0  0  0  0  0  0  0  0  0  0  0
    4.7510   -6.6891   -0.8082 C   0  0  0  0  0  0  0  0  0  0  0  0
    4.2831   -6.9797   -2.0957 C   0  0  0  0  0  0  0  0  0  0  0  0
    4.2955   -6.0950   -3.0920 N   0  0  0  0  0  0  0  0  0  0  0  0
    4.7954   -4.8925   -2.8007 C   0  0  0  0  0  0  0  0  0  0  0  0
    5.2732   -4.4984   -1.6223 N   0  0  0  0  0  0  0  0  0  0  0  0
    5.2464   -5.3884   -0.6220 C   0  0  0  0  0  0  0  0  0  0  0  0
    5.7947   -4.9168    0.7081 C   0  0  0  0  0  0  0  0  0  0  0  0
    3.8363   -1.3932    1.9687 C   0  0  0  0  0  0  0  0  0  0  0  0
    3.5447   -1.9165    0.7555 O   0  0  0  0  0  0  0  0  0  0  0  0
    2.0348   -0.3412   -1.8219 H   0  0  0  0  0  0  0  0  0  0  0  0
    1.2968   -1.2832   -0.4940 H   0  0  0  0  0  0  0  0  0  0  0  0
    2.4039   -2.0792   -1.6450 H   0  0  0  0  0  0  0  0  0  0  0  0
    4.6302    0.0491   -1.7711 H   0  0  0  0  0  0  0  0  0  0  0  0
    4.9463   -1.6862   -1.4281 H   0  0  0  0  0  0  0  0  0  0  0  0
    5.5323   -0.4295   -0.3087 H   0  0  0  0  0  0  0  0  0  0  0  0
    2.0888    0.7085    0.7588 H   0  0  0  0  0  0  0  0  0  0  0  0
    3.6900    1.3314    0.3083 H   0  0  0  0  0  0  0  0  0  0  0  0
    3.8474    1.7522    3.3011 H   0  0  0  0  0  0  0  0  0  0  0  0
    4.6722    0.4393    5.2635 H   0  0  0  0  0  0  0  0  0  0  0  0
    4.9523   -2.0130    5.1149 H   0  0  0  0  0  0  0  0  0  0  0  0
    5.2083   -4.2566    4.6515 H   0  0  0  0  0  0  0  0  0  0  0  0
    6.3958   -3.6807    3.4426 H   0  0  0  0  0  0  0  0  0  0  0  0
    5.7620   -7.9262    2.2551 H   0  0  0  0  0  0  0  0  0  0  0  0
    6.8397   -7.4407    0.9213 H   0  0  0  0  0  0  0  0  0  0  0  0
    3.7793   -7.7168    0.8138 H   0  0  0  0  0  0  0  0  0  0  0  0
    4.9573   -8.7017   -0.0682 H   0  0  0  0  0  0  0  0  0  0  0  0
    3.8882   -7.9788   -2.3238 H   0  0  0  0  0  0  0  0  0  0  0  0
    4.8172   -4.1559   -3.6132 H   0  0  0  0  0  0  0  0  0  0  0  0
    5.2507   -4.0034    0.9759 H   0  0  0  0  0  0  0  0  0  0  0  0
    6.8568   -4.6393    0.5509 H   0  0  0  0  0  0  0  0  0  0  0  0
  2  1  1  6
  1 26  1  0
  1 27  1  0
  1 28  1  0
  2  3  1  0
  2  4  1  0
  2 25  1  0
  3 29  1  0
  3 30  1  0
  3 31  1  0
  4  5  1  0
  4 32  1  0
  4 33  1  0
  5  6  2  0
  5 24  1  0
  6  7  1  0
  6 34  1  0
  7  8  2  0
  7 35  1  0
  8  9  1  0
  8 36  1  0
  9 10  1  0
  9 24  2  0
 10 11  1  0
 11 12  1  0
 11 37  1  0
 11 38  1  0
 12 13  2  0
 12 14  1  0
 14 15  1  0
 14 23  1  0
 15 16  1  0
 15 39  1  0
 15 40  1  0
 16 17  1  0
 16 41  1  0
 16 42  1  0
 17 18  2  0
 17 22  1  0
 18 19  1  0
 18 43  1  0
 19 20  2  0
 20 21  1  0
 20 44  1  0
 21 22  2  0
 22 23  1  0
 23 45  1  0
 23 46  1  0
 24 25  1  0
M  END

