
     RDKit          3D

 42 45  0  0  0  0  0  0  0  0999 V2000
    1.2838   -0.1283    0.5530 O   0  0  0  0  0  0  0  0  0  0  0  0
    2.6507    0.1744    0.1149 S   0  0  2  0  0  0  0  0  0  0  0  0
    3.6953    0.5649    1.0676 O   0  0  0  0  0  0  0  0  0  0  0  0
    2.5887    1.4237   -1.2800 C   0  0  0  0  0  0  0  0  0  0  0  0
    3.4238    0.7185   -2.3317 C   0  0  2  0  0  0  0  0  0  0  0  0
    3.4376    1.0754   -3.7453 N   0  0  0  0  0  0  0  0  0  0  0  0
    3.6312   -0.0477   -4.3485 C   0  0  0  0  0  0  0  0  0  0  0  0
    3.9288   -0.2198   -6.0774 S   0  0  0  0  0  0  0  0  0  0  0  0
    4.0095    1.5717   -6.5381 C   0  0  0  0  0  0  0  0  0  0  0  0
    4.3104    1.6945   -8.0079 C   0  0  0  0  0  0  0  0  0  0  0  0
    3.2726    1.7906   -8.9491 C   0  0  0  0  0  0  0  0  0  0  0  0
    3.5436    1.8935  -10.3148 C   0  0  0  0  0  0  0  0  0  0  0  0
    4.8709    1.8945  -10.7380 C   0  0  0  0  0  0  0  0  0  0  0  0
    5.1399    1.9945  -12.0469 F   0  0  0  0  0  0  0  0  0  0  0  0
    5.9258    1.7972   -9.8325 C   0  0  0  0  0  0  0  0  0  0  0  0
    5.6367    1.6951   -8.4710 C   0  0  0  0  0  0  0  0  0  0  0  0
    3.6457   -1.2067   -3.5387 N   0  0  0  0  0  0  0  0  0  0  0  0
    3.4398   -2.5311   -4.0372 C   0  0  0  0  0  0  0  0  0  0  0  0
    4.3827   -3.5242   -3.7391 C   0  0  0  0  0  0  0  0  0  0  0  0
    4.1979   -4.8362   -4.1768 C   0  0  0  0  0  0  0  0  0  0  0  0
    3.0619   -5.1540   -4.9278 C   0  0  0  0  0  0  0  0  0  0  0  0
    2.8263   -6.7913   -5.4856 Cl  0  0  0  0  0  0  0  0  0  0  0  0
    2.1127   -4.1749   -5.2387 C   0  0  0  0  0  0  0  0  0  0  0  0
    2.3022   -2.8680   -4.7878 C   0  0  0  0  0  0  0  0  0  0  0  0
    2.9840   -0.7499   -2.3125 C   0  0  1  0  0  0  0  0  0  0  0  0
    3.2812   -1.2656   -0.9206 C   0  0  0  0  0  0  0  0  0  0  0  0
    3.0118    2.3548   -0.8831 H   0  0  0  0  0  0  0  0  0  0  0  0
    1.5329    1.5478   -1.5562 H   0  0  0  0  0  0  0  0  0  0  0  0
    4.4762    0.7497   -1.9758 H   0  0  0  0  0  0  0  0  0  0  0  0
    4.7825    2.0345   -5.9105 H   0  0  0  0  0  0  0  0  0  0  0  0
    3.0465    2.0251   -6.2696 H   0  0  0  0  0  0  0  0  0  0  0  0
    2.2337    1.7892   -8.6085 H   0  0  0  0  0  0  0  0  0  0  0  0
    2.7446    1.9743  -11.0542 H   0  0  0  0  0  0  0  0  0  0  0  0
    6.9528    1.8042  -10.2025 H   0  0  0  0  0  0  0  0  0  0  0  0
    6.4582    1.6164   -7.7539 H   0  0  0  0  0  0  0  0  0  0  0  0
    5.2710   -3.2545   -3.1644 H   0  0  0  0  0  0  0  0  0  0  0  0
    4.9315   -5.6103   -3.9468 H   0  0  0  0  0  0  0  0  0  0  0  0
    1.2323   -4.4394   -5.8264 H   0  0  0  0  0  0  0  0  0  0  0  0
    1.5620   -2.1019   -5.0279 H   0  0  0  0  0  0  0  0  0  0  0  0
    1.8828   -0.7984   -2.4604 H   0  0  0  0  0  0  0  0  0  0  0  0
    4.3520   -1.3732   -0.7027 H   0  0  0  0  0  0  0  0  0  0  0  0
    2.7120   -2.1462   -0.5977 H   0  0  0  0  0  0  0  0  0  0  0  0
  1  2  2  0
  2  3  2  0
  2  4  1  6
  2 26  1  0
  4  5  1  0
  4 27  1  0
  4 28  1  0
  5  6  1  0
  5 25  1  0
  5 29  1  1
  6  7  2  0
  7  8  1  0
  7 17  1  0
  8  9  1  0
  9 10  1  0
  9 30  1  0
  9 31  1  0
 10 11  2  0
 10 16  1  0
 11 12  1  0
 11 32  1  0
 12 13  2  0
 12 33  1  0
 13 14  1  0
 13 15  1  0
 15 16  2  0
 15 34  1  0
 16 35  1  0
 17 18  1  0
 17 25  1  0
 18 19  2  0
 18 24  1  0
 19 20  1  0
 19 36  1  0
 20 21  2  0
 20 37  1  0
 21 22  1  0
 21 23  1  0
 23 24  2  0
 23 38  1  0
 24 39  1  0
 25 26  1  0
 25 40  1  6
 26 41  1  0
 26 42  1  0
M  END

