
     RDKit          3D

 42 43  0  0  0  0  0  0  0  0999 V2000
    6.0227    2.8075   -1.2277 C   0  0  0  0  0  0  0  0  0  0  0  0
    5.8766    2.0597    0.0838 C   0  0  0  0  0  0  0  0  0  0  0  0
    6.3383    0.7331   -0.1117 O   0  0  0  0  0  0  0  0  0  0  0  0
    6.3112   -0.1500    0.9199 C   0  0  0  0  0  0  0  0  0  0  0  0
    5.8533    0.1464    2.2099 C   0  0  0  0  0  0  0  0  0  0  0  0
    5.8813   -0.8580    3.1877 C   0  0  0  0  0  0  0  0  0  0  0  0
    6.3509   -2.1350    2.8983 C   0  0  0  0  0  0  0  0  0  0  0  0
    6.8126   -2.4400    1.6023 C   0  0  0  0  0  0  0  0  0  0  0  0
    7.3195   -3.8670    1.3234 C   0  0  1  0  0  0  0  0  0  0  0  0
    8.1858   -3.9648    0.0541 C   0  0  0  0  0  0  0  0  0  0  0  0
    8.0995   -4.3039    2.4382 O   0  0  0  0  0  0  0  0  0  0  0  0
    6.1376   -4.8420    1.2059 C   0  0  0  0  0  0  0  0  0  0  0  0
    5.0770   -4.5797    0.3255 C   0  0  0  0  0  0  0  0  0  0  0  0
    4.0224   -5.4826    0.1851 C   0  0  0  0  0  0  0  0  0  0  0  0
    3.9847   -6.6782    0.9205 C   0  0  0  0  0  0  0  0  0  0  0  0
    2.8585   -7.6734    0.7397 C   0  0  0  0  0  0  0  0  0  0  0  0
    3.1216   -8.6938   -0.3790 C   0  0  0  0  0  0  0  0  0  0  0  0
    5.0457   -6.9314    1.8011 C   0  0  0  0  0  0  0  0  0  0  0  0
    6.1068   -6.0322    1.9438 C   0  0  0  0  0  0  0  0  0  0  0  0
    6.7907   -1.4416    0.6278 C   0  0  0  0  0  0  0  0  0  0  0  0
    5.6736    3.8457   -1.1160 H   0  0  0  0  0  0  0  0  0  0  0  0
    5.4300    2.3236   -2.0191 H   0  0  0  0  0  0  0  0  0  0  0  0
    7.0752    2.8260   -1.5497 H   0  0  0  0  0  0  0  0  0  0  0  0
    4.8198    2.0488    0.4124 H   0  0  0  0  0  0  0  0  0  0  0  0
    6.4638    2.5515    0.8828 H   0  0  0  0  0  0  0  0  0  0  0  0
    5.4788    1.1378    2.4644 H   0  0  0  0  0  0  0  0  0  0  0  0
    5.5235   -0.6274    4.1949 H   0  0  0  0  0  0  0  0  0  0  0  0
    6.3716   -2.9085    3.6673 H   0  0  0  0  0  0  0  0  0  0  0  0
    9.0358   -3.2643    0.1044 H   0  0  0  0  0  0  0  0  0  0  0  0
    7.6152   -3.7494   -0.8605 H   0  0  0  0  0  0  0  0  0  0  0  0
    8.5779   -4.9889   -0.0224 H   0  0  0  0  0  0  0  0  0  0  0  0
    8.7953   -3.6483    2.5794 H   0  0  0  0  0  0  0  0  0  0  0  0
    5.0629   -3.6494   -0.2481 H   0  0  0  0  0  0  0  0  0  0  0  0
    3.2045   -5.2475   -0.5030 H   0  0  0  0  0  0  0  0  0  0  0  0
    1.9228   -7.1306    0.5220 H   0  0  0  0  0  0  0  0  0  0  0  0
    2.6907   -8.2109    1.6883 H   0  0  0  0  0  0  0  0  0  0  0  0
    3.2630   -8.1914   -1.3495 H   0  0  0  0  0  0  0  0  0  0  0  0
    2.2798   -9.3981   -0.4808 H   0  0  0  0  0  0  0  0  0  0  0  0
    4.0322   -9.2799   -0.1755 H   0  0  0  0  0  0  0  0  0  0  0  0
    5.0425   -7.8506    2.3956 H   0  0  0  0  0  0  0  0  0  0  0  0
    6.9186   -6.2461    2.6388 H   0  0  0  0  0  0  0  0  0  0  0  0
    7.1406   -1.6197   -0.3892 H   0  0  0  0  0  0  0  0  0  0  0  0
  1  2  1  0
  1 21  1  0
  1 22  1  0
  1 23  1  0
  2  3  1  0
  2 24  1  0
  2 25  1  0
  3  4  1  0
  4  5  2  0
  4 20  1  0
  5  6  1  0
  5 26  1  0
  6  7  2  0
  6 27  1  0
  7  8  1  0
  7 28  1  0
  8  9  1  0
  8 20  2  0
  9 10  1  0
  9 11  1  1
  9 12  1  0
 10 29  1  0
 10 30  1  0
 10 31  1  0
 11 32  1  0
 12 13  2  0
 12 19  1  0
 13 14  1  0
 13 33  1  0
 14 15  2  0
 14 34  1  0
 15 16  1  0
 15 18  1  0
 16 17  1  0
 16 35  1  0
 16 36  1  0
 17 37  1  0
 17 38  1  0
 17 39  1  0
 18 19  2  0
 18 40  1  0
 19 41  1  0
 20 42  1  0
M  END

