
     RDKit          3D

 59 63  0  0  0  0  0  0  0  0999 V2000
   -1.0082   -9.3263   -8.9742 C   0  0  0  0  0  0  0  0  0  0  0  0
   -0.6235   -8.9252   -7.5909 C   0  0  0  0  0  0  0  0  0  0  0  0
   -1.4170   -8.6971   -6.6167 N   0  0  0  0  0  0  0  0  0  0  0  0
   -0.5930   -8.3081   -5.4760 C   0  0  1  0  0  0  0  0  0  0  0  0
   -0.8958   -9.1914   -4.2742 C   0  0  0  0  0  0  0  0  0  0  0  0
   -0.0682   -9.4024   -3.4057 O   0  0  0  0  0  0  0  0  0  0  0  0
   -2.2726   -9.8155   -4.1481 C   0  0  0  0  0  0  0  0  0  0  0  0
   -2.4446  -10.4143   -2.9040 O   0  0  0  0  0  0  0  0  0  0  0  0
    0.8861   -8.4621   -5.9838 C   0  0  2  0  0  0  0  0  0  0  0  0
    1.6200   -7.1356   -5.7278 C   0  0  0  0  0  0  0  0  0  0  0  0
    0.7600   -6.4892   -4.6298 C   0  0  1  0  0  0  0  0  0  0  0  0
    0.9980   -5.0312   -4.2117 C   0  0  2  0  0  0  0  0  0  0  0  0
    0.7183   -4.3650   -5.0444 H   0  0  0  0  0  0  0  0  0  0  0  0
    2.4740   -4.7537   -3.9183 C   0  0  0  0  0  0  0  0  0  0  0  0
    2.6945   -3.2867   -3.5346 C   0  0  1  0  0  0  0  0  0  0  0  0
    3.7571   -3.1383   -3.2659 H   0  0  0  0  0  0  0  0  0  0  0  0
    2.3521   -2.4186   -4.6225 O   0  0  0  0  0  0  0  0  0  0  0  0
    1.8536   -2.9515   -2.3338 C   0  0  0  0  0  0  0  0  0  0  0  0
    2.4680   -2.3698   -1.2497 C   0  0  0  0  0  0  0  0  0  0  0  0
    1.7908   -2.1418   -0.0193 C   0  0  0  0  0  0  0  0  0  0  0  0
    2.3677   -1.5543    0.9859 O   0  0  0  0  0  0  0  0  0  0  0  0
    0.4427   -2.6351    0.1094 C   0  0  0  0  0  0  0  0  0  0  0  0
   -0.1930   -3.1969   -0.9507 C   0  0  0  0  0  0  0  0  0  0  0  0
    0.3596   -3.2623   -2.3620 C   0  0  1  0  0  0  0  0  0  0  0  0
   -0.3751   -2.1496   -3.1846 C   0  0  0  0  0  0  0  0  0  0  0  0
    0.0886   -4.7011   -2.9875 C   0  0  1  0  0  0  0  0  0  0  0  0
   -1.3852   -4.9695   -3.3775 C   0  0  2  0  0  0  0  0  0  0  0  0
   -2.2332   -4.7485   -2.2568 O   0  0  0  0  0  0  0  0  0  0  0  0
   -1.6144   -6.4061   -3.8924 C   0  0  0  0  0  0  0  0  0  0  0  0
   -0.6998   -6.7653   -5.0730 C   0  0  2  0  0  0  0  0  0  0  0  0
   -1.1242   -5.9616   -6.3192 C   0  0  0  0  0  0  0  0  0  0  0  0
    0.7116   -8.7879   -7.3763 O   0  0  0  0  0  0  0  0  0  0  0  0
   -2.0973   -9.4294   -9.0441 H   0  0  0  0  0  0  0  0  0  0  0  0
   -0.6595   -8.5715   -9.6969 H   0  0  0  0  0  0  0  0  0  0  0  0
   -0.5233  -10.2787   -9.2400 H   0  0  0  0  0  0  0  0  0  0  0  0
   -2.3730  -10.5314   -4.9912 H   0  0  0  0  0  0  0  0  0  0  0  0
   -3.0387   -9.0410   -4.3404 H   0  0  0  0  0  0  0  0  0  0  0  0
   -1.5659  -10.4023   -2.4841 H   0  0  0  0  0  0  0  0  0  0  0  0
    1.4009   -9.3054   -5.5011 H   0  0  0  0  0  0  0  0  0  0  0  0
    1.6363   -6.5348   -6.6499 H   0  0  0  0  0  0  0  0  0  0  0  0
    2.6618   -7.2999   -5.4190 H   0  0  0  0  0  0  0  0  0  0  0  0
    0.9211   -7.1022   -3.7244 H   0  0  0  0  0  0  0  0  0  0  0  0
    3.0872   -4.9926   -4.8055 H   0  0  0  0  0  0  0  0  0  0  0  0
    2.8362   -5.4007   -3.1001 H   0  0  0  0  0  0  0  0  0  0  0  0
    2.9272   -2.6376   -5.3691 H   0  0  0  0  0  0  0  0  0  0  0  0
    3.5225   -2.0904   -1.3024 H   0  0  0  0  0  0  0  0  0  0  0  0
   -0.0398   -2.5621    1.0857 H   0  0  0  0  0  0  0  0  0  0  0  0
   -1.2014   -3.5857   -0.8150 H   0  0  0  0  0  0  0  0  0  0  0  0
   -0.1057   -1.1636   -2.7799 H   0  0  0  0  0  0  0  0  0  0  0  0
   -1.4660   -2.2659   -3.0980 H   0  0  0  0  0  0  0  0  0  0  0  0
   -0.0745   -2.1677   -4.2413 H   0  0  0  0  0  0  0  0  0  0  0  0
    0.3489   -5.4256   -2.1945 H   0  0  0  0  0  0  0  0  0  0  0  0
   -1.6517   -4.2568   -4.1785 H   0  0  0  0  0  0  0  0  0  0  0  0
   -3.1452   -4.9130   -2.5301 H   0  0  0  0  0  0  0  0  0  0  0  0
   -2.6779   -6.5070   -4.1757 H   0  0  0  0  0  0  0  0  0  0  0  0
   -1.4425   -7.0793   -3.0377 H   0  0  0  0  0  0  0  0  0  0  0  0
   -1.1082   -4.8808   -6.1262 H   0  0  0  0  0  0  0  0  0  0  0  0
   -2.1445   -6.2412   -6.6162 H   0  0  0  0  0  0  0  0  0  0  0  0
   -0.4739   -6.1444   -7.1862 H   0  0  0  0  0  0  0  0  0  0  0  0
  1  2  1  0
  1 33  1  0
  1 34  1  0
  1 35  1  0
  2  3  2  0
  2 32  1  0
  3  4  1  0
  4  5  1  1
  4  9  1  0
  4 30  1  0
  5  6  2  0
  5  7  1  0
  7  8  1  0
  7 36  1  0
  7 37  1  0
  8 38  1  0
  9 10  1  0
  9 32  1  0
  9 39  1  1
 10 11  1  0
 10 40  1  0
 10 41  1  0
 11 12  1  0
 11 30  1  0
 11 42  1  1
 12 13  1  6
 12 14  1  0
 12 26  1  0
 14 15  1  0
 14 43  1  0
 14 44  1  0
 15 16  1  1
 15 17  1  0
 15 18  1  0
 17 45  1  0
 18 19  2  0
 18 24  1  0
 19 20  1  0
 19 46  1  0
 20 21  2  0
 20 22  1  0
 22 23  2  0
 22 47  1  0
 23 24  1  0
 23 48  1  0
 24 25  1  6
 24 26  1  0
 25 49  1  0
 25 50  1  0
 25 51  1  0
 26 27  1  0
 26 52  1  1
 27 28  1  0
 27 29  1  0
 27 53  1  6
 28 54  1  0
 29 30  1  0
 29 55  1  0
 29 56  1  0
 30 31  1  6
 31 57  1  0
 31 58  1  0
 31 59  1  0
M  END

