
     RDKit          3D

 45 46  0  0  0  0  0  0  0  0999 V2000
    1.2120   -4.4684   -4.1924 C   0  0  0  0  0  0  0  0  0  0  0  0
    0.8020   -5.9063   -4.0939 C   0  0  0  0  0  0  0  0  0  0  0  0
    0.7985   -6.6810   -5.3028 C   0  0  0  0  0  0  0  0  0  0  0  0
    0.4445   -8.0548   -5.2785 C   0  0  0  0  0  0  0  0  0  0  0  0
    0.4456   -8.7741   -6.4646 N   0  0  0  0  0  0  0  0  0  0  0  0
    0.6589   -8.1869   -7.7854 C   0  0  0  0  0  0  0  0  0  0  0  0
    0.2557   -9.2976   -8.7612 C   0  0  0  0  0  0  0  0  0  0  0  0
    0.6000  -10.5761   -7.9862 C   0  0  0  0  0  0  0  0  0  0  0  0
    0.2218  -10.2152   -6.5457 C   0  0  0  0  0  0  0  0  0  0  0  0
    0.0897   -8.7003   -4.0708 C   0  0  0  0  0  0  0  0  0  0  0  0
    0.0968   -7.9527   -2.8563 C   0  0  0  0  0  0  0  0  0  0  0  0
    0.4534   -6.5832   -2.8788 C   0  0  0  0  0  0  0  0  0  0  0  0
    0.4820   -5.8332   -1.7053 N   0  0  0  0  0  0  0  0  0  0  0  0
    0.1701   -6.1582   -0.4074 C   0  0  0  0  0  0  0  0  0  0  0  0
   -0.2209   -7.2426   -0.0076 O   0  0  0  0  0  0  0  0  0  0  0  0
    0.3888   -4.9890    0.5801 C   0  0  2  0  0  0  0  0  0  0  0  0
   -0.4656   -5.0538    1.2798 H   0  0  0  0  0  0  0  0  0  0  0  0
    0.4433   -3.7062   -0.1289 N   0  0  0  0  0  0  0  0  0  0  0  0
    1.6779   -5.1922    1.4277 C   0  0  1  0  0  0  0  0  0  0  0  0
    1.5486   -6.3637    2.4076 C   0  0  0  0  0  0  0  0  0  0  0  0
    2.9461   -5.3109    0.5713 C   0  0  0  0  0  0  0  0  0  0  0  0
    0.6428   -3.9494   -4.9915 H   0  0  0  0  0  0  0  0  0  0  0  0
    2.2830   -4.3526   -4.4734 H   0  0  0  0  0  0  0  0  0  0  0  0
    1.0627   -3.8766   -3.2764 H   0  0  0  0  0  0  0  0  0  0  0  0
    1.1362   -6.2091   -6.2246 H   0  0  0  0  0  0  0  0  0  0  0  0
    1.7235   -7.9083   -7.9080 H   0  0  0  0  0  0  0  0  0  0  0  0
    0.0673   -7.2655   -7.8942 H   0  0  0  0  0  0  0  0  0  0  0  0
    0.7752   -9.2157   -9.7270 H   0  0  0  0  0  0  0  0  0  0  0  0
   -0.8282   -9.2514   -8.9594 H   0  0  0  0  0  0  0  0  0  0  0  0
    1.6812  -10.7835   -8.0529 H   0  0  0  0  0  0  0  0  0  0  0  0
    0.0668  -11.4669   -8.3486 H   0  0  0  0  0  0  0  0  0  0  0  0
    0.8213  -10.7387   -5.7853 H   0  0  0  0  0  0  0  0  0  0  0  0
   -0.8411  -10.4438   -6.3358 H   0  0  0  0  0  0  0  0  0  0  0  0
   -0.2388   -9.7380   -4.0574 H   0  0  0  0  0  0  0  0  0  0  0  0
   -0.1763   -8.4134   -1.9124 H   0  0  0  0  0  0  0  0  0  0  0  0
    0.7713   -4.8572   -1.7789 H   0  0  0  0  0  0  0  0  0  0  0  0
    0.8984   -2.9931    0.4398 H   0  0  0  0  0  0  0  0  0  0  0  0
   -0.4942   -3.3640   -0.3387 H   0  0  0  0  0  0  0  0  0  0  0  0
    1.7639   -4.2669    2.0315 H   0  0  0  0  0  0  0  0  0  0  0  0
    1.4109   -7.3152    1.8740 H   0  0  0  0  0  0  0  0  0  0  0  0
    0.6835   -6.2351    3.0776 H   0  0  0  0  0  0  0  0  0  0  0  0
    2.4530   -6.4393    3.0327 H   0  0  0  0  0  0  0  0  0  0  0  0
    2.9502   -6.2485   -0.0080 H   0  0  0  0  0  0  0  0  0  0  0  0
    3.8427   -5.3147    1.2115 H   0  0  0  0  0  0  0  0  0  0  0  0
    3.0427   -4.4753   -0.1388 H   0  0  0  0  0  0  0  0  0  0  0  0
  1  2  1  0
  1 22  1  0
  1 23  1  0
  1 24  1  0
  2  3  2  0
  2 12  1  0
  3  4  1  0
  3 25  1  0
  4  5  1  0
  4 10  2  0
  5  6  1  0
  5  9  1  0
  6  7  1  0
  6 26  1  0
  6 27  1  0
  7  8  1  0
  7 28  1  0
  7 29  1  0
  8  9  1  0
  8 30  1  0
  8 31  1  0
  9 32  1  0
  9 33  1  0
 10 11  1  0
 10 34  1  0
 11 12  2  0
 11 35  1  0
 12 13  1  0
 13 14  1  0
 13 36  1  0
 14 15  2  0
 14 16  1  0
 16 17  1  1
 16 18  1  0
 16 19  1  0
 18 37  1  0
 18 38  1  0
 19 20  1  0
 19 21  1  0
 19 39  1  1
 20 40  1  0
 20 41  1  0
 20 42  1  0
 21 43  1  0
 21 44  1  0
 21 45  1  0
M  END

