
     RDKit          3D

 35 36  0  0  0  0  0  0  0  0999 V2000
    2.3521    0.2770    2.2337 C   0  0  0  0  0  0  0  0  0  0  0  0
    2.6535    0.1665    0.7311 C   0  0  0  0  0  0  0  0  0  0  0  0
    2.9374   -1.2573    0.3074 C   0  0  0  0  0  0  0  0  0  0  0  0
    4.2310   -1.6121    0.3513 N   0  0  0  0  0  0  0  0  0  0  0  0
    4.5517   -2.8576   -0.0145 C   0  0  0  0  0  0  0  0  0  0  0  0
    5.9885   -3.2553   -0.0284 C   0  0  0  0  0  0  0  0  0  0  0  0
    6.3282   -4.5868    0.2723 C   0  0  0  0  0  0  0  0  0  0  0  0
    7.6484   -5.0272    0.3043 C   0  0  0  0  0  0  0  0  0  0  0  0
    8.6666   -4.1180    0.0016 C   0  0  0  0  0  0  0  0  0  0  0  0
   10.3342   -4.6451    0.0226 Cl  0  0  0  0  0  0  0  0  0  0  0  0
    8.3675   -2.7994   -0.3356 C   0  0  0  0  0  0  0  0  0  0  0  0
    7.0346   -2.3614   -0.3550 C   0  0  0  0  0  0  0  0  0  0  0  0
    6.7727   -1.0957   -0.7846 O   0  0  0  0  0  0  0  0  0  0  0  0
    7.0230   -0.0396    0.1287 C   0  0  0  0  0  0  0  0  0  0  0  0
    3.6710   -3.8060   -0.3213 N   0  0  0  0  0  0  0  0  0  0  0  0
    2.3557   -3.5189   -0.3283 C   0  0  0  0  0  0  0  0  0  0  0  0
    1.5692   -4.5974   -0.6198 N   0  0  0  0  0  0  0  0  0  0  0  0
    0.2022   -4.8866   -0.2235 C   0  0  0  0  0  0  0  0  0  0  0  0
    1.9456   -2.1805   -0.0713 C   0  0  0  0  0  0  0  0  0  0  0  0
   -0.0613   -1.5066   -0.3921 I   0  0  0  0  0  0  0  0  0  0  0  0
    2.2071    1.3298    2.5229 H   0  0  0  0  0  0  0  0  0  0  0  0
    3.1851   -0.1286    2.8291 H   0  0  0  0  0  0  0  0  0  0  0  0
    1.4383   -0.2759    2.5032 H   0  0  0  0  0  0  0  0  0  0  0  0
    3.5523    0.7531    0.4925 H   0  0  0  0  0  0  0  0  0  0  0  0
    1.8181    0.5839    0.1507 H   0  0  0  0  0  0  0  0  0  0  0  0
    5.5178   -5.2824    0.4944 H   0  0  0  0  0  0  0  0  0  0  0  0
    7.8924   -6.0598    0.5570 H   0  0  0  0  0  0  0  0  0  0  0  0
    9.1601   -2.1047   -0.6156 H   0  0  0  0  0  0  0  0  0  0  0  0
    6.8244    0.8983   -0.4086 H   0  0  0  0  0  0  0  0  0  0  0  0
    8.0733   -0.0374    0.4732 H   0  0  0  0  0  0  0  0  0  0  0  0
    6.3479   -0.1106    0.9967 H   0  0  0  0  0  0  0  0  0  0  0  0
    2.1554   -5.4047   -0.8037 H   0  0  0  0  0  0  0  0  0  0  0  0
   -0.0334   -4.4855    0.7749 H   0  0  0  0  0  0  0  0  0  0  0  0
    0.0903   -5.9801   -0.1798 H   0  0  0  0  0  0  0  0  0  0  0  0
   -0.5453   -4.4993   -0.9326 H   0  0  0  0  0  0  0  0  0  0  0  0
  1  2  1  0
  1 21  1  0
  1 22  1  0
  1 23  1  0
  2  3  1  0
  2 24  1  0
  2 25  1  0
  3  4  2  0
  3 19  1  0
  4  5  1  0
  5  6  1  0
  5 15  2  0
  6  7  2  0
  6 12  1  0
  7  8  1  0
  7 26  1  0
  8  9  2  0
  8 27  1  0
  9 10  1  0
  9 11  1  0
 11 12  2  0
 11 28  1  0
 12 13  1  0
 13 14  1  0
 14 29  1  0
 14 30  1  0
 14 31  1  0
 15 16  1  0
 16 17  1  0
 16 19  2  0
 17 18  1  0
 17 32  1  0
 18 33  1  0
 18 34  1  0
 18 35  1  0
 19 20  1  0
M  END

