
     RDKit          3D

 30 31  0  0  0  0  0  0  0  0999 V2000
    2.3212    0.1669   -3.1897 C   0  0  0  0  0  0  0  0  0  0  0  0
    3.5080   -0.3292   -2.3543 C   0  0  0  0  0  0  0  0  0  0  0  0
    3.4936   -1.8103   -2.1467 C   0  0  0  0  0  0  0  0  0  0  0  0
    4.4665   -2.5939   -2.5429 N   0  0  0  0  0  0  0  0  0  0  0  0
    4.0458   -3.8635   -2.1631 O   0  0  0  0  0  0  0  0  0  0  0  0
    2.8507   -3.7160   -1.5766 C   0  0  0  0  0  0  0  0  0  0  0  0
    2.1546   -4.9283   -1.0633 C   0  0  0  0  0  0  0  0  0  0  0  0
    2.8825   -5.4151    0.5557 S   0  0  0  0  0  0  0  0  0  0  0  0
    2.0005   -6.9087    0.9400 C   0  0  0  0  0  0  0  0  0  0  0  0
    2.4127   -7.5942    2.1025 C   0  0  0  0  0  0  0  0  0  0  0  0
    1.7787   -8.7692    2.4925 C   0  0  0  0  0  0  0  0  0  0  0  0
    0.7330   -9.2655    1.7197 C   0  0  0  0  0  0  0  0  0  0  0  0
    0.1379  -10.4180    2.1264 F   0  0  0  0  0  0  0  0  0  0  0  0
    0.2924   -8.6207    0.5614 C   0  0  0  0  0  0  0  0  0  0  0  0
   -0.8337   -9.0854   -0.3368 C   0  0  0  0  0  0  0  0  0  0  0  0
   -1.1491   -8.4656   -1.3198 O   0  0  0  0  0  0  0  0  0  0  0  0
   -1.4718  -10.2150   -0.0008 O   0  0  0  0  0  0  0  0  0  0  0  0
    0.9443   -7.4317    0.1884 C   0  0  0  0  0  0  0  0  0  0  0  0
    2.4554   -2.4804   -1.5338 N   0  0  0  0  0  0  0  0  0  0  0  0
    2.3437    1.2637   -3.2793 H   0  0  0  0  0  0  0  0  0  0  0  0
    1.3673   -0.1208   -2.7222 H   0  0  0  0  0  0  0  0  0  0  0  0
    2.3441   -0.2581   -4.2055 H   0  0  0  0  0  0  0  0  0  0  0  0
    3.4875    0.1515   -1.3611 H   0  0  0  0  0  0  0  0  0  0  0  0
    4.4655   -0.0618   -2.8254 H   0  0  0  0  0  0  0  0  0  0  0  0
    2.2735   -5.7567   -1.7772 H   0  0  0  0  0  0  0  0  0  0  0  0
    1.0906   -4.6864   -0.9414 H   0  0  0  0  0  0  0  0  0  0  0  0
    3.2385   -7.2045    2.7029 H   0  0  0  0  0  0  0  0  0  0  0  0
    2.0852   -9.3127    3.3879 H   0  0  0  0  0  0  0  0  0  0  0  0
   -1.1046  -10.5987    0.8117 H   0  0  0  0  0  0  0  0  0  0  0  0
    0.5695   -6.9537   -0.7158 H   0  0  0  0  0  0  0  0  0  0  0  0
  1  2  1  0
  1 20  1  0
  1 21  1  0
  1 22  1  0
  2  3  1  0
  2 23  1  0
  2 24  1  0
  3  4  2  0
  3 19  1  0
  4  5  1  0
  5  6  1  0
  6  7  1  0
  6 19  2  0
  7  8  1  0
  7 25  1  0
  7 26  1  0
  8  9  1  0
  9 10  2  0
  9 18  1  0
 10 11  1  0
 10 27  1  0
 11 12  2  0
 11 28  1  0
 12 13  1  0
 12 14  1  0
 14 15  1  0
 14 18  2  0
 15 16  2  0
 15 17  1  0
 17 29  1  0
 18 30  1  0
M  END

