
     RDKit          3D

 78 84  0  0  0  0  0  0  0  0999 V2000
    0.5094   -0.5303   -0.2736 N   0  0  0  0  0  0  0  0  0  0  0  0
    1.9578   -0.3468   -0.2539 C   0  0  0  0  0  0  0  0  0  0  0  0
    2.5551   -0.8337    1.0660 C   0  0  0  0  0  0  0  0  0  0  0  0
    4.0806   -0.7313    1.1306 C   0  0  0  0  0  0  0  0  0  0  0  0
    4.6769   -1.2099    2.4578 C   0  0  0  0  0  0  0  0  0  0  0  0
    6.2046   -1.1227    2.5186 C   0  0  0  0  0  0  0  0  0  0  0  0
    6.8020   -1.5974    3.8466 C   0  0  0  0  0  0  0  0  0  0  0  0
    8.3309   -1.5254    3.9004 C   0  0  0  0  0  0  0  0  0  0  0  0
    8.9288   -1.9968    5.2293 C   0  0  0  0  0  0  0  0  0  0  0  0
   10.4590   -1.9493    5.2719 C   0  0  0  0  0  0  0  0  0  0  0  0
   11.0563   -2.4173    6.6024 C   0  0  0  0  0  0  0  0  0  0  0  0
   12.5872   -2.4035    6.6232 C   0  0  0  0  0  0  0  0  0  0  0  0
   13.1553   -2.8692    7.9668 C   0  0  0  0  0  0  0  0  0  0  0  0
   14.6264   -2.9028    7.9902 N   0  0  0  0  0  0  0  0  0  0  0  0
   15.2523   -4.0873    7.5791 C   0  0  0  0  0  0  0  0  0  0  0  0
   14.5976   -5.0519    7.2137 O   0  0  0  0  0  0  0  0  0  0  0  0
   16.7324   -4.1085    7.6146 C   0  0  0  0  0  0  0  0  0  0  0  0
   17.4094   -5.2784    7.2327 C   0  0  0  0  0  0  0  0  0  0  0  0
   18.7934   -5.3275    7.2563 C   0  0  0  0  0  0  0  0  0  0  0  0
   19.5757   -4.2058    7.6619 C   0  0  0  0  0  0  0  0  0  0  0  0
   21.0201   -4.2444    7.6911 C   0  0  0  0  0  0  0  0  0  0  0  0
   21.7532   -5.4088    7.3176 C   0  0  0  0  0  0  0  0  0  0  0  0
   23.1376   -5.4358    7.3484 C   0  0  0  0  0  0  0  0  0  0  0  0
   23.8619   -4.3037    7.7526 C   0  0  0  0  0  0  0  0  0  0  0  0
   23.1775   -3.1188    8.1349 C   0  0  0  0  0  0  0  0  0  0  0  0
   23.9078   -1.9710    8.5448 C   0  0  0  0  0  0  0  0  0  0  0  0
   23.2288   -0.8020    8.9214 C   0  0  0  0  0  0  0  0  0  0  0  0
   21.8447   -0.7559    8.8977 C   0  0  0  0  0  0  0  0  0  0  0  0
   21.0665   -1.8805    8.4948 C   0  0  0  0  0  0  0  0  0  0  0  0
   19.6218   -1.8430    8.4673 C   0  0  0  0  0  0  0  0  0  0  0  0
   18.8838   -0.6814    8.8422 C   0  0  0  0  0  0  0  0  0  0  0  0
   17.4991   -0.6582    8.8124 C   0  0  0  0  0  0  0  0  0  0  0  0
   16.7769   -1.7930    8.4076 C   0  0  0  0  0  0  0  0  0  0  0  0
   17.4678   -2.9694    8.0255 C   0  0  0  0  0  0  0  0  0  0  0  0
   18.8989   -3.0063    8.0515 C   0  0  0  0  0  0  0  0  0  0  0  0
   15.2970   -1.7380    8.3875 C   0  0  0  0  0  0  0  0  0  0  0  0
   14.6800   -0.7318    8.7028 O   0  0  0  0  0  0  0  0  0  0  0  0
   21.7451   -3.0809    8.1067 C   0  0  0  0  0  0  0  0  0  0  0  0
   25.3885   -1.9903    8.5807 C   0  0  0  0  0  0  0  0  0  0  0  0
   26.0714   -1.0402    8.9221 O   0  0  0  0  0  0  0  0  0  0  0  0
   25.9723   -3.1925    8.1899 N   0  0  0  0  0  0  0  0  0  0  0  0
   25.3418   -4.3625    7.7748 C   0  0  0  0  0  0  0  0  0  0  0  0
   25.9866   -5.3473    7.4589 O   0  0  0  0  0  0  0  0  0  0  0  0
    0.1251   -0.2455   -1.1745 H   0  0  0  0  0  0  0  0  0  0  0  0
    0.0703    0.0751    0.4221 H   0  0  0  0  0  0  0  0  0  0  0  0
    2.2871    0.7024   -0.4300 H   0  0  0  0  0  0  0  0  0  0  0  0
    2.3874   -0.9396   -1.0814 H   0  0  0  0  0  0  0  0  0  0  0  0
    2.2337   -1.8776    1.2262 H   0  0  0  0  0  0  0  0  0  0  0  0
    2.1139   -0.2502    1.8970 H   0  0  0  0  0  0  0  0  0  0  0  0
    4.3888    0.3158    0.9510 H   0  0  0  0  0  0  0  0  0  0  0  0
    4.5206   -1.3180    0.3026 H   0  0  0  0  0  0  0  0  0  0  0  0
    4.3632   -2.2542    2.6415 H   0  0  0  0  0  0  0  0  0  0  0  0
    4.2438   -0.6187    3.2862 H   0  0  0  0  0  0  0  0  0  0  0  0
    6.5189   -0.0790    2.3303 H   0  0  0  0  0  0  0  0  0  0  0  0
    6.6365   -1.7174    1.6920 H   0  0  0  0  0  0  0  0  0  0  0  0
    6.4795   -2.6376    4.0396 H   0  0  0  0  0  0  0  0  0  0  0  0
    6.3784   -0.9962    4.6728 H   0  0  0  0  0  0  0  0  0  0  0  0
    8.6553   -0.4866    3.7030 H   0  0  0  0  0  0  0  0  0  0  0  0
    8.7528   -2.1309    3.0765 H   0  0  0  0  0  0  0  0  0  0  0  0
    8.5914   -3.0300    5.4341 H   0  0  0  0  0  0  0  0  0  0  0  0
    8.5203   -1.3810    6.0522 H   0  0  0  0  0  0  0  0  0  0  0  0
   10.8000   -0.9184    5.0625 H   0  0  0  0  0  0  0  0  0  0  0  0
   10.8655   -2.5712    4.4529 H   0  0  0  0  0  0  0  0  0  0  0  0
   10.6979   -3.4400    6.8223 H   0  0  0  0  0  0  0  0  0  0  0  0
   10.6707   -1.7801    7.4198 H   0  0  0  0  0  0  0  0  0  0  0  0
   12.9546   -1.3844    6.4132 H   0  0  0  0  0  0  0  0  0  0  0  0
   12.9729   -3.0606    5.8251 H   0  0  0  0  0  0  0  0  0  0  0  0
   12.8097   -3.8868    8.1904 H   0  0  0  0  0  0  0  0  0  0  0  0
   12.8375   -2.1905    8.7687 H   0  0  0  0  0  0  0  0  0  0  0  0
   16.8153   -6.1388    6.9203 H   0  0  0  0  0  0  0  0  0  0  0  0
   19.2855   -6.2511    6.9545 H   0  0  0  0  0  0  0  0  0  0  0  0
   21.2224   -6.3049    6.9989 H   0  0  0  0  0  0  0  0  0  0  0  0
   23.6956   -6.3291    7.0618 H   0  0  0  0  0  0  0  0  0  0  0  0
   23.8214    0.0610    9.2304 H   0  0  0  0  0  0  0  0  0  0  0  0
   21.3496    0.1671    9.1965 H   0  0  0  0  0  0  0  0  0  0  0  0
   19.4113    0.2163    9.1620 H   0  0  0  0  0  0  0  0  0  0  0  0
   16.9393    0.2332    9.1002 H   0  0  0  0  0  0  0  0  0  0  0  0
   26.9901   -3.2192    8.2097 H   0  0  0  0  0  0  0  0  0  0  0  0
  1  2  1  0
  1 44  1  0
  1 45  1  0
  2  3  1  0
  2 46  1  0
  2 47  1  0
  3  4  1  0
  3 48  1  0
  3 49  1  0
  4  5  1  0
  4 50  1  0
  4 51  1  0
  5  6  1  0
  5 52  1  0
  5 53  1  0
  6  7  1  0
  6 54  1  0
  6 55  1  0
  7  8  1  0
  7 56  1  0
  7 57  1  0
  8  9  1  0
  8 58  1  0
  8 59  1  0
  9 10  1  0
  9 60  1  0
  9 61  1  0
 10 11  1  0
 10 62  1  0
 10 63  1  0
 11 12  1  0
 11 64  1  0
 11 65  1  0
 12 13  1  0
 12 66  1  0
 12 67  1  0
 13 14  1  0
 13 68  1  0
 13 69  1  0
 14 15  1  0
 14 36  1  0
 15 16  2  0
 15 17  1  0
 17 18  1  0
 17 34  2  0
 18 19  2  0
 18 70  1  0
 19 20  1  0
 19 71  1  0
 20 21  1  0
 20 35  2  0
 21 22  2  0
 21 38  1  0
 22 23  1  0
 22 72  1  0
 23 24  2  0
 23 73  1  0
 24 25  1  0
 24 42  1  0
 25 26  1  0
 25 38  2  0
 26 27  2  0
 26 39  1  0
 27 28  1  0
 27 74  1  0
 28 29  2  0
 28 75  1  0
 29 30  1  0
 29 38  1  0
 30 31  2  0
 30 35  1  0
 31 32  1  0
 31 76  1  0
 32 33  2  0
 32 77  1  0
 33 34  1  0
 33 36  1  0
 34 35  1  0
 36 37  2  0
 39 40  2  0
 39 41  1  0
 41 42  1  0
 41 78  1  0
 42 43  2  0
M  END

