
     RDKit          3D

 63 66  0  0  0  0  0  0  0  0999 V2000
    4.8939    3.6016   -1.1659 C   0  0  0  0  0  0  0  0  0  0  0  0
    6.0912    4.4306   -0.6994 C   0  0  0  0  0  0  0  0  0  0  0  0
    7.1757    3.5970   -0.0099 C   0  0  0  0  0  0  0  0  0  0  0  0
    8.3773    4.4300    0.4451 C   0  0  0  0  0  0  0  0  0  0  0  0
    9.4456    3.6489    1.2200 C   0  0  0  0  0  0  0  0  0  0  0  0
   10.0927    2.5809    0.4495 N   0  0  0  0  0  0  0  0  0  0  0  0
    9.6808    1.1779    0.6555 C   0  0  0  0  0  0  0  0  0  0  0  0
    8.7907    0.9277    1.4521 O   0  0  0  0  0  0  0  0  0  0  0  0
   10.4612    0.3318   -0.1913 C   0  0  0  0  0  0  0  0  0  0  0  0
   10.1989   -1.0389   -0.2197 C   0  0  0  0  0  0  0  0  0  0  0  0
   10.7292   -2.1594   -0.8725 C   0  0  0  0  0  0  0  0  0  0  0  0
   10.1509   -3.4825   -0.6850 C   0  0  0  0  0  0  0  0  0  0  0  0
    8.8681   -3.6195   -0.1741 N   0  0  0  0  0  0  0  0  0  0  0  0
    8.4540   -4.9232    0.3370 C   0  0  0  0  0  0  0  0  0  0  0  0
    7.3324   -4.7355    1.3645 C   0  0  2  0  0  0  0  0  0  0  0  0
    6.7772   -6.0568    1.8701 C   0  0  0  0  0  0  0  0  0  0  0  0
    6.2517   -4.0043    0.8014 O   0  0  0  0  0  0  0  0  0  0  0  0
    6.6241   -2.7286    0.2998 C   0  0  2  0  0  0  0  0  0  0  0  0
    5.3758   -2.0739   -0.2679 C   0  0  0  0  0  0  0  0  0  0  0  0
    7.7340   -2.8838   -0.7429 C   0  0  0  0  0  0  0  0  0  0  0  0
   10.8196   -4.5878   -0.9409 N   0  0  0  0  0  0  0  0  0  0  0  0
   12.0487   -4.5347   -1.4872 C   0  0  0  0  0  0  0  0  0  0  0  0
   12.7988   -5.6977   -1.7130 C   0  0  0  0  0  0  0  0  0  0  0  0
   14.0382   -5.6630   -2.3418 C   0  0  0  0  0  0  0  0  0  0  0  0
   14.5676   -4.4149   -2.7854 C   0  0  0  0  0  0  0  0  0  0  0  0
   15.9012   -4.3487   -3.4833 C   0  0  0  0  0  0  0  0  0  0  0  0
   13.8369   -3.2788   -2.5609 C   0  0  0  0  0  0  0  0  0  0  0  0
   12.6017   -3.3112   -1.9104 N   0  0  0  0  0  0  0  0  0  0  0  0
   11.9620   -2.0771   -1.6324 C   0  0  0  0  0  0  0  0  0  0  0  0
   12.5034   -1.0296   -1.9873 O   0  0  0  0  0  0  0  0  0  0  0  0
   11.6463    1.2800   -1.1519 S   0  0  0  0  0  0  0  0  0  0  0  0
   11.0676    2.7433   -0.4318 C   0  0  0  0  0  0  0  0  0  0  0  0
   11.7447    4.2965   -0.8196 S   0  0  0  0  0  0  0  0  0  0  0  0
    4.1315    4.2309   -1.6518 H   0  0  0  0  0  0  0  0  0  0  0  0
    4.4105    3.0852   -0.3199 H   0  0  0  0  0  0  0  0  0  0  0  0
    5.1995    2.8293   -1.8916 H   0  0  0  0  0  0  0  0  0  0  0  0
    5.7452    5.2212   -0.0084 H   0  0  0  0  0  0  0  0  0  0  0  0
    6.5324    4.9606   -1.5633 H   0  0  0  0  0  0  0  0  0  0  0  0
    7.5158    2.8051   -0.7008 H   0  0  0  0  0  0  0  0  0  0  0  0
    6.7470    3.0666    0.8581 H   0  0  0  0  0  0  0  0  0  0  0  0
    8.0354    5.2410    1.1125 H   0  0  0  0  0  0  0  0  0  0  0  0
    8.8364    4.9317   -0.4250 H   0  0  0  0  0  0  0  0  0  0  0  0
    8.9956    3.1409    2.0840 H   0  0  0  0  0  0  0  0  0  0  0  0
   10.2350    4.3249    1.5877 H   0  0  0  0  0  0  0  0  0  0  0  0
    9.3896   -1.2673    0.4807 H   0  0  0  0  0  0  0  0  0  0  0  0
    9.3196   -5.4187    0.7936 H   0  0  0  0  0  0  0  0  0  0  0  0
    8.0974   -5.5760   -0.4848 H   0  0  0  0  0  0  0  0  0  0  0  0
    7.7523   -4.1561    2.2140 H   0  0  0  0  0  0  0  0  0  0  0  0
    6.3633   -6.6450    1.0358 H   0  0  0  0  0  0  0  0  0  0  0  0
    5.9682   -5.8735    2.5925 H   0  0  0  0  0  0  0  0  0  0  0  0
    7.5623   -6.6500    2.3640 H   0  0  0  0  0  0  0  0  0  0  0  0
    7.0215   -2.1108    1.1324 H   0  0  0  0  0  0  0  0  0  0  0  0
    4.9796   -2.6613   -1.1113 H   0  0  0  0  0  0  0  0  0  0  0  0
    5.5926   -1.0523   -0.6162 H   0  0  0  0  0  0  0  0  0  0  0  0
    4.5965   -2.0213    0.5065 H   0  0  0  0  0  0  0  0  0  0  0  0
    8.0535   -1.9027   -1.1119 H   0  0  0  0  0  0  0  0  0  0  0  0
    7.3267   -3.4506   -1.6059 H   0  0  0  0  0  0  0  0  0  0  0  0
   12.3457   -6.6312   -1.3783 H   0  0  0  0  0  0  0  0  0  0  0  0
   14.6010   -6.5843   -2.5047 H   0  0  0  0  0  0  0  0  0  0  0  0
   15.8944   -4.9523   -4.4066 H   0  0  0  0  0  0  0  0  0  0  0  0
   16.7020   -4.7533   -2.8417 H   0  0  0  0  0  0  0  0  0  0  0  0
   16.1697   -3.3172   -3.7530 H   0  0  0  0  0  0  0  0  0  0  0  0
   14.1521   -2.2779   -2.8474 H   0  0  0  0  0  0  0  0  0  0  0  0
  1  2  1  0
  1 34  1  0
  1 35  1  0
  1 36  1  0
  2  3  1  0
  2 37  1  0
  2 38  1  0
  3  4  1  0
  3 39  1  0
  3 40  1  0
  4  5  1  0
  4 41  1  0
  4 42  1  0
  5  6  1  0
  5 43  1  0
  5 44  1  0
  6  7  1  0
  6 32  1  0
  7  8  2  0
  7  9  1  0
  9 10  2  0
  9 31  1  0
 10 11  1  0
 10 45  1  0
 11 12  2  0
 11 29  1  0
 12 13  1  0
 12 21  1  0
 13 14  1  0
 13 20  1  0
 14 15  1  0
 14 46  1  0
 14 47  1  0
 15 16  1  0
 15 17  1  0
 15 48  1  1
 16 49  1  0
 16 50  1  0
 16 51  1  0
 17 18  1  0
 18 19  1  0
 18 20  1  0
 18 52  1  1
 19 53  1  0
 19 54  1  0
 19 55  1  0
 20 56  1  0
 20 57  1  0
 21 22  2  0
 22 23  1  0
 22 28  1  0
 23 24  2  0
 23 58  1  0
 24 25  1  0
 24 59  1  0
 25 26  1  0
 25 27  2  0
 26 60  1  0
 26 61  1  0
 26 62  1  0
 27 28  1  0
 27 63  1  0
 28 29  1  0
 29 30  2  0
 31 32  1  0
 32 33  2  0
M  END

