
     RDKit          3D

 40 41  0  0  0  0  0  0  0  0999 V2000
    1.4828    0.7337   -0.8076 C   0  0  0  0  0  0  0  0  0  0  0  0
    2.9343    0.4374   -0.5361 C   0  0  0  0  0  0  0  0  0  0  0  0
    3.9050    1.4313   -0.6823 C   0  0  0  0  0  0  0  0  0  0  0  0
    5.2574    1.1666   -0.4305 C   0  0  0  0  0  0  0  0  0  0  0  0
    6.1191    2.2139   -0.6039 O   0  0  0  0  0  0  0  0  0  0  0  0
    7.4999    2.0384   -0.3628 C   0  0  0  0  0  0  0  0  0  0  0  0
    8.2811    3.3317   -0.6057 C   0  0  0  0  0  0  0  0  0  0  0  0
    9.4760    3.3672   -0.4266 O   0  0  0  0  0  0  0  0  0  0  0  0
    7.5010    4.3846   -1.0286 N   0  0  0  0  0  0  0  0  0  0  0  0
    8.0324    5.5946   -1.2843 N   0  0  0  0  0  0  0  0  0  0  0  0
    7.2483    6.5270   -1.6821 C   0  0  0  0  0  0  0  0  0  0  0  0
    7.7384    7.8751   -1.9806 C   0  0  0  0  0  0  0  0  0  0  0  0
    9.0975    8.2083   -1.8294 C   0  0  0  0  0  0  0  0  0  0  0  0
    9.5236    9.4955   -2.1195 C   0  0  0  0  0  0  0  0  0  0  0  0
   11.3690    9.9639   -1.9181 Br  0  0  0  0  0  0  0  0  0  0  0  0
    8.6418   10.5057   -2.5688 C   0  0  0  0  0  0  0  0  0  0  0  0
    9.0364   11.7532   -2.8534 O   0  0  0  0  0  0  0  0  0  0  0  0
    7.2865   10.1508   -2.7146 C   0  0  0  0  0  0  0  0  0  0  0  0
    6.0515   11.4616   -3.3190 Br  0  0  0  0  0  0  0  0  0  0  0  0
    6.8437    8.8620   -2.4256 C   0  0  0  0  0  0  0  0  0  0  0  0
    5.6551   -0.1113   -0.0264 C   0  0  0  0  0  0  0  0  0  0  0  0
    4.7086   -1.1383    0.1312 C   0  0  0  0  0  0  0  0  0  0  0  0
    5.1429   -2.5139    0.5656 C   0  0  0  0  0  0  0  0  0  0  0  0
    3.3620   -0.8415   -0.1273 C   0  0  0  0  0  0  0  0  0  0  0  0
    2.1607   -2.1122    0.0663 Cl  0  0  0  0  0  0  0  0  0  0  0  0
    1.3436    1.7797   -1.1150 H   0  0  0  0  0  0  0  0  0  0  0  0
    0.8658    0.5474    0.0862 H   0  0  0  0  0  0  0  0  0  0  0  0
    1.0859    0.0803   -1.6014 H   0  0  0  0  0  0  0  0  0  0  0  0
    3.6168    2.4366   -0.9967 H   0  0  0  0  0  0  0  0  0  0  0  0
    7.9326    1.2654   -1.0236 H   0  0  0  0  0  0  0  0  0  0  0  0
    7.6942    1.7310    0.6805 H   0  0  0  0  0  0  0  0  0  0  0  0
    6.4988    4.2151   -1.1403 H   0  0  0  0  0  0  0  0  0  0  0  0
    6.1639    6.3520   -1.8167 H   0  0  0  0  0  0  0  0  0  0  0  0
    9.7978    7.4468   -1.4848 H   0  0  0  0  0  0  0  0  0  0  0  0
    9.9947   11.8231   -2.6996 H   0  0  0  0  0  0  0  0  0  0  0  0
    5.7849    8.6267   -2.5505 H   0  0  0  0  0  0  0  0  0  0  0  0
    6.7025   -0.3374    0.1736 H   0  0  0  0  0  0  0  0  0  0  0  0
    6.2298   -2.5559    0.7232 H   0  0  0  0  0  0  0  0  0  0  0  0
    4.8698   -3.2719   -0.1863 H   0  0  0  0  0  0  0  0  0  0  0  0
    4.6429   -2.8108    1.5017 H   0  0  0  0  0  0  0  0  0  0  0  0
  1  2  1  0
  1 26  1  0
  1 27  1  0
  1 28  1  0
  2  3  2  0
  2 24  1  0
  3  4  1  0
  3 29  1  0
  4  5  1  0
  4 21  2  0
  5  6  1  0
  6  7  1  0
  6 30  1  0
  6 31  1  0
  7  8  2  0
  7  9  1  0
  9 10  1  0
  9 32  1  0
 10 11  2  0
 11 12  1  0
 11 33  1  0
 12 13  2  0
 12 20  1  0
 13 14  1  0
 13 34  1  0
 14 15  1  0
 14 16  2  0
 16 17  1  0
 16 18  1  0
 17 35  1  0
 18 19  1  0
 18 20  2  0
 20 36  1  0
 21 22  1  0
 21 37  1  0
 22 23  1  0
 22 24  2  0
 23 38  1  0
 23 39  1  0
 23 40  1  0
 24 25  1  0
M  END

