
     RDKit          3D

 27 28  0  0  0  0  0  0  0  0999 V2000
    3.4273    0.7956   -1.4786 C   0  0  0  0  0  0  0  0  0  0  0  0
    2.5333    0.3981   -0.2896 C   0  0  2  0  0  0  0  0  0  0  0  0
    1.4885    0.5980   -0.5821 H   0  0  0  0  0  0  0  0  0  0  0  0
    2.8613    1.2125    0.9417 C   0  0  0  0  0  0  0  0  0  0  0  0
    3.5754    0.7042    1.9522 C   0  0  0  0  0  0  0  0  0  0  0  0
    4.0849   -0.7086    1.9286 C   0  0  0  0  0  0  0  0  0  0  0  0
    3.9423   -1.3320    0.6669 O   0  0  0  0  0  0  0  0  0  0  0  0
    2.6810   -1.1026    0.0331 C   0  0  1  0  0  0  0  0  0  0  0  0
    1.5439   -1.7537    0.8251 C   0  0  0  0  0  0  0  0  0  0  0  0
    0.3629   -1.0999    1.2018 C   0  0  0  0  0  0  0  0  0  0  0  0
   -0.6391   -1.7778    1.9068 C   0  0  0  0  0  0  0  0  0  0  0  0
   -0.4740   -3.1203    2.2514 C   0  0  0  0  0  0  0  0  0  0  0  0
    0.7037   -3.7833    1.8880 C   0  0  0  0  0  0  0  0  0  0  0  0
    1.6990   -3.1051    1.1838 C   0  0  0  0  0  0  0  0  0  0  0  0
    4.4702    0.5070   -1.2784 H   0  0  0  0  0  0  0  0  0  0  0  0
    3.3996    1.8829   -1.6527 H   0  0  0  0  0  0  0  0  0  0  0  0
    3.1009    0.2955   -2.4055 H   0  0  0  0  0  0  0  0  0  0  0  0
    2.5161    2.2515    0.9765 H   0  0  0  0  0  0  0  0  0  0  0  0
    3.7982    1.2997    2.8441 H   0  0  0  0  0  0  0  0  0  0  0  0
    3.5784   -1.2994    2.7225 H   0  0  0  0  0  0  0  0  0  0  0  0
    5.1636   -0.7327    2.1608 H   0  0  0  0  0  0  0  0  0  0  0  0
    2.7673   -1.6543   -0.9178 H   0  0  0  0  0  0  0  0  0  0  0  0
    0.2115   -0.0482    0.9537 H   0  0  0  0  0  0  0  0  0  0  0  0
   -1.5526   -1.2479    2.1895 H   0  0  0  0  0  0  0  0  0  0  0  0
   -1.2570   -3.6486    2.8015 H   0  0  0  0  0  0  0  0  0  0  0  0
    0.8452   -4.8344    2.1535 H   0  0  0  0  0  0  0  0  0  0  0  0
    2.6221   -3.6210    0.9072 H   0  0  0  0  0  0  0  0  0  0  0  0
  1  2  1  0
  1 15  1  0
  1 16  1  0
  1 17  1  0
  2  3  1  6
  2  4  1  0
  2  8  1  0
  4  5  2  0
  4 18  1  0
  5  6  1  0
  5 19  1  0
  6  7  1  0
  6 20  1  0
  6 21  1  0
  7  8  1  0
  8  9  1  0
  8 22  1  6
  9 10  2  0
  9 14  1  0
 10 11  1  0
 10 23  1  0
 11 12  2  0
 11 24  1  0
 12 13  1  0
 12 25  1  0
 13 14  2  0
 13 26  1  0
 14 27  1  0
M  END

