
     RDKit          3D

190192  0  0  0  0  0  0  0  0999 V2000
   18.3854   -3.2247  -10.0802 C   0  0  0  0  0  0  0  0  0  0  0  0
   17.9562   -1.8063   -9.7023 C   0  0  0  0  0  0  0  0  0  0  0  0
   16.6705   -1.7556   -8.8707 C   0  0  0  0  0  0  0  0  0  0  0  0
   16.2333   -0.3387   -8.4886 C   0  0  0  0  0  0  0  0  0  0  0  0
   14.9495   -0.2883   -7.6551 C   0  0  0  0  0  0  0  0  0  0  0  0
   14.5163    1.1305   -7.2740 C   0  0  0  0  0  0  0  0  0  0  0  0
   13.2340    1.1755   -6.4389 C   0  0  0  0  0  0  0  0  0  0  0  0
   12.8215    2.5912   -6.0667 C   0  0  0  0  0  0  0  0  0  0  0  0
   11.6360    2.5187   -5.2932 O   0  0  0  0  0  0  0  0  0  0  0  0
   11.0614    3.6530   -4.8298 C   0  0  0  0  0  0  0  0  0  0  0  0
   11.5512    4.9376   -5.0620 C   0  0  0  0  0  0  0  0  0  0  0  0
   10.9200    6.1053   -4.5508 C   0  0  0  0  0  0  0  0  0  0  0  0
   11.4165    7.4308   -4.7772 C   0  0  0  0  0  0  0  0  0  0  0  0
   12.4763    7.7791   -5.6008 C   0  0  0  0  0  0  0  0  0  0  0  0
   12.9922    9.0951   -5.7940 C   0  0  0  0  0  0  0  0  0  0  0  0
   12.5296   10.2326   -5.0725 C   0  0  0  0  0  0  0  0  0  0  0  0
   13.0391   11.5067   -5.2694 C   0  0  0  0  0  0  0  0  0  0  0  0
   12.5780   12.5931   -4.6050 O   0  0  0  0  0  0  0  0  0  0  0  0
   11.4956   12.4747   -3.6924 C   0  0  0  0  0  0  0  0  0  0  0  0
   11.1116   13.8640   -3.2062 C   0  0  0  0  0  0  0  0  0  0  0  0
   10.5678   14.7828   -4.3043 C   0  0  0  0  0  0  0  0  0  0  0  0
   10.1969   16.1816   -3.8044 C   0  0  0  0  0  0  0  0  0  0  0  0
    9.6408   17.0992   -4.8970 C   0  0  0  0  0  0  0  0  0  0  0  0
    9.2797   18.5039   -4.4057 C   0  0  0  0  0  0  0  0  0  0  0  0
    8.7288   19.4228   -5.5005 C   0  0  0  0  0  0  0  0  0  0  0  0
    8.3672   20.8226   -5.0017 C   0  0  0  0  0  0  0  0  0  0  0  0
   14.0957   11.7426   -6.2296 C   0  0  0  0  0  0  0  0  0  0  0  0
   14.7097   13.0031   -6.5044 C   0  0  0  0  0  0  0  0  0  0  0  0
   14.6338   14.2039   -5.8166 C   0  0  0  0  0  0  0  0  0  0  0  0
   15.2692   15.4282   -6.2184 C   0  0  0  0  0  0  0  0  0  0  0  0
   15.8429   15.6261   -7.5038 C   0  0  0  0  0  0  0  0  0  0  0  0
   16.4612   16.8181   -7.8800 C   0  0  0  0  0  0  0  0  0  0  0  0
   17.0070   17.0495   -9.0958 O   0  0  0  0  0  0  0  0  0  0  0  0
   16.9421   16.0593  -10.1080 C   0  0  0  0  0  0  0  0  0  0  0  0
   17.5861   16.6282  -11.3631 C   0  0  0  0  0  0  0  0  0  0  0  0
   17.5615   15.6562  -12.5453 C   0  0  0  0  0  0  0  0  0  0  0  0
   18.1877   16.2340  -13.8184 C   0  0  0  0  0  0  0  0  0  0  0  0
   18.1615   15.2769  -15.0135 C   0  0  0  0  0  0  0  0  0  0  0  0
   18.7762   15.8630  -16.2879 C   0  0  0  0  0  0  0  0  0  0  0  0
   18.7486   14.9114  -17.4880 C   0  0  0  0  0  0  0  0  0  0  0  0
   19.3581   15.5094  -18.7569 C   0  0  0  0  0  0  0  0  0  0  0  0
   16.5166   17.8722   -6.9381 C   0  0  0  0  0  0  0  0  0  0  0  0
   17.3410   19.5153   -7.4074 Br  0  0  0  0  0  0  0  0  0  0  0  0
   15.9608   17.7231   -5.6632 C   0  0  0  0  0  0  0  0  0  0  0  0
   15.3416   16.5259   -5.2947 C   0  0  0  0  0  0  0  0  0  0  0  0
   14.7975   16.3203   -4.0702 O   0  0  0  0  0  0  0  0  0  0  0  0
   14.9174   17.3086   -3.0591 C   0  0  0  0  0  0  0  0  0  0  0  0
   14.3208   16.7579   -1.7733 C   0  0  0  0  0  0  0  0  0  0  0  0
   14.4155   17.7405   -0.6029 C   0  0  0  0  0  0  0  0  0  0  0  0
   13.8305   17.1902    0.7016 C   0  0  0  0  0  0  0  0  0  0  0  0
   13.9210   18.1635    1.8803 C   0  0  0  0  0  0  0  0  0  0  0  0
   13.3449   17.6085    3.1863 C   0  0  0  0  0  0  0  0  0  0  0  0
   13.4349   18.5790    4.3681 C   0  0  0  0  0  0  0  0  0  0  0  0
   12.8637   18.0134    5.6692 C   0  0  0  0  0  0  0  0  0  0  0  0
   14.5421   10.6022   -6.9672 C   0  0  0  0  0  0  0  0  0  0  0  0
   14.0344    9.3313   -6.7678 C   0  0  0  0  0  0  0  0  0  0  0  0
   14.4540    8.2342   -7.4455 O   0  0  0  0  0  0  0  0  0  0  0  0
   15.4808    8.3392   -8.4170 C   0  0  0  0  0  0  0  0  0  0  0  0
   15.7263    6.9585   -9.0053 C   0  0  0  0  0  0  0  0  0  0  0  0
   16.8445    6.9430  -10.0509 C   0  0  0  0  0  0  0  0  0  0  0  0
   17.0878    5.5596  -10.6616 C   0  0  0  0  0  0  0  0  0  0  0  0
   18.2194    5.5272  -11.6928 C   0  0  0  0  0  0  0  0  0  0  0  0
   18.4562    4.1457  -12.3094 C   0  0  0  0  0  0  0  0  0  0  0  0
   19.5944    4.1086  -13.3340 C   0  0  0  0  0  0  0  0  0  0  0  0
   19.8219    2.7264  -13.9477 C   0  0  0  0  0  0  0  0  0  0  0  0
    9.7287    5.9153   -3.7705 C   0  0  0  0  0  0  0  0  0  0  0  0
    9.1321    7.0407   -3.3048 O   0  0  0  0  0  0  0  0  0  0  0  0
    7.9244    6.9663   -2.5623 C   0  0  0  0  0  0  0  0  0  0  0  0
    7.4465    8.3828   -2.2785 C   0  0  0  0  0  0  0  0  0  0  0  0
    7.0698    9.1738   -3.5348 C   0  0  0  0  0  0  0  0  0  0  0  0
    6.6565   10.6208   -3.2526 C   0  0  0  0  0  0  0  0  0  0  0  0
    6.2797   11.4070   -4.5118 C   0  0  0  0  0  0  0  0  0  0  0  0
    5.8989   12.8664   -4.2470 C   0  0  0  0  0  0  0  0  0  0  0  0
    5.5179   13.6463   -5.5092 C   0  0  0  0  0  0  0  0  0  0  0  0
    5.1534   15.1072   -5.2419 C   0  0  0  0  0  0  0  0  0  0  0  0
    9.2339    4.6322   -3.5301 C   0  0  0  0  0  0  0  0  0  0  0  0
    9.8879    3.5103   -4.0525 C   0  0  0  0  0  0  0  0  0  0  0  0
    9.1849    1.7816   -3.7087 Br  0  0  0  0  0  0  0  0  0  0  0  0
   19.3130   -3.2235  -10.6749 H   0  0  0  0  0  0  0  0  0  0  0  0
   17.6089   -3.7331  -10.6762 H   0  0  0  0  0  0  0  0  0  0  0  0
   18.5662   -3.8410   -9.1834 H   0  0  0  0  0  0  0  0  0  0  0  0
   17.8184   -1.2055  -10.6198 H   0  0  0  0  0  0  0  0  0  0  0  0
   18.7703   -1.3117   -9.1412 H   0  0  0  0  0  0  0  0  0  0  0  0
   16.8082   -2.3556   -7.9516 H   0  0  0  0  0  0  0  0  0  0  0  0
   15.8552   -2.2510   -9.4305 H   0  0  0  0  0  0  0  0  0  0  0  0
   16.0945    0.2605   -9.4080 H   0  0  0  0  0  0  0  0  0  0  0  0
   17.0497    0.1564   -7.9302 H   0  0  0  0  0  0  0  0  0  0  0  0
   15.0870   -0.8860   -6.7351 H   0  0  0  0  0  0  0  0  0  0  0  0
   14.1314   -0.7813   -8.2121 H   0  0  0  0  0  0  0  0  0  0  0  0
   14.3779    1.7274   -8.1948 H   0  0  0  0  0  0  0  0  0  0  0  0
   15.3359    1.6226   -6.7179 H   0  0  0  0  0  0  0  0  0  0  0  0
   13.3627    0.5934   -5.5103 H   0  0  0  0  0  0  0  0  0  0  0  0
   12.4030    0.7012   -6.9886 H   0  0  0  0  0  0  0  0  0  0  0  0
   12.6456    3.1987   -6.9754 H   0  0  0  0  0  0  0  0  0  0  0  0
   13.6224    3.0906   -5.4879 H   0  0  0  0  0  0  0  0  0  0  0  0
   12.4623    5.0614   -5.6438 H   0  0  0  0  0  0  0  0  0  0  0  0
   10.8789    8.2179   -4.2472 H   0  0  0  0  0  0  0  0  0  0  0  0
   12.9695    7.0012   -6.1851 H   0  0  0  0  0  0  0  0  0  0  0  0
   11.7473   10.0781   -4.3336 H   0  0  0  0  0  0  0  0  0  0  0  0
   11.7928   11.8305   -2.8442 H   0  0  0  0  0  0  0  0  0  0  0  0
   10.6375   11.9904   -4.1955 H   0  0  0  0  0  0  0  0  0  0  0  0
   11.9921   14.3269   -2.7275 H   0  0  0  0  0  0  0  0  0  0  0  0
   10.3554   13.7386   -2.4105 H   0  0  0  0  0  0  0  0  0  0  0  0
    9.6793   14.3104   -4.7640 H   0  0  0  0  0  0  0  0  0  0  0  0
   11.3188   14.8658   -5.1078 H   0  0  0  0  0  0  0  0  0  0  0  0
   11.0903   16.6530   -3.3542 H   0  0  0  0  0  0  0  0  0  0  0  0
    9.4572   16.0978   -2.9857 H   0  0  0  0  0  0  0  0  0  0  0  0
    8.7456   16.6294   -5.3459 H   0  0  0  0  0  0  0  0  0  0  0  0
   10.3797   17.1766   -5.7158 H   0  0  0  0  0  0  0  0  0  0  0  0
   10.1734   18.9735   -3.9530 H   0  0  0  0  0  0  0  0  0  0  0  0
    8.5379   18.4264   -3.5884 H   0  0  0  0  0  0  0  0  0  0  0  0
    7.8379   18.9516   -5.9546 H   0  0  0  0  0  0  0  0  0  0  0  0
    9.4720   19.5019   -6.3148 H   0  0  0  0  0  0  0  0  0  0  0  0
    7.5977   20.7813   -4.2124 H   0  0  0  0  0  0  0  0  0  0  0  0
    7.9749   21.4541   -5.8149 H   0  0  0  0  0  0  0  0  0  0  0  0
    9.2459   21.3366   -4.5768 H   0  0  0  0  0  0  0  0  0  0  0  0
   15.3816   12.9707   -7.3699 H   0  0  0  0  0  0  0  0  0  0  0  0
   14.0863   14.2349   -4.8788 H   0  0  0  0  0  0  0  0  0  0  0  0
   15.7666   14.8179   -8.2285 H   0  0  0  0  0  0  0  0  0  0  0  0
   15.8877   15.7836  -10.3020 H   0  0  0  0  0  0  0  0  0  0  0  0
   17.4674   15.1420   -9.7784 H   0  0  0  0  0  0  0  0  0  0  0  0
   18.6249   16.9143  -11.1249 H   0  0  0  0  0  0  0  0  0  0  0  0
   17.0618   17.5624  -11.6276 H   0  0  0  0  0  0  0  0  0  0  0  0
   16.5175   15.3592  -12.7578 H   0  0  0  0  0  0  0  0  0  0  0  0
   18.0891   14.7237  -12.2708 H   0  0  0  0  0  0  0  0  0  0  0  0
   19.2323   16.5291  -13.6081 H   0  0  0  0  0  0  0  0  0  0  0  0
   17.6622   17.1687  -14.0875 H   0  0  0  0  0  0  0  0  0  0  0  0
   17.1166   14.9770  -15.2178 H   0  0  0  0  0  0  0  0  0  0  0  0
   18.6931   14.3442  -14.7472 H   0  0  0  0  0  0  0  0  0  0  0  0
   19.8215   16.1626  -16.0846 H   0  0  0  0  0  0  0  0  0  0  0  0
   18.2451   16.7967  -16.5519 H   0  0  0  0  0  0  0  0  0  0  0  0
   17.7040   14.6099  -17.6876 H   0  0  0  0  0  0  0  0  0  0  0  0
   19.2829   13.9801  -17.2252 H   0  0  0  0  0  0  0  0  0  0  0  0
   18.8217   16.4219  -19.0672 H   0  0  0  0  0  0  0  0  0  0  0  0
   19.3207   14.7995  -19.5988 H   0  0  0  0  0  0  0  0  0  0  0  0
   20.4145   15.7866  -18.6024 H   0  0  0  0  0  0  0  0  0  0  0  0
   16.0237   18.5596   -4.9701 H   0  0  0  0  0  0  0  0  0  0  0  0
   14.3940   18.2339   -3.3680 H   0  0  0  0  0  0  0  0  0  0  0  0
   15.9834   17.5664   -2.9115 H   0  0  0  0  0  0  0  0  0  0  0  0
   14.8398   15.8168   -1.5230 H   0  0  0  0  0  0  0  0  0  0  0  0
   13.2660   16.4917   -1.9591 H   0  0  0  0  0  0  0  0  0  0  0  0
   13.8970   18.6810   -0.8662 H   0  0  0  0  0  0  0  0  0  0  0  0
   15.4735   18.0169   -0.4377 H   0  0  0  0  0  0  0  0  0  0  0  0
   14.3498   16.2498    0.9632 H   0  0  0  0  0  0  0  0  0  0  0  0
   12.7731   16.9118    0.5370 H   0  0  0  0  0  0  0  0  0  0  0  0
   13.3972   19.1022    1.6200 H   0  0  0  0  0  0  0  0  0  0  0  0
   14.9784   18.4461    2.0397 H   0  0  0  0  0  0  0  0  0  0  0  0
   13.8691   16.6696    3.4457 H   0  0  0  0  0  0  0  0  0  0  0  0
   12.2875   17.3250    3.0273 H   0  0  0  0  0  0  0  0  0  0  0  0
   12.9075   19.5154    4.1095 H   0  0  0  0  0  0  0  0  0  0  0  0
   14.4915   18.8646    4.5226 H   0  0  0  0  0  0  0  0  0  0  0  0
   11.7973   17.7535    5.5597 H   0  0  0  0  0  0  0  0  0  0  0  0
   12.9460   18.7364    6.4965 H   0  0  0  0  0  0  0  0  0  0  0  0
   13.3952   17.0965    5.9748 H   0  0  0  0  0  0  0  0  0  0  0  0
   15.3305   10.7668   -7.7009 H   0  0  0  0  0  0  0  0  0  0  0  0
   16.4027    8.7350   -7.9494 H   0  0  0  0  0  0  0  0  0  0  0  0
   15.1807    9.0529   -9.2079 H   0  0  0  0  0  0  0  0  0  0  0  0
   14.7844    6.5938   -9.4506 H   0  0  0  0  0  0  0  0  0  0  0  0
   15.9695    6.2657   -8.1811 H   0  0  0  0  0  0  0  0  0  0  0  0
   17.7824    7.3082   -9.5928 H   0  0  0  0  0  0  0  0  0  0  0  0
   16.6060    7.6597  -10.8587 H   0  0  0  0  0  0  0  0  0  0  0  0
   16.1535    5.2008  -11.1317 H   0  0  0  0  0  0  0  0  0  0  0  0
   17.3106    4.8395   -9.8525 H   0  0  0  0  0  0  0  0  0  0  0  0
   19.1544    5.8802  -11.2190 H   0  0  0  0  0  0  0  0  0  0  0  0
   18.0006    6.2533  -12.4980 H   0  0  0  0  0  0  0  0  0  0  0  0
   17.5229    3.7955  -12.7891 H   0  0  0  0  0  0  0  0  0  0  0  0
   18.6682    3.4178  -11.5038 H   0  0  0  0  0  0  0  0  0  0  0  0
   20.5266    4.4565  -12.8526 H   0  0  0  0  0  0  0  0  0  0  0  0
   19.3833    4.8383  -14.1371 H   0  0  0  0  0  0  0  0  0  0  0  0
   20.0755    1.9810  -13.1752 H   0  0  0  0  0  0  0  0  0  0  0  0
   20.6450    2.7386  -14.6800 H   0  0  0  0  0  0  0  0  0  0  0  0
   18.9191    2.3652  -14.4684 H   0  0  0  0  0  0  0  0  0  0  0  0
    8.0983    6.4146   -1.6194 H   0  0  0  0  0  0  0  0  0  0  0  0
    7.1630    6.4093   -3.1409 H   0  0  0  0  0  0  0  0  0  0  0  0
    8.2380    8.9131   -1.7200 H   0  0  0  0  0  0  0  0  0  0  0  0
    6.5787    8.3155   -1.5987 H   0  0  0  0  0  0  0  0  0  0  0  0
    6.2467    8.6522   -4.0580 H   0  0  0  0  0  0  0  0  0  0  0  0
    7.9241    9.1641   -4.2328 H   0  0  0  0  0  0  0  0  0  0  0  0
    7.4832   11.1399   -2.7320 H   0  0  0  0  0  0  0  0  0  0  0  0
    5.8061   10.6320   -2.5452 H   0  0  0  0  0  0  0  0  0  0  0  0
    5.4408   10.8976   -5.0215 H   0  0  0  0  0  0  0  0  0  0  0  0
    7.1241   11.3745   -5.2252 H   0  0  0  0  0  0  0  0  0  0  0  0
    6.7416   13.3779   -3.7443 H   0  0  0  0  0  0  0  0  0  0  0  0
    5.0581   12.9020   -3.5289 H   0  0  0  0  0  0  0  0  0  0  0  0
    4.6706   13.1394   -6.0061 H   0  0  0  0  0  0  0  0  0  0  0  0
    6.3555   13.6014   -6.2290 H   0  0  0  0  0  0  0  0  0  0  0  0
    4.2979   15.1884   -4.5502 H   0  0  0  0  0  0  0  0  0  0  0  0
    4.8801   15.6331   -6.1707 H   0  0  0  0  0  0  0  0  0  0  0  0
    5.9966   15.6540   -4.7867 H   0  0  0  0  0  0  0  0  0  0  0  0
    8.3342    4.4788   -2.9373 H   0  0  0  0  0  0  0  0  0  0  0  0
  1  2  1  0
  1 79  1  0
  1 80  1  0
  1 81  1  0
  2  3  1  0
  2 82  1  0
  2 83  1  0
  3  4  1  0
  3 84  1  0
  3 85  1  0
  4  5  1  0
  4 86  1  0
  4 87  1  0
  5  6  1  0
  5 88  1  0
  5 89  1  0
  6  7  1  0
  6 90  1  0
  6 91  1  0
  7  8  1  0
  7 92  1  0
  7 93  1  0
  8  9  1  0
  8 94  1  0
  8 95  1  0
  9 10  1  0
 10 11  2  0
 10 77  1  0
 11 12  1  0
 11 96  1  0
 12 13  1  0
 12 66  2  0
 13 14  2  0
 13 97  1  0
 14 15  1  0
 14 98  1  0
 15 16  2  0
 15 56  1  0
 16 17  1  0
 16 99  1  0
 17 18  1  0
 17 27  2  0
 18 19  1  0
 19 20  1  0
 19100  1  0
 19101  1  0
 20 21  1  0
 20102  1  0
 20103  1  0
 21 22  1  0
 21104  1  0
 21105  1  0
 22 23  1  0
 22106  1  0
 22107  1  0
 23 24  1  0
 23108  1  0
 23109  1  0
 24 25  1  0
 24110  1  0
 24111  1  0
 25 26  1  0
 25112  1  0
 25113  1  0
 26114  1  0
 26115  1  0
 26116  1  0
 27 28  1  0
 27 55  1  0
 28 29  2  0
 28117  1  0
 29 30  1  0
 29118  1  0
 30 31  2  0
 30 45  1  0
 31 32  1  0
 31119  1  0
 32 33  1  0
 32 42  2  0
 33 34  1  0
 34 35  1  0
 34120  1  0
 34121  1  0
 35 36  1  0
 35122  1  0
 35123  1  0
 36 37  1  0
 36124  1  0
 36125  1  0
 37 38  1  0
 37126  1  0
 37127  1  0
 38 39  1  0
 38128  1  0
 38129  1  0
 39 40  1  0
 39130  1  0
 39131  1  0
 40 41  1  0
 40132  1  0
 40133  1  0
 41134  1  0
 41135  1  0
 41136  1  0
 42 43  1  0
 42 44  1  0
 44 45  2  0
 44137  1  0
 45 46  1  0
 46 47  1  0
 47 48  1  0
 47138  1  0
 47139  1  0
 48 49  1  0
 48140  1  0
 48141  1  0
 49 50  1  0
 49142  1  0
 49143  1  0
 50 51  1  0
 50144  1  0
 50145  1  0
 51 52  1  0
 51146  1  0
 51147  1  0
 52 53  1  0
 52148  1  0
 52149  1  0
 53 54  1  0
 53150  1  0
 53151  1  0
 54152  1  0
 54153  1  0
 54154  1  0
 55 56  2  0
 55155  1  0
 56 57  1  0
 57 58  1  0
 58 59  1  0
 58156  1  0
 58157  1  0
 59 60  1  0
 59158  1  0
 59159  1  0
 60 61  1  0
 60160  1  0
 60161  1  0
 61 62  1  0
 61162  1  0
 61163  1  0
 62 63  1  0
 62164  1  0
 62165  1  0
 63 64  1  0
 63166  1  0
 63167  1  0
 64 65  1  0
 64168  1  0
 64169  1  0
 65170  1  0
 65171  1  0
 65172  1  0
 66 67  1  0
 66 76  1  0
 67 68  1  0
 68 69  1  0
 68173  1  0
 68174  1  0
 69 70  1  0
 69175  1  0
 69176  1  0
 70 71  1  0
 70177  1  0
 70178  1  0
 71 72  1  0
 71179  1  0
 71180  1  0
 72 73  1  0
 72181  1  0
 72182  1  0
 73 74  1  0
 73183  1  0
 73184  1  0
 74 75  1  0
 74185  1  0
 74186  1  0
 75187  1  0
 75188  1  0
 75189  1  0
 76 77  2  0
 76190  1  0
 77 78  1  0
M  END

