
     RDKit          3D

 49 51  0  0  0  0  0  0  0  0999 V2000
    1.2564   -0.8315    1.4497 C   0  0  0  0  0  0  0  0  0  0  0  0
    2.6682   -0.4388    0.9908 C   0  0  1  0  0  0  0  0  0  0  0  0
    2.6694   -0.1759   -0.5235 C   0  0  0  0  0  0  0  0  0  0  0  0
    3.3024    0.7246    1.8241 C   0  0  1  0  0  0  0  0  0  0  0  0
    2.5647    2.0559    1.6164 C   0  0  0  0  0  0  0  0  0  0  0  0
    3.3258    0.3778    3.3410 C   0  0  0  0  0  0  0  0  0  0  0  0
    4.0125   -0.8818    3.6075 N   0  0  0  0  0  0  0  0  0  0  0  0
    4.7060    0.8287    1.3658 N   0  0  0  0  0  0  0  0  0  0  0  0
    5.6227    1.7388    1.8069 C   0  0  0  0  0  0  0  0  0  0  0  0
    5.3598    2.7300    2.4812 O   0  0  0  0  0  0  0  0  0  0  0  0
    7.0387    1.4379    1.3995 C   0  0  1  0  0  0  0  0  0  0  0  0
    8.0379    2.5447    1.3677 C   0  0  0  0  0  0  0  0  0  0  0  0
    8.1054    1.6147    2.5508 C   0  0  2  0  0  0  0  0  0  0  0  0
    9.1194    0.5833    2.7650 C   0  0  0  0  0  0  0  0  0  0  0  0
   10.0521    0.2562    1.7127 C   0  0  0  0  0  0  0  0  0  0  0  0
   11.0420   -0.6800    1.9113 C   0  0  0  0  0  0  0  0  0  0  0  0
   11.1411   -1.3431    3.1659 C   0  0  0  0  0  0  0  0  0  0  0  0
   10.2351   -1.0882    4.2233 C   0  0  0  0  0  0  0  0  0  0  0  0
   10.3339   -1.7697    5.4665 C   0  0  0  0  0  0  0  0  0  0  0  0
    9.4057   -1.5289    6.5130 C   0  0  0  0  0  0  0  0  0  0  0  0
    8.3764   -0.6267    6.3181 C   0  0  0  0  0  0  0  0  0  0  0  0
    8.2494    0.0668    5.0749 C   0  0  0  0  0  0  0  0  0  0  0  0
    9.1774   -0.1239    4.0242 C   0  0  0  0  0  0  0  0  0  0  0  0
    0.8938   -1.6852    0.8554 H   0  0  0  0  0  0  0  0  0  0  0  0
    0.5362   -0.0097    1.3081 H   0  0  0  0  0  0  0  0  0  0  0  0
    1.2152   -1.1316    2.5078 H   0  0  0  0  0  0  0  0  0  0  0  0
    3.3217   -1.3105    1.1805 H   0  0  0  0  0  0  0  0  0  0  0  0
    1.9423    0.6045   -0.7992 H   0  0  0  0  0  0  0  0  0  0  0  0
    2.3891   -1.0907   -1.0698 H   0  0  0  0  0  0  0  0  0  0  0  0
    3.6555    0.1468   -0.8889 H   0  0  0  0  0  0  0  0  0  0  0  0
    1.5079    1.9587    1.9070 H   0  0  0  0  0  0  0  0  0  0  0  0
    2.6052    2.3730    0.5643 H   0  0  0  0  0  0  0  0  0  0  0  0
    3.0261    2.8463    2.2209 H   0  0  0  0  0  0  0  0  0  0  0  0
    2.2915    0.4167    3.7339 H   0  0  0  0  0  0  0  0  0  0  0  0
    3.8717    1.1940    3.8363 H   0  0  0  0  0  0  0  0  0  0  0  0
    3.3655   -1.6670    3.6538 H   0  0  0  0  0  0  0  0  0  0  0  0
    4.5060   -0.8556    4.4968 H   0  0  0  0  0  0  0  0  0  0  0  0
    5.1022   -0.0487    1.0477 H   0  0  0  0  0  0  0  0  0  0  0  0
    7.2093    0.5821    0.7405 H   0  0  0  0  0  0  0  0  0  0  0  0
    7.6476    3.5415    1.5884 H   0  0  0  0  0  0  0  0  0  0  0  0
    8.8241    2.5024    0.6107 H   0  0  0  0  0  0  0  0  0  0  0  0
    7.6358    2.0254    3.4459 H   0  0  0  0  0  0  0  0  0  0  0  0
    9.9845    0.7783    0.7571 H   0  0  0  0  0  0  0  0  0  0  0  0
   11.7558   -0.9123    1.1178 H   0  0  0  0  0  0  0  0  0  0  0  0
   11.9294   -2.0853    3.3193 H   0  0  0  0  0  0  0  0  0  0  0  0
   11.1451   -2.4878    5.6093 H   0  0  0  0  0  0  0  0  0  0  0  0
    9.5101   -2.0586    7.4630 H   0  0  0  0  0  0  0  0  0  0  0  0
    7.6512   -0.4307    7.1120 H   0  0  0  0  0  0  0  0  0  0  0  0
    7.4119    0.7530    4.9500 H   0  0  0  0  0  0  0  0  0  0  0  0
  1  2  1  0
  1 24  1  0
  1 25  1  0
  1 26  1  0
  2  3  1  0
  2  4  1  0
  2 27  1  6
  3 28  1  0
  3 29  1  0
  3 30  1  0
  4  5  1  0
  4  6  1  0
  4  8  1  6
  5 31  1  0
  5 32  1  0
  5 33  1  0
  6  7  1  0
  6 34  1  0
  6 35  1  0
  7 36  1  0
  7 37  1  0
  8  9  1  0
  8 38  1  0
  9 10  2  0
  9 11  1  0
 11 12  1  0
 11 13  1  0
 11 39  1  6
 12 13  1  0
 12 40  1  0
 12 41  1  0
 13 14  1  0
 13 42  1  1
 14 15  2  0
 14 23  1  0
 15 16  1  0
 15 43  1  0
 16 17  2  0
 16 44  1  0
 17 18  1  0
 17 45  1  0
 18 19  1  0
 18 23  2  0
 19 20  2  0
 19 46  1  0
 20 21  1  0
 20 47  1  0
 21 22  2  0
 21 48  1  0
 22 23  1  0
 22 49  1  0
M  END

