
     RDKit          3D

 63 67  0  0  0  0  0  0  0  0999 V2000
    8.0234    2.8819   -4.8429 C   0  0  0  0  0  0  0  0  0  0  0  0
    7.0998    3.4513   -3.9569 O   0  0  0  0  0  0  0  0  0  0  0  0
    7.0450    2.8155   -2.7033 C   0  0  0  0  0  0  0  0  0  0  0  0
    6.0457    3.5514   -1.8240 C   0  0  0  0  0  0  0  0  0  0  0  0
    5.8867    2.9481   -0.4254 C   0  0  0  0  0  0  0  0  0  0  0  0
    7.1048    2.9904    0.3855 N   0  0  0  0  0  0  0  0  0  0  0  0
    7.3721    4.0429    1.2438 C   0  0  0  0  0  0  0  0  0  0  0  0
    6.8588    5.3351    1.3304 C   0  0  0  0  0  0  0  0  0  0  0  0
    5.9601    5.8751    0.4347 O   0  0  0  0  0  0  0  0  0  0  0  0
    4.9741    6.7215    0.8856 C   0  0  0  0  0  0  0  0  0  0  0  0
    4.8472    7.0727    2.0341 O   0  0  0  0  0  0  0  0  0  0  0  0
    4.1930    7.0849   -0.1671 N   0  0  0  0  0  0  0  0  0  0  0  0
    3.1143    8.0547   -0.0416 C   0  0  1  0  0  0  0  0  0  0  0  0
    3.4855    9.4552   -0.5961 C   0  0  1  0  0  0  0  0  0  0  0  0
    3.6664    9.3920   -2.1257 C   0  0  0  0  0  0  0  0  0  0  0  0
    2.3548    8.9209   -2.7877 C   0  0  2  0  0  0  0  0  0  0  0  0
    1.2218    9.9073   -2.4397 C   0  0  0  0  0  0  0  0  0  0  0  0
    1.0362    9.9666   -0.9101 C   0  0  2  0  0  0  0  0  0  0  0  0
    2.3483   10.4376   -0.2527 C   0  0  0  0  0  0  0  0  0  0  0  0
    0.6801    8.5621   -0.3832 C   0  0  0  0  0  0  0  0  0  0  0  0
    1.8119    7.5713   -0.7242 C   0  0  1  0  0  0  0  0  0  0  0  0
    1.9925    7.5191   -2.2561 C   0  0  0  0  0  0  0  0  0  0  0  0
    7.5160    5.9388    2.4314 C   0  0  0  0  0  0  0  0  0  0  0  0
    8.3703    5.1066    2.9947 N   0  0  0  0  0  0  0  0  0  0  0  0
    8.3020    3.9575    2.2611 N   0  0  0  0  0  0  0  0  0  0  0  0
    9.1028    2.8523    2.6435 C   0  0  0  0  0  0  0  0  0  0  0  0
    9.3212    2.6150    4.0105 C   0  0  0  0  0  0  0  0  0  0  0  0
   10.1185    1.5432    4.4094 C   0  0  0  0  0  0  0  0  0  0  0  0
   10.6977    0.6927    3.4601 C   0  0  0  0  0  0  0  0  0  0  0  0
   10.4879    0.9369    2.1013 C   0  0  0  0  0  0  0  0  0  0  0  0
    9.7038    2.0184    1.6868 C   0  0  0  0  0  0  0  0  0  0  0  0
    7.9905    3.4551   -5.7813 H   0  0  0  0  0  0  0  0  0  0  0  0
    7.7856    1.8219   -5.0708 H   0  0  0  0  0  0  0  0  0  0  0  0
    9.0590    2.9167   -4.4458 H   0  0  0  0  0  0  0  0  0  0  0  0
    8.0441    2.8125   -2.2202 H   0  0  0  0  0  0  0  0  0  0  0  0
    6.7445    1.7498   -2.8203 H   0  0  0  0  0  0  0  0  0  0  0  0
    5.0620    3.5427   -2.3249 H   0  0  0  0  0  0  0  0  0  0  0  0
    6.3528    4.6051   -1.7405 H   0  0  0  0  0  0  0  0  0  0  0  0
    5.6027    1.8865   -0.5175 H   0  0  0  0  0  0  0  0  0  0  0  0
    5.0541    3.4503    0.0948 H   0  0  0  0  0  0  0  0  0  0  0  0
    7.3911    2.0918    0.7562 H   0  0  0  0  0  0  0  0  0  0  0  0
    4.4654    6.7407   -1.0797 H   0  0  0  0  0  0  0  0  0  0  0  0
    2.9395    8.1442    1.0406 H   0  0  0  0  0  0  0  0  0  0  0  0
    4.4222    9.7831   -0.1158 H   0  0  0  0  0  0  0  0  0  0  0  0
    4.4942    8.7104   -2.3885 H   0  0  0  0  0  0  0  0  0  0  0  0
    3.9528   10.3859   -2.5099 H   0  0  0  0  0  0  0  0  0  0  0  0
    2.4866    8.8783   -3.8823 H   0  0  0  0  0  0  0  0  0  0  0  0
    0.2816    9.5903   -2.9238 H   0  0  0  0  0  0  0  0  0  0  0  0
    1.4593   10.9111   -2.8331 H   0  0  0  0  0  0  0  0  0  0  0  0
    0.2240   10.6706   -0.6616 H   0  0  0  0  0  0  0  0  0  0  0  0
    2.2240   10.5042    0.8420 H   0  0  0  0  0  0  0  0  0  0  0  0
    2.6092   11.4504   -0.6049 H   0  0  0  0  0  0  0  0  0  0  0  0
   -0.2663    8.2156   -0.8332 H   0  0  0  0  0  0  0  0  0  0  0  0
    0.5213    8.5936    0.7083 H   0  0  0  0  0  0  0  0  0  0  0  0
    1.5637    6.5686   -0.3380 H   0  0  0  0  0  0  0  0  0  0  0  0
    1.0610    7.1605   -2.7267 H   0  0  0  0  0  0  0  0  0  0  0  0
    2.7731    6.7896   -2.5375 H   0  0  0  0  0  0  0  0  0  0  0  0
    7.3680    6.9412    2.8260 H   0  0  0  0  0  0  0  0  0  0  0  0
    8.8678    3.2898    4.7365 H   0  0  0  0  0  0  0  0  0  0  0  0
   10.2844    1.3665    5.4753 H   0  0  0  0  0  0  0  0  0  0  0  0
   11.3160   -0.1497    3.7793 H   0  0  0  0  0  0  0  0  0  0  0  0
   10.9532    0.2942    1.3495 H   0  0  0  0  0  0  0  0  0  0  0  0
    9.5843    2.2322    0.6238 H   0  0  0  0  0  0  0  0  0  0  0  0
  1  2  1  0
  1 32  1  0
  1 33  1  0
  1 34  1  0
  2  3  1  0
  3  4  1  0
  3 35  1  0
  3 36  1  0
  4  5  1  0
  4 37  1  0
  4 38  1  0
  5  6  1  0
  5 39  1  0
  5 40  1  0
  6  7  1  0
  6 41  1  0
  7  8  2  0
  7 25  1  0
  8  9  1  0
  8 23  1  0
  9 10  1  0
 10 11  2  0
 10 12  1  0
 12 13  1  0
 12 42  1  0
 13 14  1  0
 13 21  1  0
 13 43  1  1
 14 15  1  0
 14 19  1  0
 14 44  1  1
 15 16  1  0
 15 45  1  0
 15 46  1  0
 16 17  1  0
 16 22  1  0
 16 47  1  6
 17 18  1  0
 17 48  1  0
 17 49  1  0
 18 19  1  0
 18 20  1  0
 18 50  1  6
 19 51  1  0
 19 52  1  0
 20 21  1  0
 20 53  1  0
 20 54  1  0
 21 22  1  0
 21 55  1  1
 22 56  1  0
 22 57  1  0
 23 24  2  0
 23 58  1  0
 24 25  1  0
 25 26  1  0
 26 27  2  0
 26 31  1  0
 27 28  1  0
 27 59  1  0
 28 29  2  0
 28 60  1  0
 29 30  1  0
 29 61  1  0
 30 31  2  0
 30 62  1  0
 31 63  1  0
M  END

