
     RDKit          3D

 33 35  0  0  0  0  0  0  0  0999 V2000
    1.1286   -0.1109   -0.0261 O   0  0  0  0  0  0  0  0  0  0  0  0
    2.3481   -0.1161    0.0453 C   0  0  0  0  0  0  0  0  0  0  0  0
    3.0947   -1.1953   -0.3649 N   0  0  0  0  0  0  0  0  0  0  0  0
    2.5367   -2.3589   -0.8913 C   0  0  0  0  0  0  0  0  0  0  0  0
    3.3072   -3.4682   -1.3099 C   0  0  0  0  0  0  0  0  0  0  0  0
    2.5694   -4.5928   -1.8291 C   0  0  0  0  0  0  0  0  0  0  0  0
    1.1689   -4.5277   -1.8906 C   0  0  0  0  0  0  0  0  0  0  0  0
    0.4388   -5.5896   -2.3824 N   0  0  0  0  0  0  0  0  0  0  0  0
   -0.9276   -5.7772   -2.5461 C   0  0  0  0  0  0  0  0  0  0  0  0
   -1.9029   -4.8153   -2.2043 C   0  0  0  0  0  0  0  0  0  0  0  0
   -3.2600   -5.0697   -2.3950 C   0  0  0  0  0  0  0  0  0  0  0  0
   -3.6994   -6.2836   -2.9298 C   0  0  0  0  0  0  0  0  0  0  0  0
   -2.7553   -7.2523   -3.2765 C   0  0  0  0  0  0  0  0  0  0  0  0
   -1.3979   -7.0010   -3.0872 C   0  0  0  0  0  0  0  0  0  0  0  0
   -0.1482   -8.3741   -3.5838 Br  0  0  0  0  0  0  0  0  0  0  0  0
    0.5368   -3.4149   -1.4630 N   0  0  0  0  0  0  0  0  0  0  0  0
    1.2358   -2.4405   -1.0088 N   0  0  0  0  0  0  0  0  0  0  0  0
    3.1329    1.0377    0.5827 C   0  0  1  0  0  0  0  0  0  0  0  0
    2.5832    2.4322    0.3377 C   0  0  0  0  0  0  0  0  0  0  0  0
    2.5077    1.8464    1.7065 C   0  0  0  0  0  0  0  0  0  0  0  0
    4.1029   -1.1610   -0.2892 H   0  0  0  0  0  0  0  0  0  0  0  0
    4.3927   -3.4641   -1.2365 H   0  0  0  0  0  0  0  0  0  0  0  0
    3.0880   -5.4883   -2.1718 H   0  0  0  0  0  0  0  0  0  0  0  0
    1.0050   -6.3781   -2.6773 H   0  0  0  0  0  0  0  0  0  0  0  0
   -1.5712   -3.8669   -1.7867 H   0  0  0  0  0  0  0  0  0  0  0  0
   -3.9835   -4.2990   -2.1176 H   0  0  0  0  0  0  0  0  0  0  0  0
   -4.7633   -6.4808   -3.0779 H   0  0  0  0  0  0  0  0  0  0  0  0
   -3.0671   -8.2101   -3.6964 H   0  0  0  0  0  0  0  0  0  0  0  0
    4.2204    0.9183    0.5921 H   0  0  0  0  0  0  0  0  0  0  0  0
    1.6583    2.4861   -0.2421 H   0  0  0  0  0  0  0  0  0  0  0  0
    3.3108    3.2231    0.1376 H   0  0  0  0  0  0  0  0  0  0  0  0
    1.5314    1.5026    2.0577 H   0  0  0  0  0  0  0  0  0  0  0  0
    3.1818    2.2192    2.4820 H   0  0  0  0  0  0  0  0  0  0  0  0
  1  2  2  0
  2  3  1  0
  2 18  1  0
  3  4  1  0
  3 21  1  0
  4  5  2  0
  4 17  1  0
  5  6  1  0
  5 22  1  0
  6  7  2  0
  6 23  1  0
  7  8  1  0
  7 16  1  0
  8  9  1  0
  8 24  1  0
  9 10  2  0
  9 14  1  0
 10 11  1  0
 10 25  1  0
 11 12  2  0
 11 26  1  0
 12 13  1  0
 12 27  1  0
 13 14  2  0
 13 28  1  0
 14 15  1  0
 16 17  2  0
 18 19  1  0
 18 20  1  0
 18 29  1  1
 19 20  1  0
 19 30  1  0
 19 31  1  0
 20 32  1  0
 20 33  1  0
M  END

