
     RDKit          3D

 59 62  0  0  0  0  0  0  0  0999 V2000
    5.7522    1.3693    2.9831 C   0  0  0  0  0  0  0  0  0  0  0  0
    5.0583    0.1991    2.3315 C   0  0  0  0  0  0  0  0  0  0  0  0
    3.8722   -0.3378    2.8466 C   0  0  0  0  0  0  0  0  0  0  0  0
    3.2281   -1.4040    2.2151 C   0  0  0  0  0  0  0  0  0  0  0  0
    3.7373   -1.9884    1.0481 C   0  0  0  0  0  0  0  0  0  0  0  0
    3.0054   -3.1329    0.3882 C   0  0  0  0  0  0  0  0  0  0  0  0
    4.9422   -1.4610    0.5277 C   0  0  0  0  0  0  0  0  0  0  0  0
    5.5511   -2.0222   -0.7385 C   0  0  0  0  0  0  0  0  0  0  0  0
    6.2371   -3.3073   -0.6150 N   0  0  0  0  0  0  0  0  0  0  0  0
    6.2125   -4.1973   -1.7734 C   0  0  0  0  0  0  0  0  0  0  0  0
    7.2938   -5.2782   -1.8058 C   0  0  0  0  0  0  0  0  0  0  0  0
    7.6018   -5.8955   -0.4260 C   0  0  2  0  0  0  0  0  0  0  0  0
    7.9526   -4.7309    0.5101 C   0  0  0  0  0  0  0  0  0  0  0  0
    6.8173   -3.7246    0.6515 C   0  0  0  0  0  0  0  0  0  0  0  0
    8.7080   -6.9503   -0.5070 C   0  0  0  0  0  0  0  0  0  0  0  0
   10.0719   -6.7348   -0.6065 C   0  0  0  0  0  0  0  0  0  0  0  0
   10.9477   -7.8981   -0.6623 C   0  0  0  0  0  0  0  0  0  0  0  0
   10.3788   -9.1790   -0.6043 C   0  0  0  0  0  0  0  0  0  0  0  0
    9.0048   -9.4012   -0.5079 C   0  0  0  0  0  0  0  0  0  0  0  0
    8.1285   -8.2384   -0.4511 C   0  0  0  0  0  0  0  0  0  0  0  0
    6.6341   -8.1691   -0.4703 C   0  0  2  0  0  0  0  0  0  0  0  0
    6.1569   -8.9179    0.2054 H   0  0  0  0  0  0  0  0  0  0  0  0
    5.9618   -8.2823   -1.8136 N   0  0  0  0  0  0  0  0  0  0  0  0
    6.5845   -9.2353   -2.7184 C   0  0  0  0  0  0  0  0  0  0  0  0
    4.5435   -8.5542   -1.6841 C   0  0  0  0  0  0  0  0  0  0  0  0
    6.3958   -6.7517    0.1084 C   0  0  1  0  0  0  0  0  0  0  0  0
    5.4161   -6.3454   -0.1922 H   0  0  0  0  0  0  0  0  0  0  0  0
    6.3663   -6.7689    1.5280 O   0  0  0  0  0  0  0  0  0  0  0  0
    5.5739   -0.3856    1.1648 C   0  0  0  0  0  0  0  0  0  0  0  0
    5.3478    1.5698    3.9856 H   0  0  0  0  0  0  0  0  0  0  0  0
    5.6277    2.2879    2.3846 H   0  0  0  0  0  0  0  0  0  0  0  0
    6.8349    1.1926    3.0824 H   0  0  0  0  0  0  0  0  0  0  0  0
    3.4383    0.0860    3.7561 H   0  0  0  0  0  0  0  0  0  0  0  0
    2.2997   -1.7938    2.6402 H   0  0  0  0  0  0  0  0  0  0  0  0
    2.0446   -3.3220    0.8858 H   0  0  0  0  0  0  0  0  0  0  0  0
    3.5767   -4.0759    0.4300 H   0  0  0  0  0  0  0  0  0  0  0  0
    2.7892   -2.9295   -0.6741 H   0  0  0  0  0  0  0  0  0  0  0  0
    6.3135   -1.3221   -1.1300 H   0  0  0  0  0  0  0  0  0  0  0  0
    4.8036   -2.1329   -1.5380 H   0  0  0  0  0  0  0  0  0  0  0  0
    6.2325   -3.5565   -2.6702 H   0  0  0  0  0  0  0  0  0  0  0  0
    5.2007   -4.6445   -1.7536 H   0  0  0  0  0  0  0  0  0  0  0  0
    8.2216   -4.8545   -2.2203 H   0  0  0  0  0  0  0  0  0  0  0  0
    6.9489   -6.0638   -2.4912 H   0  0  0  0  0  0  0  0  0  0  0  0
    8.8546   -4.2205    0.1381 H   0  0  0  0  0  0  0  0  0  0  0  0
    8.1847   -5.0954    1.5173 H   0  0  0  0  0  0  0  0  0  0  0  0
    7.1028   -2.8150    1.1996 H   0  0  0  0  0  0  0  0  0  0  0  0
    5.9905   -4.1781    1.2332 H   0  0  0  0  0  0  0  0  0  0  0  0
   10.4986   -5.7288   -0.6137 H   0  0  0  0  0  0  0  0  0  0  0  0
   12.0282   -7.7727   -0.7481 H   0  0  0  0  0  0  0  0  0  0  0  0
   11.0471  -10.0482   -0.6350 H   0  0  0  0  0  0  0  0  0  0  0  0
    8.6029  -10.4145   -0.4476 H   0  0  0  0  0  0  0  0  0  0  0  0
    7.6565   -9.0250   -2.8167 H   0  0  0  0  0  0  0  0  0  0  0  0
    6.1126   -9.1622   -3.7136 H   0  0  0  0  0  0  0  0  0  0  0  0
    6.4817  -10.2917   -2.3792 H   0  0  0  0  0  0  0  0  0  0  0  0
    4.0542   -7.8117   -1.0329 H   0  0  0  0  0  0  0  0  0  0  0  0
    4.3292   -9.5579   -1.2462 H   0  0  0  0  0  0  0  0  0  0  0  0
    4.0491   -8.5137   -2.6697 H   0  0  0  0  0  0  0  0  0  0  0  0
    7.1144   -7.3338    1.7884 H   0  0  0  0  0  0  0  0  0  0  0  0
    6.4992    0.0148    0.7378 H   0  0  0  0  0  0  0  0  0  0  0  0
  1  2  1  0
  1 30  1  0
  1 31  1  0
  1 32  1  0
  2  3  2  0
  2 29  1  0
  3  4  1  0
  3 33  1  0
  4  5  2  0
  4 34  1  0
  5  6  1  0
  5  7  1  0
  6 35  1  0
  6 36  1  0
  6 37  1  0
  7  8  1  0
  7 29  2  0
  8  9  1  0
  8 38  1  0
  8 39  1  0
  9 10  1  0
  9 14  1  0
 10 11  1  0
 10 40  1  0
 10 41  1  0
 12 11  1  6
 11 42  1  0
 11 43  1  0
 12 13  1  0
 12 15  1  0
 12 26  1  0
 13 14  1  0
 13 44  1  0
 13 45  1  0
 14 46  1  0
 14 47  1  0
 15 16  2  0
 15 20  1  0
 16 17  1  0
 16 48  1  0
 17 18  2  0
 17 49  1  0
 18 19  1  0
 18 50  1  0
 19 20  2  0
 19 51  1  0
 20 21  1  0
 21 22  1  1
 21 23  1  0
 21 26  1  0
 23 24  1  0
 23 25  1  0
 24 52  1  0
 24 53  1  0
 24 54  1  0
 25 55  1  0
 25 56  1  0
 25 57  1  0
 26 27  1  6
 26 28  1  0
 28 58  1  0
 29 59  1  0
M  END

