
     RDKit          3D

 78 85  0  0  0  0  0  0  0  0999 V2000
   -0.3043   -0.1020    1.0078 O   0  0  0  0  0  0  0  0  0  0  0  0
    1.0585   -0.5276    0.6534 S   0  0  1  0  0  0  0  0  0  0  0  0
    1.3470   -1.8838    0.1620 O   0  0  0  0  0  0  0  0  0  0  0  0
    1.6692    0.6302   -0.5933 C   0  0  0  0  0  0  0  0  0  0  0  0
    1.0731    1.8895   -0.7032 C   0  0  0  0  0  0  0  0  0  0  0  0
    1.5365    2.7740   -1.6806 C   0  0  0  0  0  0  0  0  0  0  0  0
    2.5753    2.3928   -2.5367 C   0  0  0  0  0  0  0  0  0  0  0  0
    3.1497    1.1216   -2.4270 C   0  0  0  0  0  0  0  0  0  0  0  0
    2.6943    0.2281   -1.4543 C   0  0  0  0  0  0  0  0  0  0  0  0
    2.0970   -0.2537    2.1005 C   0  0  0  0  0  0  0  0  0  0  0  0
    3.2438   -1.0313    2.2818 C   0  0  0  0  0  0  0  0  0  0  0  0
    4.0325   -0.8299    3.4134 C   0  0  0  0  0  0  0  0  0  0  0  0
    3.6889    0.1327    4.3843 C   0  0  0  0  0  0  0  0  0  0  0  0
    4.5316    0.3375    5.5909 C   0  0  0  0  0  0  0  0  0  0  0  0
    4.7052    1.6343    6.1367 C   0  0  0  0  0  0  0  0  0  0  0  0
    5.4849    1.8703    7.2660 C   0  0  0  0  0  0  0  0  0  0  0  0
    6.1065    0.7746    7.8773 C   0  0  0  0  0  0  0  0  0  0  0  0
    5.9603   -0.5365    7.3496 C   0  0  0  0  0  0  0  0  0  0  0  0
    5.1742   -0.7452    6.2116 C   0  0  0  0  0  0  0  0  0  0  0  0
    6.7406   -1.4157    8.2005 C   0  0  0  0  0  0  0  0  0  0  0  0
    6.9780   -2.7944    8.2022 C   0  0  0  0  0  0  0  0  0  0  0  0
    7.8011   -3.3661    9.1850 C   0  0  0  0  0  0  0  0  0  0  0  0
    8.0711   -4.8272    9.1947 C   0  0  0  0  0  0  0  0  0  0  0  0
    9.3329   -5.3301    9.5706 C   0  0  0  0  0  0  0  0  0  0  0  0
    9.5943   -6.6997    9.5767 C   0  0  0  0  0  0  0  0  0  0  0  0
    8.5873   -7.5892    9.1941 C   0  0  0  0  0  0  0  0  0  0  0  0
    8.9143   -9.3617    9.2206 S   0  0  1  0  0  0  0  0  0  0  0  0
   10.0944   -9.5729   10.0731 O   0  0  0  0  0  0  0  0  0  0  0  0
    7.6352  -10.0391    9.4821 O   0  0  0  0  0  0  0  0  0  0  0  0
    9.3978   -9.7744    7.5284 C   0  0  0  0  0  0  0  0  0  0  0  0
   10.7396   -9.6581    7.1538 C   0  0  0  0  0  0  0  0  0  0  0  0
   11.1086   -9.9932    5.8488 C   0  0  0  0  0  0  0  0  0  0  0  0
   10.1451  -10.4474    4.9413 C   0  0  0  0  0  0  0  0  0  0  0  0
    8.8095  -10.5777    5.3366 C   0  0  0  0  0  0  0  0  0  0  0  0
    8.4278  -10.2444    6.6390 C   0  0  0  0  0  0  0  0  0  0  0  0
    7.3187   -7.1245    8.8359 C   0  0  0  0  0  0  0  0  0  0  0  0
    7.0704   -5.7531    8.8345 C   0  0  0  0  0  0  0  0  0  0  0  0
    8.3689   -2.5213   10.1718 C   0  0  0  0  0  0  0  0  0  0  0  0
    8.1443   -1.1473   10.1963 C   0  0  0  0  0  0  0  0  0  0  0  0
    7.3332   -0.5951    9.1974 C   0  0  0  0  0  0  0  0  0  0  0  0
    6.9413    0.7292    8.9948 N   0  0  0  0  0  0  0  0  0  0  0  0
    7.3295    1.8433    9.7908 C   0  0  0  0  0  0  0  0  0  0  0  0
    8.6869    2.1680    9.9323 C   0  0  0  0  0  0  0  0  0  0  0  0
    9.0648    3.2556   10.7231 C   0  0  0  0  0  0  0  0  0  0  0  0
    8.0948    4.0348   11.3613 C   0  0  0  0  0  0  0  0  0  0  0  0
    6.7414    3.7163   11.2125 C   0  0  0  0  0  0  0  0  0  0  0  0
    6.3565    2.6194   10.4379 C   0  0  0  0  0  0  0  0  0  0  0  0
    2.5154    0.8873    4.1803 C   0  0  0  0  0  0  0  0  0  0  0  0
    1.7195    0.6979    3.0518 C   0  0  0  0  0  0  0  0  0  0  0  0
    0.2465    2.1559   -0.0420 H   0  0  0  0  0  0  0  0  0  0  0  0
    1.0783    3.7611   -1.7800 H   0  0  0  0  0  0  0  0  0  0  0  0
    2.9332    3.0874   -3.3010 H   0  0  0  0  0  0  0  0  0  0  0  0
    3.9494    0.8206   -3.1083 H   0  0  0  0  0  0  0  0  0  0  0  0
    3.1101   -0.7775   -1.3694 H   0  0  0  0  0  0  0  0  0  0  0  0
    3.5055   -1.7911    1.5433 H   0  0  0  0  0  0  0  0  0  0  0  0
    4.9426   -1.4202    3.5381 H   0  0  0  0  0  0  0  0  0  0  0  0
    4.2359    2.4859    5.6395 H   0  0  0  0  0  0  0  0  0  0  0  0
    5.6130    2.8832    7.6507 H   0  0  0  0  0  0  0  0  0  0  0  0
    5.0418   -1.7568    5.8218 H   0  0  0  0  0  0  0  0  0  0  0  0
    6.5408   -3.4219    7.4223 H   0  0  0  0  0  0  0  0  0  0  0  0
   10.1297   -4.6361    9.8462 H   0  0  0  0  0  0  0  0  0  0  0  0
   10.5683   -7.0854    9.8832 H   0  0  0  0  0  0  0  0  0  0  0  0
   11.4804   -9.3274    7.8841 H   0  0  0  0  0  0  0  0  0  0  0  0
   12.1541   -9.9086    5.5420 H   0  0  0  0  0  0  0  0  0  0  0  0
   10.4390  -10.7108    3.9221 H   0  0  0  0  0  0  0  0  0  0  0  0
    8.0623  -10.9488    4.6307 H   0  0  0  0  0  0  0  0  0  0  0  0
    7.3967  -10.3619    6.9771 H   0  0  0  0  0  0  0  0  0  0  0  0
    6.5289   -7.8363    8.5889 H   0  0  0  0  0  0  0  0  0  0  0  0
    6.0701   -5.3942    8.5828 H   0  0  0  0  0  0  0  0  0  0  0  0
    8.9809   -2.9642   10.9604 H   0  0  0  0  0  0  0  0  0  0  0  0
    8.5805   -0.5274   10.9809 H   0  0  0  0  0  0  0  0  0  0  0  0
    9.4395    1.5701    9.4143 H   0  0  0  0  0  0  0  0  0  0  0  0
   10.1240    3.5021   10.8307 H   0  0  0  0  0  0  0  0  0  0  0  0
    8.3931    4.8888   11.9740 H   0  0  0  0  0  0  0  0  0  0  0  0
    5.9783    4.3176   11.7129 H   0  0  0  0  0  0  0  0  0  0  0  0
    5.3024    2.3526   10.3377 H   0  0  0  0  0  0  0  0  0  0  0  0
    2.2018    1.6104    4.9362 H   0  0  0  0  0  0  0  0  0  0  0  0
    0.7942    1.2614    2.9179 H   0  0  0  0  0  0  0  0  0  0  0  0
  1  2  2  0
  2  3  2  0
  2  4  1  6
  2 10  1  0
  4  5  2  0
  4  9  1  0
  5  6  1  0
  5 50  1  0
  6  7  2  0
  6 51  1  0
  7  8  1  0
  7 52  1  0
  8  9  2  0
  8 53  1  0
  9 54  1  0
 10 11  2  0
 10 49  1  0
 11 12  1  0
 11 55  1  0
 12 13  2  0
 12 56  1  0
 13 14  1  0
 13 48  1  0
 14 15  2  0
 14 19  1  0
 15 16  1  0
 15 57  1  0
 16 17  2  0
 16 58  1  0
 17 18  1  0
 17 41  1  0
 18 19  2  0
 18 20  1  0
 19 59  1  0
 20 21  2  0
 20 40  1  0
 21 22  1  0
 21 60  1  0
 22 23  1  0
 22 38  2  0
 23 24  2  0
 23 37  1  0
 24 25  1  0
 24 61  1  0
 25 26  2  0
 25 62  1  0
 27 26  1  6
 26 36  1  0
 27 28  2  0
 27 29  2  0
 27 30  1  0
 30 31  2  0
 30 35  1  0
 31 32  1  0
 31 63  1  0
 32 33  2  0
 32 64  1  0
 33 34  1  0
 33 65  1  0
 34 35  2  0
 34 66  1  0
 35 67  1  0
 36 37  2  0
 36 68  1  0
 37 69  1  0
 38 39  1  0
 38 70  1  0
 39 40  2  0
 39 71  1  0
 40 41  1  0
 41 42  1  0
 42 43  2  0
 42 47  1  0
 43 44  1  0
 43 72  1  0
 44 45  2  0
 44 73  1  0
 45 46  1  0
 45 74  1  0
 46 47  2  0
 46 75  1  0
 47 76  1  0
 48 49  2  0
 48 77  1  0
 49 78  1  0
M  END

