
     RDKit          3D

 95100  0  0  0  0  0  0  0  0999 V2000
   16.1662   -3.5229   -0.4132 C   0  0  0  0  0  0  0  0  0  0  0  0
   15.2410   -4.0553   -1.5116 C   0  0  1  0  0  0  0  0  0  0  0  0
   14.2387   -2.9966   -1.9837 C   0  0  0  0  0  0  0  0  0  0  0  0
   16.0536   -4.5817   -2.6969 C   0  0  0  0  0  0  0  0  0  0  0  0
   14.5203   -5.2520   -1.0469 O   0  0  0  0  0  0  0  0  0  0  0  0
   13.5783   -5.1684   -0.0736 C   0  0  0  0  0  0  0  0  0  0  0  0
   13.4239   -4.1962    0.6501 O   0  0  0  0  0  0  0  0  0  0  0  0
   12.7915   -6.2867   -0.0160 N   0  0  0  0  0  0  0  0  0  0  0  0
   11.7596   -6.3146    1.0228 C   0  0  0  0  0  0  0  0  0  0  0  0
   10.5504   -7.1370    0.5781 C   0  0  0  0  0  0  0  0  0  0  0  0
   10.9450   -8.5644    0.1592 C   0  0  2  0  0  0  0  0  0  0  0  0
   11.4178   -9.4204    1.3547 C   0  0  0  0  0  0  0  0  0  0  0  0
   10.2800   -9.7494    2.3178 C   0  0  0  0  0  0  0  0  0  0  0  0
    9.2157  -10.1656    1.9139 O   0  0  0  0  0  0  0  0  0  0  0  0
   10.5174   -9.5314    3.8135 C   0  0  0  0  0  0  0  0  0  0  0  0
   10.7402   -8.1182    4.0935 N   0  0  0  0  0  0  0  0  0  0  0  0
   10.8967   -7.7708    5.5106 C   0  0  2  0  0  0  0  0  0  0  0  0
   10.7427   -6.2446    5.7090 C   0  0  1  0  0  0  0  0  0  0  0  0
    9.7777   -5.9249    5.2736 H   0  0  0  0  0  0  0  0  0  0  0  0
   10.7509   -5.9284    7.2164 C   0  0  0  0  0  0  0  0  0  0  0  0
   12.0943   -6.3723    7.8238 C   0  0  1  0  0  0  0  0  0  0  0  0
   12.2690   -7.8876    7.6089 C   0  0  0  0  0  0  0  0  0  0  0  0
   12.2620   -8.1983    6.0994 C   0  0  2  0  0  0  0  0  0  0  0  0
   12.4025   -9.2833    5.9567 H   0  0  0  0  0  0  0  0  0  0  0  0
   13.4146   -7.4429    5.4118 C   0  0  0  0  0  0  0  0  0  0  0  0
   13.2582   -5.9163    5.6117 C   0  0  2  0  0  0  0  0  0  0  0  0
   14.4239   -5.1150    4.9735 C   0  0  0  0  0  0  0  0  0  0  0  0
   14.7986   -5.4881    3.6190 N   0  0  0  0  0  0  0  0  0  0  0  0
   15.8054   -6.2915    3.1988 C   0  0  0  0  0  0  0  0  0  0  0  0
   15.8501   -6.4911    1.8729 N   0  0  0  0  0  0  0  0  0  0  0  0
   16.8141   -7.2563    1.3508 C   0  0  0  0  0  0  0  0  0  0  0  0
   16.8134   -7.3866   -0.0016 N   0  0  0  0  0  0  0  0  0  0  0  0
   17.7359   -8.2186   -0.7508 C   0  0  0  0  0  0  0  0  0  0  0  0
   17.0540   -8.9933   -1.8605 C   0  0  0  0  0  0  0  0  0  0  0  0
   17.3026   -8.6676   -3.2033 C   0  0  0  0  0  0  0  0  0  0  0  0
   16.6963   -9.3583   -4.2555 C   0  0  0  0  0  0  0  0  0  0  0  0
   15.8148  -10.4050   -3.9779 C   0  0  0  0  0  0  0  0  0  0  0  0
   15.5476  -10.7563   -2.6524 C   0  0  0  0  0  0  0  0  0  0  0  0
   16.1622  -10.0537   -1.6126 C   0  0  0  0  0  0  0  0  0  0  0  0
   15.8077  -10.5421    0.0352 Cl  0  0  0  0  0  0  0  0  0  0  0  0
   17.7785   -7.9002    2.0458 N   0  0  0  0  0  0  0  0  0  0  0  0
   17.7440   -7.7204    3.3528 C   0  0  0  0  0  0  0  0  0  0  0  0
   16.8006   -6.9232    4.0302 C   0  0  0  0  0  0  0  0  0  0  0  0
   16.9224   -6.8223    5.4450 C   0  0  0  0  0  0  0  0  0  0  0  0
   17.0682   -6.7860    6.6001 N   0  0  0  0  0  0  0  0  0  0  0  0
   13.2473   -5.6207    7.1319 C   0  0  0  0  0  0  0  0  0  0  0  0
   11.8950   -5.4868    5.0200 C   0  0  0  0  0  0  0  0  0  0  0  0
   11.9936   -8.4454   -0.9600 C   0  0  0  0  0  0  0  0  0  0  0  0
   13.1973   -7.5792   -0.5762 C   0  0  0  0  0  0  0  0  0  0  0  0
   16.7674   -2.6903   -0.8116 H   0  0  0  0  0  0  0  0  0  0  0  0
   16.8529   -4.3108   -0.0703 H   0  0  0  0  0  0  0  0  0  0  0  0
   15.5872   -3.1658    0.4465 H   0  0  0  0  0  0  0  0  0  0  0  0
   14.7806   -2.1547   -2.4418 H   0  0  0  0  0  0  0  0  0  0  0  0
   13.6417   -2.6155   -1.1459 H   0  0  0  0  0  0  0  0  0  0  0  0
   13.5608   -3.4192   -2.7422 H   0  0  0  0  0  0  0  0  0  0  0  0
   16.6336   -3.7639   -3.1506 H   0  0  0  0  0  0  0  0  0  0  0  0
   15.3927   -5.0099   -3.4656 H   0  0  0  0  0  0  0  0  0  0  0  0
   16.7598   -5.3619   -2.3748 H   0  0  0  0  0  0  0  0  0  0  0  0
   11.4724   -5.2773    1.2319 H   0  0  0  0  0  0  0  0  0  0  0  0
   12.1717   -6.7280    1.9610 H   0  0  0  0  0  0  0  0  0  0  0  0
   10.0685   -6.6343   -0.2778 H   0  0  0  0  0  0  0  0  0  0  0  0
    9.8052   -7.1515    1.3895 H   0  0  0  0  0  0  0  0  0  0  0  0
   10.0548   -9.0719   -0.2455 H   0  0  0  0  0  0  0  0  0  0  0  0
   12.2518   -8.9574    1.8996 H   0  0  0  0  0  0  0  0  0  0  0  0
   11.7835  -10.3922    0.9747 H   0  0  0  0  0  0  0  0  0  0  0  0
   11.4157  -10.1047    4.1050 H   0  0  0  0  0  0  0  0  0  0  0  0
    9.6508   -9.9657    4.3528 H   0  0  0  0  0  0  0  0  0  0  0  0
    9.9464   -7.5891    3.7320 H   0  0  0  0  0  0  0  0  0  0  0  0
   10.1043   -8.2712    6.1112 H   0  0  0  0  0  0  0  0  0  0  0  0
    9.9144   -6.4427    7.7199 H   0  0  0  0  0  0  0  0  0  0  0  0
   10.5995   -4.8463    7.3706 H   0  0  0  0  0  0  0  0  0  0  0  0
   12.1067   -6.1467    8.9036 H   0  0  0  0  0  0  0  0  0  0  0  0
   11.4608   -8.4402    8.1186 H   0  0  0  0  0  0  0  0  0  0  0  0
   13.2190   -8.2280    8.0537 H   0  0  0  0  0  0  0  0  0  0  0  0
   13.4254   -7.6799    4.3373 H   0  0  0  0  0  0  0  0  0  0  0  0
   14.3733   -7.7817    5.8365 H   0  0  0  0  0  0  0  0  0  0  0  0
   15.3043   -5.1899    5.6211 H   0  0  0  0  0  0  0  0  0  0  0  0
   14.1445   -4.0479    4.9583 H   0  0  0  0  0  0  0  0  0  0  0  0
   14.2500   -5.1103    2.8466 H   0  0  0  0  0  0  0  0  0  0  0  0
   16.1025   -6.8489   -0.4910 H   0  0  0  0  0  0  0  0  0  0  0  0
   18.2105   -8.8976   -0.0289 H   0  0  0  0  0  0  0  0  0  0  0  0
   18.5424   -7.6087   -1.1968 H   0  0  0  0  0  0  0  0  0  0  0  0
   17.9962   -7.8505   -3.4209 H   0  0  0  0  0  0  0  0  0  0  0  0
   16.9137   -9.0790   -5.2890 H   0  0  0  0  0  0  0  0  0  0  0  0
   15.3342  -10.9559   -4.7900 H   0  0  0  0  0  0  0  0  0  0  0  0
   14.8696  -11.5778   -2.4147 H   0  0  0  0  0  0  0  0  0  0  0  0
   18.5142   -8.2292    3.9447 H   0  0  0  0  0  0  0  0  0  0  0  0
   13.1446   -4.5334    7.3005 H   0  0  0  0  0  0  0  0  0  0  0  0
   14.2131   -5.9230    7.5715 H   0  0  0  0  0  0  0  0  0  0  0  0
   11.8787   -5.6725    3.9358 H   0  0  0  0  0  0  0  0  0  0  0  0
   11.7553   -4.4004    5.1630 H   0  0  0  0  0  0  0  0  0  0  0  0
   11.5048   -8.0042   -1.8457 H   0  0  0  0  0  0  0  0  0  0  0  0
   12.3639   -9.4395   -1.2607 H   0  0  0  0  0  0  0  0  0  0  0  0
   13.8159   -7.3960   -1.4619 H   0  0  0  0  0  0  0  0  0  0  0  0
   13.8292   -8.1145    0.1561 H   0  0  0  0  0  0  0  0  0  0  0  0
  1  2  1  0
  1 50  1  0
  1 51  1  0
  1 52  1  0
  2  3  1  0
  2  4  1  0
  2  5  1  1
  3 53  1  0
  3 54  1  0
  3 55  1  0
  4 56  1  0
  4 57  1  0
  4 58  1  0
  5  6  1  0
  6  7  2  0
  6  8  1  0
  8  9  1  0
  8 49  1  0
  9 10  1  0
  9 59  1  0
  9 60  1  0
 10 11  1  0
 10 61  1  0
 10 62  1  0
 11 12  1  0
 11 48  1  0
 11 63  1  6
 12 13  1  0
 12 64  1  0
 12 65  1  0
 13 14  2  0
 13 15  1  0
 15 16  1  0
 15 66  1  0
 15 67  1  0
 16 17  1  0
 16 68  1  0
 17 18  1  0
 17 23  1  0
 17 69  1  1
 18 19  1  6
 18 20  1  0
 18 47  1  0
 20 21  1  0
 20 70  1  0
 20 71  1  0
 21 22  1  0
 21 46  1  0
 21 72  1  1
 22 23  1  0
 22 73  1  0
 22 74  1  0
 23 24  1  1
 23 25  1  0
 25 26  1  0
 25 75  1  0
 25 76  1  0
 26 27  1  6
 26 46  1  0
 26 47  1  0
 27 28  1  0
 27 77  1  0
 27 78  1  0
 28 29  1  0
 28 79  1  0
 29 30  2  0
 29 43  1  0
 30 31  1  0
 31 32  1  0
 31 41  2  0
 32 33  1  0
 32 80  1  0
 33 34  1  0
 33 81  1  0
 33 82  1  0
 34 35  2  0
 34 39  1  0
 35 36  1  0
 35 83  1  0
 36 37  2  0
 36 84  1  0
 37 38  1  0
 37 85  1  0
 38 39  2  0
 38 86  1  0
 39 40  1  0
 41 42  1  0
 42 43  2  0
 42 87  1  0
 43 44  1  0
 44 45  3  0
 46 88  1  0
 46 89  1  0
 47 90  1  0
 47 91  1  0
 48 49  1  0
 48 92  1  0
 48 93  1  0
 49 94  1  0
 49 95  1  0
M  END

