
     RDKit          3D

 45 46  0  0  0  0  0  0  0  0999 V2000
    1.2273    1.2660   -1.0535 C   0  0  0  0  0  0  0  0  0  0  0  0
    2.6900    1.0781   -1.4211 C   0  0  0  0  0  0  0  0  0  0  0  0
    2.9913   -0.3033   -1.3261 O   0  0  0  0  0  0  0  0  0  0  0  0
    4.3620   -0.7692   -1.3773 C   0  0  1  0  0  0  0  0  0  0  0  0
    4.9750   -0.4286    0.0303 C   0  0  1  0  0  0  0  0  0  0  0  0
    4.2368   -1.0156    1.1584 N   0  0  0  0  0  0  0  0  0  0  0  0
    4.5865   -2.3286    1.6754 C   0  0  0  0  0  0  0  0  0  0  0  0
    6.4832   -0.5485    0.2128 C   0  0  0  0  0  0  0  0  0  0  0  0
    7.2298   -1.6864   -0.1326 C   0  0  0  0  0  0  0  0  0  0  0  0
    8.6066   -1.7234    0.0670 C   0  0  0  0  0  0  0  0  0  0  0  0
    9.2807   -2.8326   -0.2803 F   0  0  0  0  0  0  0  0  0  0  0  0
    9.2986   -0.6471    0.6127 C   0  0  0  0  0  0  0  0  0  0  0  0
    8.5701    0.4863    0.9726 C   0  0  0  0  0  0  0  0  0  0  0  0
    7.1825    0.5404    0.7860 C   0  0  0  0  0  0  0  0  0  0  0  0
    6.5258    1.6963    1.1289 O   0  0  0  0  0  0  0  0  0  0  0  0
    5.9871    1.7347    2.4478 C   0  0  0  0  0  0  0  0  0  0  0  0
    4.1957   -2.2656   -1.7033 C   0  0  0  0  0  0  0  0  0  0  0  0
    3.6555   -2.4684   -3.1208 C   0  0  0  0  0  0  0  0  0  0  0  0
    4.4859   -1.8538   -4.0871 O   0  0  0  0  0  0  0  0  0  0  0  0
    4.5793   -0.4577   -3.8979 C   0  0  0  0  0  0  0  0  0  0  0  0
    5.1544   -0.1084   -2.5221 C   0  0  0  0  0  0  0  0  0  0  0  0
    0.9379    2.3240   -1.1539 H   0  0  0  0  0  0  0  0  0  0  0  0
    1.0391    0.9523   -0.0148 H   0  0  0  0  0  0  0  0  0  0  0  0
    0.5822    0.6651   -1.7132 H   0  0  0  0  0  0  0  0  0  0  0  0
    3.3272    1.6826   -0.7480 H   0  0  0  0  0  0  0  0  0  0  0  0
    2.8680    1.4502   -2.4479 H   0  0  0  0  0  0  0  0  0  0  0  0
    4.7964    0.6538    0.1044 H   0  0  0  0  0  0  0  0  0  0  0  0
    3.2430   -0.9556    0.9447 H   0  0  0  0  0  0  0  0  0  0  0  0
    5.5912   -2.3129    2.1253 H   0  0  0  0  0  0  0  0  0  0  0  0
    4.5677   -3.1636    0.9453 H   0  0  0  0  0  0  0  0  0  0  0  0
    3.8791   -2.5834    2.4806 H   0  0  0  0  0  0  0  0  0  0  0  0
    6.7607   -2.5693   -0.5643 H   0  0  0  0  0  0  0  0  0  0  0  0
   10.3803   -0.7063    0.7468 H   0  0  0  0  0  0  0  0  0  0  0  0
    9.0693    1.3590    1.3989 H   0  0  0  0  0  0  0  0  0  0  0  0
    6.7844    1.6250    3.2058 H   0  0  0  0  0  0  0  0  0  0  0  0
    5.2343    0.9407    2.5914 H   0  0  0  0  0  0  0  0  0  0  0  0
    5.5154    2.7202    2.5699 H   0  0  0  0  0  0  0  0  0  0  0  0
    3.5073   -2.7221   -0.9766 H   0  0  0  0  0  0  0  0  0  0  0  0
    5.1637   -2.7796   -1.6265 H   0  0  0  0  0  0  0  0  0  0  0  0
    2.6254   -2.0678   -3.1857 H   0  0  0  0  0  0  0  0  0  0  0  0
    3.6225   -3.5399   -3.3711 H   0  0  0  0  0  0  0  0  0  0  0  0
    3.5827    0.0110   -4.0313 H   0  0  0  0  0  0  0  0  0  0  0  0
    5.2350   -0.0741   -4.6950 H   0  0  0  0  0  0  0  0  0  0  0  0
    5.2031    0.9849   -2.3915 H   0  0  0  0  0  0  0  0  0  0  0  0
    6.1913   -0.4742   -2.4759 H   0  0  0  0  0  0  0  0  0  0  0  0
  1  2  1  0
  1 22  1  0
  1 23  1  0
  1 24  1  0
  2  3  1  0
  2 25  1  0
  2 26  1  0
  4  3  1  1
  4  5  1  0
  4 17  1  0
  4 21  1  0
  5  6  1  0
  5  8  1  0
  5 27  1  1
  6  7  1  0
  6 28  1  0
  7 29  1  0
  7 30  1  0
  7 31  1  0
  8  9  2  0
  8 14  1  0
  9 10  1  0
  9 32  1  0
 10 11  1  0
 10 12  2  0
 12 13  1  0
 12 33  1  0
 13 14  2  0
 13 34  1  0
 14 15  1  0
 15 16  1  0
 16 35  1  0
 16 36  1  0
 16 37  1  0
 17 18  1  0
 17 38  1  0
 17 39  1  0
 18 19  1  0
 18 40  1  0
 18 41  1  0
 19 20  1  0
 20 21  1  0
 20 42  1  0
 20 43  1  0
 21 44  1  0
 21 45  1  0
M  END

