
     RDKit          3D

 41 41  0  0  0  0  0  0  0  0999 V2000
    0.8363    2.0811    0.5367 C   0  0  0  0  0  0  0  0  0  0  0  0
    2.1079    1.2672    0.2327 C   0  0  1  0  0  0  0  0  0  0  0  0
    1.8014    0.2385   -0.0261 H   0  0  0  0  0  0  0  0  0  0  0  0
    2.8602    1.8106   -0.8765 N   0  0  0  0  0  0  0  0  0  0  0  0
    2.5215    1.5651   -2.1739 C   0  0  0  0  0  0  0  0  0  0  0  0
    1.5222    0.9197   -2.4607 O   0  0  0  0  0  0  0  0  0  0  0  0
    3.4807    2.1440   -3.2443 C   0  0  1  0  0  0  0  0  0  0  0  0
    4.8692    1.4851   -3.0940 C   0  0  0  0  0  0  0  0  0  0  0  0
    2.9047    1.8273   -4.6320 C   0  0  0  0  0  0  0  0  0  0  0  0
    3.6016    3.6726   -3.0678 C   0  0  0  0  0  0  0  0  0  0  0  0
    3.0524    1.2300    1.4457 C   0  0  0  0  0  0  0  0  0  0  0  0
    4.0918    1.8778    1.4648 O   0  0  0  0  0  0  0  0  0  0  0  0
    2.6403    0.4511    2.4801 N   0  0  0  0  0  0  0  0  0  0  0  0
    3.3551    0.3777    3.7502 C   0  0  0  0  0  0  0  0  0  0  0  0
    2.7322    1.2194    4.8482 C   0  0  0  0  0  0  0  0  0  0  0  0
    2.0612    0.6226    5.9241 C   0  0  0  0  0  0  0  0  0  0  0  0
    1.4729    1.4057    6.9235 C   0  0  0  0  0  0  0  0  0  0  0  0
    1.5496    2.7985    6.8551 C   0  0  0  0  0  0  0  0  0  0  0  0
    2.2197    3.4047    5.7857 C   0  0  0  0  0  0  0  0  0  0  0  0
    2.8078    2.6219    4.7907 C   0  0  0  0  0  0  0  0  0  0  0  0
    0.1984    2.0907   -0.3583 H   0  0  0  0  0  0  0  0  0  0  0  0
    1.0967    3.1168    0.8045 H   0  0  0  0  0  0  0  0  0  0  0  0
    0.2612    1.6418    1.3671 H   0  0  0  0  0  0  0  0  0  0  0  0
    3.7204    2.2850   -0.6159 H   0  0  0  0  0  0  0  0  0  0  0  0
    4.8016    0.3907   -3.1998 H   0  0  0  0  0  0  0  0  0  0  0  0
    5.3309    1.7015   -2.1177 H   0  0  0  0  0  0  0  0  0  0  0  0
    5.5528    1.8576   -3.8743 H   0  0  0  0  0  0  0  0  0  0  0  0
    2.7877    0.7435   -4.7745 H   0  0  0  0  0  0  0  0  0  0  0  0
    3.5726    2.2166   -5.4170 H   0  0  0  0  0  0  0  0  0  0  0  0
    1.9104    2.2793   -4.7623 H   0  0  0  0  0  0  0  0  0  0  0  0
    4.0532    3.9489   -2.1020 H   0  0  0  0  0  0  0  0  0  0  0  0
    2.6157    4.1604   -3.1303 H   0  0  0  0  0  0  0  0  0  0  0  0
    4.2382    4.0963   -3.8617 H   0  0  0  0  0  0  0  0  0  0  0  0
    1.7377   -0.0049    2.4131 H   0  0  0  0  0  0  0  0  0  0  0  0
    4.3789    0.7190    3.5418 H   0  0  0  0  0  0  0  0  0  0  0  0
    3.4072   -0.6760    4.0670 H   0  0  0  0  0  0  0  0  0  0  0  0
    2.0013   -0.4685    5.9853 H   0  0  0  0  0  0  0  0  0  0  0  0
    0.9548    0.9247    7.7574 H   0  0  0  0  0  0  0  0  0  0  0  0
    1.0916    3.4126    7.6348 H   0  0  0  0  0  0  0  0  0  0  0  0
    2.2883    4.4943    5.7310 H   0  0  0  0  0  0  0  0  0  0  0  0
    3.3377    3.0943    3.9589 H   0  0  0  0  0  0  0  0  0  0  0  0
  1  2  1  0
  1 21  1  0
  1 22  1  0
  1 23  1  0
  2  3  1  6
  2  4  1  0
  2 11  1  0
  4  5  1  0
  4 24  1  0
  5  6  2  0
  7  5  1  1
  7  8  1  0
  7  9  1  0
  7 10  1  0
  8 25  1  0
  8 26  1  0
  8 27  1  0
  9 28  1  0
  9 29  1  0
  9 30  1  0
 10 31  1  0
 10 32  1  0
 10 33  1  0
 11 12  2  0
 11 13  1  0
 13 14  1  0
 13 34  1  0
 14 15  1  0
 14 35  1  0
 14 36  1  0
 15 16  2  0
 15 20  1  0
 16 17  1  0
 16 37  1  0
 17 18  2  0
 17 38  1  0
 18 19  1  0
 18 39  1  0
 19 20  2  0
 19 40  1  0
 20 41  1  0
M  END

