
     RDKit          3D

 51 53  0  0  0  0  0  0  0  0999 V2000
   -0.0964    0.4928    1.6820 C   0  0  0  0  0  0  0  0  0  0  0  0
    0.8318    1.2957    0.7617 C   0  0  1  0  0  0  0  0  0  0  0  0
    0.2426    2.6617    0.3875 C   0  0  0  0  0  0  0  0  0  0  0  0
    2.1731    1.4247    1.3269 N   0  0  0  0  0  0  0  0  0  0  0  0
    2.4709    2.1378    2.5592 C   0  0  0  0  0  0  0  0  0  0  0  0
    4.0006    2.3411    2.5220 C   0  0  2  0  0  0  0  0  0  0  0  0
    4.4176    2.2351    3.5333 H   0  0  0  0  0  0  0  0  0  0  0  0
    4.3523    3.7360    1.9622 C   0  0  0  0  0  0  0  0  0  0  0  0
    3.4906    4.4528    1.4741 O   0  0  0  0  0  0  0  0  0  0  0  0
    5.6727    4.1126    1.9898 N   0  0  0  0  0  0  0  0  0  0  0  0
    6.6889    3.5037    2.8474 C   0  0  0  0  0  0  0  0  0  0  0  0
    6.7943    4.1605    4.2318 C   0  0  0  0  0  0  0  0  0  0  0  0
    6.9259    5.6942    4.2379 C   0  0  0  0  0  0  0  0  0  0  0  0
    5.6920    6.4478    3.7000 C   0  0  0  0  0  0  0  0  0  0  0  0
    5.5845    6.6204    2.1720 C   0  0  0  0  0  0  0  0  0  0  0  0
    6.0599    5.4020    1.3629 C   0  0  2  0  0  0  0  0  0  0  0  0
    7.1628    5.3877    1.4258 H   0  0  0  0  0  0  0  0  0  0  0  0
    5.7623    5.4200   -0.1245 C   0  0  0  0  0  0  0  0  0  0  0  0
    6.2981    4.3166   -0.9168 C   0  0  0  0  0  0  0  0  0  0  0  0
    6.0569    4.3647   -2.3124 C   0  0  0  0  0  0  0  0  0  0  0  0
    5.4018    5.3734   -2.7803 N   0  0  0  0  0  0  0  0  0  0  0  0
    4.8733    6.4650   -2.1691 C   0  0  0  0  0  0  0  0  0  0  0  0
    5.0785    6.4375   -0.7488 C   0  0  0  0  0  0  0  0  0  0  0  0
    4.4915    1.2168    1.5806 C   0  0  0  0  0  0  0  0  0  0  0  0
    3.2702    0.8671    0.7275 C   0  0  0  0  0  0  0  0  0  0  0  0
    3.2757    0.1983   -0.2888 O   0  0  0  0  0  0  0  0  0  0  0  0
   -1.0745    0.3385    1.1994 H   0  0  0  0  0  0  0  0  0  0  0  0
   -0.2784    1.0178    2.6349 H   0  0  0  0  0  0  0  0  0  0  0  0
    0.3309   -0.4963    1.9093 H   0  0  0  0  0  0  0  0  0  0  0  0
    0.9928    0.7176   -0.1616 H   0  0  0  0  0  0  0  0  0  0  0  0
    0.0014    3.2622    1.2799 H   0  0  0  0  0  0  0  0  0  0  0  0
   -0.6898    2.5292   -0.1840 H   0  0  0  0  0  0  0  0  0  0  0  0
    0.9516    3.2394   -0.2234 H   0  0  0  0  0  0  0  0  0  0  0  0
    2.1761    1.5468    3.4471 H   0  0  0  0  0  0  0  0  0  0  0  0
    1.9513    3.1051    2.5911 H   0  0  0  0  0  0  0  0  0  0  0  0
    7.6562    3.5864    2.3240 H   0  0  0  0  0  0  0  0  0  0  0  0
    6.4996    2.4276    2.9574 H   0  0  0  0  0  0  0  0  0  0  0  0
    7.6569    3.7121    4.7561 H   0  0  0  0  0  0  0  0  0  0  0  0
    5.9010    3.8892    4.8238 H   0  0  0  0  0  0  0  0  0  0  0  0
    7.8352    6.0032    3.6896 H   0  0  0  0  0  0  0  0  0  0  0  0
    7.0939    6.0041    5.2829 H   0  0  0  0  0  0  0  0  0  0  0  0
    5.6628    7.4532    4.1516 H   0  0  0  0  0  0  0  0  0  0  0  0
    4.7871    5.9354    4.0711 H   0  0  0  0  0  0  0  0  0  0  0  0
    6.1893    7.4851    1.8492 H   0  0  0  0  0  0  0  0  0  0  0  0
    4.5378    6.8456    1.9235 H   0  0  0  0  0  0  0  0  0  0  0  0
    6.8382    3.4740   -0.4930 H   0  0  0  0  0  0  0  0  0  0  0  0
    6.3970    3.5910   -3.0105 H   0  0  0  0  0  0  0  0  0  0  0  0
    4.3108    7.2049   -2.7292 H   0  0  0  0  0  0  0  0  0  0  0  0
    4.6487    7.2679   -0.1867 H   0  0  0  0  0  0  0  0  0  0  0  0
    4.8007    0.3133    2.1329 H   0  0  0  0  0  0  0  0  0  0  0  0
    5.3232    1.5052    0.9227 H   0  0  0  0  0  0  0  0  0  0  0  0
  1  2  1  0
  1 27  1  0
  1 28  1  0
  1 29  1  0
  2  3  1  0
  2  4  1  0
  2 30  1  6
  3 31  1  0
  3 32  1  0
  3 33  1  0
  4  5  1  0
  4 25  1  0
  5  6  1  0
  5 34  1  0
  5 35  1  0
  6  7  1  1
  6  8  1  0
  6 24  1  0
  8  9  2  0
  8 10  1  0
 10 11  1  0
 10 16  1  0
 11 12  1  0
 11 36  1  0
 11 37  1  0
 12 13  1  0
 12 38  1  0
 12 39  1  0
 13 14  1  0
 13 40  1  0
 13 41  1  0
 14 15  1  0
 14 42  1  0
 14 43  1  0
 15 16  1  0
 15 44  1  0
 15 45  1  0
 16 17  1  6
 16 18  1  0
 18 19  2  0
 18 23  1  0
 19 20  1  0
 19 46  1  0
 20 21  2  0
 20 47  1  0
 21 22  1  0
 22 23  2  0
 22 48  1  0
 23 49  1  0
 24 25  1  0
 24 50  1  0
 24 51  1  0
 25 26  2  0
M  END

