
     RDKit          3D

 65 69  0  0  0  0  0  0  0  0999 V2000
    3.6272   -0.0287   -4.6074 C   0  0  0  0  0  0  0  0  0  0  0  0
    3.0019   -0.7132   -3.5463 O   0  0  0  0  0  0  0  0  0  0  0  0
    3.6569   -0.8189   -2.3514 C   0  0  0  0  0  0  0  0  0  0  0  0
    4.8931   -0.2235   -2.0754 C   0  0  0  0  0  0  0  0  0  0  0  0
    5.4575   -0.3801   -0.8039 C   0  0  0  0  0  0  0  0  0  0  0  0
    4.8178   -1.1406    0.1697 C   0  0  0  0  0  0  0  0  0  0  0  0
    3.5770   -1.7647   -0.0825 C   0  0  0  0  0  0  0  0  0  0  0  0
    2.9319   -2.6080    0.9576 C   0  0  0  0  0  0  0  0  0  0  0  0
    2.5731   -2.0757    2.2220 C   0  0  0  0  0  0  0  0  0  0  0  0
    1.9600   -2.8508    3.1929 C   0  0  0  0  0  0  0  0  0  0  0  0
    1.7011   -4.2465    2.9820 C   0  0  0  0  0  0  0  0  0  0  0  0
    0.9591   -5.0118    3.9420 C   0  0  0  0  0  0  0  0  0  0  0  0
    0.2986   -4.5214    4.9016 O   0  0  0  0  0  0  0  0  0  0  0  0
    2.1490   -4.7949    1.7379 C   0  0  0  0  0  0  0  0  0  0  0  0
    2.7122   -3.9977    0.7545 C   0  0  0  0  0  0  0  0  0  0  0  0
    2.9968   -1.5674   -1.3498 C   0  0  0  0  0  0  0  0  0  0  0  0
    1.7522   -2.1056   -1.6428 O   0  0  0  0  0  0  0  0  0  0  0  0
    0.6945   -1.1688   -1.7119 C   0  0  0  0  0  0  0  0  0  0  0  0
   -0.5450   -1.8812   -2.2361 C   0  0  0  0  0  0  0  0  0  0  0  0
   -1.0265   -3.0787   -1.3868 C   0  0  0  0  0  0  0  0  0  0  0  0
   -1.6702   -2.6801   -0.1489 N   0  0  0  0  0  0  0  0  0  0  0  0
   -3.0974   -2.4503   -0.0720 C   0  0  0  0  0  0  0  0  0  0  0  0
   -3.7538   -3.4057    0.9547 C   0  0  0  0  0  0  0  0  0  0  0  0
   -3.0314   -3.3869    2.3124 C   0  0  2  0  0  0  0  0  0  0  0  0
   -3.3082   -2.1443    3.1247 C   0  0  0  0  0  0  0  0  0  0  0  0
   -4.1087   -1.2185    2.6604 N   0  0  0  0  0  0  0  0  0  0  0  0
   -4.2151   -0.2197    3.6202 O   0  0  0  0  0  0  0  0  0  0  0  0
   -3.4526   -0.5648    4.6821 C   0  0  0  0  0  0  0  0  0  0  0  0
   -3.2922    0.1693    5.8592 C   0  0  0  0  0  0  0  0  0  0  0  0
   -2.4374   -0.4070    6.7906 C   0  0  0  0  0  0  0  0  0  0  0  0
   -2.2303    0.2358    7.9451 F   0  0  0  0  0  0  0  0  0  0  0  0
   -1.7670   -1.6291    6.5822 C   0  0  0  0  0  0  0  0  0  0  0  0
   -1.9436   -2.3427    5.4032 C   0  0  0  0  0  0  0  0  0  0  0  0
   -2.8192   -1.7949    4.4390 C   0  0  0  0  0  0  0  0  0  0  0  0
   -1.5272   -3.6195    2.1011 C   0  0  0  0  0  0  0  0  0  0  0  0
   -0.9324   -2.6091    1.1030 C   0  0  0  0  0  0  0  0  0  0  0  0
    2.9483   -0.0959   -5.4688 H   0  0  0  0  0  0  0  0  0  0  0  0
    4.5940   -0.4892   -4.8786 H   0  0  0  0  0  0  0  0  0  0  0  0
    3.7987    1.0374   -4.3712 H   0  0  0  0  0  0  0  0  0  0  0  0
    5.4164    0.3572   -2.8348 H   0  0  0  0  0  0  0  0  0  0  0  0
    6.4218    0.0864   -0.5861 H   0  0  0  0  0  0  0  0  0  0  0  0
    5.2812   -1.2859    1.1478 H   0  0  0  0  0  0  0  0  0  0  0  0
    2.7694   -1.0173    2.4233 H   0  0  0  0  0  0  0  0  0  0  0  0
    1.6641   -2.4201    4.1517 H   0  0  0  0  0  0  0  0  0  0  0  0
    0.9421   -6.1155    3.7617 H   0  0  0  0  0  0  0  0  0  0  0  0
    2.0140   -5.8664    1.5550 H   0  0  0  0  0  0  0  0  0  0  0  0
    3.0215   -4.4482   -0.1931 H   0  0  0  0  0  0  0  0  0  0  0  0
    0.9387   -0.3516   -2.4108 H   0  0  0  0  0  0  0  0  0  0  0  0
    0.5180   -0.7119   -0.7183 H   0  0  0  0  0  0  0  0  0  0  0  0
   -0.3105   -2.2917   -3.2295 H   0  0  0  0  0  0  0  0  0  0  0  0
   -1.3646   -1.1556   -2.3694 H   0  0  0  0  0  0  0  0  0  0  0  0
   -0.1614   -3.7061   -1.1382 H   0  0  0  0  0  0  0  0  0  0  0  0
   -1.7560   -3.6654   -1.9640 H   0  0  0  0  0  0  0  0  0  0  0  0
   -3.5387   -2.5651   -1.0705 H   0  0  0  0  0  0  0  0  0  0  0  0
   -3.2584   -1.4157    0.2762 H   0  0  0  0  0  0  0  0  0  0  0  0
   -3.7292   -4.4303    0.5506 H   0  0  0  0  0  0  0  0  0  0  0  0
   -4.8053   -3.1054    1.0513 H   0  0  0  0  0  0  0  0  0  0  0  0
   -3.4085   -4.2388    2.9047 H   0  0  0  0  0  0  0  0  0  0  0  0
   -3.7888    1.1211    6.0454 H   0  0  0  0  0  0  0  0  0  0  0  0
   -1.0942   -1.9947    7.3596 H   0  0  0  0  0  0  0  0  0  0  0  0
   -1.3738   -3.2660    5.2450 H   0  0  0  0  0  0  0  0  0  0  0  0
   -1.3615   -4.6367    1.7153 H   0  0  0  0  0  0  0  0  0  0  0  0
   -0.9559   -3.5541    3.0306 H   0  0  0  0  0  0  0  0  0  0  0  0
    0.1288   -2.7980    0.9204 H   0  0  0  0  0  0  0  0  0  0  0  0
   -1.0512   -1.5851    1.4925 H   0  0  0  0  0  0  0  0  0  0  0  0
  1  2  1  0
  1 37  1  0
  1 38  1  0
  1 39  1  0
  2  3  1  0
  3  4  2  0
  3 16  1  0
  4  5  1  0
  4 40  1  0
  5  6  2  0
  5 41  1  0
  6  7  1  0
  6 42  1  0
  7  8  1  0
  7 16  2  0
  8  9  2  0
  8 15  1  0
  9 10  1  0
  9 43  1  0
 10 11  2  0
 10 44  1  0
 11 12  1  0
 11 14  1  0
 12 13  2  0
 12 45  1  0
 14 15  2  0
 14 46  1  0
 15 47  1  0
 16 17  1  0
 17 18  1  0
 18 19  1  0
 18 48  1  0
 18 49  1  0
 19 20  1  0
 19 50  1  0
 19 51  1  0
 20 21  1  0
 20 52  1  0
 20 53  1  0
 21 22  1  0
 21 36  1  0
 22 23  1  0
 22 54  1  0
 22 55  1  0
 23 24  1  0
 23 56  1  0
 23 57  1  0
 24 25  1  0
 24 35  1  0
 24 58  1  1
 25 26  2  0
 25 34  1  0
 26 27  1  0
 27 28  1  0
 28 29  1  0
 28 34  2  0
 29 30  2  0
 29 59  1  0
 30 31  1  0
 30 32  1  0
 32 33  2  0
 32 60  1  0
 33 34  1  0
 33 61  1  0
 35 36  1  0
 35 62  1  0
 35 63  1  0
 36 64  1  0
 36 65  1  0
M  END

