
     RDKit          3D

 31 32  0  0  0  0  0  0  0  0999 V2000
    0.7258    0.4382    0.1213 C   0  0  0  0  0  0  0  0  0  0  0  0
    2.1914    0.0161   -0.0088 C   0  0  1  0  0  0  0  0  0  0  0  0
    2.6865    0.1974    0.9572 H   0  0  0  0  0  0  0  0  0  0  0  0
    2.3508   -1.5082   -0.3065 C   0  0  0  0  0  0  0  0  0  0  0  0
    2.1533   -1.7740   -1.7042 N   0  0  0  0  0  0  0  0  0  0  0  0
    1.4361   -2.9378   -2.1551 C   0  0  0  0  0  0  0  0  0  0  0  0
    0.1148   -2.8898   -2.5159 C   0  0  0  0  0  0  0  0  0  0  0  0
   -0.5176   -4.0842   -2.9515 C   0  0  0  0  0  0  0  0  0  0  0  0
    0.2768   -5.2548   -2.9799 C   0  0  0  0  0  0  0  0  0  0  0  0
    1.5434   -5.3235   -2.6388 N   0  0  0  0  0  0  0  0  0  0  0  0
    2.1940   -4.1824   -2.2111 C   0  0  0  0  0  0  0  0  0  0  0  0
    3.5459   -4.1978   -1.8359 C   0  0  0  0  0  0  0  0  0  0  0  0
    4.6655   -4.0668   -1.4947 N   0  0  0  0  0  0  0  0  0  0  0  0
    2.9908   -1.0166   -2.5919 C   0  0  0  0  0  0  0  0  0  0  0  0
    2.8403    0.5132   -2.3195 C   0  0  1  0  0  0  0  0  0  0  0  0
    3.7294    0.9949   -2.7538 H   0  0  0  0  0  0  0  0  0  0  0  0
    1.6009    1.1105   -2.9899 C   0  0  0  0  0  0  0  0  0  0  0  0
    2.9526    0.7693   -0.9328 O   0  0  0  0  0  0  0  0  0  0  0  0
    0.2919   -0.0102    1.0282 H   0  0  0  0  0  0  0  0  0  0  0  0
    0.1101    0.1251   -0.7330 H   0  0  0  0  0  0  0  0  0  0  0  0
    0.6634    1.5319    0.2183 H   0  0  0  0  0  0  0  0  0  0  0  0
    1.6528   -2.1132    0.2823 H   0  0  0  0  0  0  0  0  0  0  0  0
    3.3849   -1.8027   -0.0468 H   0  0  0  0  0  0  0  0  0  0  0  0
   -0.4394   -1.9491   -2.4688 H   0  0  0  0  0  0  0  0  0  0  0  0
   -1.5646   -4.0993   -3.2500 H   0  0  0  0  0  0  0  0  0  0  0  0
   -0.1794   -6.1983   -3.3109 H   0  0  0  0  0  0  0  0  0  0  0  0
    2.7470   -1.2711   -3.6291 H   0  0  0  0  0  0  0  0  0  0  0  0
    4.0411   -1.3010   -2.3932 H   0  0  0  0  0  0  0  0  0  0  0  0
    0.6767    0.5689   -2.7465 H   0  0  0  0  0  0  0  0  0  0  0  0
    1.7250    1.0866   -4.0834 H   0  0  0  0  0  0  0  0  0  0  0  0
    1.4847    2.1600   -2.6822 H   0  0  0  0  0  0  0  0  0  0  0  0
  1  2  1  0
  1 19  1  0
  1 20  1  0
  1 21  1  0
  2  3  1  1
  2  4  1  0
  2 18  1  0
  4  5  1  0
  4 22  1  0
  4 23  1  0
  5  6  1  0
  5 14  1  0
  6  7  2  0
  6 11  1  0
  7  8  1  0
  7 24  1  0
  8  9  2  0
  8 25  1  0
  9 10  1  0
  9 26  1  0
 10 11  2  0
 11 12  1  0
 12 13  3  0
 14 15  1  0
 14 27  1  0
 14 28  1  0
 15 16  1  6
 15 17  1  0
 15 18  1  0
 17 29  1  0
 17 30  1  0
 17 31  1  0
M  END

