
     RDKit          3D

 68 71  0  0  0  0  0  0  0  0999 V2000
    2.8186    1.7180    1.0724 C   0  0  0  0  0  0  0  0  0  0  0  0
    3.6581    0.9401    0.0582 C   0  0  0  0  0  0  0  0  0  0  0  0
    3.7224   -0.5622    0.3498 C   0  0  0  0  0  0  0  0  0  0  0  0
    4.5688   -1.3207   -0.6769 C   0  0  0  0  0  0  0  0  0  0  0  0
    4.7286   -2.7584   -0.4082 N   0  0  0  0  0  0  0  0  0  0  0  0
    3.9490   -3.6742   -1.2103 C   0  0  0  0  0  0  0  0  0  0  0  0
    2.4612   -3.7751   -0.8582 C   0  0  0  0  0  0  0  0  0  0  0  0
    1.5913   -3.8302   -1.6986 O   0  0  0  0  0  0  0  0  0  0  0  0
    2.1879   -3.8693    0.5086 N   0  0  0  0  0  0  0  0  0  0  0  0
    0.9475   -3.9984    1.0322 C   0  0  0  0  0  0  0  0  0  0  0  0
   -0.3475   -3.9701    0.5045 C   0  0  0  0  0  0  0  0  0  0  0  0
   -1.1749   -4.1699    1.6127 C   0  0  0  0  0  0  0  0  0  0  0  0
   -2.6173   -4.2465    1.7174 C   0  0  0  0  0  0  0  0  0  0  0  0
   -3.4380   -4.1236    0.5706 C   0  0  0  0  0  0  0  0  0  0  0  0
   -4.8200   -4.1996    0.6845 C   0  0  0  0  0  0  0  0  0  0  0  0
   -5.4140   -4.3996    1.9415 C   0  0  0  0  0  0  0  0  0  0  0  0
   -4.6142   -4.5229    3.0843 C   0  0  0  0  0  0  0  0  0  0  0  0
   -3.2289   -4.4480    2.9800 C   0  0  0  0  0  0  0  0  0  0  0  0
   -0.4091   -4.3084    2.7712 N   0  0  0  0  0  0  0  0  0  0  0  0
    0.8314   -4.2123    2.4130 N   0  0  0  0  0  0  0  0  0  0  0  0
    1.9691   -4.3657    3.3085 C   0  0  0  0  0  0  0  0  0  0  0  0
    2.1268   -5.5452    3.9982 C   0  0  0  0  0  0  0  0  0  0  0  0
    3.2872   -5.7690    4.7828 C   0  0  0  0  0  0  0  0  0  0  0  0
    4.2721   -4.7351    4.7796 C   0  0  0  0  0  0  0  0  0  0  0  0
    5.7487   -5.0150    5.7066 Cl  0  0  0  0  0  0  0  0  0  0  0  0
    4.1378   -3.5609    4.0767 C   0  0  0  0  0  0  0  0  0  0  0  0
    2.9842   -3.3321    3.2403 C   0  0  0  0  0  0  0  0  0  0  0  0
    5.7820   -3.1299    0.4238 C   0  0  0  0  0  0  0  0  0  0  0  0
    6.4567   -2.2748    0.9684 O   0  0  0  0  0  0  0  0  0  0  0  0
    6.0648   -4.6194    0.6143 C   0  0  0  0  0  0  0  0  0  0  0  0
    7.2607   -4.8747    1.5454 C   0  0  0  0  0  0  0  0  0  0  0  0
    7.6360   -6.3404    1.6118 C   0  0  0  0  0  0  0  0  0  0  0  0
    8.3991   -6.9303    0.5894 C   0  0  0  0  0  0  0  0  0  0  0  0
    8.7261   -8.2882    0.6248 C   0  0  0  0  0  0  0  0  0  0  0  0
    8.2949   -9.0846    1.6907 C   0  0  0  0  0  0  0  0  0  0  0  0
    7.5418   -8.5094    2.7179 C   0  0  0  0  0  0  0  0  0  0  0  0
    7.2155   -7.1498    2.6794 C   0  0  0  0  0  0  0  0  0  0  0  0
    2.7984    2.7943    0.8389 H   0  0  0  0  0  0  0  0  0  0  0  0
    3.2204    1.6052    2.0929 H   0  0  0  0  0  0  0  0  0  0  0  0
    1.7750    1.3612    1.0879 H   0  0  0  0  0  0  0  0  0  0  0  0
    4.6851    1.3471    0.0402 H   0  0  0  0  0  0  0  0  0  0  0  0
    3.2525    1.1016   -0.9580 H   0  0  0  0  0  0  0  0  0  0  0  0
    2.6975   -0.9741    0.3752 H   0  0  0  0  0  0  0  0  0  0  0  0
    4.1575   -0.7308    1.3479 H   0  0  0  0  0  0  0  0  0  0  0  0
    5.5748   -0.8761   -0.7025 H   0  0  0  0  0  0  0  0  0  0  0  0
    4.1297   -1.2167   -1.6831 H   0  0  0  0  0  0  0  0  0  0  0  0
    4.3567   -4.6925   -1.1356 H   0  0  0  0  0  0  0  0  0  0  0  0
    3.9771   -3.3980   -2.2771 H   0  0  0  0  0  0  0  0  0  0  0  0
    2.9315   -3.7212    1.2362 H   0  0  0  0  0  0  0  0  0  0  0  0
   -0.6001   -3.8246   -0.5387 H   0  0  0  0  0  0  0  0  0  0  0  0
   -2.9818   -3.9683   -0.4088 H   0  0  0  0  0  0  0  0  0  0  0  0
   -5.4456   -4.1037   -0.2056 H   0  0  0  0  0  0  0  0  0  0  0  0
   -6.5016   -4.4588    2.0261 H   0  0  0  0  0  0  0  0  0  0  0  0
   -5.0771   -4.6786    4.0612 H   0  0  0  0  0  0  0  0  0  0  0  0
   -2.5954   -4.5429    3.8623 H   0  0  0  0  0  0  0  0  0  0  0  0
    1.3594   -6.3199    3.9295 H   0  0  0  0  0  0  0  0  0  0  0  0
    3.4095   -6.6638    5.3878 H   0  0  0  0  0  0  0  0  0  0  0  0
    4.9212   -2.8033    4.1337 H   0  0  0  0  0  0  0  0  0  0  0  0
    2.6878   -2.2981    3.0226 H   0  0  0  0  0  0  0  0  0  0  0  0
    6.2611   -5.0798   -0.3703 H   0  0  0  0  0  0  0  0  0  0  0  0
    5.1682   -5.1234    1.0139 H   0  0  0  0  0  0  0  0  0  0  0  0
    7.0189   -4.4980    2.5498 H   0  0  0  0  0  0  0  0  0  0  0  0
    8.1141   -4.2785    1.1875 H   0  0  0  0  0  0  0  0  0  0  0  0
    8.7518   -6.3127   -0.2431 H   0  0  0  0  0  0  0  0  0  0  0  0
    9.3258   -8.7248   -0.1786 H   0  0  0  0  0  0  0  0  0  0  0  0
    8.5524  -10.1466    1.7235 H   0  0  0  0  0  0  0  0  0  0  0  0
    7.2085   -9.1204    3.5612 H   0  0  0  0  0  0  0  0  0  0  0  0
    6.6424   -6.7067    3.4981 H   0  0  0  0  0  0  0  0  0  0  0  0
  1  2  1  0
  1 38  1  0
  1 39  1  0
  1 40  1  0
  2  3  1  0
  2 41  1  0
  2 42  1  0
  3  4  1  0
  3 43  1  0
  3 44  1  0
  4  5  1  0
  4 45  1  0
  4 46  1  0
  5  6  1  0
  5 28  1  0
  6  7  1  0
  6 47  1  0
  6 48  1  0
  7  8  2  0
  7  9  1  0
  9 10  1  0
  9 49  1  0
 10 11  2  0
 10 20  1  0
 11 12  1  0
 11 50  1  0
 12 13  1  0
 12 19  2  0
 13 14  2  0
 13 18  1  0
 14 15  1  0
 14 51  1  0
 15 16  2  0
 15 52  1  0
 16 17  1  0
 16 53  1  0
 17 18  2  0
 17 54  1  0
 18 55  1  0
 19 20  1  0
 20 21  1  0
 21 22  2  0
 21 27  1  0
 22 23  1  0
 22 56  1  0
 23 24  2  0
 23 57  1  0
 24 25  1  0
 24 26  1  0
 26 27  2  0
 26 58  1  0
 27 59  1  0
 28 29  2  0
 28 30  1  0
 30 31  1  0
 30 60  1  0
 30 61  1  0
 31 32  1  0
 31 62  1  0
 31 63  1  0
 32 33  2  0
 32 37  1  0
 33 34  1  0
 33 64  1  0
 34 35  2  0
 34 65  1  0
 35 36  1  0
 35 66  1  0
 36 37  2  0
 36 67  1  0
 37 68  1  0
M  END

