
     RDKit          3D

 42 45  0  0  0  0  0  0  0  0999 V2000
    4.2935    1.0571    1.1731 C   0  0  0  0  0  0  0  0  0  0  0  0
    3.8982   -0.3116    1.1399 O   0  0  0  0  0  0  0  0  0  0  0  0
    3.0824   -0.7902    0.2113 C   0  0  0  0  0  0  0  0  0  0  0  0
    2.5336    0.0273   -0.8225 C   0  0  0  0  0  0  0  0  0  0  0  0
    1.6892   -0.5641   -1.7501 C   0  0  0  0  0  0  0  0  0  0  0  0
    1.3808   -1.9365   -1.6751 C   0  0  0  0  0  0  0  0  0  0  0  0
    1.9152   -2.7881   -0.6484 C   0  0  0  0  0  0  0  0  0  0  0  0
    1.5672   -4.0820   -0.6555 N   0  0  0  0  0  0  0  0  0  0  0  0
    2.0693   -4.9058    0.3180 C   0  0  0  0  0  0  0  0  0  0  0  0
    1.7248   -6.2875    0.3472 C   0  0  0  0  0  0  0  0  0  0  0  0
    0.8829   -6.8848   -0.5778 C   0  0  0  0  0  0  0  0  0  0  0  0
    0.5199   -8.2652   -0.5735 C   0  0  0  0  0  0  0  0  0  0  0  0
   -0.3162   -8.8246   -1.5063 N   0  0  0  0  0  0  0  0  0  0  0  0
   -0.3890  -10.0971   -1.1473 C   0  0  0  0  0  0  0  0  0  0  0  0
   -1.0817  -11.2263   -1.6812 C   0  0  0  0  0  0  0  0  0  0  0  0
   -1.9374  -11.0580   -2.9017 C   0  0  0  0  0  0  0  0  0  0  0  0
   -0.9680  -12.4092   -1.1021 N   0  0  0  0  0  0  0  0  0  0  0  0
   -0.1936  -12.5502   -0.0008 C   0  0  0  0  0  0  0  0  0  0  0  0
    0.5180  -11.5212    0.5952 C   0  0  0  0  0  0  0  0  0  0  0  0
    1.3843  -11.6205    1.8064 C   0  0  0  0  0  0  0  0  0  0  0  0
    0.3952  -10.2987   -0.0110 N   0  0  0  0  0  0  0  0  0  0  0  0
    0.9716   -9.1541    0.3590 N   0  0  0  0  0  0  0  0  0  0  0  0
    2.9499   -4.3706    1.3164 C   0  0  0  0  0  0  0  0  0  0  0  0
    3.3095   -3.0422    1.3264 C   0  0  0  0  0  0  0  0  0  0  0  0
    2.7812   -2.1917    0.3078 C   0  0  0  0  0  0  0  0  0  0  0  0
    4.9635    1.1555    2.0350 H   0  0  0  0  0  0  0  0  0  0  0  0
    3.4206    1.7145    1.3077 H   0  0  0  0  0  0  0  0  0  0  0  0
    4.8328    1.3320    0.2535 H   0  0  0  0  0  0  0  0  0  0  0  0
    2.7697    1.0881   -0.8836 H   0  0  0  0  0  0  0  0  0  0  0  0
    1.2565    0.0401   -2.5503 H   0  0  0  0  0  0  0  0  0  0  0  0
    0.7166   -2.4036   -2.4045 H   0  0  0  0  0  0  0  0  0  0  0  0
    2.1529   -6.8979    1.1452 H   0  0  0  0  0  0  0  0  0  0  0  0
    0.4537   -6.2792   -1.3766 H   0  0  0  0  0  0  0  0  0  0  0  0
   -2.7351  -10.3170   -2.7251 H   0  0  0  0  0  0  0  0  0  0  0  0
   -2.3865  -12.0231   -3.1704 H   0  0  0  0  0  0  0  0  0  0  0  0
   -1.3440  -10.6783   -3.7503 H   0  0  0  0  0  0  0  0  0  0  0  0
   -0.1354  -13.5513    0.4375 H   0  0  0  0  0  0  0  0  0  0  0  0
    1.3929  -12.6503    2.1892 H   0  0  0  0  0  0  0  0  0  0  0  0
    1.0286  -10.9420    2.5995 H   0  0  0  0  0  0  0  0  0  0  0  0
    2.4173  -11.3109    1.5757 H   0  0  0  0  0  0  0  0  0  0  0  0
    3.3384   -5.0456    2.0831 H   0  0  0  0  0  0  0  0  0  0  0  0
    3.9791   -2.6411    2.0876 H   0  0  0  0  0  0  0  0  0  0  0  0
  1  2  1  0
  1 26  1  0
  1 27  1  0
  1 28  1  0
  2  3  1  0
  3  4  2  0
  3 25  1  0
  4  5  1  0
  4 29  1  0
  5  6  2  0
  5 30  1  0
  6  7  1  0
  6 31  1  0
  7  8  1  0
  7 25  2  0
  8  9  2  0
  9 10  1  0
  9 23  1  0
 10 11  2  0
 10 32  1  0
 11 12  1  0
 11 33  1  0
 12 13  1  0
 12 22  2  0
 13 14  2  0
 14 15  1  0
 14 21  1  0
 15 16  1  0
 15 17  2  0
 16 34  1  0
 16 35  1  0
 16 36  1  0
 17 18  1  0
 18 19  2  0
 18 37  1  0
 19 20  1  0
 19 21  1  0
 20 38  1  0
 20 39  1  0
 20 40  1  0
 21 22  1  0
 23 24  2  0
 23 41  1  0
 24 25  1  0
 24 42  1  0
M  END

