
     RDKit          3D

 50 51  0  0  0  0  0  0  0  0999 V2000
    2.8883    0.4499   -1.6531 C   0  0  0  0  0  0  0  0  0  0  0  0
    3.8176    0.3504   -0.4824 C   0  0  0  0  0  0  0  0  0  0  0  0
    4.5323    1.3789    0.0791 C   0  0  0  0  0  0  0  0  0  0  0  0
    5.3335    0.8378    1.1515 C   0  0  0  0  0  0  0  0  0  0  0  0
    6.2094    1.5564    2.0034 C   0  0  0  0  0  0  0  0  0  0  0  0
    6.9942    0.9554    2.8801 O   0  0  0  0  0  0  0  0  0  0  0  0
    6.3794    3.0465    1.9729 C   0  0  0  0  0  0  0  0  0  0  0  0
    7.5639    3.4704    1.2295 O   0  0  0  0  0  0  0  0  0  0  0  0
    7.3971    3.9975   -0.0041 C   0  0  0  0  0  0  0  0  0  0  0  0
    6.3179    4.1792   -0.5144 O   0  0  0  0  0  0  0  0  0  0  0  0
    8.7692    4.2829   -0.6441 C   0  0  1  0  0  0  0  0  0  0  0  0
    9.6395    4.8076    0.3464 O   0  0  0  0  0  0  0  0  0  0  0  0
    9.3392    2.9583   -1.2125 C   0  0  0  0  0  0  0  0  0  0  0  0
    8.6316    2.4762   -2.4847 C   0  0  0  0  0  0  0  0  0  0  0  0
    8.6363    3.5656   -3.5639 C   0  0  0  0  0  0  0  0  0  0  0  0
    8.0093    4.8657   -3.0455 C   0  0  0  0  0  0  0  0  0  0  0  0
    8.6718    5.3480   -1.7478 C   0  0  0  0  0  0  0  0  0  0  0  0
    5.0586   -0.5490    1.1955 C   0  0  0  0  0  0  0  0  0  0  0  0
    5.5994   -1.5775    2.1330 C   0  0  0  0  0  0  0  0  0  0  0  0
    4.1395   -0.8298    0.1958 N   0  0  0  0  0  0  0  0  0  0  0  0
    3.5471   -2.1636    0.0085 C   0  0  1  0  0  0  0  0  0  0  0  0
    2.0960   -2.2275    0.5068 C   0  0  0  0  0  0  0  0  0  0  0  0
    3.7134   -2.7083   -1.4161 C   0  0  0  0  0  0  0  0  0  0  0  0
    2.7405    1.5120   -1.8937 H   0  0  0  0  0  0  0  0  0  0  0  0
    1.8946    0.0157   -1.4589 H   0  0  0  0  0  0  0  0  0  0  0  0
    3.2891   -0.0372   -2.5577 H   0  0  0  0  0  0  0  0  0  0  0  0
    4.5349    2.4080   -0.2726 H   0  0  0  0  0  0  0  0  0  0  0  0
    6.5397    3.4321    2.9898 H   0  0  0  0  0  0  0  0  0  0  0  0
    5.4961    3.5096    1.5184 H   0  0  0  0  0  0  0  0  0  0  0  0
    9.5577    4.2438    1.1292 H   0  0  0  0  0  0  0  0  0  0  0  0
    9.3151    2.1866   -0.4250 H   0  0  0  0  0  0  0  0  0  0  0  0
   10.4020    3.1654   -1.4250 H   0  0  0  0  0  0  0  0  0  0  0  0
    7.5905    2.1907   -2.2520 H   0  0  0  0  0  0  0  0  0  0  0  0
    9.1258    1.5622   -2.8546 H   0  0  0  0  0  0  0  0  0  0  0  0
    8.0991    3.2170   -4.4619 H   0  0  0  0  0  0  0  0  0  0  0  0
    9.6793    3.7571   -3.8786 H   0  0  0  0  0  0  0  0  0  0  0  0
    6.9347    4.7084   -2.8652 H   0  0  0  0  0  0  0  0  0  0  0  0
    8.0925    5.6588   -3.8075 H   0  0  0  0  0  0  0  0  0  0  0  0
    8.1535    6.2328   -1.3458 H   0  0  0  0  0  0  0  0  0  0  0  0
    9.7122    5.6562   -1.9474 H   0  0  0  0  0  0  0  0  0  0  0  0
    6.2687   -1.0946    2.8594 H   0  0  0  0  0  0  0  0  0  0  0  0
    6.1897   -2.3608    1.6219 H   0  0  0  0  0  0  0  0  0  0  0  0
    4.8102   -2.0892    2.7134 H   0  0  0  0  0  0  0  0  0  0  0  0
    4.1366   -2.8222    0.6600 H   0  0  0  0  0  0  0  0  0  0  0  0
    1.4204   -1.6166   -0.1105 H   0  0  0  0  0  0  0  0  0  0  0  0
    2.0230   -1.8706    1.5454 H   0  0  0  0  0  0  0  0  0  0  0  0
    1.7303   -3.2663    0.4744 H   0  0  0  0  0  0  0  0  0  0  0  0
    3.0636   -2.1995   -2.1414 H   0  0  0  0  0  0  0  0  0  0  0  0
    3.4496   -3.7776   -1.4323 H   0  0  0  0  0  0  0  0  0  0  0  0
    4.7557   -2.6087   -1.7552 H   0  0  0  0  0  0  0  0  0  0  0  0
  1  2  1  0
  1 24  1  0
  1 25  1  0
  1 26  1  0
  2  3  2  0
  2 20  1  0
  3  4  1  0
  3 27  1  0
  4  5  1  0
  4 18  2  0
  5  6  2  0
  5  7  1  0
  7  8  1  0
  7 28  1  0
  7 29  1  0
  8  9  1  0
  9 10  2  0
  9 11  1  0
 11 12  1  1
 11 13  1  0
 11 17  1  0
 12 30  1  0
 13 14  1  0
 13 31  1  0
 13 32  1  0
 14 15  1  0
 14 33  1  0
 14 34  1  0
 15 16  1  0
 15 35  1  0
 15 36  1  0
 16 17  1  0
 16 37  1  0
 16 38  1  0
 17 39  1  0
 17 40  1  0
 18 19  1  0
 18 20  1  0
 19 41  1  0
 19 42  1  0
 19 43  1  0
 20 21  1  0
 21 22  1  0
 21 23  1  0
 21 44  1  6
 22 45  1  0
 22 46  1  0
 22 47  1  0
 23 48  1  0
 23 49  1  0
 23 50  1  0
M  END

