
     RDKit          3D

 67 69  0  0  0  0  0  0  0  0999 V2000
    3.2187    3.2949    0.5517 C   0  0  0  0  0  0  0  0  0  0  0  0
    2.8045    1.8234    0.5187 C   0  0  0  0  0  0  0  0  0  0  0  0
    3.4635    0.9955   -0.5943 C   0  0  0  0  0  0  0  0  0  0  0  0
    4.9277    0.9308   -0.5152 N   0  0  0  0  0  0  0  0  0  0  0  0
    5.4942    0.0365    0.4859 C   0  0  0  0  0  0  0  0  0  0  0  0
    5.2657   -1.4467    0.2250 C   0  0  0  0  0  0  0  0  0  0  0  0
    5.2297   -1.9787   -1.0724 C   0  0  0  0  0  0  0  0  0  0  0  0
    5.0762   -3.3484   -1.2866 C   0  0  0  0  0  0  0  0  0  0  0  0
    4.9519   -4.2176   -0.1961 C   0  0  0  0  0  0  0  0  0  0  0  0
    4.7384   -5.5419   -0.4804 O   0  0  0  0  0  0  0  0  0  0  0  0
    5.1622   -6.5458    0.3598 C   0  0  0  0  0  0  0  0  0  0  0  0
    4.2763   -7.6035    0.5919 C   0  0  0  0  0  0  0  0  0  0  0  0
    4.6829   -8.6858    1.3760 C   0  0  0  0  0  0  0  0  0  0  0  0
    5.9647   -8.7133    1.9343 C   0  0  0  0  0  0  0  0  0  0  0  0
    6.8438   -7.6518    1.6950 C   0  0  0  0  0  0  0  0  0  0  0  0
    6.4525   -6.5674    0.9057 C   0  0  0  0  0  0  0  0  0  0  0  0
    4.9725   -3.7057    1.1077 C   0  0  0  0  0  0  0  0  0  0  0  0
    5.1269   -2.3316    1.3034 C   0  0  0  0  0  0  0  0  0  0  0  0
    5.6672    1.7305   -1.3523 C   0  0  0  0  0  0  0  0  0  0  0  0
    5.1420    2.4627   -2.1837 O   0  0  0  0  0  0  0  0  0  0  0  0
    7.1888    1.6875   -1.2372 C   0  0  1  0  0  0  0  0  0  0  0  0
    7.9910    0.5339   -1.9100 C   0  0  0  0  0  0  0  0  0  0  0  0
    8.9989    1.5800   -2.4365 C   0  0  2  0  0  0  0  0  0  0  0  0
   10.2673    1.6690   -1.6022 C   0  0  0  0  0  0  0  0  0  0  0  0
   10.4786    1.0285   -0.6005 O   0  0  0  0  0  0  0  0  0  0  0  0
   11.1261    2.5462   -2.1414 O   0  0  0  0  0  0  0  0  0  0  0  0
   12.3756    2.8040   -1.4386 C   0  0  1  0  0  0  0  0  0  0  0  0
   13.3609    1.6727   -1.7093 C   0  0  0  0  0  0  0  0  0  0  0  0
   12.8831    4.1652   -1.9066 C   0  0  0  0  0  0  0  0  0  0  0  0
   11.9386    5.3355   -1.6344 C   0  0  0  0  0  0  0  0  0  0  0  0
    7.9314    2.6985   -2.1351 C   0  0  2  0  0  0  0  0  0  0  0  0
    8.3899    3.9852   -1.4729 C   0  0  0  0  0  0  0  0  0  0  0  0
    8.8405    4.0281   -0.3582 O   0  0  0  0  0  0  0  0  0  0  0  0
    8.2893    5.1084   -2.2150 O   0  0  0  0  0  0  0  0  0  0  0  0
    2.6718    3.8409    1.3367 H   0  0  0  0  0  0  0  0  0  0  0  0
    3.0216    3.7891   -0.4124 H   0  0  0  0  0  0  0  0  0  0  0  0
    4.2945    3.4075    0.7613 H   0  0  0  0  0  0  0  0  0  0  0  0
    1.7129    1.7449    0.3715 H   0  0  0  0  0  0  0  0  0  0  0  0
    3.0013    1.3567    1.5010 H   0  0  0  0  0  0  0  0  0  0  0  0
    3.2178    1.4252   -1.5744 H   0  0  0  0  0  0  0  0  0  0  0  0
    3.0740   -0.0352   -0.5680 H   0  0  0  0  0  0  0  0  0  0  0  0
    5.0788    0.2873    1.4774 H   0  0  0  0  0  0  0  0  0  0  0  0
    6.5732    0.2265    0.5622 H   0  0  0  0  0  0  0  0  0  0  0  0
    5.3160   -1.3106   -1.9324 H   0  0  0  0  0  0  0  0  0  0  0  0
    5.0444   -3.7650   -2.2953 H   0  0  0  0  0  0  0  0  0  0  0  0
    3.2803   -7.5617    0.1467 H   0  0  0  0  0  0  0  0  0  0  0  0
    3.9892   -9.5115    1.5543 H   0  0  0  0  0  0  0  0  0  0  0  0
    6.2790   -9.5590    2.5503 H   0  0  0  0  0  0  0  0  0  0  0  0
    7.8511   -7.6689    2.1193 H   0  0  0  0  0  0  0  0  0  0  0  0
    7.1420   -5.7445    0.7076 H   0  0  0  0  0  0  0  0  0  0  0  0
    4.8560   -4.3743    1.9621 H   0  0  0  0  0  0  0  0  0  0  0  0
    5.1326   -1.9417    2.3258 H   0  0  0  0  0  0  0  0  0  0  0  0
    7.5247    1.8274   -0.1993 H   0  0  0  0  0  0  0  0  0  0  0  0
    7.4318    0.0572   -2.7277 H   0  0  0  0  0  0  0  0  0  0  0  0
    8.4089   -0.2318   -1.2437 H   0  0  0  0  0  0  0  0  0  0  0  0
    9.2877    1.5169   -3.4958 H   0  0  0  0  0  0  0  0  0  0  0  0
   12.1357    2.8358   -0.3637 H   0  0  0  0  0  0  0  0  0  0  0  0
   13.5719    1.5898   -2.7877 H   0  0  0  0  0  0  0  0  0  0  0  0
   12.9643    0.7146   -1.3464 H   0  0  0  0  0  0  0  0  0  0  0  0
   14.3109    1.8687   -1.1877 H   0  0  0  0  0  0  0  0  0  0  0  0
   13.1125    4.1029   -2.9856 H   0  0  0  0  0  0  0  0  0  0  0  0
   13.8482    4.3353   -1.3982 H   0  0  0  0  0  0  0  0  0  0  0  0
   11.0073    5.2472   -2.2113 H   0  0  0  0  0  0  0  0  0  0  0  0
   12.4141    6.2908   -1.9077 H   0  0  0  0  0  0  0  0  0  0  0  0
   11.6554    5.3889   -0.5711 H   0  0  0  0  0  0  0  0  0  0  0  0
    7.3280    2.8949   -3.0324 H   0  0  0  0  0  0  0  0  0  0  0  0
    7.8602    4.9123   -3.0602 H   0  0  0  0  0  0  0  0  0  0  0  0
  1  2  1  0
  1 35  1  0
  1 36  1  0
  1 37  1  0
  2  3  1  0
  2 38  1  0
  2 39  1  0
  3  4  1  0
  3 40  1  0
  3 41  1  0
  4  5  1  0
  4 19  1  0
  5  6  1  0
  5 42  1  0
  5 43  1  0
  6  7  2  0
  6 18  1  0
  7  8  1  0
  7 44  1  0
  8  9  2  0
  8 45  1  0
  9 10  1  0
  9 17  1  0
 10 11  1  0
 11 12  2  0
 11 16  1  0
 12 13  1  0
 12 46  1  0
 13 14  2  0
 13 47  1  0
 14 15  1  0
 14 48  1  0
 15 16  2  0
 15 49  1  0
 16 50  1  0
 17 18  2  0
 17 51  1  0
 18 52  1  0
 19 20  2  0
 19 21  1  0
 21 22  1  0
 21 31  1  0
 21 53  1  1
 22 23  1  0
 22 54  1  0
 22 55  1  0
 23 24  1  0
 23 31  1  0
 23 56  1  6
 24 25  2  0
 24 26  1  0
 26 27  1  0
 27 28  1  0
 27 29  1  0
 27 57  1  1
 28 58  1  0
 28 59  1  0
 28 60  1  0
 29 30  1  0
 29 61  1  0
 29 62  1  0
 30 63  1  0
 30 64  1  0
 30 65  1  0
 31 32  1  0
 31 66  1  6
 32 33  2  0
 32 34  1  0
 34 67  1  0
M  END

