
     RDKit          3D

 61 65  0  0  0  0  0  0  0  0999 V2000
    2.1705   -0.1374    3.5160 C   0  0  0  0  0  0  0  0  0  0  0  0
    3.4297   -0.0355    2.6772 C   0  0  0  0  0  0  0  0  0  0  0  0
    3.4713   -1.1578    1.8091 O   0  0  0  0  0  0  0  0  0  0  0  0
    4.4997   -1.2928    0.9422 C   0  0  0  0  0  0  0  0  0  0  0  0
    5.5717   -0.4079    0.8211 C   0  0  0  0  0  0  0  0  0  0  0  0
    6.5984   -0.6273   -0.1177 C   0  0  0  0  0  0  0  0  0  0  0  0
    7.7715    0.3393   -0.2100 C   0  0  1  0  0  0  0  0  0  0  0  0
    7.4306    1.8124   -0.2799 C   0  0  0  0  0  0  0  0  0  0  0  0
    6.7526    2.8410   -1.0008 C   0  0  0  0  0  0  0  0  0  0  0  0
    5.9381    2.7818   -2.2277 C   0  0  0  0  0  0  0  0  0  0  0  0
    5.6932    1.5691   -2.8898 C   0  0  0  0  0  0  0  0  0  0  0  0
    4.9273    1.5325   -4.0580 C   0  0  0  0  0  0  0  0  0  0  0  0
    4.3788    2.6989   -4.6075 C   0  0  0  0  0  0  0  0  0  0  0  0
    3.5623    2.6680   -5.8761 C   0  0  0  0  0  0  0  0  0  0  0  0
    4.6237    3.9116   -3.9376 C   0  0  0  0  0  0  0  0  0  0  0  0
    5.3860    3.9569   -2.7745 C   0  0  0  0  0  0  0  0  0  0  0  0
    6.9678    4.0208   -0.3896 N   0  0  0  0  0  0  0  0  0  0  0  0
    7.7486    3.7732    0.6702 N   0  0  0  0  0  0  0  0  0  0  0  0
    8.0429    4.5324    1.2730 H   0  0  0  0  0  0  0  0  0  0  0  0
    8.0454    2.4596    0.7652 C   0  0  0  0  0  0  0  0  0  0  0  0
    8.8412    1.5377    1.6013 C   0  0  0  0  0  0  0  0  0  0  0  0
    9.5387    1.7651    2.5739 O   0  0  0  0  0  0  0  0  0  0  0  0
    8.6261    0.3065    1.0038 N   0  0  0  0  0  0  0  0  0  0  0  0
    9.2837   -0.9005    1.4730 C   0  0  0  0  0  0  0  0  0  0  0  0
   10.4312   -1.3593    0.5897 C   0  0  0  0  0  0  0  0  0  0  0  0
   11.5766   -0.5583    0.4394 C   0  0  0  0  0  0  0  0  0  0  0  0
   12.6318   -0.9694   -0.3725 C   0  0  0  0  0  0  0  0  0  0  0  0
   12.5881   -2.1955   -1.0616 C   0  0  0  0  0  0  0  0  0  0  0  0
   13.7419   -2.6299   -1.9327 C   0  0  0  0  0  0  0  0  0  0  0  0
   11.4463   -2.9916   -0.9053 C   0  0  0  0  0  0  0  0  0  0  0  0
   10.3828   -2.5793   -0.0935 C   0  0  0  0  0  0  0  0  0  0  0  0
    6.5389   -1.7533   -0.9365 C   0  0  0  0  0  0  0  0  0  0  0  0
    5.4645   -2.6496   -0.8271 C   0  0  0  0  0  0  0  0  0  0  0  0
    4.4463   -2.4371    0.0987 C   0  0  0  0  0  0  0  0  0  0  0  0
    3.3850   -3.2662    0.2497 O   0  0  0  0  0  0  0  0  0  0  0  0
    2.1026    0.7189    4.2047 H   0  0  0  0  0  0  0  0  0  0  0  0
    2.1727   -1.0644    4.1092 H   0  0  0  0  0  0  0  0  0  0  0  0
    1.2763   -0.1423    2.8743 H   0  0  0  0  0  0  0  0  0  0  0  0
    4.3304   -0.0222    3.3200 H   0  0  0  0  0  0  0  0  0  0  0  0
    3.4334    0.8992    2.0849 H   0  0  0  0  0  0  0  0  0  0  0  0
    5.6214    0.4768    1.4558 H   0  0  0  0  0  0  0  0  0  0  0  0
    8.3856    0.0455   -1.0810 H   0  0  0  0  0  0  0  0  0  0  0  0
    6.0909    0.6359   -2.4883 H   0  0  0  0  0  0  0  0  0  0  0  0
    4.7512    0.5714   -4.5497 H   0  0  0  0  0  0  0  0  0  0  0  0
    3.3560    1.6372   -6.2004 H   0  0  0  0  0  0  0  0  0  0  0  0
    4.0869    3.1789   -6.7020 H   0  0  0  0  0  0  0  0  0  0  0  0
    2.5956    3.1821   -5.7456 H   0  0  0  0  0  0  0  0  0  0  0  0
    4.2064    4.8402   -4.3393 H   0  0  0  0  0  0  0  0  0  0  0  0
    5.5675    4.9064   -2.2685 H   0  0  0  0  0  0  0  0  0  0  0  0
    8.5379   -1.7060    1.5681 H   0  0  0  0  0  0  0  0  0  0  0  0
    9.6558   -0.6621    2.4811 H   0  0  0  0  0  0  0  0  0  0  0  0
   11.6382    0.3930    0.9757 H   0  0  0  0  0  0  0  0  0  0  0  0
   13.5143   -0.3298   -0.4712 H   0  0  0  0  0  0  0  0  0  0  0  0
   13.9480   -1.8903   -2.7245 H   0  0  0  0  0  0  0  0  0  0  0  0
   13.5416   -3.5961   -2.4189 H   0  0  0  0  0  0  0  0  0  0  0  0
   14.6695   -2.7358   -1.3449 H   0  0  0  0  0  0  0  0  0  0  0  0
   11.3839   -3.9508   -1.4275 H   0  0  0  0  0  0  0  0  0  0  0  0
    9.5022   -3.2202    0.0102 H   0  0  0  0  0  0  0  0  0  0  0  0
    7.3292   -1.9445   -1.6669 H   0  0  0  0  0  0  0  0  0  0  0  0
    5.4182   -3.5318   -1.4738 H   0  0  0  0  0  0  0  0  0  0  0  0
    3.4616   -3.9941   -0.3809 H   0  0  0  0  0  0  0  0  0  0  0  0
  1  2  1  0
  1 36  1  0
  1 37  1  0
  1 38  1  0
  2  3  1  0
  2 39  1  0
  2 40  1  0
  3  4  1  0
  4  5  2  0
  4 34  1  0
  5  6  1  0
  5 41  1  0
  6  7  1  0
  6 32  2  0
  7  8  1  0
  7 23  1  0
  7 42  1  6
  8  9  1  0
  8 20  2  0
  9 10  1  0
  9 17  2  0
 10 11  2  0
 10 16  1  0
 11 12  1  0
 11 43  1  0
 12 13  2  0
 12 44  1  0
 13 14  1  0
 13 15  1  0
 14 45  1  0
 14 46  1  0
 14 47  1  0
 15 16  2  0
 15 48  1  0
 16 49  1  0
 17 18  1  0
 18 19  1  0
 18 20  1  0
 20 21  1  0
 21 22  2  0
 21 23  1  0
 23 24  1  0
 24 25  1  0
 24 50  1  0
 24 51  1  0
 25 26  2  0
 25 31  1  0
 26 27  1  0
 26 52  1  0
 27 28  2  0
 27 53  1  0
 28 29  1  0
 28 30  1  0
 29 54  1  0
 29 55  1  0
 29 56  1  0
 30 31  2  0
 30 57  1  0
 31 58  1  0
 32 33  1  0
 32 59  1  0
 33 34  2  0
 33 60  1  0
 34 35  1  0
 35 61  1  0
M  END

