
     RDKit          3D

 32 32  0  0  0  0  0  0  0  0999 V2000
    4.3819   -3.2859    5.1774 C   0  0  0  0  0  0  0  0  0  0  0  0
    4.9950   -2.4305    4.1007 C   0  0  0  0  0  0  0  0  0  0  0  0
    5.6076   -1.2013    4.3818 C   0  0  0  0  0  0  0  0  0  0  0  0
    6.1386   -0.5070    3.2896 C   0  0  0  0  0  0  0  0  0  0  0  0
    6.0810   -0.9588    2.0442 N   0  0  0  0  0  0  0  0  0  0  0  0
    5.4721   -2.1548    1.8753 C   0  0  0  0  0  0  0  0  0  0  0  0
    5.4135   -2.6076    0.5916 N   0  0  0  0  0  0  0  0  0  0  0  0
    4.7911   -3.8362    0.1490 C   0  0  0  0  0  0  0  0  0  0  0  0
    5.7704   -4.9442   -0.3221 C   0  0  1  0  0  0  0  0  0  0  0  0
    6.5656   -4.4593   -1.5477 C   0  0  0  0  0  0  0  0  0  0  0  0
    6.7372   -5.3278    0.8091 C   0  0  0  0  0  0  0  0  0  0  0  0
    4.9003   -6.1664   -0.7087 C   0  0  0  0  0  0  0  0  0  0  0  0
    5.6810   -7.2817   -1.2360 N   0  0  0  0  0  0  0  0  0  0  0  0
    4.9314   -2.9018    2.8516 N   0  0  0  0  0  0  0  0  0  0  0  0
    4.4535   -2.8177    6.1690 H   0  0  0  0  0  0  0  0  0  0  0  0
    4.8829   -4.2669    5.2085 H   0  0  0  0  0  0  0  0  0  0  0  0
    3.3220   -3.4789    4.9467 H   0  0  0  0  0  0  0  0  0  0  0  0
    5.6689   -0.8055    5.3962 H   0  0  0  0  0  0  0  0  0  0  0  0
    6.6326    0.4624    3.4353 H   0  0  0  0  0  0  0  0  0  0  0  0
    5.8254   -1.9781   -0.0862 H   0  0  0  0  0  0  0  0  0  0  0  0
    4.0929   -3.6048   -0.6770 H   0  0  0  0  0  0  0  0  0  0  0  0
    4.1922   -4.2104    0.9911 H   0  0  0  0  0  0  0  0  0  0  0  0
    7.1653   -3.5668   -1.3061 H   0  0  0  0  0  0  0  0  0  0  0  0
    5.8986   -4.2032   -2.3897 H   0  0  0  0  0  0  0  0  0  0  0  0
    7.2696   -5.2334   -1.8908 H   0  0  0  0  0  0  0  0  0  0  0  0
    7.4132   -4.4941    1.0547 H   0  0  0  0  0  0  0  0  0  0  0  0
    7.3412   -6.1958    0.5071 H   0  0  0  0  0  0  0  0  0  0  0  0
    6.1874   -5.5916    1.7267 H   0  0  0  0  0  0  0  0  0  0  0  0
    4.1011   -5.8208   -1.4015 H   0  0  0  0  0  0  0  0  0  0  0  0
    4.3835   -6.5160    0.2015 H   0  0  0  0  0  0  0  0  0  0  0  0
    5.9059   -7.1367   -2.2197 H   0  0  0  0  0  0  0  0  0  0  0  0
    5.1429   -8.1456   -1.1935 H   0  0  0  0  0  0  0  0  0  0  0  0
  1  2  1  0
  1 15  1  0
  1 16  1  0
  1 17  1  0
  2  3  2  0
  2 14  1  0
  3  4  1  0
  3 18  1  0
  4  5  2  0
  4 19  1  0
  5  6  1  0
  6  7  1  0
  6 14  2  0
  7  8  1  0
  7 20  1  0
  9  8  1  1
  8 21  1  0
  8 22  1  0
  9 10  1  0
  9 11  1  0
  9 12  1  0
 10 23  1  0
 10 24  1  0
 10 25  1  0
 11 26  1  0
 11 27  1  0
 11 28  1  0
 12 13  1  0
 12 29  1  0
 12 30  1  0
 13 31  1  0
 13 32  1  0
M  END

