
     RDKit          3D

 44 47  0  0  0  0  0  0  0  0999 V2000
    1.3419   -0.1994   -0.9774 N   0  0  0  0  0  0  0  0  0  0  0  0
    2.4876   -0.0991   -0.8264 C   0  0  0  0  0  0  0  0  0  0  0  0
    3.8969    0.0543   -0.6255 C   0  0  0  0  0  0  0  0  0  0  0  0
    4.5204    1.1693   -0.0598 C   0  0  0  0  0  0  0  0  0  0  0  0
    5.8532    0.8713   -0.0717 N   0  0  0  0  0  0  0  0  0  0  0  0
    6.9637    1.5591    0.3443 C   0  0  0  0  0  0  0  0  0  0  0  0
    8.1851    0.9560    0.1833 C   0  0  0  0  0  0  0  0  0  0  0  0
    9.4122    1.7067    0.6387 C   0  0  0  0  0  0  0  0  0  0  0  0
    9.3280    2.8167    1.1362 O   0  0  0  0  0  0  0  0  0  0  0  0
   10.5655    1.0009    0.4233 N   0  0  0  0  0  0  0  0  0  0  0  0
   11.8818    1.3663    0.7106 C   0  0  0  0  0  0  0  0  0  0  0  0
   12.2402    2.5906    1.3043 C   0  0  0  0  0  0  0  0  0  0  0  0
   13.5947    2.8294    1.5286 C   0  0  0  0  0  0  0  0  0  0  0  0
   14.5718    1.9711    1.2236 N   0  0  0  0  0  0  0  0  0  0  0  0
   14.2351    0.8052    0.6626 C   0  0  0  0  0  0  0  0  0  0  0  0
   15.3633   -0.1694    0.3745 C   0  0  0  0  0  0  0  0  0  0  0  0
   16.6184    0.5257    0.2791 N   0  0  0  0  0  0  0  0  0  0  0  0
   17.8255   -0.1557    0.2155 C   0  0  0  0  0  0  0  0  0  0  0  0
   17.9610   -1.5383    0.0738 C   0  0  0  0  0  0  0  0  0  0  0  0
   19.2452   -2.1072    0.0227 C   0  0  0  0  0  0  0  0  0  0  0  0
   20.3488   -1.2693    0.1176 C   0  0  0  0  0  0  0  0  0  0  0  0
   20.2402    0.0652    0.2213 N   0  0  0  0  0  0  0  0  0  0  0  0
   19.0343    0.6115    0.2581 C   0  0  0  0  0  0  0  0  0  0  0  0
   18.9341    1.9940    0.3974 N   0  0  0  0  0  0  0  0  0  0  0  0
   12.9084    0.4651    0.3845 C   0  0  0  0  0  0  0  0  0  0  0  0
    8.3450   -0.2872   -0.3678 N   0  0  0  0  0  0  0  0  0  0  0  0
    7.2876   -0.9471   -0.7660 C   0  0  0  0  0  0  0  0  0  0  0  0
    5.9749   -0.4128   -0.6450 C   0  0  0  0  0  0  0  0  0  0  0  0
    4.7956   -0.9061   -0.9791 N   0  0  0  0  0  0  0  0  0  0  0  0
    4.1228    2.1028    0.3286 H   0  0  0  0  0  0  0  0  0  0  0  0
    6.8497    2.5497    0.7845 H   0  0  0  0  0  0  0  0  0  0  0  0
   10.4089    0.0897   -0.0070 H   0  0  0  0  0  0  0  0  0  0  0  0
   11.4812    3.3216    1.5717 H   0  0  0  0  0  0  0  0  0  0  0  0
   13.9046    3.7765    1.9848 H   0  0  0  0  0  0  0  0  0  0  0  0
   15.1454   -0.7190   -0.5595 H   0  0  0  0  0  0  0  0  0  0  0  0
   15.3657   -0.9377    1.1821 H   0  0  0  0  0  0  0  0  0  0  0  0
   16.6206    1.3733    0.8478 H   0  0  0  0  0  0  0  0  0  0  0  0
   17.0786   -2.1784    0.0158 H   0  0  0  0  0  0  0  0  0  0  0  0
   19.3717   -3.1869   -0.0826 H   0  0  0  0  0  0  0  0  0  0  0  0
   21.3664   -1.6752    0.0953 H   0  0  0  0  0  0  0  0  0  0  0  0
   19.8348    2.4525    0.2923 H   0  0  0  0  0  0  0  0  0  0  0  0
   18.2086    2.4231   -0.1734 H   0  0  0  0  0  0  0  0  0  0  0  0
   12.6737   -0.4947   -0.0845 H   0  0  0  0  0  0  0  0  0  0  0  0
    7.4067   -1.9416   -1.2076 H   0  0  0  0  0  0  0  0  0  0  0  0
  1  2  3  0
  2  3  1  0
  3  4  2  0
  3 29  1  0
  4  5  1  0
  4 30  1  0
  5  6  1  0
  5 28  1  0
  6  7  2  0
  6 31  1  0
  7  8  1  0
  7 26  1  0
  8  9  2  0
  8 10  1  0
 10 11  1  0
 10 32  1  0
 11 12  2  0
 11 25  1  0
 12 13  1  0
 12 33  1  0
 13 14  2  0
 13 34  1  0
 14 15  1  0
 15 16  1  0
 15 25  2  0
 16 17  1  0
 16 35  1  0
 16 36  1  0
 17 18  1  0
 17 37  1  0
 18 19  2  0
 18 23  1  0
 19 20  1  0
 19 38  1  0
 20 21  2  0
 20 39  1  0
 21 22  1  0
 21 40  1  0
 22 23  2  0
 23 24  1  0
 24 41  1  0
 24 42  1  0
 25 43  1  0
 26 27  2  0
 27 28  1  0
 27 44  1  0
 28 29  2  0
M  END

