
     RDKit          3D

 35 35  0  0  0  0  0  0  0  0999 V2000
    0.8652    1.0078    1.1757 C   0  0  0  0  0  0  0  0  0  0  0  0
    2.3452    1.3126    1.2870 C   0  0  0  0  0  0  0  0  0  0  0  0
    3.0593    0.0749    1.3286 O   0  0  0  0  0  0  0  0  0  0  0  0
    4.4021    0.0304    1.4559 C   0  0  0  0  0  0  0  0  0  0  0  0
    5.1858    1.2232    1.5076 C   0  0  0  0  0  0  0  0  0  0  0  0
    6.5973    1.1073    1.6392 C   0  0  0  0  0  0  0  0  0  0  0  0
    7.2069   -0.1758    1.7045 C   0  0  0  0  0  0  0  0  0  0  0  0
    8.6888   -0.3038    1.8496 C   0  0  0  0  0  0  0  0  0  0  0  0
    6.4094   -1.3550    1.6417 C   0  0  0  0  0  0  0  0  0  0  0  0
    4.9763   -1.2872    1.5304 C   0  0  0  0  0  0  0  0  0  0  0  0
    4.1611   -2.5621    1.5464 C   0  0  1  0  0  0  0  0  0  0  0  0
    3.2042   -2.6760    2.7535 C   0  0  0  0  0  0  0  0  0  0  0  0
    3.3992   -2.8376    0.2254 C   0  0  0  0  0  0  0  0  0  0  0  0
    4.3001   -2.8830   -1.0233 C   0  0  0  0  0  0  0  0  0  0  0  0
    5.2794   -3.9740   -1.0032 C   0  0  0  0  0  0  0  0  0  0  0  0
    6.0456   -4.8434   -0.9696 N   0  0  0  0  0  0  0  0  0  0  0  0
    0.2940    1.9484    1.1415 H   0  0  0  0  0  0  0  0  0  0  0  0
    0.5158    0.4234    2.0403 H   0  0  0  0  0  0  0  0  0  0  0  0
    0.6457    0.4386    0.2595 H   0  0  0  0  0  0  0  0  0  0  0  0
    2.5697    1.8869    2.2020 H   0  0  0  0  0  0  0  0  0  0  0  0
    2.6985    1.9030    0.4239 H   0  0  0  0  0  0  0  0  0  0  0  0
    4.7228    2.2036    1.4226 H   0  0  0  0  0  0  0  0  0  0  0  0
    7.2172    2.0044    1.6837 H   0  0  0  0  0  0  0  0  0  0  0  0
    9.2012    0.6684    1.8247 H   0  0  0  0  0  0  0  0  0  0  0  0
    9.1059   -0.9462    1.0513 H   0  0  0  0  0  0  0  0  0  0  0  0
    8.9458   -0.8107    2.7999 H   0  0  0  0  0  0  0  0  0  0  0  0
    6.8931   -2.3325    1.6867 H   0  0  0  0  0  0  0  0  0  0  0  0
    4.8957   -3.3786    1.6544 H   0  0  0  0  0  0  0  0  0  0  0  0
    2.4116   -1.9151    2.7103 H   0  0  0  0  0  0  0  0  0  0  0  0
    3.7545   -2.5431    3.6976 H   0  0  0  0  0  0  0  0  0  0  0  0
    2.7246   -3.6694    2.7783 H   0  0  0  0  0  0  0  0  0  0  0  0
    2.6417   -2.0555    0.0660 H   0  0  0  0  0  0  0  0  0  0  0  0
    2.8590   -3.7960    0.3153 H   0  0  0  0  0  0  0  0  0  0  0  0
    4.8512   -1.9325   -1.1227 H   0  0  0  0  0  0  0  0  0  0  0  0
    3.6867   -2.9965   -1.9326 H   0  0  0  0  0  0  0  0  0  0  0  0
  1  2  1  0
  1 17  1  0
  1 18  1  0
  1 19  1  0
  2  3  1  0
  2 20  1  0
  2 21  1  0
  3  4  1  0
  4  5  2  0
  4 10  1  0
  5  6  1  0
  5 22  1  0
  6  7  2  0
  6 23  1  0
  7  8  1  0
  7  9  1  0
  8 24  1  0
  8 25  1  0
  8 26  1  0
  9 10  2  0
  9 27  1  0
 10 11  1  0
 11 12  1  0
 11 13  1  0
 11 28  1  1
 12 29  1  0
 12 30  1  0
 12 31  1  0
 13 14  1  0
 13 32  1  0
 13 33  1  0
 14 15  1  0
 14 34  1  0
 14 35  1  0
 15 16  3  0
M  END

