
     RDKit          3D

 41 42  0  0  0  0  0  0  0  0999 V2000
   11.8643   -0.5623   -0.5665 C   0  0  0  0  0  0  0  0  0  0  0  0
   10.6123    0.0080   -0.1387 N   0  0  0  0  0  0  0  0  0  0  0  0
    9.7754   -0.7686    0.7666 C   0  0  0  0  0  0  0  0  0  0  0  0
    8.6632   -1.5459    0.0260 C   0  0  0  0  0  0  0  0  0  0  0  0
    7.4173   -0.7277   -0.3594 C   0  0  0  0  0  0  0  0  0  0  0  0
    6.3408   -1.0536    0.1045 O   0  0  0  0  0  0  0  0  0  0  0  0
    7.6122    0.3512   -1.1825 N   0  0  0  0  0  0  0  0  0  0  0  0
    6.4607    1.2538   -1.5167 C   0  0  2  0  0  0  0  0  0  0  0  0
    5.5838    0.7443   -1.1000 H   0  0  0  0  0  0  0  0  0  0  0  0
    6.2556    1.3427   -3.0436 C   0  0  0  0  0  0  0  0  0  0  0  0
    7.2156    2.1373   -3.6959 O   0  0  0  0  0  0  0  0  0  0  0  0
    6.6146    2.6339   -0.8280 C   0  0  0  0  0  0  0  0  0  0  0  0
    5.7213    3.7193   -1.3967 C   0  0  0  0  0  0  0  0  0  0  0  0
    4.4081    3.8470   -0.9926 C   0  0  0  0  0  0  0  0  0  0  0  0
    3.5234    4.7919   -1.5873 C   0  0  0  0  0  0  0  0  0  0  0  0
    4.0463    5.6417   -2.6087 C   0  0  0  0  0  0  0  0  0  0  0  0
    5.3565    5.5428   -3.0234 C   0  0  0  0  0  0  0  0  0  0  0  0
    6.2523    4.5330   -2.4924 C   0  0  0  0  0  0  0  0  0  0  0  0
    8.8782    0.6179   -1.8182 C   0  0  0  0  0  0  0  0  0  0  0  0
   10.0130    1.1095   -0.8627 C   0  0  0  0  0  0  0  0  0  0  0  0
   11.6747   -1.5033   -1.1147 H   0  0  0  0  0  0  0  0  0  0  0  0
   12.4739   -0.8133    0.3146 H   0  0  0  0  0  0  0  0  0  0  0  0
   12.4066    0.1328   -1.2151 H   0  0  0  0  0  0  0  0  0  0  0  0
    9.3318   -0.0789    1.4987 H   0  0  0  0  0  0  0  0  0  0  0  0
   10.4274   -1.4674    1.3065 H   0  0  0  0  0  0  0  0  0  0  0  0
    8.2943   -2.3107    0.7205 H   0  0  0  0  0  0  0  0  0  0  0  0
    9.0870   -2.0734   -0.8448 H   0  0  0  0  0  0  0  0  0  0  0  0
    5.2402    1.7396   -3.2059 H   0  0  0  0  0  0  0  0  0  0  0  0
    6.2840    0.3236   -3.4710 H   0  0  0  0  0  0  0  0  0  0  0  0
    6.9117    3.0881   -3.5237 H   0  0  0  0  0  0  0  0  0  0  0  0
    7.6617    2.9739   -0.9293 H   0  0  0  0  0  0  0  0  0  0  0  0
    6.4340    2.4907    0.2518 H   0  0  0  0  0  0  0  0  0  0  0  0
    4.0278    3.1898   -0.2005 H   0  0  0  0  0  0  0  0  0  0  0  0
    2.4942    4.8910   -1.2412 H   0  0  0  0  0  0  0  0  0  0  0  0
    3.3933    6.3925   -3.0670 H   0  0  0  0  0  0  0  0  0  0  0  0
    5.7298    6.2322   -3.7886 H   0  0  0  0  0  0  0  0  0  0  0  0
    7.3278    4.7793   -2.4594 H   0  0  0  0  0  0  0  0  0  0  0  0
    8.7060    1.4153   -2.5588 H   0  0  0  0  0  0  0  0  0  0  0  0
    9.2553   -0.2542   -2.3794 H   0  0  0  0  0  0  0  0  0  0  0  0
    9.5897    1.8147   -0.1394 H   0  0  0  0  0  0  0  0  0  0  0  0
   10.7962    1.6111   -1.4432 H   0  0  0  0  0  0  0  0  0  0  0  0
  1  2  1  0
  1 21  1  0
  1 22  1  0
  1 23  1  0
  2  3  1  0
  2 20  1  0
  3  4  1  0
  3 24  1  0
  3 25  1  0
  4  5  1  0
  4 26  1  0
  4 27  1  0
  5  6  2  0
  5  7  1  0
  7  8  1  0
  7 19  1  0
  8  9  1  1
  8 10  1  0
  8 12  1  0
 10 11  1  0
 10 28  1  0
 10 29  1  0
 11 30  1  0
 12 13  1  0
 12 31  1  0
 12 32  1  0
 13 14  2  0
 13 18  1  0
 14 15  1  0
 14 33  1  0
 15 16  2  0
 15 34  1  0
 16 17  1  0
 16 35  1  0
 17 18  2  0
 17 36  1  0
 18 37  1  0
 19 20  1  0
 19 38  1  0
 19 39  1  0
 20 40  1  0
 20 41  1  0
M  END

