
     RDKit          3D

 40 42  0  0  0  0  0  0  0  0999 V2000
    1.3852    1.1829   -0.7639 C   0  0  0  0  0  0  0  0  0  0  0  0
    2.7904    0.8186   -0.4116 C   0  0  0  0  0  0  0  0  0  0  0  0
    3.8633    1.6170   -0.6922 N   0  0  0  0  0  0  0  0  0  0  0  0
    4.8906    0.9306   -0.2232 C   0  0  0  0  0  0  0  0  0  0  0  0
    4.4463   -0.2294    0.3290 N   0  0  0  0  0  0  0  0  0  0  0  0
    3.1033   -0.3150    0.2056 N   0  0  0  0  0  0  0  0  0  0  0  0
    5.2563   -1.3072    0.8799 C   0  0  0  0  0  0  0  0  0  0  0  0
    6.6364   -0.7660    1.2685 C   0  0  2  0  0  0  0  0  0  0  0  0
    6.5516   -0.0336    2.5257 N   0  0  0  0  0  0  0  0  0  0  0  0
    7.6804    0.1339    3.3099 C   0  0  0  0  0  0  0  0  0  0  0  0
    8.7449   -0.4051    3.0378 O   0  0  0  0  0  0  0  0  0  0  0  0
    7.5002    0.9507    4.4044 N   0  0  0  0  0  0  0  0  0  0  0  0
    8.5506    1.1443    5.3912 C   0  0  0  0  0  0  0  0  0  0  0  0
    8.4299    0.2499    6.6216 C   0  0  1  0  0  0  0  0  0  0  0  0
    8.6248   -1.2844    6.4615 C   0  0  0  0  0  0  0  0  0  0  0  0
    9.4607   -1.2822    7.7675 C   0  0  0  0  0  0  0  0  0  0  0  0
    9.6030    0.2567    7.6405 C   0  0  0  0  0  0  0  0  0  0  0  0
    7.2194    0.0769    0.1130 C   0  0  0  0  0  0  0  0  0  0  0  0
    6.3428    1.2995   -0.2007 C   0  0  0  0  0  0  0  0  0  0  0  0
    1.0947    2.1297   -0.2811 H   0  0  0  0  0  0  0  0  0  0  0  0
    0.6954    0.3909   -0.4436 H   0  0  0  0  0  0  0  0  0  0  0  0
    1.2832    1.3301   -1.8509 H   0  0  0  0  0  0  0  0  0  0  0  0
    5.3602   -2.1070    0.1276 H   0  0  0  0  0  0  0  0  0  0  0  0
    4.7324   -1.7272    1.7503 H   0  0  0  0  0  0  0  0  0  0  0  0
    7.3088   -1.6154    1.4524 H   0  0  0  0  0  0  0  0  0  0  0  0
    5.7737    0.6056    2.6454 H   0  0  0  0  0  0  0  0  0  0  0  0
    6.5533    1.1876    4.6774 H   0  0  0  0  0  0  0  0  0  0  0  0
    8.5602    2.2050    5.7014 H   0  0  0  0  0  0  0  0  0  0  0  0
    9.5015    0.9435    4.8765 H   0  0  0  0  0  0  0  0  0  0  0  0
    7.4767    0.4633    7.1396 H   0  0  0  0  0  0  0  0  0  0  0  0
    9.2270   -1.5175    5.5702 H   0  0  0  0  0  0  0  0  0  0  0  0
    7.7188   -1.9099    6.4392 H   0  0  0  0  0  0  0  0  0  0  0  0
   10.3882   -1.8750    7.7756 H   0  0  0  0  0  0  0  0  0  0  0  0
    8.8611   -1.5694    8.6459 H   0  0  0  0  0  0  0  0  0  0  0  0
   10.5513    0.5437    7.1566 H   0  0  0  0  0  0  0  0  0  0  0  0
    9.4841    0.8617    8.5530 H   0  0  0  0  0  0  0  0  0  0  0  0
    7.2989   -0.5672   -0.7800 H   0  0  0  0  0  0  0  0  0  0  0  0
    8.2402    0.3856    0.3792 H   0  0  0  0  0  0  0  0  0  0  0  0
    6.6153    1.7572   -1.1637 H   0  0  0  0  0  0  0  0  0  0  0  0
    6.4972    2.0862    0.5593 H   0  0  0  0  0  0  0  0  0  0  0  0
  1  2  1  0
  1 20  1  0
  1 21  1  0
  1 22  1  0
  2  3  1  0
  2  6  2  0
  3  4  2  0
  4  5  1  0
  4 19  1  0
  5  6  1  0
  5  7  1  0
  7  8  1  0
  7 23  1  0
  7 24  1  0
  8  9  1  0
  8 18  1  0
  8 25  1  1
  9 10  1  0
  9 26  1  0
 10 11  2  0
 10 12  1  0
 12 13  1  0
 12 27  1  0
 13 14  1  0
 13 28  1  0
 13 29  1  0
 14 15  1  0
 14 17  1  0
 14 30  1  1
 15 16  1  0
 15 31  1  0
 15 32  1  0
 16 17  1  0
 16 33  1  0
 16 34  1  0
 17 35  1  0
 17 36  1  0
 18 19  1  0
 18 37  1  0
 18 38  1  0
 19 39  1  0
 19 40  1  0
M  END

