
     RDKit          3D

 29 30  0  0  0  0  0  0  0  0999 V2000
    1.0366    0.4841   -0.2131 C   0  0  0  0  0  0  0  0  0  0  0  0
    2.4890   -0.0219   -0.0500 C   0  0  0  0  0  0  0  0  0  0  0  0
    2.9722   -0.8321   -1.2102 C   0  0  0  0  0  0  0  0  0  0  0  0
    3.9270   -0.2991   -2.1155 C   0  0  0  0  0  0  0  0  0  0  0  0
    4.3558   -1.0405   -3.2334 C   0  0  0  0  0  0  0  0  0  0  0  0
    3.7914   -2.3247   -3.4085 C   0  0  0  0  0  0  0  0  0  0  0  0
    4.0306   -3.1934   -4.3814 O   0  0  0  0  0  0  0  0  0  0  0  0
    3.1730   -4.3411   -4.0668 C   0  0  0  0  0  0  0  0  0  0  0  0
    3.3757   -5.5534   -4.8852 C   0  0  1  0  0  0  0  0  0  0  0  0
    4.5042   -6.3028   -4.4422 O   0  0  0  0  0  0  0  0  0  0  0  0
    2.1264   -6.4560   -4.8339 C   0  0  0  0  0  0  0  0  0  0  0  0
    2.4608   -7.7573   -5.4118 N   0  0  0  0  0  0  0  0  0  0  0  0
    2.4931   -4.1516   -2.9485 N   0  0  0  0  0  0  0  0  0  0  0  0
    2.8241   -2.9095   -2.5069 C   0  0  0  0  0  0  0  0  0  0  0  0
    2.4157   -2.1615   -1.4024 C   0  0  0  0  0  0  0  0  0  0  0  0
    0.7303    1.0489    0.6813 H   0  0  0  0  0  0  0  0  0  0  0  0
    0.3309   -0.3495   -0.3488 H   0  0  0  0  0  0  0  0  0  0  0  0
    0.9506    1.1461   -1.0883 H   0  0  0  0  0  0  0  0  0  0  0  0
    2.5306   -0.6495    0.8614 H   0  0  0  0  0  0  0  0  0  0  0  0
    3.1594    0.8359    0.1136 H   0  0  0  0  0  0  0  0  0  0  0  0
    4.3265    0.7007   -1.9373 H   0  0  0  0  0  0  0  0  0  0  0  0
    5.0899   -0.6541   -3.9418 H   0  0  0  0  0  0  0  0  0  0  0  0
    3.5439   -5.2242   -5.9352 H   0  0  0  0  0  0  0  0  0  0  0  0
    4.2831   -7.2162   -4.7158 H   0  0  0  0  0  0  0  0  0  0  0  0
    1.2737   -5.9417   -5.3166 H   0  0  0  0  0  0  0  0  0  0  0  0
    1.8635   -6.5991   -3.7752 H   0  0  0  0  0  0  0  0  0  0  0  0
    2.3980   -7.7421   -6.4300 H   0  0  0  0  0  0  0  0  0  0  0  0
    1.8337   -8.4884   -5.0820 H   0  0  0  0  0  0  0  0  0  0  0  0
    1.6958   -2.5648   -0.6883 H   0  0  0  0  0  0  0  0  0  0  0  0
  1  2  1  0
  1 16  1  0
  1 17  1  0
  1 18  1  0
  2  3  1  0
  2 19  1  0
  2 20  1  0
  3  4  2  0
  3 15  1  0
  4  5  1  0
  4 21  1  0
  5  6  2  0
  5 22  1  0
  6  7  1  0
  6 14  1  0
  7  8  1  0
  8  9  1  0
  8 13  2  0
  9 10  1  0
  9 11  1  0
  9 23  1  6
 10 24  1  0
 11 12  1  0
 11 25  1  0
 11 26  1  0
 12 27  1  0
 12 28  1  0
 13 14  1  0
 14 15  2  0
 15 29  1  0
M  END

