
     RDKit          3D

 61 62  0  0  0  0  0  0  0  0999 V2000
    2.1198    2.5209    0.7289 C   0  0  0  0  0  0  0  0  0  0  0  0
    3.2909    1.5467    0.5938 C   0  0  0  0  0  0  0  0  0  0  0  0
    3.7162    1.3118   -0.8579 C   0  0  0  0  0  0  0  0  0  0  0  0
    4.8884    0.3392   -1.0031 C   0  0  0  0  0  0  0  0  0  0  0  0
    5.4098    0.2582   -2.4364 C   0  0  0  0  0  0  0  0  0  0  0  0
    5.4499    1.2307   -3.1740 O   0  0  0  0  0  0  0  0  0  0  0  0
    5.8573   -0.9720   -2.8331 N   0  0  0  0  0  0  0  0  0  0  0  0
    6.4775   -1.1845   -4.1409 C   0  0  1  0  0  0  0  0  0  0  0  0
    7.3698   -2.4341   -4.1191 C   0  0  0  0  0  0  0  0  0  0  0  0
    6.5575   -3.7337   -4.0777 C   0  0  0  0  0  0  0  0  0  0  0  0
    5.5623   -3.7768   -5.1469 N   0  0  0  0  0  0  0  0  0  0  0  0
    5.5117   -4.8883   -5.9496 C   0  0  0  0  0  0  0  0  0  0  0  0
    6.3187   -5.8003   -5.8573 O   0  0  0  0  0  0  0  0  0  0  0  0
    4.3850   -4.9528   -7.0074 C   0  0  1  0  0  0  0  0  0  0  0  0
    4.5456   -6.1723   -7.9025 C   0  0  0  0  0  0  0  0  0  0  0  0
    3.1609   -4.9931   -6.2722 O   0  0  0  0  0  0  0  0  0  0  0  0
    1.9724   -4.6527   -6.8513 C   0  0  0  0  0  0  0  0  0  0  0  0
    0.8275   -4.8611   -6.0667 C   0  0  0  0  0  0  0  0  0  0  0  0
   -0.4311   -4.5183   -6.5551 C   0  0  0  0  0  0  0  0  0  0  0  0
   -0.6017   -3.9604   -7.8338 C   0  0  0  0  0  0  0  0  0  0  0  0
   -1.9866   -3.5949   -8.3538 C   0  0  1  0  0  0  0  0  0  0  0  0
   -2.1275   -2.0849   -8.6125 C   0  0  0  0  0  0  0  0  0  0  0  0
   -2.3709   -4.4115   -9.6000 C   0  0  0  0  0  0  0  0  0  0  0  0
    0.5528   -3.7617   -8.6033 C   0  0  0  0  0  0  0  0  0  0  0  0
    1.8265   -4.1011   -8.1328 C   0  0  0  0  0  0  0  0  0  0  0  0
    4.6511   -2.6327   -5.1772 C   0  0  0  0  0  0  0  0  0  0  0  0
    5.4289   -1.3159   -5.2623 C   0  0  0  0  0  0  0  0  0  0  0  0
    1.8423    2.6776    1.7834 H   0  0  0  0  0  0  0  0  0  0  0  0
    1.2258    2.1484    0.2011 H   0  0  0  0  0  0  0  0  0  0  0  0
    2.3685    3.5052    0.2985 H   0  0  0  0  0  0  0  0  0  0  0  0
    3.0232    0.5815    1.0621 H   0  0  0  0  0  0  0  0  0  0  0  0
    4.1559    1.9274    1.1675 H   0  0  0  0  0  0  0  0  0  0  0  0
    4.0037    2.2649   -1.3311 H   0  0  0  0  0  0  0  0  0  0  0  0
    2.8556    0.9347   -1.4397 H   0  0  0  0  0  0  0  0  0  0  0  0
    4.6182   -0.6636   -0.6286 H   0  0  0  0  0  0  0  0  0  0  0  0
    5.7325    0.6853   -0.3777 H   0  0  0  0  0  0  0  0  0  0  0  0
    5.8083   -1.7414   -2.1769 H   0  0  0  0  0  0  0  0  0  0  0  0
    7.0854   -0.2898   -4.3464 H   0  0  0  0  0  0  0  0  0  0  0  0
    8.0614   -2.3967   -3.2608 H   0  0  0  0  0  0  0  0  0  0  0  0
    7.9884   -2.4334   -5.0311 H   0  0  0  0  0  0  0  0  0  0  0  0
    6.0402   -3.8402   -3.1025 H   0  0  0  0  0  0  0  0  0  0  0  0
    7.2045   -4.6112   -4.1944 H   0  0  0  0  0  0  0  0  0  0  0  0
    4.4272   -4.0298   -7.6142 H   0  0  0  0  0  0  0  0  0  0  0  0
    4.5628   -7.0845   -7.2913 H   0  0  0  0  0  0  0  0  0  0  0  0
    5.4960   -6.1184   -8.4526 H   0  0  0  0  0  0  0  0  0  0  0  0
    3.7192   -6.2329   -8.6251 H   0  0  0  0  0  0  0  0  0  0  0  0
    0.9520   -5.2943   -5.0720 H   0  0  0  0  0  0  0  0  0  0  0  0
   -1.3085   -4.6906   -5.9246 H   0  0  0  0  0  0  0  0  0  0  0  0
   -2.7030   -3.8587   -7.5561 H   0  0  0  0  0  0  0  0  0  0  0  0
   -1.4447   -1.7486   -9.4105 H   0  0  0  0  0  0  0  0  0  0  0  0
   -1.8962   -1.5003   -7.7082 H   0  0  0  0  0  0  0  0  0  0  0  0
   -3.1539   -1.8347   -8.9278 H   0  0  0  0  0  0  0  0  0  0  0  0
   -1.7034   -4.1876  -10.4487 H   0  0  0  0  0  0  0  0  0  0  0  0
   -3.4005   -4.1797   -9.9186 H   0  0  0  0  0  0  0  0  0  0  0  0
   -2.3094   -5.4935   -9.4042 H   0  0  0  0  0  0  0  0  0  0  0  0
    0.4714   -3.3338   -9.6064 H   0  0  0  0  0  0  0  0  0  0  0  0
    2.6897   -3.9346   -8.7780 H   0  0  0  0  0  0  0  0  0  0  0  0
    4.0291   -2.6413   -4.2620 H   0  0  0  0  0  0  0  0  0  0  0  0
    3.9574   -2.7175   -6.0188 H   0  0  0  0  0  0  0  0  0  0  0  0
    4.7388   -0.4603   -5.2141 H   0  0  0  0  0  0  0  0  0  0  0  0
    5.9487   -1.2632   -6.2346 H   0  0  0  0  0  0  0  0  0  0  0  0
  1  2  1  0
  1 28  1  0
  1 29  1  0
  1 30  1  0
  2  3  1  0
  2 31  1  0
  2 32  1  0
  3  4  1  0
  3 33  1  0
  3 34  1  0
  4  5  1  0
  4 35  1  0
  4 36  1  0
  5  6  2  0
  5  7  1  0
  7  8  1  0
  7 37  1  0
  8  9  1  0
  8 27  1  0
  8 38  1  6
  9 10  1  0
  9 39  1  0
  9 40  1  0
 10 11  1  0
 10 41  1  0
 10 42  1  0
 11 12  1  0
 11 26  1  0
 12 13  2  0
 12 14  1  0
 14 15  1  0
 14 16  1  0
 14 43  1  6
 15 44  1  0
 15 45  1  0
 15 46  1  0
 16 17  1  0
 17 18  2  0
 17 25  1  0
 18 19  1  0
 18 47  1  0
 19 20  2  0
 19 48  1  0
 20 21  1  0
 20 24  1  0
 21 22  1  0
 21 23  1  0
 21 49  1  1
 22 50  1  0
 22 51  1  0
 22 52  1  0
 23 53  1  0
 23 54  1  0
 23 55  1  0
 24 25  2  0
 24 56  1  0
 25 57  1  0
 26 27  1  0
 26 58  1  0
 26 59  1  0
 27 60  1  0
 27 61  1  0
M  END

