
     RDKit          3D

 38 41  0  0  0  0  0  0  0  0999 V2000
    5.4904   -2.5321   -0.1380 O   0  0  0  0  0  0  0  0  0  0  0  0
    4.8319   -1.5188   -0.1176 C   0  0  0  0  0  0  0  0  0  0  0  0
    3.4664   -1.4342    0.1366 N   0  0  0  0  0  0  0  0  0  0  0  0
    2.5898   -2.4620    0.4136 C   0  0  0  0  0  0  0  0  0  0  0  0
    2.8700   -3.7240    0.5011 N   0  0  0  0  0  0  0  0  0  0  0  0
    1.7860   -4.4937    0.7881 N   0  0  0  0  0  0  0  0  0  0  0  0
    0.6797   -3.8252    0.9201 C   0  0  0  0  0  0  0  0  0  0  0  0
   -0.8918   -4.5137    1.2914 S   0  0  0  0  0  0  0  0  0  0  0  0
   -0.4163   -6.3019    1.3951 C   0  0  0  0  0  0  0  0  0  0  0  0
   -1.6421   -7.1153    1.7151 C   0  0  0  0  0  0  0  0  0  0  0  0
   -2.4737   -7.5897    0.6878 C   0  0  0  0  0  0  0  0  0  0  0  0
   -3.6159   -8.3374    0.9835 C   0  0  0  0  0  0  0  0  0  0  0  0
   -3.9456   -8.6183    2.3132 C   0  0  0  0  0  0  0  0  0  0  0  0
   -3.1273   -8.1471    3.3444 C   0  0  0  0  0  0  0  0  0  0  0  0
   -1.9857   -7.3988    3.0466 C   0  0  0  0  0  0  0  0  0  0  0  0
    0.8741   -2.0853    0.6908 S   0  0  0  0  0  0  0  0  0  0  0  0
    5.4168   -0.1628   -0.3733 C   0  0  0  0  0  0  0  0  0  0  0  0
    6.7456    0.0420   -0.6510 C   0  0  0  0  0  0  0  0  0  0  0  0
    7.0408    1.7228   -0.8847 S   0  0  0  0  0  0  0  0  0  0  0  0
    5.3292    2.0463   -0.5900 C   0  0  0  0  0  0  0  0  0  0  0  0
    4.7830    3.3889   -0.6262 C   0  0  0  0  0  0  0  0  0  0  0  0
    5.4168    4.5889   -0.8948 C   0  0  0  0  0  0  0  0  0  0  0  0
    4.5384    5.7050   -0.8349 C   0  0  0  0  0  0  0  0  0  0  0  0
    3.2494    5.3424   -0.5222 C   0  0  0  0  0  0  0  0  0  0  0  0
    3.0868    3.6394   -0.2970 S   0  0  0  0  0  0  0  0  0  0  0  0
    4.6375    0.9641   -0.3420 N   0  0  0  0  0  0  0  0  0  0  0  0
    3.0996   -0.4849    0.1060 H   0  0  0  0  0  0  0  0  0  0  0  0
    0.3601   -6.3920    2.1662 H   0  0  0  0  0  0  0  0  0  0  0  0
    0.0310   -6.5793    0.4313 H   0  0  0  0  0  0  0  0  0  0  0  0
   -2.2191   -7.3725   -0.3534 H   0  0  0  0  0  0  0  0  0  0  0  0
   -4.2499   -8.7048    0.1724 H   0  0  0  0  0  0  0  0  0  0  0  0
   -4.8379   -9.2053    2.5451 H   0  0  0  0  0  0  0  0  0  0  0  0
   -3.3778   -8.3647    4.3859 H   0  0  0  0  0  0  0  0  0  0  0  0
   -1.3484   -7.0316    3.8559 H   0  0  0  0  0  0  0  0  0  0  0  0
    7.5261   -0.7126   -0.7220 H   0  0  0  0  0  0  0  0  0  0  0  0
    6.4802    4.6645   -1.1289 H   0  0  0  0  0  0  0  0  0  0  0  0
    4.8481    6.7349   -1.0164 H   0  0  0  0  0  0  0  0  0  0  0  0
    2.3801    5.9895   -0.4118 H   0  0  0  0  0  0  0  0  0  0  0  0
  1  2  2  0
  2  3  1  0
  2 17  1  0
  3  4  1  0
  3 27  1  0
  4  5  2  0
  4 16  1  0
  5  6  1  0
  6  7  2  0
  7  8  1  0
  7 16  1  0
  8  9  1  0
  9 10  1  0
  9 28  1  0
  9 29  1  0
 10 11  2  0
 10 15  1  0
 11 12  1  0
 11 30  1  0
 12 13  2  0
 12 31  1  0
 13 14  1  0
 13 32  1  0
 14 15  2  0
 14 33  1  0
 15 34  1  0
 17 18  2  0
 17 26  1  0
 18 19  1  0
 18 35  1  0
 19 20  1  0
 20 21  1  0
 20 26  2  0
 21 22  2  0
 21 25  1  0
 22 23  1  0
 22 36  1  0
 23 24  2  0
 23 37  1  0
 24 25  1  0
 24 38  1  0
M  END

