
     RDKit          3D

 45 47  0  0  0  0  0  0  0  0999 V2000
    2.9665    1.0757   -0.1488 O   0  0  0  0  0  0  0  0  0  0  0  0
    4.0783    1.6400    0.0337 C   0  0  0  0  0  0  0  0  0  0  0  0
    4.3500    2.9300   -0.4119 N   0  0  0  0  0  0  0  0  0  0  0  0
    3.4950    3.5733   -1.3834 C   0  0  0  0  0  0  0  0  0  0  0  0
    3.8077    3.2458   -2.8371 C   0  0  0  0  0  0  0  0  0  0  0  0
    3.5867    1.9469   -3.3307 C   0  0  0  0  0  0  0  0  0  0  0  0
    3.8891    1.6309   -4.6567 C   0  0  0  0  0  0  0  0  0  0  0  0
    4.4154    2.6041   -5.5151 C   0  0  0  0  0  0  0  0  0  0  0  0
    4.6363    3.8975   -5.0360 C   0  0  0  0  0  0  0  0  0  0  0  0
    4.3338    4.2117   -3.7059 C   0  0  0  0  0  0  0  0  0  0  0  0
    5.1832    1.0055    0.7357 C   0  0  0  0  0  0  0  0  0  0  0  0
    6.3196    1.4990    0.9143 O   0  0  0  0  0  0  0  0  0  0  0  0
    4.7996   -0.2895    1.1996 N   0  0  0  0  0  0  0  0  0  0  0  0
    5.5232   -1.2188    1.8715 C   0  0  0  0  0  0  0  0  0  0  0  0
    6.8830   -1.0164    2.2472 C   0  0  0  0  0  0  0  0  0  0  0  0
    7.5827   -1.9975    2.9343 C   0  0  0  0  0  0  0  0  0  0  0  0
    6.9615   -3.2059    3.2834 C   0  0  0  0  0  0  0  0  0  0  0  0
    7.7136   -4.2328    3.9812 N   0  0  0  0  0  0  0  0  0  0  0  0
    7.8365   -4.3813    5.2971 C   0  0  0  0  0  0  0  0  0  0  0  0
    7.1869   -3.4821    6.2174 C   0  0  0  0  0  0  0  0  0  0  0  0
    7.3387   -3.6726    7.5717 C   0  0  0  0  0  0  0  0  0  0  0  0
    8.1237   -4.7378    8.0688 C   0  0  0  0  0  0  0  0  0  0  0  0
    8.7682   -5.6274    7.1797 C   0  0  0  0  0  0  0  0  0  0  0  0
    8.6353   -5.4629    5.8205 C   0  0  0  0  0  0  0  0  0  0  0  0
    5.6293   -3.4368    2.9186 C   0  0  0  0  0  0  0  0  0  0  0  0
    4.9233   -2.4600    2.2299 C   0  0  0  0  0  0  0  0  0  0  0  0
    5.3371    3.1667   -0.3923 H   0  0  0  0  0  0  0  0  0  0  0  0
    3.5395    4.6666   -1.2410 H   0  0  0  0  0  0  0  0  0  0  0  0
    2.4691    3.2466   -1.1546 H   0  0  0  0  0  0  0  0  0  0  0  0
    3.1725    1.1961   -2.6524 H   0  0  0  0  0  0  0  0  0  0  0  0
    3.7098    0.6173   -5.0268 H   0  0  0  0  0  0  0  0  0  0  0  0
    4.6506    2.3542   -6.5534 H   0  0  0  0  0  0  0  0  0  0  0  0
    5.0460    4.6657   -5.6981 H   0  0  0  0  0  0  0  0  0  0  0  0
    4.5087    5.2272   -3.3358 H   0  0  0  0  0  0  0  0  0  0  0  0
    3.8353   -0.4871    0.9347 H   0  0  0  0  0  0  0  0  0  0  0  0
    7.3448   -0.0690    1.9734 H   0  0  0  0  0  0  0  0  0  0  0  0
    8.6276   -1.8191    3.2044 H   0  0  0  0  0  0  0  0  0  0  0  0
    8.2147   -4.9152    3.4110 H   0  0  0  0  0  0  0  0  0  0  0  0
    6.5897   -2.6672    5.8137 H   0  0  0  0  0  0  0  0  0  0  0  0
    6.8486   -2.9933    8.2707 H   0  0  0  0  0  0  0  0  0  0  0  0
    8.2338   -4.8741    9.1455 H   0  0  0  0  0  0  0  0  0  0  0  0
    9.3724   -6.4458    7.5742 H   0  0  0  0  0  0  0  0  0  0  0  0
    9.1278   -6.1419    5.1217 H   0  0  0  0  0  0  0  0  0  0  0  0
    5.1397   -4.3807    3.1734 H   0  0  0  0  0  0  0  0  0  0  0  0
    3.8826   -2.6451    1.9532 H   0  0  0  0  0  0  0  0  0  0  0  0
  1  2  2  0
  2  3  1  0
  2 11  1  0
  3  4  1  0
  3 27  1  0
  4  5  1  0
  4 28  1  0
  4 29  1  0
  5  6  2  0
  5 10  1  0
  6  7  1  0
  6 30  1  0
  7  8  2  0
  7 31  1  0
  8  9  1  0
  8 32  1  0
  9 10  2  0
  9 33  1  0
 10 34  1  0
 11 12  2  0
 11 13  1  0
 13 14  1  0
 13 35  1  0
 14 15  2  0
 14 26  1  0
 15 16  1  0
 15 36  1  0
 16 17  2  0
 16 37  1  0
 17 18  1  0
 17 25  1  0
 18 19  1  0
 18 38  1  0
 19 20  2  0
 19 24  1  0
 20 21  1  0
 20 39  1  0
 21 22  2  0
 21 40  1  0
 22 23  1  0
 22 41  1  0
 23 24  2  0
 23 42  1  0
 24 43  1  0
 25 26  2  0
 25 44  1  0
 26 45  1  0
M  END

