
     RDKit          3D

 73 77  0  0  0  0  0  0  0  0999 V2000
    2.0707   -1.6488   -0.6916 C   0  0  0  0  0  0  0  0  0  0  0  0
    1.7633   -0.3421   -1.2461 N   0  0  0  0  0  0  0  0  0  0  0  0
    2.5819    0.7247   -1.1367 C   0  0  0  0  0  0  0  0  0  0  0  0
    2.2400    1.9841   -1.6934 C   0  0  0  0  0  0  0  0  0  0  0  0
    3.1662    2.9960   -1.5107 C   0  0  0  0  0  0  0  0  0  0  0  0
    2.9329    4.2913   -2.0269 N   0  0  0  0  0  0  0  0  0  0  0  0
    1.8308    4.5391   -2.7582 N   0  0  0  0  0  0  0  0  0  0  0  0
    1.8768    5.8335   -3.1164 C   0  0  0  0  0  0  0  0  0  0  0  0
    0.7991    6.4364   -3.9577 C   0  0  0  0  0  0  0  0  0  0  0  0
    3.0267    6.4612   -2.6170 C   0  0  0  0  0  0  0  0  0  0  0  0
    3.7135    5.4451   -1.8965 C   0  0  0  0  0  0  0  0  0  0  0  0
    4.8645    5.4337   -1.2207 N   0  0  0  0  0  0  0  0  0  0  0  0
    5.7311    6.5283   -0.9868 C   0  0  0  0  0  0  0  0  0  0  0  0
    5.1948    7.8151   -0.9313 C   0  0  0  0  0  0  0  0  0  0  0  0
    6.0298    8.9422   -0.8866 C   0  0  0  0  0  0  0  0  0  0  0  0
    5.5135   10.2167   -0.9553 N   0  0  0  0  0  0  0  0  0  0  0  0
    4.2897   10.5689   -1.6404 C   0  0  0  0  0  0  0  0  0  0  0  0
    3.6357    9.6777   -2.2177 O   0  0  0  0  0  0  0  0  0  0  0  0
    3.9578   11.9634   -1.6124 C   0  0  0  0  0  0  0  0  0  0  0  0
    4.6568   12.9304   -0.8055 C   0  0  0  0  0  0  0  0  0  0  0  0
    4.3869   14.2870   -0.9162 C   0  0  0  0  0  0  0  0  0  0  0  0
    5.0997   15.2429   -0.1058 N   0  0  0  0  0  0  0  0  0  0  0  0
    4.3457   16.4357    0.3130 C   0  0  0  0  0  0  0  0  0  0  0  0
    5.0051   17.1634    1.4821 C   0  0  0  0  0  0  0  0  0  0  0  0
    6.4130   17.4380    1.2484 N   0  0  0  0  0  0  0  0  0  0  0  0
    6.6791   18.4240    0.2156 C   0  0  0  0  0  0  0  0  0  0  0  0
    7.1036   16.1767    1.0594 C   0  0  0  0  0  0  0  0  0  0  0  0
    6.4459   15.1080    0.1641 C   0  0  0  0  0  0  0  0  0  0  0  0
    7.1344   14.1625   -0.1910 O   0  0  0  0  0  0  0  0  0  0  0  0
    3.3774   14.7506   -1.7905 C   0  0  0  0  0  0  0  0  0  0  0  0
    2.6270   13.7875   -2.5290 C   0  0  0  0  0  0  0  0  0  0  0  0
    1.5106   14.2882   -3.3927 C   0  0  1  0  0  0  0  0  0  0  0  0
    1.9142   15.2744   -4.2296 F   0  0  0  0  0  0  0  0  0  0  0  0
    0.9603   13.3285   -4.1627 F   0  0  0  0  0  0  0  0  0  0  0  0
    0.4979   14.8226   -2.6654 F   0  0  0  0  0  0  0  0  0  0  0  0
    2.8982   12.4398   -2.4455 C   0  0  0  0  0  0  0  0  0  0  0  0
    7.4146    8.6997   -0.7480 C   0  0  0  0  0  0  0  0  0  0  0  0
    7.9255    7.4003   -0.7079 C   0  0  0  0  0  0  0  0  0  0  0  0
    7.1151    6.2679   -0.8507 C   0  0  0  0  0  0  0  0  0  0  0  0
    7.6907    4.8742   -0.9001 C   0  0  0  0  0  0  0  0  0  0  0  0
    4.3262    2.8247   -0.8515 N   0  0  0  0  0  0  0  0  0  0  0  0
    4.5439    1.5982   -0.3675 C   0  0  0  0  0  0  0  0  0  0  0  0
    3.7464    0.5510   -0.4726 N   0  0  0  0  0  0  0  0  0  0  0  0
    1.2325   -2.3250   -0.9050 H   0  0  0  0  0  0  0  0  0  0  0  0
    2.2194   -1.5959    0.3981 H   0  0  0  0  0  0  0  0  0  0  0  0
    2.9891   -2.0675   -1.1326 H   0  0  0  0  0  0  0  0  0  0  0  0
    0.8929   -0.2174   -1.7458 H   0  0  0  0  0  0  0  0  0  0  0  0
    1.3133    2.1642   -2.2353 H   0  0  0  0  0  0  0  0  0  0  0  0
   -0.1081    5.8189   -3.9191 H   0  0  0  0  0  0  0  0  0  0  0  0
    1.1232    6.5070   -5.0087 H   0  0  0  0  0  0  0  0  0  0  0  0
    0.5652    7.4545   -3.6169 H   0  0  0  0  0  0  0  0  0  0  0  0
    3.3176    7.5061   -2.7306 H   0  0  0  0  0  0  0  0  0  0  0  0
    5.1109    4.4787   -0.8894 H   0  0  0  0  0  0  0  0  0  0  0  0
    4.1242    7.9722   -0.9377 H   0  0  0  0  0  0  0  0  0  0  0  0
    6.1802   10.9744   -0.8574 H   0  0  0  0  0  0  0  0  0  0  0  0
    5.4021   12.6128   -0.0839 H   0  0  0  0  0  0  0  0  0  0  0  0
    3.3280   16.1180    0.5872 H   0  0  0  0  0  0  0  0  0  0  0  0
    4.2343   17.1318   -0.5374 H   0  0  0  0  0  0  0  0  0  0  0  0
    4.9215   16.5497    2.3971 H   0  0  0  0  0  0  0  0  0  0  0  0
    4.4625   18.1040    1.6734 H   0  0  0  0  0  0  0  0  0  0  0  0
    6.1376   19.3560    0.4454 H   0  0  0  0  0  0  0  0  0  0  0  0
    6.3959   18.1147   -0.8149 H   0  0  0  0  0  0  0  0  0  0  0  0
    7.7551   18.6605    0.2003 H   0  0  0  0  0  0  0  0  0  0  0  0
    7.2442   15.6806    2.0390 H   0  0  0  0  0  0  0  0  0  0  0  0
    8.1121   16.3382    0.6527 H   0  0  0  0  0  0  0  0  0  0  0  0
    3.1793   15.8098   -1.9316 H   0  0  0  0  0  0  0  0  0  0  0  0
    2.3288   11.7166   -3.0272 H   0  0  0  0  0  0  0  0  0  0  0  0
    8.1010    9.5469   -0.6717 H   0  0  0  0  0  0  0  0  0  0  0  0
    9.0044    7.2640   -0.5957 H   0  0  0  0  0  0  0  0  0  0  0  0
    8.7769    4.9023   -0.7361 H   0  0  0  0  0  0  0  0  0  0  0  0
    7.5196    4.3818   -1.8730 H   0  0  0  0  0  0  0  0  0  0  0  0
    7.2654    4.2144   -0.1228 H   0  0  0  0  0  0  0  0  0  0  0  0
    5.4868    1.4520    0.1726 H   0  0  0  0  0  0  0  0  0  0  0  0
  1  2  1  0
  1 44  1  0
  1 45  1  0
  1 46  1  0
  2  3  1  0
  2 47  1  0
  3  4  2  0
  3 43  1  0
  4  5  1  0
  4 48  1  0
  5  6  1  0
  5 41  2  0
  6  7  1  0
  6 11  1  0
  7  8  2  0
  8  9  1  0
  8 10  1  0
  9 49  1  0
  9 50  1  0
  9 51  1  0
 10 11  2  0
 10 52  1  0
 11 12  1  0
 12 13  1  0
 12 53  1  0
 13 14  2  0
 13 39  1  0
 14 15  1  0
 14 54  1  0
 15 16  1  0
 15 37  2  0
 16 17  1  0
 16 55  1  0
 17 18  2  0
 17 19  1  0
 19 20  2  0
 19 36  1  0
 20 21  1  0
 20 56  1  0
 21 22  1  0
 21 30  2  0
 22 23  1  0
 22 28  1  0
 23 24  1  0
 23 57  1  0
 23 58  1  0
 24 25  1  0
 24 59  1  0
 24 60  1  0
 25 26  1  0
 25 27  1  0
 26 61  1  0
 26 62  1  0
 26 63  1  0
 27 28  1  0
 27 64  1  0
 27 65  1  0
 28 29  2  0
 30 31  1  0
 30 66  1  0
 31 32  1  0
 31 36  2  0
 32 33  1  6
 32 34  1  0
 32 35  1  0
 36 67  1  0
 37 38  1  0
 37 68  1  0
 38 39  2  0
 38 69  1  0
 39 40  1  0
 40 70  1  0
 40 71  1  0
 40 72  1  0
 41 42  1  0
 42 43  2  0
 42 73  1  0
M  END

