
     RDKit          3D

 38 39  0  0  0  0  0  0  0  0999 V2000
    1.7334   -1.0050   -0.3312 C   0  0  0  0  0  0  0  0  0  0  0  0
    1.6175   -0.1418    0.7906 O   0  0  0  0  0  0  0  0  0  0  0  0
    2.6670   -0.0773    1.6195 C   0  0  0  0  0  0  0  0  0  0  0  0
    2.7191    0.9138    2.6395 C   0  0  0  0  0  0  0  0  0  0  0  0
    3.8959    0.9212    3.4519 C   0  0  0  0  0  0  0  0  0  0  0  0
    4.9472    0.0390    3.2592 C   0  0  0  0  0  0  0  0  0  0  0  0
    6.1364   -0.0202    4.1852 C   0  0  0  0  0  0  0  0  0  0  0  0
    6.2515   -1.3107    5.0245 C   0  0  1  0  0  0  0  0  0  0  0  0
    6.5617   -2.4428    4.2029 O   0  0  0  0  0  0  0  0  0  0  0  0
    7.2307   -1.2373    6.1937 C   0  0  0  0  0  0  0  0  0  0  0  0
    8.2461   -0.2702    6.2436 C   0  0  0  0  0  0  0  0  0  0  0  0
    9.1887   -0.2180    7.2812 C   0  0  0  0  0  0  0  0  0  0  0  0
   10.2782    0.8273    7.3027 C   0  0  0  0  0  0  0  0  0  0  0  0
    9.0901   -1.1779    8.2963 C   0  0  0  0  0  0  0  0  0  0  0  0
    8.0890   -2.1497    8.2615 C   0  0  0  0  0  0  0  0  0  0  0  0
    7.1485   -2.2060    7.2235 C   0  0  0  0  0  0  0  0  0  0  0  0
    6.0844   -3.2782    7.2202 C   0  0  0  0  0  0  0  0  0  0  0  0
    4.8982   -0.8924    2.1428 C   0  0  0  0  0  0  0  0  0  0  0  0
    3.6829   -0.8909    1.5179 N   0  0  0  0  0  0  0  0  0  0  0  0
    0.7505   -1.0195   -0.8187 H   0  0  0  0  0  0  0  0  0  0  0  0
    2.0064   -2.0265   -0.0112 H   0  0  0  0  0  0  0  0  0  0  0  0
    2.4947   -0.6407   -1.0405 H   0  0  0  0  0  0  0  0  0  0  0  0
    2.0077    1.7390    2.5913 H   0  0  0  0  0  0  0  0  0  0  0  0
    3.9799    1.6709    4.2441 H   0  0  0  0  0  0  0  0  0  0  0  0
    6.0765    0.8395    4.8707 H   0  0  0  0  0  0  0  0  0  0  0  0
    7.0638    0.0940    3.5933 H   0  0  0  0  0  0  0  0  0  0  0  0
    5.2486   -1.5288    5.4227 H   0  0  0  0  0  0  0  0  0  0  0  0
    7.5116   -2.4134    4.0190 H   0  0  0  0  0  0  0  0  0  0  0  0
    8.3149    0.4778    5.4508 H   0  0  0  0  0  0  0  0  0  0  0  0
   10.1363    1.5788    6.5117 H   0  0  0  0  0  0  0  0  0  0  0  0
   11.2733    0.3731    7.1552 H   0  0  0  0  0  0  0  0  0  0  0  0
   10.3091    1.3569    8.2692 H   0  0  0  0  0  0  0  0  0  0  0  0
    9.8041   -1.1676    9.1254 H   0  0  0  0  0  0  0  0  0  0  0  0
    8.0335   -2.8893    9.0657 H   0  0  0  0  0  0  0  0  0  0  0  0
    6.2479   -4.0002    8.0334 H   0  0  0  0  0  0  0  0  0  0  0  0
    6.0716   -3.8196    6.2629 H   0  0  0  0  0  0  0  0  0  0  0  0
    5.0762   -2.8494    7.3567 H   0  0  0  0  0  0  0  0  0  0  0  0
    5.4380   -1.8400    2.2156 H   0  0  0  0  0  0  0  0  0  0  0  0
  1  2  1  0
  1 20  1  0
  1 21  1  0
  1 22  1  0
  2  3  1  0
  3  4  2  0
  3 19  1  0
  4  5  1  0
  4 23  1  0
  5  6  2  0
  5 24  1  0
  6  7  1  0
  6 18  1  0
  7  8  1  0
  7 25  1  0
  7 26  1  0
  8  9  1  0
  8 10  1  0
  8 27  1  1
  9 28  1  0
 10 11  2  0
 10 16  1  0
 11 12  1  0
 11 29  1  0
 12 13  1  0
 12 14  2  0
 13 30  1  0
 13 31  1  0
 13 32  1  0
 14 15  1  0
 14 33  1  0
 15 16  2  0
 15 34  1  0
 16 17  1  0
 17 35  1  0
 17 36  1  0
 17 37  1  0
 18 19  2  0
 18 38  1  0
M  END

