
     RDKit          3D

 37 39  0  0  0  0  0  0  0  0999 V2000
    7.7870   -3.3066   -6.0727 N   0  0  0  0  0  0  0  0  0  0  0  0
    7.2798   -3.8311   -4.9352 C   0  0  0  0  0  0  0  0  0  0  0  0
    6.5706   -4.9490   -4.9718 N   0  0  0  0  0  0  0  0  0  0  0  0
    6.0725   -5.4529   -3.8101 C   0  0  0  0  0  0  0  0  0  0  0  0
    6.1893   -4.9765   -2.5901 N   0  0  0  0  0  0  0  0  0  0  0  0
    6.9156   -3.8264   -2.5283 C   0  0  0  0  0  0  0  0  0  0  0  0
    7.2937   -3.0015   -1.4579 C   0  0  0  0  0  0  0  0  0  0  0  0
    7.0035   -3.0250    0.0136 C   0  0  2  0  0  0  0  0  0  0  0  0
    5.9996   -2.6100    0.2089 H   0  0  0  0  0  0  0  0  0  0  0  0
    7.9419   -2.2126    0.7350 O   0  0  0  0  0  0  0  0  0  0  0  0
    9.0565   -3.0194    1.1417 C   0  0  1  0  0  0  0  0  0  0  0  0
    9.9330   -2.8086    0.5021 H   0  0  0  0  0  0  0  0  0  0  0  0
    9.3948   -2.6391    2.5749 C   0  0  0  0  0  0  0  0  0  0  0  0
   10.6153   -3.3056    2.9110 O   0  0  0  0  0  0  0  0  0  0  0  0
   11.2676   -3.2738    4.3789 P   0  0  1  0  0  0  0  0  0  0  0  0
   12.5331   -4.0216    4.4966 O   0  0  0  0  0  0  0  0  0  0  0  0
   11.3671   -1.6968    4.7553 O   0  0  0  0  0  0  0  0  0  0  0  0
   10.0139   -3.7512    5.2772 O   0  0  0  0  0  0  0  0  0  0  0  0
    8.6450   -4.5032    0.9388 C   0  0  2  0  0  0  0  0  0  0  0  0
    8.8094   -5.0939    1.8563 H   0  0  0  0  0  0  0  0  0  0  0  0
    9.2743   -5.0876   -0.1779 O   0  0  0  0  0  0  0  0  0  0  0  0
    7.1276   -4.4090    0.6694 C   0  0  1  0  0  0  0  0  0  0  0  0
    6.7892   -5.2198    0.0103 H   0  0  0  0  0  0  0  0  0  0  0  0
    6.3784   -4.4733    1.8652 O   0  0  0  0  0  0  0  0  0  0  0  0
    8.0191   -2.0035   -2.0266 N   0  0  0  0  0  0  0  0  0  0  0  0
    8.4438   -1.2429   -1.5052 H   0  0  0  0  0  0  0  0  0  0  0  0
    8.1711   -2.0801   -3.3516 N   0  0  0  0  0  0  0  0  0  0  0  0
    7.4939   -3.1945   -3.6671 C   0  0  0  0  0  0  0  0  0  0  0  0
    7.6298   -3.7887   -6.9479 H   0  0  0  0  0  0  0  0  0  0  0  0
    8.3417   -2.4631   -6.0409 H   0  0  0  0  0  0  0  0  0  0  0  0
    5.4996   -6.3818   -3.9232 H   0  0  0  0  0  0  0  0  0  0  0  0
    9.5196   -1.5477    2.6619 H   0  0  0  0  0  0  0  0  0  0  0  0
    8.5922   -2.9564    3.2610 H   0  0  0  0  0  0  0  0  0  0  0  0
   12.2823   -1.3890    4.6727 H   0  0  0  0  0  0  0  0  0  0  0  0
   10.2887   -4.0696    6.1496 H   0  0  0  0  0  0  0  0  0  0  0  0
   10.2042   -5.2381    0.0375 H   0  0  0  0  0  0  0  0  0  0  0  0
    6.4811   -3.6378    2.3411 H   0  0  0  0  0  0  0  0  0  0  0  0
  1  2  1  0
  1 29  1  0
  1 30  1  0
  2  3  2  0
  2 28  1  0
  3  4  1  0
  4  5  2  0
  4 31  1  0
  5  6  1  0
  6  7  2  0
  6 28  1  0
  7  8  1  0
  7 25  1  0
  8  9  1  6
  8 10  1  0
  8 22  1  0
 10 11  1  0
 11 12  1  6
 11 13  1  0
 11 19  1  0
 13 14  1  0
 13 32  1  0
 13 33  1  0
 15 14  1  6
 15 16  2  0
 15 17  1  0
 15 18  1  0
 17 34  1  0
 18 35  1  0
 19 20  1  1
 19 21  1  0
 19 22  1  0
 21 36  1  0
 22 23  1  6
 22 24  1  0
 24 37  1  0
 25 26  1  0
 25 27  1  0
 27 28  2  0
M  END

