
     RDKit          3D

 29 29  0  0  0  0  0  0  0  0999 V2000
    2.5263   -1.2757   -2.1232 C   0  0  0  0  0  0  0  0  0  0  0  0
    3.1078   -0.5812   -0.9157 C   0  0  0  0  0  0  0  0  0  0  0  0
    3.7139    0.6755   -1.0613 C   0  0  0  0  0  0  0  0  0  0  0  0
    4.2538    1.3739    0.0214 C   0  0  0  0  0  0  0  0  0  0  0  0
    4.1912    0.7986    1.2896 C   0  0  0  0  0  0  0  0  0  0  0  0
    4.9226    1.7207    2.7913 Br  0  0  0  0  0  0  0  0  0  0  0  0
    3.5981   -0.4526    1.4688 C   0  0  0  0  0  0  0  0  0  0  0  0
    3.0547   -1.1493    0.3798 C   0  0  0  0  0  0  0  0  0  0  0  0
    2.4252   -2.5064    0.6321 C   0  0  0  0  0  0  0  0  0  0  0  0
    0.9794   -2.5191    0.4432 N   0  0  0  0  0  0  0  0  0  0  0  0
    0.3402   -3.4030   -0.3633 C   0  0  0  0  0  0  0  0  0  0  0  0
    0.9185   -4.2607   -1.0212 O   0  0  0  0  0  0  0  0  0  0  0  0
   -1.1972   -3.3015   -0.4417 C   0  0  1  0  0  0  0  0  0  0  0  0
   -1.5825   -3.4082    0.5954 H   0  0  0  0  0  0  0  0  0  0  0  0
   -1.6616   -1.9507   -0.9992 C   0  0  0  0  0  0  0  0  0  0  0  0
   -1.6656   -4.3506   -1.2357 O   0  0  0  0  0  0  0  0  0  0  0  0
    2.9533   -0.8699   -3.0518 H   0  0  0  0  0  0  0  0  0  0  0  0
    1.4333   -1.1337   -2.1746 H   0  0  0  0  0  0  0  0  0  0  0  0
    2.6959   -2.3624   -2.1127 H   0  0  0  0  0  0  0  0  0  0  0  0
    3.7710    1.1238   -2.0572 H   0  0  0  0  0  0  0  0  0  0  0  0
    4.7208    2.3496   -0.1226 H   0  0  0  0  0  0  0  0  0  0  0  0
    3.5634   -0.8956    2.4667 H   0  0  0  0  0  0  0  0  0  0  0  0
    2.6690   -2.8333    1.6571 H   0  0  0  0  0  0  0  0  0  0  0  0
    2.8242   -3.2694   -0.0514 H   0  0  0  0  0  0  0  0  0  0  0  0
    0.4268   -1.8477    0.9640 H   0  0  0  0  0  0  0  0  0  0  0  0
   -1.3744   -1.1051   -0.3534 H   0  0  0  0  0  0  0  0  0  0  0  0
   -2.7579   -1.9557   -1.0896 H   0  0  0  0  0  0  0  0  0  0  0  0
   -1.2385   -1.7917   -2.0034 H   0  0  0  0  0  0  0  0  0  0  0  0
   -0.8607   -4.8136   -1.5396 H   0  0  0  0  0  0  0  0  0  0  0  0
  1  2  1  0
  1 17  1  0
  1 18  1  0
  1 19  1  0
  2  3  2  0
  2  8  1  0
  3  4  1  0
  3 20  1  0
  4  5  2  0
  4 21  1  0
  5  6  1  0
  5  7  1  0
  7  8  2  0
  7 22  1  0
  8  9  1  0
  9 10  1  0
  9 23  1  0
  9 24  1  0
 10 11  1  0
 10 25  1  0
 11 12  2  0
 11 13  1  0
 13 14  1  1
 13 15  1  0
 13 16  1  0
 15 26  1  0
 15 27  1  0
 15 28  1  0
 16 29  1  0
M  END

