
     RDKit          3D

 66 69  0  0  0  0  0  0  0  0999 V2000
    1.6706   -0.2505   -0.7319 C   0  0  0  0  0  0  0  0  0  0  0  0
    1.7922    1.1482   -1.3129 C   0  0  0  0  0  0  0  0  0  0  0  0
    2.7512    1.1983   -2.3866 O   0  0  0  0  0  0  0  0  0  0  0  0
    4.0430    1.3945   -2.0606 C   0  0  0  0  0  0  0  0  0  0  0  0
    4.4410    1.5231   -0.9286 O   0  0  0  0  0  0  0  0  0  0  0  0
    4.9101    1.4521   -3.3034 C   0  0  0  0  0  0  0  0  0  0  0  0
    6.4051    1.4538   -2.9967 C   0  0  0  0  0  0  0  0  0  0  0  0
    7.2579    1.6071   -4.2633 C   0  0  0  0  0  0  0  0  0  0  0  0
    8.6832    1.6104   -4.0104 N   0  0  0  0  0  0  0  0  0  0  0  0
    9.4220    2.7395   -3.6931 C   0  0  0  0  0  0  0  0  0  0  0  0
   10.7644    2.3651   -3.4201 C   0  0  0  0  0  0  0  0  0  0  0  0
   11.8359    3.1823   -3.0557 C   0  0  0  0  0  0  0  0  0  0  0  0
   13.0514    2.7677   -2.8462 O   0  0  0  0  0  0  0  0  0  0  0  0
   11.7233    4.7039   -2.9282 C   0  0  0  0  0  0  0  0  0  0  0  0
   12.0497    5.4422   -4.2497 C   0  0  0  0  0  0  0  0  0  0  0  0
   11.9145    6.9390   -4.1024 C   0  0  0  0  0  0  0  0  0  0  0  0
   12.9756    7.7225   -3.6282 C   0  0  0  0  0  0  0  0  0  0  0  0
   12.8513    9.1039   -3.4477 C   0  0  0  0  0  0  0  0  0  0  0  0
   11.6333    9.7366   -3.7427 C   0  0  0  0  0  0  0  0  0  0  0  0
   11.4021   11.0673   -3.6076 O   0  0  0  0  0  0  0  0  0  0  0  0
   12.4366   11.9160   -3.1450 C   0  0  0  0  0  0  0  0  0  0  0  0
   11.9505   13.3462   -3.1147 C   0  0  0  0  0  0  0  0  0  0  0  0
   12.4852   14.2439   -2.1798 C   0  0  0  0  0  0  0  0  0  0  0  0
   12.0899   15.5844   -2.1720 C   0  0  0  0  0  0  0  0  0  0  0  0
   11.1452   16.0411   -3.0954 C   0  0  0  0  0  0  0  0  0  0  0  0
   10.6010   15.1492   -4.0247 C   0  0  0  0  0  0  0  0  0  0  0  0
   11.0021   13.8107   -4.0370 C   0  0  0  0  0  0  0  0  0  0  0  0
   10.5568    8.9654   -4.2162 C   0  0  0  0  0  0  0  0  0  0  0  0
   10.7007    7.5933   -4.3879 C   0  0  0  0  0  0  0  0  0  0  0  0
   10.8100    0.9127   -3.5918 C   0  0  0  0  0  0  0  0  0  0  0  0
   11.8309   -0.0358   -3.4747 C   0  0  0  0  0  0  0  0  0  0  0  0
   11.5386   -1.3836   -3.7063 C   0  0  0  0  0  0  0  0  0  0  0  0
   10.2356   -1.7856   -4.0510 C   0  0  0  0  0  0  0  0  0  0  0  0
    9.1984   -0.8592   -4.1726 C   0  0  0  0  0  0  0  0  0  0  0  0
    9.4982    0.4925   -3.9454 C   0  0  0  0  0  0  0  0  0  0  0  0
    0.8756   -0.2717    0.0307 H   0  0  0  0  0  0  0  0  0  0  0  0
    2.6116   -0.5574   -0.2519 H   0  0  0  0  0  0  0  0  0  0  0  0
    1.4154   -0.9820   -1.5147 H   0  0  0  0  0  0  0  0  0  0  0  0
    2.0863    1.8713   -0.5377 H   0  0  0  0  0  0  0  0  0  0  0  0
    0.8460    1.4746   -1.7687 H   0  0  0  0  0  0  0  0  0  0  0  0
    4.6147    2.3615   -3.8587 H   0  0  0  0  0  0  0  0  0  0  0  0
    4.6234    0.6107   -3.9570 H   0  0  0  0  0  0  0  0  0  0  0  0
    6.6812    0.5215   -2.4779 H   0  0  0  0  0  0  0  0  0  0  0  0
    6.6378    2.2699   -2.2950 H   0  0  0  0  0  0  0  0  0  0  0  0
    7.0028    2.5489   -4.7790 H   0  0  0  0  0  0  0  0  0  0  0  0
    7.0345    0.7958   -4.9757 H   0  0  0  0  0  0  0  0  0  0  0  0
    8.9520    3.7188   -3.6958 H   0  0  0  0  0  0  0  0  0  0  0  0
   12.4094    5.0465   -2.1375 H   0  0  0  0  0  0  0  0  0  0  0  0
   10.7000    4.9332   -2.5907 H   0  0  0  0  0  0  0  0  0  0  0  0
   11.3746    5.0750   -5.0384 H   0  0  0  0  0  0  0  0  0  0  0  0
   13.0739    5.1753   -4.5536 H   0  0  0  0  0  0  0  0  0  0  0  0
   13.9341    7.2472   -3.3988 H   0  0  0  0  0  0  0  0  0  0  0  0
   13.7074    9.6713   -3.0827 H   0  0  0  0  0  0  0  0  0  0  0  0
   13.3154   11.8304   -3.8155 H   0  0  0  0  0  0  0  0  0  0  0  0
   12.7682   11.6069   -2.1363 H   0  0  0  0  0  0  0  0  0  0  0  0
   13.2164   13.8915   -1.4458 H   0  0  0  0  0  0  0  0  0  0  0  0
   12.5151   16.2714   -1.4358 H   0  0  0  0  0  0  0  0  0  0  0  0
   10.8301   17.0876   -3.0873 H   0  0  0  0  0  0  0  0  0  0  0  0
    9.8572   15.4977   -4.7462 H   0  0  0  0  0  0  0  0  0  0  0  0
   10.5719   13.1128   -4.7575 H   0  0  0  0  0  0  0  0  0  0  0  0
    9.6168    9.4716   -4.4453 H   0  0  0  0  0  0  0  0  0  0  0  0
    9.8528    7.0128   -4.7639 H   0  0  0  0  0  0  0  0  0  0  0  0
   12.8427    0.2756   -3.2038 H   0  0  0  0  0  0  0  0  0  0  0  0
   12.3284   -2.1331   -3.6160 H   0  0  0  0  0  0  0  0  0  0  0  0
   10.0273   -2.8446   -4.2245 H   0  0  0  0  0  0  0  0  0  0  0  0
    8.1897   -1.1857   -4.4342 H   0  0  0  0  0  0  0  0  0  0  0  0
  1  2  1  0
  1 36  1  0
  1 37  1  0
  1 38  1  0
  2  3  1  0
  2 39  1  0
  2 40  1  0
  3  4  1  0
  4  5  2  0
  4  6  1  0
  6  7  1  0
  6 41  1  0
  6 42  1  0
  7  8  1  0
  7 43  1  0
  7 44  1  0
  8  9  1  0
  8 45  1  0
  8 46  1  0
  9 10  1  0
  9 35  1  0
 10 11  2  0
 10 47  1  0
 11 12  1  0
 11 30  1  0
 12 13  2  0
 12 14  1  0
 14 15  1  0
 14 48  1  0
 14 49  1  0
 15 16  1  0
 15 50  1  0
 15 51  1  0
 16 17  2  0
 16 29  1  0
 17 18  1  0
 17 52  1  0
 18 19  2  0
 18 53  1  0
 19 20  1  0
 19 28  1  0
 20 21  1  0
 21 22  1  0
 21 54  1  0
 21 55  1  0
 22 23  2  0
 22 27  1  0
 23 24  1  0
 23 56  1  0
 24 25  2  0
 24 57  1  0
 25 26  1  0
 25 58  1  0
 26 27  2  0
 26 59  1  0
 27 60  1  0
 28 29  2  0
 28 61  1  0
 29 62  1  0
 30 31  1  0
 30 35  2  0
 31 32  2  0
 31 63  1  0
 32 33  1  0
 32 64  1  0
 33 34  2  0
 33 65  1  0
 34 35  1  0
 34 66  1  0
M  END

