
     RDKit          3D

 83 87  0  0  0  0  0  0  0  0999 V2000
   14.4500    2.6247    0.3259 C   0  0  0  0  0  0  0  0  0  0  0  0
   13.1947    1.9654    0.8383 C   0  0  0  0  0  0  0  0  0  0  0  0
   11.9251    2.4878    0.5507 C   0  0  0  0  0  0  0  0  0  0  0  0
   10.7652    1.8551    1.0041 C   0  0  0  0  0  0  0  0  0  0  0  0
   10.8448    0.6882    1.7737 C   0  0  0  0  0  0  0  0  0  0  0  0
    9.5925   -0.0218    2.2292 C   0  0  0  0  0  0  0  0  0  0  0  0
    9.3492   -1.2600    1.5280 N   0  0  0  0  0  0  0  0  0  0  0  0
    8.3374   -2.2839    1.7849 C   0  0  0  0  0  0  0  0  0  0  0  0
    8.4671   -2.7567    0.3119 C   0  0  2  0  0  0  0  0  0  0  0  0
    8.9295   -4.0330    0.2257 O   0  0  0  0  0  0  0  0  0  0  0  0
    9.0064   -4.5340   -1.1490 C   0  0  0  0  0  0  0  0  0  0  0  0
   10.3278   -4.7422   -1.6559 C   0  0  0  0  0  0  0  0  0  0  0  0
   11.2498   -3.7508   -1.3835 F   0  0  0  0  0  0  0  0  0  0  0  0
   10.7212   -5.8189   -2.4053 C   0  0  0  0  0  0  0  0  0  0  0  0
    9.8115   -6.8884   -2.6954 C   0  0  0  0  0  0  0  0  0  0  0  0
   10.1801   -7.9823   -3.6905 C   0  0  1  0  0  0  0  0  0  0  0  0
   11.6506   -8.4537   -3.5970 C   0  0  0  0  0  0  0  0  0  0  0  0
   11.9134   -9.2887   -2.3429 C   0  0  0  0  0  0  0  0  0  0  0  0
   10.9906  -10.4321   -2.2504 N   0  0  0  0  0  0  0  0  0  0  0  0
   11.5443  -11.9698   -2.5570 S   0  0  1  0  0  0  0  0  0  0  0  0
   10.4554  -12.7544   -3.1586 O   0  0  0  0  0  0  0  0  0  0  0  0
   12.8598  -11.8889   -3.2062 O   0  0  0  0  0  0  0  0  0  0  0  0
   11.8642  -12.6783   -0.9083 C   0  0  1  0  0  0  0  0  0  0  0  0
   10.6141  -12.8717   -0.0439 C   0  0  0  0  0  0  0  0  0  0  0  0
   11.0663  -13.9281    0.9727 C   0  0  0  0  0  0  0  0  0  0  0  0
   12.0268  -14.7300    0.2160 N   0  0  0  0  0  0  0  0  0  0  0  0
   12.3443  -16.0014    0.6048 C   0  0  0  0  0  0  0  0  0  0  0  0
   11.9049  -16.5357    1.6244 O   0  0  0  0  0  0  0  0  0  0  0  0
   13.1968  -16.5641   -0.2863 O   0  0  0  0  0  0  0  0  0  0  0  0
   13.6424  -17.9532   -0.1663 C   0  0  1  0  0  0  0  0  0  0  0  0
   12.4352  -18.8885   -0.2974 C   0  0  0  0  0  0  0  0  0  0  0  0
   14.5908  -18.1113   -1.3559 C   0  0  0  0  0  0  0  0  0  0  0  0
   14.3912  -18.1646    1.1548 C   0  0  0  0  0  0  0  0  0  0  0  0
   12.4700  -14.0885   -1.0234 C   0  0  0  0  0  0  0  0  0  0  0  0
    9.5607  -10.1083   -2.3885 C   0  0  0  0  0  0  0  0  0  0  0  0
    9.2927   -9.2449   -3.6243 C   0  0  0  0  0  0  0  0  0  0  0  0
    8.4737   -6.7073   -2.2211 C   0  0  0  0  0  0  0  0  0  0  0  0
    8.1284   -5.6266   -1.4498 C   0  0  0  0  0  0  0  0  0  0  0  0
    6.8393   -5.5018   -1.0114 F   0  0  0  0  0  0  0  0  0  0  0  0
    9.5357   -1.6180    0.1232 C   0  0  0  0  0  0  0  0  0  0  0  0
   12.1116    0.1673    2.0819 C   0  0  0  0  0  0  0  0  0  0  0  0
   13.2645    0.7941    1.6128 C   0  0  0  0  0  0  0  0  0  0  0  0
   14.2684    3.6669    0.0258 H   0  0  0  0  0  0  0  0  0  0  0  0
   14.8403    2.0887   -0.5561 H   0  0  0  0  0  0  0  0  0  0  0  0
   15.2450    2.6195    1.0872 H   0  0  0  0  0  0  0  0  0  0  0  0
   11.8393    3.4040   -0.0389 H   0  0  0  0  0  0  0  0  0  0  0  0
    9.7891    2.2799    0.7516 H   0  0  0  0  0  0  0  0  0  0  0  0
    8.7021    0.6126    2.0493 H   0  0  0  0  0  0  0  0  0  0  0  0
    9.5913   -0.2544    3.3077 H   0  0  0  0  0  0  0  0  0  0  0  0
    7.3874   -1.8292    2.1088 H   0  0  0  0  0  0  0  0  0  0  0  0
    8.6751   -3.0189    2.5293 H   0  0  0  0  0  0  0  0  0  0  0  0
    7.5738   -2.5688   -0.3081 H   0  0  0  0  0  0  0  0  0  0  0  0
   11.7284   -5.7970   -2.8264 H   0  0  0  0  0  0  0  0  0  0  0  0
   10.0569   -7.5826   -4.7207 H   0  0  0  0  0  0  0  0  0  0  0  0
   12.3526   -7.6064   -3.6165 H   0  0  0  0  0  0  0  0  0  0  0  0
   11.8843   -9.0697   -4.4824 H   0  0  0  0  0  0  0  0  0  0  0  0
   11.7598   -8.6674   -1.4434 H   0  0  0  0  0  0  0  0  0  0  0  0
   12.9439   -9.6650   -2.3329 H   0  0  0  0  0  0  0  0  0  0  0  0
   12.5755  -11.9796   -0.4413 H   0  0  0  0  0  0  0  0  0  0  0  0
    9.8037  -13.2721   -0.6729 H   0  0  0  0  0  0  0  0  0  0  0  0
   10.2673  -11.9416    0.4268 H   0  0  0  0  0  0  0  0  0  0  0  0
   10.2448  -14.5596    1.3411 H   0  0  0  0  0  0  0  0  0  0  0  0
   11.5435  -13.4655    1.8570 H   0  0  0  0  0  0  0  0  0  0  0  0
   11.9167  -18.7151   -1.2535 H   0  0  0  0  0  0  0  0  0  0  0  0
   11.7264  -18.7258    0.5249 H   0  0  0  0  0  0  0  0  0  0  0  0
   12.7677  -19.9382   -0.2733 H   0  0  0  0  0  0  0  0  0  0  0  0
   14.0667  -17.9003   -2.3001 H   0  0  0  0  0  0  0  0  0  0  0  0
   14.9855  -19.1382   -1.3960 H   0  0  0  0  0  0  0  0  0  0  0  0
   15.4381  -17.4141   -1.2700 H   0  0  0  0  0  0  0  0  0  0  0  0
   13.7211  -18.0358    2.0132 H   0  0  0  0  0  0  0  0  0  0  0  0
   15.2218  -17.4462    1.2417 H   0  0  0  0  0  0  0  0  0  0  0  0
   14.8172  -19.1802    1.1799 H   0  0  0  0  0  0  0  0  0  0  0  0
   12.0789  -14.6162   -1.9099 H   0  0  0  0  0  0  0  0  0  0  0  0
   13.5656  -14.0637   -1.1054 H   0  0  0  0  0  0  0  0  0  0  0  0
    9.2483   -9.5760   -1.4734 H   0  0  0  0  0  0  0  0  0  0  0  0
    8.9962  -11.0466   -2.4511 H   0  0  0  0  0  0  0  0  0  0  0  0
    8.2223   -8.9919   -3.6577 H   0  0  0  0  0  0  0  0  0  0  0  0
    9.4954   -9.8576   -4.5195 H   0  0  0  0  0  0  0  0  0  0  0  0
    7.6777   -7.4116   -2.4702 H   0  0  0  0  0  0  0  0  0  0  0  0
    9.3010   -0.7550   -0.5208 H   0  0  0  0  0  0  0  0  0  0  0  0
   10.5481   -1.9798   -0.0982 H   0  0  0  0  0  0  0  0  0  0  0  0
   12.2014   -0.7347    2.6942 H   0  0  0  0  0  0  0  0  0  0  0  0
   14.2410    0.3674    1.8563 H   0  0  0  0  0  0  0  0  0  0  0  0
  1  2  1  0
  1 43  1  0
  1 44  1  0
  1 45  1  0
  2  3  2  0
  2 42  1  0
  3  4  1  0
  3 46  1  0
  4  5  2  0
  4 47  1  0
  5  6  1  0
  5 41  1  0
  6  7  1  0
  6 48  1  0
  6 49  1  0
  7  8  1  0
  7 40  1  0
  8  9  1  0
  8 50  1  0
  8 51  1  0
  9 10  1  0
  9 40  1  0
  9 52  1  6
 10 11  1  0
 11 12  2  0
 11 38  1  0
 12 13  1  0
 12 14  1  0
 14 15  2  0
 14 53  1  0
 15 16  1  0
 15 37  1  0
 16 17  1  0
 16 36  1  0
 16 54  1  6
 17 18  1  0
 17 55  1  0
 17 56  1  0
 18 19  1  0
 18 57  1  0
 18 58  1  0
 20 19  1  1
 19 35  1  0
 20 21  2  0
 20 22  2  0
 20 23  1  0
 23 24  1  0
 23 34  1  0
 23 59  1  1
 24 25  1  0
 24 60  1  0
 24 61  1  0
 25 26  1  0
 25 62  1  0
 25 63  1  0
 26 27  1  0
 26 34  1  0
 27 28  2  0
 27 29  1  0
 30 29  1  6
 30 31  1  0
 30 32  1  0
 30 33  1  0
 31 64  1  0
 31 65  1  0
 31 66  1  0
 32 67  1  0
 32 68  1  0
 32 69  1  0
 33 70  1  0
 33 71  1  0
 33 72  1  0
 34 73  1  0
 34 74  1  0
 35 36  1  0
 35 75  1  0
 35 76  1  0
 36 77  1  0
 36 78  1  0
 37 38  2  0
 37 79  1  0
 38 39  1  0
 40 80  1  0
 40 81  1  0
 41 42  2  0
 41 82  1  0
 42 83  1  0
M  END

