
     RDKit          3D

 32 34  0  0  0  0  0  0  0  0999 V2000
    0.9065   -0.1762   -0.1675 O   0  0  0  0  0  0  0  0  0  0  0  0
    2.0674   -0.0286    0.1107 C   0  0  0  0  0  0  0  0  0  0  0  0
    2.7368    1.2159   -0.0401 N   0  0  0  0  0  0  0  0  0  0  0  0
    2.2038    2.3885   -0.4992 C   0  0  0  0  0  0  0  0  0  0  0  0
    0.9935    2.6087   -0.8799 N   0  0  0  0  0  0  0  0  0  0  0  0
    0.7919    3.9044   -1.2839 C   0  0  0  0  0  0  0  0  0  0  0  0
   -0.5075    4.3428   -1.7461 C   0  0  0  0  0  0  0  0  0  0  0  0
   -1.5850    3.4158   -1.7823 C   0  0  0  0  0  0  0  0  0  0  0  0
   -2.8354    3.8284   -2.2211 C   0  0  0  0  0  0  0  0  0  0  0  0
   -3.0693    5.1557   -2.6330 C   0  0  0  0  0  0  0  0  0  0  0  0
   -5.5008    5.9521   -3.4398 I   0  0  0  0  0  0  0  0  0  0  0  0
   -1.9959    6.0688   -2.5986 C   0  0  0  0  0  0  0  0  0  0  0  0
   -0.7370    5.6834   -2.1658 C   0  0  0  0  0  0  0  0  0  0  0  0
    1.9454    4.7121   -1.1963 C   0  0  0  0  0  0  0  0  0  0  0  0
    3.2844    3.8346   -0.6044 S   0  0  0  0  0  0  0  0  0  0  0  0
    2.9504   -1.1378    0.6445 C   0  0  1  0  0  0  0  0  0  0  0  0
    2.3732   -1.9724    1.8284 C   0  0  0  0  0  0  0  0  0  0  0  0
    2.8582   -3.2640    1.1262 C   0  0  0  0  0  0  0  0  0  0  0  0
    2.9832   -2.4571   -0.1890 C   0  0  0  0  0  0  0  0  0  0  0  0
    3.7162    1.2332    0.2218 H   0  0  0  0  0  0  0  0  0  0  0  0
   -1.3979    2.3901   -1.4582 H   0  0  0  0  0  0  0  0  0  0  0  0
   -3.6599    3.1075   -2.2456 H   0  0  0  0  0  0  0  0  0  0  0  0
   -2.1619    7.1034   -2.9182 H   0  0  0  0  0  0  0  0  0  0  0  0
    0.0778    6.4121   -2.1467 H   0  0  0  0  0  0  0  0  0  0  0  0
    2.0422    5.7635   -1.4542 H   0  0  0  0  0  0  0  0  0  0  0  0
    3.9690   -0.7797    0.8655 H   0  0  0  0  0  0  0  0  0  0  0  0
    1.2761   -1.8988    1.8431 H   0  0  0  0  0  0  0  0  0  0  0  0
    2.7653   -1.7454    2.8311 H   0  0  0  0  0  0  0  0  0  0  0  0
    2.1720   -4.1233    1.1249 H   0  0  0  0  0  0  0  0  0  0  0  0
    3.8370   -3.5998    1.5023 H   0  0  0  0  0  0  0  0  0  0  0  0
    2.0779   -2.5375   -0.8084 H   0  0  0  0  0  0  0  0  0  0  0  0
    3.8695   -2.6219   -0.8197 H   0  0  0  0  0  0  0  0  0  0  0  0
  1  2  2  0
  2  3  1  0
  2 16  1  0
  3  4  1  0
  3 20  1  0
  4  5  2  0
  4 15  1  0
  5  6  1  0
  6  7  1  0
  6 14  2  0
  7  8  2  0
  7 13  1  0
  8  9  1  0
  8 21  1  0
  9 10  2  0
  9 22  1  0
 10 11  1  0
 10 12  1  0
 12 13  2  0
 12 23  1  0
 13 24  1  0
 14 15  1  0
 14 25  1  0
 16 17  1  0
 16 19  1  0
 16 26  1  1
 17 18  1  0
 17 27  1  0
 17 28  1  0
 18 19  1  0
 18 29  1  0
 18 30  1  0
 19 31  1  0
 19 32  1  0
M  END

