
     RDKit          3D

 53 55  0  0  0  0  0  0  0  0999 V2000
    2.5000    3.6910    2.2363 C   0  0  0  0  0  0  0  0  0  0  0  0
    2.2449    2.8092    3.4701 C   0  0  1  0  0  0  0  0  0  0  0  0
    0.7469    2.5880    3.6936 C   0  0  0  0  0  0  0  0  0  0  0  0
    2.9174    1.5053    3.4185 N   0  0  0  0  0  0  0  0  0  0  0  0
    4.3663    1.4974    3.5434 C   0  0  1  0  0  0  0  0  0  0  0  0
    4.8378    2.3298    2.9846 H   0  0  0  0  0  0  0  0  0  0  0  0
    4.8099    1.6598    4.9958 C   0  0  0  0  0  0  0  0  0  0  0  0
    6.0486    2.2507    5.2948 C   0  0  0  0  0  0  0  0  0  0  0  0
    6.4886    2.3954    6.6132 C   0  0  0  0  0  0  0  0  0  0  0  0
    5.6706    1.9579    7.6588 C   0  0  0  0  0  0  0  0  0  0  0  0
    6.2079    2.1394    9.3142 Cl  0  0  0  0  0  0  0  0  0  0  0  0
    4.4199    1.3938    7.3916 C   0  0  0  0  0  0  0  0  0  0  0  0
    3.9993    1.2526    6.0671 C   0  0  0  0  0  0  0  0  0  0  0  0
    4.9255    0.2333    2.7951 C   0  0  2  0  0  0  0  0  0  0  0  0
    4.6730    0.4341    1.7422 H   0  0  0  0  0  0  0  0  0  0  0  0
    4.2975   -1.1088    3.1493 C   0  0  0  0  0  0  0  0  0  0  0  0
    3.7098   -1.8693    2.1254 C   0  0  0  0  0  0  0  0  0  0  0  0
    3.1476   -3.1201    2.3905 C   0  0  0  0  0  0  0  0  0  0  0  0
    3.1675   -3.6488    3.6825 C   0  0  0  0  0  0  0  0  0  0  0  0
    3.7559   -2.8962    4.7006 C   0  0  0  0  0  0  0  0  0  0  0  0
    3.8206   -3.5398    6.3293 Cl  0  0  0  0  0  0  0  0  0  0  0  0
    4.3100   -1.6394    4.4493 C   0  0  0  0  0  0  0  0  0  0  0  0
    6.3911    0.2089    2.8030 N   0  0  0  0  0  0  0  0  0  0  0  0
    7.0866    0.8781    1.8111 C   0  0  0  0  0  0  0  0  0  0  0  0
    6.5730    1.5774    0.9623 O   0  0  0  0  0  0  0  0  0  0  0  0
    8.5688    0.5720    1.9920 C   0  0  0  0  0  0  0  0  0  0  0  0
    8.6485   -0.0435    3.3926 C   0  0  0  0  0  0  0  0  0  0  0  0
    7.2356   -0.6586    3.6018 C   0  0  2  0  0  0  0  0  0  0  0  0
    7.2418   -2.1096    3.0757 C   0  0  0  0  0  0  0  0  0  0  0  0
    7.2398   -2.3737    1.9053 O   0  0  0  0  0  0  0  0  0  0  0  0
    7.3544   -3.0754    4.0093 O   0  0  0  0  0  0  0  0  0  0  0  0
    2.0305    4.6814    2.3516 H   0  0  0  0  0  0  0  0  0  0  0  0
    2.0762    3.2235    1.3304 H   0  0  0  0  0  0  0  0  0  0  0  0
    3.5745    3.8532    2.0582 H   0  0  0  0  0  0  0  0  0  0  0  0
    2.6481    3.3317    4.3556 H   0  0  0  0  0  0  0  0  0  0  0  0
    0.3042    2.0337    2.8475 H   0  0  0  0  0  0  0  0  0  0  0  0
    0.2104    3.5461    3.7779 H   0  0  0  0  0  0  0  0  0  0  0  0
    0.5686    2.0028    4.6080 H   0  0  0  0  0  0  0  0  0  0  0  0
    2.6167    0.9906    2.5923 H   0  0  0  0  0  0  0  0  0  0  0  0
    6.6779    2.6239    4.4827 H   0  0  0  0  0  0  0  0  0  0  0  0
    7.4512    2.8597    6.8350 H   0  0  0  0  0  0  0  0  0  0  0  0
    3.7822    1.0730    8.2173 H   0  0  0  0  0  0  0  0  0  0  0  0
    3.0199    0.8253    5.8445 H   0  0  0  0  0  0  0  0  0  0  0  0
    3.7081   -1.4827    1.1035 H   0  0  0  0  0  0  0  0  0  0  0  0
    2.6989   -3.6980    1.5791 H   0  0  0  0  0  0  0  0  0  0  0  0
    2.7431   -4.6297    3.9016 H   0  0  0  0  0  0  0  0  0  0  0  0
    4.7378   -1.0812    5.2803 H   0  0  0  0  0  0  0  0  0  0  0  0
    9.1678    1.4839    1.8605 H   0  0  0  0  0  0  0  0  0  0  0  0
    8.8605   -0.1421    1.2060 H   0  0  0  0  0  0  0  0  0  0  0  0
    8.8058    0.7363    4.1534 H   0  0  0  0  0  0  0  0  0  0  0  0
    9.4461   -0.7912    3.5084 H   0  0  0  0  0  0  0  0  0  0  0  0
    6.9485   -0.6267    4.6645 H   0  0  0  0  0  0  0  0  0  0  0  0
    7.2216   -2.7141    4.8979 H   0  0  0  0  0  0  0  0  0  0  0  0
  1  2  1  0
  1 32  1  0
  1 33  1  0
  1 34  1  0
  2  3  1  0
  2  4  1  0
  2 35  1  1
  3 36  1  0
  3 37  1  0
  3 38  1  0
  4  5  1  0
  4 39  1  0
  5  6  1  6
  5  7  1  0
  5 14  1  0
  7  8  2  0
  7 13  1  0
  8  9  1  0
  8 40  1  0
  9 10  2  0
  9 41  1  0
 10 11  1  0
 10 12  1  0
 12 13  2  0
 12 42  1  0
 13 43  1  0
 14 15  1  6
 14 16  1  0
 14 23  1  0
 16 17  2  0
 16 22  1  0
 17 18  1  0
 17 44  1  0
 18 19  2  0
 18 45  1  0
 19 20  1  0
 19 46  1  0
 20 21  1  0
 20 22  2  0
 22 47  1  0
 23 24  1  0
 23 28  1  0
 24 25  2  0
 24 26  1  0
 26 27  1  0
 26 48  1  0
 26 49  1  0
 27 28  1  0
 27 50  1  0
 27 51  1  0
 28 29  1  0
 28 52  1  1
 29 30  2  0
 29 31  1  0
 31 53  1  0
M  END

