
     RDKit          3D

 89 92  0  0  0  0  0  0  0  0999 V2000
    9.2075    1.9231   -6.7112 O   0  0  0  0  0  0  0  0  0  0  0  0
    8.4789    2.1518   -5.7825 C   0  0  0  0  0  0  0  0  0  0  0  0
    8.5400    3.3529   -5.1563 O   0  0  0  0  0  0  0  0  0  0  0  0
    7.4315    1.2112   -5.2513 C   0  0  0  0  0  0  0  0  0  0  0  0
    6.1864    1.7128   -4.8453 C   0  0  0  0  0  0  0  0  0  0  0  0
    5.1470    0.8741   -4.4179 C   0  0  0  0  0  0  0  0  0  0  0  0
    3.7635    1.3971   -4.0357 C   0  0  1  0  0  0  0  0  0  0  0  0
    3.0798    0.4754   -3.1980 O   0  0  0  0  0  0  0  0  0  0  0  0
    3.7184    2.7852   -3.3579 C   0  0  0  0  0  0  0  0  0  0  0  0
    4.0282    3.9528   -4.1813 N   0  0  0  0  0  0  0  0  0  0  0  0
    3.0176    4.2129   -5.2128 C   0  0  0  0  0  0  0  0  0  0  0  0
    3.5346    5.0260   -6.4027 C   0  0  0  0  0  0  0  0  0  0  0  0
    2.4648    5.2578   -7.4741 C   0  0  0  0  0  0  0  0  0  0  0  0
    2.9618    6.0813   -8.6661 C   0  0  0  0  0  0  0  0  0  0  0  0
    1.8975    6.3081   -9.7421 C   0  0  0  0  0  0  0  0  0  0  0  0
    2.4004    7.1382  -10.9142 C   0  0  0  0  0  0  0  0  0  0  0  0
    1.3628    7.2963  -11.8513 O   0  0  0  0  0  0  0  0  0  0  0  0
    1.7169    8.0481  -12.9858 C   0  0  0  0  0  0  0  0  0  0  0  0
    0.5206    8.1375  -13.9223 C   0  0  0  0  0  0  0  0  0  0  0  0
    0.8216    8.9458  -15.1955 C   0  0  0  0  0  0  0  0  0  0  0  0
   -0.3565    9.0377  -16.1411 C   0  0  0  0  0  0  0  0  0  0  0  0
   -1.3015   10.0693  -16.0188 C   0  0  0  0  0  0  0  0  0  0  0  0
   -2.4087   10.1368  -16.8689 C   0  0  0  0  0  0  0  0  0  0  0  0
   -2.5920    9.1696  -17.8617 C   0  0  0  0  0  0  0  0  0  0  0  0
   -1.6590    8.1373  -17.9966 C   0  0  0  0  0  0  0  0  0  0  0  0
   -0.5536    8.0744  -17.1436 C   0  0  0  0  0  0  0  0  0  0  0  0
    4.2507    5.1384   -3.3417 C   0  0  0  0  0  0  0  0  0  0  0  0
    5.5578    5.1331   -2.5737 C   0  0  0  0  0  0  0  0  0  0  0  0
    6.7765    5.3216   -3.2490 C   0  0  0  0  0  0  0  0  0  0  0  0
    7.9885    5.3351   -2.5528 C   0  0  0  0  0  0  0  0  0  0  0  0
    8.0017    5.1588   -1.1634 C   0  0  0  0  0  0  0  0  0  0  0  0
    6.7978    4.9779   -0.4800 C   0  0  0  0  0  0  0  0  0  0  0  0
    5.5865    4.9668   -1.1822 C   0  0  0  0  0  0  0  0  0  0  0  0
    5.3932   -0.5056   -4.4002 C   0  0  0  0  0  0  0  0  0  0  0  0
    6.6273   -1.0332   -4.7847 C   0  0  0  0  0  0  0  0  0  0  0  0
    7.6595   -0.1876   -5.2195 C   0  0  0  0  0  0  0  0  0  0  0  0
    8.8811   -0.6207   -5.5798 O   0  0  0  0  0  0  0  0  0  0  0  0
    9.1387   -1.9992   -5.7706 C   0  0  0  0  0  0  0  0  0  0  0  0
   10.4971   -2.1672   -6.4128 C   0  0  0  0  0  0  0  0  0  0  0  0
   11.1690   -3.3929   -6.2982 C   0  0  0  0  0  0  0  0  0  0  0  0
   12.4020   -3.5877   -6.9254 C   0  0  0  0  0  0  0  0  0  0  0  0
   12.9801   -2.5524   -7.6668 C   0  0  0  0  0  0  0  0  0  0  0  0
   12.3171   -1.3265   -7.7757 C   0  0  0  0  0  0  0  0  0  0  0  0
   11.0792   -1.1297   -7.1554 C   0  0  0  0  0  0  0  0  0  0  0  0
    7.9837    3.3569   -4.3617 H   0  0  0  0  0  0  0  0  0  0  0  0
    5.9896    2.7858   -4.8942 H   0  0  0  0  0  0  0  0  0  0  0  0
    3.1472    1.4271   -4.9505 H   0  0  0  0  0  0  0  0  0  0  0  0
    3.6009    0.3682   -2.3889 H   0  0  0  0  0  0  0  0  0  0  0  0
    4.4299    2.7670   -2.5154 H   0  0  0  0  0  0  0  0  0  0  0  0
    2.7016    2.8665   -2.9133 H   0  0  0  0  0  0  0  0  0  0  0  0
    2.1236    4.7117   -4.7730 H   0  0  0  0  0  0  0  0  0  0  0  0
    2.6564    3.2470   -5.5957 H   0  0  0  0  0  0  0  0  0  0  0  0
    4.3982    4.4968   -6.8415 H   0  0  0  0  0  0  0  0  0  0  0  0
    3.9173    6.0042   -6.0624 H   0  0  0  0  0  0  0  0  0  0  0  0
    1.5925    5.7642   -7.0211 H   0  0  0  0  0  0  0  0  0  0  0  0
    2.0897    4.2828   -7.8362 H   0  0  0  0  0  0  0  0  0  0  0  0
    3.8385    5.5781   -9.1142 H   0  0  0  0  0  0  0  0  0  0  0  0
    3.3311    7.0581   -8.3019 H   0  0  0  0  0  0  0  0  0  0  0  0
    1.0180    6.8152   -9.3083 H   0  0  0  0  0  0  0  0  0  0  0  0
    1.5351    5.3403  -10.1305 H   0  0  0  0  0  0  0  0  0  0  0  0
    3.2776    6.6440  -11.3859 H   0  0  0  0  0  0  0  0  0  0  0  0
    2.7552    8.1297  -10.5568 H   0  0  0  0  0  0  0  0  0  0  0  0
    2.5790    7.5799  -13.5095 H   0  0  0  0  0  0  0  0  0  0  0  0
    2.0485    9.0675  -12.6892 H   0  0  0  0  0  0  0  0  0  0  0  0
   -0.3243    8.5915  -13.3778 H   0  0  0  0  0  0  0  0  0  0  0  0
    0.2026    7.1160  -14.1906 H   0  0  0  0  0  0  0  0  0  0  0  0
    1.6768    8.4872  -15.7213 H   0  0  0  0  0  0  0  0  0  0  0  0
    1.1421    9.9632  -14.9113 H   0  0  0  0  0  0  0  0  0  0  0  0
   -1.1647   10.8345  -15.2485 H   0  0  0  0  0  0  0  0  0  0  0  0
   -3.1296   10.9513  -16.7581 H   0  0  0  0  0  0  0  0  0  0  0  0
   -3.4556    9.2225  -18.5295 H   0  0  0  0  0  0  0  0  0  0  0  0
   -1.7900    7.3784  -18.7726 H   0  0  0  0  0  0  0  0  0  0  0  0
    0.1734    7.2648  -17.2608 H   0  0  0  0  0  0  0  0  0  0  0  0
    3.4076    5.2788   -2.6290 H   0  0  0  0  0  0  0  0  0  0  0  0
    4.2455    6.0187   -4.0009 H   0  0  0  0  0  0  0  0  0  0  0  0
    6.7734    5.4713   -4.3324 H   0  0  0  0  0  0  0  0  0  0  0  0
    8.9243    5.4866   -3.0970 H   0  0  0  0  0  0  0  0  0  0  0  0
    8.9486    5.1705   -0.6179 H   0  0  0  0  0  0  0  0  0  0  0  0
    6.7977    4.8466    0.6052 H   0  0  0  0  0  0  0  0  0  0  0  0
    4.6468    4.8332   -0.6381 H   0  0  0  0  0  0  0  0  0  0  0  0
    4.5986   -1.1807   -4.0773 H   0  0  0  0  0  0  0  0  0  0  0  0
    6.7819   -2.1111   -4.7386 H   0  0  0  0  0  0  0  0  0  0  0  0
    8.3545   -2.4358   -6.4199 H   0  0  0  0  0  0  0  0  0  0  0  0
    9.1006   -2.5391   -4.8054 H   0  0  0  0  0  0  0  0  0  0  0  0
   10.7269   -4.2037   -5.7103 H   0  0  0  0  0  0  0  0  0  0  0  0
   12.9162   -4.5475   -6.8280 H   0  0  0  0  0  0  0  0  0  0  0  0
   13.9475   -2.7003   -8.1538 H   0  0  0  0  0  0  0  0  0  0  0  0
   12.7663   -0.5109   -8.3486 H   0  0  0  0  0  0  0  0  0  0  0  0
   10.5642   -0.1697   -7.2321 H   0  0  0  0  0  0  0  0  0  0  0  0
  1  2  2  0
  2  3  1  0
  2  4  1  0
  3 45  1  0
  4  5  2  0
  4 36  1  0
  5  6  1  0
  5 46  1  0
  6  7  1  0
  6 34  2  0
  7  8  1  0
  7  9  1  0
  7 47  1  6
  8 48  1  0
  9 10  1  0
  9 49  1  0
  9 50  1  0
 10 11  1  0
 10 27  1  0
 11 12  1  0
 11 51  1  0
 11 52  1  0
 12 13  1  0
 12 53  1  0
 12 54  1  0
 13 14  1  0
 13 55  1  0
 13 56  1  0
 14 15  1  0
 14 57  1  0
 14 58  1  0
 15 16  1  0
 15 59  1  0
 15 60  1  0
 16 17  1  0
 16 61  1  0
 16 62  1  0
 17 18  1  0
 18 19  1  0
 18 63  1  0
 18 64  1  0
 19 20  1  0
 19 65  1  0
 19 66  1  0
 20 21  1  0
 20 67  1  0
 20 68  1  0
 21 22  2  0
 21 26  1  0
 22 23  1  0
 22 69  1  0
 23 24  2  0
 23 70  1  0
 24 25  1  0
 24 71  1  0
 25 26  2  0
 25 72  1  0
 26 73  1  0
 27 28  1  0
 27 74  1  0
 27 75  1  0
 28 29  2  0
 28 33  1  0
 29 30  1  0
 29 76  1  0
 30 31  2  0
 30 77  1  0
 31 32  1  0
 31 78  1  0
 32 33  2  0
 32 79  1  0
 33 80  1  0
 34 35  1  0
 34 81  1  0
 35 36  2  0
 35 82  1  0
 36 37  1  0
 37 38  1  0
 38 39  1  0
 38 83  1  0
 38 84  1  0
 39 40  2  0
 39 44  1  0
 40 41  1  0
 40 85  1  0
 41 42  2  0
 41 86  1  0
 42 43  1  0
 42 87  1  0
 43 44  2  0
 43 88  1  0
 44 89  1  0
M  END

