
     RDKit          3D

 53 55  0  0  0  0  0  0  0  0999 V2000
    2.8716   -5.9660    0.1615 C   0  0  0  0  0  0  0  0  0  0  0  0
    3.3336   -5.0983   -0.9680 C   0  0  0  0  0  0  0  0  0  0  0  0
    4.5696   -5.2030   -1.4353 N   0  0  0  0  0  0  0  0  0  0  0  0
    4.6951   -4.2879   -2.4200 N   0  0  0  0  0  0  0  0  0  0  0  0
    5.9889   -4.1736   -3.1127 C   0  0  1  0  0  0  0  0  0  0  0  0
    7.0758   -3.7146   -2.1368 C   0  0  0  0  0  0  0  0  0  0  0  0
    6.3358   -5.4921   -3.8088 C   0  0  0  0  0  0  0  0  0  0  0  0
    3.5660   -3.5640   -2.6174 C   0  0  0  0  0  0  0  0  0  0  0  0
    3.4411   -2.4705   -3.6307 C   0  0  0  0  0  0  0  0  0  0  0  0
    2.6459   -4.0675   -1.6859 C   0  0  0  0  0  0  0  0  0  0  0  0
    0.9854   -3.5221   -1.4597 S   0  0  1  0  0  0  0  0  0  0  0  0
    0.5442   -4.0183   -0.1534 O   0  0  0  0  0  0  0  0  0  0  0  0
    0.8890   -2.1080   -1.8244 O   0  0  0  0  0  0  0  0  0  0  0  0
    0.0175   -4.3102   -2.5968 N   0  0  0  0  0  0  0  0  0  0  0  0
   -0.0747   -5.7654   -2.5967 C   0  0  0  0  0  0  0  0  0  0  0  0
   -1.0947   -6.2523   -1.5597 C   0  0  0  0  0  0  0  0  0  0  0  0
   -1.0410   -8.0560   -1.4371 S   0  0  1  0  0  0  0  0  0  0  0  0
   -1.4031   -8.5961   -2.7483 O   0  0  0  0  0  0  0  0  0  0  0  0
    0.2064   -8.4383   -0.7744 O   0  0  0  0  0  0  0  0  0  0  0  0
   -2.2451   -8.4783   -0.3276 N   0  0  0  0  0  0  0  0  0  0  0  0
   -3.6299   -8.2424   -0.4717 C   0  0  0  0  0  0  0  0  0  0  0  0
   -4.2789   -8.4885   -1.7282 C   0  0  0  0  0  0  0  0  0  0  0  0
   -5.6285   -8.3024   -1.8426 C   0  0  0  0  0  0  0  0  0  0  0  0
   -6.3583   -7.8988   -0.7611 N   0  0  0  0  0  0  0  0  0  0  0  0
   -7.6884   -7.6954   -0.7679 N   0  0  0  0  0  0  0  0  0  0  0  0
   -7.9712   -7.3226    0.4830 C   0  0  0  0  0  0  0  0  0  0  0  0
   -6.8383   -7.2777    1.3178 C   0  0  0  0  0  0  0  0  0  0  0  0
   -5.7779   -7.6594    0.4897 C   0  0  0  0  0  0  0  0  0  0  0  0
   -4.3749   -7.8253    0.6155 C   0  0  0  0  0  0  0  0  0  0  0  0
    3.7282   -6.5429    0.5356 H   0  0  0  0  0  0  0  0  0  0  0  0
    2.0886   -6.6767   -0.1488 H   0  0  0  0  0  0  0  0  0  0  0  0
    2.4518   -5.3567    0.9743 H   0  0  0  0  0  0  0  0  0  0  0  0
    5.8454   -3.3958   -3.8773 H   0  0  0  0  0  0  0  0  0  0  0  0
    7.2068   -4.4561   -1.3351 H   0  0  0  0  0  0  0  0  0  0  0  0
    6.8128   -2.7504   -1.6748 H   0  0  0  0  0  0  0  0  0  0  0  0
    8.0338   -3.5943   -2.6658 H   0  0  0  0  0  0  0  0  0  0  0  0
    6.4327   -6.3002   -3.0693 H   0  0  0  0  0  0  0  0  0  0  0  0
    7.2881   -5.3938   -4.3522 H   0  0  0  0  0  0  0  0  0  0  0  0
    5.5547   -5.7778   -4.5303 H   0  0  0  0  0  0  0  0  0  0  0  0
    4.2354   -1.7170   -3.5079 H   0  0  0  0  0  0  0  0  0  0  0  0
    2.4796   -1.9600   -3.5009 H   0  0  0  0  0  0  0  0  0  0  0  0
    3.5071   -2.8586   -4.6611 H   0  0  0  0  0  0  0  0  0  0  0  0
    0.0865   -3.8631   -3.5075 H   0  0  0  0  0  0  0  0  0  0  0  0
    0.9049   -6.2416   -2.4077 H   0  0  0  0  0  0  0  0  0  0  0  0
   -0.3914   -6.0868   -3.5991 H   0  0  0  0  0  0  0  0  0  0  0  0
   -2.1203   -5.9690   -1.8382 H   0  0  0  0  0  0  0  0  0  0  0  0
   -0.8551   -5.8538   -0.5646 H   0  0  0  0  0  0  0  0  0  0  0  0
   -1.8738   -8.4540    0.6193 H   0  0  0  0  0  0  0  0  0  0  0  0
   -3.6989   -8.8322   -2.5823 H   0  0  0  0  0  0  0  0  0  0  0  0
   -6.1997   -8.4690   -2.7562 H   0  0  0  0  0  0  0  0  0  0  0  0
   -9.0040   -7.0940    0.7476 H   0  0  0  0  0  0  0  0  0  0  0  0
   -6.7860   -7.0074    2.3690 H   0  0  0  0  0  0  0  0  0  0  0  0
   -3.9040   -7.6241    1.5799 H   0  0  0  0  0  0  0  0  0  0  0  0
  1  2  1  0
  1 30  1  0
  1 31  1  0
  1 32  1  0
  2  3  2  0
  2 10  1  0
  3  4  1  0
  4  5  1  0
  4  8  1  0
  5  6  1  0
  5  7  1  0
  5 33  1  6
  6 34  1  0
  6 35  1  0
  6 36  1  0
  7 37  1  0
  7 38  1  0
  7 39  1  0
  8  9  1  0
  8 10  2  0
  9 40  1  0
  9 41  1  0
  9 42  1  0
 10 11  1  0
 11 12  2  0
 11 13  2  0
 11 14  1  6
 14 15  1  0
 14 43  1  0
 15 16  1  0
 15 44  1  0
 15 45  1  0
 16 17  1  0
 16 46  1  0
 16 47  1  0
 17 18  2  0
 17 19  2  0
 17 20  1  1
 20 21  1  0
 20 48  1  0
 21 22  1  0
 21 29  2  0
 22 23  2  0
 22 49  1  0
 23 24  1  0
 23 50  1  0
 24 25  1  0
 24 28  1  0
 25 26  2  0
 26 27  1  0
 26 51  1  0
 27 28  2  0
 27 52  1  0
 28 29  1  0
 29 53  1  0
M  END

