
     RDKit          3D

 50 52  0  0  0  0  0  0  0  0999 V2000
    2.0690    1.4511    1.4265 C   0  0  0  0  0  0  0  0  0  0  0  0
    2.2775    0.3043    0.4261 C   0  0  0  0  0  0  0  0  0  0  0  0
    2.8236   -0.9593    0.9370 N   0  0  0  0  0  0  0  0  0  0  0  0
    2.1252   -1.5242    2.0964 C   0  0  0  0  0  0  0  0  0  0  0  0
    0.6683   -1.8776    1.7802 C   0  0  0  0  0  0  0  0  0  0  0  0
    0.5396   -2.6759    0.6233 O   0  0  0  0  0  0  0  0  0  0  0  0
    4.2332   -1.1691    0.8541 C   0  0  0  0  0  0  0  0  0  0  0  0
    5.1229   -0.0778    0.9388 C   0  0  0  0  0  0  0  0  0  0  0  0
    6.5029   -0.2368    0.8191 C   0  0  0  0  0  0  0  0  0  0  0  0
    7.0380   -1.5083    0.6155 C   0  0  0  0  0  0  0  0  0  0  0  0
    6.1717   -2.5973    0.5164 C   0  0  0  0  0  0  0  0  0  0  0  0
    4.7782   -2.4661    0.6277 C   0  0  0  0  0  0  0  0  0  0  0  0
    3.8931   -3.7009    0.4368 C   0  0  1  0  0  0  0  0  0  0  0  0
    4.3227   -4.5122   -0.7945 C   0  0  0  0  0  0  0  0  0  0  0  0
    4.9688   -5.7533   -0.7084 C   0  0  0  0  0  0  0  0  0  0  0  0
    5.3517   -6.4454   -1.8639 C   0  0  0  0  0  0  0  0  0  0  0  0
    5.0894   -5.9108   -3.1265 C   0  0  0  0  0  0  0  0  0  0  0  0
    4.4403   -4.6749   -3.2263 C   0  0  0  0  0  0  0  0  0  0  0  0
    4.0636   -3.9867   -2.0725 C   0  0  0  0  0  0  0  0  0  0  0  0
    3.7207   -4.5721    1.6867 C   0  0  0  0  0  0  0  0  0  0  0  0
    4.7061   -4.7021    2.6768 C   0  0  0  0  0  0  0  0  0  0  0  0
    4.5100   -5.5419    3.7799 C   0  0  0  0  0  0  0  0  0  0  0  0
    3.3229   -6.2650    3.9138 C   0  0  0  0  0  0  0  0  0  0  0  0
    2.3281   -6.1368    2.9382 C   0  0  0  0  0  0  0  0  0  0  0  0
    2.5254   -5.2989    1.8391 C   0  0  0  0  0  0  0  0  0  0  0  0
    1.7025    2.3418    0.8911 H   0  0  0  0  0  0  0  0  0  0  0  0
    2.9941    1.7316    1.9524 H   0  0  0  0  0  0  0  0  0  0  0  0
    1.3176    1.2011    2.1911 H   0  0  0  0  0  0  0  0  0  0  0  0
    2.9336    0.6356   -0.3920 H   0  0  0  0  0  0  0  0  0  0  0  0
    1.3006    0.0931   -0.0475 H   0  0  0  0  0  0  0  0  0  0  0  0
    2.1459   -0.8377    2.9681 H   0  0  0  0  0  0  0  0  0  0  0  0
    2.6555   -2.4308    2.4099 H   0  0  0  0  0  0  0  0  0  0  0  0
    0.0568   -0.9562    1.6919 H   0  0  0  0  0  0  0  0  0  0  0  0
    0.2531   -2.4505    2.6248 H   0  0  0  0  0  0  0  0  0  0  0  0
    1.1153   -2.2785   -0.0471 H   0  0  0  0  0  0  0  0  0  0  0  0
    4.7270    0.9221    1.1124 H   0  0  0  0  0  0  0  0  0  0  0  0
    7.1559    0.6370    0.8924 H   0  0  0  0  0  0  0  0  0  0  0  0
    8.1166   -1.6528    0.5177 H   0  0  0  0  0  0  0  0  0  0  0  0
    6.5850   -3.5865    0.3066 H   0  0  0  0  0  0  0  0  0  0  0  0
    2.8900   -3.3232    0.2031 H   0  0  0  0  0  0  0  0  0  0  0  0
    5.1702   -6.1918    0.2710 H   0  0  0  0  0  0  0  0  0  0  0  0
    5.8543   -7.4119   -1.7716 H   0  0  0  0  0  0  0  0  0  0  0  0
    5.3843   -6.4533   -4.0284 H   0  0  0  0  0  0  0  0  0  0  0  0
    4.2245   -4.2468   -4.2090 H   0  0  0  0  0  0  0  0  0  0  0  0
    3.5627   -3.0181   -2.1614 H   0  0  0  0  0  0  0  0  0  0  0  0
    5.6359   -4.1363    2.5948 H   0  0  0  0  0  0  0  0  0  0  0  0
    5.2920   -5.6261    4.5395 H   0  0  0  0  0  0  0  0  0  0  0  0
    3.1691   -6.9187    4.7763 H   0  0  0  0  0  0  0  0  0  0  0  0
    1.3891   -6.6882    3.0366 H   0  0  0  0  0  0  0  0  0  0  0  0
    1.7329   -5.1822    1.0955 H   0  0  0  0  0  0  0  0  0  0  0  0
  1  2  1  0
  1 26  1  0
  1 27  1  0
  1 28  1  0
  2  3  1  0
  2 29  1  0
  2 30  1  0
  3  4  1  0
  3  7  1  0
  4  5  1  0
  4 31  1  0
  4 32  1  0
  5  6  1  0
  5 33  1  0
  5 34  1  0
  6 35  1  0
  7  8  2  0
  7 12  1  0
  8  9  1  0
  8 36  1  0
  9 10  2  0
  9 37  1  0
 10 11  1  0
 10 38  1  0
 11 12  2  0
 11 39  1  0
 12 13  1  0
 13 14  1  0
 13 20  1  0
 13 40  1  6
 14 15  2  0
 14 19  1  0
 15 16  1  0
 15 41  1  0
 16 17  2  0
 16 42  1  0
 17 18  1  0
 17 43  1  0
 18 19  2  0
 18 44  1  0
 19 45  1  0
 20 21  2  0
 20 25  1  0
 21 22  1  0
 21 46  1  0
 22 23  2  0
 22 47  1  0
 23 24  1  0
 23 48  1  0
 24 25  2  0
 24 49  1  0
 25 50  1  0
M  END

