
     RDKit          3D

 45 48  0  0  0  0  0  0  0  0999 V2000
    1.5892   -1.3974    1.4109 C   0  0  0  0  0  0  0  0  0  0  0  0
    1.6002    0.0318    1.2468 N   0  0  0  0  0  0  0  0  0  0  0  0
    2.5469    0.9068    1.7452 C   0  0  0  0  0  0  0  0  0  0  0  0
    3.6473    0.4264    2.4865 C   0  0  0  0  0  0  0  0  0  0  0  0
    4.6129    1.3588    2.9860 C   0  0  0  0  0  0  0  0  0  0  0  0
    4.4131    2.7376    2.7270 C   0  0  0  0  0  0  0  0  0  0  0  0
    5.2630    3.6941    3.1656 O   0  0  0  0  0  0  0  0  0  0  0  0
    6.4156    3.3638    3.9302 C   0  0  0  0  0  0  0  0  0  0  0  0
    7.1178    4.6648    4.3096 C   0  0  1  0  0  0  0  0  0  0  0  0
    6.2713    5.5994    5.2118 C   0  0  1  0  0  0  0  0  0  0  0  0
    6.0994    4.9923    6.6200 C   0  0  0  0  0  0  0  0  0  0  0  0
    7.4810    4.7806    7.2719 C   0  0  2  0  0  0  0  0  0  0  0  0
    8.2043    6.1373    7.3870 C   0  0  0  0  0  0  0  0  0  0  0  0
    8.3824    6.7495    5.9829 C   0  0  2  0  0  0  0  0  0  0  0  0
    6.9980    6.9543    5.3353 C   0  0  0  0  0  0  0  0  0  0  0  0
    9.2173    5.7898    5.1113 C   0  0  0  0  0  0  0  0  0  0  0  0
    8.4930    4.4331    4.9855 C   0  0  1  0  0  0  0  0  0  0  0  0
    8.3192    3.8276    6.3954 C   0  0  0  0  0  0  0  0  0  0  0  0
    3.3061    3.2233    1.9870 C   0  0  0  0  0  0  0  0  0  0  0  0
    2.3522    2.2910    1.4762 C   0  0  0  0  0  0  0  0  0  0  0  0
    0.7772   -1.8287    0.8102 H   0  0  0  0  0  0  0  0  0  0  0  0
    1.4366   -1.6876    2.4672 H   0  0  0  0  0  0  0  0  0  0  0  0
    2.5446   -1.8375    1.0808 H   0  0  0  0  0  0  0  0  0  0  0  0
    0.8023    0.4578    0.7885 H   0  0  0  0  0  0  0  0  0  0  0  0
    3.7526   -0.6343    2.7125 H   0  0  0  0  0  0  0  0  0  0  0  0
    5.4766    1.0006    3.5413 H   0  0  0  0  0  0  0  0  0  0  0  0
    7.0912    2.7308    3.3259 H   0  0  0  0  0  0  0  0  0  0  0  0
    6.1127    2.7756    4.8126 H   0  0  0  0  0  0  0  0  0  0  0  0
    7.2946    5.1923    3.3549 H   0  0  0  0  0  0  0  0  0  0  0  0
    5.2849    5.7452    4.7440 H   0  0  0  0  0  0  0  0  0  0  0  0
    5.5477    4.0383    6.5738 H   0  0  0  0  0  0  0  0  0  0  0  0
    5.4881    5.6700    7.2408 H   0  0  0  0  0  0  0  0  0  0  0  0
    7.3544    4.3423    8.2769 H   0  0  0  0  0  0  0  0  0  0  0  0
    9.1879    6.0041    7.8707 H   0  0  0  0  0  0  0  0  0  0  0  0
    7.6240    6.8227    8.0291 H   0  0  0  0  0  0  0  0  0  0  0  0
    8.9015    7.7201    6.0643 H   0  0  0  0  0  0  0  0  0  0  0  0
    7.1081    7.4166    4.3391 H   0  0  0  0  0  0  0  0  0  0  0  0
    6.3950    7.6505    5.9439 H   0  0  0  0  0  0  0  0  0  0  0  0
   10.2156    5.6423    5.5589 H   0  0  0  0  0  0  0  0  0  0  0  0
    9.3779    6.2264    4.1106 H   0  0  0  0  0  0  0  0  0  0  0  0
    9.0981    3.7519    4.3612 H   0  0  0  0  0  0  0  0  0  0  0  0
    9.3112    3.6667    6.8525 H   0  0  0  0  0  0  0  0  0  0  0  0
    7.8391    2.8358    6.3437 H   0  0  0  0  0  0  0  0  0  0  0  0
    3.2119    4.2972    1.8297 H   0  0  0  0  0  0  0  0  0  0  0  0
    1.5160    2.6185    0.8546 H   0  0  0  0  0  0  0  0  0  0  0  0
  1  2  1  0
  1 21  1  0
  1 22  1  0
  1 23  1  0
  2  3  1  0
  2 24  1  0
  3  4  2  0
  3 20  1  0
  4  5  1  0
  4 25  1  0
  5  6  2  0
  5 26  1  0
  6  7  1  0
  6 19  1  0
  7  8  1  0
  8  9  1  0
  8 27  1  0
  8 28  1  0
  9 10  1  0
  9 17  1  0
  9 29  1  6
 10 11  1  0
 10 15  1  0
 10 30  1  6
 11 12  1  0
 11 31  1  0
 11 32  1  0
 12 13  1  0
 12 18  1  0
 12 33  1  1
 13 14  1  0
 13 34  1  0
 13 35  1  0
 14 15  1  0
 14 16  1  0
 14 36  1  1
 15 37  1  0
 15 38  1  0
 16 17  1  0
 16 39  1  0
 16 40  1  0
 17 18  1  0
 17 41  1  6
 18 42  1  0
 18 43  1  0
 19 20  2  0
 19 44  1  0
 20 45  1  0
M  END

