
     RDKit          3D

 33 33  0  0  0  0  0  0  0  0999 V2000
    0.6954   -0.1571    1.3248 C   0  0  0  0  0  0  0  0  0  0  0  0
    2.1627    0.2007    1.2008 C   0  0  0  0  0  0  0  0  0  0  0  0
    2.9134   -1.0116    1.1645 O   0  0  0  0  0  0  0  0  0  0  0  0
    4.2562   -1.0115    1.0610 C   0  0  0  0  0  0  0  0  0  0  0  0
    5.0201    0.1857    0.9847 C   0  0  0  0  0  0  0  0  0  0  0  0
    6.4403    0.0857    0.8775 C   0  0  0  0  0  0  0  0  0  0  0  0
    7.0291   -1.2089    0.8543 C   0  0  0  0  0  0  0  0  0  0  0  0
    8.3637   -1.3983    0.7646 O   0  0  0  0  0  0  0  0  0  0  0  0
    9.2595   -0.3039    0.6891 C   0  0  0  0  0  0  0  0  0  0  0  0
   10.6710   -0.8499    0.5701 C   0  0  0  0  0  0  0  0  0  0  0  0
   11.0117   -1.7838   -0.9760 S   0  0  0  0  0  0  0  0  0  0  0  0
   11.2530   -0.4110   -2.1581 C   0  0  0  0  0  0  0  0  0  0  0  0
   12.5487    0.3997   -1.9937 C   0  0  0  0  0  0  0  0  0  0  0  0
   12.6670    1.4985   -2.4624 O   0  0  0  0  0  0  0  0  0  0  0  0
   13.5367   -0.2090   -1.3245 O   0  0  0  0  0  0  0  0  0  0  0  0
    6.2658   -2.4053    0.9295 C   0  0  0  0  0  0  0  0  0  0  0  0
    4.8481   -2.3057    1.0346 C   0  0  0  0  0  0  0  0  0  0  0  0
    0.0864    0.7595    1.3566 H   0  0  0  0  0  0  0  0  0  0  0  0
    0.5090   -0.7306    2.2455 H   0  0  0  0  0  0  0  0  0  0  0  0
    0.3665   -0.7637    0.4674 H   0  0  0  0  0  0  0  0  0  0  0  0
    2.5011    0.8110    2.0565 H   0  0  0  0  0  0  0  0  0  0  0  0
    2.3597    0.7762    0.2793 H   0  0  0  0  0  0  0  0  0  0  0  0
    4.5468    1.1649    1.0081 H   0  0  0  0  0  0  0  0  0  0  0  0
    7.0436    0.9896    0.8278 H   0  0  0  0  0  0  0  0  0  0  0  0
    9.1794    0.3108    1.6048 H   0  0  0  0  0  0  0  0  0  0  0  0
    9.0000    0.3408   -0.1688 H   0  0  0  0  0  0  0  0  0  0  0  0
   10.8563   -1.5691    1.3824 H   0  0  0  0  0  0  0  0  0  0  0  0
   11.4036   -0.0346    0.6733 H   0  0  0  0  0  0  0  0  0  0  0  0
   10.4072    0.2913   -2.1606 H   0  0  0  0  0  0  0  0  0  0  0  0
   11.2727   -0.8818   -3.1548 H   0  0  0  0  0  0  0  0  0  0  0  0
   13.2079   -1.0818   -1.0226 H   0  0  0  0  0  0  0  0  0  0  0  0
    6.7855   -3.3620    0.8986 H   0  0  0  0  0  0  0  0  0  0  0  0
    4.2019   -3.1803    1.0949 H   0  0  0  0  0  0  0  0  0  0  0  0
  1  2  1  0
  1 18  1  0
  1 19  1  0
  1 20  1  0
  2  3  1  0
  2 21  1  0
  2 22  1  0
  3  4  1  0
  4  5  2  0
  4 17  1  0
  5  6  1  0
  5 23  1  0
  6  7  2  0
  6 24  1  0
  7  8  1  0
  7 16  1  0
  8  9  1  0
  9 10  1  0
  9 25  1  0
  9 26  1  0
 10 11  1  0
 10 27  1  0
 10 28  1  0
 11 12  1  0
 12 13  1  0
 12 29  1  0
 12 30  1  0
 13 14  2  0
 13 15  1  0
 15 31  1  0
 16 17  2  0
 16 32  1  0
 17 33  1  0
M  END

