
     RDKit          3D

 67 69  0  0  0  0  0  0  0  0999 V2000
    3.7138   -3.3047   -6.0815 C   0  0  0  0  0  0  0  0  0  0  0  0
    4.2439   -2.0136   -5.5271 C   0  0  0  0  0  0  0  0  0  0  0  0
    3.6077   -1.2455   -4.6333 C   0  0  0  0  0  0  0  0  0  0  0  0
    4.0486    0.0749   -4.0496 C   0  0  0  0  0  0  0  0  0  0  0  0
    5.4882    0.5410   -4.3404 C   0  0  1  0  0  0  0  0  0  0  0  0
    5.6886    2.0379   -4.0248 C   0  0  0  0  0  0  0  0  0  0  0  0
    5.6939    2.3386   -2.5212 C   0  0  0  0  0  0  0  0  0  0  0  0
    6.7959    1.5410   -1.7615 C   0  0  2  0  0  0  0  0  0  0  0  0
    8.1799    2.1293   -1.9428 C   0  0  0  0  0  0  0  0  0  0  0  0
    8.4192    3.4735   -1.5191 C   0  0  0  0  0  0  0  0  0  0  0  0
    9.6512    4.0749   -1.6278 C   0  0  0  0  0  0  0  0  0  0  0  0
   10.7943    3.3775   -2.1864 C   0  0  0  0  0  0  0  0  0  0  0  0
   12.0671    3.9990   -2.3373 C   0  0  0  0  0  0  0  0  0  0  0  0
   12.3080    5.3795   -1.9517 C   0  0  0  0  0  0  0  0  0  0  0  0
   13.5411    5.9738   -2.1093 C   0  0  0  0  0  0  0  0  0  0  0  0
   14.6400    5.2601   -2.6559 C   0  0  0  0  0  0  0  0  0  0  0  0
   15.9696    5.9138   -2.8780 C   0  0  0  0  0  0  0  0  0  0  0  0
   16.1014    7.0797   -2.1107 O   0  0  0  0  0  0  0  0  0  0  0  0
   17.2878    7.8062   -2.3400 C   0  0  0  0  0  0  0  0  0  0  0  0
   17.2825    9.0488   -1.4627 C   0  0  0  0  0  0  0  0  0  0  0  0
   18.5337    9.9157   -1.6231 C   0  0  0  0  0  0  0  0  0  0  0  0
   18.5231   11.1691   -0.7420 C   0  0  0  0  0  0  0  0  0  0  0  0
   19.7712   12.0385   -0.8994 C   0  0  0  0  0  0  0  0  0  0  0  0
   14.4354    3.9064   -3.0353 C   0  0  0  0  0  0  0  0  0  0  0  0
   13.2106    3.2925   -2.8893 C   0  0  0  0  0  0  0  0  0  0  0  0
   10.5488    1.9978   -2.5728 C   0  0  0  0  0  0  0  0  0  0  0  0
    9.3027    1.4180   -2.4500 C   0  0  0  0  0  0  0  0  0  0  0  0
    6.6450    0.0409   -2.0901 C   0  0  0  0  0  0  0  0  0  0  0  0
    6.5630   -0.2800   -3.5939 C   0  0  0  0  0  0  0  0  0  0  0  0
    4.3967   -4.1460   -5.8667 H   0  0  0  0  0  0  0  0  0  0  0  0
    3.6158   -3.2593   -7.1808 H   0  0  0  0  0  0  0  0  0  0  0  0
    2.7261   -3.5537   -5.6627 H   0  0  0  0  0  0  0  0  0  0  0  0
    5.2267   -1.7041   -5.9030 H   0  0  0  0  0  0  0  0  0  0  0  0
    2.6239   -1.5872   -4.2814 H   0  0  0  0  0  0  0  0  0  0  0  0
    3.8693    0.0417   -2.9597 H   0  0  0  0  0  0  0  0  0  0  0  0
    3.3469    0.8505   -4.4149 H   0  0  0  0  0  0  0  0  0  0  0  0
    5.6568    0.4144   -5.4239 H   0  0  0  0  0  0  0  0  0  0  0  0
    4.9057    2.6364   -4.5220 H   0  0  0  0  0  0  0  0  0  0  0  0
    6.6513    2.3664   -4.4546 H   0  0  0  0  0  0  0  0  0  0  0  0
    4.7157    2.0772   -2.0808 H   0  0  0  0  0  0  0  0  0  0  0  0
    5.8222    3.4196   -2.3552 H   0  0  0  0  0  0  0  0  0  0  0  0
    6.5613    1.6639   -0.6831 H   0  0  0  0  0  0  0  0  0  0  0  0
    7.5957    4.0426   -1.0782 H   0  0  0  0  0  0  0  0  0  0  0  0
    9.7653    5.1003   -1.2753 H   0  0  0  0  0  0  0  0  0  0  0  0
   11.4952    5.9691   -1.5272 H   0  0  0  0  0  0  0  0  0  0  0  0
   13.6949    7.0107   -1.8066 H   0  0  0  0  0  0  0  0  0  0  0  0
   16.0953    6.1585   -3.9632 H   0  0  0  0  0  0  0  0  0  0  0  0
   16.7881    5.1919   -2.6508 H   0  0  0  0  0  0  0  0  0  0  0  0
   17.3663    8.0883   -3.4119 H   0  0  0  0  0  0  0  0  0  0  0  0
   18.1749    7.1768   -2.1126 H   0  0  0  0  0  0  0  0  0  0  0  0
   17.1729    8.7299   -0.4115 H   0  0  0  0  0  0  0  0  0  0  0  0
   16.3801    9.6382   -1.7018 H   0  0  0  0  0  0  0  0  0  0  0  0
   18.6419   10.2181   -2.6816 H   0  0  0  0  0  0  0  0  0  0  0  0
   19.4330    9.3156   -1.3891 H   0  0  0  0  0  0  0  0  0  0  0  0
   18.4136   10.8663    0.3151 H   0  0  0  0  0  0  0  0  0  0  0  0
   17.6237   11.7670   -0.9761 H   0  0  0  0  0  0  0  0  0  0  0  0
   20.6853   11.4807   -0.6347 H   0  0  0  0  0  0  0  0  0  0  0  0
   19.7276   12.9297   -0.2531 H   0  0  0  0  0  0  0  0  0  0  0  0
   19.8889   12.3877   -1.9391 H   0  0  0  0  0  0  0  0  0  0  0  0
   15.2727    3.3357   -3.4499 H   0  0  0  0  0  0  0  0  0  0  0  0
   13.1065    2.2504   -3.1918 H   0  0  0  0  0  0  0  0  0  0  0  0
   11.3662    1.3951   -2.9686 H   0  0  0  0  0  0  0  0  0  0  0  0
    9.1902    0.3753   -2.7501 H   0  0  0  0  0  0  0  0  0  0  0  0
    5.7227   -0.3139   -1.5990 H   0  0  0  0  0  0  0  0  0  0  0  0
    7.4616   -0.5370   -1.6272 H   0  0  0  0  0  0  0  0  0  0  0  0
    6.3766   -1.3581   -3.7223 H   0  0  0  0  0  0  0  0  0  0  0  0
    7.5367   -0.0777   -4.0702 H   0  0  0  0  0  0  0  0  0  0  0  0
  1  2  1  0
  1 30  1  0
  1 31  1  0
  1 32  1  0
  2  3  2  0
  2 33  1  0
  3  4  1  0
  3 34  1  0
  4  5  1  0
  4 35  1  0
  4 36  1  0
  5  6  1  0
  5 29  1  0
  5 37  1  6
  6  7  1  0
  6 38  1  0
  6 39  1  0
  7  8  1  0
  7 40  1  0
  7 41  1  0
  8  9  1  0
  8 28  1  0
  8 42  1  1
  9 10  2  0
  9 27  1  0
 10 11  1  0
 10 43  1  0
 11 12  2  0
 11 44  1  0
 12 13  1  0
 12 26  1  0
 13 14  2  0
 13 25  1  0
 14 15  1  0
 14 45  1  0
 15 16  2  0
 15 46  1  0
 16 17  1  0
 16 24  1  0
 17 18  1  0
 17 47  1  0
 17 48  1  0
 18 19  1  0
 19 20  1  0
 19 49  1  0
 19 50  1  0
 20 21  1  0
 20 51  1  0
 20 52  1  0
 21 22  1  0
 21 53  1  0
 21 54  1  0
 22 23  1  0
 22 55  1  0
 22 56  1  0
 23 57  1  0
 23 58  1  0
 23 59  1  0
 24 25  2  0
 24 60  1  0
 25 61  1  0
 26 27  2  0
 26 62  1  0
 27 63  1  0
 28 29  1  0
 28 64  1  0
 28 65  1  0
 29 66  1  0
 29 67  1  0
M  END

