
     RDKit          3D

 45 48  0  0  0  0  0  0  0  0999 V2000
    1.3976    1.3784    0.1837 Br  0  0  0  0  0  0  0  0  0  0  0  0
    3.2442    0.9669   -0.1068 C   0  0  0  0  0  0  0  0  0  0  0  0
    3.6367   -0.3707   -0.0528 C   0  0  0  0  0  0  0  0  0  0  0  0
    4.8941   -0.7630   -0.2423 N   0  0  0  0  0  0  0  0  0  0  0  0
    5.8225    0.1621   -0.4961 C   0  0  0  0  0  0  0  0  0  0  0  0
    7.1162   -0.2697   -0.6898 N   0  0  0  0  0  0  0  0  0  0  0  0
    7.6098   -1.5612   -0.6599 C   0  0  0  0  0  0  0  0  0  0  0  0
    8.8797   -1.7804   -0.8607 N   0  0  0  0  0  0  0  0  0  0  0  0
    9.1762   -3.1243   -0.7903 C   0  0  0  0  0  0  0  0  0  0  0  0
   10.5974   -3.5693   -0.9981 C   0  0  0  0  0  0  0  0  0  0  0  0
   11.1533   -3.1902   -2.3895 C   0  0  0  0  0  0  0  0  0  0  0  0
   12.6047   -3.5735   -2.5732 C   0  0  0  0  0  0  0  0  0  0  0  0
   12.9626   -4.8159   -3.1215 C   0  0  0  0  0  0  0  0  0  0  0  0
   14.3040   -5.1849   -3.2574 C   0  0  0  0  0  0  0  0  0  0  0  0
   15.3168   -4.3143   -2.8444 C   0  0  0  0  0  0  0  0  0  0  0  0
   14.9765   -3.0731   -2.2978 C   0  0  0  0  0  0  0  0  0  0  0  0
   13.6339   -2.7089   -2.1649 C   0  0  0  0  0  0  0  0  0  0  0  0
    8.1012   -3.9336   -0.5349 C   0  0  0  0  0  0  0  0  0  0  0  0
    6.6415   -2.9938   -0.3627 S   0  0  0  0  0  0  0  0  0  0  0  0
    5.5146    1.5381   -0.5640 C   0  0  0  0  0  0  0  0  0  0  0  0
    4.2043    1.9681   -0.3671 C   0  0  0  0  0  0  0  0  0  0  0  0
    3.8714    3.4475   -0.4607 C   0  0  0  0  0  0  0  0  0  0  0  0
    3.5248    3.9073   -1.8510 C   0  0  0  0  0  0  0  0  0  0  0  0
    4.2079    4.7287   -2.7376 C   0  0  0  0  0  0  0  0  0  0  0  0
    3.3826    4.7802   -3.8885 C   0  0  0  0  0  0  0  0  0  0  0  0
    2.2815    4.0522   -3.7346 N   0  0  0  0  0  0  0  0  0  0  0  0
    2.3866    3.5358   -2.5024 N   0  0  0  0  0  0  0  0  0  0  0  0
    1.6545    2.9311   -2.1434 H   0  0  0  0  0  0  0  0  0  0  0  0
    2.8986   -1.1526    0.1537 H   0  0  0  0  0  0  0  0  0  0  0  0
    7.8329    0.4208   -0.8856 H   0  0  0  0  0  0  0  0  0  0  0  0
   10.6690   -4.6580   -0.8491 H   0  0  0  0  0  0  0  0  0  0  0  0
   11.2334   -3.1017   -0.2261 H   0  0  0  0  0  0  0  0  0  0  0  0
   11.0289   -2.1038   -2.5209 H   0  0  0  0  0  0  0  0  0  0  0  0
   10.5360   -3.6759   -3.1632 H   0  0  0  0  0  0  0  0  0  0  0  0
   12.1772   -5.5020   -3.4531 H   0  0  0  0  0  0  0  0  0  0  0  0
   14.5593   -6.1554   -3.6914 H   0  0  0  0  0  0  0  0  0  0  0  0
   16.3665   -4.5997   -2.9521 H   0  0  0  0  0  0  0  0  0  0  0  0
   15.7611   -2.3823   -1.9772 H   0  0  0  0  0  0  0  0  0  0  0  0
   13.3772   -1.7328   -1.7421 H   0  0  0  0  0  0  0  0  0  0  0  0
    8.0827   -5.0172   -0.4326 H   0  0  0  0  0  0  0  0  0  0  0  0
    6.3002    2.2685   -0.7745 H   0  0  0  0  0  0  0  0  0  0  0  0
    4.7424    4.0274   -0.1256 H   0  0  0  0  0  0  0  0  0  0  0  0
    3.0456    3.6781    0.2307 H   0  0  0  0  0  0  0  0  0  0  0  0
    5.1615    5.2240   -2.5684 H   0  0  0  0  0  0  0  0  0  0  0  0
    3.5506    5.3221   -4.8191 H   0  0  0  0  0  0  0  0  0  0  0  0
  1  2  1  0
  2  3  2  0
  2 21  1  0
  3  4  1  0
  3 29  1  0
  4  5  2  0
  5  6  1  0
  5 20  1  0
  6  7  1  0
  6 30  1  0
  7  8  2  0
  7 19  1  0
  8  9  1  0
  9 10  1  0
  9 18  2  0
 10 11  1  0
 10 31  1  0
 10 32  1  0
 11 12  1  0
 11 33  1  0
 11 34  1  0
 12 13  2  0
 12 17  1  0
 13 14  1  0
 13 35  1  0
 14 15  2  0
 14 36  1  0
 15 16  1  0
 15 37  1  0
 16 17  2  0
 16 38  1  0
 17 39  1  0
 18 19  1  0
 18 40  1  0
 20 21  2  0
 20 41  1  0
 21 22  1  0
 22 23  1  0
 22 42  1  0
 22 43  1  0
 23 24  2  0
 23 27  1  0
 24 25  1  0
 24 44  1  0
 25 26  2  0
 25 45  1  0
 26 27  1  0
 27 28  1  0
M  END

