
     RDKit          3D

 44 45  0  0  0  0  0  0  0  0999 V2000
   13.9213   -2.9325   -9.7659 C   0  0  0  0  0  0  0  0  0  0  0  0
   13.0715   -2.4218   -8.8731 C   0  0  0  0  0  0  0  0  0  0  0  0
   11.7349   -3.0163   -8.5536 C   0  0  0  0  0  0  0  0  0  0  0  0
   11.6490   -3.1942   -7.1326 O   0  0  0  0  0  0  0  0  0  0  0  0
   10.5406   -3.6776   -6.5662 C   0  0  0  0  0  0  0  0  0  0  0  0
   10.5636   -3.7695   -5.1491 C   0  0  0  0  0  0  0  0  0  0  0  0
    9.4678   -4.2525   -4.4682 C   0  0  0  0  0  0  0  0  0  0  0  0
    8.3252   -4.7153   -5.1761 C   0  0  0  0  0  0  0  0  0  0  0  0
    7.1059   -5.1758   -4.4348 C   0  0  0  0  0  0  0  0  0  0  0  0
    6.5122   -4.0516   -4.3042 O   0  0  0  0  0  0  0  0  0  0  0  0
    6.7732   -6.4508   -4.0262 C   0  0  0  0  0  0  0  0  0  0  0  0
    7.5633   -7.6006   -4.2650 C   0  0  0  0  0  0  0  0  0  0  0  0
    7.2718   -8.9385   -3.8738 C   0  0  0  0  0  0  0  0  0  0  0  0
    8.1715   -9.9897   -4.1911 C   0  0  0  0  0  0  0  0  0  0  0  0
    7.9160  -11.3088   -3.8205 C   0  0  0  0  0  0  0  0  0  0  0  0
    6.7543  -11.6488   -3.1165 C   0  0  0  0  0  0  0  0  0  0  0  0
    6.4198  -12.9035   -2.7121 O   0  0  0  0  0  0  0  0  0  0  0  0
    7.2942  -13.9627   -3.0029 C   0  0  0  0  0  0  0  0  0  0  0  0
    5.8301  -10.6146   -2.7835 C   0  0  0  0  0  0  0  0  0  0  0  0
    4.7274  -11.0228   -2.1014 O   0  0  0  0  0  0  0  0  0  0  0  0
    3.7621  -10.0688   -1.7366 C   0  0  0  0  0  0  0  0  0  0  0  0
    6.0886   -9.3028   -3.1542 C   0  0  0  0  0  0  0  0  0  0  0  0
    8.2907   -4.5647   -6.5858 C   0  0  0  0  0  0  0  0  0  0  0  0
    9.3863   -4.0801   -7.2805 C   0  0  0  0  0  0  0  0  0  0  0  0
   14.8709   -2.4414   -9.9935 H   0  0  0  0  0  0  0  0  0  0  0  0
   13.7003   -3.8574  -10.3091 H   0  0  0  0  0  0  0  0  0  0  0  0
   13.3171   -1.4981   -8.3366 H   0  0  0  0  0  0  0  0  0  0  0  0
   11.5984   -3.9853   -9.0633 H   0  0  0  0  0  0  0  0  0  0  0  0
   10.9218   -2.3388   -8.8744 H   0  0  0  0  0  0  0  0  0  0  0  0
   11.4673   -3.4459   -4.6299 H   0  0  0  0  0  0  0  0  0  0  0  0
    9.4768   -4.3154   -3.3790 H   0  0  0  0  0  0  0  0  0  0  0  0
    5.8257   -6.5319   -3.4885 H   0  0  0  0  0  0  0  0  0  0  0  0
    8.5038   -7.4647   -4.8077 H   0  0  0  0  0  0  0  0  0  0  0  0
    9.0881   -9.7579   -4.7396 H   0  0  0  0  0  0  0  0  0  0  0  0
    8.6373  -12.0825   -4.0860 H   0  0  0  0  0  0  0  0  0  0  0  0
    6.8386  -14.8719   -2.5866 H   0  0  0  0  0  0  0  0  0  0  0  0
    8.2892  -13.8192   -2.5409 H   0  0  0  0  0  0  0  0  0  0  0  0
    7.4329  -14.1009   -4.0919 H   0  0  0  0  0  0  0  0  0  0  0  0
    2.9696  -10.6115   -1.2029 H   0  0  0  0  0  0  0  0  0  0  0  0
    3.3206   -9.5675   -2.6180 H   0  0  0  0  0  0  0  0  0  0  0  0
    4.1775   -9.2932   -1.0666 H   0  0  0  0  0  0  0  0  0  0  0  0
    5.3741   -8.5253   -2.8913 H   0  0  0  0  0  0  0  0  0  0  0  0
    7.3901   -4.8630   -7.1250 H   0  0  0  0  0  0  0  0  0  0  0  0
    9.3475   -4.0104   -8.3671 H   0  0  0  0  0  0  0  0  0  0  0  0
  1  2  2  0
  1 25  1  0
  1 26  1  0
  2  3  1  0
  2 27  1  0
  3  4  1  0
  3 28  1  0
  3 29  1  0
  4  5  1  0
  5  6  2  0
  5 24  1  0
  6  7  1  0
  6 30  1  0
  7  8  2  0
  7 31  1  0
  8  9  1  0
  8 23  1  0
  9 10  2  0
  9 11  1  0
 11 12  2  0
 11 32  1  0
 12 13  1  0
 12 33  1  0
 13 14  2  0
 13 22  1  0
 14 15  1  0
 14 34  1  0
 15 16  2  0
 15 35  1  0
 16 17  1  0
 16 19  1  0
 17 18  1  0
 18 36  1  0
 18 37  1  0
 18 38  1  0
 19 20  1  0
 19 22  2  0
 20 21  1  0
 21 39  1  0
 21 40  1  0
 21 41  1  0
 22 42  1  0
 23 24  2  0
 23 43  1  0
 24 44  1  0
M  END

