
     RDKit          3D

 33 33  0  0  0  0  0  0  0  0999 V2000
    0.5909   -0.3590    0.3821 O   0  0  0  0  0  0  0  0  0  0  0  0
    2.0123   -0.1205    0.1210 S   0  0  1  0  0  0  0  0  0  0  0  0
    2.5158    1.2132   -0.2301 O   0  0  0  0  0  0  0  0  0  0  0  0
    2.9123   -0.6978    1.5843 C   0  0  0  0  0  0  0  0  0  0  0  0
    4.4279   -0.5105    1.4825 C   0  0  0  0  0  0  0  0  0  0  0  0
    5.1362   -0.9599    2.7412 C   0  0  0  0  0  0  0  0  0  0  0  0
    5.5190   -2.2956    2.9294 C   0  0  0  0  0  0  0  0  0  0  0  0
    6.1448   -2.6669    4.1229 C   0  0  0  0  0  0  0  0  0  0  0  0
    6.4067   -1.8137    5.1160 N   0  0  0  0  0  0  0  0  0  0  0  0
    6.0447   -0.5406    4.9405 C   0  0  0  0  0  0  0  0  0  0  0  0
    5.4138   -0.0675    3.7857 C   0  0  0  0  0  0  0  0  0  0  0  0
    2.5525   -1.1799   -1.0829 N   0  0  0  0  0  0  0  0  0  0  0  0
    2.8799   -0.6146   -2.3949 C   0  0  0  0  0  0  0  0  0  0  0  0
    3.3652   -1.7409   -3.2961 C   0  0  1  0  0  0  0  0  0  0  0  0
    2.3517   -2.7241   -3.3408 O   0  0  0  0  0  0  0  0  0  0  0  0
    3.6816   -1.2726   -4.7176 C   0  0  0  0  0  0  0  0  0  0  0  0
    3.9190   -2.3935   -5.5548 O   0  0  0  0  0  0  0  0  0  0  0  0
    2.6178   -1.7485    1.7255 H   0  0  0  0  0  0  0  0  0  0  0  0
    2.4730   -0.1087    2.4043 H   0  0  0  0  0  0  0  0  0  0  0  0
    4.6344    0.5521    1.2852 H   0  0  0  0  0  0  0  0  0  0  0  0
    4.7949   -1.0854    0.6180 H   0  0  0  0  0  0  0  0  0  0  0  0
    5.3386   -3.0433    2.1518 H   0  0  0  0  0  0  0  0  0  0  0  0
    6.4510   -3.7085    4.2786 H   0  0  0  0  0  0  0  0  0  0  0  0
    6.2695    0.1502    5.7621 H   0  0  0  0  0  0  0  0  0  0  0  0
    5.1481    0.9900    3.7016 H   0  0  0  0  0  0  0  0  0  0  0  0
    1.8931   -1.9560   -1.1730 H   0  0  0  0  0  0  0  0  0  0  0  0
    3.6618    0.1479   -2.2701 H   0  0  0  0  0  0  0  0  0  0  0  0
    2.0069   -0.1287   -2.8687 H   0  0  0  0  0  0  0  0  0  0  0  0
    4.2928   -2.1661   -2.8505 H   0  0  0  0  0  0  0  0  0  0  0  0
    2.5308   -3.2593   -4.1307 H   0  0  0  0  0  0  0  0  0  0  0  0
    4.5285   -0.5610   -4.7200 H   0  0  0  0  0  0  0  0  0  0  0  0
    2.8035   -0.7570   -5.1383 H   0  0  0  0  0  0  0  0  0  0  0  0
    4.7992   -2.7427   -5.3585 H   0  0  0  0  0  0  0  0  0  0  0  0
  1  2  2  0
  2  3  2  0
  2  4  1  0
  2 12  1  6
  4  5  1  0
  4 18  1  0
  4 19  1  0
  5  6  1  0
  5 20  1  0
  5 21  1  0
  6  7  2  0
  6 11  1  0
  7  8  1  0
  7 22  1  0
  8  9  2  0
  8 23  1  0
  9 10  1  0
 10 11  2  0
 10 24  1  0
 11 25  1  0
 12 13  1  0
 12 26  1  0
 13 14  1  0
 13 27  1  0
 13 28  1  0
 14 15  1  0
 14 16  1  0
 14 29  1  1
 15 30  1  0
 16 17  1  0
 16 31  1  0
 16 32  1  0
 17 33  1  0
M  END

