
     RDKit          3D

 55 58  0  0  0  0  0  0  0  0999 V2000
    4.9024    0.2484    1.8973 C   0  0  0  0  0  0  0  0  0  0  0  0
    3.8972    1.2123    1.6813 O   0  0  0  0  0  0  0  0  0  0  0  0
    3.9416    1.9818    0.5653 C   0  0  0  0  0  0  0  0  0  0  0  0
    4.9313    1.8929   -0.4255 C   0  0  0  0  0  0  0  0  0  0  0  0
    4.8762    2.7374   -1.5382 C   0  0  0  0  0  0  0  0  0  0  0  0
    3.8461    3.6793   -1.7073 C   0  0  0  0  0  0  0  0  0  0  0  0
    3.8143    4.5863   -2.8673 C   0  0  0  0  0  0  0  0  0  0  0  0
    4.1102    4.3790   -4.1954 C   0  0  0  0  0  0  0  0  0  0  0  0
    4.2831    3.2290   -4.9061 N   0  0  0  0  0  0  0  0  0  0  0  0
    3.7757    1.9382   -4.4500 C   0  0  0  0  0  0  0  0  0  0  0  0
    3.0688    1.2312   -5.6106 C   0  0  0  0  0  0  0  0  0  0  0  0
    3.9042    1.1094   -6.7398 O   0  0  0  0  0  0  0  0  0  0  0  0
    4.3376    2.3728   -7.2053 C   0  0  0  0  0  0  0  0  0  0  0  0
    5.0987    3.1319   -6.1221 C   0  0  0  0  0  0  0  0  0  0  0  0
    4.0589    5.7262   -4.9086 C   0  0  0  0  0  0  0  0  0  0  0  0
    4.2295    5.9346   -6.0913 O   0  0  0  0  0  0  0  0  0  0  0  0
    3.7364    6.6746   -3.9478 N   0  0  0  0  0  0  0  0  0  0  0  0
    3.5738    8.0717   -4.1891 C   0  0  0  0  0  0  0  0  0  0  0  0
    2.9708    8.5297   -5.3587 C   0  0  0  0  0  0  0  0  0  0  0  0
    2.8327    9.9082   -5.5762 C   0  0  0  0  0  0  0  0  0  0  0  0
    3.2732   10.8368   -4.6325 C   0  0  0  0  0  0  0  0  0  0  0  0
    3.1724   12.1825   -4.7544 O   0  0  0  0  0  0  0  0  0  0  0  0
    2.5736   12.7186   -5.9093 C   0  0  0  0  0  0  0  0  0  0  0  0
    3.8775   10.3653   -3.4342 C   0  0  0  0  0  0  0  0  0  0  0  0
    4.2724   11.3196   -2.5577 O   0  0  0  0  0  0  0  0  0  0  0  0
    4.8542   10.9252   -1.3365 C   0  0  0  0  0  0  0  0  0  0  0  0
    4.0345    8.9957   -3.2307 C   0  0  0  0  0  0  0  0  0  0  0  0
    3.5522    6.0352   -2.6859 C   0  0  0  0  0  0  0  0  0  0  0  0
    3.2546    6.6194   -1.6688 O   0  0  0  0  0  0  0  0  0  0  0  0
    2.8704    3.7636   -0.6881 C   0  0  0  0  0  0  0  0  0  0  0  0
    2.9134    2.9307    0.4220 C   0  0  0  0  0  0  0  0  0  0  0  0
    4.6629   -0.2469    2.8479 H   0  0  0  0  0  0  0  0  0  0  0  0
    5.9041    0.7084    1.9771 H   0  0  0  0  0  0  0  0  0  0  0  0
    4.9243   -0.5112    1.0947 H   0  0  0  0  0  0  0  0  0  0  0  0
    5.7544    1.1833   -0.3374 H   0  0  0  0  0  0  0  0  0  0  0  0
    5.6729    2.6743   -2.2830 H   0  0  0  0  0  0  0  0  0  0  0  0
    3.0737    2.0870   -3.6210 H   0  0  0  0  0  0  0  0  0  0  0  0
    4.6026    1.3013   -4.0825 H   0  0  0  0  0  0  0  0  0  0  0  0
    2.1462    1.7911   -5.8698 H   0  0  0  0  0  0  0  0  0  0  0  0
    2.7804    0.2129   -5.3073 H   0  0  0  0  0  0  0  0  0  0  0  0
    3.4732    2.9831   -7.5363 H   0  0  0  0  0  0  0  0  0  0  0  0
    4.9889    2.1917   -8.0737 H   0  0  0  0  0  0  0  0  0  0  0  0
    5.3609    4.1334   -6.4754 H   0  0  0  0  0  0  0  0  0  0  0  0
    6.0262    2.5768   -5.8790 H   0  0  0  0  0  0  0  0  0  0  0  0
    2.6223    7.8268   -6.1130 H   0  0  0  0  0  0  0  0  0  0  0  0
    2.3669   10.2477   -6.5013 H   0  0  0  0  0  0  0  0  0  0  0  0
    2.5971   13.8110   -5.7964 H   0  0  0  0  0  0  0  0  0  0  0  0
    1.5224   12.3934   -6.0187 H   0  0  0  0  0  0  0  0  0  0  0  0
    3.1249   12.4425   -6.8271 H   0  0  0  0  0  0  0  0  0  0  0  0
    5.0660   11.8481   -0.7797 H   0  0  0  0  0  0  0  0  0  0  0  0
    5.8011   10.3754   -1.4893 H   0  0  0  0  0  0  0  0  0  0  0  0
    4.1720   10.2926   -0.7404 H   0  0  0  0  0  0  0  0  0  0  0  0
    4.4877    8.6267   -2.3153 H   0  0  0  0  0  0  0  0  0  0  0  0
    2.0709    4.5003   -0.7728 H   0  0  0  0  0  0  0  0  0  0  0  0
    2.1554    2.9939    1.2054 H   0  0  0  0  0  0  0  0  0  0  0  0
  1  2  1  0
  1 32  1  0
  1 33  1  0
  1 34  1  0
  2  3  1  0
  3  4  2  0
  3 31  1  0
  4  5  1  0
  4 35  1  0
  5  6  2  0
  5 36  1  0
  6  7  1  0
  6 30  1  0
  7  8  2  0
  7 28  1  0
  8  9  1  0
  8 15  1  0
  9 10  1  0
  9 14  1  0
 10 11  1  0
 10 37  1  0
 10 38  1  0
 11 12  1  0
 11 39  1  0
 11 40  1  0
 12 13  1  0
 13 14  1  0
 13 41  1  0
 13 42  1  0
 14 43  1  0
 14 44  1  0
 15 16  2  0
 15 17  1  0
 17 18  1  0
 17 28  1  0
 18 19  2  0
 18 27  1  0
 19 20  1  0
 19 45  1  0
 20 21  2  0
 20 46  1  0
 21 22  1  0
 21 24  1  0
 22 23  1  0
 23 47  1  0
 23 48  1  0
 23 49  1  0
 24 25  1  0
 24 27  2  0
 25 26  1  0
 26 50  1  0
 26 51  1  0
 26 52  1  0
 27 53  1  0
 28 29  2  0
 30 31  2  0
 30 54  1  0
 31 55  1  0
M  END

