
     RDKit          3D

123133  0  0  0  0  0  0  0  0999 V2000
    1.2250   -1.0322   -0.5161 C   0  0  0  0  0  0  0  0  0  0  0  0
    2.5985   -0.4426   -0.1920 C   0  0  0  0  0  0  0  0  0  0  0  0
    3.1370   -0.8681    1.1783 C   0  0  0  0  0  0  0  0  0  0  0  0
    4.5107   -0.2706    1.4922 C   0  0  0  0  0  0  0  0  0  0  0  0
    5.1336   -0.6489    2.8667 C   0  0  2  0  0  0  0  0  0  0  0  0
    6.5144    0.0557    2.9897 C   0  0  0  0  0  0  0  0  0  0  0  0
    7.2935   -0.1931    4.2834 C   0  0  0  0  0  0  0  0  0  0  0  0
    8.6386    0.5409    4.3233 C   0  0  0  0  0  0  0  0  0  0  0  0
    9.4274    0.2953    5.6103 C   0  0  0  0  0  0  0  0  0  0  0  0
    5.2493   -2.1651    3.0405 C   0  0  0  0  0  0  0  0  0  0  0  0
    5.9621   -3.0669    2.2837 C   0  0  0  0  0  0  0  0  0  0  0  0
    5.9339   -4.4607    2.6168 C   0  0  0  0  0  0  0  0  0  0  0  0
    6.6515   -5.3950    1.8589 C   0  0  0  0  0  0  0  0  0  0  0  0
    7.2843   -6.2163    1.1894 C   0  0  0  0  0  0  0  0  0  0  0  0
    8.0015   -7.1505    0.4273 C   0  0  0  0  0  0  0  0  0  0  0  0
    8.7913   -6.7474   -0.6889 C   0  0  0  0  0  0  0  0  0  0  0  0
    9.4891   -7.6796   -1.4323 C   0  0  0  0  0  0  0  0  0  0  0  0
    9.4759   -9.0671   -1.1159 C   0  0  0  0  0  0  0  0  0  0  0  0
   10.2225   -9.9659   -1.9776 C   0  0  0  0  0  0  0  0  0  0  0  0
   10.5842  -11.2840   -1.8465 C   0  0  0  0  0  0  0  0  0  0  0  0
   11.2359  -11.9497   -3.0056 C   0  0  0  0  0  0  0  0  0  0  0  0
   12.3183  -11.3167   -3.6498 C   0  0  0  0  0  0  0  0  0  0  0  0
   12.9060  -11.8519   -4.7941 C   0  0  0  0  0  0  0  0  0  0  0  0
   12.4089  -13.0422   -5.3378 C   0  0  0  0  0  0  0  0  0  0  0  0
   11.3431  -13.6841   -4.7152 C   0  0  0  0  0  0  0  0  0  0  0  0
   10.7528  -13.1798   -3.5358 C   0  0  0  0  0  0  0  0  0  0  0  0
    9.6514  -13.9442   -2.9534 C   0  0  0  0  0  0  0  0  0  0  0  0
    9.2373  -13.9949   -1.6648 C   0  0  0  0  0  0  0  0  0  0  0  0
    9.7994  -13.3061   -0.5057 C   0  0  0  0  0  0  0  0  0  0  0  0
    9.6617  -13.9222    0.7578 C   0  0  0  0  0  0  0  0  0  0  0  0
   10.2299  -13.3762    1.9044 C   0  0  0  0  0  0  0  0  0  0  0  0
   10.9502  -12.1782    1.8133 C   0  0  0  0  0  0  0  0  0  0  0  0
   11.0604  -11.5308    0.5856 C   0  0  0  0  0  0  0  0  0  0  0  0
   10.4760  -12.0585   -0.5839 C   0  0  0  0  0  0  0  0  0  0  0  0
    8.6665   -9.4654   -0.0142 C   0  0  0  0  0  0  0  0  0  0  0  0
    7.9548   -8.5438    0.7288 C   0  0  0  0  0  0  0  0  0  0  0  0
    5.1543   -4.8816    3.7427 C   0  0  0  0  0  0  0  0  0  0  0  0
    4.4402   -3.9757    4.5021 C   0  0  0  0  0  0  0  0  0  0  0  0
    4.4765   -2.6001    4.1629 C   0  0  0  0  0  0  0  0  0  0  0  0
    3.8443   -1.4628    4.7628 C   0  0  0  0  0  0  0  0  0  0  0  0
    2.9856   -1.3553    5.8853 C   0  0  0  0  0  0  0  0  0  0  0  0
    2.5077   -0.1145    6.2584 C   0  0  0  0  0  0  0  0  0  0  0  0
    2.8602    1.0698    5.5332 C   0  0  0  0  0  0  0  0  0  0  0  0
    2.3666    2.3205    5.9255 C   0  0  0  0  0  0  0  0  0  0  0  0
    1.9373    3.4268    6.2653 C   0  0  0  0  0  0  0  0  0  0  0  0
    1.4554    4.6879    6.6455 C   0  0  0  0  0  0  0  0  0  0  0  0
    0.5944    4.8485    7.7702 C   0  0  0  0  0  0  0  0  0  0  0  0
    0.1311    6.0991    8.1304 C   0  0  0  0  0  0  0  0  0  0  0  0
    0.5012    7.2785    7.4245 C   0  0  0  0  0  0  0  0  0  0  0  0
   -0.0560    8.5412    7.8736 C   0  0  0  0  0  0  0  0  0  0  0  0
    0.2562    9.8454    7.5768 C   0  0  0  0  0  0  0  0  0  0  0  0
   -0.6204   10.9169    8.1191 C   0  0  0  0  0  0  0  0  0  0  0  0
   -0.9716   10.8994    9.4846 C   0  0  0  0  0  0  0  0  0  0  0  0
   -1.8578   11.8275   10.0268 C   0  0  0  0  0  0  0  0  0  0  0  0
   -2.4341   12.8008    9.2022 C   0  0  0  0  0  0  0  0  0  0  0  0
   -2.0986   12.8372    7.8525 C   0  0  0  0  0  0  0  0  0  0  0  0
   -1.1775   11.9289    7.2864 C   0  0  0  0  0  0  0  0  0  0  0  0
   -0.8830   12.0692    5.8617 C   0  0  0  0  0  0  0  0  0  0  0  0
    0.2326   11.7104    5.1827 C   0  0  0  0  0  0  0  0  0  0  0  0
    1.4525   11.0993    5.7045 C   0  0  0  0  0  0  0  0  0  0  0  0
    2.6629   11.3619    5.0256 C   0  0  0  0  0  0  0  0  0  0  0  0
    3.8832   10.8848    5.4935 C   0  0  0  0  0  0  0  0  0  0  0  0
    3.9191   10.1142    6.6628 C   0  0  0  0  0  0  0  0  0  0  0  0
    2.7328    9.8056    7.3229 C   0  0  0  0  0  0  0  0  0  0  0  0
    1.4844   10.2638    6.8541 C   0  0  0  0  0  0  0  0  0  0  0  0
    1.3395    7.1074    6.2861 C   0  0  0  0  0  0  0  0  0  0  0  0
    1.7980    5.8606    5.9087 C   0  0  0  0  0  0  0  0  0  0  0  0
    3.7288    0.9477    4.3992 C   0  0  0  0  0  0  0  0  0  0  0  0
    4.2055   -0.2891    4.0293 C   0  0  0  0  0  0  0  0  0  0  0  0
    0.8676   -0.7071   -1.5064 H   0  0  0  0  0  0  0  0  0  0  0  0
    0.4711   -0.7239    0.2277 H   0  0  0  0  0  0  0  0  0  0  0  0
    1.2526   -2.1348   -0.5176 H   0  0  0  0  0  0  0  0  0  0  0  0
    2.5451    0.6608   -0.2363 H   0  0  0  0  0  0  0  0  0  0  0  0
    3.3203   -0.7384   -0.9754 H   0  0  0  0  0  0  0  0  0  0  0  0
    3.1934   -1.9699    1.2191 H   0  0  0  0  0  0  0  0  0  0  0  0
    2.4158   -0.5699    1.9592 H   0  0  0  0  0  0  0  0  0  0  0  0
    4.4483    0.8315    1.4410 H   0  0  0  0  0  0  0  0  0  0  0  0
    5.2257   -0.5667    0.7035 H   0  0  0  0  0  0  0  0  0  0  0  0
    6.3526    1.1416    2.8656 H   0  0  0  0  0  0  0  0  0  0  0  0
    7.1318   -0.2550    2.1276 H   0  0  0  0  0  0  0  0  0  0  0  0
    7.4692   -1.2758    4.4087 H   0  0  0  0  0  0  0  0  0  0  0  0
    6.6844    0.1200    5.1495 H   0  0  0  0  0  0  0  0  0  0  0  0
    8.4666    1.6258    4.1985 H   0  0  0  0  0  0  0  0  0  0  0  0
    9.2479    0.2332    3.4536 H   0  0  0  0  0  0  0  0  0  0  0  0
    8.8615    0.6284    6.4965 H   0  0  0  0  0  0  0  0  0  0  0  0
   10.3879    0.8352    5.6065 H   0  0  0  0  0  0  0  0  0  0  0  0
    9.6483   -0.7768    5.7460 H   0  0  0  0  0  0  0  0  0  0  0  0
    6.5556   -2.7454    1.4247 H   0  0  0  0  0  0  0  0  0  0  0  0
    8.8345   -5.6886   -0.9524 H   0  0  0  0  0  0  0  0  0  0  0  0
   10.0805   -7.3431   -2.2885 H   0  0  0  0  0  0  0  0  0  0  0  0
   10.4976   -9.5079   -2.9339 H   0  0  0  0  0  0  0  0  0  0  0  0
   12.7058  -10.3861   -3.2292 H   0  0  0  0  0  0  0  0  0  0  0  0
   13.7478  -11.3380   -5.2650 H   0  0  0  0  0  0  0  0  0  0  0  0
   12.8523  -13.4662   -6.2420 H   0  0  0  0  0  0  0  0  0  0  0  0
   10.9494  -14.6123   -5.1385 H   0  0  0  0  0  0  0  0  0  0  0  0
    9.1588  -14.6328   -3.6482 H   0  0  0  0  0  0  0  0  0  0  0  0
    8.4501  -14.7202   -1.4330 H   0  0  0  0  0  0  0  0  0  0  0  0
    9.1104  -14.8643    0.8218 H   0  0  0  0  0  0  0  0  0  0  0  0
   10.1202  -13.8842    2.8657 H   0  0  0  0  0  0  0  0  0  0  0  0
   11.4147  -11.7435    2.7020 H   0  0  0  0  0  0  0  0  0  0  0  0
   11.5992  -10.5835    0.5178 H   0  0  0  0  0  0  0  0  0  0  0  0
    8.5823  -10.5208    0.2401 H   0  0  0  0  0  0  0  0  0  0  0  0
    7.3329   -8.8802    1.5611 H   0  0  0  0  0  0  0  0  0  0  0  0
    5.1355   -5.9445    3.9920 H   0  0  0  0  0  0  0  0  0  0  0  0
    3.8531   -4.3210    5.3566 H   0  0  0  0  0  0  0  0  0  0  0  0
    2.7020   -2.2444    6.4538 H   0  0  0  0  0  0  0  0  0  0  0  0
    1.8459   -0.0163    7.1213 H   0  0  0  0  0  0  0  0  0  0  0  0
    0.3022    3.9665    8.3438 H   0  0  0  0  0  0  0  0  0  0  0  0
   -0.5337    6.1923    8.9938 H   0  0  0  0  0  0  0  0  0  0  0  0
   -0.9201    8.4146    8.5349 H   0  0  0  0  0  0  0  0  0  0  0  0
   -0.5249   10.1397   10.1298 H   0  0  0  0  0  0  0  0  0  0  0  0
   -2.1031   11.7886   11.0912 H   0  0  0  0  0  0  0  0  0  0  0  0
   -3.1403   13.5271    9.6119 H   0  0  0  0  0  0  0  0  0  0  0  0
   -2.5491   13.5936    7.2039 H   0  0  0  0  0  0  0  0  0  0  0  0
   -1.6392   12.6216    5.2938 H   0  0  0  0  0  0  0  0  0  0  0  0
    0.2793   12.0060    4.1291 H   0  0  0  0  0  0  0  0  0  0  0  0
    2.6314   11.9762    4.1216 H   0  0  0  0  0  0  0  0  0  0  0  0
    4.8055   11.1178    4.9556 H   0  0  0  0  0  0  0  0  0  0  0  0
    4.8710    9.7441    7.0519 H   0  0  0  0  0  0  0  0  0  0  0  0
    2.7567    9.1829    8.2194 H   0  0  0  0  0  0  0  0  0  0  0  0
    1.6103    7.9708    5.6803 H   0  0  0  0  0  0  0  0  0  0  0  0
    2.4308    5.7586    5.0245 H   0  0  0  0  0  0  0  0  0  0  0  0
    3.9976    1.8503    3.8456 H   0  0  0  0  0  0  0  0  0  0  0  0
  1  2  1  0
  1 70  1  0
  1 71  1  0
  1 72  1  0
  2  3  1  0
  2 73  1  0
  2 74  1  0
  3  4  1  0
  3 75  1  0
  3 76  1  0
  5  4  1  6
  4 77  1  0
  4 78  1  0
  5  6  1  0
  5 10  1  0
  5 69  1  0
  6  7  1  0
  6 79  1  0
  6 80  1  0
  7  8  1  0
  7 81  1  0
  7 82  1  0
  8  9  1  0
  8 83  1  0
  8 84  1  0
  9 85  1  0
  9 86  1  0
  9 87  1  0
 10 11  2  0
 10 39  1  0
 11 12  1  0
 11 88  1  0
 12 13  1  0
 12 37  2  0
 13 14  3  0
 14 15  1  0
 15 16  2  0
 15 36  1  0
 16 17  1  0
 16 89  1  0
 17 18  2  0
 17 90  1  0
 18 19  1  0
 18 35  1  0
 19 20  2  0
 19 91  1  0
 20 21  1  0
 20 34  1  0
 21 22  2  0
 21 26  1  0
 22 23  1  0
 22 92  1  0
 23 24  2  0
 23 93  1  0
 24 25  1  0
 24 94  1  0
 25 26  2  0
 25 95  1  0
 26 27  1  0
 27 28  2  0
 27 96  1  0
 28 29  1  0
 28 97  1  0
 29 30  1  0
 29 34  2  0
 30 31  2  0
 30 98  1  0
 31 32  1  0
 31 99  1  0
 32 33  2  0
 32100  1  0
 33 34  1  0
 33101  1  0
 35 36  2  0
 35102  1  0
 36103  1  0
 37 38  1  0
 37104  1  0
 38 39  2  0
 38105  1  0
 39 40  1  0
 40 41  2  0
 40 69  1  0
 41 42  1  0
 41106  1  0
 42 43  2  0
 42107  1  0
 43 44  1  0
 43 68  1  0
 44 45  3  0
 45 46  1  0
 46 47  2  0
 46 67  1  0
 47 48  1  0
 47108  1  0
 48 49  2  0
 48109  1  0
 49 50  1  0
 49 66  1  0
 50 51  2  0
 50110  1  0
 51 52  1  0
 51 65  1  0
 52 53  2  0
 52 57  1  0
 53 54  1  0
 53111  1  0
 54 55  2  0
 54112  1  0
 55 56  1  0
 55113  1  0
 56 57  2  0
 56114  1  0
 57 58  1  0
 58 59  2  0
 58115  1  0
 59 60  1  0
 59116  1  0
 60 61  1  0
 60 65  2  0
 61 62  2  0
 61117  1  0
 62 63  1  0
 62118  1  0
 63 64  2  0
 63119  1  0
 64 65  1  0
 64120  1  0
 66 67  2  0
 66121  1  0
 67122  1  0
 68 69  2  0
 68123  1  0
M  END

