
     RDKit          3D

 43 44  0  0  0  0  0  0  0  0999 V2000
    2.8354   -1.1794   -1.0121 C   0  0  0  0  0  0  0  0  0  0  0  0
    3.6560   -0.0969   -1.7084 C   0  0  0  0  0  0  0  0  0  0  0  0
    3.3841    1.2391   -1.1941 N   0  0  0  0  0  0  0  0  0  0  0  0
    2.6559    2.2278   -1.7837 C   0  0  0  0  0  0  0  0  0  0  0  0
    2.6494    3.2823   -0.8831 C   0  0  0  0  0  0  0  0  0  0  0  0
    2.1152    4.5214   -1.1004 O   0  0  0  0  0  0  0  0  0  0  0  0
    1.0157    4.9388   -0.4042 C   0  0  0  0  0  0  0  0  0  0  0  0
    0.2393    4.1072    0.4094 C   0  0  0  0  0  0  0  0  0  0  0  0
   -0.8824    4.6142    1.0710 C   0  0  0  0  0  0  0  0  0  0  0  0
   -1.2566    5.9573    0.9454 C   0  0  0  0  0  0  0  0  0  0  0  0
   -2.4416    6.5147    1.7137 C   0  0  0  0  0  0  0  0  0  0  0  0
   -3.1448    7.5400    0.9609 N   0  0  0  0  0  0  0  0  0  0  0  0
   -4.2392    8.2862    1.6119 C   0  0  1  0  0  0  0  0  0  0  0  0
   -3.6677    9.1449    2.7542 C   0  0  0  0  0  0  0  0  0  0  0  0
   -4.8272    9.2114    0.5338 C   0  0  0  0  0  0  0  0  0  0  0  0
   -5.3527    7.3641    2.1578 C   0  0  0  0  0  0  0  0  0  0  0  0
   -0.4819    6.7861    0.1201 C   0  0  0  0  0  0  0  0  0  0  0  0
    0.6360    6.2878   -0.5459 C   0  0  0  0  0  0  0  0  0  0  0  0
    1.5811    7.3407   -1.5694 Cl  0  0  0  0  0  0  0  0  0  0  0  0
    3.4021    2.8268    0.2267 C   0  0  0  0  0  0  0  0  0  0  0  0
    3.8324    1.5846    0.0200 N   0  0  0  0  0  0  0  0  0  0  0  0
    3.1001   -2.1722   -1.4087 H   0  0  0  0  0  0  0  0  0  0  0  0
    1.7562   -1.0222   -1.1665 H   0  0  0  0  0  0  0  0  0  0  0  0
    3.0360   -1.1714    0.0693 H   0  0  0  0  0  0  0  0  0  0  0  0
    3.4518   -0.0767   -2.7897 H   0  0  0  0  0  0  0  0  0  0  0  0
    4.7328   -0.2854   -1.5776 H   0  0  0  0  0  0  0  0  0  0  0  0
    2.2202    2.1325   -2.7753 H   0  0  0  0  0  0  0  0  0  0  0  0
    0.5149    3.0572    0.5173 H   0  0  0  0  0  0  0  0  0  0  0  0
   -1.4763    3.9425    1.6975 H   0  0  0  0  0  0  0  0  0  0  0  0
   -2.0704    6.9691    2.6494 H   0  0  0  0  0  0  0  0  0  0  0  0
   -3.0788    5.6609    2.0304 H   0  0  0  0  0  0  0  0  0  0  0  0
   -3.4784    7.1454    0.0816 H   0  0  0  0  0  0  0  0  0  0  0  0
   -2.8524    9.7843    2.3825 H   0  0  0  0  0  0  0  0  0  0  0  0
   -3.2717    8.5292    3.5770 H   0  0  0  0  0  0  0  0  0  0  0  0
   -4.4522    9.7901    3.1797 H   0  0  0  0  0  0  0  0  0  0  0  0
   -4.0484    9.8765    0.1310 H   0  0  0  0  0  0  0  0  0  0  0  0
   -5.6417    9.8291    0.9425 H   0  0  0  0  0  0  0  0  0  0  0  0
   -5.2417    8.6261   -0.3047 H   0  0  0  0  0  0  0  0  0  0  0  0
   -4.9790    6.6992    2.9527 H   0  0  0  0  0  0  0  0  0  0  0  0
   -5.7665    6.7320    1.3542 H   0  0  0  0  0  0  0  0  0  0  0  0
   -6.1822    7.9515    2.5834 H   0  0  0  0  0  0  0  0  0  0  0  0
   -0.7654    7.8313   -0.0074 H   0  0  0  0  0  0  0  0  0  0  0  0
    3.6435    3.3579    1.1467 H   0  0  0  0  0  0  0  0  0  0  0  0
  1  2  1  0
  1 22  1  0
  1 23  1  0
  1 24  1  0
  2  3  1  0
  2 25  1  0
  2 26  1  0
  3  4  1  0
  3 21  1  0
  4  5  2  0
  4 27  1  0
  5  6  1  0
  5 20  1  0
  6  7  1  0
  7  8  2  0
  7 18  1  0
  8  9  1  0
  8 28  1  0
  9 10  2  0
  9 29  1  0
 10 11  1  0
 10 17  1  0
 11 12  1  0
 11 30  1  0
 11 31  1  0
 13 12  1  6
 12 32  1  0
 13 14  1  0
 13 15  1  0
 13 16  1  0
 14 33  1  0
 14 34  1  0
 14 35  1  0
 15 36  1  0
 15 37  1  0
 15 38  1  0
 16 39  1  0
 16 40  1  0
 16 41  1  0
 17 18  2  0
 17 42  1  0
 18 19  1  0
 20 21  2  0
 20 43  1  0
M  END

