
     RDKit          3D

 60 63  0  0  0  0  0  0  0  0999 V2000
    2.9402   -0.5538    1.3706 C   0  0  0  0  0  0  0  0  0  0  0  0
    2.0925   -0.4710    0.2323 O   0  0  0  0  0  0  0  0  0  0  0  0
    2.7046   -0.4012   -0.9876 C   0  0  0  0  0  0  0  0  0  0  0  0
    2.5835   -1.5159   -1.8433 C   0  0  0  0  0  0  0  0  0  0  0  0
    3.1421   -1.4952   -3.1188 C   0  0  0  0  0  0  0  0  0  0  0  0
    3.0614   -2.5231   -4.0033 N   0  0  0  0  0  0  0  0  0  0  0  0
    2.3988   -3.7802   -3.7591 C   0  0  0  0  0  0  0  0  0  0  0  0
    2.4908   -4.6905   -4.9834 C   0  0  0  0  0  0  0  0  0  0  0  0
    1.8315   -6.0551   -4.7667 C   0  0  0  0  0  0  0  0  0  0  0  0
    1.7880   -6.9689   -6.0177 C   0  0  1  0  0  0  0  0  0  0  0  0
    3.1887   -7.3431   -6.5183 C   0  0  0  0  0  0  0  0  0  0  0  0
    0.9518   -8.1974   -5.7586 C   0  0  0  0  0  0  0  0  0  0  0  0
    1.2965   -9.5259   -5.5605 C   0  0  0  0  0  0  0  0  0  0  0  0
    0.0967  -10.2590   -5.3135 C   0  0  0  0  0  0  0  0  0  0  0  0
   -0.9494   -9.3607   -5.3672 C   0  0  0  0  0  0  0  0  0  0  0  0
   -0.4191   -8.1203   -5.6341 N   0  0  0  0  0  0  0  0  0  0  0  0
   -0.9606   -7.2737   -5.7508 H   0  0  0  0  0  0  0  0  0  0  0  0
    3.8669   -0.3113   -3.5420 C   0  0  0  0  0  0  0  0  0  0  0  0
    4.4039   -0.3641   -4.7834 N   0  0  0  0  0  0  0  0  0  0  0  0
    5.0777    0.6749   -5.2251 C   0  0  0  0  0  0  0  0  0  0  0  0
    5.2680    1.8408   -4.4547 C   0  0  0  0  0  0  0  0  0  0  0  0
    4.7382    1.9484   -3.1780 C   0  0  0  0  0  0  0  0  0  0  0  0
    4.9815    3.2134   -2.3932 C   0  0  0  0  0  0  0  0  0  0  0  0
    3.9880    0.8274   -2.6734 C   0  0  0  0  0  0  0  0  0  0  0  0
    3.3690    0.7547   -1.3869 C   0  0  0  0  0  0  0  0  0  0  0  0
    3.4584    1.8124   -0.4916 O   0  0  0  0  0  0  0  0  0  0  0  0
    2.3814    2.6267   -0.2696 C   0  0  0  0  0  0  0  0  0  0  0  0
    2.5195    3.5771    0.7522 C   0  0  0  0  0  0  0  0  0  0  0  0
    1.4762    4.4567    1.0248 C   0  0  0  0  0  0  0  0  0  0  0  0
    0.2852    4.4079    0.2900 C   0  0  0  0  0  0  0  0  0  0  0  0
   -1.0000    5.5234    0.6639 Cl  0  0  0  0  0  0  0  0  0  0  0  0
    0.1565    3.4563   -0.7338 C   0  0  0  0  0  0  0  0  0  0  0  0
   -1.3008    3.3546   -1.6823 Cl  0  0  0  0  0  0  0  0  0  0  0  0
    1.1999    2.5680   -1.0148 C   0  0  0  0  0  0  0  0  0  0  0  0
    2.2831   -0.6236    2.2485 H   0  0  0  0  0  0  0  0  0  0  0  0
    3.5840    0.3354    1.4683 H   0  0  0  0  0  0  0  0  0  0  0  0
    3.5762   -1.4562    1.3252 H   0  0  0  0  0  0  0  0  0  0  0  0
    2.0358   -2.3790   -1.4667 H   0  0  0  0  0  0  0  0  0  0  0  0
    3.5390   -2.3506   -4.8839 H   0  0  0  0  0  0  0  0  0  0  0  0
    1.3341   -3.6105   -3.5005 H   0  0  0  0  0  0  0  0  0  0  0  0
    2.8448   -4.2921   -2.8822 H   0  0  0  0  0  0  0  0  0  0  0  0
    3.5556   -4.8161   -5.2434 H   0  0  0  0  0  0  0  0  0  0  0  0
    2.0181   -4.1802   -5.8428 H   0  0  0  0  0  0  0  0  0  0  0  0
    0.7981   -5.8975   -4.4104 H   0  0  0  0  0  0  0  0  0  0  0  0
    2.3462   -6.5987   -3.9544 H   0  0  0  0  0  0  0  0  0  0  0  0
    1.2903   -6.3914   -6.8225 H   0  0  0  0  0  0  0  0  0  0  0  0
    3.7619   -7.8657   -5.7350 H   0  0  0  0  0  0  0  0  0  0  0  0
    3.7625   -6.4520   -6.8130 H   0  0  0  0  0  0  0  0  0  0  0  0
    3.1289   -8.0092   -7.3918 H   0  0  0  0  0  0  0  0  0  0  0  0
    2.3057   -9.9307   -5.5910 H   0  0  0  0  0  0  0  0  0  0  0  0
    0.0119  -11.3270   -5.1214 H   0  0  0  0  0  0  0  0  0  0  0  0
   -2.0211   -9.5034   -5.2458 H   0  0  0  0  0  0  0  0  0  0  0  0
    5.5023    0.6073   -6.2339 H   0  0  0  0  0  0  0  0  0  0  0  0
    5.8460    2.6687   -4.8725 H   0  0  0  0  0  0  0  0  0  0  0  0
    5.6384    3.8889   -2.9599 H   0  0  0  0  0  0  0  0  0  0  0  0
    5.4462    3.0054   -1.4191 H   0  0  0  0  0  0  0  0  0  0  0  0
    4.0431    3.7509   -2.1856 H   0  0  0  0  0  0  0  0  0  0  0  0
    3.4492    3.6138    1.3224 H   0  0  0  0  0  0  0  0  0  0  0  0
    1.5730    5.1986    1.8193 H   0  0  0  0  0  0  0  0  0  0  0  0
    1.0774    1.8341   -1.8101 H   0  0  0  0  0  0  0  0  0  0  0  0
  1  2  1  0
  1 35  1  0
  1 36  1  0
  1 37  1  0
  2  3  1  0
  3  4  2  0
  3 25  1  0
  4  5  1  0
  4 38  1  0
  5  6  1  0
  5 18  2  0
  6  7  1  0
  6 39  1  0
  7  8  1  0
  7 40  1  0
  7 41  1  0
  8  9  1  0
  8 42  1  0
  8 43  1  0
  9 10  1  0
  9 44  1  0
  9 45  1  0
 10 11  1  0
 10 12  1  0
 10 46  1  6
 11 47  1  0
 11 48  1  0
 11 49  1  0
 12 13  2  0
 12 16  1  0
 13 14  1  0
 13 50  1  0
 14 15  2  0
 14 51  1  0
 15 16  1  0
 15 52  1  0
 16 17  1  0
 18 19  1  0
 18 24  1  0
 19 20  2  0
 20 21  1  0
 20 53  1  0
 21 22  2  0
 21 54  1  0
 22 23  1  0
 22 24  1  0
 23 55  1  0
 23 56  1  0
 23 57  1  0
 24 25  2  0
 25 26  1  0
 26 27  1  0
 27 28  2  0
 27 34  1  0
 28 29  1  0
 28 58  1  0
 29 30  2  0
 29 59  1  0
 30 31  1  0
 30 32  1  0
 32 33  1  0
 32 34  2  0
 34 60  1  0
M  END

