
     RDKit          3D

 66 69  0  0  0  0  0  0  0  0999 V2000
    1.1113   -4.0187   11.9719 C   0  0  0  0  0  0  0  0  0  0  0  0
    2.3896   -4.1722   11.3178 N   0  0  0  0  0  0  0  0  0  0  0  0
    3.1511   -5.3515   11.6532 C   0  0  0  0  0  0  0  0  0  0  0  0
    2.5626   -3.6051   10.0375 C   0  0  0  0  0  0  0  0  0  0  0  0
    3.6399   -3.9680    9.1941 C   0  0  0  0  0  0  0  0  0  0  0  0
    3.8407   -3.3752    7.9531 C   0  0  0  0  0  0  0  0  0  0  0  0
    2.9654   -2.3625    7.4369 C   0  0  0  0  0  0  0  0  0  0  0  0
    3.1432   -1.7324    6.1795 C   0  0  0  0  0  0  0  0  0  0  0  0
    4.1972   -1.9175    5.2488 C   0  0  0  0  0  0  0  0  0  0  0  0
    4.2328   -1.1425    4.0022 C   0  0  0  0  0  0  0  0  0  0  0  0
    3.5584   -1.7577    2.7831 N   0  0  0  0  0  0  0  0  0  0  0  0
    2.9521   -3.0602    2.8212 C   0  0  0  0  0  0  0  0  0  0  0  0
    3.3348   -3.9022    1.5958 C   0  0  0  0  0  0  0  0  0  0  0  0
    3.1216   -3.1463    0.2677 C   0  0  1  0  0  0  0  0  0  0  0  0
    2.0361   -2.9652    0.1596 H   0  0  0  0  0  0  0  0  0  0  0  0
    3.8153   -1.7692    0.3018 C   0  0  2  0  0  0  0  0  0  0  0  0
    3.4404   -1.1784   -0.5511 H   0  0  0  0  0  0  0  0  0  0  0  0
    5.3284   -1.9282    0.1322 C   0  0  0  0  0  0  0  0  0  0  0  0
    5.6116   -2.5757   -1.2213 C   0  0  0  0  0  0  0  0  0  0  0  0
    4.7058   -3.7410   -1.6070 C   0  0  0  0  0  0  0  0  0  0  0  0
    4.9910   -4.4539   -2.5555 O   0  0  0  0  0  0  0  0  0  0  0  0
    3.5388   -3.9310   -0.8958 N   0  0  0  0  0  0  0  0  0  0  0  0
    2.6598   -5.0106   -1.3584 C   0  0  0  0  0  0  0  0  0  0  0  0
    3.1302   -6.4322   -0.9856 C   0  0  0  0  0  0  0  0  0  0  0  0
    2.2531   -7.4932   -1.6118 C   0  0  0  0  0  0  0  0  0  0  0  0
    2.4439   -7.8688   -2.9529 C   0  0  0  0  0  0  0  0  0  0  0  0
    1.6131   -8.8197   -3.5507 C   0  0  0  0  0  0  0  0  0  0  0  0
    0.5759   -9.4159   -2.8274 C   0  0  0  0  0  0  0  0  0  0  0  0
    0.3954   -9.0366   -1.5001 C   0  0  0  0  0  0  0  0  0  0  0  0
   -0.5919   -9.5992   -0.7867 F   0  0  0  0  0  0  0  0  0  0  0  0
    1.2118   -8.0892   -0.8853 C   0  0  0  0  0  0  0  0  0  0  0  0
    3.4156   -0.9908    1.5707 C   0  0  0  0  0  0  0  0  0  0  0  0
    1.8682   -2.0295    8.2931 C   0  0  0  0  0  0  0  0  0  0  0  0
    1.6698   -2.6201    9.5285 C   0  0  0  0  0  0  0  0  0  0  0  0
    1.1513   -4.4883   12.9655 H   0  0  0  0  0  0  0  0  0  0  0  0
    0.2635   -4.4734   11.4122 H   0  0  0  0  0  0  0  0  0  0  0  0
    0.8647   -2.9555   12.1274 H   0  0  0  0  0  0  0  0  0  0  0  0
    2.9308   -5.6470   12.6893 H   0  0  0  0  0  0  0  0  0  0  0  0
    4.2351   -5.1574   11.5943 H   0  0  0  0  0  0  0  0  0  0  0  0
    2.9391   -6.2241   10.9953 H   0  0  0  0  0  0  0  0  0  0  0  0
    4.3482   -4.7344    9.5122 H   0  0  0  0  0  0  0  0  0  0  0  0
    4.6884   -3.7094    7.3503 H   0  0  0  0  0  0  0  0  0  0  0  0
    2.3618   -1.0083    5.9077 H   0  0  0  0  0  0  0  0  0  0  0  0
    5.0993   -2.4678    5.5217 H   0  0  0  0  0  0  0  0  0  0  0  0
    5.2493   -0.9267    3.6153 H   0  0  0  0  0  0  0  0  0  0  0  0
    3.7316   -0.1532    4.0600 H   0  0  0  0  0  0  0  0  0  0  0  0
    1.8552   -2.9038    2.8512 H   0  0  0  0  0  0  0  0  0  0  0  0
    3.2418   -3.5104    3.7823 H   0  0  0  0  0  0  0  0  0  0  0  0
    2.7323   -4.8211    1.6137 H   0  0  0  0  0  0  0  0  0  0  0  0
    4.3868   -4.2169    1.6808 H   0  0  0  0  0  0  0  0  0  0  0  0
    5.7458   -2.5412    0.9488 H   0  0  0  0  0  0  0  0  0  0  0  0
    5.8289   -0.9486    0.1984 H   0  0  0  0  0  0  0  0  0  0  0  0
    6.6455   -2.9417   -1.2998 H   0  0  0  0  0  0  0  0  0  0  0  0
    5.4952   -1.8341   -2.0310 H   0  0  0  0  0  0  0  0  0  0  0  0
    2.5961   -4.9448   -2.4544 H   0  0  0  0  0  0  0  0  0  0  0  0
    1.6518   -4.8266   -0.9547 H   0  0  0  0  0  0  0  0  0  0  0  0
    3.1420   -6.5521    0.1093 H   0  0  0  0  0  0  0  0  0  0  0  0
    4.1632   -6.5470   -1.3442 H   0  0  0  0  0  0  0  0  0  0  0  0
    3.2558   -7.4139   -3.5265 H   0  0  0  0  0  0  0  0  0  0  0  0
    1.7760   -9.1067   -4.5926 H   0  0  0  0  0  0  0  0  0  0  0  0
   -0.0841  -10.1650   -3.2687 H   0  0  0  0  0  0  0  0  0  0  0  0
    1.0279   -7.8372    0.1619 H   0  0  0  0  0  0  0  0  0  0  0  0
    2.3512   -0.6942    1.4976 H   0  0  0  0  0  0  0  0  0  0  0  0
    4.0048   -0.0666    1.6689 H   0  0  0  0  0  0  0  0  0  0  0  0
    1.1530   -1.2719    7.9549 H   0  0  0  0  0  0  0  0  0  0  0  0
    0.8058   -2.3057   10.1152 H   0  0  0  0  0  0  0  0  0  0  0  0
  1  2  1  0
  1 35  1  0
  1 36  1  0
  1 37  1  0
  2  3  1  0
  2  4  1  0
  3 38  1  0
  3 39  1  0
  3 40  1  0
  4  5  2  0
  4 34  1  0
  5  6  1  0
  5 41  1  0
  6  7  2  0
  6 42  1  0
  7  8  1  0
  7 33  1  0
  8  9  2  0
  8 43  1  0
  9 10  1  0
  9 44  1  0
 10 11  1  0
 10 45  1  0
 10 46  1  0
 11 12  1  0
 11 32  1  0
 12 13  1  0
 12 47  1  0
 12 48  1  0
 13 14  1  0
 13 49  1  0
 13 50  1  0
 14 15  1  1
 14 16  1  0
 14 22  1  0
 16 17  1  1
 16 18  1  0
 16 32  1  0
 18 19  1  0
 18 51  1  0
 18 52  1  0
 19 20  1  0
 19 53  1  0
 19 54  1  0
 20 21  2  0
 20 22  1  0
 22 23  1  0
 23 24  1  0
 23 55  1  0
 23 56  1  0
 24 25  1  0
 24 57  1  0
 24 58  1  0
 25 26  2  0
 25 31  1  0
 26 27  1  0
 26 59  1  0
 27 28  2  0
 27 60  1  0
 28 29  1  0
 28 61  1  0
 29 30  1  0
 29 31  2  0
 31 62  1  0
 32 63  1  0
 32 64  1  0
 33 34  2  0
 33 65  1  0
 34 66  1  0
M  END

