
     RDKit          3D

 49 52  0  0  0  0  0  0  0  0999 V2000
    6.7396   -3.9605   -1.6792 C   0  0  0  0  0  0  0  0  0  0  0  0
    5.8275   -2.8572   -1.5739 O   0  0  0  0  0  0  0  0  0  0  0  0
    4.5786   -3.0247   -1.1898 C   0  0  0  0  0  0  0  0  0  0  0  0
    3.7973   -1.8172   -1.1369 C   0  0  0  0  0  0  0  0  0  0  0  0
    2.4778   -1.8971   -0.7469 C   0  0  0  0  0  0  0  0  0  0  0  0
    1.9179   -3.1448   -0.4079 C   0  0  0  0  0  0  0  0  0  0  0  0
    2.6916   -4.3486   -0.4597 C   0  0  0  0  0  0  0  0  0  0  0  0
    2.0885   -5.6457   -0.1057 C   0  0  0  0  0  0  0  0  0  0  0  0
    2.7627   -6.7850   -0.1792 N   0  0  0  0  0  0  0  0  0  0  0  0
    1.8619   -7.7486    0.1705 C   0  0  0  0  0  0  0  0  0  0  0  0
    2.0298   -9.1650   -0.0039 C   0  0  0  0  0  0  0  0  0  0  0  0
    0.9152  -10.0022   -0.3075 C   0  0  0  0  0  0  0  0  0  0  0  0
    1.0632  -11.3600   -0.5498 C   0  0  0  0  0  0  0  0  0  0  0  0
    2.3295  -11.9571   -0.4934 C   0  0  0  0  0  0  0  0  0  0  0  0
    3.4367  -11.1535   -0.1886 C   0  0  0  0  0  0  0  0  0  0  0  0
    3.3297   -9.7830    0.0546 C   0  0  0  0  0  0  0  0  0  0  0  0
    4.5755   -9.0110    0.4146 C   0  0  0  0  0  0  0  0  0  0  0  0
    0.6513   -7.0600    0.5209 N   0  0  0  0  0  0  0  0  0  0  0  0
   -0.4301   -7.4945    1.3146 C   0  0  0  0  0  0  0  0  0  0  0  0
   -0.4951   -8.6206    1.7793 O   0  0  0  0  0  0  0  0  0  0  0  0
   -1.3753   -6.4960    1.4769 N   0  0  0  0  0  0  0  0  0  0  0  0
   -2.5771   -6.5472    2.1854 C   0  0  0  0  0  0  0  0  0  0  0  0
   -3.0557   -7.7057    2.8318 C   0  0  0  0  0  0  0  0  0  0  0  0
   -4.2744   -7.6645    3.5120 C   0  0  0  0  0  0  0  0  0  0  0  0
   -5.0397   -6.4956    3.5706 C   0  0  0  0  0  0  0  0  0  0  0  0
   -4.5654   -5.3461    2.9297 C   0  0  0  0  0  0  0  0  0  0  0  0
   -3.3513   -5.3689    2.2460 C   0  0  0  0  0  0  0  0  0  0  0  0
    0.8154   -5.7096    0.2814 N   0  0  0  0  0  0  0  0  0  0  0  0
    4.0154   -4.2809   -0.8497 C   0  0  0  0  0  0  0  0  0  0  0  0
    7.6887   -3.5280   -2.0128 H   0  0  0  0  0  0  0  0  0  0  0  0
    6.3725   -4.6879   -2.4169 H   0  0  0  0  0  0  0  0  0  0  0  0
    6.8648   -4.4445   -0.7004 H   0  0  0  0  0  0  0  0  0  0  0  0
    4.2808   -0.8783   -1.4086 H   0  0  0  0  0  0  0  0  0  0  0  0
    1.8634   -0.9966   -0.6986 H   0  0  0  0  0  0  0  0  0  0  0  0
    0.8771   -3.2242   -0.0960 H   0  0  0  0  0  0  0  0  0  0  0  0
   -0.0784   -9.5641   -0.3686 H   0  0  0  0  0  0  0  0  0  0  0  0
    0.1806  -11.9599   -0.7894 H   0  0  0  0  0  0  0  0  0  0  0  0
    2.4551  -13.0271   -0.6745 H   0  0  0  0  0  0  0  0  0  0  0  0
    4.4276  -11.6142   -0.1236 H   0  0  0  0  0  0  0  0  0  0  0  0
    5.4127   -9.7006    0.6046 H   0  0  0  0  0  0  0  0  0  0  0  0
    4.4231   -8.3930    1.3146 H   0  0  0  0  0  0  0  0  0  0  0  0
    4.8719   -8.3121   -0.3831 H   0  0  0  0  0  0  0  0  0  0  0  0
   -1.1139   -5.6074    1.0618 H   0  0  0  0  0  0  0  0  0  0  0  0
   -2.4622   -8.6162    2.7900 H   0  0  0  0  0  0  0  0  0  0  0  0
   -4.6300   -8.5725    4.0073 H   0  0  0  0  0  0  0  0  0  0  0  0
   -5.9915   -6.4794    4.1067 H   0  0  0  0  0  0  0  0  0  0  0  0
   -5.1460   -4.4198    2.9603 H   0  0  0  0  0  0  0  0  0  0  0  0
   -2.9902   -4.4650    1.7458 H   0  0  0  0  0  0  0  0  0  0  0  0
    4.5826   -5.2097   -0.8846 H   0  0  0  0  0  0  0  0  0  0  0  0
  1  2  1  0
  1 30  1  0
  1 31  1  0
  1 32  1  0
  2  3  1  0
  3  4  2  0
  3 29  1  0
  4  5  1  0
  4 33  1  0
  5  6  2  0
  5 34  1  0
  6  7  1  0
  6 35  1  0
  7  8  1  0
  7 29  2  0
  8  9  1  0
  8 28  2  0
  9 10  2  0
 10 11  1  0
 10 18  1  0
 11 12  2  0
 11 16  1  0
 12 13  1  0
 12 36  1  0
 13 14  2  0
 13 37  1  0
 14 15  1  0
 14 38  1  0
 15 16  2  0
 15 39  1  0
 16 17  1  0
 17 40  1  0
 17 41  1  0
 17 42  1  0
 18 19  1  0
 18 28  1  0
 19 20  2  0
 19 21  1  0
 21 22  1  0
 21 43  1  0
 22 23  2  0
 22 27  1  0
 23 24  1  0
 23 44  1  0
 24 25  2  0
 24 45  1  0
 25 26  1  0
 25 46  1  0
 26 27  2  0
 26 47  1  0
 27 48  1  0
 29 49  1  0
M  END

