
     RDKit          3D

 46 47  0  0  0  0  0  0  0  0999 V2000
    6.5310    2.4951    2.6391 C   0  0  0  0  0  0  0  0  0  0  0  0
    6.5180    1.6006    1.5601 O   0  0  0  0  0  0  0  0  0  0  0  0
    6.9881    0.3147    1.8746 C   0  0  0  0  0  0  0  0  0  0  0  0
    6.8713   -0.5806    0.6344 C   0  0  1  0  0  0  0  0  0  0  0  0
    7.6444   -0.0260   -0.5597 C   0  0  0  0  0  0  0  0  0  0  0  0
    7.3099   -1.9326    0.9554 N   0  0  0  0  0  0  0  0  0  0  0  0
    6.4417   -2.9153    1.3614 C   0  0  0  0  0  0  0  0  0  0  0  0
    5.2409   -2.7099    1.4812 O   0  0  0  0  0  0  0  0  0  0  0  0
    7.0420   -4.2580    1.6384 C   0  0  0  0  0  0  0  0  0  0  0  0
    8.4049   -4.5156    1.8723 C   0  0  0  0  0  0  0  0  0  0  0  0
    8.8434   -5.8024    2.1413 C   0  0  0  0  0  0  0  0  0  0  0  0
    7.8900   -6.8594    2.1668 C   0  0  0  0  0  0  0  0  0  0  0  0
    8.2498   -8.1671    2.3831 N   0  0  0  0  0  0  0  0  0  0  0  0
    7.2380   -9.2184    2.4926 C   0  0  0  0  0  0  0  0  0  0  0  0
    6.8298   -9.5414    3.9349 C   0  0  0  0  0  0  0  0  0  0  0  0
    7.9814   -9.8688    4.9006 C   0  0  0  0  0  0  0  0  0  0  0  0
    8.9170   -8.6820    5.2022 C   0  0  0  0  0  0  0  0  0  0  0  0
   10.0293   -8.3983    4.1747 C   0  0  0  0  0  0  0  0  0  0  0  0
    9.6147   -8.5598    2.6967 C   0  0  0  0  0  0  0  0  0  0  0  0
    6.5803   -6.6066    1.9724 N   0  0  0  0  0  0  0  0  0  0  0  0
    6.1834   -5.3652    1.7249 C   0  0  0  0  0  0  0  0  0  0  0  0
    6.1373    3.4589    2.2841 H   0  0  0  0  0  0  0  0  0  0  0  0
    7.5557    2.6568    3.0332 H   0  0  0  0  0  0  0  0  0  0  0  0
    5.8973    2.1428    3.4782 H   0  0  0  0  0  0  0  0  0  0  0  0
    6.3955   -0.1347    2.6966 H   0  0  0  0  0  0  0  0  0  0  0  0
    8.0481    0.3513    2.2127 H   0  0  0  0  0  0  0  0  0  0  0  0
    5.8012   -0.6493    0.3860 H   0  0  0  0  0  0  0  0  0  0  0  0
    8.7293    0.0052   -0.3526 H   0  0  0  0  0  0  0  0  0  0  0  0
    7.3173    1.0011   -0.7710 H   0  0  0  0  0  0  0  0  0  0  0  0
    7.4807   -0.6437   -1.4562 H   0  0  0  0  0  0  0  0  0  0  0  0
    8.2724   -2.1755    0.7592 H   0  0  0  0  0  0  0  0  0  0  0  0
    9.1386   -3.7043    1.8800 H   0  0  0  0  0  0  0  0  0  0  0  0
    9.8979   -5.9821    2.3445 H   0  0  0  0  0  0  0  0  0  0  0  0
    7.6505  -10.1220    2.0097 H   0  0  0  0  0  0  0  0  0  0  0  0
    6.3566   -8.9005    1.9233 H   0  0  0  0  0  0  0  0  0  0  0  0
    6.1257  -10.3917    3.9014 H   0  0  0  0  0  0  0  0  0  0  0  0
    6.2607   -8.6848    4.3366 H   0  0  0  0  0  0  0  0  0  0  0  0
    8.5646  -10.7311    4.5252 H   0  0  0  0  0  0  0  0  0  0  0  0
    7.5356  -10.2067    5.8512 H   0  0  0  0  0  0  0  0  0  0  0  0
    9.3998   -8.8378    6.1815 H   0  0  0  0  0  0  0  0  0  0  0  0
    8.2948   -7.7779    5.3212 H   0  0  0  0  0  0  0  0  0  0  0  0
   10.8846   -9.0751    4.3476 H   0  0  0  0  0  0  0  0  0  0  0  0
   10.4126   -7.3795    4.3524 H   0  0  0  0  0  0  0  0  0  0  0  0
    9.7017   -9.6201    2.4138 H   0  0  0  0  0  0  0  0  0  0  0  0
   10.3219   -8.0213    2.0449 H   0  0  0  0  0  0  0  0  0  0  0  0
    5.1099   -5.2021    1.5822 H   0  0  0  0  0  0  0  0  0  0  0  0
  1  2  1  0
  1 22  1  0
  1 23  1  0
  1 24  1  0
  2  3  1  0
  3  4  1  0
  3 25  1  0
  3 26  1  0
  4  5  1  0
  4  6  1  0
  4 27  1  6
  5 28  1  0
  5 29  1  0
  5 30  1  0
  6  7  1  0
  6 31  1  0
  7  8  2  0
  7  9  1  0
  9 10  2  0
  9 21  1  0
 10 11  1  0
 10 32  1  0
 11 12  2  0
 11 33  1  0
 12 13  1  0
 12 20  1  0
 13 14  1  0
 13 19  1  0
 14 15  1  0
 14 34  1  0
 14 35  1  0
 15 16  1  0
 15 36  1  0
 15 37  1  0
 16 17  1  0
 16 38  1  0
 16 39  1  0
 17 18  1  0
 17 40  1  0
 17 41  1  0
 18 19  1  0
 18 42  1  0
 18 43  1  0
 19 44  1  0
 19 45  1  0
 20 21  2  0
 21 46  1  0
M  END

