
     RDKit          3D

 62 64  0  0  0  0  0  0  0  0999 V2000
    2.2037    0.5257    0.0638 C   0  0  0  0  0  0  0  0  0  0  0  0
    1.8131   -0.7051    0.8907 C   0  0  1  0  0  0  0  0  0  0  0  0
    1.1392   -0.3190    2.2127 C   0  0  0  0  0  0  0  0  0  0  0  0
    0.9058   -1.6319    0.0771 C   0  0  0  0  0  0  0  0  0  0  0  0
    2.9859   -1.5369    1.1451 O   0  0  0  0  0  0  0  0  0  0  0  0
    4.0490   -1.0733    1.8497 C   0  0  0  0  0  0  0  0  0  0  0  0
    4.1199    0.0453    2.3299 O   0  0  0  0  0  0  0  0  0  0  0  0
    5.0329   -2.0168    1.9522 N   0  0  0  0  0  0  0  0  0  0  0  0
    4.9603   -3.3735    1.4122 C   0  0  0  0  0  0  0  0  0  0  0  0
    6.1845   -3.6766    0.5397 C   0  0  0  0  0  0  0  0  0  0  0  0
    7.4962   -3.3998    1.2776 C   0  0  2  0  0  0  0  0  0  0  0  0
    7.5859   -4.3739    2.3251 O   0  0  0  0  0  0  0  0  0  0  0  0
    8.8113   -4.6943    2.8316 C   0  0  0  0  0  0  0  0  0  0  0  0
    8.8279   -5.6295    3.8654 C   0  0  0  0  0  0  0  0  0  0  0  0
   10.0289   -6.0472    4.4103 N   0  0  0  0  0  0  0  0  0  0  0  0
   11.1273   -5.4441    3.8916 C   0  0  0  0  0  0  0  0  0  0  0  0
   12.4190   -5.9242    4.5595 C   0  0  0  0  0  0  0  0  0  0  0  0
   11.9893   -6.3912    5.8770 N   0  0  0  0  0  0  0  0  0  0  0  0
   12.7097   -6.8359    6.8784 C   0  0  0  0  0  0  0  0  0  0  0  0
   14.1499   -6.8931    6.8753 C   0  0  0  0  0  0  0  0  0  0  0  0
   14.8317   -7.3510    7.9786 C   0  0  0  0  0  0  0  0  0  0  0  0
   14.1199   -7.7651    9.1295 C   0  0  0  0  0  0  0  0  0  0  0  0
   15.0405   -8.4072   10.5563 S   0  0  1  0  0  0  0  0  0  0  0  0
   15.3751   -6.9508   11.5642 C   0  0  0  0  0  0  0  0  0  0  0  0
   14.1155   -9.2662   11.3013 O   0  0  0  0  0  0  0  0  0  0  0  0
   16.3199   -8.8996   10.0359 O   0  0  0  0  0  0  0  0  0  0  0  0
   12.7212   -7.7652    9.1771 C   0  0  0  0  0  0  0  0  0  0  0  0
   12.0324   -7.2998    8.0764 C   0  0  0  0  0  0  0  0  0  0  0  0
   10.7136   -7.2702    8.0690 F   0  0  0  0  0  0  0  0  0  0  0  0
   11.0819   -4.4980    2.8981 C   0  0  0  0  0  0  0  0  0  0  0  0
    9.8941   -4.1057    2.3140 N   0  0  0  0  0  0  0  0  0  0  0  0
    7.4967   -1.9770    1.8529 C   0  0  0  0  0  0  0  0  0  0  0  0
    6.2512   -1.7068    2.7006 C   0  0  0  0  0  0  0  0  0  0  0  0
    1.2994    1.0864   -0.2214 H   0  0  0  0  0  0  0  0  0  0  0  0
    2.7186    0.2166   -0.8597 H   0  0  0  0  0  0  0  0  0  0  0  0
    2.8679    1.1858    0.6352 H   0  0  0  0  0  0  0  0  0  0  0  0
    0.1961    0.2127    2.0095 H   0  0  0  0  0  0  0  0  0  0  0  0
    1.7925    0.3288    2.8102 H   0  0  0  0  0  0  0  0  0  0  0  0
    0.9034   -1.2220    2.7977 H   0  0  0  0  0  0  0  0  0  0  0  0
   -0.0295   -1.1155   -0.1879 H   0  0  0  0  0  0  0  0  0  0  0  0
    0.6544   -2.5341    0.6555 H   0  0  0  0  0  0  0  0  0  0  0  0
    1.4060   -1.9459   -0.8518 H   0  0  0  0  0  0  0  0  0  0  0  0
    4.0332   -3.4800    0.8405 H   0  0  0  0  0  0  0  0  0  0  0  0
    4.9292   -4.0937    2.2502 H   0  0  0  0  0  0  0  0  0  0  0  0
    6.1525   -3.0469   -0.3656 H   0  0  0  0  0  0  0  0  0  0  0  0
    6.1593   -4.7299    0.2173 H   0  0  0  0  0  0  0  0  0  0  0  0
    8.3593   -3.5227    0.6079 H   0  0  0  0  0  0  0  0  0  0  0  0
    7.9013   -6.0664    4.2372 H   0  0  0  0  0  0  0  0  0  0  0  0
   13.1813   -5.1365    4.6527 H   0  0  0  0  0  0  0  0  0  0  0  0
   12.8730   -6.7777    4.0232 H   0  0  0  0  0  0  0  0  0  0  0  0
   10.9042   -6.4392    5.7758 H   0  0  0  0  0  0  0  0  0  0  0  0
   14.6868   -6.5735    5.9832 H   0  0  0  0  0  0  0  0  0  0  0  0
   15.9208   -7.4209    7.9777 H   0  0  0  0  0  0  0  0  0  0  0  0
   14.4257   -6.5058   11.8883 H   0  0  0  0  0  0  0  0  0  0  0  0
   15.9890   -6.2425   10.9931 H   0  0  0  0  0  0  0  0  0  0  0  0
   15.9355   -7.3339   12.4293 H   0  0  0  0  0  0  0  0  0  0  0  0
   12.1842   -8.1343   10.0525 H   0  0  0  0  0  0  0  0  0  0  0  0
   11.9936   -4.0194    2.5259 H   0  0  0  0  0  0  0  0  0  0  0  0
    7.5325   -1.2609    1.0134 H   0  0  0  0  0  0  0  0  0  0  0  0
    8.4105   -1.8311    2.4474 H   0  0  0  0  0  0  0  0  0  0  0  0
    6.1943   -0.6574    3.0121 H   0  0  0  0  0  0  0  0  0  0  0  0
    6.2833   -2.3335    3.6108 H   0  0  0  0  0  0  0  0  0  0  0  0
  1  2  1  0
  1 34  1  0
  1 35  1  0
  1 36  1  0
  2  3  1  0
  2  4  1  0
  2  5  1  1
  3 37  1  0
  3 38  1  0
  3 39  1  0
  4 40  1  0
  4 41  1  0
  4 42  1  0
  5  6  1  0
  6  7  2  0
  6  8  1  0
  8  9  1  0
  8 33  1  0
  9 10  1  0
  9 43  1  0
  9 44  1  0
 10 11  1  0
 10 45  1  0
 10 46  1  0
 11 12  1  0
 11 32  1  0
 11 47  1  6
 12 13  1  0
 13 14  2  0
 13 31  1  0
 14 15  1  0
 14 48  1  0
 15 16  2  0
 16 17  1  0
 16 30  1  0
 17 18  1  0
 17 49  1  0
 17 50  1  0
 18 19  1  0
 18 51  1  0
 19 20  2  0
 19 28  1  0
 20 21  1  0
 20 52  1  0
 21 22  2  0
 21 53  1  0
 22 23  1  0
 22 27  1  0
 23 24  1  1
 23 25  2  0
 23 26  2  0
 24 54  1  0
 24 55  1  0
 24 56  1  0
 27 28  2  0
 27 57  1  0
 28 29  1  0
 30 31  2  0
 30 58  1  0
 32 33  1  0
 32 59  1  0
 32 60  1  0
 33 61  1  0
 33 62  1  0
M  END

