
     RDKit          3D

 52 55  0  0  0  0  0  0  0  0999 V2000
    6.9780    0.9388    3.9420 O   0  0  0  0  0  0  0  0  0  0  0  0
    6.4738    1.9675    4.3770 C   0  0  0  0  0  0  0  0  0  0  0  0
    5.2325    2.3938    4.0422 N   0  0  0  0  0  0  0  0  0  0  0  0
    4.4255    1.6991    3.0633 C   0  0  0  0  0  0  0  0  0  0  0  0
    3.5241    2.6648    2.2628 C   0  0  2  0  0  0  0  0  0  0  0  0
    2.9145    2.0028    1.6098 H   0  0  0  0  0  0  0  0  0  0  0  0
    4.3808    3.5210    1.3327 C   0  0  0  0  0  0  0  0  0  0  0  0
    5.0644    4.6596    1.7911 C   0  0  0  0  0  0  0  0  0  0  0  0
    5.8938    5.3923    0.9400 C   0  0  0  0  0  0  0  0  0  0  0  0
    6.0498    4.9867   -0.3888 C   0  0  0  0  0  0  0  0  0  0  0  0
    7.0870    5.9042   -1.4606 Cl  0  0  0  0  0  0  0  0  0  0  0  0
    5.3806    3.8599   -0.8702 C   0  0  0  0  0  0  0  0  0  0  0  0
    4.5519    3.1401   -0.0056 C   0  0  0  0  0  0  0  0  0  0  0  0
    2.6966    3.4929    3.1501 N   0  0  0  0  0  0  0  0  0  0  0  0
    1.8024    4.4315    2.4585 C   0  0  0  0  0  0  0  0  0  0  0  0
    0.5494    3.7669    1.8621 C   0  0  0  0  0  0  0  0  0  0  0  0
   -0.2217    2.9864    2.9350 C   0  0  0  0  0  0  0  0  0  0  0  0
    0.7125    2.0385    3.7007 C   0  0  0  0  0  0  0  0  0  0  0  0
    1.9511    2.7980    4.2068 C   0  0  0  0  0  0  0  0  0  0  0  0
    7.2514    2.8402    5.3416 C   0  0  0  0  0  0  0  0  0  0  0  0
    8.4833    2.3994    5.7250 C   0  0  0  0  0  0  0  0  0  0  0  0
    9.3148    3.1532    6.6184 C   0  0  0  0  0  0  0  0  0  0  0  0
   10.5961    2.7437    7.0472 C   0  0  0  0  0  0  0  0  0  0  0  0
   11.3363    3.5398    7.9114 C   0  0  0  0  0  0  0  0  0  0  0  0
   10.8083    4.7630    8.3636 C   0  0  0  0  0  0  0  0  0  0  0  0
    9.5471    5.1914    7.9569 C   0  0  0  0  0  0  0  0  0  0  0  0
    8.8075    4.3833    7.0870 C   0  0  0  0  0  0  0  0  0  0  0  0
    7.5801    4.8165    6.7017 O   0  0  0  0  0  0  0  0  0  0  0  0
    6.7441    4.1217    5.8497 C   0  0  0  0  0  0  0  0  0  0  0  0
    5.6743    4.6309    5.5985 O   0  0  0  0  0  0  0  0  0  0  0  0
    4.8868    3.2611    4.4540 H   0  0  0  0  0  0  0  0  0  0  0  0
    3.8095    0.9160    3.5414 H   0  0  0  0  0  0  0  0  0  0  0  0
    5.0990    1.1730    2.3723 H   0  0  0  0  0  0  0  0  0  0  0  0
    4.9370    4.9857    2.8249 H   0  0  0  0  0  0  0  0  0  0  0  0
    6.4195    6.2778    1.3016 H   0  0  0  0  0  0  0  0  0  0  0  0
    5.5050    3.5549   -1.9106 H   0  0  0  0  0  0  0  0  0  0  0  0
    4.0262    2.2597   -0.3874 H   0  0  0  0  0  0  0  0  0  0  0  0
    2.3627    4.9660    1.6791 H   0  0  0  0  0  0  0  0  0  0  0  0
    1.4883    5.1914    3.1973 H   0  0  0  0  0  0  0  0  0  0  0  0
    0.8439    3.0855    1.0438 H   0  0  0  0  0  0  0  0  0  0  0  0
   -0.0932    4.5377    1.4033 H   0  0  0  0  0  0  0  0  0  0  0  0
   -1.0637    2.4316    2.4882 H   0  0  0  0  0  0  0  0  0  0  0  0
   -0.6671    3.7029    3.6506 H   0  0  0  0  0  0  0  0  0  0  0  0
    1.0261    1.2077    3.0427 H   0  0  0  0  0  0  0  0  0  0  0  0
    0.1863    1.5764    4.5534 H   0  0  0  0  0  0  0  0  0  0  0  0
    2.6181    2.1306    4.7701 H   0  0  0  0  0  0  0  0  0  0  0  0
    1.6237    3.5708    4.9261 H   0  0  0  0  0  0  0  0  0  0  0  0
    8.8232    1.4426    5.3187 H   0  0  0  0  0  0  0  0  0  0  0  0
   10.9930    1.7916    6.6862 H   0  0  0  0  0  0  0  0  0  0  0  0
   12.3271    3.2191    8.2398 H   0  0  0  0  0  0  0  0  0  0  0  0
   11.3931    5.3882    9.0428 H   0  0  0  0  0  0  0  0  0  0  0  0
    9.1196    6.1366    8.2955 H   0  0  0  0  0  0  0  0  0  0  0  0
  1  2  2  0
  2  3  1  0
  2 20  1  0
  3  4  1  0
  3 31  1  0
  4  5  1  0
  4 32  1  0
  4 33  1  0
  5  6  1  6
  5  7  1  0
  5 14  1  0
  7  8  2  0
  7 13  1  0
  8  9  1  0
  8 34  1  0
  9 10  2  0
  9 35  1  0
 10 11  1  0
 10 12  1  0
 12 13  2  0
 12 36  1  0
 13 37  1  0
 14 15  1  0
 14 19  1  0
 15 16  1  0
 15 38  1  0
 15 39  1  0
 16 17  1  0
 16 40  1  0
 16 41  1  0
 17 18  1  0
 17 42  1  0
 17 43  1  0
 18 19  1  0
 18 44  1  0
 18 45  1  0
 19 46  1  0
 19 47  1  0
 20 21  2  0
 20 29  1  0
 21 22  1  0
 21 48  1  0
 22 23  2  0
 22 27  1  0
 23 24  1  0
 23 49  1  0
 24 25  2  0
 24 50  1  0
 25 26  1  0
 25 51  1  0
 26 27  2  0
 26 52  1  0
 27 28  1  0
 28 29  1  0
 29 30  2  0
M  END

