
     RDKit          3D

 46 48  0  0  0  0  0  0  0  0999 V2000
    1.6873    0.8110    0.3336 N   0  0  0  0  0  0  0  0  0  0  0  0
    2.7543   -0.0501    0.1068 C   0  0  0  0  0  0  0  0  0  0  0  0
    3.5683   -0.5001    0.9938 N   0  0  0  0  0  0  0  0  0  0  0  0
    3.3154   -0.1981    2.3858 C   0  0  0  0  0  0  0  0  0  0  0  0
    2.1664   -1.0188    3.0229 C   0  0  1  0  0  0  0  0  0  0  0  0
    1.5075   -1.3773    2.2112 H   0  0  0  0  0  0  0  0  0  0  0  0
    2.5656   -2.2198    3.8921 C   0  0  0  0  0  0  0  0  0  0  0  0
    1.2967   -2.5586    4.7176 C   0  0  0  0  0  0  0  0  0  0  0  0
    0.4143   -1.2787    4.6781 C   0  0  0  0  0  0  0  0  0  0  0  0
    1.2684   -0.2145    3.9650 C   0  0  2  0  0  0  0  0  0  0  0  0
    1.9097    0.3142    4.7000 H   0  0  0  0  0  0  0  0  0  0  0  0
    0.5247    0.7350    3.2084 O   0  0  0  0  0  0  0  0  0  0  0  0
    2.9211   -0.4194   -1.2377 N   0  0  0  0  0  0  0  0  0  0  0  0
    3.9930   -1.3623   -1.5367 C   0  0  0  0  0  0  0  0  0  0  0  0
    3.7319   -2.0542   -2.8736 C   0  0  0  0  0  0  0  0  0  0  0  0
    3.5106   -1.0765   -3.9320 N   0  0  0  0  0  0  0  0  0  0  0  0
    4.1155   -1.1624   -5.1560 C   0  0  0  0  0  0  0  0  0  0  0  0
    5.0018   -2.1635   -5.3490 N   0  0  0  0  0  0  0  0  0  0  0  0
    5.5953   -2.2226   -6.5346 C   0  0  0  0  0  0  0  0  0  0  0  0
    5.3369   -1.3114   -7.5626 C   0  0  0  0  0  0  0  0  0  0  0  0
    4.3978   -0.3212   -7.2606 C   0  0  0  0  0  0  0  0  0  0  0  0
    3.7882   -0.2367   -6.0845 N   0  0  0  0  0  0  0  0  0  0  0  0
    2.4883   -0.0853   -3.6353 C   0  0  0  0  0  0  0  0  0  0  0  0
    2.7670    0.5837   -2.2902 C   0  0  0  0  0  0  0  0  0  0  0  0
    1.3776    0.9211    1.2979 H   0  0  0  0  0  0  0  0  0  0  0  0
    0.9074    0.7140   -0.3071 H   0  0  0  0  0  0  0  0  0  0  0  0
    3.0979    0.8804    2.5345 H   0  0  0  0  0  0  0  0  0  0  0  0
    4.2431   -0.3916    2.9518 H   0  0  0  0  0  0  0  0  0  0  0  0
    3.3897   -1.9208    4.5632 H   0  0  0  0  0  0  0  0  0  0  0  0
    2.9347   -3.0674    3.2954 H   0  0  0  0  0  0  0  0  0  0  0  0
    1.5529   -2.8553    5.7462 H   0  0  0  0  0  0  0  0  0  0  0  0
    0.7553   -3.4093    4.2757 H   0  0  0  0  0  0  0  0  0  0  0  0
    0.0783   -0.9552    5.6763 H   0  0  0  0  0  0  0  0  0  0  0  0
   -0.4882   -1.4398    4.0669 H   0  0  0  0  0  0  0  0  0  0  0  0
    0.1169    1.3727    3.8075 H   0  0  0  0  0  0  0  0  0  0  0  0
    4.0475   -2.0964   -0.7240 H   0  0  0  0  0  0  0  0  0  0  0  0
    4.9748   -0.8467   -1.5666 H   0  0  0  0  0  0  0  0  0  0  0  0
    2.8368   -2.7003   -2.7794 H   0  0  0  0  0  0  0  0  0  0  0  0
    4.5812   -2.6853   -3.1574 H   0  0  0  0  0  0  0  0  0  0  0  0
    6.3145   -3.0394   -6.6781 H   0  0  0  0  0  0  0  0  0  0  0  0
    5.8298   -1.3715   -8.5335 H   0  0  0  0  0  0  0  0  0  0  0  0
    4.1246    0.4372   -8.0057 H   0  0  0  0  0  0  0  0  0  0  0  0
    1.4960   -0.5776   -3.5937 H   0  0  0  0  0  0  0  0  0  0  0  0
    2.4732    0.6536   -4.4443 H   0  0  0  0  0  0  0  0  0  0  0  0
    1.9466    1.2709   -2.0479 H   0  0  0  0  0  0  0  0  0  0  0  0
    3.6887    1.1982   -2.3773 H   0  0  0  0  0  0  0  0  0  0  0  0
  1  2  1  0
  1 25  1  0
  1 26  1  0
  2  3  2  0
  2 13  1  0
  3  4  1  0
  4  5  1  0
  4 27  1  0
  4 28  1  0
  5  6  1  6
  5  7  1  0
  5 10  1  0
  7  8  1  0
  7 29  1  0
  7 30  1  0
  8  9  1  0
  8 31  1  0
  8 32  1  0
  9 10  1  0
  9 33  1  0
  9 34  1  0
 10 11  1  1
 10 12  1  0
 12 35  1  0
 13 14  1  0
 13 24  1  0
 14 15  1  0
 14 36  1  0
 14 37  1  0
 15 16  1  0
 15 38  1  0
 15 39  1  0
 16 17  1  0
 16 23  1  0
 17 18  2  0
 17 22  1  0
 18 19  1  0
 19 20  2  0
 19 40  1  0
 20 21  1  0
 20 41  1  0
 21 22  2  0
 21 42  1  0
 23 24  1  0
 23 43  1  0
 23 44  1  0
 24 45  1  0
 24 46  1  0
M  END

