
     RDKit          3D

 59 63  0  0  0  0  0  0  0  0999 V2000
    3.9530    3.0648   -0.9880 C   0  0  0  0  0  0  0  0  0  0  0  0
    3.9619    1.5531   -0.7626 C   0  0  0  0  0  0  0  0  0  0  0  0
    4.7903    1.1443    0.4464 C   0  0  0  0  0  0  0  0  0  0  0  0
    4.7338   -0.2651    0.5680 O   0  0  0  0  0  0  0  0  0  0  0  0
    5.4006   -0.8810    1.5809 C   0  0  0  0  0  0  0  0  0  0  0  0
    6.1680   -0.2254    2.5556 C   0  0  0  0  0  0  0  0  0  0  0  0
    6.8141   -0.9532    3.5554 C   0  0  0  0  0  0  0  0  0  0  0  0
    6.7270   -2.3641    3.6331 C   0  0  0  0  0  0  0  0  0  0  0  0
    7.4139   -3.1036    4.6831 C   0  0  0  0  0  0  0  0  0  0  0  0
    7.4285   -4.4844    4.9904 C   0  0  0  0  0  0  0  0  0  0  0  0
    6.8137   -5.5922    4.3296 N   0  0  0  0  0  0  0  0  0  0  0  0
    7.5703   -6.4283    3.3819 C   0  0  0  0  0  0  0  0  0  0  0  0
    6.6143   -7.5759    3.0002 C   0  0  0  0  0  0  0  0  0  0  0  0
    5.4420   -7.3731    3.9212 C   0  0  0  0  0  0  0  0  0  0  0  0
    4.2952   -8.1141    4.1293 C   0  0  0  0  0  0  0  0  0  0  0  0
    3.3563   -7.6572    5.0734 C   0  0  0  0  0  0  0  0  0  0  0  0
    3.5671   -6.4630    5.8060 C   0  0  0  0  0  0  0  0  0  0  0  0
    4.7047   -5.7021    5.6230 C   0  0  0  0  0  0  0  0  0  0  0  0
    5.6541   -6.1647    4.6696 C   0  0  0  0  0  0  0  0  0  0  0  0
    8.2980   -4.7729    6.1002 C   0  0  0  0  0  0  0  0  0  0  0  0
    8.5874   -5.8641    6.6113 O   0  0  0  0  0  0  0  0  0  0  0  0
    8.7834   -3.5261    6.5011 N   0  0  0  0  0  0  0  0  0  0  0  0
    9.7213   -3.3316    7.5901 C   0  0  0  0  0  0  0  0  0  0  0  0
   11.1773   -3.4023    7.1645 C   0  0  0  0  0  0  0  0  0  0  0  0
   11.8515   -2.2516    6.7266 C   0  0  0  0  0  0  0  0  0  0  0  0
   13.1868   -2.3130    6.3196 C   0  0  0  0  0  0  0  0  0  0  0  0
   13.8432   -3.5410    6.3504 C   0  0  0  0  0  0  0  0  0  0  0  0
   15.1298   -3.6075    5.9633 F   0  0  0  0  0  0  0  0  0  0  0  0
   13.2000   -4.7033    6.7692 C   0  0  0  0  0  0  0  0  0  0  0  0
   11.8645   -4.6260    7.1728 C   0  0  0  0  0  0  0  0  0  0  0  0
    8.2978   -2.4862    5.6924 C   0  0  0  0  0  0  0  0  0  0  0  0
    8.6037   -1.3029    5.8709 O   0  0  0  0  0  0  0  0  0  0  0  0
    5.9459   -2.9989    2.6325 C   0  0  0  0  0  0  0  0  0  0  0  0
    5.2999   -2.2818    1.6344 C   0  0  0  0  0  0  0  0  0  0  0  0
    3.3476    3.3309   -1.8682 H   0  0  0  0  0  0  0  0  0  0  0  0
    4.9705    3.4558   -1.1560 H   0  0  0  0  0  0  0  0  0  0  0  0
    3.5310    3.6017   -0.1219 H   0  0  0  0  0  0  0  0  0  0  0  0
    4.3620    1.0337   -1.6499 H   0  0  0  0  0  0  0  0  0  0  0  0
    2.9337    1.1787   -0.6222 H   0  0  0  0  0  0  0  0  0  0  0  0
    4.3984    1.6246    1.3643 H   0  0  0  0  0  0  0  0  0  0  0  0
    5.8399    1.4772    0.3271 H   0  0  0  0  0  0  0  0  0  0  0  0
    6.2736    0.8600    2.5484 H   0  0  0  0  0  0  0  0  0  0  0  0
    7.4110   -0.4343    4.3048 H   0  0  0  0  0  0  0  0  0  0  0  0
    8.4696   -6.7755    3.9153 H   0  0  0  0  0  0  0  0  0  0  0  0
    7.8958   -5.8067    2.5347 H   0  0  0  0  0  0  0  0  0  0  0  0
    7.0756   -8.5667    3.1367 H   0  0  0  0  0  0  0  0  0  0  0  0
    6.2978   -7.5160    1.9451 H   0  0  0  0  0  0  0  0  0  0  0  0
    4.1153   -9.0393    3.5779 H   0  0  0  0  0  0  0  0  0  0  0  0
    2.4464   -8.2347    5.2477 H   0  0  0  0  0  0  0  0  0  0  0  0
    2.8149   -6.1449    6.5303 H   0  0  0  0  0  0  0  0  0  0  0  0
    4.8947   -4.7842    6.1761 H   0  0  0  0  0  0  0  0  0  0  0  0
    9.5141   -4.1096    8.3388 H   0  0  0  0  0  0  0  0  0  0  0  0
    9.5069   -2.3465    8.0284 H   0  0  0  0  0  0  0  0  0  0  0  0
   11.3127   -1.3016    6.6891 H   0  0  0  0  0  0  0  0  0  0  0  0
   13.7245   -1.4259    5.9782 H   0  0  0  0  0  0  0  0  0  0  0  0
   13.7487   -5.6475    6.7737 H   0  0  0  0  0  0  0  0  0  0  0  0
   11.3358   -5.5304    7.4848 H   0  0  0  0  0  0  0  0  0  0  0  0
    5.8385   -4.0830    2.6264 H   0  0  0  0  0  0  0  0  0  0  0  0
    4.7040   -2.7873    0.8713 H   0  0  0  0  0  0  0  0  0  0  0  0
  1  2  1  0
  1 35  1  0
  1 36  1  0
  1 37  1  0
  2  3  1  0
  2 38  1  0
  2 39  1  0
  3  4  1  0
  3 40  1  0
  3 41  1  0
  4  5  1  0
  5  6  2  0
  5 34  1  0
  6  7  1  0
  6 42  1  0
  7  8  2  0
  7 43  1  0
  8  9  1  0
  8 33  1  0
  9 10  2  0
  9 31  1  0
 10 11  1  0
 10 20  1  0
 11 12  1  0
 11 19  1  0
 12 13  1  0
 12 44  1  0
 12 45  1  0
 13 14  1  0
 13 46  1  0
 13 47  1  0
 14 15  1  0
 14 19  2  0
 15 16  2  0
 15 48  1  0
 16 17  1  0
 16 49  1  0
 17 18  2  0
 17 50  1  0
 18 19  1  0
 18 51  1  0
 20 21  2  0
 20 22  1  0
 22 23  1  0
 22 31  1  0
 23 24  1  0
 23 52  1  0
 23 53  1  0
 24 25  2  0
 24 30  1  0
 25 26  1  0
 25 54  1  0
 26 27  2  0
 26 55  1  0
 27 28  1  0
 27 29  1  0
 29 30  2  0
 29 56  1  0
 30 57  1  0
 31 32  2  0
 33 34  2  0
 33 58  1  0
 34 59  1  0
M  END

