
     RDKit          3D

 40 42  0  0  0  0  0  0  0  0999 V2000
    2.8636   -0.0375    2.8783 C   0  0  0  0  0  0  0  0  0  0  0  0
    4.1245    0.0806    2.2150 O   0  0  0  0  0  0  0  0  0  0  0  0
    4.2089   -0.4662    0.9915 C   0  0  0  0  0  0  0  0  0  0  0  0
    3.2823   -1.0149    0.4424 O   0  0  0  0  0  0  0  0  0  0  0  0
    5.6034   -0.3487    0.4102 C   0  0  0  0  0  0  0  0  0  0  0  0
    5.5842   -0.1350   -1.1159 C   0  0  0  0  0  0  0  0  0  0  0  0
    6.9031   -0.4002   -1.7800 C   0  0  0  0  0  0  0  0  0  0  0  0
    7.9270    0.5558   -2.0510 C   0  0  0  0  0  0  0  0  0  0  0  0
    8.9702    0.0286   -2.6418 N   0  0  0  0  0  0  0  0  0  0  0  0
    8.6718   -1.3069   -2.7785 O   0  0  0  0  0  0  0  0  0  0  0  0
    7.4453   -1.5750   -2.2697 C   0  0  0  0  0  0  0  0  0  0  0  0
    6.9974   -2.9663   -2.3715 C   0  0  0  0  0  0  0  0  0  0  0  0
    7.7505   -3.8888   -3.1268 C   0  0  0  0  0  0  0  0  0  0  0  0
    7.3502   -5.2161   -3.2412 C   0  0  0  0  0  0  0  0  0  0  0  0
    6.1822   -5.6888   -2.6113 C   0  0  0  0  0  0  0  0  0  0  0  0
    5.7578   -7.1075   -2.7326 C   0  0  0  0  0  0  0  0  0  0  0  0
    6.7071   -8.1465   -2.7890 C   0  0  0  0  0  0  0  0  0  0  0  0
    6.3088   -9.4801   -2.8977 C   0  0  0  0  0  0  0  0  0  0  0  0
    4.9508   -9.8079   -2.9542 C   0  0  0  0  0  0  0  0  0  0  0  0
    3.9955   -8.7884   -2.9011 C   0  0  0  0  0  0  0  0  0  0  0  0
    4.3941   -7.4549   -2.7914 C   0  0  0  0  0  0  0  0  0  0  0  0
    5.4348   -4.7640   -1.8586 C   0  0  0  0  0  0  0  0  0  0  0  0
    5.8293   -3.4333   -1.7366 C   0  0  0  0  0  0  0  0  0  0  0  0
    2.9818    0.4584    3.8495 H   0  0  0  0  0  0  0  0  0  0  0  0
    2.5936   -1.0950    3.0191 H   0  0  0  0  0  0  0  0  0  0  0  0
    2.0681    0.4493    2.2942 H   0  0  0  0  0  0  0  0  0  0  0  0
    6.1159   -1.2978    0.6485 H   0  0  0  0  0  0  0  0  0  0  0  0
    6.1628    0.4416    0.9309 H   0  0  0  0  0  0  0  0  0  0  0  0
    5.2795    0.9034   -1.3260 H   0  0  0  0  0  0  0  0  0  0  0  0
    4.7989   -0.7704   -1.5494 H   0  0  0  0  0  0  0  0  0  0  0  0
    7.9195    1.6255   -1.8348 H   0  0  0  0  0  0  0  0  0  0  0  0
    8.6538   -3.5490   -3.6348 H   0  0  0  0  0  0  0  0  0  0  0  0
    7.9445   -5.8961   -3.8554 H   0  0  0  0  0  0  0  0  0  0  0  0
    7.7711   -7.9090   -2.7203 H   0  0  0  0  0  0  0  0  0  0  0  0
    7.0647  -10.2691   -2.9301 H   0  0  0  0  0  0  0  0  0  0  0  0
    4.6387  -10.8518   -3.0394 H   0  0  0  0  0  0  0  0  0  0  0  0
    2.9310   -9.0316   -2.9537 H   0  0  0  0  0  0  0  0  0  0  0  0
    3.6363   -6.6683   -2.7765 H   0  0  0  0  0  0  0  0  0  0  0  0
    4.5377   -5.0954   -1.3316 H   0  0  0  0  0  0  0  0  0  0  0  0
    5.2182   -2.7697   -1.1259 H   0  0  0  0  0  0  0  0  0  0  0  0
  1  2  1  0
  1 24  1  0
  1 25  1  0
  1 26  1  0
  2  3  1  0
  3  4  2  0
  3  5  1  0
  5  6  1  0
  5 27  1  0
  5 28  1  0
  6  7  1  0
  6 29  1  0
  6 30  1  0
  7  8  1  0
  7 11  2  0
  8  9  2  0
  8 31  1  0
  9 10  1  0
 10 11  1  0
 11 12  1  0
 12 13  2  0
 12 23  1  0
 13 14  1  0
 13 32  1  0
 14 15  2  0
 14 33  1  0
 15 16  1  0
 15 22  1  0
 16 17  2  0
 16 21  1  0
 17 18  1  0
 17 34  1  0
 18 19  2  0
 18 35  1  0
 19 20  1  0
 19 36  1  0
 20 21  2  0
 20 37  1  0
 21 38  1  0
 22 23  2  0
 22 39  1  0
 23 40  1  0
M  END

