
     RDKit          3D

 47 48  0  0  0  0  0  0  0  0999 V2000
    4.3021    0.9907    2.8022 C   0  0  0  0  0  0  0  0  0  0  0  0
    3.6232   -0.1125    2.2434 O   0  0  0  0  0  0  0  0  0  0  0  0
    2.2842   -0.2600    2.4634 C   0  0  0  0  0  0  0  0  0  0  0  0
    1.5082    0.6753    3.1634 C   0  0  0  0  0  0  0  0  0  0  0  0
    0.1370    0.4649    3.3394 C   0  0  0  0  0  0  0  0  0  0  0  0
   -0.4553   -0.6831    2.8162 C   0  0  0  0  0  0  0  0  0  0  0  0
   -2.3272   -0.9754    3.0537 Br  0  0  0  0  0  0  0  0  0  0  0  0
    0.3115   -1.6245    2.1242 C   0  0  0  0  0  0  0  0  0  0  0  0
    1.6854   -1.4290    1.9414 C   0  0  0  0  0  0  0  0  0  0  0  0
    2.4978   -2.4615    1.1767 C   0  0  0  0  0  0  0  0  0  0  0  0
    2.3830   -2.3550   -0.2780 N   0  0  0  0  0  0  0  0  0  0  0  0
    3.1045   -1.3025   -0.9680 C   0  0  0  0  0  0  0  0  0  0  0  0
    1.4471   -3.1580   -0.9079 C   0  0  0  0  0  0  0  0  0  0  0  0
    0.7705   -3.9843   -0.3001 O   0  0  0  0  0  0  0  0  0  0  0  0
    1.3318   -2.9958   -2.2712 N   0  0  0  0  0  0  0  0  0  0  0  0
    0.2915   -3.7024   -3.0236 C   0  0  1  0  0  0  0  0  0  0  0  0
    0.0628   -3.0100   -4.3762 C   0  0  0  0  0  0  0  0  0  0  0  0
    1.2274   -3.1999   -5.3622 C   0  0  0  0  0  0  0  0  0  0  0  0
    1.5890   -4.6824   -5.5564 C   0  0  2  0  0  0  0  0  0  0  0  0
    0.5336   -5.3957   -6.4164 C   0  0  0  0  0  0  0  0  0  0  0  0
   -0.3377   -4.8339   -7.0240 O   0  0  0  0  0  0  0  0  0  0  0  0
    0.6539   -6.7405   -6.5006 O   0  0  0  0  0  0  0  0  0  0  0  0
    1.8366   -5.3576   -4.1879 C   0  0  0  0  0  0  0  0  0  0  0  0
    0.6505   -5.1874   -3.2342 C   0  0  0  0  0  0  0  0  0  0  0  0
    5.3593    0.8805    2.5255 H   0  0  0  0  0  0  0  0  0  0  0  0
    4.2201    1.0066    3.9035 H   0  0  0  0  0  0  0  0  0  0  0  0
    3.9268    1.9505    2.4038 H   0  0  0  0  0  0  0  0  0  0  0  0
    1.9574    1.5783    3.5767 H   0  0  0  0  0  0  0  0  0  0  0  0
   -0.4616    1.1972    3.8839 H   0  0  0  0  0  0  0  0  0  0  0  0
   -0.1480   -2.5246    1.7108 H   0  0  0  0  0  0  0  0  0  0  0  0
    2.1449   -3.4646    1.4436 H   0  0  0  0  0  0  0  0  0  0  0  0
    3.5581   -2.3781    1.4518 H   0  0  0  0  0  0  0  0  0  0  0  0
    3.8009   -0.8285   -0.2649 H   0  0  0  0  0  0  0  0  0  0  0  0
    2.4395   -0.5060   -1.3541 H   0  0  0  0  0  0  0  0  0  0  0  0
    3.6959   -1.6999   -1.8126 H   0  0  0  0  0  0  0  0  0  0  0  0
    1.7765   -2.2052   -2.7168 H   0  0  0  0  0  0  0  0  0  0  0  0
   -0.6357   -3.6630   -2.4289 H   0  0  0  0  0  0  0  0  0  0  0  0
   -0.1342   -1.9354   -4.2197 H   0  0  0  0  0  0  0  0  0  0  0  0
   -0.8490   -3.4294   -4.8279 H   0  0  0  0  0  0  0  0  0  0  0  0
    2.1289   -2.6718   -5.0046 H   0  0  0  0  0  0  0  0  0  0  0  0
    0.9632   -2.7558   -6.3326 H   0  0  0  0  0  0  0  0  0  0  0  0
    2.5214   -4.7456   -6.1496 H   0  0  0  0  0  0  0  0  0  0  0  0
    1.3867   -7.0485   -5.9485 H   0  0  0  0  0  0  0  0  0  0  0  0
    2.7306   -4.8952   -3.7376 H   0  0  0  0  0  0  0  0  0  0  0  0
    2.0926   -6.4276   -4.2953 H   0  0  0  0  0  0  0  0  0  0  0  0
    0.8637   -5.6399   -2.2552 H   0  0  0  0  0  0  0  0  0  0  0  0
   -0.2376   -5.7053   -3.6384 H   0  0  0  0  0  0  0  0  0  0  0  0
  1  2  1  0
  1 25  1  0
  1 26  1  0
  1 27  1  0
  2  3  1  0
  3  4  2  0
  3  9  1  0
  4  5  1  0
  4 28  1  0
  5  6  2  0
  5 29  1  0
  6  7  1  0
  6  8  1  0
  8  9  2  0
  8 30  1  0
  9 10  1  0
 10 11  1  0
 10 31  1  0
 10 32  1  0
 11 12  1  0
 11 13  1  0
 12 33  1  0
 12 34  1  0
 12 35  1  0
 13 14  2  0
 13 15  1  0
 15 16  1  0
 15 36  1  0
 16 17  1  0
 16 24  1  0
 16 37  1  1
 17 18  1  0
 17 38  1  0
 17 39  1  0
 18 19  1  0
 18 40  1  0
 18 41  1  0
 19 20  1  0
 19 23  1  0
 19 42  1  6
 20 21  2  0
 20 22  1  0
 22 43  1  0
 23 24  1  0
 23 44  1  0
 23 45  1  0
 24 46  1  0
 24 47  1  0
M  END

