
     RDKit          3D

 31 34  0  0  0  0  0  0  0  0999 V2000
    1.0915    0.1483   -0.1729 C   0  0  0  0  0  0  0  0  0  0  0  0
    2.5919    0.1823   -0.0971 C   0  0  0  0  0  0  0  0  0  0  0  0
    3.3629    1.3517   -0.1692 C   0  0  0  0  0  0  0  0  0  0  0  0
    5.0572    1.1015   -0.0700 S   0  0  0  0  0  0  0  0  0  0  0  0
    4.7907   -0.6349    0.0753 C   0  0  0  0  0  0  0  0  0  0  0  0
    5.8431   -1.5718    0.2022 C   0  0  0  0  0  0  0  0  0  0  0  0
    5.5966   -2.9296    0.3116 N   0  0  0  0  0  0  0  0  0  0  0  0
    6.7830   -3.4550    0.4052 C   0  0  0  0  0  0  0  0  0  0  0  0
    7.4375   -5.0673    0.5687 S   0  0  0  0  0  0  0  0  0  0  0  0
    9.0738   -4.3795    0.5736 C   0  0  0  0  0  0  0  0  0  0  0  0
    9.0981   -3.0340    0.4597 C   0  0  0  0  0  0  0  0  0  0  0  0
    7.8117   -2.5081    0.3647 N   0  0  0  0  0  0  0  0  0  0  0  0
    7.2525   -1.2656    0.2331 C   0  0  0  0  0  0  0  0  0  0  0  0
    7.9922   -0.0141    0.1571 C   0  0  0  0  0  0  0  0  0  0  0  0
    8.6372    0.3989   -1.0750 C   0  0  0  0  0  0  0  0  0  0  0  0
    9.5808    1.4023   -1.0426 C   0  0  0  0  0  0  0  0  0  0  0  0
   10.0204    2.0476    0.0761 N   0  0  0  0  0  0  0  0  0  0  0  0
    9.4590    1.6119    1.2404 C   0  0  0  0  0  0  0  0  0  0  0  0
    8.5078    0.6217    1.3550 C   0  0  0  0  0  0  0  0  0  0  0  0
    3.4172   -0.9430    0.0437 C   0  0  0  0  0  0  0  0  0  0  0  0
    0.6612    1.1583   -0.1231 H   0  0  0  0  0  0  0  0  0  0  0  0
    0.6673   -0.4469    0.6509 H   0  0  0  0  0  0  0  0  0  0  0  0
    0.7560   -0.3154   -1.1155 H   0  0  0  0  0  0  0  0  0  0  0  0
    2.9764    2.3660   -0.2780 H   0  0  0  0  0  0  0  0  0  0  0  0
    9.9333   -5.0413    0.6632 H   0  0  0  0  0  0  0  0  0  0  0  0
    9.9559   -2.3647    0.4354 H   0  0  0  0  0  0  0  0  0  0  0  0
    8.3589   -0.0534   -2.0311 H   0  0  0  0  0  0  0  0  0  0  0  0
   10.0315    1.7301   -1.9890 H   0  0  0  0  0  0  0  0  0  0  0  0
    9.8100    2.1107    2.1538 H   0  0  0  0  0  0  0  0  0  0  0  0
    8.1264    0.3473    2.3425 H   0  0  0  0  0  0  0  0  0  0  0  0
    3.0724   -1.9742    0.1246 H   0  0  0  0  0  0  0  0  0  0  0  0
  1  2  1  0
  1 21  1  0
  1 22  1  0
  1 23  1  0
  2  3  2  0
  2 20  1  0
  3  4  1  0
  3 24  1  0
  4  5  1  0
  5  6  1  0
  5 20  2  0
  6  7  1  0
  6 13  2  0
  7  8  2  0
  8  9  1  0
  8 12  1  0
  9 10  1  0
 10 11  2  0
 10 25  1  0
 11 12  1  0
 11 26  1  0
 12 13  1  0
 13 14  1  0
 14 15  2  0
 14 19  1  0
 15 16  1  0
 15 27  1  0
 16 17  2  0
 16 28  1  0
 17 18  1  0
 18 19  2  0
 18 29  1  0
 19 30  1  0
 20 31  1  0
M  END

