
     RDKit          3D

 44 45  0  0  0  0  0  0  0  0999 V2000
    1.0528    1.1765    1.2611 C   0  0  0  0  0  0  0  0  0  0  0  0
    2.4717    1.2525    1.1709 O   0  0  0  0  0  0  0  0  0  0  0  0
    3.1231    0.0762    1.1880 C   0  0  0  0  0  0  0  0  0  0  0  0
    2.5371   -0.9831    1.2747 O   0  0  0  0  0  0  0  0  0  0  0  0
    4.6085    0.1810    1.0959 C   0  0  0  0  0  0  0  0  0  0  0  0
    5.3074   -1.0368    1.1371 C   0  0  0  0  0  0  0  0  0  0  0  0
    6.6920   -1.1322    1.0695 C   0  0  0  0  0  0  0  0  0  0  0  0
    7.4407    0.0508    0.9469 C   0  0  0  0  0  0  0  0  0  0  0  0
    8.8373    0.0870    0.8456 N   0  0  0  0  0  0  0  0  0  0  0  0
    9.7365   -0.9705    0.9530 C   0  0  0  0  0  0  0  0  0  0  0  0
    9.4076   -2.0942    1.2967 O   0  0  0  0  0  0  0  0  0  0  0  0
   11.0537   -0.6373    0.6688 N   0  0  0  0  0  0  0  0  0  0  0  0
   12.0786   -1.6435    0.9259 C   0  0  0  0  0  0  0  0  0  0  0  0
   12.6376   -2.2233   -0.3782 C   0  0  0  0  0  0  0  0  0  0  0  0
   13.1567   -1.1092   -1.3204 C   0  0  2  0  0  0  0  0  0  0  0  0
   14.4797   -0.5094   -0.8283 C   0  0  0  0  0  0  0  0  0  0  0  0
   14.6354    0.6401   -0.5138 O   0  0  0  0  0  0  0  0  0  0  0  0
   15.5183   -1.3739   -0.7584 O   0  0  0  0  0  0  0  0  0  0  0  0
   12.0793   -0.0294   -1.5049 C   0  0  0  0  0  0  0  0  0  0  0  0
   11.5089    0.4728   -0.1676 C   0  0  0  0  0  0  0  0  0  0  0  0
    6.7706    1.2886    0.9010 C   0  0  0  0  0  0  0  0  0  0  0  0
    5.3734    1.3739    0.9758 C   0  0  0  0  0  0  0  0  0  0  0  0
    4.7257    2.5574    0.9335 O   0  0  0  0  0  0  0  0  0  0  0  0
    5.4496    3.7599    0.8236 C   0  0  0  0  0  0  0  0  0  0  0  0
    0.6903    2.2121    1.2345 H   0  0  0  0  0  0  0  0  0  0  0  0
    0.7409    0.6874    2.1971 H   0  0  0  0  0  0  0  0  0  0  0  0
    0.6321    0.6037    0.4202 H   0  0  0  0  0  0  0  0  0  0  0  0
    4.7057   -1.9425    1.2321 H   0  0  0  0  0  0  0  0  0  0  0  0
    7.1973   -2.0920    1.1241 H   0  0  0  0  0  0  0  0  0  0  0  0
    9.2327    1.0167    0.8049 H   0  0  0  0  0  0  0  0  0  0  0  0
   11.6273   -2.4364    1.5334 H   0  0  0  0  0  0  0  0  0  0  0  0
   12.8914   -1.1771    1.5135 H   0  0  0  0  0  0  0  0  0  0  0  0
   11.8363   -2.7780   -0.8928 H   0  0  0  0  0  0  0  0  0  0  0  0
   13.4282   -2.9564   -0.1435 H   0  0  0  0  0  0  0  0  0  0  0  0
   13.3774   -1.5614   -2.3052 H   0  0  0  0  0  0  0  0  0  0  0  0
   15.2557   -2.2538   -1.0643 H   0  0  0  0  0  0  0  0  0  0  0  0
   11.2578   -0.4565   -2.1039 H   0  0  0  0  0  0  0  0  0  0  0  0
   12.4926    0.8237   -2.0637 H   0  0  0  0  0  0  0  0  0  0  0  0
   10.6821    1.1615   -0.3812 H   0  0  0  0  0  0  0  0  0  0  0  0
   12.2856    1.0433    0.3676 H   0  0  0  0  0  0  0  0  0  0  0  0
    7.3624    2.1989    0.8028 H   0  0  0  0  0  0  0  0  0  0  0  0
    4.7058    4.5679    0.8152 H   0  0  0  0  0  0  0  0  0  0  0  0
    6.0362    3.8065   -0.1120 H   0  0  0  0  0  0  0  0  0  0  0  0
    6.1315    3.9122    1.6799 H   0  0  0  0  0  0  0  0  0  0  0  0
  1  2  1  0
  1 25  1  0
  1 26  1  0
  1 27  1  0
  2  3  1  0
  3  4  2  0
  3  5  1  0
  5  6  2  0
  5 22  1  0
  6  7  1  0
  6 28  1  0
  7  8  2  0
  7 29  1  0
  8  9  1  0
  8 21  1  0
  9 10  1  0
  9 30  1  0
 10 11  2  0
 10 12  1  0
 12 13  1  0
 12 20  1  0
 13 14  1  0
 13 31  1  0
 13 32  1  0
 14 15  1  0
 14 33  1  0
 14 34  1  0
 15 16  1  0
 15 19  1  0
 15 35  1  6
 16 17  2  0
 16 18  1  0
 18 36  1  0
 19 20  1  0
 19 37  1  0
 19 38  1  0
 20 39  1  0
 20 40  1  0
 21 22  2  0
 21 41  1  0
 22 23  1  0
 23 24  1  0
 24 42  1  0
 24 43  1  0
 24 44  1  0
M  END

