
     RDKit          3D

 56 59  0  0  0  0  0  0  0  0999 V2000
    1.2223   -0.1168    0.4200 C   0  0  0  0  0  0  0  0  0  0  0  0
    2.6772   -0.0726    0.0337 C   0  0  0  0  0  0  0  0  0  0  0  0
    3.2955    1.1237   -0.3767 C   0  0  0  0  0  0  0  0  0  0  0  0
    4.6364    1.1628   -0.7392 C   0  0  0  0  0  0  0  0  0  0  0  0
    5.4326   -0.0145   -0.7062 C   0  0  0  0  0  0  0  0  0  0  0  0
    6.7926    0.0151   -1.0690 C   0  0  0  0  0  0  0  0  0  0  0  0
    7.9858    0.0439   -1.3855 C   0  0  0  0  0  0  0  0  0  0  0  0
    9.3381    0.0972   -1.7441 C   0  0  0  0  0  0  0  0  0  0  0  0
    9.9288    1.3348   -2.1495 C   0  0  0  0  0  0  0  0  0  0  0  0
   11.2546    1.4195   -2.5035 C   0  0  0  0  0  0  0  0  0  0  0  0
   12.1131    0.2722   -2.4796 C   0  0  0  0  0  0  0  0  0  0  0  0
   13.5104    0.3577   -2.8449 C   0  0  0  0  0  0  0  0  0  0  0  0
   14.3943   -0.7728   -2.7239 C   0  0  0  0  0  0  0  0  0  0  0  0
   15.7238   -0.6984   -3.0643 C   0  0  0  0  0  0  0  0  0  0  0  0
   16.2970    0.5128   -3.5618 C   0  0  0  0  0  0  0  0  0  0  0  0
   17.6406    0.6365   -3.9208 C   0  0  0  0  0  0  0  0  0  0  0  0
   18.8255    0.7812   -4.2469 C   0  0  0  0  0  0  0  0  0  0  0  0
   20.1787    0.9152   -4.6082 C   0  0  0  0  0  0  0  0  0  0  0  0
   21.0763   -0.1833   -4.5038 C   0  0  0  0  0  0  0  0  0  0  0  0
   22.4114   -0.0438   -4.8614 C   0  0  0  0  0  0  0  0  0  0  0  0
   22.9256    1.1776   -5.3371 C   0  0  0  0  0  0  0  0  0  0  0  0
   24.3715    1.3265   -5.7299 C   0  0  0  0  0  0  0  0  0  0  0  0
   22.0356    2.2677   -5.4400 C   0  0  0  0  0  0  0  0  0  0  0  0
   20.6993    2.1504   -5.0889 C   0  0  0  0  0  0  0  0  0  0  0  0
   15.4205    1.6512   -3.6885 C   0  0  0  0  0  0  0  0  0  0  0  0
   15.8980    2.8215   -4.1553 O   0  0  0  0  0  0  0  0  0  0  0  0
   14.0853    1.5652   -3.3396 C   0  0  0  0  0  0  0  0  0  0  0  0
   11.5052   -0.9596   -2.0734 C   0  0  0  0  0  0  0  0  0  0  0  0
   10.1747   -1.0757   -1.7168 C   0  0  0  0  0  0  0  0  0  0  0  0
    9.5918   -2.4008   -1.3061 C   0  0  0  0  0  0  0  0  0  0  0  0
    4.8063   -1.2237   -0.2908 C   0  0  0  0  0  0  0  0  0  0  0  0
    3.4664   -1.2415    0.0670 C   0  0  0  0  0  0  0  0  0  0  0  0
    0.7691    0.8854    0.4135 H   0  0  0  0  0  0  0  0  0  0  0  0
    1.0860   -0.5439    1.4284 H   0  0  0  0  0  0  0  0  0  0  0  0
    0.6420   -0.7517   -0.2729 H   0  0  0  0  0  0  0  0  0  0  0  0
    2.7068    2.0450   -0.4103 H   0  0  0  0  0  0  0  0  0  0  0  0
    5.0941    2.1032   -1.0531 H   0  0  0  0  0  0  0  0  0  0  0  0
    9.3005    2.2278   -2.1706 H   0  0  0  0  0  0  0  0  0  0  0  0
   11.6507    2.3919   -2.7949 H   0  0  0  0  0  0  0  0  0  0  0  0
   14.0155   -1.7191   -2.3403 H   0  0  0  0  0  0  0  0  0  0  0  0
   16.3696   -1.5717   -2.9555 H   0  0  0  0  0  0  0  0  0  0  0  0
   20.7024   -1.1416   -4.1373 H   0  0  0  0  0  0  0  0  0  0  0  0
   23.0795   -0.9051   -4.7708 H   0  0  0  0  0  0  0  0  0  0  0  0
   24.9398    0.4028   -5.5465 H   0  0  0  0  0  0  0  0  0  0  0  0
   24.8597    2.1416   -5.1683 H   0  0  0  0  0  0  0  0  0  0  0  0
   24.4733    1.5762   -6.8008 H   0  0  0  0  0  0  0  0  0  0  0  0
   22.4077    3.2296   -5.8053 H   0  0  0  0  0  0  0  0  0  0  0  0
   20.0326    3.0111   -5.1782 H   0  0  0  0  0  0  0  0  0  0  0  0
   16.8427    2.7133   -4.3555 H   0  0  0  0  0  0  0  0  0  0  0  0
   13.4894    2.4665   -3.4732 H   0  0  0  0  0  0  0  0  0  0  0  0
   12.1065   -1.8687   -2.0494 H   0  0  0  0  0  0  0  0  0  0  0  0
   10.3485   -3.1981   -1.3336 H   0  0  0  0  0  0  0  0  0  0  0  0
    8.7585   -2.6915   -1.9678 H   0  0  0  0  0  0  0  0  0  0  0  0
    9.1754   -2.3537   -0.2858 H   0  0  0  0  0  0  0  0  0  0  0  0
    5.3975   -2.1413   -0.2562 H   0  0  0  0  0  0  0  0  0  0  0  0
    3.0111   -2.1850    0.3833 H   0  0  0  0  0  0  0  0  0  0  0  0
  1  2  1  0
  1 33  1  0
  1 34  1  0
  1 35  1  0
  2  3  2  0
  2 32  1  0
  3  4  1  0
  3 36  1  0
  4  5  2  0
  4 37  1  0
  5  6  1  0
  5 31  1  0
  6  7  3  0
  7  8  1  0
  8  9  2  0
  8 29  1  0
  9 10  1  0
  9 38  1  0
 10 11  2  0
 10 39  1  0
 11 12  1  0
 11 28  1  0
 12 13  2  0
 12 27  1  0
 13 14  1  0
 13 40  1  0
 14 15  2  0
 14 41  1  0
 15 16  1  0
 15 25  1  0
 16 17  3  0
 17 18  1  0
 18 19  2  0
 18 24  1  0
 19 20  1  0
 19 42  1  0
 20 21  2  0
 20 43  1  0
 21 22  1  0
 21 23  1  0
 22 44  1  0
 22 45  1  0
 22 46  1  0
 23 24  2  0
 23 47  1  0
 24 48  1  0
 25 26  1  0
 25 27  2  0
 26 49  1  0
 27 50  1  0
 28 29  2  0
 28 51  1  0
 29 30  1  0
 30 52  1  0
 30 53  1  0
 30 54  1  0
 31 32  2  0
 31 55  1  0
 32 56  1  0
M  END

