
     RDKit          3D

 48 50  0  0  0  0  0  0  0  0999 V2000
    2.5794   -1.4841   -0.9329 C   0  0  0  0  0  0  0  0  0  0  0  0
    2.6146   -0.4953    0.2522 C   0  0  1  0  0  0  0  0  0  0  0  0
    1.5252   -0.8538    1.2936 C   0  0  0  0  0  0  0  0  0  0  0  0
    4.0013   -0.5589    0.9114 C   0  0  0  0  0  0  0  0  0  0  0  0
    2.2978    0.8782   -0.2330 N   0  0  0  0  0  0  0  0  0  0  0  0
    1.2347    1.0681   -1.2195 C   0  0  0  0  0  0  0  0  0  0  0  0
    0.5671    2.4394   -1.1497 C   0  0  0  0  0  0  0  0  0  0  0  0
    1.5722    3.4679   -1.1060 N   0  0  0  0  0  0  0  0  0  0  0  0
    1.1751    4.7904   -1.5202 C   0  0  0  0  0  0  0  0  0  0  0  0
    0.1346    4.8666   -2.3439 N   0  0  0  0  0  0  0  0  0  0  0  0
   -0.1860    6.0858   -2.7818 C   0  0  0  0  0  0  0  0  0  0  0  0
    0.5297    7.2586   -2.4341 C   0  0  0  0  0  0  0  0  0  0  0  0
    0.0161    8.5531   -2.9678 C   0  0  0  0  0  0  0  0  0  0  0  0
   -1.1640    8.5491   -3.4206 O   0  0  0  0  0  0  0  0  0  0  0  0
    0.8182    9.7789   -2.9768 C   0  0  0  0  0  0  0  0  0  0  0  0
    0.1327   10.9954   -3.2678 C   0  0  0  0  0  0  0  0  0  0  0  0
    0.7922   12.2158   -3.3270 C   0  0  0  0  0  0  0  0  0  0  0  0
    2.1727   12.2610   -3.1139 C   0  0  0  0  0  0  0  0  0  0  0  0
    2.8207   13.4497   -3.1673 F   0  0  0  0  0  0  0  0  0  0  0  0
    2.8948   11.0948   -2.8616 C   0  0  0  0  0  0  0  0  0  0  0  0
    2.2268    9.8730   -2.7959 C   0  0  0  0  0  0  0  0  0  0  0  0
    1.5673    7.0270   -1.5089 C   0  0  0  0  0  0  0  0  0  0  0  0
    1.8892    5.8039   -1.0570 N   0  0  0  0  0  0  0  0  0  0  0  0
    2.3623    3.3646    0.0904 C   0  0  0  0  0  0  0  0  0  0  0  0
    3.1179    2.0365    0.1120 C   0  0  0  0  0  0  0  0  0  0  0  0
    2.8537   -2.4795   -0.5592 H   0  0  0  0  0  0  0  0  0  0  0  0
    3.3066   -1.2009   -1.7087 H   0  0  0  0  0  0  0  0  0  0  0  0
    1.5875   -1.5689   -1.3944 H   0  0  0  0  0  0  0  0  0  0  0  0
    1.7366   -1.8585    1.6844 H   0  0  0  0  0  0  0  0  0  0  0  0
    0.5189   -0.8636    0.8520 H   0  0  0  0  0  0  0  0  0  0  0  0
    1.5319   -0.1483    2.1375 H   0  0  0  0  0  0  0  0  0  0  0  0
    4.2047   -1.6050    1.1773 H   0  0  0  0  0  0  0  0  0  0  0  0
    4.0616    0.0255    1.8395 H   0  0  0  0  0  0  0  0  0  0  0  0
    4.7988   -0.2286    0.2300 H   0  0  0  0  0  0  0  0  0  0  0  0
    0.5037    0.2580   -1.1095 H   0  0  0  0  0  0  0  0  0  0  0  0
    1.7241    0.9414   -2.2028 H   0  0  0  0  0  0  0  0  0  0  0  0
   -0.1172    2.4683   -0.2709 H   0  0  0  0  0  0  0  0  0  0  0  0
   -0.0574    2.5776   -2.0401 H   0  0  0  0  0  0  0  0  0  0  0  0
   -1.0584    6.1925   -3.4314 H   0  0  0  0  0  0  0  0  0  0  0  0
   -0.9412   10.9263   -3.4452 H   0  0  0  0  0  0  0  0  0  0  0  0
    0.2556   13.1438   -3.5392 H   0  0  0  0  0  0  0  0  0  0  0  0
    3.9781   11.1555   -2.7339 H   0  0  0  0  0  0  0  0  0  0  0  0
    2.8253    8.9737   -2.6513 H   0  0  0  0  0  0  0  0  0  0  0  0
    2.1406    7.8534   -1.0833 H   0  0  0  0  0  0  0  0  0  0  0  0
    1.7506    3.4458    1.0182 H   0  0  0  0  0  0  0  0  0  0  0  0
    3.0868    4.1869    0.1239 H   0  0  0  0  0  0  0  0  0  0  0  0
    3.5849    1.8619    1.0873 H   0  0  0  0  0  0  0  0  0  0  0  0
    3.9303    2.0478   -0.6403 H   0  0  0  0  0  0  0  0  0  0  0  0
  2  1  1  6
  1 26  1  0
  1 27  1  0
  1 28  1  0
  2  3  1  0
  2  4  1  0
  2  5  1  0
  3 29  1  0
  3 30  1  0
  3 31  1  0
  4 32  1  0
  4 33  1  0
  4 34  1  0
  5  6  1  0
  5 25  1  0
  6  7  1  0
  6 35  1  0
  6 36  1  0
  7  8  1  0
  7 37  1  0
  7 38  1  0
  8  9  1  0
  8 24  1  0
  9 10  2  0
  9 23  1  0
 10 11  1  0
 11 12  2  0
 11 39  1  0
 12 13  1  0
 12 22  1  0
 13 14  2  0
 13 15  1  0
 15 16  2  0
 15 21  1  0
 16 17  1  0
 16 40  1  0
 17 18  2  0
 17 41  1  0
 18 19  1  0
 18 20  1  0
 20 21  2  0
 20 42  1  0
 21 43  1  0
 22 23  2  0
 22 44  1  0
 24 25  1  0
 24 45  1  0
 24 46  1  0
 25 47  1  0
 25 48  1  0
M  END

