
     RDKit          3D

 41 42  0  0  0  0  0  0  0  0999 V2000
    4.6131    8.0142   -5.0454 C   0  0  0  0  0  0  0  0  0  0  0  0
    4.5822    7.2916   -3.8189 O   0  0  0  0  0  0  0  0  0  0  0  0
    5.1508    6.0616   -3.8471 C   0  0  0  0  0  0  0  0  0  0  0  0
    5.6691    5.5695   -4.8273 O   0  0  0  0  0  0  0  0  0  0  0  0
    5.0505    5.4629   -2.6268 N   0  0  0  0  0  0  0  0  0  0  0  0
    5.6253    4.1560   -2.3753 C   0  0  0  0  0  0  0  0  0  0  0  0
    7.1361    4.1809   -2.1049 C   0  0  0  0  0  0  0  0  0  0  0  0
    7.7067    2.7868   -1.8408 C   0  0  0  0  0  0  0  0  0  0  0  0
    9.2259    2.7734   -1.6354 C   0  0  1  0  0  0  0  0  0  0  0  0
    9.6972    3.4364   -0.4411 N   0  0  0  0  0  0  0  0  0  0  0  0
   10.4894    2.6532    0.3533 C   0  0  0  0  0  0  0  0  0  0  0  0
   11.0505    2.9767    1.3705 O   0  0  0  0  0  0  0  0  0  0  0  0
   10.5212    1.3601   -0.2651 N   0  0  0  0  0  0  0  0  0  0  0  0
   11.2374    0.2363    0.2587 C   0  0  0  0  0  0  0  0  0  0  0  0
   12.4427    0.4336    0.9740 C   0  0  0  0  0  0  0  0  0  0  0  0
   13.1136   -0.6902    1.4941 C   0  0  0  0  0  0  0  0  0  0  0  0
   12.6557   -1.9776    1.2905 C   0  0  0  0  0  0  0  0  0  0  0  0
   11.4590   -2.1899    0.5220 C   0  0  0  0  0  0  0  0  0  0  0  0
   11.0085   -3.4758    0.1928 C   0  0  0  0  0  0  0  0  0  0  0  0
   11.5327   -4.5847    0.6652 O   0  0  0  0  0  0  0  0  0  0  0  0
   10.0086   -3.7423   -0.6454 O   0  0  0  0  0  0  0  0  0  0  0  0
   10.7379   -1.0395    0.0481 C   0  0  0  0  0  0  0  0  0  0  0  0
    9.7631    1.3524   -1.4313 C   0  0  0  0  0  0  0  0  0  0  0  0
    9.5323    0.4117   -2.1568 O   0  0  0  0  0  0  0  0  0  0  0  0
    4.1316    8.9795   -4.8429 H   0  0  0  0  0  0  0  0  0  0  0  0
    4.0655    7.4779   -5.8357 H   0  0  0  0  0  0  0  0  0  0  0  0
    5.6477    8.1717   -5.3872 H   0  0  0  0  0  0  0  0  0  0  0  0
    4.6441    5.9994   -1.8705 H   0  0  0  0  0  0  0  0  0  0  0  0
    5.4265    3.5197   -3.2524 H   0  0  0  0  0  0  0  0  0  0  0  0
    5.0925    3.7077   -1.5207 H   0  0  0  0  0  0  0  0  0  0  0  0
    7.3327    4.8444   -1.2433 H   0  0  0  0  0  0  0  0  0  0  0  0
    7.6337    4.6310   -2.9807 H   0  0  0  0  0  0  0  0  0  0  0  0
    7.4914    2.1187   -2.6911 H   0  0  0  0  0  0  0  0  0  0  0  0
    7.2279    2.3386   -0.9522 H   0  0  0  0  0  0  0  0  0  0  0  0
    9.7135    3.1802   -2.5432 H   0  0  0  0  0  0  0  0  0  0  0  0
    9.6484    4.4321   -0.2678 H   0  0  0  0  0  0  0  0  0  0  0  0
   12.8207    1.4368    1.1487 H   0  0  0  0  0  0  0  0  0  0  0  0
   14.0317   -0.5346    2.0665 H   0  0  0  0  0  0  0  0  0  0  0  0
   13.2126   -2.8272    1.6880 H   0  0  0  0  0  0  0  0  0  0  0  0
    9.7997   -2.9392   -1.1477 H   0  0  0  0  0  0  0  0  0  0  0  0
    9.7900   -1.1448   -0.4761 H   0  0  0  0  0  0  0  0  0  0  0  0
  1  2  1  0
  1 25  1  0
  1 26  1  0
  1 27  1  0
  2  3  1  0
  3  4  2  0
  3  5  1  0
  5  6  1  0
  5 28  1  0
  6  7  1  0
  6 29  1  0
  6 30  1  0
  7  8  1  0
  7 31  1  0
  7 32  1  0
  8  9  1  0
  8 33  1  0
  8 34  1  0
  9 10  1  0
  9 23  1  0
  9 35  1  6
 10 11  1  0
 10 36  1  0
 11 12  2  0
 11 13  1  0
 13 14  1  0
 13 23  1  0
 14 15  2  0
 14 22  1  0
 15 16  1  0
 15 37  1  0
 16 17  2  0
 16 38  1  0
 17 18  1  0
 17 39  1  0
 18 19  1  0
 18 22  2  0
 19 20  2  0
 19 21  1  0
 21 40  1  0
 22 41  1  0
 23 24  2  0
M  END

