
     RDKit          3D

 62 64  0  0  0  0  0  0  0  0999 V2000
    3.8741    6.4646    3.8973 C   0  0  0  0  0  0  0  0  0  0  0  0
    2.4887    6.4284    4.1631 O   0  0  0  0  0  0  0  0  0  0  0  0
    1.8946    5.2356    4.4276 C   0  0  0  0  0  0  0  0  0  0  0  0
    2.5745    4.0155    4.4448 C   0  0  0  0  0  0  0  0  0  0  0  0
    1.8808    2.8352    4.7667 C   0  0  0  0  0  0  0  0  0  0  0  0
    2.6281    1.5176    4.8250 C   0  0  0  0  0  0  0  0  0  0  0  0
    3.3940    1.3345    6.0586 N   0  0  0  0  0  0  0  0  0  0  0  0
    4.7131    1.6319    6.1599 C   0  0  0  0  0  0  0  0  0  0  0  0
    5.3785    2.0413    5.2098 O   0  0  0  0  0  0  0  0  0  0  0  0
    5.3476    1.3720    7.5299 C   0  0  1  0  0  0  0  0  0  0  0  0
    6.2076    0.0898    7.5009 C   0  0  0  0  0  0  0  0  0  0  0  0
    7.5137    0.2706    6.7036 C   0  0  0  0  0  0  0  0  0  0  0  0
    8.2392    1.4294    7.1507 N   0  0  0  0  0  0  0  0  0  0  0  0
    9.7082    1.3707    7.5253 C   0  0  0  0  0  0  0  0  0  0  0  0
   10.3585    0.0499    7.5076 C   0  0  0  0  0  0  0  0  0  0  0  0
   10.3215   -0.8209    8.6658 C   0  0  0  0  0  0  0  0  0  0  0  0
   10.8859   -2.0791    8.6102 C   0  0  0  0  0  0  0  0  0  0  0  0
   11.5173   -2.5645    7.4316 C   0  0  0  0  0  0  0  0  0  0  0  0
   11.6114   -1.6962    6.2855 C   0  0  0  0  0  0  0  0  0  0  0  0
   12.3444   -2.1803    5.0608 C   0  0  0  0  0  0  0  0  0  0  0  0
   11.0458   -0.4389    6.3348 C   0  0  0  0  0  0  0  0  0  0  0  0
    7.5278    2.6801    7.2008 C   0  0  0  0  0  0  0  0  0  0  0  0
    6.2114    2.5584    7.9958 C   0  0  0  0  0  0  0  0  0  0  0  0
    0.5227    2.8920    5.0582 C   0  0  0  0  0  0  0  0  0  0  0  0
   -0.1813    4.1134    5.0343 C   0  0  0  0  0  0  0  0  0  0  0  0
   -1.4880    4.0173    5.3796 O   0  0  0  0  0  0  0  0  0  0  0  0
   -2.4606    4.9831    5.0168 C   0  0  0  0  0  0  0  0  0  0  0  0
    0.5046    5.3028    4.7177 C   0  0  0  0  0  0  0  0  0  0  0  0
   -0.1369    6.5095    4.7771 O   0  0  0  0  0  0  0  0  0  0  0  0
   -0.2688    7.2550    3.5732 C   0  0  0  0  0  0  0  0  0  0  0  0
    4.1318    7.5189    3.7301 H   0  0  0  0  0  0  0  0  0  0  0  0
    4.1359    5.8824    2.9960 H   0  0  0  0  0  0  0  0  0  0  0  0
    4.4630    6.0810    4.7491 H   0  0  0  0  0  0  0  0  0  0  0  0
    3.6398    3.9616    4.2242 H   0  0  0  0  0  0  0  0  0  0  0  0
    3.3498    1.4480    3.9999 H   0  0  0  0  0  0  0  0  0  0  0  0
    1.9226    0.6778    4.7341 H   0  0  0  0  0  0  0  0  0  0  0  0
    2.8817    1.1107    6.9037 H   0  0  0  0  0  0  0  0  0  0  0  0
    4.5433    1.2258    8.2697 H   0  0  0  0  0  0  0  0  0  0  0  0
    5.6476   -0.7507    7.0650 H   0  0  0  0  0  0  0  0  0  0  0  0
    6.4627   -0.1962    8.5336 H   0  0  0  0  0  0  0  0  0  0  0  0
    7.2656    0.4372    5.6381 H   0  0  0  0  0  0  0  0  0  0  0  0
    8.1839   -0.5921    6.7931 H   0  0  0  0  0  0  0  0  0  0  0  0
    9.7135    1.8608    8.5207 H   0  0  0  0  0  0  0  0  0  0  0  0
   10.1626    2.1045    6.8307 H   0  0  0  0  0  0  0  0  0  0  0  0
    9.8680   -0.4690    9.5997 H   0  0  0  0  0  0  0  0  0  0  0  0
   10.8574   -2.7151    9.5019 H   0  0  0  0  0  0  0  0  0  0  0  0
   11.9519   -3.5652    7.4011 H   0  0  0  0  0  0  0  0  0  0  0  0
   13.4028   -2.4091    5.2879 H   0  0  0  0  0  0  0  0  0  0  0  0
   12.3273   -1.4390    4.2459 H   0  0  0  0  0  0  0  0  0  0  0  0
   11.9066   -3.1202    4.6744 H   0  0  0  0  0  0  0  0  0  0  0  0
   11.1370    0.2149    5.4582 H   0  0  0  0  0  0  0  0  0  0  0  0
    7.2737    2.9590    6.1618 H   0  0  0  0  0  0  0  0  0  0  0  0
    8.1892    3.4446    7.6337 H   0  0  0  0  0  0  0  0  0  0  0  0
    5.6625    3.5081    7.9074 H   0  0  0  0  0  0  0  0  0  0  0  0
    6.4515    2.4221    9.0628 H   0  0  0  0  0  0  0  0  0  0  0  0
   -0.0488    1.9936    5.3019 H   0  0  0  0  0  0  0  0  0  0  0  0
   -3.4336    4.5205    5.2360 H   0  0  0  0  0  0  0  0  0  0  0  0
   -2.4175    5.2187    3.9393 H   0  0  0  0  0  0  0  0  0  0  0  0
   -2.3563    5.9140    5.5913 H   0  0  0  0  0  0  0  0  0  0  0  0
   -0.8901    8.1294    3.8135 H   0  0  0  0  0  0  0  0  0  0  0  0
   -0.7738    6.6619    2.7885 H   0  0  0  0  0  0  0  0  0  0  0  0
    0.7068    7.5947    3.1960 H   0  0  0  0  0  0  0  0  0  0  0  0
  1  2  1  0
  1 31  1  0
  1 32  1  0
  1 33  1  0
  2  3  1  0
  3  4  2  0
  3 28  1  0
  4  5  1  0
  4 34  1  0
  5  6  1  0
  5 24  2  0
  6  7  1  0
  6 35  1  0
  6 36  1  0
  7  8  1  0
  7 37  1  0
  8  9  2  0
  8 10  1  0
 10 11  1  0
 10 23  1  0
 10 38  1  1
 11 12  1  0
 11 39  1  0
 11 40  1  0
 12 13  1  0
 12 41  1  0
 12 42  1  0
 13 14  1  0
 13 22  1  0
 14 15  1  0
 14 43  1  0
 14 44  1  0
 15 16  2  0
 15 21  1  0
 16 17  1  0
 16 45  1  0
 17 18  2  0
 17 46  1  0
 18 19  1  0
 18 47  1  0
 19 20  1  0
 19 21  2  0
 20 48  1  0
 20 49  1  0
 20 50  1  0
 21 51  1  0
 22 23  1  0
 22 52  1  0
 22 53  1  0
 23 54  1  0
 23 55  1  0
 24 25  1  0
 24 56  1  0
 25 26  1  0
 25 28  2  0
 26 27  1  0
 27 57  1  0
 27 58  1  0
 27 59  1  0
 28 29  1  0
 29 30  1  0
 30 60  1  0
 30 61  1  0
 30 62  1  0
M  END

