
     RDKit          3D

 29 31  0  0  0  0  0  0  0  0999 V2000
    7.7748    5.1362    0.4568 F   0  0  0  0  0  0  0  0  0  0  0  0
    7.4902    3.8548    0.3073 C   0  0  0  0  0  0  0  0  0  0  0  0
    6.1658    3.4069    0.3607 C   0  0  0  0  0  0  0  0  0  0  0  0
    5.8937    2.0610    0.2016 C   0  0  0  0  0  0  0  0  0  0  0  0
    6.9566    1.1256   -0.0176 C   0  0  0  0  0  0  0  0  0  0  0  0
    6.6418   -0.1763   -0.1681 N   0  0  0  0  0  0  0  0  0  0  0  0
    7.4283   -1.3105   -0.3940 C   0  0  0  0  0  0  0  0  0  0  0  0
    8.7522   -1.3227   -0.5195 N   0  0  0  0  0  0  0  0  0  0  0  0
    9.0462   -2.6127   -0.7222 N   0  0  0  0  0  0  0  0  0  0  0  0
   10.0150   -2.8786   -0.8501 H   0  0  0  0  0  0  0  0  0  0  0  0
    7.9304   -3.4443   -0.7319 C   0  0  0  0  0  0  0  0  0  0  0  0
    7.7528   -4.8301   -0.9057 C   0  0  0  0  0  0  0  0  0  0  0  0
    6.3608   -5.2104   -0.8294 C   0  0  0  0  0  0  0  0  0  0  0  0
    6.0260   -6.6508   -1.0129 C   0  0  1  0  0  0  0  0  0  0  0  0
    6.6869   -7.4461   -0.1338 F   0  0  0  0  0  0  0  0  0  0  0  0
    4.7130   -6.9185   -0.8661 F   0  0  0  0  0  0  0  0  0  0  0  0
    6.3795   -7.1099   -2.2411 F   0  0  0  0  0  0  0  0  0  0  0  0
    5.3443   -4.2671   -0.6049 C   0  0  0  0  0  0  0  0  0  0  0  0
    5.5161   -2.9469   -0.4382 N   0  0  0  0  0  0  0  0  0  0  0  0
    6.8466   -2.5956   -0.5144 C   0  0  0  0  0  0  0  0  0  0  0  0
    8.3026    1.5938   -0.0700 C   0  0  0  0  0  0  0  0  0  0  0  0
    8.5469    2.9379    0.0918 C   0  0  0  0  0  0  0  0  0  0  0  0
    9.7832    3.4139    0.0503 F   0  0  0  0  0  0  0  0  0  0  0  0
    5.3713    4.1358    0.5280 H   0  0  0  0  0  0  0  0  0  0  0  0
    4.8644    1.7001    0.2413 H   0  0  0  0  0  0  0  0  0  0  0  0
    5.6557   -0.4424   -0.1162 H   0  0  0  0  0  0  0  0  0  0  0  0
    8.5550   -5.5445   -1.0708 H   0  0  0  0  0  0  0  0  0  0  0  0
    4.3121   -4.6282   -0.5583 H   0  0  0  0  0  0  0  0  0  0  0  0
    9.1194    0.8918   -0.2367 H   0  0  0  0  0  0  0  0  0  0  0  0
  1  2  1  0
  2  3  2  0
  2 22  1  0
  3  4  1  0
  3 24  1  0
  4  5  2  0
  4 25  1  0
  5  6  1  0
  5 21  1  0
  6  7  1  0
  6 26  1  0
  7  8  2  0
  7 20  1  0
  8  9  1  0
  9 10  1  0
  9 11  1  0
 11 12  1  0
 11 20  2  0
 12 13  2  0
 12 27  1  0
 13 14  1  0
 13 18  1  0
 14 15  1  6
 14 16  1  0
 14 17  1  0
 18 19  2  0
 18 28  1  0
 19 20  1  0
 21 22  2  0
 21 29  1  0
 22 23  1  0
M  END

