
     RDKit          3D

 97 99  0  0  0  0  0  0  0  0999 V2000
   -0.6734    4.2161    2.5094 C   0  0  0  0  0  0  0  0  0  0  0  0
   -2.1092    4.3964    2.0054 C   0  0  1  0  0  0  0  0  0  0  0  0
   -3.1225    3.8844    3.0368 C   0  0  0  0  0  0  0  0  0  0  0  0
   -2.4417    5.8582    1.6445 C   0  0  0  0  0  0  0  0  0  0  0  0
   -1.6934    6.4443    0.5264 N   0  0  0  0  0  0  0  0  0  0  0  0
   -0.4799    7.2539    0.7837 C   0  0  2  0  0  0  0  0  0  0  0  0
   -0.2841    7.0715    1.8546 H   0  0  0  0  0  0  0  0  0  0  0  0
   -0.7741    8.7628    0.6526 C   0  0  0  0  0  0  0  0  0  0  0  0
    0.2512    9.5910    1.1626 O   0  0  0  0  0  0  0  0  0  0  0  0
    0.7673    6.7662    0.0157 C   0  0  0  0  0  0  0  0  0  0  0  0
    2.1019    7.2049    0.6304 C   0  0  0  0  0  0  0  0  0  0  0  0
    3.3102    6.4942    0.0151 C   0  0  0  0  0  0  0  0  0  0  0  0
    4.6565    6.9447    0.5933 C   0  0  0  0  0  0  0  0  0  0  0  0
    4.7565    6.7262    2.0314 N   0  0  0  0  0  0  0  0  0  0  0  0
    5.0357    7.7088    2.9243 C   0  0  0  0  0  0  0  0  0  0  0  0
    5.3280    8.8534    2.6024 O   0  0  0  0  0  0  0  0  0  0  0  0
    4.9564    7.2903    4.4082 C   0  0  2  0  0  0  0  0  0  0  0  0
    5.6005    6.3997    4.5324 H   0  0  0  0  0  0  0  0  0  0  0  0
    3.5525    6.8392    4.8771 C   0  0  0  0  0  0  0  0  0  0  0  0
    2.3958    7.8239    4.8567 C   0  0  0  0  0  0  0  0  0  0  0  0
    2.4428    9.1035    4.2835 C   0  0  0  0  0  0  0  0  0  0  0  0
    1.3237    9.9448    4.3029 C   0  0  0  0  0  0  0  0  0  0  0  0
    0.1107    9.5463    4.8924 C   0  0  0  0  0  0  0  0  0  0  0  0
   -1.0715   10.4497    4.9190 C   0  0  0  0  0  0  0  0  0  0  0  0
   -1.3941   11.2557    3.8093 C   0  0  0  0  0  0  0  0  0  0  0  0
   -2.5000   12.1084    3.8430 C   0  0  0  0  0  0  0  0  0  0  0  0
   -3.3071   12.1757    4.9826 C   0  0  0  0  0  0  0  0  0  0  0  0
   -3.0006   11.3789    6.0898 C   0  0  0  0  0  0  0  0  0  0  0  0
   -1.8958   10.5253    6.0578 C   0  0  0  0  0  0  0  0  0  0  0  0
    0.0668    8.2610    5.4680 C   0  0  0  0  0  0  0  0  0  0  0  0
    1.1833    7.4271    5.4515 C   0  0  0  0  0  0  0  0  0  0  0  0
    5.5061    8.3708    5.1918 N   0  0  0  0  0  0  0  0  0  0  0  0
    5.9959    8.1656    6.4463 C   0  0  0  0  0  0  0  0  0  0  0  0
    5.9019    7.1094    7.0478 O   0  0  0  0  0  0  0  0  0  0  0  0
    6.5802    9.2914    6.9043 O   0  0  0  0  0  0  0  0  0  0  0  0
    7.1733    9.3698    8.2402 C   0  0  1  0  0  0  0  0  0  0  0  0
    8.3384    8.3806    8.3558 C   0  0  0  0  0  0  0  0  0  0  0  0
    7.6796   10.8123    8.3032 C   0  0  0  0  0  0  0  0  0  0  0  0
    6.1015    9.1246    9.3078 C   0  0  0  0  0  0  0  0  0  0  0  0
   -2.3669    6.2678   -1.0047 S   0  0  1  0  0  0  0  0  0  0  0  0
   -1.4797    6.9707   -1.9384 O   0  0  0  0  0  0  0  0  0  0  0  0
   -2.6857    4.8461   -1.1841 O   0  0  0  0  0  0  0  0  0  0  0  0
   -3.9403    7.1270   -0.9975 C   0  0  0  0  0  0  0  0  0  0  0  0
   -3.9876    8.5148   -1.1872 C   0  0  0  0  0  0  0  0  0  0  0  0
   -5.2103    9.1740   -1.2049 C   0  0  0  0  0  0  0  0  0  0  0  0
   -6.4214    8.4617   -1.0417 C   0  0  0  0  0  0  0  0  0  0  0  0
   -7.6316    9.1111   -1.0958 N   0  0  0  0  0  0  0  0  0  0  0  0
   -6.3553    7.0612   -0.8703 C   0  0  0  0  0  0  0  0  0  0  0  0
   -5.1302    6.4022   -0.8549 C   0  0  0  0  0  0  0  0  0  0  0  0
   -0.4758    3.1603    2.7561 H   0  0  0  0  0  0  0  0  0  0  0  0
   -0.4900    4.8104    3.4223 H   0  0  0  0  0  0  0  0  0  0  0  0
    0.0653    4.5188    1.7529 H   0  0  0  0  0  0  0  0  0  0  0  0
   -2.2280    3.8147    1.0766 H   0  0  0  0  0  0  0  0  0  0  0  0
   -3.0651    4.4615    3.9768 H   0  0  0  0  0  0  0  0  0  0  0  0
   -2.9344    2.8283    3.2869 H   0  0  0  0  0  0  0  0  0  0  0  0
   -4.1568    3.9588    2.6628 H   0  0  0  0  0  0  0  0  0  0  0  0
   -2.2868    6.5061    2.5259 H   0  0  0  0  0  0  0  0  0  0  0  0
   -3.5189    5.9268    1.4192 H   0  0  0  0  0  0  0  0  0  0  0  0
   -1.7421    8.9696    1.1509 H   0  0  0  0  0  0  0  0  0  0  0  0
   -0.8808    9.0225   -0.4110 H   0  0  0  0  0  0  0  0  0  0  0  0
    0.4343    9.3458    2.0823 H   0  0  0  0  0  0  0  0  0  0  0  0
    0.7010    7.0900   -1.0329 H   0  0  0  0  0  0  0  0  0  0  0  0
    0.7235    5.6640   -0.0087 H   0  0  0  0  0  0  0  0  0  0  0  0
    2.0874    7.0073    1.7175 H   0  0  0  0  0  0  0  0  0  0  0  0
    2.2210    8.2942    0.5274 H   0  0  0  0  0  0  0  0  0  0  0  0
    3.3371    6.6689   -1.0747 H   0  0  0  0  0  0  0  0  0  0  0  0
    3.2038    5.3988    0.1364 H   0  0  0  0  0  0  0  0  0  0  0  0
    4.8108    8.0217    0.4376 H   0  0  0  0  0  0  0  0  0  0  0  0
    5.4809    6.4189    0.0794 H   0  0  0  0  0  0  0  0  0  0  0  0
    4.5552    5.7978    2.3856 H   0  0  0  0  0  0  0  0  0  0  0  0
    3.6901    6.4777    5.9088 H   0  0  0  0  0  0  0  0  0  0  0  0
    3.2636    5.9453    4.2944 H   0  0  0  0  0  0  0  0  0  0  0  0
    3.3567    9.4683    3.8159 H   0  0  0  0  0  0  0  0  0  0  0  0
    1.4109   10.9465    3.8754 H   0  0  0  0  0  0  0  0  0  0  0  0
   -0.7940   11.1889    2.8984 H   0  0  0  0  0  0  0  0  0  0  0  0
   -2.7351   12.7196    2.9676 H   0  0  0  0  0  0  0  0  0  0  0  0
   -4.1705   12.8455    5.0083 H   0  0  0  0  0  0  0  0  0  0  0  0
   -3.6199   11.4288    6.9893 H   0  0  0  0  0  0  0  0  0  0  0  0
   -1.6521    9.9272    6.9392 H   0  0  0  0  0  0  0  0  0  0  0  0
   -0.8604    7.9057    5.9243 H   0  0  0  0  0  0  0  0  0  0  0  0
    1.1133    6.4362    5.9109 H   0  0  0  0  0  0  0  0  0  0  0  0
    5.7301    9.2251    4.6877 H   0  0  0  0  0  0  0  0  0  0  0  0
    9.0730    8.5592    7.5547 H   0  0  0  0  0  0  0  0  0  0  0  0
    7.9832    7.3446    8.2863 H   0  0  0  0  0  0  0  0  0  0  0  0
    8.8485    8.5172    9.3223 H   0  0  0  0  0  0  0  0  0  0  0  0
    8.4121   11.0004    7.5037 H   0  0  0  0  0  0  0  0  0  0  0  0
    8.1627   11.0059    9.2731 H   0  0  0  0  0  0  0  0  0  0  0  0
    6.8462   11.5204    8.1797 H   0  0  0  0  0  0  0  0  0  0  0  0
    5.7221    8.0963    9.2563 H   0  0  0  0  0  0  0  0  0  0  0  0
    5.2597    9.8214    9.1706 H   0  0  0  0  0  0  0  0  0  0  0  0
    6.5276    9.2965   10.3087 H   0  0  0  0  0  0  0  0  0  0  0  0
   -3.0652    9.0777   -1.3373 H   0  0  0  0  0  0  0  0  0  0  0  0
   -5.2401   10.2558   -1.3610 H   0  0  0  0  0  0  0  0  0  0  0  0
   -7.6482   10.1177   -0.9982 H   0  0  0  0  0  0  0  0  0  0  0  0
   -8.4575    8.6290   -0.7663 H   0  0  0  0  0  0  0  0  0  0  0  0
   -7.2802    6.4879   -0.7630 H   0  0  0  0  0  0  0  0  0  0  0  0
   -5.0854    5.3168   -0.7521 H   0  0  0  0  0  0  0  0  0  0  0  0
  1  2  1  0
  1 50  1  0
  1 51  1  0
  1 52  1  0
  2  3  1  0
  2  4  1  0
  2 53  1  6
  3 54  1  0
  3 55  1  0
  3 56  1  0
  4  5  1  0
  4 57  1  0
  4 58  1  0
  5  6  1  0
 40  5  1  1
  6  7  1  1
  6  8  1  0
  6 10  1  0
  8  9  1  0
  8 59  1  0
  8 60  1  0
  9 61  1  0
 10 11  1  0
 10 62  1  0
 10 63  1  0
 11 12  1  0
 11 64  1  0
 11 65  1  0
 12 13  1  0
 12 66  1  0
 12 67  1  0
 13 14  1  0
 13 68  1  0
 13 69  1  0
 14 15  1  0
 14 70  1  0
 15 16  2  0
 15 17  1  0
 17 18  1  6
 17 19  1  0
 17 32  1  0
 19 20  1  0
 19 71  1  0
 19 72  1  0
 20 21  2  0
 20 31  1  0
 21 22  1  0
 21 73  1  0
 22 23  2  0
 22 74  1  0
 23 24  1  0
 23 30  1  0
 24 25  2  0
 24 29  1  0
 25 26  1  0
 25 75  1  0
 26 27  2  0
 26 76  1  0
 27 28  1  0
 27 77  1  0
 28 29  2  0
 28 78  1  0
 29 79  1  0
 30 31  2  0
 30 80  1  0
 31 81  1  0
 32 33  1  0
 32 82  1  0
 33 34  2  0
 33 35  1  0
 36 35  1  6
 36 37  1  0
 36 38  1  0
 36 39  1  0
 37 83  1  0
 37 84  1  0
 37 85  1  0
 38 86  1  0
 38 87  1  0
 38 88  1  0
 39 89  1  0
 39 90  1  0
 39 91  1  0
 40 41  2  0
 40 42  2  0
 40 43  1  0
 43 44  2  0
 43 49  1  0
 44 45  1  0
 44 92  1  0
 45 46  2  0
 45 93  1  0
 46 47  1  0
 46 48  1  0
 47 94  1  0
 47 95  1  0
 48 49  2  0
 48 96  1  0
 49 97  1  0
M  END

