
     RDKit          3D

 44 48  0  0  0  0  0  0  0  0999 V2000
    1.1388    0.1273   -0.4379 N   0  0  0  0  0  0  0  0  0  0  0  0
    2.4159    0.1108    0.0083 C   0  0  0  0  0  0  0  0  0  0  0  0
    3.1219   -1.0114    0.1229 N   0  0  0  0  0  0  0  0  0  0  0  0
    4.3411   -0.6407    0.5923 C   0  0  0  0  0  0  0  0  0  0  0  0
    5.4430   -1.4611    0.9070 C   0  0  0  0  0  0  0  0  0  0  0  0
    6.6170   -0.8492    1.4124 C   0  0  0  0  0  0  0  0  0  0  0  0
    6.6426    0.5387    1.5820 C   0  0  0  0  0  0  0  0  0  0  0  0
    7.7576    1.1194    2.0667 F   0  0  0  0  0  0  0  0  0  0  0  0
    5.5722    1.3600    1.2773 C   0  0  0  0  0  0  0  0  0  0  0  0
    4.4311    0.7294    0.7673 N   0  0  0  0  0  0  0  0  0  0  0  0
    3.1641    1.2822    0.3968 C   0  0  0  0  0  0  0  0  0  0  0  0
    2.7738    2.6333    0.3644 C   0  0  0  0  0  0  0  0  0  0  0  0
    3.6908    3.6010    0.6802 N   0  0  0  0  0  0  0  0  0  0  0  0
    3.3376    4.8737    0.6319 C   0  0  0  0  0  0  0  0  0  0  0  0
    2.0343    5.2351    0.2738 C   0  0  0  0  0  0  0  0  0  0  0  0
    1.1193    4.1783   -0.0171 C   0  0  0  0  0  0  0  0  0  0  0  0
    1.4540    2.9097    0.0055 N   0  0  0  0  0  0  0  0  0  0  0  0
   -0.1068    4.7517   -0.3295 N   0  0  0  0  0  0  0  0  0  0  0  0
   -1.4608    4.1648   -0.2556 C   0  0  1  0  0  0  0  0  0  0  0  0
   -2.4212    4.8823   -1.2290 C   0  0  0  0  0  0  0  0  0  0  0  0
   -2.1166    4.5091   -2.6818 C   0  0  0  0  0  0  0  0  0  0  0  0
   -2.1907    3.1144   -2.8818 O   0  0  0  0  0  0  0  0  0  0  0  0
   -1.2887    2.3916   -2.0651 C   0  0  0  0  0  0  0  0  0  0  0  0
   -1.5253    2.6641   -0.5777 C   0  0  0  0  0  0  0  0  0  0  0  0
   -0.0166    6.1991   -0.1178 C   0  0  0  0  0  0  0  0  0  0  0  0
    1.3954    6.4413    0.1006 N   0  0  0  0  0  0  0  0  0  0  0  0
    0.7612   -0.7268   -0.8279 H   0  0  0  0  0  0  0  0  0  0  0  0
    0.7351    1.0376   -0.6286 H   0  0  0  0  0  0  0  0  0  0  0  0
    5.3551   -2.5356    0.7613 H   0  0  0  0  0  0  0  0  0  0  0  0
    7.4995   -1.4323    1.6805 H   0  0  0  0  0  0  0  0  0  0  0  0
    5.5537    2.4400    1.3699 H   0  0  0  0  0  0  0  0  0  0  0  0
    4.0946    5.6268    0.8839 H   0  0  0  0  0  0  0  0  0  0  0  0
   -1.8255    4.3185    0.7805 H   0  0  0  0  0  0  0  0  0  0  0  0
   -2.4102    5.9761   -1.1010 H   0  0  0  0  0  0  0  0  0  0  0  0
   -3.4442    4.5533   -0.9853 H   0  0  0  0  0  0  0  0  0  0  0  0
   -1.1131    4.8887   -2.9684 H   0  0  0  0  0  0  0  0  0  0  0  0
   -2.8516    4.9658   -3.3621 H   0  0  0  0  0  0  0  0  0  0  0  0
   -0.2415    2.6360   -2.3357 H   0  0  0  0  0  0  0  0  0  0  0  0
   -1.4506    1.3266   -2.2923 H   0  0  0  0  0  0  0  0  0  0  0  0
   -0.8283    2.0943    0.0475 H   0  0  0  0  0  0  0  0  0  0  0  0
   -2.5443    2.3322   -0.3191 H   0  0  0  0  0  0  0  0  0  0  0  0
   -0.6385    6.5023    0.7579 H   0  0  0  0  0  0  0  0  0  0  0  0
   -0.3878    6.7647   -0.9921 H   0  0  0  0  0  0  0  0  0  0  0  0
    1.7018    7.2908    0.5607 H   0  0  0  0  0  0  0  0  0  0  0  0
  1  2  1  0
  1 27  1  0
  1 28  1  0
  2  3  1  0
  2 11  2  0
  3  4  2  0
  4  5  1  0
  4 10  1  0
  5  6  2  0
  5 29  1  0
  6  7  1  0
  6 30  1  0
  7  8  1  0
  7  9  2  0
  9 10  1  0
  9 31  1  0
 10 11  1  0
 11 12  1  0
 12 13  2  0
 12 17  1  0
 13 14  1  0
 14 15  2  0
 14 32  1  0
 15 16  1  0
 15 26  1  0
 16 17  2  0
 16 18  1  0
 18 19  1  0
 18 25  1  0
 19 20  1  0
 19 24  1  0
 19 33  1  1
 20 21  1  0
 20 34  1  0
 20 35  1  0
 21 22  1  0
 21 36  1  0
 21 37  1  0
 22 23  1  0
 23 24  1  0
 23 38  1  0
 23 39  1  0
 24 40  1  0
 24 41  1  0
 25 26  1  0
 25 42  1  0
 25 43  1  0
 26 44  1  0
M  END

