
     RDKit          3D

 45 47  0  0  0  0  0  0  0  0999 V2000
    0.7484    0.0203    0.6194 C   0  0  0  0  0  0  0  0  0  0  0  0
    1.8814    1.0153    0.7301 C   0  0  0  0  0  0  0  0  0  0  0  0
    2.9344    0.5964   -0.1717 O   0  0  0  0  0  0  0  0  0  0  0  0
    4.0582    1.2687   -0.3059 C   0  0  0  0  0  0  0  0  0  0  0  0
    4.3597    2.4615    0.4013 C   0  0  0  0  0  0  0  0  0  0  0  0
    5.5703    3.0808    0.1878 C   0  0  0  0  0  0  0  0  0  0  0  0
    6.4931    2.5559   -0.7642 C   0  0  0  0  0  0  0  0  0  0  0  0
    7.8272    3.2421   -0.8940 C   0  0  0  0  0  0  0  0  0  0  0  0
    8.2952    3.6001    0.1940 O   0  0  0  0  0  0  0  0  0  0  0  0
    8.3801    3.3252   -2.0867 N   0  0  0  0  0  0  0  0  0  0  0  0
    9.7423    3.7685   -2.3967 C   0  0  0  0  0  0  0  0  0  0  0  0
   10.0047    3.3759   -3.8336 C   0  0  0  0  0  0  0  0  0  0  0  0
   11.1107    3.6086   -4.6453 C   0  0  0  0  0  0  0  0  0  0  0  0
   10.7650    3.0145   -5.8882 C   0  0  0  0  0  0  0  0  0  0  0  0
   11.4247    2.8910   -7.1302 C   0  0  0  0  0  0  0  0  0  0  0  0
   12.7435    3.4282   -7.3361 C   0  0  0  0  0  0  0  0  0  0  0  0
   13.3853    3.3050   -8.5564 C   0  0  0  0  0  0  0  0  0  0  0  0
   12.7745    2.6490   -9.6464 C   0  0  0  0  0  0  0  0  0  0  0  0
   11.4810    2.1159   -9.4622 C   0  0  0  0  0  0  0  0  0  0  0  0
   10.8175    2.2258   -8.2521 C   0  0  0  0  0  0  0  0  0  0  0  0
    9.4943    2.4752   -5.7437 O   0  0  0  0  0  0  0  0  0  0  0  0
    9.0321    2.7060   -4.4468 N   0  0  0  0  0  0  0  0  0  0  0  0
    6.2091    1.3520   -1.4347 C   0  0  0  0  0  0  0  0  0  0  0  0
    5.0011    0.6970   -1.2489 C   0  0  0  0  0  0  0  0  0  0  0  0
    4.6363   -0.5509   -1.9885 C   0  0  0  0  0  0  0  0  0  0  0  0
   -0.0649    0.3182    1.2975 H   0  0  0  0  0  0  0  0  0  0  0  0
    1.0808   -0.9896    0.9013 H   0  0  0  0  0  0  0  0  0  0  0  0
    0.3498   -0.0117   -0.4051 H   0  0  0  0  0  0  0  0  0  0  0  0
    2.2970    1.0526    1.7499 H   0  0  0  0  0  0  0  0  0  0  0  0
    1.5653    2.0305    0.4415 H   0  0  0  0  0  0  0  0  0  0  0  0
    3.6483    2.8811    1.1103 H   0  0  0  0  0  0  0  0  0  0  0  0
    5.8503    3.9802    0.7364 H   0  0  0  0  0  0  0  0  0  0  0  0
    7.9230    2.9494   -2.9318 H   0  0  0  0  0  0  0  0  0  0  0  0
   10.4529    3.2932   -1.7022 H   0  0  0  0  0  0  0  0  0  0  0  0
    9.8277    4.8580   -2.2528 H   0  0  0  0  0  0  0  0  0  0  0  0
   12.0313    4.1280   -4.3993 H   0  0  0  0  0  0  0  0  0  0  0  0
   13.2466    3.9427   -6.5134 H   0  0  0  0  0  0  0  0  0  0  0  0
   14.3886    3.7273   -8.6737 H   0  0  0  0  0  0  0  0  0  0  0  0
   13.2888    2.5571  -10.6049 H   0  0  0  0  0  0  0  0  0  0  0  0
   10.9868    1.6028  -10.2938 H   0  0  0  0  0  0  0  0  0  0  0  0
    9.8171    1.8066   -8.1337 H   0  0  0  0  0  0  0  0  0  0  0  0
    6.9366    0.9471   -2.1396 H   0  0  0  0  0  0  0  0  0  0  0  0
    5.4444   -0.8609   -2.6617 H   0  0  0  0  0  0  0  0  0  0  0  0
    3.7181   -0.4018   -2.5789 H   0  0  0  0  0  0  0  0  0  0  0  0
    4.4214   -1.3707   -1.2840 H   0  0  0  0  0  0  0  0  0  0  0  0
  1  2  1  0
  1 26  1  0
  1 27  1  0
  1 28  1  0
  2  3  1  0
  2 29  1  0
  2 30  1  0
  3  4  1  0
  4  5  2  0
  4 24  1  0
  5  6  1  0
  5 31  1  0
  6  7  2  0
  6 32  1  0
  7  8  1  0
  7 23  1  0
  8  9  2  0
  8 10  1  0
 10 11  1  0
 10 33  1  0
 11 12  1  0
 11 34  1  0
 11 35  1  0
 12 13  1  0
 12 22  2  0
 13 14  2  0
 13 36  1  0
 14 15  1  0
 14 21  1  0
 15 16  2  0
 15 20  1  0
 16 17  1  0
 16 37  1  0
 17 18  2  0
 17 38  1  0
 18 19  1  0
 18 39  1  0
 19 20  2  0
 19 40  1  0
 20 41  1  0
 21 22  1  0
 23 24  2  0
 23 42  1  0
 24 25  1  0
 25 43  1  0
 25 44  1  0
 25 45  1  0
M  END

