
     RDKit          3D

 33 34  0  0  0  0  0  0  0  0999 V2000
    3.1902   -0.1306   -1.0661 C   0  0  0  0  0  0  0  0  0  0  0  0
    2.3384    0.2871    0.1453 C   0  0  0  0  0  0  0  0  0  0  0  0
    2.9084   -0.1502    1.4810 C   0  0  0  0  0  0  0  0  0  0  0  0
    3.6323    0.7722    2.2480 C   0  0  0  0  0  0  0  0  0  0  0  0
    4.2107    0.4041    3.4643 C   0  0  0  0  0  0  0  0  0  0  0  0
    5.3017    1.8390    4.5946 I   0  0  0  0  0  0  0  0  0  0  0  0
    4.0738   -0.9004    3.9386 C   0  0  0  0  0  0  0  0  0  0  0  0
    3.3539   -1.8353    3.1944 C   0  0  0  0  0  0  0  0  0  0  0  0
    2.7680   -1.4770    1.9664 C   0  0  0  0  0  0  0  0  0  0  0  0
    2.0348   -2.3961    1.1965 N   0  0  0  0  0  0  0  0  0  0  0  0
    1.7732   -3.7352    1.4367 C   0  0  0  0  0  0  0  0  0  0  0  0
    2.1753   -4.3452    2.4164 O   0  0  0  0  0  0  0  0  0  0  0  0
    0.9480   -4.3682    0.3754 C   0  0  0  0  0  0  0  0  0  0  0  0
    0.6142   -5.6733    0.4715 C   0  0  0  0  0  0  0  0  0  0  0  0
   -0.1704   -6.4228   -0.4693 C   0  0  0  0  0  0  0  0  0  0  0  0
   -0.5723   -7.7427   -0.4821 C   0  0  0  0  0  0  0  0  0  0  0  0
   -1.3357   -7.9270   -1.6734 C   0  0  0  0  0  0  0  0  0  0  0  0
   -1.3463   -6.7106   -2.3017 C   0  0  0  0  0  0  0  0  0  0  0  0
   -0.6493   -5.7984   -1.5880 O   0  0  0  0  0  0  0  0  0  0  0  0
    2.7332    0.2137   -2.0077 H   0  0  0  0  0  0  0  0  0  0  0  0
    3.3101   -1.2242   -1.1278 H   0  0  0  0  0  0  0  0  0  0  0  0
    4.1999    0.3028   -0.9989 H   0  0  0  0  0  0  0  0  0  0  0  0
    1.3053   -0.0898    0.0247 H   0  0  0  0  0  0  0  0  0  0  0  0
    2.2381    1.3836    0.1512 H   0  0  0  0  0  0  0  0  0  0  0  0
    3.7386    1.7944    1.8783 H   0  0  0  0  0  0  0  0  0  0  0  0
    4.5211   -1.2015    4.8873 H   0  0  0  0  0  0  0  0  0  0  0  0
    3.2374   -2.8555    3.5520 H   0  0  0  0  0  0  0  0  0  0  0  0
    1.6270   -2.0240    0.3493 H   0  0  0  0  0  0  0  0  0  0  0  0
    0.6149   -3.7747   -0.4812 H   0  0  0  0  0  0  0  0  0  0  0  0
    0.9736   -6.2215    1.3479 H   0  0  0  0  0  0  0  0  0  0  0  0
   -0.3404   -8.4843    0.2796 H   0  0  0  0  0  0  0  0  0  0  0  0
   -1.8147   -8.8398   -2.0207 H   0  0  0  0  0  0  0  0  0  0  0  0
   -1.7917   -6.3570   -3.2283 H   0  0  0  0  0  0  0  0  0  0  0  0
  1  2  1  0
  1 20  1  0
  1 21  1  0
  1 22  1  0
  2  3  1  0
  2 23  1  0
  2 24  1  0
  3  4  2  0
  3  9  1  0
  4  5  1  0
  4 25  1  0
  5  6  1  0
  5  7  2  0
  7  8  1  0
  7 26  1  0
  8  9  2  0
  8 27  1  0
  9 10  1  0
 10 11  1  0
 10 28  1  0
 11 12  2  0
 11 13  1  0
 13 14  2  0
 13 29  1  0
 14 15  1  0
 14 30  1  0
 15 16  2  0
 15 19  1  0
 16 17  1  0
 16 31  1  0
 17 18  2  0
 17 32  1  0
 18 19  1  0
 18 33  1  0
M  END

