
     RDKit          3D

 54 54  0  0  0  0  0  0  0  0999 V2000
    0.8493   -0.0525   -0.1175 C   0  0  0  0  0  0  0  0  0  0  0  0
    2.3778   -0.0233   -0.0749 C   0  0  0  0  0  0  0  0  0  0  0  0
    2.9451    0.9926    0.9217 C   0  0  0  0  0  0  0  0  0  0  0  0
    4.4752    1.0281    0.9704 C   0  0  0  0  0  0  0  0  0  0  0  0
    5.0433    2.0457    1.9642 C   0  0  0  0  0  0  0  0  0  0  0  0
    6.5737    2.0787    2.0112 C   0  0  0  0  0  0  0  0  0  0  0  0
    7.1445    3.1015    2.9980 C   0  0  0  0  0  0  0  0  0  0  0  0
    8.6751    3.1291    3.0448 C   0  0  0  0  0  0  0  0  0  0  0  0
    9.2492    4.1636    4.0172 C   0  0  0  0  0  0  0  0  0  0  0  0
   10.7800    4.1794    4.0689 C   0  0  0  0  0  0  0  0  0  0  0  0
   11.3543    5.2357    5.0165 C   0  0  0  0  0  0  0  0  0  0  0  0
   12.8870    5.2174    5.0696 C   0  0  0  0  0  0  0  0  0  0  0  0
   13.4614    6.2341    5.9342 N   0  0  0  0  0  0  0  0  0  0  0  0
   13.6902    6.1050    7.2835 C   0  0  0  0  0  0  0  0  0  0  0  0
   14.1709    7.3091    7.7620 C   0  0  0  0  0  0  0  0  0  0  0  0
   14.2368    8.2187    6.6593 C   0  0  0  0  0  0  0  0  0  0  0  0
   14.6848    9.6536    6.6865 C   0  0  0  0  0  0  0  0  0  0  0  0
   13.6692   10.6136    7.3234 C   0  0  0  0  0  0  0  0  0  0  0  0
   14.1565   11.9894    7.2737 N   0  0  0  0  0  0  0  0  0  0  0  0
   13.7850    7.5170    5.5531 C   0  0  0  0  0  0  0  0  0  0  0  0
    0.4775   -0.7929   -0.8438 H   0  0  0  0  0  0  0  0  0  0  0  0
    0.4372    0.9299   -0.4037 H   0  0  0  0  0  0  0  0  0  0  0  0
    0.4255   -0.3114    0.8675 H   0  0  0  0  0  0  0  0  0  0  0  0
    2.7706    0.2006   -1.0836 H   0  0  0  0  0  0  0  0  0  0  0  0
    2.7591   -1.0298    0.1769 H   0  0  0  0  0  0  0  0  0  0  0  0
    2.5525    0.7695    1.9316 H   0  0  0  0  0  0  0  0  0  0  0  0
    2.5642    2.0003    0.6702 H   0  0  0  0  0  0  0  0  0  0  0  0
    4.8668    1.2489   -0.0402 H   0  0  0  0  0  0  0  0  0  0  0  0
    4.8554    0.0206    1.2234 H   0  0  0  0  0  0  0  0  0  0  0  0
    4.6519    1.8261    2.9751 H   0  0  0  0  0  0  0  0  0  0  0  0
    4.6645    3.0534    1.7106 H   0  0  0  0  0  0  0  0  0  0  0  0
    6.9647    2.2927    0.9990 H   0  0  0  0  0  0  0  0  0  0  0  0
    6.9523    1.0721    2.2698 H   0  0  0  0  0  0  0  0  0  0  0  0
    6.7523    2.8907    4.0104 H   0  0  0  0  0  0  0  0  0  0  0  0
    6.7694    4.1086    2.7369 H   0  0  0  0  0  0  0  0  0  0  0  0
    9.0670    3.3279    2.0298 H   0  0  0  0  0  0  0  0  0  0  0  0
    9.0496    2.1246    3.3172 H   0  0  0  0  0  0  0  0  0  0  0  0
    8.8527    3.9727    5.0317 H   0  0  0  0  0  0  0  0  0  0  0  0
    8.8837    5.1692    3.7384 H   0  0  0  0  0  0  0  0  0  0  0  0
   11.1765    4.3481    3.0502 H   0  0  0  0  0  0  0  0  0  0  0  0
   11.1439    3.1787    4.3685 H   0  0  0  0  0  0  0  0  0  0  0  0
   10.9593    5.0833    6.0362 H   0  0  0  0  0  0  0  0  0  0  0  0
   11.0208    6.2412    4.7055 H   0  0  0  0  0  0  0  0  0  0  0  0
   13.3000    5.3590    4.0573 H   0  0  0  0  0  0  0  0  0  0  0  0
   13.2407    4.2323    5.4163 H   0  0  0  0  0  0  0  0  0  0  0  0
   13.5036    5.1610    7.7928 H   0  0  0  0  0  0  0  0  0  0  0  0
   14.4643    7.5133    8.7910 H   0  0  0  0  0  0  0  0  0  0  0  0
   14.8959   10.0105    5.6655 H   0  0  0  0  0  0  0  0  0  0  0  0
   15.6379    9.7356    7.2425 H   0  0  0  0  0  0  0  0  0  0  0  0
   13.4273   10.2486    8.3458 H   0  0  0  0  0  0  0  0  0  0  0  0
   12.7266   10.5588    6.7519 H   0  0  0  0  0  0  0  0  0  0  0  0
   14.9789   12.0910    7.8712 H   0  0  0  0  0  0  0  0  0  0  0  0
   13.4570   12.6292    7.6504 H   0  0  0  0  0  0  0  0  0  0  0  0
   13.6841    7.8328    4.5158 H   0  0  0  0  0  0  0  0  0  0  0  0
  1  2  1  0
  1 21  1  0
  1 22  1  0
  1 23  1  0
  2  3  1  0
  2 24  1  0
  2 25  1  0
  3  4  1  0
  3 26  1  0
  3 27  1  0
  4  5  1  0
  4 28  1  0
  4 29  1  0
  5  6  1  0
  5 30  1  0
  5 31  1  0
  6  7  1  0
  6 32  1  0
  6 33  1  0
  7  8  1  0
  7 34  1  0
  7 35  1  0
  8  9  1  0
  8 36  1  0
  8 37  1  0
  9 10  1  0
  9 38  1  0
  9 39  1  0
 10 11  1  0
 10 40  1  0
 10 41  1  0
 11 12  1  0
 11 42  1  0
 11 43  1  0
 12 13  1  0
 12 44  1  0
 12 45  1  0
 13 14  1  0
 13 20  1  0
 14 15  2  0
 14 46  1  0
 15 16  1  0
 15 47  1  0
 16 17  1  0
 16 20  2  0
 17 18  1  0
 17 48  1  0
 17 49  1  0
 18 19  1  0
 18 50  1  0
 18 51  1  0
 19 52  1  0
 19 53  1  0
 20 54  1  0
M  END

