
     RDKit          3D

 59 62  0  0  0  0  0  0  0  0999 V2000
    1.1696   -0.6640   -1.8077 C   0  0  0  0  0  0  0  0  0  0  0  0
    2.3482   -0.3348   -1.0755 O   0  0  0  0  0  0  0  0  0  0  0  0
    3.3396   -1.2781   -1.0757 C   0  0  0  0  0  0  0  0  0  0  0  0
    4.4108   -1.1667   -1.9622 C   0  0  0  0  0  0  0  0  0  0  0  0
    5.4474   -2.1114   -1.9400 C   0  0  0  0  0  0  0  0  0  0  0  0
    6.5935   -2.0299   -2.9271 C   0  0  0  0  0  0  0  0  0  0  0  0
    7.0175   -0.6568   -3.1470 N   0  0  0  0  0  0  0  0  0  0  0  0
    7.8397   -0.3328   -4.2228 C   0  0  0  0  0  0  0  0  0  0  0  0
    8.0076   -1.2759   -5.2182 N   0  0  0  0  0  0  0  0  0  0  0  0
    8.8041   -1.0461   -6.2427 C   0  0  0  0  0  0  0  0  0  0  0  0
    9.4116    0.1223   -6.3745 N   0  0  0  0  0  0  0  0  0  0  0  0
    9.3519    1.1442   -5.4621 C   0  0  0  0  0  0  0  0  0  0  0  0
    9.8957    2.3496   -5.4198 N   0  0  0  0  0  0  0  0  0  0  0  0
    9.3934    2.9470   -4.3229 C   0  0  0  0  0  0  0  0  0  0  0  0
    8.5388    2.0730   -3.6224 N   0  0  0  0  0  0  0  0  0  0  0  0
    7.8640    2.3607   -2.9248 H   0  0  0  0  0  0  0  0  0  0  0  0
    8.4694    0.9071   -4.3597 C   0  0  0  0  0  0  0  0  0  0  0  0
    5.3862   -3.1638   -1.0226 C   0  0  0  0  0  0  0  0  0  0  0  0
    4.3221   -3.2844   -0.1183 C   0  0  0  0  0  0  0  0  0  0  0  0
    4.4009   -4.3286    0.7624 O   0  0  0  0  0  0  0  0  0  0  0  0
    3.2559   -4.9725    1.3267 C   0  0  1  0  0  0  0  0  0  0  0  0
    2.2808   -5.2180    0.3665 O   0  0  0  0  0  0  0  0  0  0  0  0
    2.0419   -6.6213    0.1666 C   0  0  2  0  0  0  0  0  0  0  0  0
    1.9518   -6.7885   -0.9169 H   0  0  0  0  0  0  0  0  0  0  0  0
    0.7463   -7.0118    0.8807 C   0  0  0  0  0  0  0  0  0  0  0  0
   -0.3289   -6.1470    0.5325 O   0  0  0  0  0  0  0  0  0  0  0  0
   -0.5089   -4.6987    1.2667 P   0  0  1  0  0  0  0  0  0  0  0  0
    0.1793   -4.6328    2.5861 O   0  0  0  0  0  0  0  0  0  0  0  0
   -0.1646   -3.5595    0.2118 O   0  0  0  0  0  0  0  0  0  0  0  0
   -2.1145   -4.5602    1.2461 O   0  0  0  0  0  0  0  0  0  0  0  0
    3.2646   -7.3363    0.7346 C   0  0  1  0  0  0  0  0  0  0  0  0
    2.9917   -8.3191    1.1698 H   0  0  0  0  0  0  0  0  0  0  0  0
    4.2504   -7.4706   -0.2526 O   0  0  0  0  0  0  0  0  0  0  0  0
    3.7426   -6.3543    1.8422 C   0  0  1  0  0  0  0  0  0  0  0  0
    3.2280   -6.5757    2.7912 H   0  0  0  0  0  0  0  0  0  0  0  0
    5.1298   -6.4321    2.0406 O   0  0  0  0  0  0  0  0  0  0  0  0
    3.2906   -2.3276   -0.1348 C   0  0  0  0  0  0  0  0  0  0  0  0
    2.2248   -2.4276    0.7292 O   0  0  0  0  0  0  0  0  0  0  0  0
    2.1542   -1.4904    1.8116 C   0  0  0  0  0  0  0  0  0  0  0  0
    0.5006    0.2045   -1.7362 H   0  0  0  0  0  0  0  0  0  0  0  0
    0.6577   -1.5470   -1.3910 H   0  0  0  0  0  0  0  0  0  0  0  0
    1.4047   -0.8513   -2.8702 H   0  0  0  0  0  0  0  0  0  0  0  0
    4.4302   -0.3334   -2.6661 H   0  0  0  0  0  0  0  0  0  0  0  0
    6.2844   -2.4321   -3.9061 H   0  0  0  0  0  0  0  0  0  0  0  0
    7.4217   -2.6825   -2.5853 H   0  0  0  0  0  0  0  0  0  0  0  0
    7.2482   -0.1617   -2.2889 H   0  0  0  0  0  0  0  0  0  0  0  0
    8.9471   -1.8072   -7.0157 H   0  0  0  0  0  0  0  0  0  0  0  0
    9.6914    3.9138   -3.9286 H   0  0  0  0  0  0  0  0  0  0  0  0
    6.1698   -3.9237   -0.9887 H   0  0  0  0  0  0  0  0  0  0  0  0
    2.8314   -4.3404    2.1178 H   0  0  0  0  0  0  0  0  0  0  0  0
    0.8901   -6.9979    1.9742 H   0  0  0  0  0  0  0  0  0  0  0  0
    0.4495   -8.0276    0.5770 H   0  0  0  0  0  0  0  0  0  0  0  0
    0.7660   -3.2438    0.3318 H   0  0  0  0  0  0  0  0  0  0  0  0
   -2.5368   -5.2853    1.7279 H   0  0  0  0  0  0  0  0  0  0  0  0
    5.0950   -7.4724    0.2290 H   0  0  0  0  0  0  0  0  0  0  0  0
    5.5065   -5.6404    1.6198 H   0  0  0  0  0  0  0  0  0  0  0  0
    1.3041   -1.8089    2.4295 H   0  0  0  0  0  0  0  0  0  0  0  0
    1.9991   -0.4699    1.4317 H   0  0  0  0  0  0  0  0  0  0  0  0
    3.0775   -1.5313    2.4124 H   0  0  0  0  0  0  0  0  0  0  0  0
  1  2  1  0
  1 40  1  0
  1 41  1  0
  1 42  1  0
  2  3  1  0
  3  4  2  0
  3 37  1  0
  4  5  1  0
  4 43  1  0
  5  6  1  0
  5 18  2  0
  6  7  1  0
  6 44  1  0
  6 45  1  0
  7  8  1  0
  7 46  1  0
  8  9  2  0
  8 17  1  0
  9 10  1  0
 10 11  2  0
 10 47  1  0
 11 12  1  0
 12 13  1  0
 12 17  2  0
 13 14  2  0
 14 15  1  0
 14 48  1  0
 15 16  1  0
 15 17  1  0
 18 19  1  0
 18 49  1  0
 19 20  1  0
 19 37  2  0
 20 21  1  0
 21 22  1  0
 21 34  1  0
 21 50  1  1
 22 23  1  0
 23 24  1  6
 23 25  1  0
 23 31  1  0
 25 26  1  0
 25 51  1  0
 25 52  1  0
 27 26  1  6
 27 28  2  0
 27 29  1  0
 27 30  1  0
 29 53  1  0
 30 54  1  0
 31 32  1  1
 31 33  1  0
 31 34  1  0
 33 55  1  0
 34 35  1  1
 34 36  1  0
 36 56  1  0
 37 38  1  0
 38 39  1  0
 39 57  1  0
 39 58  1  0
 39 59  1  0
M  END

