
     RDKit          3D

 53 55  0  0  0  0  0  0  0  0999 V2000
    1.5450    1.1156   -0.2703 C   0  0  0  0  0  0  0  0  0  0  0  0
    2.6448    0.2535   -0.1732 O   0  0  0  0  0  0  0  0  0  0  0  0
    2.6398   -0.7835   -1.1208 C   0  0  0  0  0  0  0  0  0  0  0  0
    3.9076   -1.6126   -0.9037 C   0  0  0  0  0  0  0  0  0  0  0  0
    4.0047   -2.7208   -1.8249 N   0  0  0  0  0  0  0  0  0  0  0  0
    3.5860   -4.0218   -1.5111 C   0  0  0  0  0  0  0  0  0  0  0  0
    3.1237   -4.3540   -0.4129 O   0  0  0  0  0  0  0  0  0  0  0  0
    3.8834   -4.8225   -2.7045 C   0  0  0  0  0  0  0  0  0  0  0  0
    3.9473   -6.2638   -2.6882 C   0  0  0  0  0  0  0  0  0  0  0  0
    4.7331   -7.0067   -3.6178 C   0  0  0  0  0  0  0  0  0  0  0  0
    4.7858   -8.3872   -3.5793 C   0  0  0  0  0  0  0  0  0  0  0  0
    4.0643   -9.1093   -2.5999 C   0  0  0  0  0  0  0  0  0  0  0  0
    4.1905  -10.4463   -2.6508 O   0  0  0  0  0  0  0  0  0  0  0  0
    3.5426  -11.3210   -1.7064 C   0  0  1  0  0  0  0  0  0  0  0  0
    2.0932  -11.5637   -2.1199 C   0  0  0  0  0  0  0  0  0  0  0  0
    4.3750  -12.5953   -1.6779 C   0  0  0  0  0  0  0  0  0  0  0  0
    3.3071   -8.3941   -1.6461 C   0  0  0  0  0  0  0  0  0  0  0  0
    3.2638   -7.0077   -1.6833 C   0  0  0  0  0  0  0  0  0  0  0  0
    4.3449   -3.9198   -3.7225 C   0  0  0  0  0  0  0  0  0  0  0  0
    4.5473   -4.1885   -5.0458 N   0  0  0  0  0  0  0  0  0  0  0  0
    3.6295   -5.0250   -5.8248 C   0  0  0  0  0  0  0  0  0  0  0  0
    2.7910   -4.1354   -6.7575 C   0  0  0  0  0  0  0  0  0  0  0  0
    3.6071   -3.3422   -7.5848 O   0  0  0  0  0  0  0  0  0  0  0  0
    4.4538   -2.4916   -6.8335 C   0  0  0  0  0  0  0  0  0  0  0  0
    5.3509   -3.2998   -5.8902 C   0  0  0  0  0  0  0  0  0  0  0  0
    4.4661   -2.5782   -3.1426 C   0  0  0  0  0  0  0  0  0  0  0  0
    4.7981   -1.4993   -3.6650 O   0  0  0  0  0  0  0  0  0  0  0  0
    1.6492    1.8852    0.5090 H   0  0  0  0  0  0  0  0  0  0  0  0
    0.5836    0.5842   -0.1133 H   0  0  0  0  0  0  0  0  0  0  0  0
    1.4959    1.6188   -1.2579 H   0  0  0  0  0  0  0  0  0  0  0  0
    2.6354   -0.3814   -2.1540 H   0  0  0  0  0  0  0  0  0  0  0  0
    1.7462   -1.4308   -1.0004 H   0  0  0  0  0  0  0  0  0  0  0  0
    3.9010   -2.0250    0.1148 H   0  0  0  0  0  0  0  0  0  0  0  0
    4.7830   -0.9616   -1.0432 H   0  0  0  0  0  0  0  0  0  0  0  0
    5.3386   -6.4716   -4.3503 H   0  0  0  0  0  0  0  0  0  0  0  0
    5.4035   -8.9517   -4.2808 H   0  0  0  0  0  0  0  0  0  0  0  0
    3.5764  -10.8487   -0.7094 H   0  0  0  0  0  0  0  0  0  0  0  0
    2.0552  -12.0362   -3.1141 H   0  0  0  0  0  0  0  0  0  0  0  0
    1.5192  -10.6262   -2.1625 H   0  0  0  0  0  0  0  0  0  0  0  0
    1.5991  -12.2333   -1.3986 H   0  0  0  0  0  0  0  0  0  0  0  0
    4.3933  -13.0647   -2.6739 H   0  0  0  0  0  0  0  0  0  0  0  0
    3.9493  -13.3139   -0.9612 H   0  0  0  0  0  0  0  0  0  0  0  0
    5.4110  -12.3763   -1.3797 H   0  0  0  0  0  0  0  0  0  0  0  0
    2.7478   -8.9156   -0.8696 H   0  0  0  0  0  0  0  0  0  0  0  0
    2.6985   -6.4530   -0.9345 H   0  0  0  0  0  0  0  0  0  0  0  0
    2.9762   -5.5920   -5.1508 H   0  0  0  0  0  0  0  0  0  0  0  0
    4.2097   -5.7394   -6.4345 H   0  0  0  0  0  0  0  0  0  0  0  0
    2.1167   -3.5027   -6.1439 H   0  0  0  0  0  0  0  0  0  0  0  0
    2.1713   -4.7666   -7.4141 H   0  0  0  0  0  0  0  0  0  0  0  0
    3.8671   -1.7741   -6.2296 H   0  0  0  0  0  0  0  0  0  0  0  0
    5.0673   -1.9286   -7.5528 H   0  0  0  0  0  0  0  0  0  0  0  0
    5.9360   -2.6238   -5.2592 H   0  0  0  0  0  0  0  0  0  0  0  0
    6.0276   -3.9347   -6.4917 H   0  0  0  0  0  0  0  0  0  0  0  0
  1  2  1  0
  1 28  1  0
  1 29  1  0
  1 30  1  0
  2  3  1  0
  3  4  1  0
  3 31  1  0
  3 32  1  0
  4  5  1  0
  4 33  1  0
  4 34  1  0
  5  6  1  0
  5 26  1  0
  6  7  2  0
  6  8  1  0
  8  9  1  0
  8 19  2  0
  9 10  2  0
  9 18  1  0
 10 11  1  0
 10 35  1  0
 11 12  2  0
 11 36  1  0
 12 13  1  0
 12 17  1  0
 13 14  1  0
 14 15  1  0
 14 16  1  0
 14 37  1  1
 15 38  1  0
 15 39  1  0
 15 40  1  0
 16 41  1  0
 16 42  1  0
 16 43  1  0
 17 18  2  0
 17 44  1  0
 18 45  1  0
 19 20  1  0
 19 26  1  0
 20 21  1  0
 20 25  1  0
 21 22  1  0
 21 46  1  0
 21 47  1  0
 22 23  1  0
 22 48  1  0
 22 49  1  0
 23 24  1  0
 24 25  1  0
 24 50  1  0
 24 51  1  0
 25 52  1  0
 25 53  1  0
 26 27  2  0
M  END

