
     RDKit          3D

 48 50  0  0  0  0  0  0  0  0999 V2000
   -0.3849   -1.8513   -2.0987 C   0  0  0  0  0  0  0  0  0  0  0  0
    0.7421   -1.4179   -1.1342 C   0  0  1  0  0  0  0  0  0  0  0  0
    1.4490   -2.5483   -0.5830 N   0  0  0  0  0  0  0  0  0  0  0  0
    1.0935   -3.0369    0.6868 C   0  0  0  0  0  0  0  0  0  0  0  0
    0.4984   -2.3109    1.5255 O   0  0  0  0  0  0  0  0  0  0  0  0
    1.5262   -4.4006    0.9035 C   0  0  0  0  0  0  0  0  0  0  0  0
    2.0424   -5.1467    0.0313 O   0  0  0  0  0  0  0  0  0  0  0  0
    1.2696   -4.9564    2.2377 N   0  0  0  0  0  0  0  0  0  0  0  0
    1.6523   -4.1527    3.3689 C   0  0  0  0  0  0  0  0  0  0  0  0
    0.9740   -4.6761    4.6351 C   0  0  0  0  0  0  0  0  0  0  0  0
    1.2670   -6.1181    4.8537 N   0  0  0  0  0  0  0  0  0  0  0  0
    1.6798   -6.6340    6.0252 C   0  0  0  0  0  0  0  0  0  0  0  0
    2.0899   -8.0142    6.1488 C   0  0  0  0  0  0  0  0  0  0  0  0
    2.5043   -8.5364    7.3533 C   0  0  0  0  0  0  0  0  0  0  0  0
    2.5227   -7.7188    8.4949 C   0  0  0  0  0  0  0  0  0  0  0  0
    2.9199   -8.2248    9.6467 F   0  0  0  0  0  0  0  0  0  0  0  0
    2.1240   -6.3740    8.4339 C   0  0  0  0  0  0  0  0  0  0  0  0
    1.7160   -5.8394    7.2326 C   0  0  0  0  0  0  0  0  0  0  0  0
    1.0227   -6.9240    3.6270 C   0  0  0  0  0  0  0  0  0  0  0  0
    1.6982   -6.3192    2.3998 C   0  0  0  0  0  0  0  0  0  0  0  0
    1.6429   -0.4028   -1.8289 C   0  0  0  0  0  0  0  0  0  0  0  0
    1.2437    0.9391   -1.9240 C   0  0  0  0  0  0  0  0  0  0  0  0
    2.0096    1.8768   -2.6243 C   0  0  0  0  0  0  0  0  0  0  0  0
    3.1996    1.4870   -3.2444 C   0  0  0  0  0  0  0  0  0  0  0  0
    3.6131    0.1537   -3.1546 C   0  0  0  0  0  0  0  0  0  0  0  0
    2.8427   -0.7774   -2.4530 C   0  0  0  0  0  0  0  0  0  0  0  0
   -1.0855   -2.5314   -1.5869 H   0  0  0  0  0  0  0  0  0  0  0  0
    0.0423   -2.3767   -2.9705 H   0  0  0  0  0  0  0  0  0  0  0  0
   -0.9499   -0.9848   -2.4788 H   0  0  0  0  0  0  0  0  0  0  0  0
    0.2810   -0.9249   -0.2664 H   0  0  0  0  0  0  0  0  0  0  0  0
    1.7408   -3.2936   -1.2080 H   0  0  0  0  0  0  0  0  0  0  0  0
    1.3008   -3.1246    3.1986 H   0  0  0  0  0  0  0  0  0  0  0  0
    2.7547   -4.1267    3.5418 H   0  0  0  0  0  0  0  0  0  0  0  0
   -0.1188   -4.5895    4.5282 H   0  0  0  0  0  0  0  0  0  0  0  0
    1.3018   -4.0956    5.4993 H   0  0  0  0  0  0  0  0  0  0  0  0
    2.0993   -8.6637    5.2794 H   0  0  0  0  0  0  0  0  0  0  0  0
    2.8255   -9.5756    7.4362 H   0  0  0  0  0  0  0  0  0  0  0  0
    2.1357   -5.7727    9.3440 H   0  0  0  0  0  0  0  0  0  0  0  0
    1.3944   -4.8029    7.2167 H   0  0  0  0  0  0  0  0  0  0  0  0
   -0.0699   -6.9156    3.4829 H   0  0  0  0  0  0  0  0  0  0  0  0
    1.3416   -7.9579    3.7778 H   0  0  0  0  0  0  0  0  0  0  0  0
    1.4157   -6.9066    1.5172 H   0  0  0  0  0  0  0  0  0  0  0  0
    2.8033   -6.4285    2.5038 H   0  0  0  0  0  0  0  0  0  0  0  0
    0.3205    1.2571   -1.4292 H   0  0  0  0  0  0  0  0  0  0  0  0
    1.6813    2.9190   -2.6739 H   0  0  0  0  0  0  0  0  0  0  0  0
    3.8040    2.2180   -3.7882 H   0  0  0  0  0  0  0  0  0  0  0  0
    4.5457   -0.1644   -3.6293 H   0  0  0  0  0  0  0  0  0  0  0  0
    3.1961   -1.8099   -2.3763 H   0  0  0  0  0  0  0  0  0  0  0  0
  1  2  1  0
  1 27  1  0
  1 28  1  0
  1 29  1  0
  2  3  1  0
  2 21  1  0
  2 30  1  1
  3  4  1  0
  3 31  1  0
  4  5  2  0
  4  6  1  0
  6  7  2  0
  6  8  1  0
  8  9  1  0
  8 20  1  0
  9 10  1  0
  9 32  1  0
  9 33  1  0
 10 11  1  0
 10 34  1  0
 10 35  1  0
 11 12  1  0
 11 19  1  0
 12 13  2  0
 12 18  1  0
 13 14  1  0
 13 36  1  0
 14 15  2  0
 14 37  1  0
 15 16  1  0
 15 17  1  0
 17 18  2  0
 17 38  1  0
 18 39  1  0
 19 20  1  0
 19 40  1  0
 19 41  1  0
 20 42  1  0
 20 43  1  0
 21 22  2  0
 21 26  1  0
 22 23  1  0
 22 44  1  0
 23 24  2  0
 23 45  1  0
 24 25  1  0
 24 46  1  0
 25 26  2  0
 25 47  1  0
 26 48  1  0
M  END

