
     RDKit          3D

 46 45  0  0  0  0  0  0  0  0999 V2000
    2.7840    2.3517   -1.6733 C   0  0  0  0  0  0  0  0  0  0  0  0
    3.5195    1.2787   -0.8692 C   0  0  0  0  0  0  0  0  0  0  0  0
    4.2434    0.2512   -1.7444 C   0  0  0  0  0  0  0  0  0  0  0  0
    4.9866   -0.8267   -0.9329 C   0  0  0  0  0  0  0  0  0  0  0  0
    5.6253   -1.8669   -1.7994 C   0  0  0  0  0  0  0  0  0  0  0  0
    6.9261   -2.2198   -1.8723 C   0  0  0  0  0  0  0  0  0  0  0  0
    8.0552   -1.6346   -1.0646 C   0  0  0  0  0  0  0  0  0  0  0  0
    7.2501   -3.3013   -2.8541 C   0  0  0  0  0  0  0  0  0  0  0  0
    6.4687   -3.8666   -3.5795 O   0  0  0  0  0  0  0  0  0  0  0  0
    8.5887   -3.5858   -2.8470 O   0  0  0  0  0  0  0  0  0  0  0  0
    9.0436   -4.6203   -3.6914 C   0  0  0  0  0  0  0  0  0  0  0  0
    8.9852   -5.8656   -3.0228 O   0  0  0  0  0  0  0  0  0  0  0  0
   10.0421   -6.2117   -2.2496 C   0  0  0  0  0  0  0  0  0  0  0  0
   11.0215   -5.5276   -2.1117 O   0  0  0  0  0  0  0  0  0  0  0  0
    9.8076   -7.5750   -1.5660 C   0  0  1  0  0  0  0  0  0  0  0  0
   11.0598   -7.9550   -0.7701 C   0  0  0  0  0  0  0  0  0  0  0  0
    8.5711   -7.4535   -0.6566 C   0  0  0  0  0  0  0  0  0  0  0  0
    9.5999   -8.4642   -2.6615 O   0  0  0  0  0  0  0  0  0  0  0  0
    9.1303   -9.7731   -2.4026 C   0  0  0  0  0  0  0  0  0  0  0  0
    9.1723  -10.5477   -3.7083 C   0  0  0  0  0  0  0  0  0  0  0  0
    2.2762    3.0732   -1.0136 H   0  0  0  0  0  0  0  0  0  0  0  0
    2.0188    1.9063   -2.3308 H   0  0  0  0  0  0  0  0  0  0  0  0
    3.4789    2.9191   -2.3146 H   0  0  0  0  0  0  0  0  0  0  0  0
    2.8039    0.7531   -0.2109 H   0  0  0  0  0  0  0  0  0  0  0  0
    4.2502    1.7595   -0.1935 H   0  0  0  0  0  0  0  0  0  0  0  0
    4.9634    0.7681   -2.4039 H   0  0  0  0  0  0  0  0  0  0  0  0
    3.5154   -0.2371   -2.4176 H   0  0  0  0  0  0  0  0  0  0  0  0
    4.2528   -1.3307   -0.2745 H   0  0  0  0  0  0  0  0  0  0  0  0
    5.7205   -0.3479   -0.2660 H   0  0  0  0  0  0  0  0  0  0  0  0
    4.9488   -2.4068   -2.4727 H   0  0  0  0  0  0  0  0  0  0  0  0
    7.7052   -0.8541   -0.3766 H   0  0  0  0  0  0  0  0  0  0  0  0
    8.8247   -1.1981   -1.7211 H   0  0  0  0  0  0  0  0  0  0  0  0
    8.5642   -2.4133   -0.4746 H   0  0  0  0  0  0  0  0  0  0  0  0
   10.0811   -4.3747   -3.9458 H   0  0  0  0  0  0  0  0  0  0  0  0
    8.3897   -4.7161   -4.5654 H   0  0  0  0  0  0  0  0  0  0  0  0
   11.2811   -7.1967   -0.0059 H   0  0  0  0  0  0  0  0  0  0  0  0
   11.9278   -8.0262   -1.4402 H   0  0  0  0  0  0  0  0  0  0  0  0
   10.9180   -8.9216   -0.2645 H   0  0  0  0  0  0  0  0  0  0  0  0
    8.7043   -6.6280    0.0598 H   0  0  0  0  0  0  0  0  0  0  0  0
    8.4189   -8.3748   -0.0748 H   0  0  0  0  0  0  0  0  0  0  0  0
    7.6733   -7.2528   -1.2578 H   0  0  0  0  0  0  0  0  0  0  0  0
    8.0951   -9.7513   -2.0109 H   0  0  0  0  0  0  0  0  0  0  0  0
    9.7549  -10.2804   -1.6413 H   0  0  0  0  0  0  0  0  0  0  0  0
    8.5494  -10.0517   -4.4685 H   0  0  0  0  0  0  0  0  0  0  0  0
    8.7968  -11.5728   -3.5620 H   0  0  0  0  0  0  0  0  0  0  0  0
   10.2022  -10.6025   -4.0935 H   0  0  0  0  0  0  0  0  0  0  0  0
  1  2  1  0
  1 21  1  0
  1 22  1  0
  1 23  1  0
  2  3  1  0
  2 24  1  0
  2 25  1  0
  3  4  1  0
  3 26  1  0
  3 27  1  0
  4  5  1  0
  4 28  1  0
  4 29  1  0
  5  6  2  0
  5 30  1  0
  6  7  1  0
  6  8  1  0
  7 31  1  0
  7 32  1  0
  7 33  1  0
  8  9  2  0
  8 10  1  0
 10 11  1  0
 11 12  1  0
 11 34  1  0
 11 35  1  0
 12 13  1  0
 13 14  2  0
 13 15  1  0
 15 16  1  0
 15 17  1  0
 15 18  1  6
 16 36  1  0
 16 37  1  0
 16 38  1  0
 17 39  1  0
 17 40  1  0
 17 41  1  0
 18 19  1  0
 19 20  1  0
 19 42  1  0
 19 43  1  0
 20 44  1  0
 20 45  1  0
 20 46  1  0
M  END

