
     RDKit          3D

 64 68  0  0  0  0  0  0  0  0999 V2000
    2.0318   -0.1924   -0.6129 O   0  0  0  0  0  0  0  0  0  0  0  0
    3.0021   -0.1096    0.1720 C   0  0  0  0  0  0  0  0  0  0  0  0
    4.2952    0.5560   -0.0940 C   0  0  0  0  0  0  0  0  0  0  0  0
    4.7361    1.1454   -1.1008 O   0  0  0  0  0  0  0  0  0  0  0  0
    5.0817    0.4484    1.0824 N   0  0  0  0  0  0  0  0  0  0  0  0
    6.4727    0.8028    1.0665 C   0  0  0  0  0  0  0  0  0  0  0  0
    6.7022    2.3215    0.8874 C   0  0  0  0  0  0  0  0  0  0  0  0
    7.7020    2.6587   -0.1433 N   0  0  0  0  0  0  0  0  0  0  0  0
    7.3995    2.3558   -1.5073 C   0  0  0  0  0  0  0  0  0  0  0  0
    6.6233    3.5942   -2.1549 C   0  0  0  0  0  0  0  0  0  0  0  0
    7.3905    4.7932   -1.9907 N   0  0  0  0  0  0  0  0  0  0  0  0
    8.3877    5.1183   -3.0150 C   0  0  0  0  0  0  0  0  0  0  0  0
    8.8011    6.5751   -3.0253 C   0  0  0  0  0  0  0  0  0  0  0  0
   10.1489    6.9362   -2.8949 C   0  0  0  0  0  0  0  0  0  0  0  0
   10.5329    8.2809   -2.9349 C   0  0  0  0  0  0  0  0  0  0  0  0
    9.5690    9.2777   -3.0997 C   0  0  0  0  0  0  0  0  0  0  0  0
    8.2204    8.9267   -3.2283 C   0  0  0  0  0  0  0  0  0  0  0  0
    7.8389    7.5846   -3.1945 C   0  0  0  0  0  0  0  0  0  0  0  0
    7.6986    5.0878   -0.6273 C   0  0  0  0  0  0  0  0  0  0  0  0
    8.4724    3.8428    0.0199 C   0  0  0  0  0  0  0  0  0  0  0  0
    4.3972   -0.2904    2.0591 C   0  0  0  0  0  0  0  0  0  0  0  0
    4.7739   -0.6826    3.3406 C   0  0  0  0  0  0  0  0  0  0  0  0
    3.8651   -1.4214    4.1113 C   0  0  0  0  0  0  0  0  0  0  0  0
    2.5762   -1.7492    3.6292 C   0  0  0  0  0  0  0  0  0  0  0  0
    1.7029   -2.5061    4.4643 N   0  0  0  0  0  0  0  0  0  0  0  0
    0.5790   -3.1776    3.8307 C   0  0  0  0  0  0  0  0  0  0  0  0
    0.0070   -4.2699    4.7410 C   0  0  0  0  0  0  0  0  0  0  0  0
   -0.3773   -3.7093    6.1139 C   0  0  0  0  0  0  0  0  0  0  0  0
    0.8049   -2.9500    6.7247 C   0  0  0  0  0  0  0  0  0  0  0  0
    1.3453   -1.9043    5.7469 C   0  0  0  0  0  0  0  0  0  0  0  0
    2.2137   -1.3394    2.3339 C   0  0  0  0  0  0  0  0  0  0  0  0
    3.1228   -0.6280    1.5430 C   0  0  0  0  0  0  0  0  0  0  0  0
    7.0035    0.2618    0.2619 H   0  0  0  0  0  0  0  0  0  0  0  0
    6.9338    0.4725    2.0074 H   0  0  0  0  0  0  0  0  0  0  0  0
    7.0448    2.7775    1.8269 H   0  0  0  0  0  0  0  0  0  0  0  0
    5.7430    2.7931    0.6196 H   0  0  0  0  0  0  0  0  0  0  0  0
    6.7095    1.5072   -1.5802 H   0  0  0  0  0  0  0  0  0  0  0  0
    8.3293    2.2013   -2.0780 H   0  0  0  0  0  0  0  0  0  0  0  0
    5.6594    3.6616   -1.6368 H   0  0  0  0  0  0  0  0  0  0  0  0
    6.4422    3.3807   -3.2148 H   0  0  0  0  0  0  0  0  0  0  0  0
    7.9455    4.8423   -3.9842 H   0  0  0  0  0  0  0  0  0  0  0  0
    9.2855    4.4800   -2.8877 H   0  0  0  0  0  0  0  0  0  0  0  0
   10.9095    6.1604   -2.7664 H   0  0  0  0  0  0  0  0  0  0  0  0
   11.5878    8.5474   -2.8358 H   0  0  0  0  0  0  0  0  0  0  0  0
    9.8667   10.3285   -3.1298 H   0  0  0  0  0  0  0  0  0  0  0  0
    7.4628    9.7028   -3.3606 H   0  0  0  0  0  0  0  0  0  0  0  0
    6.7841    7.3172   -3.3009 H   0  0  0  0  0  0  0  0  0  0  0  0
    6.7726    5.2355   -0.0535 H   0  0  0  0  0  0  0  0  0  0  0  0
    8.3236    5.9859   -0.5474 H   0  0  0  0  0  0  0  0  0  0  0  0
    8.6647    4.0552    1.0788 H   0  0  0  0  0  0  0  0  0  0  0  0
    9.4352    3.7539   -0.5096 H   0  0  0  0  0  0  0  0  0  0  0  0
    5.7592   -0.4468    3.7522 H   0  0  0  0  0  0  0  0  0  0  0  0
    4.1680   -1.7755    5.0988 H   0  0  0  0  0  0  0  0  0  0  0  0
    0.9229   -3.6222    2.8854 H   0  0  0  0  0  0  0  0  0  0  0  0
   -0.2361   -2.4624    3.5684 H   0  0  0  0  0  0  0  0  0  0  0  0
    0.7688   -5.0595    4.8658 H   0  0  0  0  0  0  0  0  0  0  0  0
   -0.8653   -4.7346    4.2506 H   0  0  0  0  0  0  0  0  0  0  0  0
   -0.7170   -4.5156    6.7861 H   0  0  0  0  0  0  0  0  0  0  0  0
   -1.2316   -3.0161    5.9979 H   0  0  0  0  0  0  0  0  0  0  0  0
    1.6151   -3.6606    6.9660 H   0  0  0  0  0  0  0  0  0  0  0  0
    0.5101   -2.4571    7.6670 H   0  0  0  0  0  0  0  0  0  0  0  0
    2.2303   -1.4114    6.1717 H   0  0  0  0  0  0  0  0  0  0  0  0
    0.5778   -1.1057    5.6063 H   0  0  0  0  0  0  0  0  0  0  0  0
    1.2318   -1.5564    1.9120 H   0  0  0  0  0  0  0  0  0  0  0  0
  1  2  2  0
  2  3  1  0
  2 32  1  0
  3  4  2  0
  3  5  1  0
  5  6  1  0
  5 21  1  0
  6  7  1  0
  6 33  1  0
  6 34  1  0
  7  8  1  0
  7 35  1  0
  7 36  1  0
  8  9  1  0
  8 20  1  0
  9 10  1  0
  9 37  1  0
  9 38  1  0
 10 11  1  0
 10 39  1  0
 10 40  1  0
 11 12  1  0
 11 19  1  0
 12 13  1  0
 12 41  1  0
 12 42  1  0
 13 14  2  0
 13 18  1  0
 14 15  1  0
 14 43  1  0
 15 16  2  0
 15 44  1  0
 16 17  1  0
 16 45  1  0
 17 18  2  0
 17 46  1  0
 18 47  1  0
 19 20  1  0
 19 48  1  0
 19 49  1  0
 20 50  1  0
 20 51  1  0
 21 22  2  0
 21 32  1  0
 22 23  1  0
 22 52  1  0
 23 24  2  0
 23 53  1  0
 24 25  1  0
 24 31  1  0
 25 26  1  0
 25 30  1  0
 26 27  1  0
 26 54  1  0
 26 55  1  0
 27 28  1  0
 27 56  1  0
 27 57  1  0
 28 29  1  0
 28 58  1  0
 28 59  1  0
 29 30  1  0
 29 60  1  0
 29 61  1  0
 30 62  1  0
 30 63  1  0
 31 32  2  0
 31 64  1  0
M  END

