
     RDKit          3D

 67 71  0  0  0  0  0  0  0  0999 V2000
    1.1237   -1.2052    1.1212 C   0  0  0  0  0  0  0  0  0  0  0  0
    2.5598   -0.9656    0.7840 C   0  0  0  0  0  0  0  0  0  0  0  0
    3.4895   -0.1646    1.4072 C   0  0  0  0  0  0  0  0  0  0  0  0
    4.7065   -0.2416    0.6596 C   0  0  0  0  0  0  0  0  0  0  0  0
    5.9502    0.5469    0.8762 C   0  0  1  0  0  0  0  0  0  0  0  0
    5.8471    2.1294    0.8200 C   0  0  1  0  0  0  0  0  0  0  0  0
    4.4893    2.7727    0.6327 C   0  0  0  0  0  0  0  0  0  0  0  0
    3.7985    3.4102    1.6410 C   0  0  0  0  0  0  0  0  0  0  0  0
    2.5382    4.0279    1.3642 C   0  0  0  0  0  0  0  0  0  0  0  0
    2.0844    3.9080    0.0089 C   0  0  0  0  0  0  0  0  0  0  0  0
    2.8477    3.2373   -0.9223 C   0  0  0  0  0  0  0  0  0  0  0  0
    4.0683    2.6527   -0.6741 N   0  0  0  0  0  0  0  0  0  0  0  0
    6.5254    2.5145    2.0807 N   0  0  0  0  0  0  0  0  0  0  0  0
    6.8508    1.4751    2.8181 C   0  0  0  0  0  0  0  0  0  0  0  0
    7.5984    1.5885    4.4017 S   0  0  0  0  0  0  0  0  0  0  0  0
    6.5777    0.3191    2.2406 N   0  0  0  0  0  0  0  0  0  0  0  0
    6.9643   -0.9622    2.7531 C   0  0  0  0  0  0  0  0  0  0  0  0
    6.0151   -1.8152    3.3412 C   0  0  0  0  0  0  0  0  0  0  0  0
    6.4050   -3.0557    3.8253 C   0  0  0  0  0  0  0  0  0  0  0  0
    7.7476   -3.4796    3.7353 C   0  0  0  0  0  0  0  0  0  0  0  0
    8.0051   -4.7083    4.2250 O   0  0  0  0  0  0  0  0  0  0  0  0
    9.3298   -5.2696    4.2338 C   0  0  1  0  0  0  0  0  0  0  0  0
   10.1318   -4.7302    5.4158 C   0  0  0  0  0  0  0  0  0  0  0  0
    9.1434   -6.7797    4.2841 C   0  0  0  0  0  0  0  0  0  0  0  0
    8.6958   -2.6239    3.1474 C   0  0  0  0  0  0  0  0  0  0  0  0
    8.2961   -1.3798    2.6534 C   0  0  0  0  0  0  0  0  0  0  0  0
    4.4882   -1.1094   -0.4030 C   0  0  0  0  0  0  0  0  0  0  0  0
    5.3871   -1.5323   -1.5211 C   0  0  0  0  0  0  0  0  0  0  0  0
    3.1779   -1.5416   -0.3201 N   0  0  0  0  0  0  0  0  0  0  0  0
    2.4965   -2.3222   -1.3324 C   0  0  0  0  0  0  0  0  0  0  0  0
    1.8479   -1.5099   -2.4455 C   0  0  0  0  0  0  0  0  0  0  0  0
    0.9594   -2.1377   -3.3295 C   0  0  0  0  0  0  0  0  0  0  0  0
    0.3889   -1.4011   -4.3653 C   0  0  0  0  0  0  0  0  0  0  0  0
    0.7321   -0.0491   -4.4817 C   0  0  0  0  0  0  0  0  0  0  0  0
    1.5718    0.5625   -3.6485 N   0  0  0  0  0  0  0  0  0  0  0  0
    2.1159   -0.1457   -2.6519 C   0  0  0  0  0  0  0  0  0  0  0  0
    0.8599   -0.6304    2.0195 H   0  0  0  0  0  0  0  0  0  0  0  0
    0.9046   -2.2683    1.3276 H   0  0  0  0  0  0  0  0  0  0  0  0
    0.4478   -0.8784    0.3128 H   0  0  0  0  0  0  0  0  0  0  0  0
    3.2925    0.4675    2.2695 H   0  0  0  0  0  0  0  0  0  0  0  0
    6.7087    0.2196    0.1523 H   0  0  0  0  0  0  0  0  0  0  0  0
    6.4710    2.4642   -0.0223 H   0  0  0  0  0  0  0  0  0  0  0  0
    4.1932    3.4447    2.6609 H   0  0  0  0  0  0  0  0  0  0  0  0
    1.9695    4.5495    2.1317 H   0  0  0  0  0  0  0  0  0  0  0  0
    1.1299    4.3447   -0.2999 H   0  0  0  0  0  0  0  0  0  0  0  0
    2.4822    3.1401   -1.9517 H   0  0  0  0  0  0  0  0  0  0  0  0
    6.4634    3.4625    2.4343 H   0  0  0  0  0  0  0  0  0  0  0  0
    4.9735   -1.4992    3.4034 H   0  0  0  0  0  0  0  0  0  0  0  0
    5.6821   -3.7323    4.2842 H   0  0  0  0  0  0  0  0  0  0  0  0
    9.8322   -5.0058    3.2858 H   0  0  0  0  0  0  0  0  0  0  0  0
    9.6372   -4.9968    6.3630 H   0  0  0  0  0  0  0  0  0  0  0  0
   10.2311   -3.6352    5.3785 H   0  0  0  0  0  0  0  0  0  0  0  0
   11.1445   -5.1629    5.4199 H   0  0  0  0  0  0  0  0  0  0  0  0
    8.6100   -7.0703    5.2026 H   0  0  0  0  0  0  0  0  0  0  0  0
   10.1199   -7.2873    4.2724 H   0  0  0  0  0  0  0  0  0  0  0  0
    8.5577   -7.1273    3.4203 H   0  0  0  0  0  0  0  0  0  0  0  0
    9.7426   -2.9127    3.0627 H   0  0  0  0  0  0  0  0  0  0  0  0
    9.0354   -0.7243    2.1869 H   0  0  0  0  0  0  0  0  0  0  0  0
    6.3881   -1.0974   -1.4001 H   0  0  0  0  0  0  0  0  0  0  0  0
    5.0106   -1.2013   -2.5037 H   0  0  0  0  0  0  0  0  0  0  0  0
    5.5136   -2.6283   -1.5648 H   0  0  0  0  0  0  0  0  0  0  0  0
    1.7312   -2.9431   -0.8413 H   0  0  0  0  0  0  0  0  0  0  0  0
    3.2181   -3.0295   -1.7721 H   0  0  0  0  0  0  0  0  0  0  0  0
    0.7137   -3.1977   -3.2046 H   0  0  0  0  0  0  0  0  0  0  0  0
   -0.3102   -1.8602   -5.0684 H   0  0  0  0  0  0  0  0  0  0  0  0
    0.3043    0.5624   -5.2856 H   0  0  0  0  0  0  0  0  0  0  0  0
    2.7927    0.4045   -1.9862 H   0  0  0  0  0  0  0  0  0  0  0  0
  1  2  1  0
  1 37  1  0
  1 38  1  0
  1 39  1  0
  2  3  2  0
  2 29  1  0
  3  4  1  0
  3 40  1  0
  4  5  1  0
  4 27  2  0
  5  6  1  0
  5 16  1  0
  5 41  1  6
  6  7  1  0
  6 13  1  0
  6 42  1  6
  7  8  2  0
  7 12  1  0
  8  9  1  0
  8 43  1  0
  9 10  2  0
  9 44  1  0
 10 11  1  0
 10 45  1  0
 11 12  2  0
 11 46  1  0
 13 14  1  0
 13 47  1  0
 14 15  2  0
 14 16  1  0
 16 17  1  0
 17 18  2  0
 17 26  1  0
 18 19  1  0
 18 48  1  0
 19 20  2  0
 19 49  1  0
 20 21  1  0
 20 25  1  0
 21 22  1  0
 22 23  1  0
 22 24  1  0
 22 50  1  6
 23 51  1  0
 23 52  1  0
 23 53  1  0
 24 54  1  0
 24 55  1  0
 24 56  1  0
 25 26  2  0
 25 57  1  0
 26 58  1  0
 27 28  1  0
 27 29  1  0
 28 59  1  0
 28 60  1  0
 28 61  1  0
 29 30  1  0
 30 31  1  0
 30 62  1  0
 30 63  1  0
 31 32  2  0
 31 36  1  0
 32 33  1  0
 32 64  1  0
 33 34  2  0
 33 65  1  0
 34 35  1  0
 34 66  1  0
 35 36  2  0
 36 67  1  0
M  END

