
     RDKit          3D

 29 29  0  0  0  0  0  0  0  0999 V2000
    3.7211    2.7044    5.3532 N   0  0  0  0  0  0  0  0  0  0  0  0
    3.7557    2.2805    4.2755 C   0  0  0  0  0  0  0  0  0  0  0  0
    3.8486    1.8029    2.8930 C   0  0  0  0  0  0  0  0  0  0  0  0
    4.4196    2.8704    1.9383 C   0  0  0  0  0  0  0  0  0  0  0  0
    5.8204    3.3354    2.2955 C   0  0  0  0  0  0  0  0  0  0  0  0
    6.7079    2.2123    2.1661 O   0  0  0  0  0  0  0  0  0  0  0  0
    8.0064    2.2919    2.4375 C   0  0  0  0  0  0  0  0  0  0  0  0
    8.6581    3.4575    2.8995 C   0  0  0  0  0  0  0  0  0  0  0  0
   10.0195    3.3307    3.1211 C   0  0  0  0  0  0  0  0  0  0  0  0
   10.7112    2.1117    2.8949 C   0  0  0  0  0  0  0  0  0  0  0  0
   10.0859    0.9275    2.4297 C   0  0  0  0  0  0  0  0  0  0  0  0
   10.8654   -0.2842    2.2177 C   0  0  0  0  0  0  0  0  0  0  0  0
   10.4155   -1.5497    1.7631 C   0  0  0  0  0  0  0  0  0  0  0  0
    9.0754   -1.8674    1.4282 C   0  0  0  0  0  0  0  0  0  0  0  0
    7.9598   -2.0972    1.1592 N   0  0  0  0  0  0  0  0  0  0  0  0
   11.3566   -2.6085    1.6203 C   0  0  0  0  0  0  0  0  0  0  0  0
   12.1430   -3.4632    1.5091 N   0  0  0  0  0  0  0  0  0  0  0  0
    8.7041    1.0551    2.2090 C   0  0  0  0  0  0  0  0  0  0  0  0
    2.8451    1.4986    2.5554 H   0  0  0  0  0  0  0  0  0  0  0  0
    4.4759    0.8965    2.8747 H   0  0  0  0  0  0  0  0  0  0  0  0
    3.7662    3.7574    1.9331 H   0  0  0  0  0  0  0  0  0  0  0  0
    4.4223    2.4638    0.9149 H   0  0  0  0  0  0  0  0  0  0  0  0
    5.8732    3.7120    3.3310 H   0  0  0  0  0  0  0  0  0  0  0  0
    6.1629    4.1312    1.6139 H   0  0  0  0  0  0  0  0  0  0  0  0
    8.1333    4.3938    3.0787 H   0  0  0  0  0  0  0  0  0  0  0  0
   10.5893    4.1897    3.4835 H   0  0  0  0  0  0  0  0  0  0  0  0
   11.7860    2.0903    3.0929 H   0  0  0  0  0  0  0  0  0  0  0  0
   11.9300   -0.2101    2.4354 H   0  0  0  0  0  0  0  0  0  0  0  0
    8.0975    0.2240    1.8510 H   0  0  0  0  0  0  0  0  0  0  0  0
  1  2  3  0
  2  3  1  0
  3  4  1  0
  3 19  1  0
  3 20  1  0
  4  5  1  0
  4 21  1  0
  4 22  1  0
  5  6  1  0
  5 23  1  0
  5 24  1  0
  6  7  1  0
  7  8  2  0
  7 18  1  0
  8  9  1  0
  8 25  1  0
  9 10  2  0
  9 26  1  0
 10 11  1  0
 10 27  1  0
 11 12  1  0
 11 18  2  0
 12 13  2  0
 12 28  1  0
 13 14  1  0
 13 16  1  0
 14 15  3  0
 16 17  3  0
 18 29  1  0
M  END

