
     RDKit          3D

 66 69  0  0  0  0  0  0  0  0999 V2000
    3.1414    2.7811   -2.8205 C   0  0  0  0  0  0  0  0  0  0  0  0
    4.0489    1.6208   -2.4590 C   0  0  0  0  0  0  0  0  0  0  0  0
    5.2102    2.1471   -1.8376 O   0  0  0  0  0  0  0  0  0  0  0  0
    6.1915    1.3057   -1.4219 C   0  0  0  0  0  0  0  0  0  0  0  0
    6.1599   -0.0902   -1.5489 C   0  0  0  0  0  0  0  0  0  0  0  0
    7.2229   -0.8762   -1.0892 C   0  0  0  0  0  0  0  0  0  0  0  0
    8.3392   -0.2758   -0.4918 C   0  0  0  0  0  0  0  0  0  0  0  0
    9.4493   -1.0045   -0.0039 N   0  0  0  0  0  0  0  0  0  0  0  0
    9.6599   -2.3553   -0.0098 C   0  0  0  0  0  0  0  0  0  0  0  0
    8.9009   -3.1878   -0.4642 O   0  0  0  0  0  0  0  0  0  0  0  0
   10.9952   -2.7578    0.6548 C   0  0  0  0  0  0  0  0  0  0  0  0
   11.2392   -4.1711    0.5074 N   0  0  0  0  0  0  0  0  0  0  0  0
   11.7800   -4.6685   -0.6719 C   0  0  0  0  0  0  0  0  0  0  0  0
   12.1802   -4.0044   -1.5895 O   0  0  0  0  0  0  0  0  0  0  0  0
   11.8235   -6.4677   -0.5999 S   0  0  0  0  0  0  0  0  0  0  0  0
   11.0618   -6.4813    1.0068 C   0  0  0  0  0  0  0  0  0  0  0  0
   10.8455   -7.6154    1.7064 C   0  0  0  0  0  0  0  0  0  0  0  0
   10.2062   -7.7850    3.0285 C   0  0  0  0  0  0  0  0  0  0  0  0
   10.9728   -8.4246    4.0334 C   0  0  0  0  0  0  0  0  0  0  0  0
   10.4796   -8.6665    5.3117 C   0  0  0  0  0  0  0  0  0  0  0  0
   11.1651   -9.2291    6.3349 O   0  0  0  0  0  0  0  0  0  0  0  0
   12.4971   -9.6954    6.1537 C   0  0  0  0  0  0  0  0  0  0  0  0
   12.5608  -11.0740    5.5090 C   0  0  0  0  0  0  0  0  0  0  0  0
    9.1404   -8.2867    5.6073 C   0  0  0  0  0  0  0  0  0  0  0  0
    8.7213   -8.5518    6.8646 O   0  0  0  0  0  0  0  0  0  0  0  0
    7.4122   -8.2136    7.2617 C   0  0  0  0  0  0  0  0  0  0  0  0
    7.2112   -8.6137    8.7067 C   0  0  0  0  0  0  0  0  0  0  0  0
    8.2221   -9.2400    9.4450 C   0  0  0  0  0  0  0  0  0  0  0  0
    8.0000   -9.5984   10.7754 C   0  0  0  0  0  0  0  0  0  0  0  0
    6.7711   -9.3397   11.3890 C   0  0  0  0  0  0  0  0  0  0  0  0
    6.5283   -9.8018   13.0495 Cl  0  0  0  0  0  0  0  0  0  0  0  0
    5.7530   -8.7100   10.6517 C   0  0  0  0  0  0  0  0  0  0  0  0
    4.2047   -8.3637   11.3691 Cl  0  0  0  0  0  0  0  0  0  0  0  0
    5.9801   -8.3527    9.3204 C   0  0  0  0  0  0  0  0  0  0  0  0
    8.3587   -7.6947    4.6173 C   0  0  0  0  0  0  0  0  0  0  0  0
    8.8832   -7.4478    3.3397 C   0  0  0  0  0  0  0  0  0  0  0  0
    7.6878   -6.7233    2.0450 Br  0  0  0  0  0  0  0  0  0  0  0  0
   10.7958   -5.0840    1.4707 C   0  0  0  0  0  0  0  0  0  0  0  0
   10.3231   -4.7459    2.5309 O   0  0  0  0  0  0  0  0  0  0  0  0
    8.3672    1.1259   -0.3659 C   0  0  0  0  0  0  0  0  0  0  0  0
    7.3125    1.9056   -0.8223 C   0  0  0  0  0  0  0  0  0  0  0  0
    2.2256    2.4115   -3.3073 H   0  0  0  0  0  0  0  0  0  0  0  0
    3.6497    3.4712   -3.5112 H   0  0  0  0  0  0  0  0  0  0  0  0
    2.8545    3.3455   -1.9200 H   0  0  0  0  0  0  0  0  0  0  0  0
    4.3295    1.0472   -3.3631 H   0  0  0  0  0  0  0  0  0  0  0  0
    3.5352    0.9211   -1.7722 H   0  0  0  0  0  0  0  0  0  0  0  0
    5.3079   -0.5917   -2.0080 H   0  0  0  0  0  0  0  0  0  0  0  0
    7.1910   -1.9584   -1.1931 H   0  0  0  0  0  0  0  0  0  0  0  0
   10.1838   -0.4359    0.4027 H   0  0  0  0  0  0  0  0  0  0  0  0
   10.9466   -2.5403    1.7328 H   0  0  0  0  0  0  0  0  0  0  0  0
   11.8299   -2.2017    0.2021 H   0  0  0  0  0  0  0  0  0  0  0  0
   11.2275   -8.5427    1.2600 H   0  0  0  0  0  0  0  0  0  0  0  0
   11.9948   -8.7114    3.7853 H   0  0  0  0  0  0  0  0  0  0  0  0
   12.9177   -9.7337    7.1698 H   0  0  0  0  0  0  0  0  0  0  0  0
   13.0896   -8.9549    5.5870 H   0  0  0  0  0  0  0  0  0  0  0  0
   11.9831  -11.8005    6.1008 H   0  0  0  0  0  0  0  0  0  0  0  0
   13.6060  -11.4196    5.4623 H   0  0  0  0  0  0  0  0  0  0  0  0
   12.1571  -11.0711    4.4852 H   0  0  0  0  0  0  0  0  0  0  0  0
    6.6699   -8.7291    6.6213 H   0  0  0  0  0  0  0  0  0  0  0  0
    7.2420   -7.1258    7.1430 H   0  0  0  0  0  0  0  0  0  0  0  0
    9.1822   -9.4431    8.9702 H   0  0  0  0  0  0  0  0  0  0  0  0
    8.7838  -10.0866   11.3571 H   0  0  0  0  0  0  0  0  0  0  0  0
    5.1727   -7.8640    8.7698 H   0  0  0  0  0  0  0  0  0  0  0  0
    7.3254   -7.4194    4.8193 H   0  0  0  0  0  0  0  0  0  0  0  0
    9.2308    1.6135    0.0974 H   0  0  0  0  0  0  0  0  0  0  0  0
    7.3334    2.9928   -0.7258 H   0  0  0  0  0  0  0  0  0  0  0  0
  1  2  1  0
  1 42  1  0
  1 43  1  0
  1 44  1  0
  2  3  1  0
  2 45  1  0
  2 46  1  0
  3  4  1  0
  4  5  2  0
  4 41  1  0
  5  6  1  0
  5 47  1  0
  6  7  2  0
  6 48  1  0
  7  8  1  0
  7 40  1  0
  8  9  1  0
  8 49  1  0
  9 10  2  0
  9 11  1  0
 11 12  1  0
 11 50  1  0
 11 51  1  0
 12 13  1  0
 12 38  1  0
 13 14  2  0
 13 15  1  0
 15 16  1  0
 16 17  2  0
 16 38  1  0
 17 18  1  0
 17 52  1  0
 18 19  2  0
 18 36  1  0
 19 20  1  0
 19 53  1  0
 20 21  1  0
 20 24  2  0
 21 22  1  0
 22 23  1  0
 22 54  1  0
 22 55  1  0
 23 56  1  0
 23 57  1  0
 23 58  1  0
 24 25  1  0
 24 35  1  0
 25 26  1  0
 26 27  1  0
 26 59  1  0
 26 60  1  0
 27 28  2  0
 27 34  1  0
 28 29  1  0
 28 61  1  0
 29 30  2  0
 29 62  1  0
 30 31  1  0
 30 32  1  0
 32 33  1  0
 32 34  2  0
 34 63  1  0
 35 36  2  0
 35 64  1  0
 36 37  1  0
 38 39  2  0
 40 41  2  0
 40 65  1  0
 41 66  1  0
M  END

