
     RDKit          3D

 36 36  0  0  0  0  0  0  0  0999 V2000
    2.8871   -0.7332    1.7631 C   0  0  0  0  0  0  0  0  0  0  0  0
    3.7847   -1.9746    1.8518 C   0  0  1  0  0  0  0  0  0  0  0  0
    2.9460   -3.2303    2.1188 C   0  0  0  0  0  0  0  0  0  0  0  0
    4.6808   -2.1586    0.6115 C   0  0  0  0  0  0  0  0  0  0  0  0
    5.7067   -1.0414    0.3555 C   0  0  0  0  0  0  0  0  0  0  0  0
    6.6533   -0.8070    1.4511 N   0  0  0  0  0  0  0  0  0  0  0  0
    7.6185   -1.7711    1.7513 C   0  0  0  0  0  0  0  0  0  0  0  0
    8.4315   -2.1154    0.7530 O   0  0  0  0  0  0  0  0  0  0  0  0
    8.3487   -1.5785    3.0799 C   0  0  0  0  0  0  0  0  0  0  0  0
    7.4075   -1.4962    4.1768 N   0  0  0  0  0  0  0  0  0  0  0  0
    7.0154   -0.3592    4.8446 C   0  0  0  0  0  0  0  0  0  0  0  0
    6.0413   -0.5976    5.6885 N   0  0  0  0  0  0  0  0  0  0  0  0
    5.7602   -1.9427    5.5705 C   0  0  0  0  0  0  0  0  0  0  0  0
    4.6240   -2.5552    6.3304 C   0  0  0  0  0  0  0  0  0  0  0  0
    3.3491   -2.0068    5.8540 N   0  0  0  0  0  0  0  0  0  0  0  0
    6.5989   -2.5148    4.6379 C   0  0  0  0  0  0  0  0  0  0  0  0
    2.2858   -0.6261    2.6797 H   0  0  0  0  0  0  0  0  0  0  0  0
    2.1906   -0.8063    0.9093 H   0  0  0  0  0  0  0  0  0  0  0  0
    3.4623    0.1993    1.6410 H   0  0  0  0  0  0  0  0  0  0  0  0
    4.4405   -1.8514    2.7323 H   0  0  0  0  0  0  0  0  0  0  0  0
    2.2002   -3.3935    1.3210 H   0  0  0  0  0  0  0  0  0  0  0  0
    2.4175   -3.1388    3.0804 H   0  0  0  0  0  0  0  0  0  0  0  0
    3.5799   -4.1308    2.1713 H   0  0  0  0  0  0  0  0  0  0  0  0
    4.0473   -2.2540   -0.2900 H   0  0  0  0  0  0  0  0  0  0  0  0
    5.2306   -3.1110    0.7071 H   0  0  0  0  0  0  0  0  0  0  0  0
    5.2004   -0.0822    0.1627 H   0  0  0  0  0  0  0  0  0  0  0  0
    6.2887   -1.2723   -0.5492 H   0  0  0  0  0  0  0  0  0  0  0  0
    6.1963   -0.4853    2.3020 H   0  0  0  0  0  0  0  0  0  0  0  0
    8.9514   -0.6454    3.0731 H   0  0  0  0  0  0  0  0  0  0  0  0
    9.0432   -2.4178    3.2294 H   0  0  0  0  0  0  0  0  0  0  0  0
    7.5082    0.5996    4.6766 H   0  0  0  0  0  0  0  0  0  0  0  0
    4.8013   -2.3874    7.4141 H   0  0  0  0  0  0  0  0  0  0  0  0
    4.6287   -3.6461    6.1720 H   0  0  0  0  0  0  0  0  0  0  0  0
    3.3891   -0.9887    5.9303 H   0  0  0  0  0  0  0  0  0  0  0  0
    2.5886   -2.3087    6.4642 H   0  0  0  0  0  0  0  0  0  0  0  0
    6.6716   -3.5252    4.2445 H   0  0  0  0  0  0  0  0  0  0  0  0
  1  2  1  0
  1 17  1  0
  1 18  1  0
  1 19  1  0
  2  3  1  0
  2  4  1  0
  2 20  1  1
  3 21  1  0
  3 22  1  0
  3 23  1  0
  4  5  1  0
  4 24  1  0
  4 25  1  0
  5  6  1  0
  5 26  1  0
  5 27  1  0
  6  7  1  0
  6 28  1  0
  7  8  2  0
  7  9  1  0
  9 10  1  0
  9 29  1  0
  9 30  1  0
 10 11  1  0
 10 16  1  0
 11 12  2  0
 11 31  1  0
 12 13  1  0
 13 14  1  0
 13 16  2  0
 14 15  1  0
 14 32  1  0
 14 33  1  0
 15 34  1  0
 15 35  1  0
 16 36  1  0
M  END

