
     RDKit          3D

 62 64  0  0  0  0  0  0  0  0999 V2000
    1.6901    0.9922   -0.5079 C   0  0  0  0  0  0  0  0  0  0  0  0
    3.1457    1.4439   -0.2513 C   0  0  1  0  0  0  0  0  0  0  0  0
    3.4553    2.7631   -0.9708 C   0  0  0  0  0  0  0  0  0  0  0  0
    3.4032    1.5622    1.2240 C   0  0  0  0  0  0  0  0  0  0  0  0
    3.2767    2.6561    1.9258 N   0  0  0  0  0  0  0  0  0  0  0  0
    3.5501    2.3260    3.2303 C   0  0  0  0  0  0  0  0  0  0  0  0
    3.4650    3.2995    4.2797 C   0  0  0  0  0  0  0  0  0  0  0  0
    3.6925    2.9780    5.6499 C   0  0  0  0  0  0  0  0  0  0  0  0
    3.5813    3.9532    6.6259 C   0  0  0  0  0  0  0  0  0  0  0  0
    3.2455    5.2605    6.2493 C   0  0  0  0  0  0  0  0  0  0  0  0
    3.1435    6.1943    7.1874 F   0  0  0  0  0  0  0  0  0  0  0  0
    3.0131    5.6164    4.9129 C   0  0  0  0  0  0  0  0  0  0  0  0
    3.1213    4.6412    3.9385 C   0  0  0  0  0  0  0  0  0  0  0  0
    3.8868    0.9215    3.3098 C   0  0  0  0  0  0  0  0  0  0  0  0
    4.3103    0.0410    4.4210 C   0  0  0  0  0  0  0  0  0  0  0  0
    3.3508   -0.8509    4.9967 C   0  0  0  0  0  0  0  0  0  0  0  0
    3.8151   -1.7167    6.0544 C   0  0  0  0  0  0  0  0  0  0  0  0
    5.1450   -1.7237    6.3891 C   0  0  0  0  0  0  0  0  0  0  0  0
    5.5644   -2.5431    7.3802 F   0  0  0  0  0  0  0  0  0  0  0  0
    6.1413   -0.9288    5.7443 C   0  0  0  0  0  0  0  0  0  0  0  0
    5.6447    0.0323    4.7910 C   0  0  0  0  0  0  0  0  0  0  0  0
    3.7669    0.4736    2.0436 N   0  0  0  0  0  0  0  0  0  0  0  0
    3.9992   -0.9297    1.6206 C   0  0  0  0  0  0  0  0  0  0  0  0
    5.4585   -1.2856    1.5341 C   0  0  0  0  0  0  0  0  0  0  0  0
    6.0185   -2.1926    2.3412 C   0  0  0  0  0  0  0  0  0  0  0  0
    7.4828   -2.5359    2.3908 C   0  0  1  0  0  0  0  0  0  0  0  0
    8.0645   -2.0839    3.5989 O   0  0  0  0  0  0  0  0  0  0  0  0
    7.7221   -4.0492    2.2270 C   0  0  0  0  0  0  0  0  0  0  0  0
    7.4929   -4.5781    0.8105 C   0  0  1  0  0  0  0  0  0  0  0  0
    8.3561   -3.9527   -0.1310 O   0  0  0  0  0  0  0  0  0  0  0  0
    7.6264   -6.1055    0.7205 C   0  0  0  0  0  0  0  0  0  0  0  0
    6.4469   -6.8672    1.3109 C   0  0  0  0  0  0  0  0  0  0  0  0
    5.3977   -6.3682    1.6136 O   0  0  0  0  0  0  0  0  0  0  0  0
    6.6315   -8.2013    1.4502 O   0  0  0  0  0  0  0  0  0  0  0  0
    1.5201    0.8644   -1.5880 H   0  0  0  0  0  0  0  0  0  0  0  0
    0.9839    1.7497   -0.1339 H   0  0  0  0  0  0  0  0  0  0  0  0
    1.4549    0.0372   -0.0132 H   0  0  0  0  0  0  0  0  0  0  0  0
    3.8185    0.6651   -0.6481 H   0  0  0  0  0  0  0  0  0  0  0  0
    2.8158    3.5731   -0.5912 H   0  0  0  0  0  0  0  0  0  0  0  0
    3.2757    2.6528   -2.0510 H   0  0  0  0  0  0  0  0  0  0  0  0
    4.5026    3.0661   -0.8235 H   0  0  0  0  0  0  0  0  0  0  0  0
    3.9589    1.9592    5.9250 H   0  0  0  0  0  0  0  0  0  0  0  0
    3.7507    3.7278    7.6798 H   0  0  0  0  0  0  0  0  0  0  0  0
    2.7532    6.6486    4.6723 H   0  0  0  0  0  0  0  0  0  0  0  0
    2.9456    4.8759    2.8887 H   0  0  0  0  0  0  0  0  0  0  0  0
    2.2906   -0.7857    4.7548 H   0  0  0  0  0  0  0  0  0  0  0  0
    3.1305   -2.3823    6.5829 H   0  0  0  0  0  0  0  0  0  0  0  0
    7.1083   -0.7932    6.2329 H   0  0  0  0  0  0  0  0  0  0  0  0
    6.3546    0.7017    4.2993 H   0  0  0  0  0  0  0  0  0  0  0  0
    3.4871   -1.0561    0.6570 H   0  0  0  0  0  0  0  0  0  0  0  0
    3.4977   -1.5641    2.3624 H   0  0  0  0  0  0  0  0  0  0  0  0
    6.0668   -0.7493    0.7952 H   0  0  0  0  0  0  0  0  0  0  0  0
    5.3927   -2.6929    3.0916 H   0  0  0  0  0  0  0  0  0  0  0  0
    7.9966   -2.0250    1.5566 H   0  0  0  0  0  0  0  0  0  0  0  0
    7.3761   -1.9254    4.2839 H   0  0  0  0  0  0  0  0  0  0  0  0
    7.0862   -4.5983    2.9408 H   0  0  0  0  0  0  0  0  0  0  0  0
    8.7700   -4.2423    2.5244 H   0  0  0  0  0  0  0  0  0  0  0  0
    6.4718   -4.3214    0.4877 H   0  0  0  0  0  0  0  0  0  0  0  0
    9.2598   -4.0092    0.2103 H   0  0  0  0  0  0  0  0  0  0  0  0
    8.5652   -6.4433    1.1982 H   0  0  0  0  0  0  0  0  0  0  0  0
    7.7011   -6.3786   -0.3473 H   0  0  0  0  0  0  0  0  0  0  0  0
    7.5249   -8.4501    1.1737 H   0  0  0  0  0  0  0  0  0  0  0  0
  1  2  1  0
  1 35  1  0
  1 36  1  0
  1 37  1  0
  2  3  1  0
  2  4  1  0
  2 38  1  6
  3 39  1  0
  3 40  1  0
  3 41  1  0
  4  5  2  0
  4 22  1  0
  5  6  1  0
  6  7  1  0
  6 14  2  0
  7  8  2  0
  7 13  1  0
  8  9  1  0
  8 42  1  0
  9 10  2  0
  9 43  1  0
 10 11  1  0
 10 12  1  0
 12 13  2  0
 12 44  1  0
 13 45  1  0
 14 15  1  0
 14 22  1  0
 15 16  2  0
 15 21  1  0
 16 17  1  0
 16 46  1  0
 17 18  2  0
 17 47  1  0
 18 19  1  0
 18 20  1  0
 20 21  2  0
 20 48  1  0
 21 49  1  0
 22 23  1  0
 23 24  1  0
 23 50  1  0
 23 51  1  0
 24 25  2  0
 24 52  1  0
 25 26  1  0
 25 53  1  0
 26 27  1  0
 26 28  1  0
 26 54  1  6
 27 55  1  0
 28 29  1  0
 28 56  1  0
 28 57  1  0
 29 30  1  0
 29 31  1  0
 29 58  1  6
 30 59  1  0
 31 32  1  0
 31 60  1  0
 31 61  1  0
 32 33  2  0
 32 34  1  0
 34 62  1  0
M  END

