
     RDKit          3D

 24 25  0  0  0  0  0  0  0  0999 V2000
    1.2335    0.4606   -0.0503 C   0  0  0  0  0  0  0  0  0  0  0  0
    2.6119   -0.0054    0.2863 C   0  0  0  0  0  0  0  0  0  0  0  0
    3.3864    0.7080    1.0660 N   0  0  0  0  0  0  0  0  0  0  0  0
    4.5811    0.0091    1.1798 O   0  0  0  0  0  0  0  0  0  0  0  0
    4.5206   -1.1168    0.4611 C   0  0  0  0  0  0  0  0  0  0  0  0
    5.6903   -2.0190    0.4914 C   0  0  0  0  0  0  0  0  0  0  0  0
    5.5333   -3.3174    1.0179 C   0  0  0  0  0  0  0  0  0  0  0  0
    6.6055   -4.2076    1.0776 C   0  0  0  0  0  0  0  0  0  0  0  0
    7.8619   -3.8081    0.6156 C   0  0  0  0  0  0  0  0  0  0  0  0
    8.0432   -2.5276    0.0876 C   0  0  0  0  0  0  0  0  0  0  0  0
    6.9665   -1.6387    0.0222 C   0  0  0  0  0  0  0  0  0  0  0  0
    7.2591    0.0735   -0.7518 Br  0  0  0  0  0  0  0  0  0  0  0  0
    3.2864   -1.2047   -0.1471 C   0  0  0  0  0  0  0  0  0  0  0  0
    2.7118   -2.2228   -1.0615 C   0  0  0  0  0  0  0  0  0  0  0  0
    1.5571   -2.2044   -1.4052 O   0  0  0  0  0  0  0  0  0  0  0  0
    3.5385   -3.1934   -1.5067 O   0  0  0  0  0  0  0  0  0  0  0  0
    1.0429    1.4294    0.4307 H   0  0  0  0  0  0  0  0  0  0  0  0
    0.4862   -0.2747    0.2817 H   0  0  0  0  0  0  0  0  0  0  0  0
    1.1117    0.5562   -1.1393 H   0  0  0  0  0  0  0  0  0  0  0  0
    4.5523   -3.6168    1.3934 H   0  0  0  0  0  0  0  0  0  0  0  0
    6.4598   -5.2074    1.4920 H   0  0  0  0  0  0  0  0  0  0  0  0
    8.7102   -4.4953    0.6604 H   0  0  0  0  0  0  0  0  0  0  0  0
    9.0201   -2.2143   -0.2833 H   0  0  0  0  0  0  0  0  0  0  0  0
    4.4465   -3.0632   -1.1924 H   0  0  0  0  0  0  0  0  0  0  0  0
  1  2  1  0
  1 17  1  0
  1 18  1  0
  1 19  1  0
  2  3  2  0
  2 13  1  0
  3  4  1  0
  4  5  1  0
  5  6  1  0
  5 13  2  0
  6  7  2  0
  6 11  1  0
  7  8  1  0
  7 20  1  0
  8  9  2  0
  8 21  1  0
  9 10  1  0
  9 22  1  0
 10 11  2  0
 10 23  1  0
 11 12  1  0
 13 14  1  0
 14 15  2  0
 14 16  1  0
 16 24  1  0
M  END

