
     RDKit          3D

 68 71  0  0  0  0  0  0  0  0999 V2000
   26.0728   -1.7175   -1.9396 C   0  0  0  0  0  0  0  0  0  0  0  0
   26.4042   -0.9389   -0.8119 O   0  0  0  0  0  0  0  0  0  0  0  0
   25.8458    0.2878   -0.6632 C   0  0  0  0  0  0  0  0  0  0  0  0
   24.9314    0.8623   -1.5587 C   0  0  0  0  0  0  0  0  0  0  0  0
   24.4209    2.1413   -1.3040 C   0  0  0  0  0  0  0  0  0  0  0  0
   24.7955    2.8766   -0.1713 C   0  0  0  0  0  0  0  0  0  0  0  0
   24.2174    4.2428    0.1084 C   0  0  0  0  0  0  0  0  0  0  0  0
   22.9725    4.3378    1.0157 C   0  0  0  0  0  0  0  0  0  0  0  0
   22.5574    5.4288    1.3654 O   0  0  0  0  0  0  0  0  0  0  0  0
   22.4010    3.1399    1.3514 N   0  0  0  0  0  0  0  0  0  0  0  0
   21.2597    2.8906    2.1415 C   0  0  0  0  0  0  0  0  0  0  0  0
   20.8802    1.5578    2.3535 C   0  0  0  0  0  0  0  0  0  0  0  0
   19.7651    1.2339    3.1272 C   0  0  0  0  0  0  0  0  0  0  0  0
   18.9670    2.2380    3.7113 C   0  0  0  0  0  0  0  0  0  0  0  0
   17.8094    1.9475    4.4621 N   0  0  0  0  0  0  0  0  0  0  0  0
   17.6606    2.5965    5.7654 C   0  0  0  0  0  0  0  0  0  0  0  0
   16.2052    2.6032    6.2366 C   0  0  0  0  0  0  0  0  0  0  0  0
   15.6031    1.1801    6.2613 C   0  0  2  0  0  0  0  0  0  0  0  0
   16.1200    0.3135    7.3224 N   0  0  0  0  0  0  0  0  0  0  0  0
   15.6354    0.5461    8.6826 C   0  0  2  0  0  0  0  0  0  0  0  0
   15.4821    1.6294    8.8823 H   0  0  0  0  0  0  0  0  0  0  0  0
   16.6730    0.0361    9.6825 C   0  0  0  0  0  0  0  0  0  0  0  0
   14.2620   -0.1510    8.8732 C   0  0  0  0  0  0  0  0  0  0  0  0
   13.5656    0.1717   10.1732 C   0  0  0  0  0  0  0  0  0  0  0  0
   13.5609   -0.7083   11.2642 C   0  0  0  0  0  0  0  0  0  0  0  0
   12.9144   -0.3404   12.4458 C   0  0  0  0  0  0  0  0  0  0  0  0
   12.2894    0.9084   12.5025 C   0  0  0  0  0  0  0  0  0  0  0  0
   12.2760    1.7615   11.4750 N   0  0  0  0  0  0  0  0  0  0  0  0
   12.8941    1.3953   10.3520 C   0  0  0  0  0  0  0  0  0  0  0  0
   15.8254    0.5406    4.8823 C   0  0  0  0  0  0  0  0  0  0  0  0
   17.2907    0.5865    4.4367 C   0  0  0  0  0  0  0  0  0  0  0  0
   19.3585    3.5754    3.4841 C   0  0  0  0  0  0  0  0  0  0  0  0
   20.4780    3.9049    2.7258 C   0  0  0  0  0  0  0  0  0  0  0  0
   25.7145    2.2802    0.7154 C   0  0  0  0  0  0  0  0  0  0  0  0
   26.2326    1.0119    0.4794 C   0  0  0  0  0  0  0  0  0  0  0  0
   26.6386   -2.6545   -1.8505 H   0  0  0  0  0  0  0  0  0  0  0  0
   26.3567   -1.2171   -2.8831 H   0  0  0  0  0  0  0  0  0  0  0  0
   24.9938   -1.9539   -1.9745 H   0  0  0  0  0  0  0  0  0  0  0  0
   24.6143    0.3320   -2.4569 H   0  0  0  0  0  0  0  0  0  0  0  0
   23.7140    2.5761   -2.0170 H   0  0  0  0  0  0  0  0  0  0  0  0
   23.9315    4.7446   -0.8308 H   0  0  0  0  0  0  0  0  0  0  0  0
   24.9646    4.9002    0.5801 H   0  0  0  0  0  0  0  0  0  0  0  0
   22.8678    2.3152    0.9887 H   0  0  0  0  0  0  0  0  0  0  0  0
   21.4752    0.7497    1.9161 H   0  0  0  0  0  0  0  0  0  0  0  0
   19.5317    0.1803    3.2791 H   0  0  0  0  0  0  0  0  0  0  0  0
   18.0350    3.6260    5.7077 H   0  0  0  0  0  0  0  0  0  0  0  0
   18.2971    2.0835    6.5243 H   0  0  0  0  0  0  0  0  0  0  0  0
   15.6134    3.2334    5.5513 H   0  0  0  0  0  0  0  0  0  0  0  0
   16.1464    3.0681    7.2349 H   0  0  0  0  0  0  0  0  0  0  0  0
   14.5160    1.2669    6.4223 H   0  0  0  0  0  0  0  0  0  0  0  0
   17.1369    0.2969    7.3113 H   0  0  0  0  0  0  0  0  0  0  0  0
   16.3273    0.1590   10.7191 H   0  0  0  0  0  0  0  0  0  0  0  0
   17.6223    0.5871    9.5789 H   0  0  0  0  0  0  0  0  0  0  0  0
   16.8784   -1.0338    9.5098 H   0  0  0  0  0  0  0  0  0  0  0  0
   14.4172   -1.2378    8.7776 H   0  0  0  0  0  0  0  0  0  0  0  0
   13.6091    0.1444    8.0358 H   0  0  0  0  0  0  0  0  0  0  0  0
   14.0569   -1.6803   11.1846 H   0  0  0  0  0  0  0  0  0  0  0  0
   12.8925   -1.0101   13.3089 H   0  0  0  0  0  0  0  0  0  0  0  0
   11.7743    1.2300   13.4157 H   0  0  0  0  0  0  0  0  0  0  0  0
   12.8542    2.1135    9.5219 H   0  0  0  0  0  0  0  0  0  0  0  0
   15.2204    1.0817    4.1357 H   0  0  0  0  0  0  0  0  0  0  0  0
   15.4825   -0.5053    4.9058 H   0  0  0  0  0  0  0  0  0  0  0  0
   17.3608    0.2016    3.4089 H   0  0  0  0  0  0  0  0  0  0  0  0
   17.8999   -0.0989    5.0706 H   0  0  0  0  0  0  0  0  0  0  0  0
   18.7548    4.3889    3.8913 H   0  0  0  0  0  0  0  0  0  0  0  0
   20.7522    4.9448    2.5634 H   0  0  0  0  0  0  0  0  0  0  0  0
   26.0322    2.8271    1.6079 H   0  0  0  0  0  0  0  0  0  0  0  0
   26.9489    0.5539    1.1646 H   0  0  0  0  0  0  0  0  0  0  0  0
  1  2  1  0
  1 36  1  0
  1 37  1  0
  1 38  1  0
  2  3  1  0
  3  4  2  0
  3 35  1  0
  4  5  1  0
  4 39  1  0
  5  6  2  0
  5 40  1  0
  6  7  1  0
  6 34  1  0
  7  8  1  0
  7 41  1  0
  7 42  1  0
  8  9  2  0
  8 10  1  0
 10 11  1  0
 10 43  1  0
 11 12  2  0
 11 33  1  0
 12 13  1  0
 12 44  1  0
 13 14  2  0
 13 45  1  0
 14 15  1  0
 14 32  1  0
 15 16  1  0
 15 31  1  0
 16 17  1  0
 16 46  1  0
 16 47  1  0
 17 18  1  0
 17 48  1  0
 17 49  1  0
 18 19  1  0
 18 30  1  0
 18 50  1  1
 19 20  1  0
 19 51  1  0
 20 21  1  6
 20 22  1  0
 20 23  1  0
 22 52  1  0
 22 53  1  0
 22 54  1  0
 23 24  1  0
 23 55  1  0
 23 56  1  0
 24 25  2  0
 24 29  1  0
 25 26  1  0
 25 57  1  0
 26 27  2  0
 26 58  1  0
 27 28  1  0
 27 59  1  0
 28 29  2  0
 29 60  1  0
 30 31  1  0
 30 61  1  0
 30 62  1  0
 31 63  1  0
 31 64  1  0
 32 33  2  0
 32 65  1  0
 33 66  1  0
 34 35  2  0
 34 67  1  0
 35 68  1  0
M  END

