
     RDKit          3D

 48 52  0  0  0  0  0  0  0  0999 V2000
    2.0112   -0.5631   -0.7664 C   0  0  0  0  0  0  0  0  0  0  0  0
    3.0779    0.4374   -1.0979 C   0  0  0  0  0  0  0  0  0  0  0  0
    3.6769    0.5242   -2.7480 S   0  0  0  0  0  0  0  0  0  0  0  0
    4.7287    1.8750   -2.3582 C   0  0  0  0  0  0  0  0  0  0  0  0
    5.5011    2.4721   -3.2793 N   0  0  0  0  0  0  0  0  0  0  0  0
    6.2000    3.5283   -2.7798 C   0  0  0  0  0  0  0  0  0  0  0  0
    6.2390    3.9532   -1.5339 N   0  0  0  0  0  0  0  0  0  0  0  0
    5.4866    3.3091   -0.5970 C   0  0  0  0  0  0  0  0  0  0  0  0
    5.8472    3.7208    1.1039 S   0  0  0  0  0  0  0  0  0  0  0  0
    7.6157    3.6034    1.1458 C   0  0  0  0  0  0  0  0  0  0  0  0
    8.3874    4.5026    1.7182 N   0  0  0  0  0  0  0  0  0  0  0  0
    9.6769    4.1387    1.4779 N   0  0  0  0  0  0  0  0  0  0  0  0
    9.6856    3.0382    0.7588 C   0  0  0  0  0  0  0  0  0  0  0  0
   10.9455    2.4815    0.1454 C   0  0  1  0  0  0  0  0  0  0  0  0
   11.1886    3.0027   -1.2928 C   0  0  0  0  0  0  0  0  0  0  0  0
   11.4502    4.5127   -1.3251 C   0  0  0  0  0  0  0  0  0  0  0  0
   12.5631    4.9291   -0.3121 C   0  0  0  0  0  0  0  0  0  0  0  0
   12.2351    4.3484    0.9630 N   0  0  0  0  0  0  0  0  0  0  0  0
   12.1645    2.9060    1.0247 C   0  0  0  0  0  0  0  0  0  0  0  0
    8.3993    2.6252    0.5440 N   0  0  0  0  0  0  0  0  0  0  0  0
    7.9556    1.4357   -0.1439 C   0  0  1  0  0  0  0  0  0  0  0  0
    8.5310    0.0910    0.2469 C   0  0  0  0  0  0  0  0  0  0  0  0
    7.1113    0.4402    0.5955 C   0  0  0  0  0  0  0  0  0  0  0  0
    4.6225    2.2130   -0.9899 C   0  0  0  0  0  0  0  0  0  0  0  0
    3.6535    1.4094   -0.2918 C   0  0  0  0  0  0  0  0  0  0  0  0
    3.2662    1.6291    1.1480 C   0  0  0  0  0  0  0  0  0  0  0  0
    2.1795   -1.5208   -1.2868 H   0  0  0  0  0  0  0  0  0  0  0  0
    0.9991   -0.2192   -1.0531 H   0  0  0  0  0  0  0  0  0  0  0  0
    1.9878   -0.7793    0.3125 H   0  0  0  0  0  0  0  0  0  0  0  0
    6.8090    4.0801   -3.5084 H   0  0  0  0  0  0  0  0  0  0  0  0
   10.9222    1.3851    0.1394 H   0  0  0  0  0  0  0  0  0  0  0  0
   10.3148    2.7766   -1.9204 H   0  0  0  0  0  0  0  0  0  0  0  0
   12.0425    2.4554   -1.7274 H   0  0  0  0  0  0  0  0  0  0  0  0
   10.5324    5.0657   -1.0804 H   0  0  0  0  0  0  0  0  0  0  0  0
   11.7764    4.8412   -2.3216 H   0  0  0  0  0  0  0  0  0  0  0  0
   12.6177    6.0210   -0.2150 H   0  0  0  0  0  0  0  0  0  0  0  0
   13.5400    4.5395   -0.6366 H   0  0  0  0  0  0  0  0  0  0  0  0
   11.4044    4.7511    1.4704 H   0  0  0  0  0  0  0  0  0  0  0  0
   12.0200    2.6034    2.0691 H   0  0  0  0  0  0  0  0  0  0  0  0
   13.0926    2.4720    0.6280 H   0  0  0  0  0  0  0  0  0  0  0  0
    7.7079    1.6106   -1.1940 H   0  0  0  0  0  0  0  0  0  0  0  0
    9.2481    0.0510    1.0719 H   0  0  0  0  0  0  0  0  0  0  0  0
    8.7241   -0.6240   -0.5578 H   0  0  0  0  0  0  0  0  0  0  0  0
    6.8876    0.6611    1.6415 H   0  0  0  0  0  0  0  0  0  0  0  0
    6.2880   -0.0103    0.0388 H   0  0  0  0  0  0  0  0  0  0  0  0
    3.0445    2.6932    1.3367 H   0  0  0  0  0  0  0  0  0  0  0  0
    4.0704    1.3550    1.8504 H   0  0  0  0  0  0  0  0  0  0  0  0
    2.3699    1.0532    1.4203 H   0  0  0  0  0  0  0  0  0  0  0  0
  1  2  1  0
  1 27  1  0
  1 28  1  0
  1 29  1  0
  2  3  1  0
  2 25  2  0
  3  4  1  0
  4  5  2  0
  4 24  1  0
  5  6  1  0
  6  7  2  0
  6 30  1  0
  7  8  1  0
  8  9  1  0
  8 24  2  0
  9 10  1  0
 10 11  2  0
 10 20  1  0
 11 12  1  0
 12 13  2  0
 13 14  1  0
 13 20  1  0
 14 15  1  0
 14 19  1  0
 14 31  1  6
 15 16  1  0
 15 32  1  0
 15 33  1  0
 16 17  1  0
 16 34  1  0
 16 35  1  0
 17 18  1  0
 17 36  1  0
 17 37  1  0
 18 19  1  0
 18 38  1  0
 19 39  1  0
 19 40  1  0
 20 21  1  0
 21 22  1  0
 21 23  1  0
 21 41  1  6
 22 23  1  0
 22 42  1  0
 22 43  1  0
 23 44  1  0
 23 45  1  0
 24 25  1  0
 25 26  1  0
 26 46  1  0
 26 47  1  0
 26 48  1  0
M  END

