
     RDKit          3D

 51 53  0  0  0  0  0  0  0  0999 V2000
    2.6894    0.4253   -2.8684 C   0  0  0  0  0  0  0  0  0  0  0  0
    2.3481   -0.0413   -1.4531 C   0  0  2  0  0  0  0  0  0  0  0  0
    1.2588    0.0779   -1.2888 H   0  0  0  0  0  0  0  0  0  0  0  0
    3.0726    0.6221   -0.4406 O   0  0  0  0  0  0  0  0  0  0  0  0
    2.6436    1.9332   -0.0785 C   0  0  0  0  0  0  0  0  0  0  0  0
    1.5683    2.1075    0.8138 C   0  0  0  0  0  0  0  0  0  0  0  0
    1.1700    3.3795    1.1860 C   0  0  0  0  0  0  0  0  0  0  0  0
    1.8202    4.5738    0.7000 C   0  0  0  0  0  0  0  0  0  0  0  0
    1.4005    5.8985    1.0818 C   0  0  0  0  0  0  0  0  0  0  0  0
    0.2842    6.1369    1.9572 C   0  0  0  0  0  0  0  0  0  0  0  0
   -0.1118    7.4146    2.3220 C   0  0  0  0  0  0  0  0  0  0  0  0
    0.5630    8.5578    1.8509 C   0  0  0  0  0  0  0  0  0  0  0  0
    1.6595    8.3578    0.9897 C   0  0  0  0  0  0  0  0  0  0  0  0
    2.0661    7.0858    0.6164 C   0  0  0  0  0  0  0  0  0  0  0  0
    2.9308    4.3329   -0.1932 C   0  0  0  0  0  0  0  0  0  0  0  0
    3.3253    3.0605   -0.5698 C   0  0  0  0  0  0  0  0  0  0  0  0
    2.6215   -1.5377   -1.2907 C   0  0  0  0  0  0  0  0  0  0  0  0
    2.2216   -2.4080   -2.0213 O   0  0  0  0  0  0  0  0  0  0  0  0
    3.4219   -1.7974   -0.1419 N   0  0  0  0  0  0  0  0  0  0  0  0
    3.8745   -2.9655    0.3483 C   0  0  0  0  0  0  0  0  0  0  0  0
    3.5919   -4.2351   -0.2623 C   0  0  0  0  0  0  0  0  0  0  0  0
    4.0872   -5.3962    0.2854 C   0  0  0  0  0  0  0  0  0  0  0  0
    4.8829   -5.3502    1.4628 C   0  0  0  0  0  0  0  0  0  0  0  0
    5.3989   -6.4150    2.0564 O   0  0  0  0  0  0  0  0  0  0  0  0
    5.1914   -7.7434    1.5468 C   0  0  0  0  0  0  0  0  0  0  0  0
    5.8952   -8.8004    2.4032 C   0  0  0  0  0  0  0  0  0  0  0  0
    6.5757   -8.3517    3.4825 N   0  0  0  0  0  0  0  0  0  0  0  0
    5.7966   -9.9592    2.0612 O   0  0  0  0  0  0  0  0  0  0  0  0
    5.1684   -4.0933    2.0781 C   0  0  0  0  0  0  0  0  0  0  0  0
    4.6797   -2.9353    1.5388 C   0  0  0  0  0  0  0  0  0  0  0  0
    3.7648    0.2999   -3.0687 H   0  0  0  0  0  0  0  0  0  0  0  0
    2.4398    1.4904   -2.9590 H   0  0  0  0  0  0  0  0  0  0  0  0
    2.1143   -0.1439   -3.6131 H   0  0  0  0  0  0  0  0  0  0  0  0
    1.0492    1.2345    1.2227 H   0  0  0  0  0  0  0  0  0  0  0  0
    0.3370    3.4676    1.8841 H   0  0  0  0  0  0  0  0  0  0  0  0
   -0.2832    5.2923    2.3525 H   0  0  0  0  0  0  0  0  0  0  0  0
   -0.9714    7.5309    2.9908 H   0  0  0  0  0  0  0  0  0  0  0  0
    0.2466    9.5618    2.1410 H   0  0  0  0  0  0  0  0  0  0  0  0
    2.2081    9.2230    0.6021 H   0  0  0  0  0  0  0  0  0  0  0  0
    2.9236    6.9979   -0.0531 H   0  0  0  0  0  0  0  0  0  0  0  0
    3.4924    5.1777   -0.5926 H   0  0  0  0  0  0  0  0  0  0  0  0
    4.1787    2.9252   -1.2403 H   0  0  0  0  0  0  0  0  0  0  0  0
    3.6460   -0.8948    0.3120 H   0  0  0  0  0  0  0  0  0  0  0  0
    2.9818   -4.2515   -1.1626 H   0  0  0  0  0  0  0  0  0  0  0  0
    3.8613   -6.3474   -0.1943 H   0  0  0  0  0  0  0  0  0  0  0  0
    5.5862   -7.8222    0.5223 H   0  0  0  0  0  0  0  0  0  0  0  0
    4.1161   -7.9794    1.5346 H   0  0  0  0  0  0  0  0  0  0  0  0
    6.6227   -7.3706    3.7209 H   0  0  0  0  0  0  0  0  0  0  0  0
    7.0488   -9.0318    4.0671 H   0  0  0  0  0  0  0  0  0  0  0  0
    5.7801   -4.0850    2.9806 H   0  0  0  0  0  0  0  0  0  0  0  0
    4.8949   -1.9737    2.0064 H   0  0  0  0  0  0  0  0  0  0  0  0
  1  2  1  0
  1 31  1  0
  1 32  1  0
  1 33  1  0
  2  3  1  1
  2  4  1  0
  2 17  1  0
  4  5  1  0
  5  6  2  0
  5 16  1  0
  6  7  1  0
  6 34  1  0
  7  8  2  0
  7 35  1  0
  8  9  1  0
  8 15  1  0
  9 10  2  0
  9 14  1  0
 10 11  1  0
 10 36  1  0
 11 12  2  0
 11 37  1  0
 12 13  1  0
 12 38  1  0
 13 14  2  0
 13 39  1  0
 14 40  1  0
 15 16  2  0
 15 41  1  0
 16 42  1  0
 17 18  2  0
 17 19  1  0
 19 20  1  0
 19 43  1  0
 20 21  2  0
 20 30  1  0
 21 22  1  0
 21 44  1  0
 22 23  2  0
 22 45  1  0
 23 24  1  0
 23 29  1  0
 24 25  1  0
 25 26  1  0
 25 46  1  0
 25 47  1  0
 26 27  1  0
 26 28  2  0
 27 48  1  0
 27 49  1  0
 29 30  2  0
 29 50  1  0
 30 51  1  0
M  END

