
     RDKit          3D

 36 37  0  0  0  0  0  0  0  0999 V2000
    0.5920   -0.7261    0.1879 C   0  0  0  0  0  0  0  0  0  0  0  0
    2.1004   -0.4745    0.1865 C   0  0  0  0  0  0  0  0  0  0  0  0
    2.8909   -1.4967   -0.6361 C   0  0  0  0  0  0  0  0  0  0  0  0
    4.4028   -1.2494   -0.6423 C   0  0  0  0  0  0  0  0  0  0  0  0
    5.1786   -2.2764   -1.4714 C   0  0  0  0  0  0  0  0  0  0  0  0
    6.6879   -2.0098   -1.5939 C   0  0  1  0  0  0  0  0  0  0  0  0
    7.4311   -2.0753   -0.2526 C   0  0  0  0  0  0  0  0  0  0  0  0
    7.2233   -2.9779   -2.5576 N   0  0  0  0  0  0  0  0  0  0  0  0
    8.4520   -3.0333   -3.1544 C   0  0  0  0  0  0  0  0  0  0  0  0
    9.3893   -2.0315   -3.4057 C   0  0  0  0  0  0  0  0  0  0  0  0
    9.1191   -0.3541   -2.9479 Cl  0  0  0  0  0  0  0  0  0  0  0  0
   10.6294   -2.2742   -4.0769 C   0  0  0  0  0  0  0  0  0  0  0  0
   11.0018   -3.5090   -4.5449 C   0  0  0  0  0  0  0  0  0  0  0  0
   12.5138   -3.7683   -5.3615 Cl  0  0  0  0  0  0  0  0  0  0  0  0
   10.0977   -4.5964   -4.3422 C   0  0  0  0  0  0  0  0  0  0  0  0
   10.2463   -5.8686   -4.7068 N   0  0  0  0  0  0  0  0  0  0  0  0
    8.9086   -6.6757   -4.2061 S   0  0  0  0  0  0  0  0  0  0  0  0
    8.0933   -5.4302   -3.5067 N   0  0  0  0  0  0  0  0  0  0  0  0
    8.8468   -4.3431   -3.6475 C   0  0  0  0  0  0  0  0  0  0  0  0
    0.0562    0.0275    0.7868 H   0  0  0  0  0  0  0  0  0  0  0  0
    0.3509   -1.7171    0.6079 H   0  0  0  0  0  0  0  0  0  0  0  0
    0.1788   -0.6934   -0.8343 H   0  0  0  0  0  0  0  0  0  0  0  0
    2.4763   -0.4768    1.2260 H   0  0  0  0  0  0  0  0  0  0  0  0
    2.3050    0.5396   -0.2027 H   0  0  0  0  0  0  0  0  0  0  0  0
    2.5162   -1.4958   -1.6767 H   0  0  0  0  0  0  0  0  0  0  0  0
    2.6889   -2.5124   -0.2472 H   0  0  0  0  0  0  0  0  0  0  0  0
    4.7693   -1.2463    0.3991 H   0  0  0  0  0  0  0  0  0  0  0  0
    4.6043   -0.2364   -1.0374 H   0  0  0  0  0  0  0  0  0  0  0  0
    4.7603   -2.3076   -2.4924 H   0  0  0  0  0  0  0  0  0  0  0  0
    5.0242   -3.2862   -1.0436 H   0  0  0  0  0  0  0  0  0  0  0  0
    6.8179   -1.0033   -2.0149 H   0  0  0  0  0  0  0  0  0  0  0  0
    7.3054   -3.0650    0.2179 H   0  0  0  0  0  0  0  0  0  0  0  0
    7.0588   -1.3111    0.4468 H   0  0  0  0  0  0  0  0  0  0  0  0
    8.5067   -1.8945   -0.3959 H   0  0  0  0  0  0  0  0  0  0  0  0
    6.7962   -3.8997   -2.5041 H   0  0  0  0  0  0  0  0  0  0  0  0
   11.2972   -1.4245   -4.2209 H   0  0  0  0  0  0  0  0  0  0  0  0
  1  2  1  0
  1 20  1  0
  1 21  1  0
  1 22  1  0
  2  3  1  0
  2 23  1  0
  2 24  1  0
  3  4  1  0
  3 25  1  0
  3 26  1  0
  4  5  1  0
  4 27  1  0
  4 28  1  0
  5  6  1  0
  5 29  1  0
  5 30  1  0
  6  7  1  0
  6  8  1  0
  6 31  1  6
  7 32  1  0
  7 33  1  0
  7 34  1  0
  8  9  1  0
  8 35  1  0
  9 10  2  0
  9 19  1  0
 10 11  1  0
 10 12  1  0
 12 13  2  0
 12 36  1  0
 13 14  1  0
 13 15  1  0
 15 16  2  0
 15 19  1  0
 16 17  1  0
 17 18  1  0
 18 19  2  0
M  END

