
     RDKit          3D

 35 36  0  0  0  0  0  0  0  0999 V2000
    6.3130    4.6084    2.3393 C   0  0  0  0  0  0  0  0  0  0  0  0
    6.9310    3.3489    2.2456 O   0  0  0  0  0  0  0  0  0  0  0  0
    6.2232    2.4168    1.4596 C   0  0  0  0  0  0  0  0  0  0  0  0
    7.0233    1.1222    1.4229 C   0  0  0  0  0  0  0  0  0  0  0  0
    7.2920    0.6179    2.7561 N   0  0  0  0  0  0  0  0  0  0  0  0
    6.7356   -0.5183    3.2450 C   0  0  0  0  0  0  0  0  0  0  0  0
    6.1208   -1.3186    2.5227 O   0  0  0  0  0  0  0  0  0  0  0  0
    6.8972   -0.7843    4.5910 N   0  0  0  0  0  0  0  0  0  0  0  0
    7.3795    0.0465    5.6308 C   0  0  0  0  0  0  0  0  0  0  0  0
    7.4337    1.4438    5.7035 C   0  0  0  0  0  0  0  0  0  0  0  0
    7.9459    2.0272    6.8718 C   0  0  0  0  0  0  0  0  0  0  0  0
    8.3752    1.2433    7.9447 C   0  0  0  0  0  0  0  0  0  0  0  0
    8.2878   -0.1548    7.8700 C   0  0  0  0  0  0  0  0  0  0  0  0
    7.7889   -0.7490    6.7163 C   0  0  0  0  0  0  0  0  0  0  0  0
    7.5704   -2.2080    6.3973 C   0  0  0  0  0  0  0  0  0  0  0  0
    6.7638   -2.1825    5.0834 C   0  0  1  0  0  0  0  0  0  0  0  0
    5.2791   -2.6016    5.2917 C   0  0  0  0  0  0  0  0  0  0  0  0
    4.8772   -3.0400    6.3405 O   0  0  0  0  0  0  0  0  0  0  0  0
    4.5096   -2.4806    4.2202 O   0  0  0  0  0  0  0  0  0  0  0  0
    6.9444    5.2466    2.9741 H   0  0  0  0  0  0  0  0  0  0  0  0
    5.3046    4.5418    2.7939 H   0  0  0  0  0  0  0  0  0  0  0  0
    6.2099    5.0896    1.3464 H   0  0  0  0  0  0  0  0  0  0  0  0
    6.0834    2.7946    0.4255 H   0  0  0  0  0  0  0  0  0  0  0  0
    5.2152    2.2324    1.8854 H   0  0  0  0  0  0  0  0  0  0  0  0
    7.9784    1.3018    0.9008 H   0  0  0  0  0  0  0  0  0  0  0  0
    6.4738    0.3475    0.8720 H   0  0  0  0  0  0  0  0  0  0  0  0
    7.8551    1.1997    3.3636 H   0  0  0  0  0  0  0  0  0  0  0  0
    7.0688    2.0830    4.8986 H   0  0  0  0  0  0  0  0  0  0  0  0
    7.9944    3.1169    6.9401 H   0  0  0  0  0  0  0  0  0  0  0  0
    8.7657    1.7186    8.8473 H   0  0  0  0  0  0  0  0  0  0  0  0
    8.6032   -0.7739    8.7140 H   0  0  0  0  0  0  0  0  0  0  0  0
    6.9879   -2.7296    7.1701 H   0  0  0  0  0  0  0  0  0  0  0  0
    8.5291   -2.7386    6.2721 H   0  0  0  0  0  0  0  0  0  0  0  0
    7.1758   -2.8582    4.3174 H   0  0  0  0  0  0  0  0  0  0  0  0
    5.0351   -2.1134    3.4535 H   0  0  0  0  0  0  0  0  0  0  0  0
  1  2  1  0
  1 20  1  0
  1 21  1  0
  1 22  1  0
  2  3  1  0
  3  4  1  0
  3 23  1  0
  3 24  1  0
  4  5  1  0
  4 25  1  0
  4 26  1  0
  5  6  1  0
  5 27  1  0
  6  7  2  0
  6  8  1  0
  8  9  1  0
  8 16  1  0
  9 10  2  0
  9 14  1  0
 10 11  1  0
 10 28  1  0
 11 12  2  0
 11 29  1  0
 12 13  1  0
 12 30  1  0
 13 14  2  0
 13 31  1  0
 14 15  1  0
 15 16  1  0
 15 32  1  0
 15 33  1  0
 16 17  1  0
 16 34  1  6
 17 18  2  0
 17 19  1  0
 19 35  1  0
M  END

