
     RDKit          3D

 50 51  0  0  0  0  0  0  0  0999 V2000
    0.7701   -0.7602    1.0731 C   0  0  0  0  0  0  0  0  0  0  0  0
    2.2841   -0.8006    0.9988 C   0  0  0  0  0  0  0  0  0  0  0  0
    2.7652    0.5358    1.0495 O   0  0  0  0  0  0  0  0  0  0  0  0
    4.0942    0.7793    0.9614 C   0  0  0  0  0  0  0  0  0  0  0  0
    5.0839   -0.2130    0.8676 C   0  0  0  0  0  0  0  0  0  0  0  0
    6.4310    0.1320    0.7606 C   0  0  0  0  0  0  0  0  0  0  0  0
    6.8410    1.4769    0.7427 C   0  0  0  0  0  0  0  0  0  0  0  0
    8.2354    1.9023    0.6271 C   0  0  0  0  0  0  0  0  0  0  0  0
    9.3379    1.1313    0.5190 C   0  0  0  0  0  0  0  0  0  0  0  0
   10.6785    1.7794    0.4453 C   0  0  0  0  0  0  0  0  0  0  0  0
   10.8127    2.9914    0.6052 O   0  0  0  0  0  0  0  0  0  0  0  0
   11.7697    0.9685    0.2090 N   0  0  0  0  0  0  0  0  0  0  0  0
   11.7074   -0.4346   -0.1589 C   0  0  0  0  0  0  0  0  0  0  0  0
   13.1058    1.5579    0.3185 C   0  0  0  0  0  0  0  0  0  0  0  0
   13.7535    1.8707   -1.0186 C   0  0  0  0  0  0  0  0  0  0  0  0
   13.2012    2.8593   -1.8526 C   0  0  0  0  0  0  0  0  0  0  0  0
   13.7851    3.1512   -3.0862 C   0  0  0  0  0  0  0  0  0  0  0  0
   14.9307    2.4639   -3.5067 C   0  0  0  0  0  0  0  0  0  0  0  0
   15.4890    1.4835   -2.6841 C   0  0  0  0  0  0  0  0  0  0  0  0
   14.9010    1.1901   -1.4480 C   0  0  0  0  0  0  0  0  0  0  0  0
    5.8372    2.4636    0.8460 C   0  0  0  0  0  0  0  0  0  0  0  0
    4.4876    2.1422    0.9543 C   0  0  0  0  0  0  0  0  0  0  0  0
    3.5618    3.1433    0.9866 O   0  0  0  0  0  0  0  0  0  0  0  0
    2.8665    3.3578    2.2176 C   0  0  0  0  0  0  0  0  0  0  0  0
    1.8760    4.4852    2.0067 C   0  0  0  0  0  0  0  0  0  0  0  0
    0.3607   -1.7810    1.0223 H   0  0  0  0  0  0  0  0  0  0  0  0
    0.3561   -0.1759    0.2375 H   0  0  0  0  0  0  0  0  0  0  0  0
    0.4361   -0.2993    2.0153 H   0  0  0  0  0  0  0  0  0  0  0  0
    2.6183   -1.2817    0.0608 H   0  0  0  0  0  0  0  0  0  0  0  0
    2.7037   -1.3849    1.8392 H   0  0  0  0  0  0  0  0  0  0  0  0
    4.8059   -1.2670    0.8709 H   0  0  0  0  0  0  0  0  0  0  0  0
    7.1701   -0.6683    0.6867 H   0  0  0  0  0  0  0  0  0  0  0  0
    8.4126    2.9833    0.6342 H   0  0  0  0  0  0  0  0  0  0  0  0
    9.2613    0.0433    0.5163 H   0  0  0  0  0  0  0  0  0  0  0  0
   10.7839   -0.6684   -0.7032 H   0  0  0  0  0  0  0  0  0  0  0  0
   11.7836   -1.1088    0.7157 H   0  0  0  0  0  0  0  0  0  0  0  0
   12.5424   -0.6652   -0.8384 H   0  0  0  0  0  0  0  0  0  0  0  0
   13.7471    0.8635    0.8881 H   0  0  0  0  0  0  0  0  0  0  0  0
   12.9937    2.4814    0.9017 H   0  0  0  0  0  0  0  0  0  0  0  0
   12.3136    3.3994   -1.5133 H   0  0  0  0  0  0  0  0  0  0  0  0
   13.3480    3.9246   -3.7236 H   0  0  0  0  0  0  0  0  0  0  0  0
   15.3869    2.6959   -4.4727 H   0  0  0  0  0  0  0  0  0  0  0  0
   16.3845    0.9434   -3.0031 H   0  0  0  0  0  0  0  0  0  0  0  0
   15.3458    0.4243   -0.8047 H   0  0  0  0  0  0  0  0  0  0  0  0
    6.1027    3.5232    0.8314 H   0  0  0  0  0  0  0  0  0  0  0  0
    3.5970    3.6172    3.0079 H   0  0  0  0  0  0  0  0  0  0  0  0
    2.3493    2.4340    2.5258 H   0  0  0  0  0  0  0  0  0  0  0  0
    2.3926    5.4057    1.6937 H   0  0  0  0  0  0  0  0  0  0  0  0
    1.3271    4.6919    2.9389 H   0  0  0  0  0  0  0  0  0  0  0  0
    1.1488    4.2171    1.2249 H   0  0  0  0  0  0  0  0  0  0  0  0
  1  2  1  0
  1 26  1  0
  1 27  1  0
  1 28  1  0
  2  3  1  0
  2 29  1  0
  2 30  1  0
  3  4  1  0
  4  5  2  0
  4 22  1  0
  5  6  1  0
  5 31  1  0
  6  7  2  0
  6 32  1  0
  7  8  1  0
  7 21  1  0
  8  9  2  0
  8 33  1  0
  9 10  1  0
  9 34  1  0
 10 11  2  0
 10 12  1  0
 12 13  1  0
 12 14  1  0
 13 35  1  0
 13 36  1  0
 13 37  1  0
 14 15  1  0
 14 38  1  0
 14 39  1  0
 15 16  2  0
 15 20  1  0
 16 17  1  0
 16 40  1  0
 17 18  2  0
 17 41  1  0
 18 19  1  0
 18 42  1  0
 19 20  2  0
 19 43  1  0
 20 44  1  0
 21 22  2  0
 21 45  1  0
 22 23  1  0
 23 24  1  0
 24 25  1  0
 24 46  1  0
 24 47  1  0
 25 48  1  0
 25 49  1  0
 25 50  1  0
M  END

