
     RDKit          3D

 90 93  0  0  0  0  0  0  0  0999 V2000
    3.9235    5.0115   -3.7376 C   0  0  0  0  0  0  0  0  0  0  0  0
    5.0572    4.1433   -3.1898 C   0  0  0  0  0  0  0  0  0  0  0  0
    5.3430    2.8999   -4.0378 C   0  0  0  0  0  0  0  0  0  0  0  0
    6.4756    2.0239   -3.4948 C   0  0  0  0  0  0  0  0  0  0  0  0
    6.7605    0.7804   -4.3422 C   0  0  0  0  0  0  0  0  0  0  0  0
    7.8909   -0.0970   -3.7964 C   0  0  0  0  0  0  0  0  0  0  0  0
    8.1746   -1.3417   -4.6426 C   0  0  0  0  0  0  0  0  0  0  0  0
    9.3011   -2.2211   -4.0921 C   0  0  0  0  0  0  0  0  0  0  0  0
    9.5811   -3.4670   -4.9371 C   0  0  0  0  0  0  0  0  0  0  0  0
   10.7075   -4.3468   -4.3638 C   0  0  0  0  0  0  0  0  0  0  0  0
   11.0040   -5.5660   -5.2034 C   0  0  0  0  0  0  0  0  0  0  0  0
   11.6699   -5.4729   -6.4620 C   0  0  0  0  0  0  0  0  0  0  0  0
   11.8027   -6.6705   -7.1385 C   0  0  0  0  0  0  0  0  0  0  0  0
   12.4296   -6.9291   -8.4201 C   0  0  0  0  0  0  0  0  0  0  0  0
   12.8021   -8.1379   -8.9754 C   0  0  0  0  0  0  0  0  0  0  0  0
   13.4246   -8.0421  -10.2562 C   0  0  0  0  0  0  0  0  0  0  0  0
   13.9716   -9.2434  -10.9901 C   0  0  0  0  0  0  0  0  0  0  0  0
   14.9685  -10.0762  -10.1659 C   0  0  0  0  0  0  0  0  0  0  0  0
   15.5351  -11.2759  -10.9309 C   0  0  0  0  0  0  0  0  0  0  0  0
   16.5236  -12.1117  -10.1127 C   0  0  0  0  0  0  0  0  0  0  0  0
   17.1037  -13.3105  -10.8692 C   0  0  0  0  0  0  0  0  0  0  0  0
   18.0882  -14.1437  -10.0435 C   0  0  0  0  0  0  0  0  0  0  0  0
   18.6746  -15.3421  -10.7958 C   0  0  0  0  0  0  0  0  0  0  0  0
   19.6573  -16.1740   -9.9668 C   0  0  0  0  0  0  0  0  0  0  0  0
   20.2457  -17.3731  -10.7170 C   0  0  0  0  0  0  0  0  0  0  0  0
   21.2254  -18.1982   -9.8813 C   0  0  0  0  0  0  0  0  0  0  0  0
   13.5142   -6.7239  -10.6884 C   0  0  0  0  0  0  0  0  0  0  0  0
   14.0642   -6.1809  -11.9250 C   0  0  0  0  0  0  0  0  0  0  0  0
   13.9137   -6.6313  -13.2240 C   0  0  0  0  0  0  0  0  0  0  0  0
   14.5989   -5.8318  -14.1845 C   0  0  0  0  0  0  0  0  0  0  0  0
   15.2606   -4.7710  -13.6181 C   0  0  0  0  0  0  0  0  0  0  0  0
   15.0711   -4.7446  -11.9006 S   0  0  0  0  0  0  0  0  0  0  0  0
   12.8222   -5.6236   -9.5110 S   0  0  0  0  0  0  0  0  0  0  0  0
   11.0930   -7.9631   -6.2043 S   0  0  0  0  0  0  0  0  0  0  0  0
   10.6208   -6.8704   -4.9158 C   0  0  0  0  0  0  0  0  0  0  0  0
    9.9160   -7.4407   -3.7711 C   0  0  0  0  0  0  0  0  0  0  0  0
    8.9128   -8.3929   -3.7837 C   0  0  0  0  0  0  0  0  0  0  0  0
    8.4816   -8.7845   -2.4835 C   0  0  0  0  0  0  0  0  0  0  0  0
    9.1592   -8.1350   -1.4824 C   0  0  0  0  0  0  0  0  0  0  0  0
   10.3454   -7.0493   -2.1162 S   0  0  0  0  0  0  0  0  0  0  0  0
    3.7457    5.8947   -3.1033 H   0  0  0  0  0  0  0  0  0  0  0  0
    2.9777    4.4467   -3.7943 H   0  0  0  0  0  0  0  0  0  0  0  0
    4.1508    5.3730   -4.7547 H   0  0  0  0  0  0  0  0  0  0  0  0
    4.8161    3.8301   -2.1574 H   0  0  0  0  0  0  0  0  0  0  0  0
    5.9793    4.7477   -3.1101 H   0  0  0  0  0  0  0  0  0  0  0  0
    5.5859    3.2121   -5.0710 H   0  0  0  0  0  0  0  0  0  0  0  0
    4.4206    2.2947   -4.1190 H   0  0  0  0  0  0  0  0  0  0  0  0
    6.2323    1.7126   -2.4616 H   0  0  0  0  0  0  0  0  0  0  0  0
    7.3978    2.6293   -3.4138 H   0  0  0  0  0  0  0  0  0  0  0  0
    7.0061    1.0911   -5.3749 H   0  0  0  0  0  0  0  0  0  0  0  0
    5.8380    0.1759   -4.4248 H   0  0  0  0  0  0  0  0  0  0  0  0
    7.6453   -0.4072   -2.7635 H   0  0  0  0  0  0  0  0  0  0  0  0
    8.8140    0.5068   -3.7142 H   0  0  0  0  0  0  0  0  0  0  0  0
    8.4238   -1.0324   -5.6748 H   0  0  0  0  0  0  0  0  0  0  0  0
    7.2510   -1.9441   -4.7269 H   0  0  0  0  0  0  0  0  0  0  0  0
    9.0519   -2.5300   -3.0598 H   0  0  0  0  0  0  0  0  0  0  0  0
   10.2261   -1.6204   -4.0083 H   0  0  0  0  0  0  0  0  0  0  0  0
    9.8378   -3.1642   -5.9681 H   0  0  0  0  0  0  0  0  0  0  0  0
    8.6621   -4.0735   -5.0216 H   0  0  0  0  0  0  0  0  0  0  0  0
   10.4396   -4.6438   -3.3396 H   0  0  0  0  0  0  0  0  0  0  0  0
   11.6273   -3.7413   -4.2763 H   0  0  0  0  0  0  0  0  0  0  0  0
   12.0568   -4.5310   -6.8570 H   0  0  0  0  0  0  0  0  0  0  0  0
   12.6554   -9.0861   -8.4548 H   0  0  0  0  0  0  0  0  0  0  0  0
   14.4624   -8.9143  -11.9179 H   0  0  0  0  0  0  0  0  0  0  0  0
   13.1333   -9.8941  -11.3024 H   0  0  0  0  0  0  0  0  0  0  0  0
   14.4832  -10.4340   -9.2407 H   0  0  0  0  0  0  0  0  0  0  0  0
   15.7959   -9.4225   -9.8376 H   0  0  0  0  0  0  0  0  0  0  0  0
   16.0316  -10.9203  -11.8529 H   0  0  0  0  0  0  0  0  0  0  0  0
   14.7029  -11.9212  -11.2696 H   0  0  0  0  0  0  0  0  0  0  0  0
   16.0242  -12.4687   -9.1927 H   0  0  0  0  0  0  0  0  0  0  0  0
   17.3506  -11.4627   -9.7693 H   0  0  0  0  0  0  0  0  0  0  0  0
   17.6070  -12.9539  -11.7872 H   0  0  0  0  0  0  0  0  0  0  0  0
   16.2773  -13.9592  -11.2152 H   0  0  0  0  0  0  0  0  0  0  0  0
   17.5833  -14.5007   -9.1265 H   0  0  0  0  0  0  0  0  0  0  0  0
   18.9122  -13.4933   -9.6953 H   0  0  0  0  0  0  0  0  0  0  0  0
   19.1811  -14.9852  -11.7120 H   0  0  0  0  0  0  0  0  0  0  0  0
   17.8508  -15.9925  -11.1450 H   0  0  0  0  0  0  0  0  0  0  0  0
   19.1507  -16.5312   -9.0505 H   0  0  0  0  0  0  0  0  0  0  0  0
   20.4810  -15.5237   -9.6169 H   0  0  0  0  0  0  0  0  0  0  0  0
   20.7518  -17.0151  -11.6322 H   0  0  0  0  0  0  0  0  0  0  0  0
   19.4218  -18.0219  -11.0664 H   0  0  0  0  0  0  0  0  0  0  0  0
   22.0820  -17.5879   -9.5488 H   0  0  0  0  0  0  0  0  0  0  0  0
   21.6268  -19.0514  -10.4514 H   0  0  0  0  0  0  0  0  0  0  0  0
   20.7399  -18.6018   -8.9767 H   0  0  0  0  0  0  0  0  0  0  0  0
   13.2965   -7.4929  -13.4804 H   0  0  0  0  0  0  0  0  0  0  0  0
   14.5879   -6.0286  -15.2578 H   0  0  0  0  0  0  0  0  0  0  0  0
   15.8485   -4.0006  -14.1153 H   0  0  0  0  0  0  0  0  0  0  0  0
    8.4894   -8.7829   -4.7106 H   0  0  0  0  0  0  0  0  0  0  0  0
    7.6904   -9.5128   -2.2988 H   0  0  0  0  0  0  0  0  0  0  0  0
    9.0243   -8.2279   -0.4055 H   0  0  0  0  0  0  0  0  0  0  0  0
  1  2  1  0
  1 41  1  0
  1 42  1  0
  1 43  1  0
  2  3  1  0
  2 44  1  0
  2 45  1  0
  3  4  1  0
  3 46  1  0
  3 47  1  0
  4  5  1  0
  4 48  1  0
  4 49  1  0
  5  6  1  0
  5 50  1  0
  5 51  1  0
  6  7  1  0
  6 52  1  0
  6 53  1  0
  7  8  1  0
  7 54  1  0
  7 55  1  0
  8  9  1  0
  8 56  1  0
  8 57  1  0
  9 10  1  0
  9 58  1  0
  9 59  1  0
 10 11  1  0
 10 60  1  0
 10 61  1  0
 11 12  1  0
 11 35  2  0
 12 13  2  0
 12 62  1  0
 13 14  1  0
 13 34  1  0
 14 15  2  0
 14 33  1  0
 15 16  1  0
 15 63  1  0
 16 17  1  0
 16 27  2  0
 17 18  1  0
 17 64  1  0
 17 65  1  0
 18 19  1  0
 18 66  1  0
 18 67  1  0
 19 20  1  0
 19 68  1  0
 19 69  1  0
 20 21  1  0
 20 70  1  0
 20 71  1  0
 21 22  1  0
 21 72  1  0
 21 73  1  0
 22 23  1  0
 22 74  1  0
 22 75  1  0
 23 24  1  0
 23 76  1  0
 23 77  1  0
 24 25  1  0
 24 78  1  0
 24 79  1  0
 25 26  1  0
 25 80  1  0
 25 81  1  0
 26 82  1  0
 26 83  1  0
 26 84  1  0
 27 28  1  0
 27 33  1  0
 28 29  2  0
 28 32  1  0
 29 30  1  0
 29 85  1  0
 30 31  2  0
 30 86  1  0
 31 32  1  0
 31 87  1  0
 34 35  1  0
 35 36  1  0
 36 37  2  0
 36 40  1  0
 37 38  1  0
 37 88  1  0
 38 39  2  0
 38 89  1  0
 39 40  1  0
 39 90  1  0
M  END

