
     RDKit          3D

 65 68  0  0  0  0  0  0  0  0999 V2000
    8.4543   -1.6485    5.9672 C   0  0  0  0  0  0  0  0  0  0  0  0
    7.4627   -2.3453    5.0382 C   0  0  1  0  0  0  0  0  0  0  0  0
    6.3459   -1.4445    4.7841 O   0  0  0  0  0  0  0  0  0  0  0  0
    5.3007   -1.5040    5.6115 C   0  0  0  0  0  0  0  0  0  0  0  0
    5.1510   -2.2409    6.5518 O   0  0  0  0  0  0  0  0  0  0  0  0
    4.3793   -0.5178    5.2194 N   0  0  0  0  0  0  0  0  0  0  0  0
    3.1363   -0.3301    5.6755 C   0  0  0  0  0  0  0  0  0  0  0  0
    2.5218   -1.1255    6.5729 O   0  0  0  0  0  0  0  0  0  0  0  0
    1.3175   -0.5148    6.7789 C   0  0  0  0  0  0  0  0  0  0  0  0
    1.1186    0.5591    6.0720 N   0  0  0  0  0  0  0  0  0  0  0  0
    2.2430    0.7276    5.3153 C   0  0  0  0  0  0  0  0  0  0  0  0
    2.5358    1.7438    4.3173 C   0  0  0  0  0  0  0  0  0  0  0  0
    2.1326    3.0624    4.4822 C   0  0  0  0  0  0  0  0  0  0  0  0
    2.5330    4.0692    3.5771 C   0  0  0  0  0  0  0  0  0  0  0  0
    3.3473    3.7022    2.4598 C   0  0  0  0  0  0  0  0  0  0  0  0
    3.6991    4.7421    1.4317 C   0  0  0  0  0  0  0  0  0  0  0  0
    4.2418    5.8931    2.0617 O   0  0  0  0  0  0  0  0  0  0  0  0
    4.5077    6.9927    1.2099 C   0  0  1  0  0  0  0  0  0  0  0  0
    3.2526    7.8729    1.0896 C   0  0  0  0  0  0  0  0  0  0  0  0
    3.3163    8.9141   -0.0178 C   0  0  0  0  0  0  0  0  0  0  0  0
    4.2289    9.0447   -0.7880 O   0  0  0  0  0  0  0  0  0  0  0  0
    2.2333    9.7231   -0.1068 O   0  0  0  0  0  0  0  0  0  0  0  0
    5.7013    7.7621    1.7965 C   0  0  0  0  0  0  0  0  0  0  0  0
    7.0105    7.0083    1.7223 C   0  0  0  0  0  0  0  0  0  0  0  0
    7.9567    7.3215    0.7333 C   0  0  0  0  0  0  0  0  0  0  0  0
    9.1640    6.6216    0.6452 C   0  0  0  0  0  0  0  0  0  0  0  0
    9.4440    5.5917    1.5475 C   0  0  0  0  0  0  0  0  0  0  0  0
    8.5075    5.2672    2.5346 C   0  0  0  0  0  0  0  0  0  0  0  0
    7.3018    5.9680    2.6211 C   0  0  0  0  0  0  0  0  0  0  0  0
    3.7474    2.3840    2.2812 C   0  0  0  0  0  0  0  0  0  0  0  0
    3.4168    1.3546    3.2117 C   0  0  0  0  0  0  0  0  0  0  0  0
    8.0533   -2.7382    3.7008 C   0  0  0  0  0  0  0  0  0  0  0  0
    8.4922   -4.0541    3.4984 C   0  0  0  0  0  0  0  0  0  0  0  0
    9.0899   -4.4275    2.2910 C   0  0  0  0  0  0  0  0  0  0  0  0
    9.2451   -3.4884    1.2679 C   0  0  0  0  0  0  0  0  0  0  0  0
    8.8020   -2.1755    1.4593 C   0  0  0  0  0  0  0  0  0  0  0  0
    8.2131   -1.8003    2.6691 C   0  0  0  0  0  0  0  0  0  0  0  0
    7.9796   -1.4085    6.9309 H   0  0  0  0  0  0  0  0  0  0  0  0
    8.8328   -0.7224    5.5084 H   0  0  0  0  0  0  0  0  0  0  0  0
    9.3108   -2.3118    6.1601 H   0  0  0  0  0  0  0  0  0  0  0  0
    7.0559   -3.2343    5.5414 H   0  0  0  0  0  0  0  0  0  0  0  0
    4.6066    0.1656    4.4443 H   0  0  0  0  0  0  0  0  0  0  0  0
    0.6573   -0.9848    7.5057 H   0  0  0  0  0  0  0  0  0  0  0  0
    1.5223    3.3220    5.3520 H   0  0  0  0  0  0  0  0  0  0  0  0
    2.2287    5.1052    3.7199 H   0  0  0  0  0  0  0  0  0  0  0  0
    2.7801    5.0219    0.8694 H   0  0  0  0  0  0  0  0  0  0  0  0
    4.4186    4.3347    0.6961 H   0  0  0  0  0  0  0  0  0  0  0  0
    4.7800    6.6398    0.1980 H   0  0  0  0  0  0  0  0  0  0  0  0
    3.0556    8.3745    2.0543 H   0  0  0  0  0  0  0  0  0  0  0  0
    2.3751    7.2307    0.8949 H   0  0  0  0  0  0  0  0  0  0  0  0
    1.5855    9.4984    0.5766 H   0  0  0  0  0  0  0  0  0  0  0  0
    5.4546    7.9962    2.8465 H   0  0  0  0  0  0  0  0  0  0  0  0
    5.7945    8.7134    1.2535 H   0  0  0  0  0  0  0  0  0  0  0  0
    7.7422    8.1259    0.0234 H   0  0  0  0  0  0  0  0  0  0  0  0
    9.8889    6.8845   -0.1301 H   0  0  0  0  0  0  0  0  0  0  0  0
   10.3887    5.0451    1.4831 H   0  0  0  0  0  0  0  0  0  0  0  0
    8.7179    4.4623    3.2443 H   0  0  0  0  0  0  0  0  0  0  0  0
    6.5675    5.7046    3.3851 H   0  0  0  0  0  0  0  0  0  0  0  0
    4.3248    2.1231    1.3884 H   0  0  0  0  0  0  0  0  0  0  0  0
    3.3793    0.3187    2.8454 H   0  0  0  0  0  0  0  0  0  0  0  0
    8.3623   -4.7963    4.2916 H   0  0  0  0  0  0  0  0  0  0  0  0
    9.4264   -5.4573    2.1473 H   0  0  0  0  0  0  0  0  0  0  0  0
    9.7060   -3.7795    0.3207 H   0  0  0  0  0  0  0  0  0  0  0  0
    8.9144   -1.4381    0.6604 H   0  0  0  0  0  0  0  0  0  0  0  0
    7.8617   -0.7756    2.8089 H   0  0  0  0  0  0  0  0  0  0  0  0
  1  2  1  0
  1 38  1  0
  1 39  1  0
  1 40  1  0
  2  3  1  0
  2 32  1  0
  2 41  1  6
  3  4  1  0
  4  5  2  0
  4  6  1  0
  6  7  1  0
  6 42  1  0
  7  8  1  0
  7 11  2  0
  8  9  1  0
  9 10  2  0
  9 43  1  0
 10 11  1  0
 11 12  1  0
 12 13  2  0
 12 31  1  0
 13 14  1  0
 13 44  1  0
 14 15  2  0
 14 45  1  0
 15 16  1  0
 15 30  1  0
 16 17  1  0
 16 46  1  0
 16 47  1  0
 17 18  1  0
 18 19  1  0
 18 23  1  0
 18 48  1  6
 19 20  1  0
 19 49  1  0
 19 50  1  0
 20 21  2  0
 20 22  1  0
 22 51  1  0
 23 24  1  0
 23 52  1  0
 23 53  1  0
 24 25  2  0
 24 29  1  0
 25 26  1  0
 25 54  1  0
 26 27  2  0
 26 55  1  0
 27 28  1  0
 27 56  1  0
 28 29  2  0
 28 57  1  0
 29 58  1  0
 30 31  2  0
 30 59  1  0
 31 60  1  0
 32 33  2  0
 32 37  1  0
 33 34  1  0
 33 61  1  0
 34 35  2  0
 34 62  1  0
 35 36  1  0
 35 63  1  0
 36 37  2  0
 36 64  1  0
 37 65  1  0
M  END

