
     RDKit          3D

 65 69  0  0  0  0  0  0  0  0999 V2000
   -2.5719   -2.4585    0.5717 C   0  0  0  0  0  0  0  0  0  0  0  0
   -1.5373   -3.4355    1.1608 C   0  0  1  0  0  0  0  0  0  0  0  0
   -2.2002   -4.4655    2.1011 C   0  0  0  0  0  0  0  0  0  0  0  0
   -0.7367   -4.1342    0.0892 C   0  0  0  0  0  0  0  0  0  0  0  0
    0.6810   -4.0778    0.0853 C   0  0  0  0  0  0  0  0  0  0  0  0
    1.4421   -4.7086   -0.8729 C   0  0  0  0  0  0  0  0  0  0  0  0
    0.7872   -5.4561   -1.9138 C   0  0  0  0  0  0  0  0  0  0  0  0
    1.4413   -6.0966   -2.8993 N   0  0  0  0  0  0  0  0  0  0  0  0
    2.8824   -6.1308   -3.1479 C   0  0  0  0  0  0  0  0  0  0  0  0
    3.6399   -5.6309   -2.3675 O   0  0  0  0  0  0  0  0  0  0  0  0
    3.2078   -6.7830   -4.2741 N   0  0  0  0  0  0  0  0  0  0  0  0
    2.3107   -7.3953   -5.2615 C   0  0  0  0  0  0  0  0  0  0  0  0
    3.2702   -8.2625   -6.0793 C   0  0  0  0  0  0  0  0  0  0  0  0
    4.5499   -7.4161   -6.1445 C   0  0  0  0  0  0  0  0  0  0  0  0
    4.5662   -6.5925   -4.8273 C   0  0  1  0  0  0  0  0  0  0  0  0
    5.3072   -6.9674   -4.1129 H   0  0  0  0  0  0  0  0  0  0  0  0
    4.7687   -5.0874   -5.1368 C   0  0  0  0  0  0  0  0  0  0  0  0
    3.7763   -4.3804   -5.3019 O   0  0  0  0  0  0  0  0  0  0  0  0
    6.0328   -4.6630   -5.2860 N   0  0  0  0  0  0  0  0  0  0  0  0
    6.3043   -3.3228   -5.8918 C   0  0  0  0  0  0  0  0  0  0  0  0
    7.7893   -3.3680   -6.3375 C   0  0  0  0  0  0  0  0  0  0  0  0
    8.3351   -4.3463   -5.3085 C   0  0  1  0  0  0  0  0  0  0  0  0
    8.2775   -3.8174   -4.3317 H   0  0  0  0  0  0  0  0  0  0  0  0
    7.2829   -5.4417   -5.3339 C   0  0  1  0  0  0  0  0  0  0  0  0
    7.3476   -5.9019   -6.3383 H   0  0  0  0  0  0  0  0  0  0  0  0
    7.8741   -6.4660   -4.3649 C   0  0  2  0  0  0  0  0  0  0  0  0
    7.5597   -7.4992   -4.5812 H   0  0  0  0  0  0  0  0  0  0  0  0
    7.7346   -6.1899   -2.8638 C   0  0  0  0  0  0  0  0  0  0  0  0
    9.3869   -6.3312   -4.8039 C   0  0  0  0  0  0  0  0  0  0  0  0
   10.2128   -7.1914   -4.5790 O   0  0  0  0  0  0  0  0  0  0  0  0
    9.5609   -5.0993   -5.4071 N   0  0  0  0  0  0  0  0  0  0  0  0
   10.7934   -4.4896   -5.8354 C   0  0  0  0  0  0  0  0  0  0  0  0
   11.4579   -5.0493   -6.8853 N   0  0  0  0  0  0  0  0  0  0  0  0
   12.7694   -4.8240   -6.8004 C   0  0  0  0  0  0  0  0  0  0  0  0
   13.2745   -4.2402   -5.6407 C   0  0  0  0  0  0  0  0  0  0  0  0
   11.9625   -3.9410   -4.4991 S   0  0  0  0  0  0  0  0  0  0  0  0
   -0.6515   -5.5201   -1.9139 C   0  0  0  0  0  0  0  0  0  0  0  0
   -1.3785   -4.8788   -0.9447 C   0  0  0  0  0  0  0  0  0  0  0  0
   -3.0930   -1.9379    1.3886 H   0  0  0  0  0  0  0  0  0  0  0  0
   -3.3365   -2.9773   -0.0281 H   0  0  0  0  0  0  0  0  0  0  0  0
   -2.0951   -1.6981   -0.0652 H   0  0  0  0  0  0  0  0  0  0  0  0
   -0.8246   -2.8476    1.7610 H   0  0  0  0  0  0  0  0  0  0  0  0
   -2.9553   -5.0693    1.5727 H   0  0  0  0  0  0  0  0  0  0  0  0
   -2.7075   -3.9402    2.9238 H   0  0  0  0  0  0  0  0  0  0  0  0
   -1.4602   -5.1510    2.5412 H   0  0  0  0  0  0  0  0  0  0  0  0
    1.1870   -3.5115    0.8691 H   0  0  0  0  0  0  0  0  0  0  0  0
    2.5274   -4.6559   -0.8776 H   0  0  0  0  0  0  0  0  0  0  0  0
    0.8567   -6.5791   -3.5753 H   0  0  0  0  0  0  0  0  0  0  0  0
    1.8390   -6.6148   -5.8858 H   0  0  0  0  0  0  0  0  0  0  0  0
    1.5298   -8.0060   -4.7794 H   0  0  0  0  0  0  0  0  0  0  0  0
    2.8642   -8.5088   -7.0706 H   0  0  0  0  0  0  0  0  0  0  0  0
    3.4545   -9.2075   -5.5441 H   0  0  0  0  0  0  0  0  0  0  0  0
    4.5066   -6.7363   -7.0085 H   0  0  0  0  0  0  0  0  0  0  0  0
    5.4552   -8.0272   -6.2526 H   0  0  0  0  0  0  0  0  0  0  0  0
    6.1286   -2.5424   -5.1337 H   0  0  0  0  0  0  0  0  0  0  0  0
    5.5939   -3.1412   -6.7116 H   0  0  0  0  0  0  0  0  0  0  0  0
    8.2638   -2.3787   -6.3081 H   0  0  0  0  0  0  0  0  0  0  0  0
    7.8995   -3.7713   -7.3560 H   0  0  0  0  0  0  0  0  0  0  0  0
    8.1373   -5.2029   -2.5898 H   0  0  0  0  0  0  0  0  0  0  0  0
    8.3122   -6.9424   -2.3061 H   0  0  0  0  0  0  0  0  0  0  0  0
    6.6879   -6.2278   -2.5226 H   0  0  0  0  0  0  0  0  0  0  0  0
   13.4210   -5.1287   -7.6275 H   0  0  0  0  0  0  0  0  0  0  0  0
   14.3136   -4.0640   -5.3745 H   0  0  0  0  0  0  0  0  0  0  0  0
   -1.1568   -6.0811   -2.7027 H   0  0  0  0  0  0  0  0  0  0  0  0
   -2.4672   -4.9355   -0.9712 H   0  0  0  0  0  0  0  0  0  0  0  0
  1  2  1  0
  1 39  1  0
  1 40  1  0
  1 41  1  0
  2  3  1  0
  2  4  1  0
  2 42  1  1
  3 43  1  0
  3 44  1  0
  3 45  1  0
  4  5  2  0
  4 38  1  0
  5  6  1  0
  5 46  1  0
  6  7  2  0
  6 47  1  0
  7  8  1  0
  7 37  1  0
  8  9  1  0
  8 48  1  0
  9 10  2  0
  9 11  1  0
 11 12  1  0
 11 15  1  0
 12 13  1  0
 12 49  1  0
 12 50  1  0
 13 14  1  0
 13 51  1  0
 13 52  1  0
 14 15  1  0
 14 53  1  0
 14 54  1  0
 15 16  1  1
 15 17  1  0
 17 18  2  0
 17 19  1  0
 19 20  1  0
 19 24  1  0
 20 21  1  0
 20 55  1  0
 20 56  1  0
 21 22  1  0
 21 57  1  0
 21 58  1  0
 22 23  1  1
 22 24  1  0
 22 31  1  0
 24 25  1  6
 24 26  1  0
 26 27  1  6
 26 28  1  0
 26 29  1  0
 28 59  1  0
 28 60  1  0
 28 61  1  0
 29 30  2  0
 29 31  1  0
 31 32  1  0
 32 33  2  0
 32 36  1  0
 33 34  1  0
 34 35  2  0
 34 62  1  0
 35 36  1  0
 35 63  1  0
 37 38  2  0
 37 64  1  0
 38 65  1  0
M  END

