
     RDKit          3D

 44 47  0  0  0  0  0  0  0  0999 V2000
    1.0081    0.2613   -0.0293 O   0  0  0  0  0  0  0  0  0  0  0  0
    2.4254    0.0643    0.0115 C   0  0  1  0  0  0  0  0  0  0  0  0
    2.9516    0.4185    1.3431 C   0  0  0  0  0  0  0  0  0  0  0  0
    3.3707    0.6927    2.4514 C   0  0  0  0  0  0  0  0  0  0  0  0
    3.8685    1.0308    3.7517 C   0  0  0  0  0  0  0  0  0  0  0  0
    3.8761    2.3706    4.1922 C   0  0  0  0  0  0  0  0  0  0  0  0
    4.3640    2.6884    5.4592 C   0  0  0  0  0  0  0  0  0  0  0  0
    4.8508    1.6914    6.3093 C   0  0  0  0  0  0  0  0  0  0  0  0
    4.8423    0.3636    5.8704 C   0  0  0  0  0  0  0  0  0  0  0  0
    5.4483   -0.8953    6.9224 Cl  0  0  0  0  0  0  0  0  0  0  0  0
    4.3588    0.0231    4.6073 C   0  0  0  0  0  0  0  0  0  0  0  0
    2.7721   -1.4069   -0.3316 C   0  0  0  0  0  0  0  0  0  0  0  0
    2.2859   -1.7873   -1.7340 C   0  0  0  0  0  0  0  0  0  0  0  0
    2.8407   -0.8401   -2.8051 C   0  0  0  0  0  0  0  0  0  0  0  0
    2.5094    0.6233   -2.4690 C   0  0  2  0  0  0  0  0  0  0  0  0
    1.4139    0.7284   -2.4598 H   0  0  0  0  0  0  0  0  0  0  0  0
    2.9785    1.5583   -3.4894 N   0  0  0  0  0  0  0  0  0  0  0  0
    2.1548    2.3550   -4.2592 C   0  0  0  0  0  0  0  0  0  0  0  0
    2.7796    3.1137   -5.1162 N   0  0  0  0  0  0  0  0  0  0  0  0
    4.1185    2.8251   -4.9272 C   0  0  0  0  0  0  0  0  0  0  0  0
    5.2460    3.3499   -5.5786 C   0  0  0  0  0  0  0  0  0  0  0  0
    6.5027    2.8884   -5.1976 C   0  0  0  0  0  0  0  0  0  0  0  0
    6.6457    1.9176   -4.1832 C   0  0  0  0  0  0  0  0  0  0  0  0
    5.5409    1.3813   -3.5226 C   0  0  0  0  0  0  0  0  0  0  0  0
    4.2733    1.8460   -3.9058 C   0  0  0  0  0  0  0  0  0  0  0  0
    3.0040    1.0093   -1.0638 C   0  0  0  0  0  0  0  0  0  0  0  0
    0.6153   -0.2279    0.7068 H   0  0  0  0  0  0  0  0  0  0  0  0
    3.4975    3.1524    3.5316 H   0  0  0  0  0  0  0  0  0  0  0  0
    4.3677    3.7284    5.7944 H   0  0  0  0  0  0  0  0  0  0  0  0
    5.2343    1.9333    7.3017 H   0  0  0  0  0  0  0  0  0  0  0  0
    4.3611   -1.0181    4.2839 H   0  0  0  0  0  0  0  0  0  0  0  0
    2.3223   -2.0642    0.4316 H   0  0  0  0  0  0  0  0  0  0  0  0
    3.8648   -1.5378   -0.2523 H   0  0  0  0  0  0  0  0  0  0  0  0
    1.1841   -1.7556   -1.7510 H   0  0  0  0  0  0  0  0  0  0  0  0
    2.5774   -2.8255   -1.9606 H   0  0  0  0  0  0  0  0  0  0  0  0
    2.4283   -1.0889   -3.7960 H   0  0  0  0  0  0  0  0  0  0  0  0
    3.9346   -0.9633   -2.8790 H   0  0  0  0  0  0  0  0  0  0  0  0
    1.0717    2.3167   -4.1227 H   0  0  0  0  0  0  0  0  0  0  0  0
    5.1204    4.1006   -6.3617 H   0  0  0  0  0  0  0  0  0  0  0  0
    7.3963    3.2810   -5.6890 H   0  0  0  0  0  0  0  0  0  0  0  0
    7.6466    1.5759   -3.9073 H   0  0  0  0  0  0  0  0  0  0  0  0
    5.6766    0.6313   -2.7422 H   0  0  0  0  0  0  0  0  0  0  0  0
    2.6964    2.0391   -0.8294 H   0  0  0  0  0  0  0  0  0  0  0  0
    4.1023    0.9712   -1.0139 H   0  0  0  0  0  0  0  0  0  0  0  0
  1  2  1  0
  1 27  1  0
  2  3  1  1
  2 12  1  0
  2 26  1  0
  3  4  3  0
  4  5  1  0
  5  6  2  0
  5 11  1  0
  6  7  1  0
  6 28  1  0
  7  8  2  0
  7 29  1  0
  8  9  1  0
  8 30  1  0
  9 10  1  0
  9 11  2  0
 11 31  1  0
 12 13  1  0
 12 32  1  0
 12 33  1  0
 13 14  1  0
 13 34  1  0
 13 35  1  0
 14 15  1  0
 14 36  1  0
 14 37  1  0
 15 16  1  1
 15 17  1  0
 15 26  1  0
 17 18  1  0
 17 25  1  0
 18 19  2  0
 18 38  1  0
 19 20  1  0
 20 21  1  0
 20 25  2  0
 21 22  2  0
 21 39  1  0
 22 23  1  0
 22 40  1  0
 23 24  2  0
 23 41  1  0
 24 25  1  0
 24 42  1  0
 26 43  1  0
 26 44  1  0
M  END

