
     RDKit          3D

 28 28  0  0  0  0  0  0  0  0999 V2000
    3.2484    1.3333   -0.1041 C   0  0  0  0  0  0  0  0  0  0  0  0
    2.5567   -0.0352   -0.0352 C   0  0  1  0  0  0  0  0  0  0  0  0
    1.2171   -0.0017    0.5590 N   0  0  0  0  0  0  0  0  0  0  0  0
    2.4652   -0.7813   -1.4079 C   0  0  1  0  0  0  0  0  0  0  0  0
    1.6566   -0.0228   -2.4683 C   0  0  0  0  0  0  0  0  0  0  0  0
    3.8398   -1.2070   -1.9491 C   0  0  0  0  0  0  0  0  0  0  0  0
    4.5827   -0.2757   -2.4633 O   0  0  0  0  0  0  0  0  0  0  0  0
    4.5914   -2.3312   -1.2386 C   0  0  0  0  0  0  0  0  0  0  0  0
    5.5735   -3.0771   -2.1203 C   0  0  1  0  0  0  0  0  0  0  0  0
    5.9102   -4.5171   -1.8141 C   0  0  0  0  0  0  0  0  0  0  0  0
    5.1010   -4.1727   -3.0390 C   0  0  0  0  0  0  0  0  0  0  0  0
    3.3540    1.7537    0.9100 H   0  0  0  0  0  0  0  0  0  0  0  0
    2.6567    2.0503   -0.6977 H   0  0  0  0  0  0  0  0  0  0  0  0
    4.2482    1.2679   -0.5586 H   0  0  0  0  0  0  0  0  0  0  0  0
    3.1606   -0.6853    0.6219 H   0  0  0  0  0  0  0  0  0  0  0  0
    0.6625    0.7472    0.1413 H   0  0  0  0  0  0  0  0  0  0  0  0
    1.2788    0.2185    1.5535 H   0  0  0  0  0  0  0  0  0  0  0  0
    1.9427   -1.7253   -1.1830 H   0  0  0  0  0  0  0  0  0  0  0  0
    2.1373    0.9244   -2.7546 H   0  0  0  0  0  0  0  0  0  0  0  0
    0.6425    0.1936   -2.0971 H   0  0  0  0  0  0  0  0  0  0  0  0
    1.5553   -0.6324   -3.3786 H   0  0  0  0  0  0  0  0  0  0  0  0
    3.8291   -3.0209   -0.8415 H   0  0  0  0  0  0  0  0  0  0  0  0
    5.1418   -1.9124   -0.3661 H   0  0  0  0  0  0  0  0  0  0  0  0
    6.3942   -2.4562   -2.4951 H   0  0  0  0  0  0  0  0  0  0  0  0
    5.3954   -4.9964   -0.9751 H   0  0  0  0  0  0  0  0  0  0  0  0
    6.9460   -4.8442   -1.9437 H   0  0  0  0  0  0  0  0  0  0  0  0
    4.0326   -4.4108   -3.0337 H   0  0  0  0  0  0  0  0  0  0  0  0
    5.5728   -4.2650   -4.0211 H   0  0  0  0  0  0  0  0  0  0  0  0
  1  2  1  0
  1 12  1  0
  1 13  1  0
  1 14  1  0
  2  3  1  0
  2  4  1  0
  2 15  1  1
  3 16  1  0
  3 17  1  0
  4  5  1  0
  4  6  1  0
  4 18  1  1
  5 19  1  0
  5 20  1  0
  5 21  1  0
  6  7  2  0
  6  8  1  0
  8  9  1  0
  8 22  1  0
  8 23  1  0
  9 10  1  0
  9 11  1  0
  9 24  1  6
 10 11  1  0
 10 25  1  0
 10 26  1  0
 11 27  1  0
 11 28  1  0
M  END

