
     RDKit          3D

 56 58  0  0  0  0  0  0  0  0999 V2000
    2.4940    0.8135    1.4720 C   0  0  0  0  0  0  0  0  0  0  0  0
    2.9594    0.1288    0.1771 C   0  0  1  0  0  0  0  0  0  0  0  0
    4.2777   -0.6293    0.4491 C   0  0  0  0  0  0  0  0  0  0  0  0
    1.8777   -0.8731   -0.2845 C   0  0  0  0  0  0  0  0  0  0  0  0
    3.2055    1.1266   -0.9652 C   0  0  0  0  0  0  0  0  0  0  0  0
    3.0228    2.4973   -0.8327 C   0  0  0  0  0  0  0  0  0  0  0  0
    3.2826    3.3106   -1.9690 C   0  0  0  0  0  0  0  0  0  0  0  0
    3.1229    4.6777   -1.9666 N   0  0  0  0  0  0  0  0  0  0  0  0
    3.5040    5.4910   -3.1173 C   0  0  0  0  0  0  0  0  0  0  0  0
    2.3699    6.4416   -3.5260 C   0  0  0  0  0  0  0  0  0  0  0  0
    1.8036    7.2782   -2.3663 C   0  0  2  0  0  0  0  0  0  0  0  0
    2.6775    8.3998   -1.9765 N   0  0  0  0  0  0  0  0  0  0  0  0
    2.3696    9.3268   -0.9968 C   0  0  0  0  0  0  0  0  0  0  0  0
    3.3993   10.2402   -1.0013 C   0  0  0  0  0  0  0  0  0  0  0  0
    4.3265    9.9082   -1.9535 N   0  0  0  0  0  0  0  0  0  0  0  0
    3.8686    8.8151   -2.5204 C   0  0  0  0  0  0  0  0  0  0  0  0
    1.5065    6.3511   -1.1711 C   0  0  0  0  0  0  0  0  0  0  0  0
    2.6989    5.4566   -0.8129 C   0  0  0  0  0  0  0  0  0  0  0  0
    3.6967    2.7415   -3.1096 N   0  0  0  0  0  0  0  0  0  0  0  0
    3.8460    1.4125   -3.1478 C   0  0  0  0  0  0  0  0  0  0  0  0
    4.3182    0.8207   -4.4857 C   0  0  1  0  0  0  0  0  0  0  0  0
    5.6859    1.4415   -4.8450 C   0  0  0  0  0  0  0  0  0  0  0  0
    4.4554   -0.7068   -4.4022 C   0  0  0  0  0  0  0  0  0  0  0  0
    3.2865    1.1842   -5.5763 C   0  0  0  0  0  0  0  0  0  0  0  0
    3.6177    0.5870   -2.1308 N   0  0  0  0  0  0  0  0  0  0  0  0
    2.3302    0.0573    2.2558 H   0  0  0  0  0  0  0  0  0  0  0  0
    1.5434    1.3535    1.3344 H   0  0  0  0  0  0  0  0  0  0  0  0
    3.2427    1.5253    1.8549 H   0  0  0  0  0  0  0  0  0  0  0  0
    4.1249   -1.3973    1.2249 H   0  0  0  0  0  0  0  0  0  0  0  0
    5.0649    0.0575    0.8009 H   0  0  0  0  0  0  0  0  0  0  0  0
    4.6373   -1.1200   -0.4659 H   0  0  0  0  0  0  0  0  0  0  0  0
    1.7116   -1.6409    0.4887 H   0  0  0  0  0  0  0  0  0  0  0  0
    2.1840   -1.3706   -1.2151 H   0  0  0  0  0  0  0  0  0  0  0  0
    0.9178   -0.3635   -0.4693 H   0  0  0  0  0  0  0  0  0  0  0  0
    2.6986    2.9197    0.1128 H   0  0  0  0  0  0  0  0  0  0  0  0
    3.7507    4.8138   -3.9415 H   0  0  0  0  0  0  0  0  0  0  0  0
    4.4200    6.0586   -2.8682 H   0  0  0  0  0  0  0  0  0  0  0  0
    1.5360    5.8365   -3.9172 H   0  0  0  0  0  0  0  0  0  0  0  0
    2.6963    7.0907   -4.3536 H   0  0  0  0  0  0  0  0  0  0  0  0
    0.8537    7.7286   -2.7004 H   0  0  0  0  0  0  0  0  0  0  0  0
    1.4576    9.2665   -0.4083 H   0  0  0  0  0  0  0  0  0  0  0  0
    3.5138   11.1191   -0.3670 H   0  0  0  0  0  0  0  0  0  0  0  0
    4.3597    8.2832   -3.3322 H   0  0  0  0  0  0  0  0  0  0  0  0
    0.6504    5.7117   -1.4432 H   0  0  0  0  0  0  0  0  0  0  0  0
    1.2035    6.9386   -0.2910 H   0  0  0  0  0  0  0  0  0  0  0  0
    2.4203    4.7971    0.0152 H   0  0  0  0  0  0  0  0  0  0  0  0
    3.5400    6.0814   -0.4541 H   0  0  0  0  0  0  0  0  0  0  0  0
    6.4465    1.1888   -4.0884 H   0  0  0  0  0  0  0  0  0  0  0  0
    5.6189    2.5372   -4.9075 H   0  0  0  0  0  0  0  0  0  0  0  0
    6.0367    1.0577   -5.8170 H   0  0  0  0  0  0  0  0  0  0  0  0
    5.1844   -1.0042   -3.6345 H   0  0  0  0  0  0  0  0  0  0  0  0
    4.7915   -1.1041   -5.3738 H   0  0  0  0  0  0  0  0  0  0  0  0
    3.4986   -1.1832   -4.1445 H   0  0  0  0  0  0  0  0  0  0  0  0
    3.1665    2.2740   -5.6596 H   0  0  0  0  0  0  0  0  0  0  0  0
    2.3001    0.7478   -5.3491 H   0  0  0  0  0  0  0  0  0  0  0  0
    3.6112    0.7930   -6.5544 H   0  0  0  0  0  0  0  0  0  0  0  0
  2  1  1  1
  1 26  1  0
  1 27  1  0
  1 28  1  0
  2  3  1  0
  2  4  1  0
  2  5  1  0
  3 29  1  0
  3 30  1  0
  3 31  1  0
  4 32  1  0
  4 33  1  0
  4 34  1  0
  5  6  2  0
  5 25  1  0
  6  7  1  0
  6 35  1  0
  7  8  1  0
  7 19  2  0
  8  9  1  0
  8 18  1  0
  9 10  1  0
  9 36  1  0
  9 37  1  0
 10 11  1  0
 10 38  1  0
 10 39  1  0
 11 12  1  0
 11 17  1  0
 11 40  1  6
 12 13  1  0
 12 16  1  0
 13 14  2  0
 13 41  1  0
 14 15  1  0
 14 42  1  0
 15 16  2  0
 16 43  1  0
 17 18  1  0
 17 44  1  0
 17 45  1  0
 18 46  1  0
 18 47  1  0
 19 20  1  0
 20 21  1  0
 20 25  2  0
 21 22  1  6
 21 23  1  0
 21 24  1  0
 22 48  1  0
 22 49  1  0
 22 50  1  0
 23 51  1  0
 23 52  1  0
 23 53  1  0
 24 54  1  0
 24 55  1  0
 24 56  1  0
M  END

