
     RDKit          3D

 55 58  0  0  0  0  0  0  0  0999 V2000
    4.2865    3.4875   -2.4824 C   0  0  0  0  0  0  0  0  0  0  0  0
    5.3143    2.7026   -1.6885 C   0  0  0  0  0  0  0  0  0  0  0  0
    6.5021    2.8199   -1.9187 O   0  0  0  0  0  0  0  0  0  0  0  0
    4.8337    1.7748   -0.6041 C   0  0  0  0  0  0  0  0  0  0  0  0
    3.4760    1.5958   -0.2908 C   0  0  0  0  0  0  0  0  0  0  0  0
    3.1128    0.7164    0.7318 C   0  0  0  0  0  0  0  0  0  0  0  0
    4.0757    0.0082    1.4524 C   0  0  0  0  0  0  0  0  0  0  0  0
    5.4388    0.1835    1.1417 C   0  0  0  0  0  0  0  0  0  0  0  0
    6.4637   -0.4934    1.8205 N   0  0  0  0  0  0  0  0  0  0  0  0
    6.3838   -1.3783    2.8446 C   0  0  0  0  0  0  0  0  0  0  0  0
    5.3769   -1.7825    3.4079 O   0  0  0  0  0  0  0  0  0  0  0  0
    7.7973   -1.8557    3.2599 C   0  0  0  0  0  0  0  0  0  0  0  0
    8.7974   -1.4445    2.6835 O   0  0  0  0  0  0  0  0  0  0  0  0
    7.7546   -2.7327    4.2776 N   0  0  0  0  0  0  0  0  0  0  0  0
    8.9334   -3.3240    4.9056 C   0  0  1  0  0  0  0  0  0  0  0  0
    8.9860   -2.8908    6.3772 C   0  0  0  0  0  0  0  0  0  0  0  0
    9.0166   -4.8629    4.6526 C   0  0  2  0  0  0  0  0  0  0  0  0
    8.9604   -5.1445    3.1281 C   0  0  0  0  0  0  0  0  0  0  0  0
    9.0847   -6.6518    2.8372 C   0  0  1  0  0  0  0  0  0  0  0  0
   10.4280   -7.1721    3.3804 C   0  0  0  0  0  0  0  0  0  0  0  0
   10.4897   -6.9264    4.8991 C   0  0  2  0  0  0  0  0  0  0  0  0
    9.3325   -7.6736    5.5901 C   0  0  0  0  0  0  0  0  0  0  0  0
    7.9878   -7.1557    5.0435 C   0  0  2  0  0  0  0  0  0  0  0  0
    7.9257   -7.3995    3.5237 C   0  0  0  0  0  0  0  0  0  0  0  0
    7.8649   -5.6453    5.3324 C   0  0  0  0  0  0  0  0  0  0  0  0
   10.3627   -5.4174    5.1868 C   0  0  0  0  0  0  0  0  0  0  0  0
    5.8035    1.0654    0.1162 C   0  0  0  0  0  0  0  0  0  0  0  0
    4.8103    4.1097   -3.2190 H   0  0  0  0  0  0  0  0  0  0  0  0
    3.6838    4.1309   -1.8213 H   0  0  0  0  0  0  0  0  0  0  0  0
    3.5896    2.8112   -3.0033 H   0  0  0  0  0  0  0  0  0  0  0  0
    2.7010    2.1357   -0.8369 H   0  0  0  0  0  0  0  0  0  0  0  0
    2.0572    0.5760    0.9771 H   0  0  0  0  0  0  0  0  0  0  0  0
    3.7937   -0.6765    2.2499 H   0  0  0  0  0  0  0  0  0  0  0  0
    7.4276   -0.3217    1.5301 H   0  0  0  0  0  0  0  0  0  0  0  0
    6.8224   -2.9296    4.6361 H   0  0  0  0  0  0  0  0  0  0  0  0
    9.7873   -2.8695    4.3791 H   0  0  0  0  0  0  0  0  0  0  0  0
    8.1111   -3.2505    6.9422 H   0  0  0  0  0  0  0  0  0  0  0  0
    8.9965   -1.7924    6.4411 H   0  0  0  0  0  0  0  0  0  0  0  0
    9.8897   -3.2641    6.8791 H   0  0  0  0  0  0  0  0  0  0  0  0
    9.7673   -4.5883    2.6204 H   0  0  0  0  0  0  0  0  0  0  0  0
    8.0104   -4.7686    2.7153 H   0  0  0  0  0  0  0  0  0  0  0  0
    9.0365   -6.8137    1.7469 H   0  0  0  0  0  0  0  0  0  0  0  0
   11.2658   -6.6586    2.8775 H   0  0  0  0  0  0  0  0  0  0  0  0
   10.5377   -8.2490    3.1638 H   0  0  0  0  0  0  0  0  0  0  0  0
   11.4538   -7.2881    5.2958 H   0  0  0  0  0  0  0  0  0  0  0  0
    9.3822   -7.5241    6.6830 H   0  0  0  0  0  0  0  0  0  0  0  0
    9.4212   -8.7594    5.4134 H   0  0  0  0  0  0  0  0  0  0  0  0
    7.1570   -7.6864    5.5392 H   0  0  0  0  0  0  0  0  0  0  0  0
    6.9582   -7.0515    3.1217 H   0  0  0  0  0  0  0  0  0  0  0  0
    7.9883   -8.4806    3.3098 H   0  0  0  0  0  0  0  0  0  0  0  0
    7.8813   -5.4805    6.4230 H   0  0  0  0  0  0  0  0  0  0  0  0
    6.8890   -5.2790    4.9674 H   0  0  0  0  0  0  0  0  0  0  0  0
   11.1994   -4.8695    4.7179 H   0  0  0  0  0  0  0  0  0  0  0  0
   10.4423   -5.2513    6.2735 H   0  0  0  0  0  0  0  0  0  0  0  0
    6.8525    1.2221   -0.1471 H   0  0  0  0  0  0  0  0  0  0  0  0
  1  2  1  0
  1 28  1  0
  1 29  1  0
  1 30  1  0
  2  3  2  0
  2  4  1  0
  4  5  2  0
  4 27  1  0
  5  6  1  0
  5 31  1  0
  6  7  2  0
  6 32  1  0
  7  8  1  0
  7 33  1  0
  8  9  1  0
  8 27  2  0
  9 10  1  0
  9 34  1  0
 10 11  2  0
 10 12  1  0
 12 13  2  0
 12 14  1  0
 14 15  1  0
 14 35  1  0
 15 16  1  0
 15 17  1  0
 15 36  1  6
 16 37  1  0
 16 38  1  0
 16 39  1  0
 17 18  1  6
 17 25  1  0
 17 26  1  0
 18 19  1  0
 18 40  1  0
 18 41  1  0
 19 20  1  0
 19 24  1  0
 19 42  1  6
 20 21  1  0
 20 43  1  0
 20 44  1  0
 21 22  1  0
 21 26  1  0
 21 45  1  1
 22 23  1  0
 22 46  1  0
 22 47  1  0
 23 24  1  0
 23 25  1  0
 23 48  1  1
 24 49  1  0
 24 50  1  0
 25 51  1  0
 25 52  1  0
 26 53  1  0
 26 54  1  0
 27 55  1  0
M  END

