
     RDKit          3D

 30 30  0  0  0  0  0  0  0  0999 V2000
    1.1861   -0.5067    0.6276 C   0  0  0  0  0  0  0  0  0  0  0  0
    2.4453    0.0244    0.2722 O   0  0  0  0  0  0  0  0  0  0  0  0
    2.6663    0.1561   -1.1222 C   0  0  1  0  0  0  0  0  0  0  0  0
    1.8567    1.3274   -1.7289 C   0  0  0  0  0  0  0  0  0  0  0  0
    1.0404    1.0978   -2.5960 O   0  0  0  0  0  0  0  0  0  0  0  0
    2.1130    2.7357   -1.2575 C   0  0  0  0  0  0  0  0  0  0  0  0
    2.5099    3.0210    0.0638 C   0  0  0  0  0  0  0  0  0  0  0  0
    2.6862    4.3392    0.4833 C   0  0  0  0  0  0  0  0  0  0  0  0
    3.2000    4.6919    2.2858 Br  0  0  0  0  0  0  0  0  0  0  0  0
    2.4916    5.4058   -0.3990 C   0  0  0  0  0  0  0  0  0  0  0  0
    2.1186    5.1399   -1.7166 C   0  0  0  0  0  0  0  0  0  0  0  0
    1.9288    3.8238   -2.1323 C   0  0  0  0  0  0  0  0  0  0  0  0
    1.6067    3.6171   -3.4091 F   0  0  0  0  0  0  0  0  0  0  0  0
    4.1808    0.2705   -1.3802 C   0  0  1  0  0  0  0  0  0  0  0  0
    4.9103   -0.9635   -0.8367 C   0  0  0  0  0  0  0  0  0  0  0  0
    4.4731    0.4871   -2.8709 C   0  0  0  0  0  0  0  0  0  0  0  0
    1.1659   -0.5935    1.7233 H   0  0  0  0  0  0  0  0  0  0  0  0
    1.0322   -1.5096    0.1859 H   0  0  0  0  0  0  0  0  0  0  0  0
    0.3477    0.1406    0.3080 H   0  0  0  0  0  0  0  0  0  0  0  0
    2.2796   -0.7386   -1.6490 H   0  0  0  0  0  0  0  0  0  0  0  0
    2.6626    2.1936    0.7553 H   0  0  0  0  0  0  0  0  0  0  0  0
    2.6347    6.4342   -0.0637 H   0  0  0  0  0  0  0  0  0  0  0  0
    1.9722    5.9453   -2.4389 H   0  0  0  0  0  0  0  0  0  0  0  0
    4.5393    1.1534   -0.8220 H   0  0  0  0  0  0  0  0  0  0  0  0
    4.6058   -1.8730   -1.3827 H   0  0  0  0  0  0  0  0  0  0  0  0
    4.6893   -1.1153    0.2289 H   0  0  0  0  0  0  0  0  0  0  0  0
    6.0002   -0.8532   -0.9528 H   0  0  0  0  0  0  0  0  0  0  0  0
    4.0951   -0.3540   -3.4760 H   0  0  0  0  0  0  0  0  0  0  0  0
    5.5583    0.5606   -3.0421 H   0  0  0  0  0  0  0  0  0  0  0  0
    4.0132    1.4076   -3.2632 H   0  0  0  0  0  0  0  0  0  0  0  0
  1  2  1  0
  1 17  1  0
  1 18  1  0
  1 19  1  0
  2  3  1  0
  3  4  1  0
  3 14  1  0
  3 20  1  6
  4  5  2  0
  4  6  1  0
  6  7  2  0
  6 12  1  0
  7  8  1  0
  7 21  1  0
  8  9  1  0
  8 10  2  0
 10 11  1  0
 10 22  1  0
 11 12  2  0
 11 23  1  0
 12 13  1  0
 14 15  1  0
 14 16  1  0
 14 24  1  1
 15 25  1  0
 15 26  1  0
 15 27  1  0
 16 28  1  0
 16 29  1  0
 16 30  1  0
M  END

