
     RDKit          3D

 46 48  0  0  0  0  0  0  0  0999 V2000
    0.8270   -0.0199    0.0779 C   0  0  0  0  0  0  0  0  0  0  0  0
    2.3550   -0.0502    0.0166 C   0  0  1  0  0  0  0  0  0  0  0  0
    2.9828    0.2194    1.3878 C   0  0  0  0  0  0  0  0  0  0  0  0
    2.9180   -1.3612   -0.5868 C   0  0  0  0  0  0  0  0  0  0  0  0
    2.5052   -1.6283   -1.9590 N   0  0  0  0  0  0  0  0  0  0  0  0
    1.5481   -2.6118   -2.1766 C   0  0  0  0  0  0  0  0  0  0  0  0
    0.9637   -3.1601   -1.2499 O   0  0  0  0  0  0  0  0  0  0  0  0
    1.2808   -2.9256   -3.4950 N   0  0  0  0  0  0  0  0  0  0  0  0
    0.3165   -3.9592   -3.8173 C   0  0  0  0  0  0  0  0  0  0  0  0
    0.9355   -5.3326   -4.0666 C   0  0  2  0  0  0  0  0  0  0  0  0
    1.6380   -5.9635   -2.8691 C   0  0  0  0  0  0  0  0  0  0  0  0
    2.1596   -7.2369   -3.2235 O   0  0  0  0  0  0  0  0  0  0  0  0
    2.8341   -7.2715   -4.4091 C   0  0  0  0  0  0  0  0  0  0  0  0
    3.6669   -8.3610   -4.6859 C   0  0  0  0  0  0  0  0  0  0  0  0
    4.3720   -8.4211   -5.8891 C   0  0  0  0  0  0  0  0  0  0  0  0
    4.2533   -7.3860   -6.8242 C   0  0  0  0  0  0  0  0  0  0  0  0
    3.4152   -6.3010   -6.5598 C   0  0  0  0  0  0  0  0  0  0  0  0
    2.7006   -6.2403   -5.3599 C   0  0  0  0  0  0  0  0  0  0  0  0
    1.8734   -5.1702   -5.1342 O   0  0  0  0  0  0  0  0  0  0  0  0
    3.0130   -0.7032   -2.9630 C   0  0  0  0  0  0  0  0  0  0  0  0
    2.4889    0.7214   -2.7451 C   0  0  0  0  0  0  0  0  0  0  0  0
    2.9462    1.3291   -1.0894 S   0  0  1  0  0  0  0  0  0  0  0  0
    2.1890    2.5589   -0.8108 O   0  0  0  0  0  0  0  0  0  0  0  0
    4.4220    1.3303   -1.0458 O   0  0  0  0  0  0  0  0  0  0  0  0
    0.4781   -0.7909    0.7819 H   0  0  0  0  0  0  0  0  0  0  0  0
    0.3635   -0.2424   -0.8936 H   0  0  0  0  0  0  0  0  0  0  0  0
    0.4744    0.9642    0.4169 H   0  0  0  0  0  0  0  0  0  0  0  0
    2.6891   -0.5815    2.0852 H   0  0  0  0  0  0  0  0  0  0  0  0
    2.6288    1.1777    1.7962 H   0  0  0  0  0  0  0  0  0  0  0  0
    4.0798    0.2533    1.3274 H   0  0  0  0  0  0  0  0  0  0  0  0
    2.5730   -2.1990    0.0333 H   0  0  0  0  0  0  0  0  0  0  0  0
    4.0192   -1.3196   -0.5476 H   0  0  0  0  0  0  0  0  0  0  0  0
    2.0048   -2.7866   -4.1897 H   0  0  0  0  0  0  0  0  0  0  0  0
   -0.2291   -3.6662   -4.7291 H   0  0  0  0  0  0  0  0  0  0  0  0
   -0.4021   -4.0240   -2.9898 H   0  0  0  0  0  0  0  0  0  0  0  0
    0.1342   -6.0225   -4.3965 H   0  0  0  0  0  0  0  0  0  0  0  0
    0.9391   -6.1187   -2.0368 H   0  0  0  0  0  0  0  0  0  0  0  0
    2.4533   -5.3074   -2.5167 H   0  0  0  0  0  0  0  0  0  0  0  0
    3.7478   -9.1481   -3.9331 H   0  0  0  0  0  0  0  0  0  0  0  0
    5.0204   -9.2762   -6.0934 H   0  0  0  0  0  0  0  0  0  0  0  0
    4.8071   -7.4257   -7.7649 H   0  0  0  0  0  0  0  0  0  0  0  0
    3.2896   -5.4863   -7.2766 H   0  0  0  0  0  0  0  0  0  0  0  0
    2.7223   -1.0244   -3.9704 H   0  0  0  0  0  0  0  0  0  0  0  0
    4.1157   -0.6834   -2.9262 H   0  0  0  0  0  0  0  0  0  0  0  0
    1.3956    0.7875   -2.8354 H   0  0  0  0  0  0  0  0  0  0  0  0
    2.9568    1.4457   -3.4292 H   0  0  0  0  0  0  0  0  0  0  0  0
  2  1  1  1
  1 25  1  0
  1 26  1  0
  1 27  1  0
  2  3  1  0
  2  4  1  0
  2 22  1  0
  3 28  1  0
  3 29  1  0
  3 30  1  0
  4  5  1  0
  4 31  1  0
  4 32  1  0
  5  6  1  0
  5 20  1  0
  6  7  2  0
  6  8  1  0
  8  9  1  0
  8 33  1  0
  9 10  1  0
  9 34  1  0
  9 35  1  0
 10 11  1  0
 10 19  1  0
 10 36  1  6
 11 12  1  0
 11 37  1  0
 11 38  1  0
 12 13  1  0
 13 14  2  0
 13 18  1  0
 14 15  1  0
 14 39  1  0
 15 16  2  0
 15 40  1  0
 16 17  1  0
 16 41  1  0
 17 18  2  0
 17 42  1  0
 18 19  1  0
 20 21  1  0
 20 43  1  0
 20 44  1  0
 22 21  1  6
 21 45  1  0
 21 46  1  0
 22 23  2  0
 22 24  2  0
M  END

