
     RDKit          3D

 17 17  0  0  0  0  0  0  0  0999 V2000
    1.1112   -0.1909   -0.0708 N   0  0  0  0  0  0  0  0  0  0  0  0
    2.5119    0.1083    0.1272 C   0  0  1  0  0  0  0  0  0  0  0  0
    2.9703    0.2386   -0.8675 H   0  0  0  0  0  0  0  0  0  0  0  0
    3.1325    1.1635    1.0910 C   0  0  0  0  0  0  0  0  0  0  0  0
    4.2831    0.1455    1.3415 C   0  0  0  0  0  0  0  0  0  0  0  0
    3.3158   -0.9698    0.8858 C   0  0  2  0  0  0  0  0  0  0  0  0
    3.6658   -2.1664    0.0419 C   0  0  0  0  0  0  0  0  0  0  0  0
    4.4972   -3.0412    0.5975 O   0  0  0  0  0  0  0  0  0  0  0  0
    2.5984   -2.7407   -0.5835 O   0  0  0  0  0  0  0  0  0  0  0  0
    0.6485    0.4741   -0.6904 H   0  0  0  0  0  0  0  0  0  0  0  0
    0.5968   -0.2083    0.8107 H   0  0  0  0  0  0  0  0  0  0  0  0
    2.5115    1.2992    1.9914 H   0  0  0  0  0  0  0  0  0  0  0  0
    3.3864    2.1509    0.6752 H   0  0  0  0  0  0  0  0  0  0  0  0
    4.6952    0.0720    2.3570 H   0  0  0  0  0  0  0  0  0  0  0  0
    5.1066    0.2789    0.6233 H   0  0  0  0  0  0  0  0  0  0  0  0
    2.7220   -1.3114    1.7665 H   0  0  0  0  0  0  0  0  0  0  0  0
    1.8898   -2.0620   -0.6332 H   0  0  0  0  0  0  0  0  0  0  0  0
  1  2  1  0
  1 10  1  0
  1 11  1  0
  2  3  1  6
  2  4  1  0
  2  6  1  0
  4  5  1  0
  4 12  1  0
  4 13  1  0
  5  6  1  0
  5 14  1  0
  5 15  1  0
  6  7  1  0
  6 16  1  1
  7  8  2  0
  7  9  1  0
  9 17  1  0
M  END

