
     RDKit          3D

 67 70  0  0  0  0  0  0  0  0999 V2000
   10.8141    0.1208   -1.8911 C   0  0  0  0  0  0  0  0  0  0  0  0
   10.3582   -1.2408   -1.6880 N   0  0  0  0  0  0  0  0  0  0  0  0
   10.3966   -2.2632   -2.5948 C   0  0  0  0  0  0  0  0  0  0  0  0
    9.9155   -3.3801   -2.0997 N   0  0  0  0  0  0  0  0  0  0  0  0
    9.5384   -3.0886   -0.8092 C   0  0  0  0  0  0  0  0  0  0  0  0
    8.9080   -4.1063    0.0843 C   0  0  0  0  0  0  0  0  0  0  0  0
    7.5104   -4.1732   -0.1502 O   0  0  0  0  0  0  0  0  0  0  0  0
    6.8753   -5.2083    0.5598 C   0  0  0  0  0  0  0  0  0  0  0  0
    5.3820   -5.2101    0.1939 C   0  0  1  0  0  0  0  0  0  0  0  0
    4.9908   -4.2231    0.4742 H   0  0  0  0  0  0  0  0  0  0  0  0
    5.1114   -5.3110   -1.3139 C   0  0  0  0  0  0  0  0  0  0  0  0
    5.2369   -6.6810   -1.8202 N   0  0  0  0  0  0  0  0  0  0  0  0
    5.0620   -6.8141   -3.5485 S   0  0  1  0  0  0  0  0  0  0  0  0
    4.9277   -8.2477   -3.8040 O   0  0  0  0  0  0  0  0  0  0  0  0
    4.0032   -5.8964   -3.9864 O   0  0  0  0  0  0  0  0  0  0  0  0
    6.6246   -6.1832   -4.1032 C   0  0  0  0  0  0  0  0  0  0  0  0
    6.6074   -5.4474   -5.3193 C   0  0  0  0  0  0  0  0  0  0  0  0
    7.8255   -5.1454   -5.9643 C   0  0  0  0  0  0  0  0  0  0  0  0
    9.0254   -5.4939   -5.3993 C   0  0  0  0  0  0  0  0  0  0  0  0
    9.1135   -6.1003   -4.0367 C   0  0  0  0  0  0  0  0  0  0  0  0
    7.7930   -6.5794   -3.4684 C   0  0  0  0  0  0  0  0  0  0  0  0
    7.8878   -7.5313   -2.0428 S   0  0  0  0  0  0  0  0  0  0  0  0
    4.4363   -7.6492   -1.0703 C   0  0  0  0  0  0  0  0  0  0  0  0
    4.7866   -7.5925    0.4134 C   0  0  0  0  0  0  0  0  0  0  0  0
    4.6536   -6.2411    0.9389 N   0  0  0  0  0  0  0  0  0  0  0  0
    4.3532   -6.0431    2.2929 C   0  0  0  0  0  0  0  0  0  0  0  0
    4.0282   -4.7603    2.7927 C   0  0  0  0  0  0  0  0  0  0  0  0
    3.6912   -4.5655    4.1288 C   0  0  0  0  0  0  0  0  0  0  0  0
    3.6547   -5.6311    5.0415 C   0  0  0  0  0  0  0  0  0  0  0  0
    3.3152   -5.4485    6.5231 C   0  0  1  0  0  0  0  0  0  0  0  0
    2.3271   -4.3034    6.7892 C   0  0  0  0  0  0  0  0  0  0  0  0
    2.8208   -6.6535    7.0859 O   0  0  0  0  0  0  0  0  0  0  0  0
    4.6147   -5.1824    7.3213 C   0  0  1  0  0  0  0  0  0  0  0  0
    5.2010   -4.0462    6.8958 F   0  0  0  0  0  0  0  0  0  0  0  0
    4.3702   -5.0370    8.6323 F   0  0  0  0  0  0  0  0  0  0  0  0
    5.5022   -6.1730    7.1827 F   0  0  0  0  0  0  0  0  0  0  0  0
    3.9924   -6.9014    4.5559 C   0  0  0  0  0  0  0  0  0  0  0  0
    4.3339   -7.1091    3.2201 C   0  0  0  0  0  0  0  0  0  0  0  0
    9.8082   -1.7622   -0.5383 C   0  0  0  0  0  0  0  0  0  0  0  0
   11.2042    0.2213   -2.9129 H   0  0  0  0  0  0  0  0  0  0  0  0
   11.6182    0.3767   -1.1835 H   0  0  0  0  0  0  0  0  0  0  0  0
    9.9870    0.8361   -1.7613 H   0  0  0  0  0  0  0  0  0  0  0  0
   10.7932   -2.1249   -3.6014 H   0  0  0  0  0  0  0  0  0  0  0  0
    9.1008   -3.8486    1.1454 H   0  0  0  0  0  0  0  0  0  0  0  0
    9.3697   -5.0926   -0.1099 H   0  0  0  0  0  0  0  0  0  0  0  0
    6.9660   -5.0512    1.6544 H   0  0  0  0  0  0  0  0  0  0  0  0
    7.3385   -6.1809    0.3153 H   0  0  0  0  0  0  0  0  0  0  0  0
    5.8267   -4.6629   -1.8377 H   0  0  0  0  0  0  0  0  0  0  0  0
    4.0902   -4.9446   -1.5237 H   0  0  0  0  0  0  0  0  0  0  0  0
    5.6481   -5.1762   -5.7597 H   0  0  0  0  0  0  0  0  0  0  0  0
    7.8005   -4.6466   -6.9366 H   0  0  0  0  0  0  0  0  0  0  0  0
    9.9649   -5.2875   -5.9185 H   0  0  0  0  0  0  0  0  0  0  0  0
    9.5027   -5.3313   -3.3250 H   0  0  0  0  0  0  0  0  0  0  0  0
    9.8605   -6.9177   -3.9931 H   0  0  0  0  0  0  0  0  0  0  0  0
    4.6304   -8.6514   -1.4721 H   0  0  0  0  0  0  0  0  0  0  0  0
    3.3590   -7.4256   -1.1984 H   0  0  0  0  0  0  0  0  0  0  0  0
    5.8005   -8.0128    0.5686 H   0  0  0  0  0  0  0  0  0  0  0  0
    4.0780   -8.2486    0.9363 H   0  0  0  0  0  0  0  0  0  0  0  0
    4.0142   -3.8976    2.1264 H   0  0  0  0  0  0  0  0  0  0  0  0
    3.4473   -3.5522    4.4524 H   0  0  0  0  0  0  0  0  0  0  0  0
    1.4131   -4.4586    6.1962 H   0  0  0  0  0  0  0  0  0  0  0  0
    2.7444   -3.3209    6.5301 H   0  0  0  0  0  0  0  0  0  0  0  0
    2.0640   -4.2995    7.8556 H   0  0  0  0  0  0  0  0  0  0  0  0
    2.0465   -6.9180    6.5713 H   0  0  0  0  0  0  0  0  0  0  0  0
    4.0039   -7.7468    5.2459 H   0  0  0  0  0  0  0  0  0  0  0  0
    4.6130   -8.1163    2.9119 H   0  0  0  0  0  0  0  0  0  0  0  0
    9.6555   -1.1603    0.3547 H   0  0  0  0  0  0  0  0  0  0  0  0
  1  2  1  0
  1 40  1  0
  1 41  1  0
  1 42  1  0
  2  3  1  0
  2 39  1  0
  3  4  2  0
  3 43  1  0
  4  5  1  0
  5  6  1  0
  5 39  2  0
  6  7  1  0
  6 44  1  0
  6 45  1  0
  7  8  1  0
  8  9  1  0
  8 46  1  0
  8 47  1  0
  9 10  1  1
  9 11  1  0
  9 25  1  0
 11 12  1  0
 11 48  1  0
 11 49  1  0
 12 13  1  0
 12 23  1  0
 13 14  2  0
 13 15  2  0
 13 16  1  6
 16 17  2  0
 16 21  1  0
 17 18  1  0
 17 50  1  0
 18 19  2  0
 18 51  1  0
 19 20  1  0
 19 52  1  0
 20 21  1  0
 20 53  1  0
 20 54  1  0
 21 22  2  0
 23 24  1  0
 23 55  1  0
 23 56  1  0
 24 25  1  0
 24 57  1  0
 24 58  1  0
 25 26  1  0
 26 27  2  0
 26 38  1  0
 27 28  1  0
 27 59  1  0
 28 29  2  0
 28 60  1  0
 29 30  1  0
 29 37  1  0
 30 31  1  0
 30 32  1  1
 30 33  1  0
 31 61  1  0
 31 62  1  0
 31 63  1  0
 32 64  1  0
 33 34  1  6
 33 35  1  0
 33 36  1  0
 37 38  2  0
 37 65  1  0
 38 66  1  0
 39 67  1  0
M  END

