
     RDKit          3D

 82 84  0  0  0  0  0  0  0  0999 V2000
    2.8353    2.0856   -0.6281 C   0  0  0  0  0  0  0  0  0  0  0  0
    3.1876    2.0670    0.8542 C   0  0  1  0  0  0  0  0  0  0  0  0
    2.0033    2.3312    1.7704 C   0  0  0  0  0  0  0  0  0  0  0  0
    3.6983    0.7574    1.2171 O   0  0  0  0  0  0  0  0  0  0  0  0
    5.0124    0.5223    1.0238 C   0  0  0  0  0  0  0  0  0  0  0  0
    5.8062    1.3234    0.5832 O   0  0  0  0  0  0  0  0  0  0  0  0
    5.2909   -0.7697    1.4124 N   0  0  0  0  0  0  0  0  0  0  0  0
    6.5252   -1.4292    1.4019 C   0  0  0  0  0  0  0  0  0  0  0  0
    7.7251   -0.8375    0.9759 C   0  0  0  0  0  0  0  0  0  0  0  0
    8.9063   -1.5768    1.0151 C   0  0  0  0  0  0  0  0  0  0  0  0
    8.9679   -2.9090    1.4637 C   0  0  0  0  0  0  0  0  0  0  0  0
   10.2983   -3.5557    1.5222 C   0  0  0  0  0  0  0  0  0  0  0  0
   11.3686   -3.1497    2.2810 C   0  0  0  0  0  0  0  0  0  0  0  0
   12.5439   -3.8260    2.0999 N   0  0  0  0  0  0  0  0  0  0  0  0
   12.4413   -4.7565    1.1979 C   0  0  0  0  0  0  0  0  0  0  0  0
   13.5397   -5.7280    0.8168 C   0  0  1  0  0  0  0  0  0  0  0  0
   13.6457   -5.9628   -0.7077 C   0  0  0  0  0  0  0  0  0  0  0  0
   14.2253   -4.7518   -1.4460 C   0  0  0  0  0  0  0  0  0  0  0  0
   15.6012   -4.3361   -0.8868 C   0  0  2  0  0  0  0  0  0  0  0  0
   16.6371   -5.3242   -1.1855 N   0  0  0  0  0  0  0  0  0  0  0  0
   17.2237   -5.4156   -2.4124 C   0  0  0  0  0  0  0  0  0  0  0  0
   16.9438   -4.7077   -3.3612 O   0  0  0  0  0  0  0  0  0  0  0  0
   18.1528   -6.4017   -2.4027 O   0  0  0  0  0  0  0  0  0  0  0  0
   18.9499   -6.7232   -3.5860 C   0  0  1  0  0  0  0  0  0  0  0  0
   19.8085   -5.5182   -3.9861 C   0  0  0  0  0  0  0  0  0  0  0  0
   19.8308   -7.8772   -3.1019 C   0  0  0  0  0  0  0  0  0  0  0  0
   18.0369   -7.1822   -4.7287 C   0  0  0  0  0  0  0  0  0  0  0  0
   15.5154   -4.1028    0.6293 C   0  0  0  0  0  0  0  0  0  0  0  0
   14.9044   -5.2907    1.3888 C   0  0  0  0  0  0  0  0  0  0  0  0
   10.8304   -4.8636    0.4867 S   0  0  0  0  0  0  0  0  0  0  0  0
    7.7444   -3.4844    1.8770 C   0  0  0  0  0  0  0  0  0  0  0  0
    7.6262   -5.1536    2.5775 S   0  0  1  0  0  0  0  0  0  0  0  0
    8.7321   -5.3191    3.5209 O   0  0  0  0  0  0  0  0  0  0  0  0
    6.2305   -5.3226    3.0065 O   0  0  0  0  0  0  0  0  0  0  0  0
    7.9554   -6.1840    1.2988 N   0  0  0  0  0  0  0  0  0  0  0  0
    6.9656   -7.0002    0.5421 C   0  0  1  0  0  0  0  0  0  0  0  0
    5.8814   -6.0942   -0.0604 C   0  0  0  0  0  0  0  0  0  0  0  0
    7.7755   -7.6520   -0.5916 C   0  0  0  0  0  0  0  0  0  0  0  0
    6.3369   -8.0886    1.4324 C   0  0  0  0  0  0  0  0  0  0  0  0
    6.5560   -2.7595    1.8551 C   0  0  0  0  0  0  0  0  0  0  0  0
    2.4330    3.0714   -0.9100 H   0  0  0  0  0  0  0  0  0  0  0  0
    2.0743    1.3227   -0.8583 H   0  0  0  0  0  0  0  0  0  0  0  0
    3.7282    1.8959   -1.2415 H   0  0  0  0  0  0  0  0  0  0  0  0
    3.9917    2.7942    1.0453 H   0  0  0  0  0  0  0  0  0  0  0  0
    1.2104    1.5828    1.6124 H   0  0  0  0  0  0  0  0  0  0  0  0
    1.5825    3.3280    1.5676 H   0  0  0  0  0  0  0  0  0  0  0  0
    2.3096    2.2934    2.8267 H   0  0  0  0  0  0  0  0  0  0  0  0
    4.4951   -1.2930    1.7600 H   0  0  0  0  0  0  0  0  0  0  0  0
    7.7234    0.1915    0.6231 H   0  0  0  0  0  0  0  0  0  0  0  0
    9.8325   -1.1044    0.6808 H   0  0  0  0  0  0  0  0  0  0  0  0
   11.3158   -2.3422    3.0138 H   0  0  0  0  0  0  0  0  0  0  0  0
   13.2699   -6.6914    1.2879 H   0  0  0  0  0  0  0  0  0  0  0  0
   12.6627   -6.2349   -1.1275 H   0  0  0  0  0  0  0  0  0  0  0  0
   14.2984   -6.8367   -0.8739 H   0  0  0  0  0  0  0  0  0  0  0  0
   13.5388   -3.8922   -1.3533 H   0  0  0  0  0  0  0  0  0  0  0  0
   14.3250   -4.9601   -2.5222 H   0  0  0  0  0  0  0  0  0  0  0  0
   15.9042   -3.4022   -1.3858 H   0  0  0  0  0  0  0  0  0  0  0  0
   16.9564   -5.9655   -0.4702 H   0  0  0  0  0  0  0  0  0  0  0  0
   20.4249   -5.1886   -3.1348 H   0  0  0  0  0  0  0  0  0  0  0  0
   19.1809   -4.6800   -4.3142 H   0  0  0  0  0  0  0  0  0  0  0  0
   20.4851   -5.7991   -4.8085 H   0  0  0  0  0  0  0  0  0  0  0  0
   20.4552   -7.5583   -2.2534 H   0  0  0  0  0  0  0  0  0  0  0  0
   20.4919   -8.2198   -3.9124 H   0  0  0  0  0  0  0  0  0  0  0  0
   19.2117   -8.7260   -2.7736 H   0  0  0  0  0  0  0  0  0  0  0  0
   17.3917   -6.3626   -5.0689 H   0  0  0  0  0  0  0  0  0  0  0  0
   17.4025   -8.0201   -4.3985 H   0  0  0  0  0  0  0  0  0  0  0  0
   18.6472   -7.5307   -5.5767 H   0  0  0  0  0  0  0  0  0  0  0  0
   14.8916   -3.2135    0.8069 H   0  0  0  0  0  0  0  0  0  0  0  0
   16.5173   -3.8707    1.0278 H   0  0  0  0  0  0  0  0  0  0  0  0
   14.7944   -5.0317    2.4514 H   0  0  0  0  0  0  0  0  0  0  0  0
   15.5806   -6.1633    1.3448 H   0  0  0  0  0  0  0  0  0  0  0  0
    8.8326   -6.6594    1.5055 H   0  0  0  0  0  0  0  0  0  0  0  0
    6.3325   -5.3006   -0.6759 H   0  0  0  0  0  0  0  0  0  0  0  0
    5.2673   -5.6302    0.7230 H   0  0  0  0  0  0  0  0  0  0  0  0
    5.2169   -6.6922   -0.7027 H   0  0  0  0  0  0  0  0  0  0  0  0
    8.2328   -6.8889   -1.2393 H   0  0  0  0  0  0  0  0  0  0  0  0
    7.1216   -8.2891   -1.2066 H   0  0  0  0  0  0  0  0  0  0  0  0
    8.5801   -8.2902   -0.1897 H   0  0  0  0  0  0  0  0  0  0  0  0
    5.7878   -7.6360    2.2691 H   0  0  0  0  0  0  0  0  0  0  0  0
    7.1162   -8.7491    1.8464 H   0  0  0  0  0  0  0  0  0  0  0  0
    5.6405   -8.7121    0.8488 H   0  0  0  0  0  0  0  0  0  0  0  0
    5.6481   -3.2426    2.2208 H   0  0  0  0  0  0  0  0  0  0  0  0
  1  2  1  0
  1 41  1  0
  1 42  1  0
  1 43  1  0
  2  3  1  0
  2  4  1  0
  2 44  1  6
  3 45  1  0
  3 46  1  0
  3 47  1  0
  4  5  1  0
  5  6  2  0
  5  7  1  0
  7  8  1  0
  7 48  1  0
  8  9  2  0
  8 40  1  0
  9 10  1  0
  9 49  1  0
 10 11  2  0
 10 50  1  0
 11 12  1  0
 11 31  1  0
 12 13  2  0
 12 30  1  0
 13 14  1  0
 13 51  1  0
 14 15  2  0
 15 16  1  0
 15 30  1  0
 16 17  1  0
 16 29  1  0
 16 52  1  1
 17 18  1  0
 17 53  1  0
 17 54  1  0
 18 19  1  0
 18 55  1  0
 18 56  1  0
 19 20  1  0
 19 28  1  0
 19 57  1  6
 20 21  1  0
 20 58  1  0
 21 22  2  0
 21 23  1  0
 24 23  1  1
 24 25  1  0
 24 26  1  0
 24 27  1  0
 25 59  1  0
 25 60  1  0
 25 61  1  0
 26 62  1  0
 26 63  1  0
 26 64  1  0
 27 65  1  0
 27 66  1  0
 27 67  1  0
 28 29  1  0
 28 68  1  0
 28 69  1  0
 29 70  1  0
 29 71  1  0
 31 32  1  0
 31 40  2  0
 32 33  2  0
 32 34  2  0
 32 35  1  6
 36 35  1  1
 35 72  1  0
 36 37  1  0
 36 38  1  0
 36 39  1  0
 37 73  1  0
 37 74  1  0
 37 75  1  0
 38 76  1  0
 38 77  1  0
 38 78  1  0
 39 79  1  0
 39 80  1  0
 39 81  1  0
 40 82  1  0
M  END

