
     RDKit          3D

 31 32  0  0  0  0  0  0  0  0999 V2000
    5.2370   -2.1696    0.6751 C   0  0  0  0  0  0  0  0  0  0  0  0
    4.3825   -0.9546    0.3777 C   0  0  0  0  0  0  0  0  0  0  0  0
    4.9460    0.3074    0.3568 C   0  0  0  0  0  0  0  0  0  0  0  0
    4.1907    1.4906    0.0850 C   0  0  0  0  0  0  0  0  0  0  0  0
    2.7915    1.3211   -0.1727 C   0  0  0  0  0  0  0  0  0  0  0  0
    2.1935    0.0763   -0.1617 C   0  0  0  0  0  0  0  0  0  0  0  0
    2.9577   -1.1182    0.1135 C   0  0  0  0  0  0  0  0  0  0  0  0
    2.3912   -2.4921    0.1385 C   0  0  0  0  0  0  0  0  0  0  0  0
    0.9370   -2.4598   -0.1179 O   0  0  0  0  0  0  0  0  0  0  0  0
    0.2374   -3.5495   -0.1114 C   0  0  0  0  0  0  0  0  0  0  0  0
    0.7227   -4.8429    0.1077 C   0  0  0  0  0  0  0  0  0  0  0  0
   -0.1402   -5.9579    0.1087 C   0  0  0  0  0  0  0  0  0  0  0  0
    0.3304   -7.1994    0.3399 N   0  0  0  0  0  0  0  0  0  0  0  0
   -1.5464   -5.7842   -0.1402 C   0  0  0  0  0  0  0  0  0  0  0  0
   -2.0414   -4.5242   -0.3754 C   0  0  0  0  0  0  0  0  0  0  0  0
   -1.1960   -3.4044   -0.3704 C   0  0  0  0  0  0  0  0  0  0  0  0
   -1.8880   -1.7217   -0.6794 Br  0  0  0  0  0  0  0  0  0  0  0  0
    6.2845   -1.8796    0.8515 H   0  0  0  0  0  0  0  0  0  0  0  0
    5.2448   -2.9044   -0.1556 H   0  0  0  0  0  0  0  0  0  0  0  0
    4.9021   -2.7202    1.5775 H   0  0  0  0  0  0  0  0  0  0  0  0
    6.0204    0.3942    0.5592 H   0  0  0  0  0  0  0  0  0  0  0  0
    4.6581    2.4743    0.0748 H   0  0  0  0  0  0  0  0  0  0  0  0
    2.1737    2.2009   -0.3862 H   0  0  0  0  0  0  0  0  0  0  0  0
    1.1266    0.0006   -0.3666 H   0  0  0  0  0  0  0  0  0  0  0  0
    2.4884   -3.0160    1.1174 H   0  0  0  0  0  0  0  0  0  0  0  0
    2.7957   -3.1798   -0.6413 H   0  0  0  0  0  0  0  0  0  0  0  0
    1.7845   -4.9932    0.2730 H   0  0  0  0  0  0  0  0  0  0  0  0
    1.3017   -7.3502    0.5850 H   0  0  0  0  0  0  0  0  0  0  0  0
   -0.2947   -7.9954    0.3650 H   0  0  0  0  0  0  0  0  0  0  0  0
   -2.2086   -6.6509   -0.1305 H   0  0  0  0  0  0  0  0  0  0  0  0
   -3.1015   -4.3779   -0.5763 H   0  0  0  0  0  0  0  0  0  0  0  0
  1  2  1  0
  1 18  1  0
  1 19  1  0
  1 20  1  0
  2  3  2  0
  2  7  1  0
  3  4  1  0
  3 21  1  0
  4  5  2  0
  4 22  1  0
  5  6  1  0
  5 23  1  0
  6  7  2  0
  6 24  1  0
  7  8  1  0
  8  9  1  0
  8 25  1  0
  8 26  1  0
  9 10  1  0
 10 11  2  0
 10 16  1  0
 11 12  1  0
 11 27  1  0
 12 13  1  0
 12 14  2  0
 13 28  1  0
 13 29  1  0
 14 15  1  0
 14 30  1  0
 15 16  2  0
 15 31  1  0
 16 17  1  0
M  END

