
     RDKit          3D

 37 37  0  0  0  0  0  0  0  0999 V2000
    1.7926   -0.6140    0.8947 C   0  0  0  0  0  0  0  0  0  0  0  0
    2.8569    0.0692    0.0333 C   0  0  2  0  0  0  0  0  0  0  0  0
    3.7242    0.3228    0.6632 H   0  0  0  0  0  0  0  0  0  0  0  0
    2.3685    1.3676   -0.6374 C   0  0  0  0  0  0  0  0  0  0  0  0
    1.9849    2.4917    0.3262 C   0  0  0  0  0  0  0  0  0  0  0  0
    1.6133    3.6767   -0.3462 O   0  0  0  0  0  0  0  0  0  0  0  0
    3.3637   -0.8793   -0.9537 N   0  0  0  0  0  0  0  0  0  0  0  0
    4.6579   -0.8098   -1.4192 C   0  0  0  0  0  0  0  0  0  0  0  0
    5.4866   -0.0326   -0.9640 O   0  0  0  0  0  0  0  0  0  0  0  0
    4.9673   -1.7118   -2.4208 N   0  0  0  0  0  0  0  0  0  0  0  0
    6.2597   -1.6863   -3.0683 C   0  0  0  0  0  0  0  0  0  0  0  0
    6.3837   -0.6126   -4.1903 C   0  0  0  0  0  0  0  0  0  0  0  0
    7.7471   -0.5503   -4.7986 C   0  0  0  0  0  0  0  0  0  0  0  0
    8.8514    0.0503   -4.1044 C   0  0  0  0  0  0  0  0  0  0  0  0
   10.1502   -0.2360   -4.5791 C   0  0  0  0  0  0  0  0  0  0  0  0
   11.6523    0.2677   -3.4845 Br  0  0  0  0  0  0  0  0  0  0  0  0
   10.4303   -0.9193   -5.7842 C   0  0  0  0  0  0  0  0  0  0  0  0
    9.3326   -1.2470   -6.6240 C   0  0  0  0  0  0  0  0  0  0  0  0
    8.0403   -1.1262   -6.0614 C   0  0  0  0  0  0  0  0  0  0  0  0
    7.0187   -1.6137   -6.7768 F   0  0  0  0  0  0  0  0  0  0  0  0
    0.9023   -0.8783    0.2969 H   0  0  0  0  0  0  0  0  0  0  0  0
    1.4557    0.0414    1.7115 H   0  0  0  0  0  0  0  0  0  0  0  0
    2.1918   -1.5364    1.3434 H   0  0  0  0  0  0  0  0  0  0  0  0
    1.5090    1.1531   -1.2981 H   0  0  0  0  0  0  0  0  0  0  0  0
    3.1882    1.7314   -1.2819 H   0  0  0  0  0  0  0  0  0  0  0  0
    2.8183    2.6689    1.0386 H   0  0  0  0  0  0  0  0  0  0  0  0
    1.1095    2.2054    0.9310 H   0  0  0  0  0  0  0  0  0  0  0  0
    2.3744    3.9794   -0.8591 H   0  0  0  0  0  0  0  0  0  0  0  0
    2.6854   -1.4499   -1.4453 H   0  0  0  0  0  0  0  0  0  0  0  0
    4.2228   -2.2375   -2.8631 H   0  0  0  0  0  0  0  0  0  0  0  0
    6.4628   -2.6843   -3.4871 H   0  0  0  0  0  0  0  0  0  0  0  0
    7.0182   -1.4776   -2.3008 H   0  0  0  0  0  0  0  0  0  0  0  0
    6.1446    0.3581   -3.7206 H   0  0  0  0  0  0  0  0  0  0  0  0
    5.6255   -0.8119   -4.9632 H   0  0  0  0  0  0  0  0  0  0  0  0
    8.6881    0.7450   -3.2770 H   0  0  0  0  0  0  0  0  0  0  0  0
   11.4508   -1.2287   -6.0219 H   0  0  0  0  0  0  0  0  0  0  0  0
    9.4497   -1.6114   -7.6451 H   0  0  0  0  0  0  0  0  0  0  0  0
  1  2  1  0
  1 21  1  0
  1 22  1  0
  1 23  1  0
  2  3  1  1
  2  4  1  0
  2  7  1  0
  4  5  1  0
  4 24  1  0
  4 25  1  0
  5  6  1  0
  5 26  1  0
  5 27  1  0
  6 28  1  0
  7  8  1  0
  7 29  1  0
  8  9  2  0
  8 10  1  0
 10 11  1  0
 10 30  1  0
 11 12  1  0
 11 31  1  0
 11 32  1  0
 12 13  1  0
 12 33  1  0
 12 34  1  0
 13 14  2  0
 13 19  1  0
 14 15  1  0
 14 35  1  0
 15 16  1  0
 15 17  2  0
 17 18  1  0
 17 36  1  0
 18 19  2  0
 18 37  1  0
 19 20  1  0
M  END

