
     RDKit          3D

 50 50  0  0  0  0  0  0  0  0999 V2000
    2.5005   -1.5075    3.3718 C   0  0  0  0  0  0  0  0  0  0  0  0
    2.2126   -0.4884    2.2595 C   0  0  1  0  0  0  0  0  0  0  0  0
    2.0803    0.9202    2.8538 C   0  0  0  0  0  0  0  0  0  0  0  0
    3.1882   -0.6208    1.0510 C   0  0  1  0  0  0  0  0  0  0  0  0
    2.6542    0.0825   -0.2055 C   0  0  0  0  0  0  0  0  0  0  0  0
    4.6096   -0.3124    1.3968 N   0  0  0  0  0  0  0  0  0  0  0  0
    5.0444    0.9850    1.4527 C   0  0  0  0  0  0  0  0  0  0  0  0
    4.3787    1.9284    1.0483 O   0  0  0  0  0  0  0  0  0  0  0  0
    6.3759    1.2990    2.1648 C   0  0  2  0  0  0  0  0  0  0  0  0
    7.4521    2.0557    1.2972 C   0  0  1  0  0  0  0  0  0  0  0  0
    6.9127    3.4341    0.8688 C   0  0  0  0  0  0  0  0  0  0  0  0
    8.7027    2.2823    2.1725 C   0  0  0  0  0  0  0  0  0  0  0  0
    7.8521    1.2484    0.0530 C   0  0  0  0  0  0  0  0  0  0  0  0
    6.9100    0.1511    2.8838 N   0  0  0  0  0  0  0  0  0  0  0  0
    6.4397   -1.1256    2.8678 C   0  0  0  0  0  0  0  0  0  0  0  0
    6.8064   -1.9665    3.6725 O   0  0  0  0  0  0  0  0  0  0  0  0
    5.4699   -1.4625    1.7358 C   0  0  2  0  0  0  0  0  0  0  0  0
    6.2481   -2.1019    0.5352 C   0  0  1  0  0  0  0  0  0  0  0  0
    6.9027   -3.4289    0.9476 C   0  0  0  0  0  0  0  0  0  0  0  0
    5.3818   -2.3145   -0.7112 C   0  0  0  0  0  0  0  0  0  0  0  0
    1.7151   -1.4648    4.1433 H   0  0  0  0  0  0  0  0  0  0  0  0
    3.4588   -1.3057    3.8776 H   0  0  0  0  0  0  0  0  0  0  0  0
    2.5304   -2.5412    2.9899 H   0  0  0  0  0  0  0  0  0  0  0  0
    1.2289   -0.7545    1.8291 H   0  0  0  0  0  0  0  0  0  0  0  0
    2.9975    1.2215    3.3842 H   0  0  0  0  0  0  0  0  0  0  0  0
    1.2584    0.9380    3.5882 H   0  0  0  0  0  0  0  0  0  0  0  0
    1.8772    1.6845    2.0919 H   0  0  0  0  0  0  0  0  0  0  0  0
    3.2053   -1.6932    0.8125 H   0  0  0  0  0  0  0  0  0  0  0  0
    2.4182    1.1365   -0.0291 H   0  0  0  0  0  0  0  0  0  0  0  0
    1.7437   -0.4407   -0.5401 H   0  0  0  0  0  0  0  0  0  0  0  0
    3.3836    0.0444   -1.0272 H   0  0  0  0  0  0  0  0  0  0  0  0
    6.0520    2.0363    2.9220 H   0  0  0  0  0  0  0  0  0  0  0  0
    6.6201    4.0368    1.7442 H   0  0  0  0  0  0  0  0  0  0  0  0
    6.0306    3.3457    0.2237 H   0  0  0  0  0  0  0  0  0  0  0  0
    7.6993    3.9863    0.3291 H   0  0  0  0  0  0  0  0  0  0  0  0
    8.4544    2.8273    3.0993 H   0  0  0  0  0  0  0  0  0  0  0  0
    9.4392    2.8902    1.6240 H   0  0  0  0  0  0  0  0  0  0  0  0
    9.1985    1.3380    2.4460 H   0  0  0  0  0  0  0  0  0  0  0  0
    6.9917    1.0710   -0.6115 H   0  0  0  0  0  0  0  0  0  0  0  0
    8.2910    0.2769    0.3270 H   0  0  0  0  0  0  0  0  0  0  0  0
    8.6099    1.7977   -0.5284 H   0  0  0  0  0  0  0  0  0  0  0  0
    7.5394    0.3371    3.6595 H   0  0  0  0  0  0  0  0  0  0  0  0
    4.8198   -2.2420    2.1537 H   0  0  0  0  0  0  0  0  0  0  0  0
    7.0475   -1.3954    0.2593 H   0  0  0  0  0  0  0  0  0  0  0  0
    6.1344   -4.1823    1.1923 H   0  0  0  0  0  0  0  0  0  0  0  0
    7.5488   -3.3252    1.8286 H   0  0  0  0  0  0  0  0  0  0  0  0
    7.5038   -3.8267    0.1146 H   0  0  0  0  0  0  0  0  0  0  0  0
    4.5597   -3.0246   -0.5200 H   0  0  0  0  0  0  0  0  0  0  0  0
    5.9964   -2.7403   -1.5202 H   0  0  0  0  0  0  0  0  0  0  0  0
    4.9481   -1.3777   -1.0855 H   0  0  0  0  0  0  0  0  0  0  0  0
  1  2  1  0
  1 21  1  0
  1 22  1  0
  1 23  1  0
  2  3  1  0
  2  4  1  0
  2 24  1  6
  3 25  1  0
  3 26  1  0
  3 27  1  0
  4  5  1  0
  4  6  1  0
  4 28  1  6
  5 29  1  0
  5 30  1  0
  5 31  1  0
  6  7  1  0
  6 17  1  0
  7  8  2  0
  7  9  1  0
  9 10  1  0
  9 14  1  0
  9 32  1  1
 10 11  1  6
 10 12  1  0
 10 13  1  0
 11 33  1  0
 11 34  1  0
 11 35  1  0
 12 36  1  0
 12 37  1  0
 12 38  1  0
 13 39  1  0
 13 40  1  0
 13 41  1  0
 14 15  1  0
 14 42  1  0
 15 16  2  0
 15 17  1  0
 17 18  1  0
 17 43  1  1
 18 19  1  0
 18 20  1  0
 18 44  1  6
 19 45  1  0
 19 46  1  0
 19 47  1  0
 20 48  1  0
 20 49  1  0
 20 50  1  0
M  END

