
     RDKit          3D

 34 35  0  0  0  0  0  0  0  0999 V2000
    2.8833   -1.1270    2.3804 C   0  0  0  0  0  0  0  0  0  0  0  0
    2.5795   -0.2790    1.2425 N   0  0  0  0  0  0  0  0  0  0  0  0
    3.1741    1.0512    1.3117 C   0  0  0  0  0  0  0  0  0  0  0  0
    4.6358    1.1193    0.8982 C   0  0  0  0  0  0  0  0  0  0  0  0
    5.1890    0.1728    0.0479 C   0  0  0  0  0  0  0  0  0  0  0  0
    6.5329    0.3719   -0.4374 C   0  0  0  0  0  0  0  0  0  0  0  0
    7.2746   -0.7536   -0.9617 N   0  0  0  0  0  0  0  0  0  0  0  0
    7.4787   -0.8216   -2.3826 C   0  0  0  0  0  0  0  0  0  0  0  0
    7.9382   -1.6458   -0.0468 C   0  0  1  0  0  0  0  0  0  0  0  0
    7.0413   -2.5059    0.9062 C   0  0  0  0  0  0  0  0  0  0  0  0
    8.0899   -3.6369    0.7624 C   0  0  0  0  0  0  0  0  0  0  0  0
    8.6736   -2.9293   -0.4901 C   0  0  0  0  0  0  0  0  0  0  0  0
    7.2761    1.4714    0.1387 C   0  0  0  0  0  0  0  0  0  0  0  0
    6.5996    2.3408    0.9829 C   0  0  0  0  0  0  0  0  0  0  0  0
    5.3038    2.2188    1.3790 N   0  0  0  0  0  0  0  0  0  0  0  0
    2.3995   -2.1110    2.2629 H   0  0  0  0  0  0  0  0  0  0  0  0
    2.5704   -0.7060    3.3628 H   0  0  0  0  0  0  0  0  0  0  0  0
    3.9709   -1.2952    2.4376 H   0  0  0  0  0  0  0  0  0  0  0  0
    1.5707   -0.1942    1.1413 H   0  0  0  0  0  0  0  0  0  0  0  0
    3.1096    1.5098    2.3222 H   0  0  0  0  0  0  0  0  0  0  0  0
    2.5981    1.7187    0.6443 H   0  0  0  0  0  0  0  0  0  0  0  0
    4.5669   -0.6619   -0.2834 H   0  0  0  0  0  0  0  0  0  0  0  0
    7.8906    0.1459   -2.7161 H   0  0  0  0  0  0  0  0  0  0  0  0
    6.4943   -0.9115   -2.8747 H   0  0  0  0  0  0  0  0  0  0  0  0
    8.1349   -1.6476   -2.6829 H   0  0  0  0  0  0  0  0  0  0  0  0
    8.5780   -0.9962    0.5778 H   0  0  0  0  0  0  0  0  0  0  0  0
    6.0800   -2.7540    0.4370 H   0  0  0  0  0  0  0  0  0  0  0  0
    6.8524   -2.0801    1.8989 H   0  0  0  0  0  0  0  0  0  0  0  0
    7.6947   -4.6506    0.6075 H   0  0  0  0  0  0  0  0  0  0  0  0
    8.8010   -3.6605    1.6013 H   0  0  0  0  0  0  0  0  0  0  0  0
    8.2656   -3.3566   -1.4180 H   0  0  0  0  0  0  0  0  0  0  0  0
    9.7681   -2.8639   -0.5828 H   0  0  0  0  0  0  0  0  0  0  0  0
    8.3197    1.6611   -0.1300 H   0  0  0  0  0  0  0  0  0  0  0  0
    7.1381    3.2168    1.3715 H   0  0  0  0  0  0  0  0  0  0  0  0
  1  2  1  0
  1 16  1  0
  1 17  1  0
  1 18  1  0
  2  3  1  0
  2 19  1  0
  3  4  1  0
  3 20  1  0
  3 21  1  0
  4  5  2  0
  4 15  1  0
  5  6  1  0
  5 22  1  0
  6  7  1  0
  6 13  2  0
  7  8  1  0
  7  9  1  0
  8 23  1  0
  8 24  1  0
  8 25  1  0
  9 10  1  0
  9 12  1  0
  9 26  1  6
 10 11  1  0
 10 27  1  0
 10 28  1  0
 11 12  1  0
 11 29  1  0
 11 30  1  0
 12 31  1  0
 12 32  1  0
 13 14  1  0
 13 33  1  0
 14 15  2  0
 14 34  1  0
M  END

