
     RDKit          3D

 70 74  0  0  0  0  0  0  0  0999 V2000
    2.3600   -4.3462    4.3797 C   0  0  0  0  0  0  0  0  0  0  0  0
    3.7675   -3.8862    4.7840 C   0  0  2  0  0  0  0  0  0  0  0  0
    3.7450   -2.4959    5.4311 C   0  0  0  0  0  0  0  0  0  0  0  0
    4.8027   -3.9770    3.6377 C   0  0  2  0  0  0  0  0  0  0  0  0
    5.7659   -3.5829    4.0383 H   0  0  0  0  0  0  0  0  0  0  0  0
    4.4641   -3.1114    2.4140 C   0  0  0  0  0  0  0  0  0  0  0  0
    5.4711   -3.2822    1.3676 N   0  0  0  0  0  0  0  0  0  0  0  0
    6.0817   -2.1628    0.8632 C   0  0  0  0  0  0  0  0  0  0  0  0
    5.7916   -1.0352    1.2563 O   0  0  0  0  0  0  0  0  0  0  0  0
    7.1387   -2.2630   -0.2013 C   0  0  0  0  0  0  0  0  0  0  0  0
    7.6339   -1.1062   -0.7961 C   0  0  0  0  0  0  0  0  0  0  0  0
    8.5873   -1.5236   -1.6892 N   0  0  0  0  0  0  0  0  0  0  0  0
    9.4315   -0.8302   -2.5439 C   0  0  0  0  0  0  0  0  0  0  0  0
    9.3101    0.6690   -2.5980 C   0  0  0  0  0  0  0  0  0  0  0  0
    8.2504    1.2352   -2.3676 O   0  0  0  0  0  0  0  0  0  0  0  0
   10.4568    1.3273   -2.9353 N   0  0  0  0  0  0  0  0  0  0  0  0
   10.5179    2.7720   -3.1077 C   0  0  0  0  0  0  0  0  0  0  0  0
   11.2583    3.5035   -1.9730 C   0  0  2  0  0  0  0  0  0  0  0  0
   12.2879    3.0969   -1.9639 H   0  0  0  0  0  0  0  0  0  0  0  0
   10.6214    3.2532   -0.5675 C   0  0  0  0  0  0  0  0  0  0  0  0
   10.5238    4.5115    0.3486 C   0  0  0  0  0  0  0  0  0  0  0  0
   10.8780    5.8143   -0.3785 C   0  0  1  0  0  0  0  0  0  0  0  0
   10.7568    6.6860    0.2869 H   0  0  0  0  0  0  0  0  0  0  0  0
   12.2380    5.6241   -1.0965 C   0  0  0  0  0  0  0  0  0  0  0  0
   11.4203    5.0087   -2.2632 C   0  0  2  0  0  0  0  0  0  0  0  0
   11.7853    5.1724   -3.2925 H   0  0  0  0  0  0  0  0  0  0  0  0
   10.2065    5.8994   -1.7938 C   0  0  2  0  0  0  0  0  0  0  0  0
   10.2993    7.3142   -2.3887 C   0  0  0  0  0  0  0  0  0  0  0  0
    8.7588    5.4249   -1.9592 C   0  0  0  0  0  0  0  0  0  0  0  0
   10.2900   -1.5568   -3.3402 C   0  0  0  0  0  0  0  0  0  0  0  0
   10.3432   -2.9765   -3.2843 C   0  0  0  0  0  0  0  0  0  0  0  0
    9.5233   -3.6589   -2.4161 C   0  0  0  0  0  0  0  0  0  0  0  0
    8.6254   -2.9378   -1.5952 C   0  0  0  0  0  0  0  0  0  0  0  0
    7.7544   -3.3734   -0.6990 N   0  0  0  0  0  0  0  0  0  0  0  0
    5.6504   -4.6728    0.9564 C   0  0  0  0  0  0  0  0  0  0  0  0
    5.9769   -5.5322    2.1773 C   0  0  0  0  0  0  0  0  0  0  0  0
    4.9500   -5.3637    3.1960 N   0  0  0  0  0  0  0  0  0  0  0  0
    1.7161   -4.4511    5.2680 H   0  0  0  0  0  0  0  0  0  0  0  0
    2.3976   -5.3144    3.8594 H   0  0  0  0  0  0  0  0  0  0  0  0
    1.8719   -3.6196    3.7094 H   0  0  0  0  0  0  0  0  0  0  0  0
    4.1337   -4.5943    5.5537 H   0  0  0  0  0  0  0  0  0  0  0  0
    3.3547   -1.7315    4.7398 H   0  0  0  0  0  0  0  0  0  0  0  0
    4.7520   -2.1770    5.7459 H   0  0  0  0  0  0  0  0  0  0  0  0
    3.0975   -2.4908    6.3227 H   0  0  0  0  0  0  0  0  0  0  0  0
    4.4308   -2.0474    2.6715 H   0  0  0  0  0  0  0  0  0  0  0  0
    3.4808   -3.4129    2.0113 H   0  0  0  0  0  0  0  0  0  0  0  0
    7.3610   -0.0674   -0.6645 H   0  0  0  0  0  0  0  0  0  0  0  0
   11.3251    0.8060   -2.9458 H   0  0  0  0  0  0  0  0  0  0  0  0
    9.4807    3.1190   -3.1897 H   0  0  0  0  0  0  0  0  0  0  0  0
   11.0192    2.9913   -4.0670 H   0  0  0  0  0  0  0  0  0  0  0  0
   11.1854    2.4637   -0.0477 H   0  0  0  0  0  0  0  0  0  0  0  0
    9.6142    2.8368   -0.7107 H   0  0  0  0  0  0  0  0  0  0  0  0
   11.2049    4.4083    1.2102 H   0  0  0  0  0  0  0  0  0  0  0  0
    9.5086    4.5793    0.7729 H   0  0  0  0  0  0  0  0  0  0  0  0
   12.9753    4.9676   -0.6056 H   0  0  0  0  0  0  0  0  0  0  0  0
   12.7328    6.5679   -1.3588 H   0  0  0  0  0  0  0  0  0  0  0  0
   11.3024    7.7567   -2.3080 H   0  0  0  0  0  0  0  0  0  0  0  0
    9.5959    7.9923   -1.8774 H   0  0  0  0  0  0  0  0  0  0  0  0
   10.0281    7.3015   -3.4577 H   0  0  0  0  0  0  0  0  0  0  0  0
    8.5593    4.4191   -1.5706 H   0  0  0  0  0  0  0  0  0  0  0  0
    8.4649    5.4319   -3.0224 H   0  0  0  0  0  0  0  0  0  0  0  0
    8.0779    6.1178   -1.4362 H   0  0  0  0  0  0  0  0  0  0  0  0
   10.9209   -1.0230   -4.0519 H   0  0  0  0  0  0  0  0  0  0  0  0
   11.0330   -3.5151   -3.9367 H   0  0  0  0  0  0  0  0  0  0  0  0
    9.5276   -4.7463   -2.3337 H   0  0  0  0  0  0  0  0  0  0  0  0
    6.4465   -4.7408    0.2101 H   0  0  0  0  0  0  0  0  0  0  0  0
    4.7042   -5.0345    0.5111 H   0  0  0  0  0  0  0  0  0  0  0  0
    6.9925   -5.2483    2.5360 H   0  0  0  0  0  0  0  0  0  0  0  0
    6.0165   -6.5915    1.8735 H   0  0  0  0  0  0  0  0  0  0  0  0
    5.1386   -5.9664    3.9959 H   0  0  0  0  0  0  0  0  0  0  0  0
  1  2  1  0
  1 38  1  0
  1 39  1  0
  1 40  1  0
  2  3  1  0
  2  4  1  0
  2 41  1  1
  3 42  1  0
  3 43  1  0
  3 44  1  0
  4  5  1  1
  4  6  1  0
  4 37  1  0
  6  7  1  0
  6 45  1  0
  6 46  1  0
  7  8  1  0
  7 35  1  0
  8  9  2  0
  8 10  1  0
 10 11  2  0
 10 34  1  0
 11 12  1  0
 11 47  1  0
 12 13  1  0
 12 33  1  0
 13 14  1  0
 13 30  2  0
 14 15  2  0
 14 16  1  0
 16 17  1  0
 16 48  1  0
 17 18  1  0
 17 49  1  0
 17 50  1  0
 18 19  1  1
 18 20  1  0
 18 25  1  0
 20 21  1  0
 20 51  1  0
 20 52  1  0
 21 22  1  0
 21 53  1  0
 21 54  1  0
 22 23  1  1
 22 24  1  0
 22 27  1  0
 24 25  1  0
 24 55  1  0
 24 56  1  0
 25 26  1  6
 25 27  1  0
 27 28  1  6
 27 29  1  0
 28 57  1  0
 28 58  1  0
 28 59  1  0
 29 60  1  0
 29 61  1  0
 29 62  1  0
 30 31  1  0
 30 63  1  0
 31 32  2  0
 31 64  1  0
 32 33  1  0
 32 65  1  0
 33 34  2  0
 35 36  1  0
 35 66  1  0
 35 67  1  0
 36 37  1  0
 36 68  1  0
 36 69  1  0
 37 70  1  0
M  END

