
     RDKit          3D

 40 41  0  0  0  0  0  0  0  0999 V2000
    1.1717   -0.6333    0.9284 C   0  0  0  0  0  0  0  0  0  0  0  0
    2.5905   -0.5224    0.8098 O   0  0  0  0  0  0  0  0  0  0  0  0
    3.1023    0.7211    0.8920 C   0  0  0  0  0  0  0  0  0  0  0  0
    2.4092    1.6993    1.0475 O   0  0  0  0  0  0  0  0  0  0  0  0
    4.6274    0.7654    0.7887 C   0  0  1  0  0  0  0  0  0  0  0  0
    4.9195    1.1734    1.7740 H   0  0  0  0  0  0  0  0  0  0  0  0
    5.2942   -0.6060    0.6228 C   0  0  0  0  0  0  0  0  0  0  0  0
    6.8283   -0.6114    0.7118 C   0  0  0  0  0  0  0  0  0  0  0  0
    7.5449   -0.0014   -0.5023 C   0  0  0  0  0  0  0  0  0  0  0  0
    7.6622    1.5340   -0.5390 C   0  0  0  0  0  0  0  0  0  0  0  0
    6.4923    2.3638    0.0301 C   0  0  0  0  0  0  0  0  0  0  0  0
    5.0557    1.8700   -0.2273 C   0  0  1  0  0  0  0  0  0  0  0  0
    4.3846    2.7245    0.0007 H   0  0  0  0  0  0  0  0  0  0  0  0
    4.9156    1.4477   -1.6180 N   0  0  0  0  0  0  0  0  0  0  0  0
    3.5599    1.3184   -2.1270 C   0  0  0  0  0  0  0  0  0  0  0  0
    3.5846    1.1513   -3.6142 C   0  0  0  0  0  0  0  0  0  0  0  0
    2.8860    0.2437   -4.2457 N   0  0  0  0  0  0  0  0  0  0  0  0
    3.1908    0.4768   -5.5844 O   0  0  0  0  0  0  0  0  0  0  0  0
    4.0543    1.5003   -5.6215 C   0  0  0  0  0  0  0  0  0  0  0  0
    4.5568    1.9536   -6.9469 C   0  0  0  0  0  0  0  0  0  0  0  0
    4.3334    1.9604   -4.4373 N   0  0  0  0  0  0  0  0  0  0  0  0
    0.9420   -1.7035    0.8572 H   0  0  0  0  0  0  0  0  0  0  0  0
    0.6680   -0.0805    0.1209 H   0  0  0  0  0  0  0  0  0  0  0  0
    0.8271   -0.2292    1.8922 H   0  0  0  0  0  0  0  0  0  0  0  0
    4.9899   -1.0467   -0.3401 H   0  0  0  0  0  0  0  0  0  0  0  0
    4.8903   -1.2725    1.4004 H   0  0  0  0  0  0  0  0  0  0  0  0
    7.1455   -1.6638    0.8054 H   0  0  0  0  0  0  0  0  0  0  0  0
    7.1586   -0.1195    1.6466 H   0  0  0  0  0  0  0  0  0  0  0  0
    7.0165   -0.3388   -1.4077 H   0  0  0  0  0  0  0  0  0  0  0  0
    8.5651   -0.4175   -0.5656 H   0  0  0  0  0  0  0  0  0  0  0  0
    7.8451    1.8308   -1.5858 H   0  0  0  0  0  0  0  0  0  0  0  0
    8.5689    1.8458    0.0089 H   0  0  0  0  0  0  0  0  0  0  0  0
    6.5804    3.3882   -0.3730 H   0  0  0  0  0  0  0  0  0  0  0  0
    6.6080    2.4746    1.1205 H   0  0  0  0  0  0  0  0  0  0  0  0
    5.4276    2.0858   -2.2263 H   0  0  0  0  0  0  0  0  0  0  0  0
    2.9178    2.1951   -1.8846 H   0  0  0  0  0  0  0  0  0  0  0  0
    3.0604    0.4349   -1.7017 H   0  0  0  0  0  0  0  0  0  0  0  0
    4.1014    1.3642   -7.7527 H   0  0  0  0  0  0  0  0  0  0  0  0
    5.6514    1.8458   -6.9930 H   0  0  0  0  0  0  0  0  0  0  0  0
    4.3224    3.0183   -7.0962 H   0  0  0  0  0  0  0  0  0  0  0  0
  1  2  1  0
  1 22  1  0
  1 23  1  0
  1 24  1  0
  2  3  1  0
  3  4  2  0
  3  5  1  0
  5  6  1  1
  5  7  1  0
  5 12  1  0
  7  8  1  0
  7 25  1  0
  7 26  1  0
  8  9  1  0
  8 27  1  0
  8 28  1  0
  9 10  1  0
  9 29  1  0
  9 30  1  0
 10 11  1  0
 10 31  1  0
 10 32  1  0
 11 12  1  0
 11 33  1  0
 11 34  1  0
 12 13  1  6
 12 14  1  0
 14 15  1  0
 14 35  1  0
 15 16  1  0
 15 36  1  0
 15 37  1  0
 16 17  2  0
 16 21  1  0
 17 18  1  0
 18 19  1  0
 19 20  1  0
 19 21  2  0
 20 38  1  0
 20 39  1  0
 20 40  1  0
M  END

