
     RDKit          3D

 33 34  0  0  0  0  0  0  0  0999 V2000
    1.9643    1.5631   -0.4767 C   0  0  0  0  0  0  0  0  0  0  0  0
    1.8448    0.1616   -0.3957 O   0  0  0  0  0  0  0  0  0  0  0  0
    2.4723   -0.6156   -1.3202 C   0  0  0  0  0  0  0  0  0  0  0  0
    3.2686   -0.1247   -2.3676 C   0  0  0  0  0  0  0  0  0  0  0  0
    3.8577   -0.9581   -3.3218 C   0  0  0  0  0  0  0  0  0  0  0  0
    4.6872   -0.3501   -4.4243 C   0  0  0  0  0  0  0  0  0  0  0  0
    3.6439   -2.3744   -3.2523 C   0  0  0  0  0  0  0  0  0  0  0  0
    4.2036   -3.2410   -4.2434 C   0  0  0  0  0  0  0  0  0  0  0  0
    3.9020   -4.5661   -4.5552 C   0  0  0  0  0  0  0  0  0  0  0  0
    2.8066   -5.3399   -4.0579 N   0  0  0  0  0  0  0  0  0  0  0  0
    2.7725   -6.5433   -4.6252 C   0  0  0  0  0  0  0  0  0  0  0  0
    1.5767   -7.7901   -4.3206 S   0  0  0  0  0  0  0  0  0  0  0  0
    3.7995   -6.6477   -5.4684 N   0  0  0  0  0  0  0  0  0  0  0  0
    4.5851   -5.4010   -5.4999 C   0  0  0  0  0  0  0  0  0  0  0  0
    5.5652   -5.2633   -6.2129 O   0  0  0  0  0  0  0  0  0  0  0  0
    2.8763   -2.8529   -2.1490 C   0  0  0  0  0  0  0  0  0  0  0  0
    2.2959   -2.0170   -1.2061 C   0  0  0  0  0  0  0  0  0  0  0  0
    1.5354   -2.5790   -0.2178 O   0  0  0  0  0  0  0  0  0  0  0  0
    1.9709   -2.4072    1.1225 C   0  0  0  0  0  0  0  0  0  0  0  0
    1.3694    1.9763    0.3491 H   0  0  0  0  0  0  0  0  0  0  0  0
    1.5699    1.9541   -1.4319 H   0  0  0  0  0  0  0  0  0  0  0  0
    3.0121    1.8965   -0.3638 H   0  0  0  0  0  0  0  0  0  0  0  0
    3.4276    0.9506   -2.4592 H   0  0  0  0  0  0  0  0  0  0  0  0
    4.7310    0.7448   -4.3309 H   0  0  0  0  0  0  0  0  0  0  0  0
    4.2804   -0.5888   -5.4216 H   0  0  0  0  0  0  0  0  0  0  0  0
    5.7250   -0.7260   -4.4111 H   0  0  0  0  0  0  0  0  0  0  0  0
    4.9898   -2.8418   -4.8867 H   0  0  0  0  0  0  0  0  0  0  0  0
    2.0828   -4.9721   -3.4542 H   0  0  0  0  0  0  0  0  0  0  0  0
    4.0330   -7.4609   -6.0253 H   0  0  0  0  0  0  0  0  0  0  0  0
    2.7668   -3.9207   -1.9560 H   0  0  0  0  0  0  0  0  0  0  0  0
    1.2837   -2.9891    1.7533 H   0  0  0  0  0  0  0  0  0  0  0  0
    1.9407   -1.3514    1.4331 H   0  0  0  0  0  0  0  0  0  0  0  0
    2.9965   -2.7965    1.2612 H   0  0  0  0  0  0  0  0  0  0  0  0
  1  2  1  0
  1 20  1  0
  1 21  1  0
  1 22  1  0
  2  3  1  0
  3  4  2  0
  3 17  1  0
  4  5  1  0
  4 23  1  0
  5  6  1  0
  5  7  2  0
  6 24  1  0
  6 25  1  0
  6 26  1  0
  7  8  1  0
  7 16  1  0
  8  9  2  0
  8 27  1  0
  9 10  1  0
  9 14  1  0
 10 11  1  0
 10 28  1  0
 11 12  2  0
 11 13  1  0
 13 14  1  0
 13 29  1  0
 14 15  2  0
 16 17  2  0
 16 30  1  0
 17 18  1  0
 18 19  1  0
 19 31  1  0
 19 32  1  0
 19 33  1  0
M  END

