
     RDKit          3D

 48 51  0  0  0  0  0  0  0  0999 V2000
    1.1459   -0.9132   -0.9145 C   0  0  0  0  0  0  0  0  0  0  0  0
    2.5949   -0.6602   -0.5951 C   0  0  0  0  0  0  0  0  0  0  0  0
    3.1337    0.6407   -0.5005 C   0  0  0  0  0  0  0  0  0  0  0  0
    4.4679    0.7936   -0.1906 C   0  0  0  0  0  0  0  0  0  0  0  0
    5.2212   -0.3911    0.0346 C   0  0  0  0  0  0  0  0  0  0  0  0
    6.5529   -0.3791    0.4130 N   0  0  0  0  0  0  0  0  0  0  0  0
    7.3981   -1.5547    0.2127 C   0  0  0  0  0  0  0  0  0  0  0  0
    8.2817   -1.3669   -1.0302 C   0  0  0  0  0  0  0  0  0  0  0  0
    9.0620   -0.0449   -0.9764 C   0  0  0  0  0  0  0  0  0  0  0  0
    8.1316    1.1440   -0.6928 C   0  0  2  0  0  0  0  0  0  0  0  0
    8.9462    2.3570   -0.5293 N   0  0  0  0  0  0  0  0  0  0  0  0
    8.2083    3.8787   -0.4992 S   0  0  1  0  0  0  0  0  0  0  0  0
    9.0835    4.7516   -1.2842 O   0  0  0  0  0  0  0  0  0  0  0  0
    6.7793    3.7312   -0.8102 O   0  0  0  0  0  0  0  0  0  0  0  0
    8.3383    4.3905    1.2171 C   0  0  0  0  0  0  0  0  0  0  0  0
    9.6292    4.5609    1.7844 C   0  0  0  0  0  0  0  0  0  0  0  0
    9.7435    4.9933    3.0848 C   0  0  0  0  0  0  0  0  0  0  0  0
    8.5849    5.2862    3.8627 C   0  0  0  0  0  0  0  0  0  0  0  0
    8.7487    5.7100    5.1445 N   0  0  0  0  0  0  0  0  0  0  0  0
    7.6743    5.9837    5.8521 C   0  0  0  0  0  0  0  0  0  0  0  0
    6.3465    5.8657    5.3607 C   0  0  0  0  0  0  0  0  0  0  0  0
    6.1565    5.4371    4.0660 C   0  0  0  0  0  0  0  0  0  0  0  0
    7.2896    5.1277    3.2674 C   0  0  0  0  0  0  0  0  0  0  0  0
    7.1910    4.6742    1.9234 C   0  0  0  0  0  0  0  0  0  0  0  0
    7.3071    0.8464    0.5731 C   0  0  0  0  0  0  0  0  0  0  0  0
    4.6533   -1.5992   -0.1157 N   0  0  0  0  0  0  0  0  0  0  0  0
    3.3749   -1.7271   -0.4196 N   0  0  0  0  0  0  0  0  0  0  0  0
    0.8529   -0.4442   -1.8688 H   0  0  0  0  0  0  0  0  0  0  0  0
    0.4827   -0.5049   -0.1330 H   0  0  0  0  0  0  0  0  0  0  0  0
    0.9763   -1.9959   -0.9863 H   0  0  0  0  0  0  0  0  0  0  0  0
    2.5065    1.5157   -0.6928 H   0  0  0  0  0  0  0  0  0  0  0  0
    4.9210    1.7851   -0.1656 H   0  0  0  0  0  0  0  0  0  0  0  0
    6.7494   -2.4321    0.1168 H   0  0  0  0  0  0  0  0  0  0  0  0
    8.0307   -1.6873    1.1096 H   0  0  0  0  0  0  0  0  0  0  0  0
    7.6388   -1.3849   -1.9270 H   0  0  0  0  0  0  0  0  0  0  0  0
    8.9830   -2.2125   -1.1242 H   0  0  0  0  0  0  0  0  0  0  0  0
    9.6072    0.1196   -1.9224 H   0  0  0  0  0  0  0  0  0  0  0  0
    9.8198   -0.0884   -0.1733 H   0  0  0  0  0  0  0  0  0  0  0  0
    7.4252    1.2600   -1.5353 H   0  0  0  0  0  0  0  0  0  0  0  0
    9.7269    2.4239   -1.1830 H   0  0  0  0  0  0  0  0  0  0  0  0
   10.5157    4.3469    1.1851 H   0  0  0  0  0  0  0  0  0  0  0  0
   10.7168    5.1314    3.5593 H   0  0  0  0  0  0  0  0  0  0  0  0
    7.8371    6.3229    6.8830 H   0  0  0  0  0  0  0  0  0  0  0  0
    5.5025    6.1131    6.0082 H   0  0  0  0  0  0  0  0  0  0  0  0
    5.1531    5.3307    3.6445 H   0  0  0  0  0  0  0  0  0  0  0  0
    6.2137    4.5552    1.4513 H   0  0  0  0  0  0  0  0  0  0  0  0
    6.6420    1.6819    0.8155 H   0  0  0  0  0  0  0  0  0  0  0  0
    8.0035    0.7320    1.4239 H   0  0  0  0  0  0  0  0  0  0  0  0
  1  2  1  0
  1 28  1  0
  1 29  1  0
  1 30  1  0
  2  3  2  0
  2 27  1  0
  3  4  1  0
  3 31  1  0
  4  5  2  0
  4 32  1  0
  5  6  1  0
  5 26  1  0
  6  7  1  0
  6 25  1  0
  7  8  1  0
  7 33  1  0
  7 34  1  0
  8  9  1  0
  8 35  1  0
  8 36  1  0
  9 10  1  0
  9 37  1  0
  9 38  1  0
 10 11  1  0
 10 25  1  0
 10 39  1  6
 12 11  1  1
 11 40  1  0
 12 13  2  0
 12 14  2  0
 12 15  1  0
 15 16  2  0
 15 24  1  0
 16 17  1  0
 16 41  1  0
 17 18  2  0
 17 42  1  0
 18 19  1  0
 18 23  1  0
 19 20  2  0
 20 21  1  0
 20 43  1  0
 21 22  2  0
 21 44  1  0
 22 23  1  0
 22 45  1  0
 23 24  2  0
 24 46  1  0
 25 47  1  0
 25 48  1  0
 26 27  2  0
M  END

