
     RDKit          3D

 50 53  0  0  0  0  0  0  0  0999 V2000
    1.5201    5.3635   -5.5672 C   0  0  0  0  0  0  0  0  0  0  0  0
    2.9025    5.3284   -5.2953 O   0  0  0  0  0  0  0  0  0  0  0  0
    3.3119    5.1493   -4.0222 C   0  0  0  0  0  0  0  0  0  0  0  0
    2.4887    4.9915   -2.9285 C   0  0  0  0  0  0  0  0  0  0  0  0
    3.0304    4.8005   -1.6244 C   0  0  0  0  0  0  0  0  0  0  0  0
    2.2020    4.6224   -0.4854 C   0  0  0  0  0  0  0  0  0  0  0  0
    2.6580    4.4173    0.7322 N   0  0  0  0  0  0  0  0  0  0  0  0
    3.9972    4.3783    0.8999 C   0  0  0  0  0  0  0  0  0  0  0  0
    4.9311    4.5554   -0.1118 C   0  0  0  0  0  0  0  0  0  0  0  0
    6.4126    4.4976    0.2123 C   0  0  0  0  0  0  0  0  0  0  0  0
    7.0935    5.8544    0.2800 C   0  0  0  0  0  0  0  0  0  0  0  0
    6.8237    6.7411    1.3641 C   0  0  0  0  0  0  0  0  0  0  0  0
    7.4646    7.9568    1.4249 C   0  0  0  0  0  0  0  0  0  0  0  0
    8.3754    8.3316    0.3989 C   0  0  0  0  0  0  0  0  0  0  0  0
    9.0844    9.5628    0.3693 C   0  0  0  0  0  0  0  0  0  0  0  0
    9.9288    9.8386   -0.6865 C   0  0  0  0  0  0  0  0  0  0  0  0
   10.1031    8.9273   -1.7571 C   0  0  0  0  0  0  0  0  0  0  0  0
    9.4337    7.7124   -1.7497 C   0  0  0  0  0  0  0  0  0  0  0  0
    9.4861    6.7462   -2.7590 N   0  0  0  0  0  0  0  0  0  0  0  0
   10.7355    6.4639   -3.8471 S   0  0  1  0  0  0  0  0  0  0  0  0
   12.0912    5.9853   -3.0005 N   0  0  0  0  0  0  0  0  0  0  0  0
   10.2822    5.2965   -4.5887 O   0  0  0  0  0  0  0  0  0  0  0  0
   11.0877    7.7354   -4.4578 O   0  0  0  0  0  0  0  0  0  0  0  0
    8.5604    7.3875   -0.6538 C   0  0  0  0  0  0  0  0  0  0  0  0
    7.9351    6.1811   -0.6825 N   0  0  0  0  0  0  0  0  0  0  0  0
    4.4468    4.7790   -1.4393 C   0  0  0  0  0  0  0  0  0  0  0  0
    5.2844    4.9564   -2.5797 C   0  0  0  0  0  0  0  0  0  0  0  0
    4.7468    5.1303   -3.8420 C   0  0  0  0  0  0  0  0  0  0  0  0
    5.4542    5.2909   -4.9729 O   0  0  0  0  0  0  0  0  0  0  0  0
    6.8685    5.3014   -4.9165 C   0  0  0  0  0  0  0  0  0  0  0  0
    1.4180    5.5163   -6.6498 H   0  0  0  0  0  0  0  0  0  0  0  0
    1.0199    6.1944   -5.0374 H   0  0  0  0  0  0  0  0  0  0  0  0
    1.0241    4.4160   -5.2887 H   0  0  0  0  0  0  0  0  0  0  0  0
    1.4041    5.0034   -3.0405 H   0  0  0  0  0  0  0  0  0  0  0  0
    1.1112    4.6502   -0.6143 H   0  0  0  0  0  0  0  0  0  0  0  0
    4.3436    4.1806    1.9224 H   0  0  0  0  0  0  0  0  0  0  0  0
    6.9521    3.8887   -0.5278 H   0  0  0  0  0  0  0  0  0  0  0  0
    6.5307    4.0012    1.1892 H   0  0  0  0  0  0  0  0  0  0  0  0
    6.1120    6.4434    2.1368 H   0  0  0  0  0  0  0  0  0  0  0  0
    7.2794    8.6451    2.2543 H   0  0  0  0  0  0  0  0  0  0  0  0
    8.9451   10.2813    1.1805 H   0  0  0  0  0  0  0  0  0  0  0  0
   10.4689   10.7881   -0.7177 H   0  0  0  0  0  0  0  0  0  0  0  0
   10.7383    9.1884   -2.6036 H   0  0  0  0  0  0  0  0  0  0  0  0
    8.9601    5.9037   -2.5112 H   0  0  0  0  0  0  0  0  0  0  0  0
   11.9703    5.1100   -2.4937 H   0  0  0  0  0  0  0  0  0  0  0  0
   12.5111    6.7295   -2.4458 H   0  0  0  0  0  0  0  0  0  0  0  0
    6.3635    4.9709   -2.4475 H   0  0  0  0  0  0  0  0  0  0  0  0
    7.2228    5.4289   -5.9468 H   0  0  0  0  0  0  0  0  0  0  0  0
    7.2695    4.3536   -4.5175 H   0  0  0  0  0  0  0  0  0  0  0  0
    7.2443    6.1369   -4.3036 H   0  0  0  0  0  0  0  0  0  0  0  0
  1  2  1  0
  1 31  1  0
  1 32  1  0
  1 33  1  0
  2  3  1  0
  3  4  2  0
  3 28  1  0
  4  5  1  0
  4 34  1  0
  5  6  2  0
  5 26  1  0
  6  7  1  0
  6 35  1  0
  7  8  2  0
  8  9  1  0
  8 36  1  0
  9 10  1  0
  9 26  2  0
 10 11  1  0
 10 37  1  0
 10 38  1  0
 11 12  2  0
 11 25  1  0
 12 13  1  0
 12 39  1  0
 13 14  2  0
 13 40  1  0
 14 15  1  0
 14 24  1  0
 15 16  2  0
 15 41  1  0
 16 17  1  0
 16 42  1  0
 17 18  2  0
 17 43  1  0
 18 19  1  0
 18 24  1  0
 20 19  1  1
 19 44  1  0
 20 21  1  0
 20 22  2  0
 20 23  2  0
 21 45  1  0
 21 46  1  0
 24 25  2  0
 26 27  1  0
 27 28  2  0
 27 47  1  0
 28 29  1  0
 29 30  1  0
 30 48  1  0
 30 49  1  0
 30 50  1  0
M  END

