
     RDKit          3D

 25 25  0  0  0  0  0  0  0  0999 V2000
    1.8474    1.0733    0.7764 C   0  0  0  0  0  0  0  0  0  0  0  0
    2.3051    0.0080   -0.0355 O   0  0  0  0  0  0  0  0  0  0  0  0
    2.7383    0.2438   -1.2891 C   0  0  0  0  0  0  0  0  0  0  0  0
    2.7472    1.5421   -1.8947 C   0  0  0  0  0  0  0  0  0  0  0  0
    3.3881    1.6605   -3.1578 C   0  0  0  0  0  0  0  0  0  0  0  0
    3.8575    0.5282   -3.8633 C   0  0  0  0  0  0  0  0  0  0  0  0
    4.5775    0.7144   -5.1787 C   0  0  1  0  0  0  0  0  0  0  0  0
    6.0255    0.5726   -4.9722 N   0  0  0  0  0  0  0  0  0  0  0  0
    4.0429   -0.2225   -6.2814 C   0  0  0  0  0  0  0  0  0  0  0  0
    4.9995   -0.7939   -7.0519 N   0  0  0  0  0  0  0  0  0  0  0  0
    2.8456   -0.3783   -6.4399 O   0  0  0  0  0  0  0  0  0  0  0  0
    3.8151   -0.7777   -3.2830 C   0  0  0  0  0  0  0  0  0  0  0  0
    3.2483   -0.8805   -1.9806 C   0  0  0  0  0  0  0  0  0  0  0  0
    3.3605   -2.0449   -1.3157 F   0  0  0  0  0  0  0  0  0  0  0  0
    1.6291    0.6387    1.7603 H   0  0  0  0  0  0  0  0  0  0  0  0
    0.9261    1.5202    0.3651 H   0  0  0  0  0  0  0  0  0  0  0  0
    2.6139    1.8589    0.8782 H   0  0  0  0  0  0  0  0  0  0  0  0
    2.1637    2.3669   -1.4851 H   0  0  0  0  0  0  0  0  0  0  0  0
    3.4942    2.6481   -3.6161 H   0  0  0  0  0  0  0  0  0  0  0  0
    4.3868    1.7317   -5.5565 H   0  0  0  0  0  0  0  0  0  0  0  0
    6.2103   -0.1768   -4.2997 H   0  0  0  0  0  0  0  0  0  0  0  0
    6.4446    1.4273   -4.6080 H   0  0  0  0  0  0  0  0  0  0  0  0
    5.9724   -0.5687   -6.8743 H   0  0  0  0  0  0  0  0  0  0  0  0
    4.7252   -1.3788   -7.8319 H   0  0  0  0  0  0  0  0  0  0  0  0
    3.9781   -1.6814   -3.8753 H   0  0  0  0  0  0  0  0  0  0  0  0
  1  2  1  0
  1 15  1  0
  1 16  1  0
  1 17  1  0
  2  3  1  0
  3  4  2  0
  3 13  1  0
  4  5  1  0
  4 18  1  0
  5  6  2  0
  5 19  1  0
  6  7  1  0
  6 12  1  0
  7  8  1  0
  7  9  1  0
  7 20  1  6
  8 21  1  0
  8 22  1  0
  9 10  1  0
  9 11  2  0
 10 23  1  0
 10 24  1  0
 12 13  2  0
 12 25  1  0
 13 14  1  0
M  END

