
     RDKit          3D

 36 37  0  0  0  0  0  0  0  0999 V2000
    2.2458    5.2023   -0.2673 C   0  0  0  0  0  0  0  0  0  0  0  0
    3.2994    4.7971    0.5899 O   0  0  0  0  0  0  0  0  0  0  0  0
    3.6615    3.5077    0.6755 C   0  0  0  0  0  0  0  0  0  0  0  0
    3.0299    2.4656   -0.0711 C   0  0  0  0  0  0  0  0  0  0  0  0
    3.4631    1.1372    0.0757 C   0  0  0  0  0  0  0  0  0  0  0  0
    4.4923    0.8055    0.9319 C   0  0  0  0  0  0  0  0  0  0  0  0
    5.1484    1.8555    1.6928 C   0  0  0  0  0  0  0  0  0  0  0  0
    6.1708    1.6287    2.5189 N   0  0  0  0  0  0  0  0  0  0  0  0
    6.7485    0.3530    2.9118 C   0  0  0  0  0  0  0  0  0  0  0  0
    6.2502   -0.7140    2.6228 O   0  0  0  0  0  0  0  0  0  0  0  0
    7.8594    0.5517    3.6428 N   0  0  0  0  0  0  0  0  0  0  0  0
    8.4569    1.8800    3.9427 C   0  0  0  0  0  0  0  0  0  0  0  0
    7.6388    2.8300    4.1760 O   0  0  0  0  0  0  0  0  0  0  0  0
    9.8661    1.9350    4.0138 C   0  0  0  0  0  0  0  0  0  0  0  0
   10.7478    0.8431    3.7078 C   0  0  0  0  0  0  0  0  0  0  0  0
   12.1240    0.9726    3.8193 C   0  0  0  0  0  0  0  0  0  0  0  0
   12.7226    2.1770    4.2463 C   0  0  0  0  0  0  0  0  0  0  0  0
   14.1176    2.3184    4.3086 N   0  0  0  0  0  0  0  0  0  0  0  0
   11.8648    3.2653    4.5490 C   0  0  0  0  0  0  0  0  0  0  0  0
   10.4941    3.1561    4.4400 C   0  0  0  0  0  0  0  0  0  0  0  0
    4.6999    3.2017    1.5389 C   0  0  0  0  0  0  0  0  0  0  0  0
    2.1574    6.2890   -0.1472 H   0  0  0  0  0  0  0  0  0  0  0  0
    1.2880    4.7326    0.0143 H   0  0  0  0  0  0  0  0  0  0  0  0
    2.4700    4.9767   -1.3237 H   0  0  0  0  0  0  0  0  0  0  0  0
    2.2105    2.6901   -0.7522 H   0  0  0  0  0  0  0  0  0  0  0  0
    2.9689    0.3527   -0.5004 H   0  0  0  0  0  0  0  0  0  0  0  0
    4.8306   -0.2181    1.0678 H   0  0  0  0  0  0  0  0  0  0  0  0
    6.6048    2.4035    3.1470 H   0  0  0  0  0  0  0  0  0  0  0  0
    8.2674   -0.2867    4.0423 H   0  0  0  0  0  0  0  0  0  0  0  0
   10.3446   -0.1076    3.3536 H   0  0  0  0  0  0  0  0  0  0  0  0
   12.7638    0.1212    3.5654 H   0  0  0  0  0  0  0  0  0  0  0  0
   14.6192    1.4464    4.4474 H   0  0  0  0  0  0  0  0  0  0  0  0
   14.4350    3.0209    4.9700 H   0  0  0  0  0  0  0  0  0  0  0  0
   12.3057    4.2129    4.8754 H   0  0  0  0  0  0  0  0  0  0  0  0
    9.8493    4.0017    4.6832 H   0  0  0  0  0  0  0  0  0  0  0  0
    5.1780    4.0013    2.1040 H   0  0  0  0  0  0  0  0  0  0  0  0
  1  2  1  0
  1 22  1  0
  1 23  1  0
  1 24  1  0
  2  3  1  0
  3  4  2  0
  3 21  1  0
  4  5  1  0
  4 25  1  0
  5  6  2  0
  5 26  1  0
  6  7  1  0
  6 27  1  0
  7  8  1  0
  7 21  2  0
  8  9  1  0
  8 28  1  0
  9 10  2  0
  9 11  1  0
 11 12  1  0
 11 29  1  0
 12 13  2  0
 12 14  1  0
 14 15  2  0
 14 20  1  0
 15 16  1  0
 15 30  1  0
 16 17  2  0
 16 31  1  0
 17 18  1  0
 17 19  1  0
 18 32  1  0
 18 33  1  0
 19 20  2  0
 19 34  1  0
 20 35  1  0
 21 36  1  0
M  END

