
     RDKit          3D

 43 45  0  0  0  0  0  0  0  0999 V2000
    3.5422    0.5973   -1.5735 C   0  0  0  0  0  0  0  0  0  0  0  0
    4.3212   -0.0687   -0.4373 C   0  0  0  0  0  0  0  0  0  0  0  0
    4.8829    0.8713    0.5190 N   0  0  0  0  0  0  0  0  0  0  0  0
    4.2012    1.2584    1.6416 C   0  0  0  0  0  0  0  0  0  0  0  0
    3.0973    0.8132    1.9229 O   0  0  0  0  0  0  0  0  0  0  0  0
    4.8905    2.2693    2.5226 C   0  0  0  0  0  0  0  0  0  0  0  0
    4.0953    2.9849    3.4281 C   0  0  0  0  0  0  0  0  0  0  0  0
    4.6671    3.9311    4.2795 C   0  0  0  0  0  0  0  0  0  0  0  0
    6.0471    4.1767    4.2594 C   0  0  0  0  0  0  0  0  0  0  0  0
    6.6812    5.1907    5.1957 C   0  0  0  0  0  0  0  0  0  0  0  0
    7.4981    4.5958    6.2391 N   0  0  0  0  0  0  0  0  0  0  0  0
    8.8499    4.4914    6.1391 C   0  0  0  0  0  0  0  0  0  0  0  0
    9.5106    4.9032    5.1935 O   0  0  0  0  0  0  0  0  0  0  0  0
    9.4883    3.8186    7.3156 C   0  0  0  0  0  0  0  0  0  0  0  0
   10.8484    3.6352    7.4388 C   0  0  0  0  0  0  0  0  0  0  0  0
   11.2063    2.8278    8.9112 S   0  0  0  0  0  0  0  0  0  0  0  0
    9.4831    2.7880    9.2672 C   0  0  0  0  0  0  0  0  0  0  0  0
    9.0114    2.1633   10.5172 C   0  0  0  0  0  0  0  0  0  0  0  0
    7.6949    2.1457   10.7563 N   0  0  0  0  0  0  0  0  0  0  0  0
    7.3057    1.5699   11.8922 C   0  0  0  0  0  0  0  0  0  0  0  0
    8.2111    1.0097   12.7982 C   0  0  0  0  0  0  0  0  0  0  0  0
    9.5615    1.0859   12.4482 C   0  0  0  0  0  0  0  0  0  0  0  0
    9.9637    1.6582   11.3156 N   0  0  0  0  0  0  0  0  0  0  0  0
    8.7375    3.3372    8.3509 N   0  0  0  0  0  0  0  0  0  0  0  0
    6.8470    3.4475    3.3636 C   0  0  0  0  0  0  0  0  0  0  0  0
    6.2762    2.5051    2.5089 C   0  0  0  0  0  0  0  0  0  0  0  0
    3.1523   -0.1614   -2.2713 H   0  0  0  0  0  0  0  0  0  0  0  0
    4.1794    1.2890   -2.1496 H   0  0  0  0  0  0  0  0  0  0  0  0
    2.6886    1.1661   -1.1741 H   0  0  0  0  0  0  0  0  0  0  0  0
    5.1429   -0.6828   -0.8434 H   0  0  0  0  0  0  0  0  0  0  0  0
    3.6559   -0.7355    0.1292 H   0  0  0  0  0  0  0  0  0  0  0  0
    5.6994    1.4023    0.2434 H   0  0  0  0  0  0  0  0  0  0  0  0
    3.0238    2.7774    3.4490 H   0  0  0  0  0  0  0  0  0  0  0  0
    4.0297    4.4877    4.9732 H   0  0  0  0  0  0  0  0  0  0  0  0
    5.8974    5.8067    5.6642 H   0  0  0  0  0  0  0  0  0  0  0  0
    7.3439    5.8584    4.6257 H   0  0  0  0  0  0  0  0  0  0  0  0
    7.0627    4.1489    7.0413 H   0  0  0  0  0  0  0  0  0  0  0  0
   11.6110    3.9442    6.7265 H   0  0  0  0  0  0  0  0  0  0  0  0
    6.2273    1.5528   12.0912 H   0  0  0  0  0  0  0  0  0  0  0  0
    7.8817    0.5396   13.7263 H   0  0  0  0  0  0  0  0  0  0  0  0
   10.3411    0.6736   13.0995 H   0  0  0  0  0  0  0  0  0  0  0  0
    7.9258    3.6234    3.3479 H   0  0  0  0  0  0  0  0  0  0  0  0
    6.9300    1.9326    1.8457 H   0  0  0  0  0  0  0  0  0  0  0  0
  1  2  1  0
  1 27  1  0
  1 28  1  0
  1 29  1  0
  2  3  1  0
  2 30  1  0
  2 31  1  0
  3  4  1  0
  3 32  1  0
  4  5  2  0
  4  6  1  0
  6  7  2  0
  6 26  1  0
  7  8  1  0
  7 33  1  0
  8  9  2  0
  8 34  1  0
  9 10  1  0
  9 25  1  0
 10 11  1  0
 10 35  1  0
 10 36  1  0
 11 12  1  0
 11 37  1  0
 12 13  2  0
 12 14  1  0
 14 15  2  0
 14 24  1  0
 15 16  1  0
 15 38  1  0
 16 17  1  0
 17 18  1  0
 17 24  2  0
 18 19  2  0
 18 23  1  0
 19 20  1  0
 20 21  2  0
 20 39  1  0
 21 22  1  0
 21 40  1  0
 22 23  2  0
 22 41  1  0
 25 26  2  0
 25 42  1  0
 26 43  1  0
M  END

