
     RDKit          3D

 50 51  0  0  0  0  0  0  0  0999 V2000
    7.4548   -2.1690   -2.4985 C   0  0  0  0  0  0  0  0  0  0  0  0
    7.0886   -1.6818   -1.2359 O   0  0  0  0  0  0  0  0  0  0  0  0
    7.6428   -0.4303   -0.9209 C   0  0  0  0  0  0  0  0  0  0  0  0
    7.1352    0.0060    0.4596 C   0  0  1  0  0  0  0  0  0  0  0  0
    7.4997   -0.9912    1.5570 C   0  0  0  0  0  0  0  0  0  0  0  0
    7.6493    1.3308    0.7847 N   0  0  0  0  0  0  0  0  0  0  0  0
    6.9807    2.4602    0.4577 C   0  0  0  0  0  0  0  0  0  0  0  0
    5.9132    2.5239   -0.1229 O   0  0  0  0  0  0  0  0  0  0  0  0
    7.6157    3.6773    0.8551 N   0  0  0  0  0  0  0  0  0  0  0  0
    8.8170    3.8789    1.4926 C   0  0  0  0  0  0  0  0  0  0  0  0
    9.5560    2.9745    1.8486 O   0  0  0  0  0  0  0  0  0  0  0  0
    9.1548    5.3644    1.7260 C   0  0  0  0  0  0  0  0  0  0  0  0
   10.3156    5.6355    2.5246 N   0  0  0  0  0  0  0  0  0  0  0  0
   10.2654    5.2183    3.9296 C   0  0  0  0  0  0  0  0  0  0  0  0
   10.5192    6.3453    4.9303 C   0  0  0  0  0  0  0  0  0  0  0  0
   11.9258    6.9443    4.8058 C   0  0  0  0  0  0  0  0  0  0  0  0
   12.2517    7.5739    3.5372 N   0  0  0  0  0  0  0  0  0  0  0  0
   11.5661    8.8192    3.2369 C   0  0  0  0  0  0  0  0  0  0  0  0
   12.5147    6.7356    2.4109 C   0  0  0  0  0  0  0  0  0  0  0  0
   13.7402    6.9036    1.7481 C   0  0  0  0  0  0  0  0  0  0  0  0
   14.0500    6.2025    0.5821 C   0  0  0  0  0  0  0  0  0  0  0  0
   13.1229    5.2903    0.0734 C   0  0  0  0  0  0  0  0  0  0  0  0
   11.9101    5.0835    0.7316 C   0  0  0  0  0  0  0  0  0  0  0  0
   11.5734    5.8022    1.8960 C   0  0  0  0  0  0  0  0  0  0  0  0
    6.9626   -3.1423   -2.6407 H   0  0  0  0  0  0  0  0  0  0  0  0
    8.5514   -2.3122   -2.5869 H   0  0  0  0  0  0  0  0  0  0  0  0
    7.1347   -1.4894   -3.3143 H   0  0  0  0  0  0  0  0  0  0  0  0
    7.3484    0.3329   -1.6695 H   0  0  0  0  0  0  0  0  0  0  0  0
    8.7543   -0.4775   -0.9139 H   0  0  0  0  0  0  0  0  0  0  0  0
    6.0404    0.0934    0.3865 H   0  0  0  0  0  0  0  0  0  0  0  0
    8.5944   -1.0629    1.6799 H   0  0  0  0  0  0  0  0  0  0  0  0
    7.1245   -1.9890    1.2918 H   0  0  0  0  0  0  0  0  0  0  0  0
    7.0638   -0.6901    2.5218 H   0  0  0  0  0  0  0  0  0  0  0  0
    8.5461    1.4439    1.2604 H   0  0  0  0  0  0  0  0  0  0  0  0
    7.0594    4.4856    0.5920 H   0  0  0  0  0  0  0  0  0  0  0  0
    8.2628    5.8315    2.1881 H   0  0  0  0  0  0  0  0  0  0  0  0
    9.2654    5.8435    0.7383 H   0  0  0  0  0  0  0  0  0  0  0  0
   10.9837    4.3953    4.1021 H   0  0  0  0  0  0  0  0  0  0  0  0
    9.2692    4.7882    4.1140 H   0  0  0  0  0  0  0  0  0  0  0  0
   10.3916    5.9445    5.9522 H   0  0  0  0  0  0  0  0  0  0  0  0
    9.7566    7.1332    4.8018 H   0  0  0  0  0  0  0  0  0  0  0  0
   12.6715    6.1506    4.9896 H   0  0  0  0  0  0  0  0  0  0  0  0
   12.0704    7.6975    5.6010 H   0  0  0  0  0  0  0  0  0  0  0  0
   11.5985    9.4810    4.1191 H   0  0  0  0  0  0  0  0  0  0  0  0
   10.5016    8.6994    2.9429 H   0  0  0  0  0  0  0  0  0  0  0  0
   12.0785    9.3383    2.4120 H   0  0  0  0  0  0  0  0  0  0  0  0
   14.4426    7.6248    2.1727 H   0  0  0  0  0  0  0  0  0  0  0  0
   15.0081    6.3609    0.0812 H   0  0  0  0  0  0  0  0  0  0  0  0
   13.3498    4.7166   -0.8291 H   0  0  0  0  0  0  0  0  0  0  0  0
   11.2208    4.3293    0.3513 H   0  0  0  0  0  0  0  0  0  0  0  0
  1  2  1  0
  1 25  1  0
  1 26  1  0
  1 27  1  0
  2  3  1  0
  3  4  1  0
  3 28  1  0
  3 29  1  0
  4  5  1  0
  4  6  1  0
  4 30  1  6
  5 31  1  0
  5 32  1  0
  5 33  1  0
  6  7  1  0
  6 34  1  0
  7  8  2  0
  7  9  1  0
  9 10  1  0
  9 35  1  0
 10 11  2  0
 10 12  1  0
 12 13  1  0
 12 36  1  0
 12 37  1  0
 13 14  1  0
 13 24  1  0
 14 15  1  0
 14 38  1  0
 14 39  1  0
 15 16  1  0
 15 40  1  0
 15 41  1  0
 16 17  1  0
 16 42  1  0
 16 43  1  0
 17 18  1  0
 17 19  1  0
 18 44  1  0
 18 45  1  0
 18 46  1  0
 19 20  2  0
 19 24  1  0
 20 21  1  0
 20 47  1  0
 21 22  2  0
 21 48  1  0
 22 23  1  0
 22 49  1  0
 23 24  2  0
 23 50  1  0
M  END

