
     RDKit          3D

116126  0  0  0  0  0  0  0  0999 V2000
    4.3594   13.6731   11.0752 C   0  0  0  0  0  0  0  0  0  0  0  0
    5.1701   12.9548   10.1737 O   0  0  0  0  0  0  0  0  0  0  0  0
    5.0358   11.6071   10.0697 C   0  0  0  0  0  0  0  0  0  0  0  0
    4.0986   10.8497   10.8264 C   0  0  0  0  0  0  0  0  0  0  0  0
    4.0222    9.4807   10.6614 C   0  0  0  0  0  0  0  0  0  0  0  0
    4.8626    8.7946    9.7467 C   0  0  0  0  0  0  0  0  0  0  0  0
    4.8021    7.3852    9.5611 C   0  0  0  0  0  0  0  0  0  0  0  0
    5.6256    6.7322    8.6632 C   0  0  0  0  0  0  0  0  0  0  0  0
    5.5244    5.2194    8.4837 C   0  0  1  0  0  0  0  0  0  0  0  0
    5.1873    4.8015    7.0423 C   0  0  0  0  0  0  0  0  0  0  0  0
    6.7830    4.5417    9.0211 C   0  0  0  0  0  0  0  0  0  0  0  0
    6.8806    4.0245   10.0997 O   0  0  0  0  0  0  0  0  0  0  0  0
    7.8046    4.6091    8.1143 O   0  0  0  0  0  0  0  0  0  0  0  0
    9.0782    4.1336    8.3961 C   0  0  0  0  0  0  0  0  0  0  0  0
    9.7174    3.4250    7.3768 C   0  0  0  0  0  0  0  0  0  0  0  0
   11.0269    2.9794    7.5585 C   0  0  0  0  0  0  0  0  0  0  0  0
   11.7221    3.2365    8.7550 C   0  0  0  0  0  0  0  0  0  0  0  0
   13.1265    2.7722    8.9501 C   0  0  0  0  0  0  0  0  0  0  0  0
   14.1282    3.7647    9.1688 C   0  0  0  0  0  0  0  0  0  0  0  0
   15.4301    3.5196    9.5104 N   0  0  0  0  0  0  0  0  0  0  0  0
   16.0111    4.7482    9.6665 C   0  0  0  0  0  0  0  0  0  0  0  0
   17.3612    4.9830   10.0665 C   0  0  0  0  0  0  0  0  0  0  0  0
   17.7672    6.3883   10.3562 C   0  0  0  0  0  0  0  0  0  0  0  0
   18.7974    7.0187    9.6359 C   0  0  0  0  0  0  0  0  0  0  0  0
   19.1710    8.3358    9.9149 C   0  0  0  0  0  0  0  0  0  0  0  0
   18.5387    9.0742   10.9256 C   0  0  0  0  0  0  0  0  0  0  0  0
   18.9305   10.4999   11.2258 C   0  0  0  0  0  0  0  0  0  0  0  0
   17.5114    8.4425   11.6484 C   0  0  0  0  0  0  0  0  0  0  0  0
   17.1282    7.1323   11.3682 C   0  0  0  0  0  0  0  0  0  0  0  0
   18.3505    3.9880   10.2164 C   0  0  0  0  0  0  0  0  0  0  0  0
   19.6824    4.1689   10.7251 C   0  0  0  0  0  0  0  0  0  0  0  0
   20.3202    2.9524   10.6955 C   0  0  0  0  0  0  0  0  0  0  0  0
   19.4041    1.9789   10.1672 C   0  0  0  0  0  0  0  0  0  0  0  0
   18.2278    2.6496    9.9098 N   0  0  0  0  0  0  0  0  0  0  0  0
   17.3656    2.2078    9.6002 H   0  0  0  0  0  0  0  0  0  0  0  0
   19.6610    0.6071    9.9570 C   0  0  0  0  0  0  0  0  0  0  0  0
   21.0578    0.1404   10.1926 C   0  0  0  0  0  0  0  0  0  0  0  0
   21.3416   -0.8427   11.1584 C   0  0  0  0  0  0  0  0  0  0  0  0
   22.6500   -1.2730   11.3851 C   0  0  0  0  0  0  0  0  0  0  0  0
   23.7273   -0.7519   10.6514 C   0  0  0  0  0  0  0  0  0  0  0  0
   25.1382   -1.2395   10.8716 C   0  0  0  0  0  0  0  0  0  0  0  0
   23.4439    0.2268    9.6846 C   0  0  0  0  0  0  0  0  0  0  0  0
   22.1394    0.6669    9.4602 C   0  0  0  0  0  0  0  0  0  0  0  0
   18.6969   -0.3597    9.5404 C   0  0  0  0  0  0  0  0  0  0  0  0
   17.3513   -0.1430    9.4218 N   0  0  0  0  0  0  0  0  0  0  0  0
   16.8127   -1.3434    9.0461 C   0  0  0  0  0  0  0  0  0  0  0  0
   15.4235   -1.6039    8.8456 C   0  0  0  0  0  0  0  0  0  0  0  0
   15.0058   -3.0159    8.6104 C   0  0  0  0  0  0  0  0  0  0  0  0
   15.2597   -4.0163    9.5701 C   0  0  0  0  0  0  0  0  0  0  0  0
   14.8640   -5.3350    9.3561 C   0  0  0  0  0  0  0  0  0  0  0  0
   14.2080   -5.7188    8.1730 C   0  0  0  0  0  0  0  0  0  0  0  0
   13.7891   -7.1517    7.9539 C   0  0  0  0  0  0  0  0  0  0  0  0
   13.9615   -4.7251    7.2151 C   0  0  0  0  0  0  0  0  0  0  0  0
   14.3477   -3.3993    7.4283 C   0  0  0  0  0  0  0  0  0  0  0  0
   14.4027   -0.6292    8.8541 C   0  0  0  0  0  0  0  0  0  0  0  0
   12.9873   -0.8636    8.7684 C   0  0  0  0  0  0  0  0  0  0  0  0
   12.3497    0.3532    8.7970 C   0  0  0  0  0  0  0  0  0  0  0  0
   13.3500    1.3801    8.9022 C   0  0  0  0  0  0  0  0  0  0  0  0
   14.5675    0.7361    8.9495 N   0  0  0  0  0  0  0  0  0  0  0  0
   15.4608    1.1974    9.1035 H   0  0  0  0  0  0  0  0  0  0  0  0
   17.8524   -2.3442    8.8768 C   0  0  0  0  0  0  0  0  0  0  0  0
   19.0313   -1.7290    9.1861 C   0  0  0  0  0  0  0  0  0  0  0  0
   15.0622    5.8085    9.3719 C   0  0  0  0  0  0  0  0  0  0  0  0
   13.8839    5.1930    9.0604 C   0  0  0  0  0  0  0  0  0  0  0  0
   11.0527    3.9565    9.7633 C   0  0  0  0  0  0  0  0  0  0  0  0
    9.7414    4.4023    9.5978 C   0  0  0  0  0  0  0  0  0  0  0  0
    6.5636    7.5036    7.9128 C   0  0  0  0  0  0  0  0  0  0  0  0
    6.6506    8.8683    8.0689 C   0  0  0  0  0  0  0  0  0  0  0  0
    5.8071    9.5623    8.9855 C   0  0  0  0  0  0  0  0  0  0  0  0
    5.8715   10.9641    9.1675 C   0  0  0  0  0  0  0  0  0  0  0  0
    4.6515   14.7281   10.9841 H   0  0  0  0  0  0  0  0  0  0  0  0
    4.5155   13.3513   12.1209 H   0  0  0  0  0  0  0  0  0  0  0  0
    3.2854   13.5806   10.8318 H   0  0  0  0  0  0  0  0  0  0  0  0
    3.4360   11.3400   11.5399 H   0  0  0  0  0  0  0  0  0  0  0  0
    3.2990    8.9072   11.2479 H   0  0  0  0  0  0  0  0  0  0  0  0
    4.0788    6.8141   10.1509 H   0  0  0  0  0  0  0  0  0  0  0  0
    4.7309    4.8612    9.1550 H   0  0  0  0  0  0  0  0  0  0  0  0
    5.9578    5.1334    6.3325 H   0  0  0  0  0  0  0  0  0  0  0  0
    4.2270    5.2468    6.7413 H   0  0  0  0  0  0  0  0  0  0  0  0
    5.0992    3.7065    6.9590 H   0  0  0  0  0  0  0  0  0  0  0  0
    9.1828    3.2400    6.4429 H   0  0  0  0  0  0  0  0  0  0  0  0
   11.5272    2.4380    6.7526 H   0  0  0  0  0  0  0  0  0  0  0  0
   19.3011    6.4729    8.8347 H   0  0  0  0  0  0  0  0  0  0  0  0
   19.9694    8.8004    9.3290 H   0  0  0  0  0  0  0  0  0  0  0  0
   19.8280   10.8007   10.6651 H   0  0  0  0  0  0  0  0  0  0  0  0
   19.1371   10.6426   12.2993 H   0  0  0  0  0  0  0  0  0  0  0  0
   18.1205   11.2009   10.9602 H   0  0  0  0  0  0  0  0  0  0  0  0
   17.0041    8.9875   12.4503 H   0  0  0  0  0  0  0  0  0  0  0  0
   16.3308    6.6652   11.9505 H   0  0  0  0  0  0  0  0  0  0  0  0
   20.0839    5.1109   11.0867 H   0  0  0  0  0  0  0  0  0  0  0  0
   21.3302    2.7340   11.0295 H   0  0  0  0  0  0  0  0  0  0  0  0
   20.5241   -1.2616   11.7495 H   0  0  0  0  0  0  0  0  0  0  0  0
   22.8387   -2.0279   12.1540 H   0  0  0  0  0  0  0  0  0  0  0  0
   25.2388   -1.7698   11.8304 H   0  0  0  0  0  0  0  0  0  0  0  0
   25.8597   -0.4071   10.8642 H   0  0  0  0  0  0  0  0  0  0  0  0
   25.4458   -1.9388   10.0743 H   0  0  0  0  0  0  0  0  0  0  0  0
   24.2603    0.6502    9.0918 H   0  0  0  0  0  0  0  0  0  0  0  0
   21.9479    1.4216    8.6939 H   0  0  0  0  0  0  0  0  0  0  0  0
   15.7620   -3.7458   10.5016 H   0  0  0  0  0  0  0  0  0  0  0  0
   15.0651   -6.0850   10.1272 H   0  0  0  0  0  0  0  0  0  0  0  0
   14.6550   -7.8336    7.9972 H   0  0  0  0  0  0  0  0  0  0  0  0
   13.3024   -7.2869    6.9768 H   0  0  0  0  0  0  0  0  0  0  0  0
   13.0815   -7.4851    8.7318 H   0  0  0  0  0  0  0  0  0  0  0  0
   13.4623   -4.9925    6.2792 H   0  0  0  0  0  0  0  0  0  0  0  0
   14.1530   -2.6501    6.6573 H   0  0  0  0  0  0  0  0  0  0  0  0
   12.5246   -1.8446    8.7156 H   0  0  0  0  0  0  0  0  0  0  0  0
   11.2789    0.5325    8.7719 H   0  0  0  0  0  0  0  0  0  0  0  0
   17.7069   -3.3683    8.5439 H   0  0  0  0  0  0  0  0  0  0  0  0
   20.0300   -2.1560    9.1544 H   0  0  0  0  0  0  0  0  0  0  0  0
   15.2716    6.8747    9.3777 H   0  0  0  0  0  0  0  0  0  0  0  0
   12.9498    5.6627    8.7640 H   0  0  0  0  0  0  0  0  0  0  0  0
   11.5697    4.1627   10.7029 H   0  0  0  0  0  0  0  0  0  0  0  0
    9.2378    4.9436   10.3975 H   0  0  0  0  0  0  0  0  0  0  0  0
    7.2302    6.9998    7.2102 H   0  0  0  0  0  0  0  0  0  0  0  0
    7.3774    9.4404    7.4858 H   0  0  0  0  0  0  0  0  0  0  0  0
    6.5844   11.5632    8.5970 H   0  0  0  0  0  0  0  0  0  0  0  0
  1  2  1  0
  1 71  1  0
  1 72  1  0
  1 73  1  0
  2  3  1  0
  3  4  2  0
  3 70  1  0
  4  5  1  0
  4 74  1  0
  5  6  2  0
  5 75  1  0
  6  7  1  0
  6 69  1  0
  7  8  2  0
  7 76  1  0
  8  9  1  0
  8 67  1  0
  9 10  1  0
  9 11  1  0
  9 77  1  1
 10 78  1  0
 10 79  1  0
 10 80  1  0
 11 12  2  0
 11 13  1  0
 13 14  1  0
 14 15  2  0
 14 66  1  0
 15 16  1  0
 15 81  1  0
 16 17  2  0
 16 82  1  0
 17 18  1  0
 17 65  1  0
 18 19  1  0
 18 58  2  0
 19 20  2  0
 19 64  1  0
 20 21  1  0
 21 22  2  0
 21 63  1  0
 22 23  1  0
 22 30  1  0
 23 24  2  0
 23 29  1  0
 24 25  1  0
 24 83  1  0
 25 26  2  0
 25 84  1  0
 26 27  1  0
 26 28  1  0
 27 85  1  0
 27 86  1  0
 27 87  1  0
 28 29  2  0
 28 88  1  0
 29 89  1  0
 30 31  2  0
 30 34  1  0
 31 32  1  0
 31 90  1  0
 32 33  2  0
 32 91  1  0
 33 34  1  0
 33 36  1  0
 34 35  1  0
 36 37  1  0
 36 44  2  0
 37 38  2  0
 37 43  1  0
 38 39  1  0
 38 92  1  0
 39 40  2  0
 39 93  1  0
 40 41  1  0
 40 42  1  0
 41 94  1  0
 41 95  1  0
 41 96  1  0
 42 43  2  0
 42 97  1  0
 43 98  1  0
 44 45  1  0
 44 62  1  0
 45 46  2  0
 46 47  1  0
 46 61  1  0
 47 48  1  0
 47 55  2  0
 48 49  2  0
 48 54  1  0
 49 50  1  0
 49 99  1  0
 50 51  2  0
 50100  1  0
 51 52  1  0
 51 53  1  0
 52101  1  0
 52102  1  0
 52103  1  0
 53 54  2  0
 53104  1  0
 54105  1  0
 55 56  1  0
 55 59  1  0
 56 57  2  0
 56106  1  0
 57 58  1  0
 57107  1  0
 58 59  1  0
 59 60  1  0
 61 62  2  0
 61108  1  0
 62109  1  0
 63 64  2  0
 63110  1  0
 64111  1  0
 65 66  2  0
 65112  1  0
 66113  1  0
 67 68  2  0
 67114  1  0
 68 69  1  0
 68115  1  0
 69 70  2  0
 70116  1  0
M  END

