
     RDKit          3D

 42 44  0  0  0  0  0  0  0  0999 V2000
    1.1889    0.7597   -1.5515 C   0  0  0  0  0  0  0  0  0  0  0  0
    2.6066    0.8017   -0.9997 C   0  0  0  0  0  0  0  0  0  0  0  0
    3.0117    1.7091   -0.3007 O   0  0  0  0  0  0  0  0  0  0  0  0
    3.3785   -0.2838   -1.3770 N   0  0  0  0  0  0  0  0  0  0  0  0
    4.7163   -0.5736   -1.0680 C   0  0  0  0  0  0  0  0  0  0  0  0
    5.5278    0.2610   -0.2716 C   0  0  0  0  0  0  0  0  0  0  0  0
    6.8447   -0.1007   -0.0109 C   0  0  0  0  0  0  0  0  0  0  0  0
    7.4130   -1.2876   -0.5187 C   0  0  0  0  0  0  0  0  0  0  0  0
    8.7903   -1.7029   -0.2642 C   0  0  0  0  0  0  0  0  0  0  0  0
    9.7270   -1.0835    0.4829 C   0  0  0  0  0  0  0  0  0  0  0  0
   11.0848   -1.6790    0.6172 C   0  0  0  0  0  0  0  0  0  0  0  0
   11.4117   -2.7222    0.0688 O   0  0  0  0  0  0  0  0  0  0  0  0
   11.9289   -0.9357    1.4207 N   0  0  0  0  0  0  0  0  0  0  0  0
   13.2688   -1.1748    1.7804 C   0  0  0  0  0  0  0  0  0  0  0  0
   13.9869   -2.3071    1.3160 C   0  0  0  0  0  0  0  0  0  0  0  0
   15.3167   -2.5225    1.6878 C   0  0  0  0  0  0  0  0  0  0  0  0
   15.8969   -1.5821    2.5280 C   0  0  0  0  0  0  0  0  0  0  0  0
   17.1619   -1.5347    3.0494 O   0  0  0  0  0  0  0  0  0  0  0  0
   17.1786   -0.3905    3.8064 C   0  0  0  0  0  0  0  0  0  0  0  0
   18.4494   -0.0732    4.5087 C   0  0  0  0  0  0  0  0  0  0  0  0
   16.0706    0.2779    3.8152 N   0  0  0  0  0  0  0  0  0  0  0  0
   15.2095   -0.4542    3.0015 C   0  0  0  0  0  0  0  0  0  0  0  0
   13.8814   -0.2370    2.6309 C   0  0  0  0  0  0  0  0  0  0  0  0
    6.5870   -2.1064   -1.3146 C   0  0  0  0  0  0  0  0  0  0  0  0
    5.2679   -1.7610   -1.5847 C   0  0  0  0  0  0  0  0  0  0  0  0
    0.6382    1.6226   -1.1592 H   0  0  0  0  0  0  0  0  0  0  0  0
    0.6711   -0.1674   -1.2561 H   0  0  0  0  0  0  0  0  0  0  0  0
    1.1959    0.8073   -2.6530 H   0  0  0  0  0  0  0  0  0  0  0  0
    2.9192   -0.9738   -1.9605 H   0  0  0  0  0  0  0  0  0  0  0  0
    5.1094    1.1810    0.1291 H   0  0  0  0  0  0  0  0  0  0  0  0
    7.4476    0.5675    0.6082 H   0  0  0  0  0  0  0  0  0  0  0  0
    9.1099   -2.6389   -0.7365 H   0  0  0  0  0  0  0  0  0  0  0  0
    9.5142   -0.1439    1.0027 H   0  0  0  0  0  0  0  0  0  0  0  0
   11.5307   -0.0922    1.8149 H   0  0  0  0  0  0  0  0  0  0  0  0
   13.4743   -3.0070    0.6609 H   0  0  0  0  0  0  0  0  0  0  0  0
   15.8665   -3.3942    1.3290 H   0  0  0  0  0  0  0  0  0  0  0  0
   18.7240   -0.8835    5.2032 H   0  0  0  0  0  0  0  0  0  0  0  0
   18.3279    0.8613    5.0695 H   0  0  0  0  0  0  0  0  0  0  0  0
   19.2763    0.0370    3.7887 H   0  0  0  0  0  0  0  0  0  0  0  0
   13.3431    0.6402    2.9981 H   0  0  0  0  0  0  0  0  0  0  0  0
    6.9929   -3.0339   -1.7268 H   0  0  0  0  0  0  0  0  0  0  0  0
    4.6527   -2.4195   -2.2055 H   0  0  0  0  0  0  0  0  0  0  0  0
  1  2  1  0
  1 26  1  0
  1 27  1  0
  1 28  1  0
  2  3  2  0
  2  4  1  0
  4  5  1  0
  4 29  1  0
  5  6  2  0
  5 25  1  0
  6  7  1  0
  6 30  1  0
  7  8  2  0
  7 31  1  0
  8  9  1  0
  8 24  1  0
  9 10  2  0
  9 32  1  0
 10 11  1  0
 10 33  1  0
 11 12  2  0
 11 13  1  0
 13 14  1  0
 13 34  1  0
 14 15  2  0
 14 23  1  0
 15 16  1  0
 15 35  1  0
 16 17  2  0
 16 36  1  0
 17 18  1  0
 17 22  1  0
 18 19  1  0
 19 20  1  0
 19 21  2  0
 20 37  1  0
 20 38  1  0
 20 39  1  0
 21 22  1  0
 22 23  2  0
 23 40  1  0
 24 25  2  0
 24 41  1  0
 25 42  1  0
M  END

