
     RDKit          3D

 45 48  0  0  0  0  0  0  0  0999 V2000
    2.5538   -0.7092    0.4961 O   0  0  0  0  0  0  0  0  0  0  0  0
    2.7938    0.0199    1.5152 C   0  0  0  0  0  0  0  0  0  0  0  0
    3.0513    1.4853    1.1640 C   0  0  0  0  0  0  0  0  0  0  0  0
    1.8881    2.1333    0.5118 N   0  0  0  0  0  0  0  0  0  0  0  0
    2.1105    3.3789   -0.1518 C   0  0  0  0  0  0  0  0  0  0  0  0
    2.2877    3.0900   -1.6983 C   0  0  0  0  0  0  0  0  0  0  0  0
    1.1411    2.3670   -2.1759 N   0  0  0  0  0  0  0  0  0  0  0  0
    0.1476    3.0098   -2.9063 C   0  0  0  0  0  0  0  0  0  0  0  0
    0.4049    4.2584   -3.3255 N   0  0  0  0  0  0  0  0  0  0  0  0
   -0.5380    4.8529   -4.0523 C   0  0  0  0  0  0  0  0  0  0  0  0
   -1.7444    4.2258   -4.3724 C   0  0  0  0  0  0  0  0  0  0  0  0
   -1.9104    2.9313   -3.8724 C   0  0  0  0  0  0  0  0  0  0  0  0
   -0.9784    2.3222   -3.1452 N   0  0  0  0  0  0  0  0  0  0  0  0
    0.8839    1.1320   -1.4781 C   0  0  0  0  0  0  0  0  0  0  0  0
    0.7255    1.4288    0.0665 C   0  0  0  0  0  0  0  0  0  0  0  0
    2.8182   -0.4383    2.8667 C   0  0  0  0  0  0  0  0  0  0  0  0
    3.0695    0.3708    4.0269 C   0  0  0  0  0  0  0  0  0  0  0  0
    3.0497   -0.1706    5.3015 C   0  0  0  0  0  0  0  0  0  0  0  0
    2.7979   -1.5371    5.5087 C   0  0  0  0  0  0  0  0  0  0  0  0
    2.5712   -2.3630    4.3834 C   0  0  0  0  0  0  0  0  0  0  0  0
    2.5792   -1.8340    3.1033 C   0  0  0  0  0  0  0  0  0  0  0  0
    2.3271   -3.7102    4.5396 O   0  0  0  0  0  0  0  0  0  0  0  0
    2.6764   -4.2248    5.8085 C   0  0  0  0  0  0  0  0  0  0  0  0
    2.1848   -3.3006    6.9128 C   0  0  0  0  0  0  0  0  0  0  0  0
    2.7961   -2.0342    6.7988 O   0  0  0  0  0  0  0  0  0  0  0  0
    3.8888    1.5446    0.4417 H   0  0  0  0  0  0  0  0  0  0  0  0
    3.3147    2.1347    2.0111 H   0  0  0  0  0  0  0  0  0  0  0  0
    3.0133    3.8683    0.2350 H   0  0  0  0  0  0  0  0  0  0  0  0
    1.2476    4.0535   -0.0335 H   0  0  0  0  0  0  0  0  0  0  0  0
    3.1957    2.4820   -1.8245 H   0  0  0  0  0  0  0  0  0  0  0  0
    2.3847    4.0385   -2.2363 H   0  0  0  0  0  0  0  0  0  0  0  0
   -0.3231    5.8721   -4.3933 H   0  0  0  0  0  0  0  0  0  0  0  0
   -2.5102    4.7169   -4.9733 H   0  0  0  0  0  0  0  0  0  0  0  0
   -2.8286    2.3645   -4.0648 H   0  0  0  0  0  0  0  0  0  0  0  0
    1.7304    0.4364   -1.5529 H   0  0  0  0  0  0  0  0  0  0  0  0
   -0.0361    0.6755   -1.8547 H   0  0  0  0  0  0  0  0  0  0  0  0
    0.6309    0.4720    0.5820 H   0  0  0  0  0  0  0  0  0  0  0  0
   -0.1667    2.0616    0.2044 H   0  0  0  0  0  0  0  0  0  0  0  0
    3.2809    1.4373    3.9305 H   0  0  0  0  0  0  0  0  0  0  0  0
    3.2337    0.4526    6.1803 H   0  0  0  0  0  0  0  0  0  0  0  0
    2.4039   -2.4891    2.2505 H   0  0  0  0  0  0  0  0  0  0  0  0
    3.7753   -4.3403    5.8907 H   0  0  0  0  0  0  0  0  0  0  0  0
    2.2148   -5.2210    5.8920 H   0  0  0  0  0  0  0  0  0  0  0  0
    2.4423   -3.7005    7.9060 H   0  0  0  0  0  0  0  0  0  0  0  0
    1.0818   -3.2078    6.8460 H   0  0  0  0  0  0  0  0  0  0  0  0
  1  2  2  0
  2  3  1  0
  2 16  1  0
  3  4  1  0
  3 26  1  0
  3 27  1  0
  4  5  1  0
  4 15  1  0
  5  6  1  0
  5 28  1  0
  5 29  1  0
  6  7  1  0
  6 30  1  0
  6 31  1  0
  7  8  1  0
  7 14  1  0
  8  9  2  0
  8 13  1  0
  9 10  1  0
 10 11  2  0
 10 32  1  0
 11 12  1  0
 11 33  1  0
 12 13  2  0
 12 34  1  0
 14 15  1  0
 14 35  1  0
 14 36  1  0
 15 37  1  0
 15 38  1  0
 16 17  2  0
 16 21  1  0
 17 18  1  0
 17 39  1  0
 18 19  2  0
 18 40  1  0
 19 20  1  0
 19 25  1  0
 20 21  2  0
 20 22  1  0
 21 41  1  0
 22 23  1  0
 23 24  1  0
 23 42  1  0
 23 43  1  0
 24 25  1  0
 24 44  1  0
 24 45  1  0
M  END

