
     RDKit          3D

 79 83  0  0  0  0  0  0  0  0999 V2000
    7.6146   -7.8488   -2.3375 C   0  0  0  0  0  0  0  0  0  0  0  0
    7.6846   -6.4160   -2.7520 C   0  0  0  0  0  0  0  0  0  0  0  0
    8.7162   -5.8483   -3.3445 N   0  0  0  0  0  0  0  0  0  0  0  0
    8.3394   -4.5513   -3.4857 C   0  0  0  0  0  0  0  0  0  0  0  0
    9.2039   -3.4999   -4.1257 C   0  0  0  0  0  0  0  0  0  0  0  0
    8.6053   -2.2766   -4.1890 N   0  0  0  0  0  0  0  0  0  0  0  0
   10.3225   -3.7346   -4.5371 O   0  0  0  0  0  0  0  0  0  0  0  0
    7.1321   -4.2790   -3.0108 N   0  0  0  0  0  0  0  0  0  0  0  0
    6.7025   -5.4728   -2.5479 N   0  0  0  0  0  0  0  0  0  0  0  0
    5.4370   -5.5816   -1.9028 C   0  0  0  0  0  0  0  0  0  0  0  0
    5.0185   -4.5621   -1.0400 C   0  0  0  0  0  0  0  0  0  0  0  0
    3.7788   -4.6575   -0.4070 C   0  0  0  0  0  0  0  0  0  0  0  0
    2.9368   -5.7620   -0.6078 C   0  0  0  0  0  0  0  0  0  0  0  0
    1.6068   -5.8761    0.1206 C   0  0  0  0  0  0  0  0  0  0  0  0
    0.4219   -6.2026   -0.7683 C   0  0  0  0  0  0  0  0  0  0  0  0
   -0.2547   -7.4253   -0.6624 C   0  0  0  0  0  0  0  0  0  0  0  0
   -1.3454   -7.7226   -1.4831 C   0  0  0  0  0  0  0  0  0  0  0  0
   -1.8008   -6.8032   -2.4427 C   0  0  0  0  0  0  0  0  0  0  0  0
   -2.9612   -7.0804   -3.3362 C   0  0  0  0  0  0  0  0  0  0  0  0
   -3.5687   -8.3469   -3.4219 C   0  0  0  0  0  0  0  0  0  0  0  0
   -4.6557   -8.5268   -4.2752 C   0  0  0  0  0  0  0  0  0  0  0  0
   -5.1330   -7.4543   -5.0358 C   0  0  0  0  0  0  0  0  0  0  0  0
   -6.3490   -7.5817   -5.9335 C   0  0  0  0  0  0  0  0  0  0  0  0
   -6.2215   -6.8361   -7.1779 N   0  0  0  0  0  0  0  0  0  0  0  0
   -5.2606   -7.3766   -8.1397 C   0  0  0  0  0  0  0  0  0  0  0  0
   -5.8175   -8.5462   -8.9640 C   0  0  0  0  0  0  0  0  0  0  0  0
   -7.0877   -8.1705   -9.5772 N   0  0  0  0  0  0  0  0  0  0  0  0
   -7.3097   -8.4736  -10.8980 C   0  0  0  0  0  0  0  0  0  0  0  0
   -6.4738   -8.9802  -11.6235 O   0  0  0  0  0  0  0  0  0  0  0  0
   -8.5611   -8.1324  -11.2768 O   0  0  0  0  0  0  0  0  0  0  0  0
   -9.0306   -8.3226  -12.6517 C   0  0  1  0  0  0  0  0  0  0  0  0
   -9.0185   -9.8123  -13.0113 C   0  0  0  0  0  0  0  0  0  0  0  0
  -10.4652   -7.7930  -12.5975 C   0  0  0  0  0  0  0  0  0  0  0  0
   -8.1825   -7.4890  -13.6182 C   0  0  0  0  0  0  0  0  0  0  0  0
   -8.0866   -7.6275   -8.6629 C   0  0  0  0  0  0  0  0  0  0  0  0
   -7.4704   -6.4821   -7.8422 C   0  0  0  0  0  0  0  0  0  0  0  0
   -4.4477   -6.2360   -4.8936 C   0  0  0  0  0  0  0  0  0  0  0  0
   -3.4114   -6.0556   -4.0816 N   0  0  0  0  0  0  0  0  0  0  0  0
   -1.1244   -5.5716   -2.5428 C   0  0  0  0  0  0  0  0  0  0  0  0
   -0.0357   -5.2813   -1.7260 C   0  0  0  0  0  0  0  0  0  0  0  0
    3.3698   -6.7674   -1.4864 C   0  0  0  0  0  0  0  0  0  0  0  0
    4.6016   -6.6817   -2.1353 C   0  0  0  0  0  0  0  0  0  0  0  0
    8.6407   -8.2328   -2.2705 H   0  0  0  0  0  0  0  0  0  0  0  0
    7.0754   -8.4625   -3.0778 H   0  0  0  0  0  0  0  0  0  0  0  0
    7.1133   -7.9723   -1.3664 H   0  0  0  0  0  0  0  0  0  0  0  0
    7.6618   -2.1407   -3.8493 H   0  0  0  0  0  0  0  0  0  0  0  0
    9.1145   -1.5133   -4.6151 H   0  0  0  0  0  0  0  0  0  0  0  0
    5.6671   -3.7002   -0.8795 H   0  0  0  0  0  0  0  0  0  0  0  0
    3.4633   -3.8553    0.2658 H   0  0  0  0  0  0  0  0  0  0  0  0
    1.4171   -4.9301    0.6540 H   0  0  0  0  0  0  0  0  0  0  0  0
    1.6929   -6.6531    0.8997 H   0  0  0  0  0  0  0  0  0  0  0  0
    0.0687   -8.1583    0.0824 H   0  0  0  0  0  0  0  0  0  0  0  0
   -1.8481   -8.6824   -1.3516 H   0  0  0  0  0  0  0  0  0  0  0  0
   -3.1924   -9.1911   -2.8436 H   0  0  0  0  0  0  0  0  0  0  0  0
   -5.1315   -9.5095   -4.3526 H   0  0  0  0  0  0  0  0  0  0  0  0
   -7.2220   -7.1689   -5.3964 H   0  0  0  0  0  0  0  0  0  0  0  0
   -6.5702   -8.6634   -6.0691 H   0  0  0  0  0  0  0  0  0  0  0  0
   -4.3487   -7.6898   -7.6084 H   0  0  0  0  0  0  0  0  0  0  0  0
   -4.9735   -6.5650   -8.8316 H   0  0  0  0  0  0  0  0  0  0  0  0
   -5.9644   -9.4361   -8.3198 H   0  0  0  0  0  0  0  0  0  0  0  0
   -5.1242   -8.8319   -9.7649 H   0  0  0  0  0  0  0  0  0  0  0  0
   -9.6031  -10.3879  -12.2763 H   0  0  0  0  0  0  0  0  0  0  0  0
   -7.9940  -10.2038  -13.0340 H   0  0  0  0  0  0  0  0  0  0  0  0
   -9.4773   -9.9592  -14.0017 H   0  0  0  0  0  0  0  0  0  0  0  0
  -11.0615   -8.3619  -11.8678 H   0  0  0  0  0  0  0  0  0  0  0  0
  -10.9432   -7.8848  -13.5846 H   0  0  0  0  0  0  0  0  0  0  0  0
  -10.4774   -6.7326  -12.3026 H   0  0  0  0  0  0  0  0  0  0  0  0
   -7.1470   -7.8505  -13.6444 H   0  0  0  0  0  0  0  0  0  0  0  0
   -8.1824   -6.4307  -13.3126 H   0  0  0  0  0  0  0  0  0  0  0  0
   -8.6068   -7.5504  -14.6326 H   0  0  0  0  0  0  0  0  0  0  0  0
   -8.4505   -8.4276   -7.9870 H   0  0  0  0  0  0  0  0  0  0  0  0
   -8.9460   -7.2679   -9.2392 H   0  0  0  0  0  0  0  0  0  0  0  0
   -8.1953   -6.1264   -7.0922 H   0  0  0  0  0  0  0  0  0  0  0  0
   -7.2661   -5.6403   -8.5283 H   0  0  0  0  0  0  0  0  0  0  0  0
   -4.7686   -5.3738   -5.4888 H   0  0  0  0  0  0  0  0  0  0  0  0
   -1.4804   -4.8499   -3.2788 H   0  0  0  0  0  0  0  0  0  0  0  0
    0.4726   -4.3186   -1.8330 H   0  0  0  0  0  0  0  0  0  0  0  0
    2.7230   -7.6257   -1.6847 H   0  0  0  0  0  0  0  0  0  0  0  0
    4.8987   -7.4584   -2.8405 H   0  0  0  0  0  0  0  0  0  0  0  0
  1  2  1  0
  1 43  1  0
  1 44  1  0
  1 45  1  0
  2  3  2  0
  2  9  1  0
  3  4  1  0
  4  5  1  0
  4  8  2  0
  5  6  1  0
  5  7  2  0
  6 46  1  0
  6 47  1  0
  8  9  1  0
  9 10  1  0
 10 11  2  0
 10 42  1  0
 11 12  1  0
 11 48  1  0
 12 13  2  0
 12 49  1  0
 13 14  1  0
 13 41  1  0
 14 15  1  0
 14 50  1  0
 14 51  1  0
 15 16  2  0
 15 40  1  0
 16 17  1  0
 16 52  1  0
 17 18  2  0
 17 53  1  0
 18 19  1  0
 18 39  1  0
 19 20  2  0
 19 38  1  0
 20 21  1  0
 20 54  1  0
 21 22  2  0
 21 55  1  0
 22 23  1  0
 22 37  1  0
 23 24  1  0
 23 56  1  0
 23 57  1  0
 24 25  1  0
 24 36  1  0
 25 26  1  0
 25 58  1  0
 25 59  1  0
 26 27  1  0
 26 60  1  0
 26 61  1  0
 27 28  1  0
 27 35  1  0
 28 29  2  0
 28 30  1  0
 31 30  1  1
 31 32  1  0
 31 33  1  0
 31 34  1  0
 32 62  1  0
 32 63  1  0
 32 64  1  0
 33 65  1  0
 33 66  1  0
 33 67  1  0
 34 68  1  0
 34 69  1  0
 34 70  1  0
 35 36  1  0
 35 71  1  0
 35 72  1  0
 36 73  1  0
 36 74  1  0
 37 38  2  0
 37 75  1  0
 39 40  2  0
 39 76  1  0
 40 77  1  0
 41 42  2  0
 41 78  1  0
 42 79  1  0
M  END

