
     RDKit          3D

 68 71  0  0  0  0  0  0  0  0999 V2000
    3.0714    1.8815    1.2385 C   0  0  0  0  0  0  0  0  0  0  0  0
    3.8718    1.1329    0.1720 C   0  0  0  0  0  0  0  0  0  0  0  0
    3.8877   -0.3849    0.3803 C   0  0  0  0  0  0  0  0  0  0  0  0
    4.7080   -1.1139   -0.6889 C   0  0  0  0  0  0  0  0  0  0  0  0
    4.7866   -2.5758   -0.5283 N   0  0  0  0  0  0  0  0  0  0  0  0
    3.9559   -3.3933   -1.3947 C   0  0  0  0  0  0  0  0  0  0  0  0
    2.4898   -3.5952   -0.9666 C   0  0  0  0  0  0  0  0  0  0  0  0
    1.6171   -3.7884   -1.7869 O   0  0  0  0  0  0  0  0  0  0  0  0
    2.2903   -3.5914    0.3946 N   0  0  0  0  0  0  0  0  0  0  0  0
    1.0810   -3.8439    1.0358 C   0  0  0  0  0  0  0  0  0  0  0  0
   -0.1991   -4.0047    0.5436 C   0  0  0  0  0  0  0  0  0  0  0  0
   -0.9865   -4.3204    1.6904 C   0  0  0  0  0  0  0  0  0  0  0  0
   -2.4374   -4.5783    1.7501 C   0  0  0  0  0  0  0  0  0  0  0  0
   -3.2139   -4.6244    0.5790 C   0  0  0  0  0  0  0  0  0  0  0  0
   -4.5874   -4.8696    0.6432 C   0  0  0  0  0  0  0  0  0  0  0  0
   -5.2093   -5.0727    1.8784 C   0  0  0  0  0  0  0  0  0  0  0  0
   -4.4452   -5.0289    3.0503 C   0  0  0  0  0  0  0  0  0  0  0  0
   -3.0738   -4.7840    2.9886 C   0  0  0  0  0  0  0  0  0  0  0  0
   -0.2406   -4.3541    2.7921 N   0  0  0  0  0  0  0  0  0  0  0  0
    1.0192   -4.0488    2.3995 N   0  0  0  0  0  0  0  0  0  0  0  0
    2.0929   -4.1468    3.3202 C   0  0  0  0  0  0  0  0  0  0  0  0
    2.1543   -5.2464    4.1894 C   0  0  0  0  0  0  0  0  0  0  0  0
    3.2356   -5.3923    5.0555 C   0  0  0  0  0  0  0  0  0  0  0  0
    4.2666   -4.4454    5.0445 C   0  0  0  0  0  0  0  0  0  0  0  0
    5.6594   -4.6733    6.0757 Cl  0  0  0  0  0  0  0  0  0  0  0  0
    4.1998   -3.3276    4.2105 C   0  0  0  0  0  0  0  0  0  0  0  0
    3.1002   -3.1717    3.3622 C   0  0  0  0  0  0  0  0  0  0  0  0
    5.7828   -3.0608    0.3053 C   0  0  0  0  0  0  0  0  0  0  0  0
    6.4740   -2.2914    0.9541 O   0  0  0  0  0  0  0  0  0  0  0  0
    5.9756   -4.5753    0.4015 C   0  0  0  0  0  0  0  0  0  0  0  0
    7.1107   -4.9511    1.3658 C   0  0  0  0  0  0  0  0  0  0  0  0
    7.2956   -6.4467    1.5102 C   0  0  0  0  0  0  0  0  0  0  0  0
    7.8552   -7.2079    0.4695 C   0  0  0  0  0  0  0  0  0  0  0  0
    8.0113   -8.5906    0.5915 C   0  0  0  0  0  0  0  0  0  0  0  0
    7.6115   -9.2412    1.7635 C   0  0  0  0  0  0  0  0  0  0  0  0
    7.0612   -8.4966    2.8098 C   0  0  0  0  0  0  0  0  0  0  0  0
    6.9052   -7.1123    2.6828 C   0  0  0  0  0  0  0  0  0  0  0  0
    3.0795    2.9682    1.0594 H   0  0  0  0  0  0  0  0  0  0  0  0
    3.4860    1.7073    2.2454 H   0  0  0  0  0  0  0  0  0  0  0  0
    2.0182    1.5548    1.2533 H   0  0  0  0  0  0  0  0  0  0  0  0
    4.9114    1.5066    0.1592 H   0  0  0  0  0  0  0  0  0  0  0  0
    3.4570    1.3597   -0.8273 H   0  0  0  0  0  0  0  0  0  0  0  0
    2.8512   -0.7651    0.3837 H   0  0  0  0  0  0  0  0  0  0  0  0
    4.3253   -0.6147    1.3667 H   0  0  0  0  0  0  0  0  0  0  0  0
    5.7363   -0.7228   -0.6736 H   0  0  0  0  0  0  0  0  0  0  0  0
    4.2862   -0.9142   -1.6869 H   0  0  0  0  0  0  0  0  0  0  0  0
    4.3879   -4.3976   -1.5120 H   0  0  0  0  0  0  0  0  0  0  0  0
    3.9101   -2.9592   -2.4051 H   0  0  0  0  0  0  0  0  0  0  0  0
    3.0974   -3.3870    0.9735 H   0  0  0  0  0  0  0  0  0  0  0  0
   -0.4896   -3.9171   -0.4964 H   0  0  0  0  0  0  0  0  0  0  0  0
   -2.7417   -4.4711   -0.3936 H   0  0  0  0  0  0  0  0  0  0  0  0
   -5.1744   -4.9027   -0.2783 H   0  0  0  0  0  0  0  0  0  0  0  0
   -6.2843   -5.2637    1.9285 H   0  0  0  0  0  0  0  0  0  0  0  0
   -4.9238   -5.1851    4.0208 H   0  0  0  0  0  0  0  0  0  0  0  0
   -2.4737   -4.7444    3.8992 H   0  0  0  0  0  0  0  0  0  0  0  0
    1.3490   -5.9813    4.1689 H   0  0  0  0  0  0  0  0  0  0  0  0
    3.2953   -6.2510    5.7262 H   0  0  0  0  0  0  0  0  0  0  0  0
    4.9954   -2.5814    4.2253 H   0  0  0  0  0  0  0  0  0  0  0  0
    3.0208   -2.2688    2.7535 H   0  0  0  0  0  0  0  0  0  0  0  0
    6.1840   -4.9840   -0.6024 H   0  0  0  0  0  0  0  0  0  0  0  0
    5.0327   -5.0517    0.7219 H   0  0  0  0  0  0  0  0  0  0  0  0
    6.9085   -4.4994    2.3479 H   0  0  0  0  0  0  0  0  0  0  0  0
    8.0415   -4.4830    1.0076 H   0  0  0  0  0  0  0  0  0  0  0  0
    8.1837   -6.7087   -0.4477 H   0  0  0  0  0  0  0  0  0  0  0  0
    8.4525   -9.1626   -0.2292 H   0  0  0  0  0  0  0  0  0  0  0  0
    7.7353  -10.3227    1.8622 H   0  0  0  0  0  0  0  0  0  0  0  0
    6.7550   -8.9938    3.7340 H   0  0  0  0  0  0  0  0  0  0  0  0
    6.4895   -6.5364    3.5145 H   0  0  0  0  0  0  0  0  0  0  0  0
  1  2  1  0
  1 38  1  0
  1 39  1  0
  1 40  1  0
  2  3  1  0
  2 41  1  0
  2 42  1  0
  3  4  1  0
  3 43  1  0
  3 44  1  0
  4  5  1  0
  4 45  1  0
  4 46  1  0
  5  6  1  0
  5 28  1  0
  6  7  1  0
  6 47  1  0
  6 48  1  0
  7  8  2  0
  7  9  1  0
  9 10  1  0
  9 49  1  0
 10 11  2  0
 10 20  1  0
 11 12  1  0
 11 50  1  0
 12 13  1  0
 12 19  2  0
 13 14  2  0
 13 18  1  0
 14 15  1  0
 14 51  1  0
 15 16  2  0
 15 52  1  0
 16 17  1  0
 16 53  1  0
 17 18  2  0
 17 54  1  0
 18 55  1  0
 19 20  1  0
 20 21  1  0
 21 22  2  0
 21 27  1  0
 22 23  1  0
 22 56  1  0
 23 24  2  0
 23 57  1  0
 24 25  1  0
 24 26  1  0
 26 27  2  0
 26 58  1  0
 27 59  1  0
 28 29  2  0
 28 30  1  0
 30 31  1  0
 30 60  1  0
 30 61  1  0
 31 32  1  0
 31 62  1  0
 31 63  1  0
 32 33  2  0
 32 37  1  0
 33 34  1  0
 33 64  1  0
 34 35  2  0
 34 65  1  0
 35 36  1  0
 35 66  1  0
 36 37  2  0
 36 67  1  0
 37 68  1  0
M  END

