
     RDKit          3D

 45 47  0  0  0  0  0  0  0  0999 V2000
    1.5861    0.0564   -1.3696 O   0  0  0  0  0  0  0  0  0  0  0  0
    2.7873   -0.0602   -1.1455 C   0  0  0  0  0  0  0  0  0  0  0  0
    3.4432   -1.4400   -1.0617 C   0  0  0  0  0  0  0  0  0  0  0  0
    2.4417   -2.4376   -1.3322 N   0  0  0  0  0  0  0  0  0  0  0  0
    2.5876   -3.7034   -0.8117 C   0  0  0  0  0  0  0  0  0  0  0  0
    3.5934   -4.0398   -0.1976 O   0  0  0  0  0  0  0  0  0  0  0  0
    1.5422   -4.5850   -1.0528 N   0  0  0  0  0  0  0  0  0  0  0  0
    0.3380   -4.2959   -1.8117 C   0  0  0  0  0  0  0  0  0  0  0  0
    0.0043   -5.4573   -2.7505 C   0  0  0  0  0  0  0  0  0  0  0  0
   -0.0154   -6.7294   -2.0382 N   0  0  0  0  0  0  0  0  0  0  0  0
   -0.8210   -7.7463   -2.4897 C   0  0  0  0  0  0  0  0  0  0  0  0
   -0.6154   -9.1159   -2.2920 C   0  0  0  0  0  0  0  0  0  0  0  0
   -1.6123  -10.0570   -2.7599 C   0  0  0  0  0  0  0  0  0  0  0  0
   -2.6731   -9.5465   -3.5345 C   0  0  0  0  0  0  0  0  0  0  0  0
   -2.7108   -8.2412   -3.6928 N   0  0  0  0  0  0  0  0  0  0  0  0
   -1.9590   -7.3769   -3.1564 N   0  0  0  0  0  0  0  0  0  0  0  0
    1.1826   -7.0134   -1.2598 C   0  0  0  0  0  0  0  0  0  0  0  0
    1.5078   -5.8453   -0.3304 C   0  0  0  0  0  0  0  0  0  0  0  0
    3.5996    1.0103   -0.9647 N   0  0  0  0  0  0  0  0  0  0  0  0
    3.0744    2.3786   -1.0593 C   0  0  0  0  0  0  0  0  0  0  0  0
    4.3409    3.2396   -1.1334 C   0  0  0  0  0  0  0  0  0  0  0  0
    5.3646    2.4306   -0.3228 C   0  0  0  0  0  0  0  0  0  0  0  0
    5.0417    0.9769   -0.6969 C   0  0  0  0  0  0  0  0  0  0  0  0
    3.8946   -1.5966   -0.0654 H   0  0  0  0  0  0  0  0  0  0  0  0
    4.2841   -1.4919   -1.7793 H   0  0  0  0  0  0  0  0  0  0  0  0
    1.5219   -2.0294   -1.4877 H   0  0  0  0  0  0  0  0  0  0  0  0
    0.4826   -3.3983   -2.4262 H   0  0  0  0  0  0  0  0  0  0  0  0
   -0.5195   -4.1144   -1.1330 H   0  0  0  0  0  0  0  0  0  0  0  0
    0.7577   -5.4889   -3.5648 H   0  0  0  0  0  0  0  0  0  0  0  0
   -0.9811   -5.3022   -3.2101 H   0  0  0  0  0  0  0  0  0  0  0  0
    0.3139   -9.4718   -1.8522 H   0  0  0  0  0  0  0  0  0  0  0  0
   -1.4875  -11.1322   -2.6431 H   0  0  0  0  0  0  0  0  0  0  0  0
   -3.4273  -10.1543   -4.0370 H   0  0  0  0  0  0  0  0  0  0  0  0
    2.0450   -7.2144   -1.9278 H   0  0  0  0  0  0  0  0  0  0  0  0
    1.0076   -7.9103   -0.6509 H   0  0  0  0  0  0  0  0  0  0  0  0
    2.4880   -5.9896    0.1402 H   0  0  0  0  0  0  0  0  0  0  0  0
    0.7392   -5.8004    0.4672 H   0  0  0  0  0  0  0  0  0  0  0  0
    2.4647    2.6169   -0.1689 H   0  0  0  0  0  0  0  0  0  0  0  0
    2.4143    2.4746   -1.9339 H   0  0  0  0  0  0  0  0  0  0  0  0
    4.1840    4.2562   -0.7442 H   0  0  0  0  0  0  0  0  0  0  0  0
    4.6748    3.3320   -2.1806 H   0  0  0  0  0  0  0  0  0  0  0  0
    5.1994    2.5843    0.7566 H   0  0  0  0  0  0  0  0  0  0  0  0
    6.4093    2.6973   -0.5404 H   0  0  0  0  0  0  0  0  0  0  0  0
    5.2877    0.2689    0.1099 H   0  0  0  0  0  0  0  0  0  0  0  0
    5.6041    0.6608   -1.5957 H   0  0  0  0  0  0  0  0  0  0  0  0
  1  2  2  0
  2  3  1  0
  2 19  1  0
  3  4  1  0
  3 24  1  0
  3 25  1  0
  4  5  1  0
  4 26  1  0
  5  6  2  0
  5  7  1  0
  7  8  1  0
  7 18  1  0
  8  9  1  0
  8 27  1  0
  8 28  1  0
  9 10  1  0
  9 29  1  0
  9 30  1  0
 10 11  1  0
 10 17  1  0
 11 12  2  0
 11 16  1  0
 12 13  1  0
 12 31  1  0
 13 14  2  0
 13 32  1  0
 14 15  1  0
 14 33  1  0
 15 16  2  0
 17 18  1  0
 17 34  1  0
 17 35  1  0
 18 36  1  0
 18 37  1  0
 19 20  1  0
 19 23  1  0
 20 21  1  0
 20 38  1  0
 20 39  1  0
 21 22  1  0
 21 40  1  0
 21 41  1  0
 22 23  1  0
 22 42  1  0
 22 43  1  0
 23 44  1  0
 23 45  1  0
M  END

