
     RDKit          3D

 32 34  0  0  0  0  0  0  0  0999 V2000
    1.3501   -0.0206    0.9821 N   0  0  0  0  0  0  0  0  0  0  0  0
    2.6346   -0.0638    0.4600 C   0  0  0  0  0  0  0  0  0  0  0  0
    3.2518   -1.2570    0.1389 C   0  0  0  0  0  0  0  0  0  0  0  0
    4.5153   -1.1792   -0.4357 N   0  0  0  0  0  0  0  0  0  0  0  0
    5.3919   -2.1368   -0.8791 C   0  0  0  0  0  0  0  0  0  0  0  0
    6.4981   -1.4369   -1.3570 C   0  0  0  0  0  0  0  0  0  0  0  0
    6.3306   -0.0993   -1.2230 N   0  0  0  0  0  0  0  0  0  0  0  0
    5.1285    0.0360   -0.6653 C   0  0  0  0  0  0  0  0  0  0  0  0
    4.4111    1.2233   -0.2873 C   0  0  0  0  0  0  0  0  0  0  0  0
    5.0270    2.4106   -0.4976 N   0  0  0  0  0  0  0  0  0  0  0  0
    4.4341    3.7013   -0.2475 C   0  0  0  0  0  0  0  0  0  0  0  0
    5.5105    4.7172    0.1219 C   0  0  1  0  0  0  0  0  0  0  0  0
    6.5158    4.7501   -0.8852 O   0  0  0  0  0  0  0  0  0  0  0  0
    5.0294    6.1362    0.5409 C   0  0  0  0  0  0  0  0  0  0  0  0
    6.0235    6.0980    1.7316 C   0  0  0  0  0  0  0  0  0  0  0  0
    6.2143    4.5767    1.4955 C   0  0  0  0  0  0  0  0  0  0  0  0
    3.2073    1.1577    0.2507 N   0  0  0  0  0  0  0  0  0  0  0  0
    1.0345   -0.8374    1.4916 H   0  0  0  0  0  0  0  0  0  0  0  0
    1.1324    0.8595    1.4366 H   0  0  0  0  0  0  0  0  0  0  0  0
    2.8166   -2.2445    0.2788 H   0  0  0  0  0  0  0  0  0  0  0  0
    5.1665   -3.1984   -0.8230 H   0  0  0  0  0  0  0  0  0  0  0  0
    7.4020   -1.8643   -1.7918 H   0  0  0  0  0  0  0  0  0  0  0  0
    5.9372    2.3853   -0.9482 H   0  0  0  0  0  0  0  0  0  0  0  0
    3.6904    3.5990    0.5554 H   0  0  0  0  0  0  0  0  0  0  0  0
    3.8815    4.0741   -1.1381 H   0  0  0  0  0  0  0  0  0  0  0  0
    6.1195    5.1052   -1.6942 H   0  0  0  0  0  0  0  0  0  0  0  0
    3.9752    6.1453    0.8599 H   0  0  0  0  0  0  0  0  0  0  0  0
    5.1766    6.9243   -0.2146 H   0  0  0  0  0  0  0  0  0  0  0  0
    5.6255    6.4005    2.7115 H   0  0  0  0  0  0  0  0  0  0  0  0
    6.9398    6.6730    1.5341 H   0  0  0  0  0  0  0  0  0  0  0  0
    5.6409    3.9515    2.1960 H   0  0  0  0  0  0  0  0  0  0  0  0
    7.2456    4.2011    1.4388 H   0  0  0  0  0  0  0  0  0  0  0  0
  1  2  1  0
  1 18  1  0
  1 19  1  0
  2  3  2  0
  2 17  1  0
  3  4  1  0
  3 20  1  0
  4  5  1  0
  4  8  1  0
  5  6  2  0
  5 21  1  0
  6  7  1  0
  6 22  1  0
  7  8  2  0
  8  9  1  0
  9 10  1  0
  9 17  2  0
 10 11  1  0
 10 23  1  0
 11 12  1  0
 11 24  1  0
 11 25  1  0
 12 13  1  6
 12 14  1  0
 12 16  1  0
 13 26  1  0
 14 15  1  0
 14 27  1  0
 14 28  1  0
 15 16  1  0
 15 29  1  0
 15 30  1  0
 16 31  1  0
 16 32  1  0
M  END

