
     RDKit          3D

103107  0  0  0  0  0  0  0  0999 V2000
    1.9566    1.2768    0.9485 C   0  0  0  0  0  0  0  0  0  0  0  0
    2.2031    1.5202   -0.5402 C   0  0  0  0  0  0  0  0  0  0  0  0
    3.4559    2.3736   -0.8429 C   0  0  0  0  0  0  0  0  0  0  0  0
    4.7612    1.7366   -0.4626 C   0  0  0  0  0  0  0  0  0  0  0  0
    5.5470    2.0204    0.6279 C   0  0  0  0  0  0  0  0  0  0  0  0
    6.6940    1.1420    0.5569 C   0  0  0  0  0  0  0  0  0  0  0  0
    6.5982    0.3237   -0.5229 N   0  0  0  0  0  0  0  0  0  0  0  0
    5.4668    0.6685   -1.1874 C   0  0  0  0  0  0  0  0  0  0  0  0
    5.0789    0.1836   -2.4736 C   0  0  0  0  0  0  0  0  0  0  0  0
    5.7097   -0.6615   -3.3851 C   0  0  0  0  0  0  0  0  0  0  0  0
    6.8918   -1.4355   -3.2466 C   0  0  0  0  0  0  0  0  0  0  0  0
    7.4644   -1.6712   -2.0178 N   0  0  0  0  0  0  0  0  0  0  0  0
    7.2184   -1.0585   -1.2007 H   0  0  0  0  0  0  0  0  0  0  0  0
    8.6742   -2.2671   -2.1622 C   0  0  0  0  0  0  0  0  0  0  0  0
    8.8852   -2.4828   -3.5416 C   0  0  0  0  0  0  0  0  0  0  0  0
    7.7662   -1.9884   -4.2357 C   0  0  0  0  0  0  0  0  0  0  0  0
    7.5201   -2.0386   -5.7172 C   0  0  0  0  0  0  0  0  0  0  0  0
    6.5484   -3.1489   -6.1768 C   0  0  0  0  0  0  0  0  0  0  0  0
    7.0586   -4.5695   -5.9358 C   0  0  0  0  0  0  0  0  0  0  0  0
    9.4434   -2.4362   -0.9267 C   0  0  0  0  0  0  0  0  0  0  0  0
   10.5943   -1.7670   -0.7029 N   0  0  0  0  0  0  0  0  0  0  0  0
   10.8474   -1.9088    0.6490 C   0  0  0  0  0  0  0  0  0  0  0  0
   11.7454   -0.9319    1.3042 C   0  0  0  0  0  0  0  0  0  0  0  0
   13.0781   -1.2785    1.2308 O   0  0  0  0  0  0  0  0  0  0  0  0
   14.1287   -0.3946    1.2124 C   0  0  0  0  0  0  0  0  0  0  0  0
   14.0378    0.7813    1.4385 O   0  0  0  0  0  0  0  0  0  0  0  0
   15.3966   -1.1375    0.8573 C   0  0  0  0  0  0  0  0  0  0  0  0
   16.6509   -0.2732    0.9480 C   0  0  0  0  0  0  0  0  0  0  0  0
   17.9135   -1.0330    0.5231 C   0  0  0  0  0  0  0  0  0  0  0  0
   19.1212   -0.2373    0.5947 N   0  0  0  0  0  0  0  0  0  0  0  0
   19.9576   -0.2741    1.6752 C   0  0  0  0  0  0  0  0  0  0  0  0
   19.8322   -1.0318    2.6173 O   0  0  0  0  0  0  0  0  0  0  0  0
   20.9353    0.6469    1.5188 O   0  0  0  0  0  0  0  0  0  0  0  0
   21.9923    0.8299    2.5145 C   0  0  1  0  0  0  0  0  0  0  0  0
   22.8189   -0.4538    2.6460 C   0  0  0  0  0  0  0  0  0  0  0  0
   22.8349    1.9568    1.9130 C   0  0  0  0  0  0  0  0  0  0  0  0
   21.3844    1.2636    3.8530 C   0  0  0  0  0  0  0  0  0  0  0  0
   11.3010    0.1584    1.9916 C   0  0  0  0  0  0  0  0  0  0  0  0
    9.9770    0.7238    1.9911 C   0  0  0  0  0  0  0  0  0  0  0  0
    8.9648    0.3914    1.1380 N   0  0  0  0  0  0  0  0  0  0  0  0
    9.0411   -0.2502    0.3528 H   0  0  0  0  0  0  0  0  0  0  0  0
    7.8453    1.1656    1.3837 C   0  0  0  0  0  0  0  0  0  0  0  0
    8.1642    1.9966    2.4870 C   0  0  0  0  0  0  0  0  0  0  0  0
    9.4842    1.7445    2.8648 C   0  0  0  0  0  0  0  0  0  0  0  0
   10.2653    2.4183    3.9585 C   0  0  0  0  0  0  0  0  0  0  0  0
   11.1877    3.5663    3.4862 C   0  0  0  0  0  0  0  0  0  0  0  0
   10.4447    4.7764    2.9206 C   0  0  0  0  0  0  0  0  0  0  0  0
    9.8930   -2.7215    1.3008 C   0  0  0  0  0  0  0  0  0  0  0  0
    9.8909   -3.1748    2.7328 C   0  0  0  0  0  0  0  0  0  0  0  0
    8.7394   -2.6532    3.6263 C   0  0  0  0  0  0  0  0  0  0  0  0
    7.3384   -3.1216    3.2334 C   0  0  0  0  0  0  0  0  0  0  0  0
    8.9914   -3.0768    0.2649 C   0  0  0  0  0  0  0  0  0  0  0  0
    1.0526    0.6677    1.1077 H   0  0  0  0  0  0  0  0  0  0  0  0
    1.8168    2.2274    1.4910 H   0  0  0  0  0  0  0  0  0  0  0  0
    2.8032    0.7501    1.4172 H   0  0  0  0  0  0  0  0  0  0  0  0
    1.3273    2.0284   -0.9805 H   0  0  0  0  0  0  0  0  0  0  0  0
    2.2886    0.5519   -1.0637 H   0  0  0  0  0  0  0  0  0  0  0  0
    3.3636    3.3392   -0.3171 H   0  0  0  0  0  0  0  0  0  0  0  0
    3.4624    2.6161   -1.9199 H   0  0  0  0  0  0  0  0  0  0  0  0
    5.3643    2.7833    1.3833 H   0  0  0  0  0  0  0  0  0  0  0  0
    4.1580    0.6398   -2.8466 H   0  0  0  0  0  0  0  0  0  0  0  0
    5.2401   -0.7177   -4.3718 H   0  0  0  0  0  0  0  0  0  0  0  0
    9.7546   -2.9725   -3.9757 H   0  0  0  0  0  0  0  0  0  0  0  0
    8.4856   -2.1757   -6.2331 H   0  0  0  0  0  0  0  0  0  0  0  0
    7.1283   -1.0657   -6.0609 H   0  0  0  0  0  0  0  0  0  0  0  0
    6.3479   -3.0071   -7.2535 H   0  0  0  0  0  0  0  0  0  0  0  0
    5.5789   -3.0134   -5.6655 H   0  0  0  0  0  0  0  0  0  0  0  0
    8.0065   -4.7494   -6.4711 H   0  0  0  0  0  0  0  0  0  0  0  0
    6.3314   -5.3190   -6.2871 H   0  0  0  0  0  0  0  0  0  0  0  0
    7.2429   -4.7564   -4.8659 H   0  0  0  0  0  0  0  0  0  0  0  0
   15.2560   -1.5413   -0.1620 H   0  0  0  0  0  0  0  0  0  0  0  0
   15.4603   -2.0257    1.5092 H   0  0  0  0  0  0  0  0  0  0  0  0
   16.7809    0.0899    1.9804 H   0  0  0  0  0  0  0  0  0  0  0  0
   16.5212    0.6244    0.3206 H   0  0  0  0  0  0  0  0  0  0  0  0
   17.7970   -1.4143   -0.5069 H   0  0  0  0  0  0  0  0  0  0  0  0
   18.0665   -1.9042    1.1773 H   0  0  0  0  0  0  0  0  0  0  0  0
   19.2860    0.4913   -0.0896 H   0  0  0  0  0  0  0  0  0  0  0  0
   23.2136   -0.7569    1.6633 H   0  0  0  0  0  0  0  0  0  0  0  0
   22.2114   -1.2727    3.0515 H   0  0  0  0  0  0  0  0  0  0  0  0
   23.6739   -0.2791    3.3179 H   0  0  0  0  0  0  0  0  0  0  0  0
   23.2346    1.6596    0.9316 H   0  0  0  0  0  0  0  0  0  0  0  0
   23.6798    2.1983    2.5757 H   0  0  0  0  0  0  0  0  0  0  0  0
   22.2272    2.8644    1.7773 H   0  0  0  0  0  0  0  0  0  0  0  0
   20.7633    0.4662    4.2801 H   0  0  0  0  0  0  0  0  0  0  0  0
   20.7636    2.1632    3.7170 H   0  0  0  0  0  0  0  0  0  0  0  0
   22.1878    1.5086    4.5655 H   0  0  0  0  0  0  0  0  0  0  0  0
   12.0302    0.7091    2.5830 H   0  0  0  0  0  0  0  0  0  0  0  0
    7.4900    2.7196    2.9415 H   0  0  0  0  0  0  0  0  0  0  0  0
   10.8800    1.6699    4.4863 H   0  0  0  0  0  0  0  0  0  0  0  0
    9.5584    2.8150    4.7070 H   0  0  0  0  0  0  0  0  0  0  0  0
   11.8944    3.1785    2.7323 H   0  0  0  0  0  0  0  0  0  0  0  0
   11.8029    3.8820    4.3469 H   0  0  0  0  0  0  0  0  0  0  0  0
    9.8407    4.5072    2.0394 H   0  0  0  0  0  0  0  0  0  0  0  0
   11.1499    5.5644    2.6116 H   0  0  0  0  0  0  0  0  0  0  0  0
    9.7637    5.2154    3.6699 H   0  0  0  0  0  0  0  0  0  0  0  0
   10.8442   -2.8708    3.1942 H   0  0  0  0  0  0  0  0  0  0  0  0
    9.8625   -4.2811    2.7548 H   0  0  0  0  0  0  0  0  0  0  0  0
    8.7694   -1.5503    3.6480 H   0  0  0  0  0  0  0  0  0  0  0  0
    8.9560   -2.9840    4.6576 H   0  0  0  0  0  0  0  0  0  0  0  0
    7.0209   -2.7023    2.2661 H   0  0  0  0  0  0  0  0  0  0  0  0
    6.5968   -2.8024    3.9837 H   0  0  0  0  0  0  0  0  0  0  0  0
    7.2843   -4.2215    3.1620 H   0  0  0  0  0  0  0  0  0  0  0  0
    8.1452   -3.7591    0.3450 H   0  0  0  0  0  0  0  0  0  0  0  0
  1  2  1  0
  1 53  1  0
  1 54  1  0
  1 55  1  0
  2  3  1  0
  2 56  1  0
  2 57  1  0
  3  4  1  0
  3 58  1  0
  3 59  1  0
  4  5  2  0
  4  8  1  0
  5  6  1  0
  5 60  1  0
  6  7  2  0
  6 42  1  0
  7  8  1  0
  8  9  2  0
  9 10  1  0
  9 61  1  0
 10 11  2  0
 10 62  1  0
 11 12  1  0
 11 16  1  0
 12 13  1  0
 12 14  1  0
 14 15  1  0
 14 20  2  0
 15 16  2  0
 15 63  1  0
 16 17  1  0
 17 18  1  0
 17 64  1  0
 17 65  1  0
 18 19  1  0
 18 66  1  0
 18 67  1  0
 19 68  1  0
 19 69  1  0
 19 70  1  0
 20 21  1  0
 20 52  1  0
 21 22  2  0
 22 23  1  0
 22 48  1  0
 23 24  1  0
 23 38  2  0
 24 25  1  0
 25 26  2  0
 25 27  1  0
 27 28  1  0
 27 71  1  0
 27 72  1  0
 28 29  1  0
 28 73  1  0
 28 74  1  0
 29 30  1  0
 29 75  1  0
 29 76  1  0
 30 31  1  0
 30 77  1  0
 31 32  2  0
 31 33  1  0
 34 33  1  6
 34 35  1  0
 34 36  1  0
 34 37  1  0
 35 78  1  0
 35 79  1  0
 35 80  1  0
 36 81  1  0
 36 82  1  0
 36 83  1  0
 37 84  1  0
 37 85  1  0
 37 86  1  0
 38 39  1  0
 38 87  1  0
 39 40  1  0
 39 44  2  0
 40 41  1  0
 40 42  1  0
 42 43  2  0
 43 44  1  0
 43 88  1  0
 44 45  1  0
 45 46  1  0
 45 89  1  0
 45 90  1  0
 46 47  1  0
 46 91  1  0
 46 92  1  0
 47 93  1  0
 47 94  1  0
 47 95  1  0
 48 49  1  0
 48 52  2  0
 49 50  1  0
 49 96  1  0
 49 97  1  0
 50 51  1  0
 50 98  1  0
 50 99  1  0
 51100  1  0
 51101  1  0
 51102  1  0
 52103  1  0
M  END

