
     RDKit          3D

 86 92  0  0  0  0  0  0  0  0999 V2000
    1.1875   -0.0886   -0.7140 C   0  0  0  0  0  0  0  0  0  0  0  0
    2.5221    0.1706   -1.1037 O   0  0  0  0  0  0  0  0  0  0  0  0
    2.7918    1.2177   -1.9096 C   0  0  0  0  0  0  0  0  0  0  0  0
    1.8228    2.0921   -2.4359 C   0  0  0  0  0  0  0  0  0  0  0  0
    2.2068    3.1525   -3.2533 C   0  0  0  0  0  0  0  0  0  0  0  0
    3.5555    3.3541   -3.5861 C   0  0  0  0  0  0  0  0  0  0  0  0
    3.9325    4.4670   -4.3929 N   0  0  0  0  0  0  0  0  0  0  0  0
    3.3018    5.7477   -4.0968 C   0  0  0  0  0  0  0  0  0  0  0  0
    3.7358    6.5234   -3.0100 C   0  0  0  0  0  0  0  0  0  0  0  0
    3.1341    7.7389   -2.7216 C   0  0  0  0  0  0  0  0  0  0  0  0
    2.0469    8.2564   -3.5098 C   0  0  0  0  0  0  0  0  0  0  0  0
    1.3476    9.4769   -3.2546 C   0  0  0  0  0  0  0  0  0  0  0  0
    1.6350   10.5480   -2.3798 C   0  0  0  0  0  0  0  0  0  0  0  0
    3.0043   10.8529   -1.9241 C   0  0  0  0  0  0  0  0  0  0  0  0
    4.1118   10.7491   -2.8030 C   0  0  0  0  0  0  0  0  0  0  0  0
    5.4098   11.0312   -2.3806 C   0  0  0  0  0  0  0  0  0  0  0  0
    5.6615   11.4284   -1.0612 C   0  0  0  0  0  0  0  0  0  0  0  0
    4.5826   11.5419   -0.1737 C   0  0  0  0  0  0  0  0  0  0  0  0
    3.2835   11.2624   -0.5957 C   0  0  0  0  0  0  0  0  0  0  0  0
    0.5398   11.4458   -1.9913 C   0  0  0  0  0  0  0  0  0  0  0  0
   -0.8112   11.0018   -1.9758 C   0  0  0  0  0  0  0  0  0  0  0  0
   -1.8645   11.8605   -1.6666 C   0  0  0  0  0  0  0  0  0  0  0  0
   -1.6255   13.2027   -1.3482 C   0  0  0  0  0  0  0  0  0  0  0  0
   -0.3015   13.6655   -1.3484 C   0  0  0  0  0  0  0  0  0  0  0  0
    0.7529   12.8126   -1.6630 C   0  0  0  0  0  0  0  0  0  0  0  0
    1.6248    7.4193   -4.5944 C   0  0  0  0  0  0  0  0  0  0  0  0
    2.2277    6.2061   -4.8849 C   0  0  0  0  0  0  0  0  0  0  0  0
    4.8495    4.3698   -5.3934 C   0  0  0  0  0  0  0  0  0  0  0  0
    5.2577    3.1083   -5.9443 C   0  0  0  0  0  0  0  0  0  0  0  0
    6.1606    3.0390   -6.9783 C   0  0  0  0  0  0  0  0  0  0  0  0
    6.7499    4.2119   -7.5415 C   0  0  0  0  0  0  0  0  0  0  0  0
    7.7346    4.2324   -8.5893 C   0  0  0  0  0  0  0  0  0  0  0  0
    8.1295    3.2608   -9.4912 C   0  0  0  0  0  0  0  0  0  0  0  0
    7.3569    2.0126   -9.7316 C   0  0  0  0  0  0  0  0  0  0  0  0
    5.9911    2.0700  -10.0716 C   0  0  0  0  0  0  0  0  0  0  0  0
    5.2702    0.9015  -10.3218 C   0  0  0  0  0  0  0  0  0  0  0  0
    5.8969   -0.3454  -10.2256 C   0  0  0  0  0  0  0  0  0  0  0  0
    7.2540   -0.4165   -9.8935 C   0  0  0  0  0  0  0  0  0  0  0  0
    7.9822    0.7522   -9.6622 C   0  0  0  0  0  0  0  0  0  0  0  0
    9.3358    3.4832  -10.3166 C   0  0  0  0  0  0  0  0  0  0  0  0
   10.4190    4.2595   -9.8441 C   0  0  0  0  0  0  0  0  0  0  0  0
   11.5414    4.4838  -10.6383 C   0  0  0  0  0  0  0  0  0  0  0  0
   11.6136    3.9404  -11.9263 C   0  0  0  0  0  0  0  0  0  0  0  0
   10.5557    3.1633  -12.4092 C   0  0  0  0  0  0  0  0  0  0  0  0
    9.4347    2.9303  -11.6137 C   0  0  0  0  0  0  0  0  0  0  0  0
    6.3534    5.4606   -6.9714 C   0  0  0  0  0  0  0  0  0  0  0  0
    5.4239    5.5523   -5.9646 C   0  0  0  0  0  0  0  0  0  0  0  0
    4.5248    2.4885   -3.0372 C   0  0  0  0  0  0  0  0  0  0  0  0
    4.1488    1.4359   -2.2148 C   0  0  0  0  0  0  0  0  0  0  0  0
    1.2212   -0.9693   -0.0596 H   0  0  0  0  0  0  0  0  0  0  0  0
    0.5448   -0.3115   -1.5838 H   0  0  0  0  0  0  0  0  0  0  0  0
    0.7549    0.7592   -0.1547 H   0  0  0  0  0  0  0  0  0  0  0  0
    0.7655    1.9614   -2.2070 H   0  0  0  0  0  0  0  0  0  0  0  0
    1.4533    3.8400   -3.6377 H   0  0  0  0  0  0  0  0  0  0  0  0
    4.5498    6.1603   -2.3758 H   0  0  0  0  0  0  0  0  0  0  0  0
    3.4777    8.2987   -1.8536 H   0  0  0  0  0  0  0  0  0  0  0  0
    0.4076    9.5638   -3.8102 H   0  0  0  0  0  0  0  0  0  0  0  0
    3.9269   10.4560   -3.8386 H   0  0  0  0  0  0  0  0  0  0  0  0
    6.2371   10.9522   -3.0927 H   0  0  0  0  0  0  0  0  0  0  0  0
    6.6795   11.6496   -0.7304 H   0  0  0  0  0  0  0  0  0  0  0  0
    4.7580   11.8464    0.8625 H   0  0  0  0  0  0  0  0  0  0  0  0
    2.4579   11.3438    0.1150 H   0  0  0  0  0  0  0  0  0  0  0  0
   -1.0211    9.9500   -2.1804 H   0  0  0  0  0  0  0  0  0  0  0  0
   -2.8877   11.4722   -1.6579 H   0  0  0  0  0  0  0  0  0  0  0  0
   -2.4516   13.8743   -1.1014 H   0  0  0  0  0  0  0  0  0  0  0  0
   -0.0903   14.7128   -1.1113 H   0  0  0  0  0  0  0  0  0  0  0  0
    1.7694   13.2102   -1.6823 H   0  0  0  0  0  0  0  0  0  0  0  0
    0.7951    7.7606   -5.2198 H   0  0  0  0  0  0  0  0  0  0  0  0
    1.8747    5.6080   -5.7301 H   0  0  0  0  0  0  0  0  0  0  0  0
    4.8199    2.1888   -5.5597 H   0  0  0  0  0  0  0  0  0  0  0  0
    6.4328    2.0588   -7.3656 H   0  0  0  0  0  0  0  0  0  0  0  0
    8.2540    5.1913   -8.6762 H   0  0  0  0  0  0  0  0  0  0  0  0
    5.4993    3.0421  -10.1497 H   0  0  0  0  0  0  0  0  0  0  0  0
    4.2143    0.9647  -10.5956 H   0  0  0  0  0  0  0  0  0  0  0  0
    5.3305   -1.2602  -10.4162 H   0  0  0  0  0  0  0  0  0  0  0  0
    7.7497   -1.3874   -9.8187 H   0  0  0  0  0  0  0  0  0  0  0  0
    9.0435    0.6920   -9.4100 H   0  0  0  0  0  0  0  0  0  0  0  0
   10.3929    4.6630   -8.8300 H   0  0  0  0  0  0  0  0  0  0  0  0
   12.3711    5.0774  -10.2470 H   0  0  0  0  0  0  0  0  0  0  0  0
   12.4941    4.1178  -12.5484 H   0  0  0  0  0  0  0  0  0  0  0  0
   10.6025    2.7388  -13.4148 H   0  0  0  0  0  0  0  0  0  0  0  0
    8.6107    2.3328  -12.0069 H   0  0  0  0  0  0  0  0  0  0  0  0
    6.7965    6.3790   -7.3644 H   0  0  0  0  0  0  0  0  0  0  0  0
    5.1253    6.5216   -5.5711 H   0  0  0  0  0  0  0  0  0  0  0  0
    5.5841    2.6658   -3.2311 H   0  0  0  0  0  0  0  0  0  0  0  0
    4.8941    0.7740   -1.7703 H   0  0  0  0  0  0  0  0  0  0  0  0
  1  2  1  0
  1 50  1  0
  1 51  1  0
  1 52  1  0
  2  3  1  0
  3  4  2  0
  3 49  1  0
  4  5  1  0
  4 53  1  0
  5  6  2  0
  5 54  1  0
  6  7  1  0
  6 48  1  0
  7  8  1  0
  7 28  1  0
  8  9  2  0
  8 27  1  0
  9 10  1  0
  9 55  1  0
 10 11  2  0
 10 56  1  0
 11 12  1  0
 11 26  1  0
 12 13  2  0
 12 57  1  0
 13 14  1  0
 13 20  1  0
 14 15  2  0
 14 19  1  0
 15 16  1  0
 15 58  1  0
 16 17  2  0
 16 59  1  0
 17 18  1  0
 17 60  1  0
 18 19  2  0
 18 61  1  0
 19 62  1  0
 20 21  2  0
 20 25  1  0
 21 22  1  0
 21 63  1  0
 22 23  2  0
 22 64  1  0
 23 24  1  0
 23 65  1  0
 24 25  2  0
 24 66  1  0
 25 67  1  0
 26 27  2  0
 26 68  1  0
 27 69  1  0
 28 29  2  0
 28 47  1  0
 29 30  1  0
 29 70  1  0
 30 31  2  0
 30 71  1  0
 31 32  1  0
 31 46  1  0
 32 33  2  0
 32 72  1  0
 33 34  1  0
 33 40  1  0
 34 35  2  0
 34 39  1  0
 35 36  1  0
 35 73  1  0
 36 37  2  0
 36 74  1  0
 37 38  1  0
 37 75  1  0
 38 39  2  0
 38 76  1  0
 39 77  1  0
 40 41  2  0
 40 45  1  0
 41 42  1  0
 41 78  1  0
 42 43  2  0
 42 79  1  0
 43 44  1  0
 43 80  1  0
 44 45  2  0
 44 81  1  0
 45 82  1  0
 46 47  2  0
 46 83  1  0
 47 84  1  0
 48 49  2  0
 48 85  1  0
 49 86  1  0
M  END

