
     RDKit          3D

 45 46  0  0  0  0  0  0  0  0999 V2000
    2.6033    1.1210   -0.3459 C   0  0  0  0  0  0  0  0  0  0  0  0
    3.1082    1.3873    1.0775 C   0  0  1  0  0  0  0  0  0  0  0  0
    2.0183    2.0764    1.9209 C   0  0  0  0  0  0  0  0  0  0  0  0
    3.6429    0.1486    1.7564 C   0  0  0  0  0  0  0  0  0  0  0  0
    3.5257   -1.1798    1.3629 C   0  0  0  0  0  0  0  0  0  0  0  0
    4.1353   -2.0631    2.2003 N   0  0  0  0  0  0  0  0  0  0  0  0
    4.7991   -1.2275    3.1594 N   0  0  0  0  0  0  0  0  0  0  0  0
    4.8521   -1.7610    4.5054 C   0  0  1  0  0  0  0  0  0  0  0  0
    3.5028   -2.1949    5.1212 C   0  0  0  0  0  0  0  0  0  0  0  0
    2.9586   -3.5305    4.6118 C   0  0  0  0  0  0  0  0  0  0  0  0
    3.9589   -4.5324    4.2483 N   0  0  0  0  0  0  0  0  0  0  0  0
    3.4846   -5.8094    3.8550 C   0  0  0  0  0  0  0  0  0  0  0  0
    2.4731   -5.7744    2.2168 P   0  0  1  0  0  0  0  0  0  0  0  0
    3.5730   -5.0909    0.9557 C   0  0  0  0  0  0  0  0  0  0  0  0
    2.2724   -7.5618    1.9091 C   0  0  0  0  0  0  0  0  0  0  0  0
    1.1850   -5.0388    2.4434 O   0  0  0  0  0  0  0  0  0  0  0  0
    5.3335   -4.1690    3.8961 C   0  0  0  0  0  0  0  0  0  0  0  0
    5.8352   -2.9333    4.6293 C   0  0  0  0  0  0  0  0  0  0  0  0
    4.3555    0.1345    2.9907 C   0  0  0  0  0  0  0  0  0  0  0  0
    2.2770    2.0544   -0.8341 H   0  0  0  0  0  0  0  0  0  0  0  0
    1.7405    0.4334   -0.3369 H   0  0  0  0  0  0  0  0  0  0  0  0
    3.3870    0.6627   -0.9699 H   0  0  0  0  0  0  0  0  0  0  0  0
    3.9465    2.1094    0.9967 H   0  0  0  0  0  0  0  0  0  0  0  0
    1.1264    1.4312    1.9994 H   0  0  0  0  0  0  0  0  0  0  0  0
    1.7074    3.0385    1.4769 H   0  0  0  0  0  0  0  0  0  0  0  0
    2.3779    2.2636    2.9441 H   0  0  0  0  0  0  0  0  0  0  0  0
    2.9856   -1.5630    0.4948 H   0  0  0  0  0  0  0  0  0  0  0  0
    5.2356   -0.9458    5.1372 H   0  0  0  0  0  0  0  0  0  0  0  0
    2.7537   -1.4186    4.9094 H   0  0  0  0  0  0  0  0  0  0  0  0
    3.6115   -2.2479    6.2180 H   0  0  0  0  0  0  0  0  0  0  0  0
    2.3491   -3.3967    3.6968 H   0  0  0  0  0  0  0  0  0  0  0  0
    2.2868   -4.0106    5.3437 H   0  0  0  0  0  0  0  0  0  0  0  0
    2.7423   -6.1864    4.5759 H   0  0  0  0  0  0  0  0  0  0  0  0
    4.3161   -6.5202    3.7553 H   0  0  0  0  0  0  0  0  0  0  0  0
    3.8330   -4.0507    1.2407 H   0  0  0  0  0  0  0  0  0  0  0  0
    3.0139   -5.0738    0.0079 H   0  0  0  0  0  0  0  0  0  0  0  0
    4.4819   -5.6993    0.8312 H   0  0  0  0  0  0  0  0  0  0  0  0
    3.2374   -8.0821    1.8170 H   0  0  0  0  0  0  0  0  0  0  0  0
    1.7089   -7.6756    0.9709 H   0  0  0  0  0  0  0  0  0  0  0  0
    1.6786   -8.0056    2.7218 H   0  0  0  0  0  0  0  0  0  0  0  0
    5.3146   -3.9446    2.8178 H   0  0  0  0  0  0  0  0  0  0  0  0
    5.9616   -5.0549    4.0820 H   0  0  0  0  0  0  0  0  0  0  0  0
    6.8036   -2.6565    4.1885 H   0  0  0  0  0  0  0  0  0  0  0  0
    6.0075   -3.1700    5.6938 H   0  0  0  0  0  0  0  0  0  0  0  0
    5.0485    0.9276    3.3073 H   0  0  0  0  0  0  0  0  0  0  0  0
  1  2  1  0
  1 20  1  0
  1 21  1  0
  1 22  1  0
  2  3  1  0
  2  4  1  0
  2 23  1  1
  3 24  1  0
  3 25  1  0
  3 26  1  0
  4  5  1  0
  4 19  2  0
  5  6  2  0
  5 27  1  0
  6  7  1  0
  7  8  1  0
  7 19  1  0
  8  9  1  0
  8 18  1  0
  8 28  1  1
  9 10  1  0
  9 29  1  0
  9 30  1  0
 10 11  1  0
 10 31  1  0
 10 32  1  0
 11 12  1  0
 11 17  1  0
 13 12  1  6
 12 33  1  0
 12 34  1  0
 13 14  1  0
 13 15  1  0
 13 16  2  0
 14 35  1  0
 14 36  1  0
 14 37  1  0
 15 38  1  0
 15 39  1  0
 15 40  1  0
 17 18  1  0
 17 41  1  0
 17 42  1  0
 18 43  1  0
 18 44  1  0
 19 45  1  0
M  END

