
     RDKit          3D

 42 44  0  0  0  0  0  0  0  0999 V2000
    2.1691    1.3205    1.5188 O   0  0  0  0  0  0  0  0  0  0  0  0
    1.8892    1.5668    0.3787 C   0  0  0  0  0  0  0  0  0  0  0  0
    0.5965    1.7638    0.0204 O   0  0  0  0  0  0  0  0  0  0  0  0
    2.8990    1.6784   -0.7575 C   0  0  0  0  0  0  0  0  0  0  0  0
    4.3400    1.4417   -0.3155 C   0  0  0  0  0  0  0  0  0  0  0  0
    5.3390    1.5737   -1.4811 C   0  0  0  0  0  0  0  0  0  0  0  0
    6.7302    1.3322   -1.1652 N   0  0  0  0  0  0  0  0  0  0  0  0
    7.4325    2.2757   -0.3081 C   0  0  0  0  0  0  0  0  0  0  0  0
    8.7760    1.5868   -0.0750 C   0  0  0  0  0  0  0  0  0  0  0  0
    8.3621    0.1160    0.0748 C   0  0  0  0  0  0  0  0  0  0  0  0
    7.1611   -0.0452   -0.9070 C   0  0  2  0  0  0  0  0  0  0  0  0
    7.5189   -0.8092   -2.1844 C   0  0  0  0  0  0  0  0  0  0  0  0
    7.7739   -0.1274   -3.3600 C   0  0  0  0  0  0  0  0  0  0  0  0
    8.1321   -0.8039   -4.5521 C   0  0  0  0  0  0  0  0  0  0  0  0
    8.2333   -2.1761   -4.5675 C   0  0  0  0  0  0  0  0  0  0  0  0
    7.9816   -2.9293   -3.3862 C   0  0  0  0  0  0  0  0  0  0  0  0
    8.0822   -4.3489   -3.3820 C   0  0  0  0  0  0  0  0  0  0  0  0
    7.8435   -5.0783   -2.2368 C   0  0  0  0  0  0  0  0  0  0  0  0
    7.4924   -4.4109   -1.0388 C   0  0  0  0  0  0  0  0  0  0  0  0
    7.3862   -3.0346   -1.0089 C   0  0  0  0  0  0  0  0  0  0  0  0
    7.6213   -2.2444   -2.1729 C   0  0  0  0  0  0  0  0  0  0  0  0
    0.5311    1.9471   -0.9276 H   0  0  0  0  0  0  0  0  0  0  0  0
    2.7883    2.6803   -1.2147 H   0  0  0  0  0  0  0  0  0  0  0  0
    2.6074    0.9590   -1.5463 H   0  0  0  0  0  0  0  0  0  0  0  0
    4.4105    0.4414    0.1410 H   0  0  0  0  0  0  0  0  0  0  0  0
    4.5863    2.1557    0.4865 H   0  0  0  0  0  0  0  0  0  0  0  0
    5.2545    2.5896   -1.9113 H   0  0  0  0  0  0  0  0  0  0  0  0
    5.0473    0.8808   -2.2909 H   0  0  0  0  0  0  0  0  0  0  0  0
    6.9228    2.4530    0.6660 H   0  0  0  0  0  0  0  0  0  0  0  0
    7.5276    3.2589   -0.8030 H   0  0  0  0  0  0  0  0  0  0  0  0
    9.3146    1.9747    0.8026 H   0  0  0  0  0  0  0  0  0  0  0  0
    9.4234    1.7173   -0.9572 H   0  0  0  0  0  0  0  0  0  0  0  0
    8.0208   -0.0719    1.1061 H   0  0  0  0  0  0  0  0  0  0  0  0
    9.1767   -0.5907   -0.1374 H   0  0  0  0  0  0  0  0  0  0  0  0
    6.3620   -0.6140   -0.3954 H   0  0  0  0  0  0  0  0  0  0  0  0
    7.6850    0.9606   -3.3487 H   0  0  0  0  0  0  0  0  0  0  0  0
    8.3258   -0.2269   -5.4603 H   0  0  0  0  0  0  0  0  0  0  0  0
    8.5071   -2.7070   -5.4833 H   0  0  0  0  0  0  0  0  0  0  0  0
    8.3552   -4.8548   -4.3124 H   0  0  0  0  0  0  0  0  0  0  0  0
    7.9247   -6.1682   -2.2499 H   0  0  0  0  0  0  0  0  0  0  0  0
    7.3045   -4.9898   -0.1309 H   0  0  0  0  0  0  0  0  0  0  0  0
    7.1188   -2.5486   -0.0697 H   0  0  0  0  0  0  0  0  0  0  0  0
  1  2  2  0
  2  3  1  0
  2  4  1  0
  3 22  1  0
  4  5  1  0
  4 23  1  0
  4 24  1  0
  5  6  1  0
  5 25  1  0
  5 26  1  0
  6  7  1  0
  6 27  1  0
  6 28  1  0
  7  8  1  0
  7 11  1  0
  8  9  1  0
  8 29  1  0
  8 30  1  0
  9 10  1  0
  9 31  1  0
  9 32  1  0
 10 11  1  0
 10 33  1  0
 10 34  1  0
 11 12  1  0
 11 35  1  1
 12 13  2  0
 12 21  1  0
 13 14  1  0
 13 36  1  0
 14 15  2  0
 14 37  1  0
 15 16  1  0
 15 38  1  0
 16 17  1  0
 16 21  2  0
 17 18  2  0
 17 39  1  0
 18 19  1  0
 18 40  1  0
 19 20  2  0
 19 41  1  0
 20 21  1  0
 20 42  1  0
M  END

