
     RDKit          3D

 50 53  0  0  0  0  0  0  0  0999 V2000
    2.1869   -0.5428    3.1297 C   0  0  0  0  0  0  0  0  0  0  0  0
    2.8053   -0.0137    1.8626 C   0  0  0  0  0  0  0  0  0  0  0  0
    3.5251    1.1876    1.8617 C   0  0  0  0  0  0  0  0  0  0  0  0
    4.1192    1.6496    0.6842 C   0  0  0  0  0  0  0  0  0  0  0  0
    4.0484    0.9984   -0.4776 N   0  0  0  0  0  0  0  0  0  0  0  0
    3.3534   -0.1394   -0.4924 C   0  0  0  0  0  0  0  0  0  0  0  0
    2.7048   -0.6897    0.6244 C   0  0  0  0  0  0  0  0  0  0  0  0
    2.0227   -2.0301    0.5269 C   0  0  0  0  0  0  0  0  0  0  0  0
    2.2456   -2.9188    1.3396 O   0  0  0  0  0  0  0  0  0  0  0  0
    1.1602   -2.2371   -0.5180 N   0  0  0  0  0  0  0  0  0  0  0  0
    0.4999   -3.5447   -0.6339 C   0  0  0  0  0  0  0  0  0  0  0  0
   -0.4776   -3.3642   -1.7988 C   0  0  0  0  0  0  0  0  0  0  0  0
   -0.8160   -1.8555   -1.7450 C   0  0  2  0  0  0  0  0  0  0  0  0
   -1.4054   -1.3168   -3.0040 C   0  0  0  0  0  0  0  0  0  0  0  0
   -0.8292   -1.1321   -4.1543 N   0  0  0  0  0  0  0  0  0  0  0  0
   -1.8556   -0.6465   -4.9330 C   0  0  0  0  0  0  0  0  0  0  0  0
   -1.6839   -0.2735   -6.3694 C   0  0  0  0  0  0  0  0  0  0  0  0
   -2.9556    0.2470   -7.0244 C   0  0  0  0  0  0  0  0  0  0  0  0
   -2.6307    0.5477   -8.3675 O   0  0  0  0  0  0  0  0  0  0  0  0
   -3.5936    1.0316   -9.1988 C   0  0  0  0  0  0  0  0  0  0  0  0
   -4.9247    1.2651   -8.8217 C   0  0  0  0  0  0  0  0  0  0  0  0
   -5.8392    1.7642   -9.7583 C   0  0  0  0  0  0  0  0  0  0  0  0
   -5.4207    2.0249  -11.0570 C   0  0  0  0  0  0  0  0  0  0  0  0
   -6.3000    2.5033  -11.9541 F   0  0  0  0  0  0  0  0  0  0  0  0
   -4.1002    1.7984  -11.4483 C   0  0  0  0  0  0  0  0  0  0  0  0
   -3.1905    1.3027  -10.5185 C   0  0  0  0  0  0  0  0  0  0  0  0
   -2.9967   -0.5390   -4.2988 N   0  0  0  0  0  0  0  0  0  0  0  0
   -2.7031   -0.9832   -3.0141 O   0  0  0  0  0  0  0  0  0  0  0  0
    0.5512   -1.2328   -1.3935 C   0  0  0  0  0  0  0  0  0  0  0  0
    2.2968    0.1779    3.9525 H   0  0  0  0  0  0  0  0  0  0  0  0
    2.6563   -1.4959    3.4130 H   0  0  0  0  0  0  0  0  0  0  0  0
    1.1150   -0.7595    2.9963 H   0  0  0  0  0  0  0  0  0  0  0  0
    3.6285    1.7642    2.7845 H   0  0  0  0  0  0  0  0  0  0  0  0
    4.6823    2.5908    0.6868 H   0  0  0  0  0  0  0  0  0  0  0  0
    3.3218   -0.6715   -1.4501 H   0  0  0  0  0  0  0  0  0  0  0  0
   -0.0113   -3.7888    0.3131 H   0  0  0  0  0  0  0  0  0  0  0  0
    1.2366   -4.3438   -0.8089 H   0  0  0  0  0  0  0  0  0  0  0  0
   -1.3678   -4.0036   -1.7123 H   0  0  0  0  0  0  0  0  0  0  0  0
    0.0107   -3.5872   -2.7607 H   0  0  0  0  0  0  0  0  0  0  0  0
   -1.5332   -1.6707   -0.9300 H   0  0  0  0  0  0  0  0  0  0  0  0
   -1.3136   -1.1530   -6.9220 H   0  0  0  0  0  0  0  0  0  0  0  0
   -0.8876    0.4856   -6.4449 H   0  0  0  0  0  0  0  0  0  0  0  0
   -3.3237    1.1453   -6.4965 H   0  0  0  0  0  0  0  0  0  0  0  0
   -3.7570   -0.5120   -6.9733 H   0  0  0  0  0  0  0  0  0  0  0  0
   -5.2668    1.0643   -7.8064 H   0  0  0  0  0  0  0  0  0  0  0  0
   -6.8789    1.9515   -9.4823 H   0  0  0  0  0  0  0  0  0  0  0  0
   -3.8009    2.0130  -12.4762 H   0  0  0  0  0  0  0  0  0  0  0  0
   -2.1509    1.1147  -10.7934 H   0  0  0  0  0  0  0  0  0  0  0  0
    0.4579   -0.2603   -0.8901 H   0  0  0  0  0  0  0  0  0  0  0  0
    1.1287   -1.0810   -2.3214 H   0  0  0  0  0  0  0  0  0  0  0  0
  1  2  1  0
  1 30  1  0
  1 31  1  0
  1 32  1  0
  2  3  2  0
  2  7  1  0
  3  4  1  0
  3 33  1  0
  4  5  2  0
  4 34  1  0
  5  6  1  0
  6  7  2  0
  6 35  1  0
  7  8  1  0
  8  9  2  0
  8 10  1  0
 10 11  1  0
 10 29  1  0
 11 12  1  0
 11 36  1  0
 11 37  1  0
 12 13  1  0
 12 38  1  0
 12 39  1  0
 13 14  1  0
 13 29  1  0
 13 40  1  1
 14 15  2  0
 14 28  1  0
 15 16  1  0
 16 17  1  0
 16 27  2  0
 17 18  1  0
 17 41  1  0
 17 42  1  0
 18 19  1  0
 18 43  1  0
 18 44  1  0
 19 20  1  0
 20 21  2  0
 20 26  1  0
 21 22  1  0
 21 45  1  0
 22 23  2  0
 22 46  1  0
 23 24  1  0
 23 25  1  0
 25 26  2  0
 25 47  1  0
 26 48  1  0
 27 28  1  0
 29 49  1  0
 29 50  1  0
M  END

