
     RDKit          3D

 35 36  0  0  0  0  0  0  0  0999 V2000
    1.2793   -0.5081   -0.6919 C   0  0  0  0  0  0  0  0  0  0  0  0
    2.5433    0.0561   -0.0423 C   0  0  0  0  0  0  0  0  0  0  0  0
    3.0544   -0.8407    1.0812 C   0  0  0  0  0  0  0  0  0  0  0  0
    4.2249   -0.3379    1.7335 N   0  0  0  0  0  0  0  0  0  0  0  0
    5.0001   -1.0365    2.7916 C   0  0  1  0  0  0  0  0  0  0  0  0
    4.4417   -2.3450    3.2194 C   0  0  0  0  0  0  0  0  0  0  0  0
    3.6737   -2.5907    4.3738 C   0  0  0  0  0  0  0  0  0  0  0  0
    3.2863   -3.8360    4.6037 N   0  0  0  0  0  0  0  0  0  0  0  0
    3.6663   -4.6584    3.6073 C   0  0  0  0  0  0  0  0  0  0  0  0
    3.6528   -6.1264    3.7213 C   0  0  1  0  0  0  0  0  0  0  0  0
    4.6370   -6.6546    4.5150 F   0  0  0  0  0  0  0  0  0  0  0  0
    2.4973   -6.5896    4.2371 F   0  0  0  0  0  0  0  0  0  0  0  0
    3.8305   -6.7098    2.5081 F   0  0  0  0  0  0  0  0  0  0  0  0
    4.7037   -3.8779    2.3476 S   0  0  0  0  0  0  0  0  0  0  0  0
    6.4554   -1.0021    2.3532 C   0  0  0  0  0  0  0  0  0  0  0  0
    6.8886   -1.3215    1.0822 C   0  0  0  0  0  0  0  0  0  0  0  0
    8.6048   -1.2528    0.9507 S   0  0  0  0  0  0  0  0  0  0  0  0
    8.7539   -0.7898    2.6126 C   0  0  0  0  0  0  0  0  0  0  0  0
    7.5414   -0.6897    3.2495 C   0  0  0  0  0  0  0  0  0  0  0  0
    7.3664   -0.3439    4.7023 C   0  0  0  0  0  0  0  0  0  0  0  0
    0.9296    0.1492   -1.5013 H   0  0  0  0  0  0  0  0  0  0  0  0
    0.4611   -0.6052    0.0396 H   0  0  0  0  0  0  0  0  0  0  0  0
    1.4613   -1.5052   -1.1232 H   0  0  0  0  0  0  0  0  0  0  0  0
    2.3393    1.0651    0.3583 H   0  0  0  0  0  0  0  0  0  0  0  0
    3.3348    0.1721   -0.8036 H   0  0  0  0  0  0  0  0  0  0  0  0
    3.2794   -1.8705    0.7503 H   0  0  0  0  0  0  0  0  0  0  0  0
    2.2953   -0.9999    1.8722 H   0  0  0  0  0  0  0  0  0  0  0  0
    4.5744    0.5787    1.4472 H   0  0  0  0  0  0  0  0  0  0  0  0
    4.9154   -0.3381    3.6462 H   0  0  0  0  0  0  0  0  0  0  0  0
    3.4048   -1.7985    5.0835 H   0  0  0  0  0  0  0  0  0  0  0  0
    6.2924   -1.6439    0.2292 H   0  0  0  0  0  0  0  0  0  0  0  0
    9.7408   -0.6283    3.0446 H   0  0  0  0  0  0  0  0  0  0  0  0
    8.3384   -0.1943    5.1927 H   0  0  0  0  0  0  0  0  0  0  0  0
    6.8353   -1.1475    5.2376 H   0  0  0  0  0  0  0  0  0  0  0  0
    6.7835    0.5839    4.8378 H   0  0  0  0  0  0  0  0  0  0  0  0
  1  2  1  0
  1 21  1  0
  1 22  1  0
  1 23  1  0
  2  3  1  0
  2 24  1  0
  2 25  1  0
  3  4  1  0
  3 26  1  0
  3 27  1  0
  4  5  1  0
  4 28  1  0
  5  6  1  0
  5 15  1  0
  5 29  1  1
  6  7  2  0
  6 14  1  0
  7  8  1  0
  7 30  1  0
  8  9  2  0
  9 10  1  0
  9 14  1  0
 10 11  1  1
 10 12  1  0
 10 13  1  0
 15 16  2  0
 15 19  1  0
 16 17  1  0
 16 31  1  0
 17 18  1  0
 18 19  2  0
 18 32  1  0
 19 20  1  0
 20 33  1  0
 20 34  1  0
 20 35  1  0
M  END

