
     RDKit          3D

 42 43  0  0  0  0  0  0  0  0999 V2000
    7.7847   -2.4905    2.5163 C   0  0  0  0  0  0  0  0  0  0  0  0
    7.9475   -1.0444    2.0038 C   0  0  1  0  0  0  0  0  0  0  0  0
    6.7442   -0.2189    2.4922 C   0  0  0  0  0  0  0  0  0  0  0  0
    9.2754   -0.4939    2.5820 C   0  0  0  0  0  0  0  0  0  0  0  0
    9.7397    0.8923    2.1239 C   0  0  0  0  0  0  0  0  0  0  0  0
    9.9436    1.0526    0.6115 C   0  0  0  0  0  0  0  0  0  0  0  0
    8.7002    1.2740   -0.1319 N   0  0  0  0  0  0  0  0  0  0  0  0
    8.4989    2.5216   -0.6644 C   0  0  0  0  0  0  0  0  0  0  0  0
    9.3053    3.4362   -0.5513 O   0  0  0  0  0  0  0  0  0  0  0  0
    7.1577    2.7653   -1.3964 C   0  0  2  0  0  0  0  0  0  0  0  0
    6.9419    1.9465   -2.0995 H   0  0  0  0  0  0  0  0  0  0  0  0
    7.0978    4.1335   -2.0809 C   0  0  0  0  0  0  0  0  0  0  0  0
    6.5533    5.0441   -0.9750 C   0  0  0  0  0  0  0  0  0  0  0  0
    5.5785    4.1118   -0.2385 C   0  0  2  0  0  0  0  0  0  0  0  0
    4.5665    4.1646   -0.6769 H   0  0  0  0  0  0  0  0  0  0  0  0
    5.4536    4.4388    1.2529 C   0  0  0  0  0  0  0  0  0  0  0  0
    4.8877    5.4202    1.6505 O   0  0  0  0  0  0  0  0  0  0  0  0
    6.0592    3.5555    2.0575 O   0  0  0  0  0  0  0  0  0  0  0  0
    6.1008    2.7843   -0.4081 O   0  0  0  0  0  0  0  0  0  0  0  0
    7.7610    0.1629   -0.3661 C   0  0  0  0  0  0  0  0  0  0  0  0
    8.0003   -1.1104    0.4527 C   0  0  0  0  0  0  0  0  0  0  0  0
    7.8123   -2.5265    3.6172 H   0  0  0  0  0  0  0  0  0  0  0  0
    8.5919   -3.1408    2.1406 H   0  0  0  0  0  0  0  0  0  0  0  0
    6.8248   -2.9232    2.1903 H   0  0  0  0  0  0  0  0  0  0  0  0
    6.6592   -0.2709    3.5893 H   0  0  0  0  0  0  0  0  0  0  0  0
    5.7999   -0.5992    2.0685 H   0  0  0  0  0  0  0  0  0  0  0  0
    6.8209    0.8456    2.2289 H   0  0  0  0  0  0  0  0  0  0  0  0
   10.0730   -1.2196    2.3370 H   0  0  0  0  0  0  0  0  0  0  0  0
    9.2000   -0.4951    3.6835 H   0  0  0  0  0  0  0  0  0  0  0  0
   10.7042    1.1037    2.6170 H   0  0  0  0  0  0  0  0  0  0  0  0
    9.0504    1.6817    2.4690 H   0  0  0  0  0  0  0  0  0  0  0  0
   10.4714    0.1765    0.1969 H   0  0  0  0  0  0  0  0  0  0  0  0
   10.5658    1.9335    0.4152 H   0  0  0  0  0  0  0  0  0  0  0  0
    6.3992    4.0885   -2.9312 H   0  0  0  0  0  0  0  0  0  0  0  0
    8.0841    4.4504   -2.4414 H   0  0  0  0  0  0  0  0  0  0  0  0
    6.0532    5.9494   -1.3443 H   0  0  0  0  0  0  0  0  0  0  0  0
    7.3733    5.3456   -0.3070 H   0  0  0  0  0  0  0  0  0  0  0  0
    6.3938    2.8448    1.4752 H   0  0  0  0  0  0  0  0  0  0  0  0
    7.7981   -0.1323   -1.4318 H   0  0  0  0  0  0  0  0  0  0  0  0
    6.7389    0.5176   -0.1756 H   0  0  0  0  0  0  0  0  0  0  0  0
    8.9513   -1.5815    0.1523 H   0  0  0  0  0  0  0  0  0  0  0  0
    7.2140   -1.8076    0.1145 H   0  0  0  0  0  0  0  0  0  0  0  0
  2  1  1  1
  1 22  1  0
  1 23  1  0
  1 24  1  0
  2  3  1  0
  2  4  1  0
  2 21  1  0
  3 25  1  0
  3 26  1  0
  3 27  1  0
  4  5  1  0
  4 28  1  0
  4 29  1  0
  5  6  1  0
  5 30  1  0
  5 31  1  0
  6  7  1  0
  6 32  1  0
  6 33  1  0
  7  8  1  0
  7 20  1  0
  8  9  2  0
  8 10  1  0
 10 11  1  6
 10 12  1  0
 10 19  1  0
 12 13  1  0
 12 34  1  0
 12 35  1  0
 13 14  1  0
 13 36  1  0
 13 37  1  0
 14 15  1  6
 14 16  1  0
 14 19  1  0
 16 17  2  0
 16 18  1  0
 18 38  1  0
 20 21  1  0
 20 39  1  0
 20 40  1  0
 21 41  1  0
 21 42  1  0
M  END

