
     RDKit          3D

 34 35  0  0  0  0  0  0  0  0999 V2000
    0.9797   -0.5927   -0.6686 C   0  0  0  0  0  0  0  0  0  0  0  0
    2.3513   -0.6117    0.0039 C   0  0  0  0  0  0  0  0  0  0  0  0
    3.4380   -1.2285   -0.8964 C   0  0  1  0  0  0  0  0  0  0  0  0
    3.7390   -0.5160   -2.1275 N   0  0  0  0  0  0  0  0  0  0  0  0
    4.7539   -1.3407   -0.1749 C   0  0  0  0  0  0  0  0  0  0  0  0
    5.5264   -0.2443    0.0844 N   0  0  0  0  0  0  0  0  0  0  0  0
    6.5941   -0.7316    0.6647 N   0  0  0  0  0  0  0  0  0  0  0  0
    7.3559   -0.1294    0.9708 H   0  0  0  0  0  0  0  0  0  0  0  0
    6.5722   -2.1399    0.8056 C   0  0  0  0  0  0  0  0  0  0  0  0
    7.4254   -2.8223    1.3024 O   0  0  0  0  0  0  0  0  0  0  0  0
    5.3296   -2.4689    0.2315 N   0  0  0  0  0  0  0  0  0  0  0  0
    4.7311   -3.8088    0.1594 C   0  0  0  0  0  0  0  0  0  0  0  0
    5.0499   -4.6114   -0.9153 C   0  0  0  0  0  0  0  0  0  0  0  0
    4.4276   -5.8932   -1.0368 C   0  0  0  0  0  0  0  0  0  0  0  0
    3.5046   -6.2867   -0.0204 C   0  0  0  0  0  0  0  0  0  0  0  0
    2.9748   -7.5365   -0.2042 O   0  0  0  0  0  0  0  0  0  0  0  0
    2.0682   -8.0366    0.7394 C   0  0  0  0  0  0  0  0  0  0  0  0
    3.1809   -5.4654    1.0472 C   0  0  0  0  0  0  0  0  0  0  0  0
    3.7733   -4.1395    1.1563 C   0  0  0  0  0  0  0  0  0  0  0  0
    0.2320   -0.1116   -0.0204 H   0  0  0  0  0  0  0  0  0  0  0  0
    0.6315   -1.6154   -0.8832 H   0  0  0  0  0  0  0  0  0  0  0  0
    1.0028   -0.0370   -1.6197 H   0  0  0  0  0  0  0  0  0  0  0  0
    2.3051   -1.2020    0.9332 H   0  0  0  0  0  0  0  0  0  0  0  0
    2.6587    0.4124    0.2840 H   0  0  0  0  0  0  0  0  0  0  0  0
    3.1515   -2.2598   -1.1410 H   0  0  0  0  0  0  0  0  0  0  0  0
    3.5560    0.4833   -2.0829 H   0  0  0  0  0  0  0  0  0  0  0  0
    3.3067   -0.9232   -2.9502 H   0  0  0  0  0  0  0  0  0  0  0  0
    5.7550   -4.2684   -1.6756 H   0  0  0  0  0  0  0  0  0  0  0  0
    4.6702   -6.5838   -1.8412 H   0  0  0  0  0  0  0  0  0  0  0  0
    1.7785   -9.0433    0.4041 H   0  0  0  0  0  0  0  0  0  0  0  0
    1.1583   -7.4108    0.8162 H   0  0  0  0  0  0  0  0  0  0  0  0
    2.5163   -8.1116    1.7485 H   0  0  0  0  0  0  0  0  0  0  0  0
    2.4743   -5.7857    1.8115 H   0  0  0  0  0  0  0  0  0  0  0  0
    3.7046   -3.5759    2.0875 H   0  0  0  0  0  0  0  0  0  0  0  0
  1  2  1  0
  1 20  1  0
  1 21  1  0
  1 22  1  0
  2  3  1  0
  2 23  1  0
  2 24  1  0
  3  4  1  0
  3  5  1  0
  3 25  1  1
  4 26  1  0
  4 27  1  0
  5  6  2  0
  5 11  1  0
  6  7  1  0
  7  8  1  0
  7  9  1  0
  9 10  2  0
  9 11  1  0
 11 12  1  0
 12 13  2  0
 12 19  1  0
 13 14  1  0
 13 28  1  0
 14 15  2  0
 14 29  1  0
 15 16  1  0
 15 18  1  0
 16 17  1  0
 17 30  1  0
 17 31  1  0
 17 32  1  0
 18 19  2  0
 18 33  1  0
 19 34  1  0
M  END

