
     RDKit          3D

 43 43  0  0  0  0  0  0  0  0999 V2000
    4.9516    0.6258   -1.2786 C   0  0  0  0  0  0  0  0  0  0  0  0
    4.6062   -0.4248   -0.4104 O   0  0  0  0  0  0  0  0  0  0  0  0
    4.2953   -0.1476    0.8809 C   0  0  0  0  0  0  0  0  0  0  0  0
    4.2862    1.1326    1.4156 C   0  0  0  0  0  0  0  0  0  0  0  0
    3.9598    1.3465    2.8028 C   0  0  0  0  0  0  0  0  0  0  0  0
    3.9859    2.6447    3.3495 C   0  0  0  0  0  0  0  0  0  0  0  0
    4.2211    3.7167    2.6104 O   0  0  0  0  0  0  0  0  0  0  0  0
    3.7962    2.9279    4.6623 N   0  0  0  0  0  0  0  0  0  0  0  0
    3.8265    4.2633    5.2318 C   0  0  0  0  0  0  0  0  0  0  0  0
    2.8946    4.3637    6.4443 C   0  0  0  0  0  0  0  0  0  0  0  0
    3.2769    3.4033    7.5701 C   0  0  0  0  0  0  0  0  0  0  0  0
    3.8057    2.3194    7.3331 O   0  0  0  0  0  0  0  0  0  0  0  0
    2.9648    3.8120    8.8257 N   0  0  0  0  0  0  0  0  0  0  0  0
    3.1822    3.0023   10.0269 C   0  0  1  0  0  0  0  0  0  0  0  0
    4.2054    3.6688   10.9523 C   0  0  0  0  0  0  0  0  0  0  0  0
    1.8526    2.7184   10.7327 C   0  0  0  0  0  0  0  0  0  0  0  0
    3.6221    0.2066    3.6073 C   0  0  0  0  0  0  0  0  0  0  0  0
    3.6352   -1.0652    3.0620 C   0  0  0  0  0  0  0  0  0  0  0  0
    3.3434   -2.1295    3.8750 O   0  0  0  0  0  0  0  0  0  0  0  0
    2.0103   -2.6061    3.8198 C   0  0  0  0  0  0  0  0  0  0  0  0
    3.9712   -1.2676    1.6990 C   0  0  0  0  0  0  0  0  0  0  0  0
    4.0868   -3.0213    0.9860 Br  0  0  0  0  0  0  0  0  0  0  0  0
    5.1641    0.1677   -2.2543 H   0  0  0  0  0  0  0  0  0  0  0  0
    5.8513    1.1676   -0.9336 H   0  0  0  0  0  0  0  0  0  0  0  0
    4.1267    1.3524   -1.3961 H   0  0  0  0  0  0  0  0  0  0  0  0
    4.5456    1.9824    0.7886 H   0  0  0  0  0  0  0  0  0  0  0  0
    3.9301    2.1838    5.3493 H   0  0  0  0  0  0  0  0  0  0  0  0
    3.5085    4.9845    4.4646 H   0  0  0  0  0  0  0  0  0  0  0  0
    4.8538    4.5477    5.5312 H   0  0  0  0  0  0  0  0  0  0  0  0
    1.8649    4.1154    6.1322 H   0  0  0  0  0  0  0  0  0  0  0  0
    2.8805    5.4042    6.8074 H   0  0  0  0  0  0  0  0  0  0  0  0
    2.5428    4.7268    8.9438 H   0  0  0  0  0  0  0  0  0  0  0  0
    3.6013    2.0566    9.6532 H   0  0  0  0  0  0  0  0  0  0  0  0
    3.8395    4.6448   11.3159 H   0  0  0  0  0  0  0  0  0  0  0  0
    5.1606    3.8324   10.4310 H   0  0  0  0  0  0  0  0  0  0  0  0
    4.3997    3.0379   11.8337 H   0  0  0  0  0  0  0  0  0  0  0  0
    1.3800    3.6515   11.0861 H   0  0  0  0  0  0  0  0  0  0  0  0
    2.0106    2.0743   11.6116 H   0  0  0  0  0  0  0  0  0  0  0  0
    1.1469    2.2100   10.0582 H   0  0  0  0  0  0  0  0  0  0  0  0
    3.3344    0.2949    4.6559 H   0  0  0  0  0  0  0  0  0  0  0  0
    1.9360   -3.4346    4.5390 H   0  0  0  0  0  0  0  0  0  0  0  0
    1.7484   -2.9821    2.8156 H   0  0  0  0  0  0  0  0  0  0  0  0
    1.2902   -1.8165    4.1051 H   0  0  0  0  0  0  0  0  0  0  0  0
  1  2  1  0
  1 23  1  0
  1 24  1  0
  1 25  1  0
  2  3  1  0
  3  4  2  0
  3 21  1  0
  4  5  1  0
  4 26  1  0
  5  6  1  0
  5 17  2  0
  6  7  2  0
  6  8  1  0
  8  9  1  0
  8 27  1  0
  9 10  1  0
  9 28  1  0
  9 29  1  0
 10 11  1  0
 10 30  1  0
 10 31  1  0
 11 12  2  0
 11 13  1  0
 13 14  1  0
 13 32  1  0
 14 15  1  0
 14 16  1  0
 14 33  1  6
 15 34  1  0
 15 35  1  0
 15 36  1  0
 16 37  1  0
 16 38  1  0
 16 39  1  0
 17 18  1  0
 17 40  1  0
 18 19  1  0
 18 21  2  0
 19 20  1  0
 20 41  1  0
 20 42  1  0
 20 43  1  0
 21 22  1  0
M  END

