
     RDKit          3D

110118  0  0  0  0  0  0  0  0999 V2000
    6.3189    6.4356    0.3704 C   0  0  0  0  0  0  0  0  0  0  0  0
    7.4258    5.0828    0.7789 S   0  0  1  0  0  0  0  0  0  0  0  0
    8.1945    4.7664   -0.4267 O   0  0  0  0  0  0  0  0  0  0  0  0
    8.0844    5.3880    2.0495 O   0  0  0  0  0  0  0  0  0  0  0  0
    6.3350    3.8085    1.1445 N   0  0  0  0  0  0  0  0  0  0  0  0
    6.0173    2.8682    0.1129 C   0  0  0  0  0  0  0  0  0  0  0  0
    4.8634    3.0614   -0.6575 C   0  0  0  0  0  0  0  0  0  0  0  0
    4.5603    2.1642   -1.6840 C   0  0  0  0  0  0  0  0  0  0  0  0
    5.3941    1.0735   -1.9368 C   0  0  0  0  0  0  0  0  0  0  0  0
    6.5534    0.8586   -1.1661 C   0  0  0  0  0  0  0  0  0  0  0  0
    7.4622   -0.2898   -1.4531 C   0  0  0  0  0  0  0  0  0  0  0  0
    8.8116    0.0019   -1.8102 C   0  0  0  0  0  0  0  0  0  0  0  0
    9.7804   -0.9326   -2.0570 N   0  0  0  0  0  0  0  0  0  0  0  0
   10.9126   -0.2219   -2.3494 C   0  0  0  0  0  0  0  0  0  0  0  0
   12.1782   -0.7759   -2.6922 C   0  0  0  0  0  0  0  0  0  0  0  0
   13.3151    0.1755   -2.9019 C   0  0  0  0  0  0  0  0  0  0  0  0
   13.8586    0.8837   -1.8174 C   0  0  0  0  0  0  0  0  0  0  0  0
   14.9216    1.7649   -2.0267 C   0  0  0  0  0  0  0  0  0  0  0  0
   15.4542    1.9485   -3.3020 C   0  0  0  0  0  0  0  0  0  0  0  0
   14.9112    1.2548   -4.3984 C   0  0  0  0  0  0  0  0  0  0  0  0
   15.4640    1.4883   -5.6721 N   0  0  0  0  0  0  0  0  0  0  0  0
   15.3344    0.5605   -7.0724 S   0  0  1  0  0  0  0  0  0  0  0  0
   16.2030   -0.9720   -6.6971 C   0  0  0  0  0  0  0  0  0  0  0  0
   13.9334    0.2170   -7.2977 O   0  0  0  0  0  0  0  0  0  0  0  0
   16.1187    1.3012   -8.0568 O   0  0  0  0  0  0  0  0  0  0  0  0
   13.8375    0.3723   -4.1910 C   0  0  0  0  0  0  0  0  0  0  0  0
   12.4602   -2.1446   -2.8770 C   0  0  0  0  0  0  0  0  0  0  0  0
   13.7280   -2.7149   -3.2407 C   0  0  0  0  0  0  0  0  0  0  0  0
   13.5667   -4.0714   -3.3853 C   0  0  0  0  0  0  0  0  0  0  0  0
   12.1947   -4.3872   -3.0802 C   0  0  0  0  0  0  0  0  0  0  0  0
   11.5757   -3.1956   -2.7703 N   0  0  0  0  0  0  0  0  0  0  0  0
   10.5985   -3.1075   -2.5011 H   0  0  0  0  0  0  0  0  0  0  0  0
   11.5829   -5.6586   -3.1206 C   0  0  0  0  0  0  0  0  0  0  0  0
   12.4387   -6.7921   -3.5825 C   0  0  0  0  0  0  0  0  0  0  0  0
   12.1434   -7.4788   -4.7762 C   0  0  0  0  0  0  0  0  0  0  0  0
   12.9751   -8.5009   -5.2361 C   0  0  0  0  0  0  0  0  0  0  0  0
   14.1214   -8.8562   -4.5195 C   0  0  0  0  0  0  0  0  0  0  0  0
   14.4324   -8.1793   -3.3347 C   0  0  0  0  0  0  0  0  0  0  0  0
   15.6324   -8.5151   -2.6283 N   0  0  0  0  0  0  0  0  0  0  0  0
   17.0223   -7.5439   -2.8890 S   0  0  1  0  0  0  0  0  0  0  0  0
   17.9278   -8.4856   -4.1195 C   0  0  0  0  0  0  0  0  0  0  0  0
   16.6457   -6.2690   -3.5070 O   0  0  0  0  0  0  0  0  0  0  0  0
   17.7609   -7.5914   -1.6270 O   0  0  0  0  0  0  0  0  0  0  0  0
   13.5867   -7.1655   -2.8674 C   0  0  0  0  0  0  0  0  0  0  0  0
   10.2310   -5.9438   -2.7685 C   0  0  0  0  0  0  0  0  0  0  0  0
    9.3079   -5.0286   -2.3401 N   0  0  0  0  0  0  0  0  0  0  0  0
    8.1829   -5.7458   -2.0389 C   0  0  0  0  0  0  0  0  0  0  0  0
    6.9560   -5.2069   -1.5483 C   0  0  0  0  0  0  0  0  0  0  0  0
    5.8817   -6.1670   -1.1582 C   0  0  0  0  0  0  0  0  0  0  0  0
    6.0914   -7.0996   -0.1228 C   0  0  0  0  0  0  0  0  0  0  0  0
    5.0710   -7.9616    0.2804 C   0  0  0  0  0  0  0  0  0  0  0  0
    3.8179   -7.9109   -0.3369 C   0  0  0  0  0  0  0  0  0  0  0  0
    3.5908   -6.9867   -1.3633 C   0  0  0  0  0  0  0  0  0  0  0  0
    2.2905   -6.9105   -1.9607 N   0  0  0  0  0  0  0  0  0  0  0  0
    1.2301   -5.6711   -1.4308 S   0  0  1  0  0  0  0  0  0  0  0  0
    0.2513   -6.5086   -0.1813 C   0  0  0  0  0  0  0  0  0  0  0  0
    1.9814   -4.6089   -0.7555 O   0  0  0  0  0  0  0  0  0  0  0  0
    0.3760   -5.3855   -2.5837 O   0  0  0  0  0  0  0  0  0  0  0  0
    4.6212   -6.1320   -1.7746 C   0  0  0  0  0  0  0  0  0  0  0  0
    6.6660   -3.8365   -1.3731 C   0  0  0  0  0  0  0  0  0  0  0  0
    5.4538   -3.2691   -0.8424 C   0  0  0  0  0  0  0  0  0  0  0  0
    5.5969   -1.9031   -0.8308 C   0  0  0  0  0  0  0  0  0  0  0  0
    6.9004   -1.5809   -1.3423 C   0  0  0  0  0  0  0  0  0  0  0  0
    7.5048   -2.7787   -1.6552 N   0  0  0  0  0  0  0  0  0  0  0  0
    8.4564   -2.8719   -2.0022 H   0  0  0  0  0  0  0  0  0  0  0  0
    8.3887   -7.1606   -2.3029 C   0  0  0  0  0  0  0  0  0  0  0  0
    9.6715   -7.2853   -2.7516 C   0  0  0  0  0  0  0  0  0  0  0  0
   10.6529    1.2081   -2.3014 C   0  0  0  0  0  0  0  0  0  0  0  0
    9.3386    1.3511   -1.9702 C   0  0  0  0  0  0  0  0  0  0  0  0
    6.8495    1.7718   -0.1410 C   0  0  0  0  0  0  0  0  0  0  0  0
    6.9627    7.2949    0.1380 H   0  0  0  0  0  0  0  0  0  0  0  0
    5.6848    6.6405    1.2413 H   0  0  0  0  0  0  0  0  0  0  0  0
    5.7247    6.1546   -0.5084 H   0  0  0  0  0  0  0  0  0  0  0  0
    6.6841    3.3938    2.0095 H   0  0  0  0  0  0  0  0  0  0  0  0
    4.2079    3.9066   -0.4372 H   0  0  0  0  0  0  0  0  0  0  0  0
    3.6651    2.3149   -2.2922 H   0  0  0  0  0  0  0  0  0  0  0  0
    5.1579    0.3840   -2.7500 H   0  0  0  0  0  0  0  0  0  0  0  0
   13.4511    0.7370   -0.8155 H   0  0  0  0  0  0  0  0  0  0  0  0
   15.3497    2.3120   -1.1830 H   0  0  0  0  0  0  0  0  0  0  0  0
   16.2911    2.6354   -3.4556 H   0  0  0  0  0  0  0  0  0  0  0  0
   16.2040    2.1790   -5.7543 H   0  0  0  0  0  0  0  0  0  0  0  0
   15.7245   -1.4606   -5.8382 H   0  0  0  0  0  0  0  0  0  0  0  0
   17.2568   -0.7405   -6.4974 H   0  0  0  0  0  0  0  0  0  0  0  0
   16.1053   -1.6006   -7.5928 H   0  0  0  0  0  0  0  0  0  0  0  0
   13.3831   -0.1366   -5.0405 H   0  0  0  0  0  0  0  0  0  0  0  0
   14.6460   -2.1492   -3.3683 H   0  0  0  0  0  0  0  0  0  0  0  0
   14.3372   -4.7869   -3.6609 H   0  0  0  0  0  0  0  0  0  0  0  0
   11.2607   -7.1924   -5.3518 H   0  0  0  0  0  0  0  0  0  0  0  0
   12.7309   -9.0226   -6.1647 H   0  0  0  0  0  0  0  0  0  0  0  0
   14.7746   -9.6605   -4.8644 H   0  0  0  0  0  0  0  0  0  0  0  0
   15.5313   -8.5787   -1.6143 H   0  0  0  0  0  0  0  0  0  0  0  0
   17.3139   -8.5658   -5.0256 H   0  0  0  0  0  0  0  0  0  0  0  0
   18.1611   -9.4712   -3.6990 H   0  0  0  0  0  0  0  0  0  0  0  0
   18.8444   -7.9164   -4.3258 H   0  0  0  0  0  0  0  0  0  0  0  0
   13.8404   -6.6442   -1.9422 H   0  0  0  0  0  0  0  0  0  0  0  0
    7.0618   -7.1317    0.3769 H   0  0  0  0  0  0  0  0  0  0  0  0
    5.2518   -8.6767    1.0867 H   0  0  0  0  0  0  0  0  0  0  0  0
    3.0139   -8.5869   -0.0383 H   0  0  0  0  0  0  0  0  0  0  0  0
    2.2858   -6.8562   -2.9804 H   0  0  0  0  0  0  0  0  0  0  0  0
    0.9193   -6.8511    0.6192 H   0  0  0  0  0  0  0  0  0  0  0  0
   -0.2760   -7.3448   -0.6561 H   0  0  0  0  0  0  0  0  0  0  0  0
   -0.4559   -5.7611    0.2031 H   0  0  0  0  0  0  0  0  0  0  0  0
    4.4296   -5.4143   -2.5744 H   0  0  0  0  0  0  0  0  0  0  0  0
    4.5815   -3.8271   -0.5126 H   0  0  0  0  0  0  0  0  0  0  0  0
    4.8707   -1.1783   -0.4751 H   0  0  0  0  0  0  0  0  0  0  0  0
    7.6554   -7.9519   -2.1728 H   0  0  0  0  0  0  0  0  0  0  0  0
   10.1866   -8.2001   -3.0317 H   0  0  0  0  0  0  0  0  0  0  0  0
   11.3700    1.9965   -2.5128 H   0  0  0  0  0  0  0  0  0  0  0  0
    8.7929    2.2838   -1.8517 H   0  0  0  0  0  0  0  0  0  0  0  0
    7.7496    1.6350    0.4614 H   0  0  0  0  0  0  0  0  0  0  0  0
  1  2  1  0
  1 71  1  0
  1 72  1  0
  1 73  1  0
  2  3  2  0
  2  4  2  0
  2  5  1  1
  5  6  1  0
  5 74  1  0
  6  7  2  0
  6 70  1  0
  7  8  1  0
  7 75  1  0
  8  9  2  0
  8 76  1  0
  9 10  1  0
  9 77  1  0
 10 11  1  0
 10 70  2  0
 11 12  1  0
 11 63  2  0
 12 13  2  0
 12 69  1  0
 13 14  1  0
 14 15  2  0
 14 68  1  0
 15 16  1  0
 15 27  1  0
 16 17  2  0
 16 26  1  0
 17 18  1  0
 17 78  1  0
 18 19  2  0
 18 79  1  0
 19 20  1  0
 19 80  1  0
 20 21  1  0
 20 26  2  0
 22 21  1  1
 21 81  1  0
 22 23  1  0
 22 24  2  0
 22 25  2  0
 23 82  1  0
 23 83  1  0
 23 84  1  0
 26 85  1  0
 27 28  2  0
 27 31  1  0
 28 29  1  0
 28 86  1  0
 29 30  2  0
 29 87  1  0
 30 31  1  0
 30 33  1  0
 31 32  1  0
 33 34  1  0
 33 45  2  0
 34 35  2  0
 34 44  1  0
 35 36  1  0
 35 88  1  0
 36 37  2  0
 36 89  1  0
 37 38  1  0
 37 90  1  0
 38 39  1  0
 38 44  2  0
 40 39  1  1
 39 91  1  0
 40 41  1  0
 40 42  2  0
 40 43  2  0
 41 92  1  0
 41 93  1  0
 41 94  1  0
 44 95  1  0
 45 46  1  0
 45 67  1  0
 46 47  2  0
 47 48  1  0
 47 66  1  0
 48 49  1  0
 48 60  2  0
 49 50  2  0
 49 59  1  0
 50 51  1  0
 50 96  1  0
 51 52  2  0
 51 97  1  0
 52 53  1  0
 52 98  1  0
 53 54  1  0
 53 59  2  0
 55 54  1  6
 54 99  1  0
 55 56  1  0
 55 57  2  0
 55 58  2  0
 56100  1  0
 56101  1  0
 56102  1  0
 59103  1  0
 60 61  1  0
 60 64  1  0
 61 62  2  0
 61104  1  0
 62 63  1  0
 62105  1  0
 63 64  1  0
 64 65  1  0
 66 67  2  0
 66106  1  0
 67107  1  0
 68 69  2  0
 68108  1  0
 69109  1  0
 70110  1  0
M  END

