
     RDKit          3D

 49 50  0  0  0  0  0  0  0  0999 V2000
    3.8801    6.1708   -2.9020 C   0  0  0  0  0  0  0  0  0  0  0  0
    5.0880    6.3597   -2.1297 O   0  0  0  0  0  0  0  0  0  0  0  0
    5.1617    6.0301   -0.8703 C   0  0  0  0  0  0  0  0  0  0  0  0
    4.1510    5.3809   -0.1252 C   0  0  0  0  0  0  0  0  0  0  0  0
    4.3285    5.1321    1.2218 C   0  0  0  0  0  0  0  0  0  0  0  0
    3.3096    4.4731    2.1572 C   0  0  1  0  0  0  0  0  0  0  0  0
    3.0999    5.3326    3.2461 O   0  0  0  0  0  0  0  0  0  0  0  0
    1.9730    3.9706    1.5595 C   0  0  1  0  0  0  0  0  0  0  0  0
    1.4145    2.8123    2.3943 C   0  0  0  0  0  0  0  0  0  0  0  0
    0.1620    2.4102    1.9155 O   0  0  0  0  0  0  0  0  0  0  0  0
    0.9663    4.9673    1.5941 O   0  0  0  0  0  0  0  0  0  0  0  0
    0.8541    5.8446    0.5133 C   0  0  0  0  0  0  0  0  0  0  0  0
    0.2479    5.4534   -0.6896 C   0  0  0  0  0  0  0  0  0  0  0  0
    0.1508    6.3343   -1.7593 C   0  0  0  0  0  0  0  0  0  0  0  0
    0.6591    7.6679   -1.6841 C   0  0  0  0  0  0  0  0  0  0  0  0
    0.6085    8.5455   -2.8140 C   0  0  0  0  0  0  0  0  0  0  0  0
    1.1394    9.8343   -2.9076 C   0  0  0  0  0  0  0  0  0  0  0  0
    1.0720   10.6454   -4.0815 C   0  0  0  0  0  0  0  0  0  0  0  0
    1.5518   11.7777   -4.2215 O   0  0  0  0  0  0  0  0  0  0  0  0
    1.2302    8.0576   -0.4249 C   0  0  0  0  0  0  0  0  0  0  0  0
    1.3256    7.1656    0.6379 C   0  0  0  0  0  0  0  0  0  0  0  0
    1.9038    7.4806    1.8543 O   0  0  0  0  0  0  0  0  0  0  0  0
    2.1457    8.8383    2.1647 C   0  0  0  0  0  0  0  0  0  0  0  0
    5.5546    5.5427    1.8583 C   0  0  0  0  0  0  0  0  0  0  0  0
    6.5752    6.1430    1.1548 C   0  0  0  0  0  0  0  0  0  0  0  0
    6.4115    6.3966   -0.2186 C   0  0  0  0  0  0  0  0  0  0  0  0
    7.3195    6.9736   -0.9835 O   0  0  0  0  0  0  0  0  0  0  0  0
    4.1070    6.5783   -3.8915 H   0  0  0  0  0  0  0  0  0  0  0  0
    3.0485    6.7214   -2.4456 H   0  0  0  0  0  0  0  0  0  0  0  0
    3.6514    5.0984   -2.9737 H   0  0  0  0  0  0  0  0  0  0  0  0
    3.2183    5.1216   -0.6174 H   0  0  0  0  0  0  0  0  0  0  0  0
    3.8310    3.5821    2.5569 H   0  0  0  0  0  0  0  0  0  0  0  0
    2.5013    6.0427    2.9263 H   0  0  0  0  0  0  0  0  0  0  0  0
    2.1135    3.6074    0.5256 H   0  0  0  0  0  0  0  0  0  0  0  0
    1.3824    3.1381    3.4540 H   0  0  0  0  0  0  0  0  0  0  0  0
    2.0931    1.9454    2.3299 H   0  0  0  0  0  0  0  0  0  0  0  0
   -0.3718    3.2186    1.8677 H   0  0  0  0  0  0  0  0  0  0  0  0
   -0.1581    4.4402   -0.7623 H   0  0  0  0  0  0  0  0  0  0  0  0
   -0.3334    6.0074   -2.6835 H   0  0  0  0  0  0  0  0  0  0  0  0
    0.1067    8.1487   -3.7045 H   0  0  0  0  0  0  0  0  0  0  0  0
    1.6579   10.2968   -2.0605 H   0  0  0  0  0  0  0  0  0  0  0  0
    0.5213   10.1601   -4.9379 H   0  0  0  0  0  0  0  0  0  0  0  0
    1.5827    9.0812   -0.3126 H   0  0  0  0  0  0  0  0  0  0  0  0
    2.4947    8.8660    3.2063 H   0  0  0  0  0  0  0  0  0  0  0  0
    1.2269    9.4410    2.0724 H   0  0  0  0  0  0  0  0  0  0  0  0
    2.9208    9.2808    1.5143 H   0  0  0  0  0  0  0  0  0  0  0  0
    5.6541    5.3733    2.9308 H   0  0  0  0  0  0  0  0  0  0  0  0
    7.5053    6.4343    1.6489 H   0  0  0  0  0  0  0  0  0  0  0  0
    8.1106    7.2124   -0.4752 H   0  0  0  0  0  0  0  0  0  0  0  0
  1  2  1  0
  1 28  1  0
  1 29  1  0
  1 30  1  0
  2  3  1  0
  3  4  2  0
  3 26  1  0
  4  5  1  0
  4 31  1  0
  5  6  1  0
  5 24  2  0
  6  7  1  0
  6  8  1  0
  6 32  1  1
  7 33  1  0
  8  9  1  0
  8 11  1  0
  8 34  1  6
  9 10  1  0
  9 35  1  0
  9 36  1  0
 10 37  1  0
 11 12  1  0
 12 13  2  0
 12 21  1  0
 13 14  1  0
 13 38  1  0
 14 15  2  0
 14 39  1  0
 15 16  1  0
 15 20  1  0
 16 17  2  0
 16 40  1  0
 17 18  1  0
 17 41  1  0
 18 19  2  0
 18 42  1  0
 20 21  2  0
 20 43  1  0
 21 22  1  0
 22 23  1  0
 23 44  1  0
 23 45  1  0
 23 46  1  0
 24 25  1  0
 24 47  1  0
 25 26  2  0
 25 48  1  0
 26 27  1  0
 27 49  1  0
M  END

