
     RDKit          3D

 56 60  0  0  0  0  0  0  0  0999 V2000
    3.7520    2.1160    2.2384 O   0  0  0  0  0  0  0  0  0  0  0  0
    4.5210    1.7891    1.3692 C   0  0  0  0  0  0  0  0  0  0  0  0
    5.8307    2.0237    1.4973 O   0  0  0  0  0  0  0  0  0  0  0  0
    3.9918    1.0558    0.1267 C   0  0  0  0  0  0  0  0  0  0  0  0
    4.9267    0.5140   -0.9662 C   0  0  1  0  0  0  0  0  0  0  0  0
    4.2185   -0.5904   -1.7894 C   0  0  0  0  0  0  0  0  0  0  0  0
    4.9665   -1.0557   -3.0103 C   0  0  0  0  0  0  0  0  0  0  0  0
    5.9074   -2.0965   -2.9821 C   0  0  0  0  0  0  0  0  0  0  0  0
    6.5535   -2.3987   -4.5998 S   0  0  0  0  0  0  0  0  0  0  0  0
    5.6073   -1.0774   -5.3002 C   0  0  0  0  0  0  0  0  0  0  0  0
    5.6068   -0.6593   -6.6269 C   0  0  0  0  0  0  0  0  0  0  0  0
    4.7782    0.4527   -7.0016 C   0  0  0  0  0  0  0  0  0  0  0  0
    3.9859    1.0740   -6.0375 C   0  0  0  0  0  0  0  0  0  0  0  0
    3.9751    0.6633   -4.6941 C   0  0  0  0  0  0  0  0  0  0  0  0
    4.8007   -0.4571   -4.2856 C   0  0  0  0  0  0  0  0  0  0  0  0
    5.4142    1.5663   -1.8782 N   0  0  0  0  0  0  0  0  0  0  0  0
    6.6018    2.1449   -1.7142 C   0  0  0  0  0  0  0  0  0  0  0  0
    7.3251    2.0642   -0.7210 O   0  0  0  0  0  0  0  0  0  0  0  0
    6.9804    2.8806   -2.8036 O   0  0  0  0  0  0  0  0  0  0  0  0
    8.2011    3.5804   -2.6859 C   0  0  0  0  0  0  0  0  0  0  0  0
    9.4154    2.6455   -2.9018 C   0  0  2  0  0  0  0  0  0  0  0  0
   10.7481    3.3328   -2.7152 C   0  0  0  0  0  0  0  0  0  0  0  0
   11.2459    4.0143   -1.6174 C   0  0  0  0  0  0  0  0  0  0  0  0
   12.5366    4.5672   -1.6975 C   0  0  0  0  0  0  0  0  0  0  0  0
   13.3315    4.4438   -2.8631 C   0  0  0  0  0  0  0  0  0  0  0  0
   12.8516    3.7637   -3.9675 C   0  0  0  0  0  0  0  0  0  0  0  0
   11.5501    3.2013   -3.9005 C   0  0  0  0  0  0  0  0  0  0  0  0
   10.8176    2.4496   -4.8671 C   0  0  0  0  0  0  0  0  0  0  0  0
   11.1795    2.0532   -6.1830 C   0  0  0  0  0  0  0  0  0  0  0  0
   10.2670    1.3203   -6.9139 C   0  0  0  0  0  0  0  0  0  0  0  0
    9.0080    0.9753   -6.3526 C   0  0  0  0  0  0  0  0  0  0  0  0
    8.6379    1.3548   -5.0488 C   0  0  0  0  0  0  0  0  0  0  0  0
    9.5396    2.0930   -4.3046 C   0  0  0  0  0  0  0  0  0  0  0  0
    6.3718    1.8610    0.6901 H   0  0  0  0  0  0  0  0  0  0  0  0
    3.2330    1.7156   -0.3255 H   0  0  0  0  0  0  0  0  0  0  0  0
    3.4201    0.2106    0.5432 H   0  0  0  0  0  0  0  0  0  0  0  0
    5.8220    0.0696   -0.5027 H   0  0  0  0  0  0  0  0  0  0  0  0
    3.2175   -0.2216   -2.0774 H   0  0  0  0  0  0  0  0  0  0  0  0
    4.0436   -1.4331   -1.1001 H   0  0  0  0  0  0  0  0  0  0  0  0
    6.0741   -2.8240   -2.1903 H   0  0  0  0  0  0  0  0  0  0  0  0
    6.1837   -1.2016   -7.3811 H   0  0  0  0  0  0  0  0  0  0  0  0
    4.7536    0.7891   -8.0402 H   0  0  0  0  0  0  0  0  0  0  0  0
    3.3367    1.9035   -6.3372 H   0  0  0  0  0  0  0  0  0  0  0  0
    3.2558    1.1087   -4.0002 H   0  0  0  0  0  0  0  0  0  0  0  0
    4.9896    1.6351   -2.8087 H   0  0  0  0  0  0  0  0  0  0  0  0
    8.2817    4.0434   -1.6917 H   0  0  0  0  0  0  0  0  0  0  0  0
    8.1763    4.3661   -3.4543 H   0  0  0  0  0  0  0  0  0  0  0  0
    9.3094    1.8302   -2.1653 H   0  0  0  0  0  0  0  0  0  0  0  0
   10.6605    4.1174   -0.7021 H   0  0  0  0  0  0  0  0  0  0  0  0
   12.9403    5.1044   -0.8365 H   0  0  0  0  0  0  0  0  0  0  0  0
   14.3285    4.8873   -2.8802 H   0  0  0  0  0  0  0  0  0  0  0  0
   13.4578    3.6585   -4.8688 H   0  0  0  0  0  0  0  0  0  0  0  0
   12.1515    2.3230   -6.5998 H   0  0  0  0  0  0  0  0  0  0  0  0
   10.5046    0.9969   -7.9285 H   0  0  0  0  0  0  0  0  0  0  0  0
    8.2912    0.3974   -6.9364 H   0  0  0  0  0  0  0  0  0  0  0  0
    7.6628    1.0606   -4.6648 H   0  0  0  0  0  0  0  0  0  0  0  0
  1  2  2  0
  2  3  1  0
  2  4  1  0
  3 34  1  0
  4  5  1  0
  4 35  1  0
  4 36  1  0
  5  6  1  0
  5 16  1  0
  5 37  1  1
  6  7  1  0
  6 38  1  0
  6 39  1  0
  7  8  2  0
  7 15  1  0
  8  9  1  0
  8 40  1  0
  9 10  1  0
 10 11  1  0
 10 15  2  0
 11 12  2  0
 11 41  1  0
 12 13  1  0
 12 42  1  0
 13 14  2  0
 13 43  1  0
 14 15  1  0
 14 44  1  0
 16 17  1  0
 16 45  1  0
 17 18  2  0
 17 19  1  0
 19 20  1  0
 20 21  1  0
 20 46  1  0
 20 47  1  0
 21 22  1  0
 21 33  1  0
 21 48  1  1
 22 23  2  0
 22 27  1  0
 23 24  1  0
 23 49  1  0
 24 25  2  0
 24 50  1  0
 25 26  1  0
 25 51  1  0
 26 27  2  0
 26 52  1  0
 27 28  1  0
 28 29  2  0
 28 33  1  0
 29 30  1  0
 29 53  1  0
 30 31  2  0
 30 54  1  0
 31 32  1  0
 31 55  1  0
 32 33  2  0
 32 56  1  0
M  END

