
     RDKit          3D

 42 42  0  0  0  0  0  0  0  0999 V2000
   10.0239    6.2965   -5.9282 C   0  0  0  0  0  0  0  0  0  0  0  0
    9.9064    5.4994   -4.7689 O   0  0  0  0  0  0  0  0  0  0  0  0
   10.8150    4.4593   -4.6703 C   0  0  0  0  0  0  0  0  0  0  0  0
   11.6577    4.2637   -5.5464 O   0  0  0  0  0  0  0  0  0  0  0  0
   10.6377    3.6862   -3.4693 C   0  0  0  0  0  0  0  0  0  0  0  0
    9.6398    3.9420   -2.4637 C   0  0  0  0  0  0  0  0  0  0  0  0
    9.5616    3.1303   -1.3504 C   0  0  0  0  0  0  0  0  0  0  0  0
   10.4666    2.0553   -1.2146 C   0  0  0  0  0  0  0  0  0  0  0  0
   10.4873    1.1068   -0.0107 C   0  0  0  0  0  0  0  0  0  0  0  0
   11.4294    0.0563   -0.3533 N   0  0  0  0  0  0  0  0  0  0  0  0
   11.8598   -1.0000    0.4970 C   0  0  0  0  0  0  0  0  0  0  0  0
   12.5663   -2.1329   -0.2470 C   0  0  0  0  0  0  0  0  0  0  0  0
   13.0425   -3.2375    0.6994 C   0  0  0  0  0  0  0  0  0  0  0  0
   13.7383   -4.3832   -0.0427 C   0  0  0  0  0  0  0  0  0  0  0  0
   14.2865   -5.3990    0.8407 N   0  0  0  0  0  0  0  0  0  0  0  0
   13.2780   -6.2255    1.4781 C   0  0  0  0  0  0  0  0  0  0  0  0
   15.3104   -6.2021    0.1969 C   0  0  0  0  0  0  0  0  0  0  0  0
   11.4153    1.8066   -2.1577 N   0  0  0  0  0  0  0  0  0  0  0  0
   11.5000    2.5677   -3.2273 C   0  0  0  0  0  0  0  0  0  0  0  0
    9.2385    7.0635   -5.8640 H   0  0  0  0  0  0  0  0  0  0  0  0
    9.8895    5.7026   -6.8479 H   0  0  0  0  0  0  0  0  0  0  0  0
   11.0125    6.7820   -5.9922 H   0  0  0  0  0  0  0  0  0  0  0  0
    8.9522    4.7772   -2.5986 H   0  0  0  0  0  0  0  0  0  0  0  0
    8.8038    3.3181   -0.5832 H   0  0  0  0  0  0  0  0  0  0  0  0
    9.5149    0.6300    0.2096 H   0  0  0  0  0  0  0  0  0  0  0  0
   10.8288    1.5640    0.9381 H   0  0  0  0  0  0  0  0  0  0  0  0
   11.8629    0.3221   -1.2843 H   0  0  0  0  0  0  0  0  0  0  0  0
   10.9929   -1.3596    1.0799 H   0  0  0  0  0  0  0  0  0  0  0  0
   12.5418   -0.5511    1.2539 H   0  0  0  0  0  0  0  0  0  0  0  0
   13.4220   -1.7162   -0.8055 H   0  0  0  0  0  0  0  0  0  0  0  0
   11.8754   -2.5513   -0.9983 H   0  0  0  0  0  0  0  0  0  0  0  0
   12.1784   -3.6216    1.2684 H   0  0  0  0  0  0  0  0  0  0  0  0
   13.7479   -2.8291    1.4438 H   0  0  0  0  0  0  0  0  0  0  0  0
   14.5743   -3.9587   -0.6235 H   0  0  0  0  0  0  0  0  0  0  0  0
   13.0343   -4.8176   -0.7940 H   0  0  0  0  0  0  0  0  0  0  0  0
   12.5736   -5.6133    2.0611 H   0  0  0  0  0  0  0  0  0  0  0  0
   13.7576   -6.9255    2.1798 H   0  0  0  0  0  0  0  0  0  0  0  0
   12.6833   -6.8285    0.7523 H   0  0  0  0  0  0  0  0  0  0  0  0
   16.1124   -5.5565   -0.1945 H   0  0  0  0  0  0  0  0  0  0  0  0
   14.9250   -6.8161   -0.6500 H   0  0  0  0  0  0  0  0  0  0  0  0
   15.7614   -6.8918    0.9277 H   0  0  0  0  0  0  0  0  0  0  0  0
   12.2695    2.3326   -3.9684 H   0  0  0  0  0  0  0  0  0  0  0  0
  1  2  1  0
  1 20  1  0
  1 21  1  0
  1 22  1  0
  2  3  1  0
  3  4  2  0
  3  5  1  0
  5  6  2  0
  5 19  1  0
  6  7  1  0
  6 23  1  0
  7  8  2  0
  7 24  1  0
  8  9  1  0
  8 18  1  0
  9 10  1  0
  9 25  1  0
  9 26  1  0
 10 11  1  0
 10 27  1  0
 11 12  1  0
 11 28  1  0
 11 29  1  0
 12 13  1  0
 12 30  1  0
 12 31  1  0
 13 14  1  0
 13 32  1  0
 13 33  1  0
 14 15  1  0
 14 34  1  0
 14 35  1  0
 15 16  1  0
 15 17  1  0
 16 36  1  0
 16 37  1  0
 16 38  1  0
 17 39  1  0
 17 40  1  0
 17 41  1  0
 18 19  2  0
 19 42  1  0
M  END

