
     RDKit          3D

 31 31  0  0  0  0  0  0  0  0999 V2000
    4.8692   -2.8175    0.1142 O   0  0  0  0  0  0  0  0  0  0  0  0
    4.6346   -1.6080    0.1916 C   0  0  0  0  0  0  0  0  0  0  0  0
    3.7559   -0.9709    1.2505 C   0  0  0  0  0  0  0  0  0  0  0  0
    2.5358   -1.8189    1.6673 C   0  0  0  0  0  0  0  0  0  0  0  0
    2.7612   -2.8360    2.7976 C   0  0  0  0  0  0  0  0  0  0  0  0
    2.0911   -2.7867    3.8153 O   0  0  0  0  0  0  0  0  0  0  0  0
    3.7356   -3.7653    2.5438 N   0  0  0  0  0  0  0  0  0  0  0  0
    4.1809   -4.8147    3.3647 C   0  0  0  0  0  0  0  0  0  0  0  0
    3.6365   -5.1021    4.6301 C   0  0  0  0  0  0  0  0  0  0  0  0
    4.1383   -6.1675    5.3810 C   0  0  0  0  0  0  0  0  0  0  0  0
    5.1801   -6.9527    4.8836 C   0  0  0  0  0  0  0  0  0  0  0  0
    5.8561   -8.4077    5.9187 Br  0  0  0  0  0  0  0  0  0  0  0  0
    5.7314   -6.6788    3.6289 C   0  0  0  0  0  0  0  0  0  0  0  0
    5.2324   -5.6157    2.8788 C   0  0  0  0  0  0  0  0  0  0  0  0
    5.1907   -0.7544   -0.6996 N   0  0  0  0  0  0  0  0  0  0  0  0
    6.0473   -1.2574   -1.6509 N   0  0  0  0  0  0  0  0  0  0  0  0
    6.6561   -0.4416   -2.5351 C   0  0  0  0  0  0  0  0  0  0  0  0
    6.4384    1.2062   -2.5601 S   0  0  0  0  0  0  0  0  0  0  0  0
    7.7349   -1.2013   -3.7168 S   0  0  0  0  0  0  0  0  0  0  0  0
    3.4153    0.0112    0.8863 H   0  0  0  0  0  0  0  0  0  0  0  0
    4.3931   -0.7634    2.1290 H   0  0  0  0  0  0  0  0  0  0  0  0
    2.1218   -2.3397    0.7872 H   0  0  0  0  0  0  0  0  0  0  0  0
    1.7527   -1.1522    2.0499 H   0  0  0  0  0  0  0  0  0  0  0  0
    4.2061   -3.6718    1.6385 H   0  0  0  0  0  0  0  0  0  0  0  0
    2.8247   -4.4876    5.0123 H   0  0  0  0  0  0  0  0  0  0  0  0
    3.7103   -6.3848    6.3613 H   0  0  0  0  0  0  0  0  0  0  0  0
    6.5461   -7.2910    3.2386 H   0  0  0  0  0  0  0  0  0  0  0  0
    5.6648   -5.3992    1.8981 H   0  0  0  0  0  0  0  0  0  0  0  0
    5.0826    0.2622   -0.7558 H   0  0  0  0  0  0  0  0  0  0  0  0
    6.1412   -2.2701   -1.5896 H   0  0  0  0  0  0  0  0  0  0  0  0
    7.5923   -2.4952   -3.3237 H   0  0  0  0  0  0  0  0  0  0  0  0
  1  2  2  0
  2  3  1  0
  2 15  1  0
  3  4  1  0
  3 20  1  0
  3 21  1  0
  4  5  1  0
  4 22  1  0
  4 23  1  0
  5  6  2  0
  5  7  1  0
  7  8  1  0
  7 24  1  0
  8  9  2  0
  8 14  1  0
  9 10  1  0
  9 25  1  0
 10 11  2  0
 10 26  1  0
 11 12  1  0
 11 13  1  0
 13 14  2  0
 13 27  1  0
 14 28  1  0
 15 16  1  0
 15 29  1  0
 16 17  1  0
 16 30  1  0
 17 18  2  0
 17 19  1  0
 19 31  1  0
M  END

