
     RDKit          3D

 71 76  0  0  0  0  0  0  0  0999 V2000
    4.2407   -0.3860    0.1178 O   0  0  0  0  0  0  0  0  0  0  0  0
    4.0559   -1.3596   -0.5885 C   0  0  0  0  0  0  0  0  0  0  0  0
    3.9959   -2.6584   -0.0809 N   0  0  0  0  0  0  0  0  0  0  0  0
    4.2191   -3.0988    1.2082 C   0  0  0  0  0  0  0  0  0  0  0  0
    4.0060   -4.4841    1.4632 C   0  0  0  0  0  0  0  0  0  0  0  0
    4.2323   -5.0088    2.7132 C   0  0  0  0  0  0  0  0  0  0  0  0
    4.6847   -4.1678    3.7750 C   0  0  0  0  0  0  0  0  0  0  0  0
    4.9188   -4.9373    5.2974 S   0  0  0  0  0  0  0  0  0  0  0  0
    5.8795   -3.7949    6.3865 C   0  0  0  0  0  0  0  0  0  0  0  0
    5.1582   -2.5935    7.0307 C   0  0  0  0  0  0  0  0  0  0  0  0
    4.8637   -1.6504    6.2456 O   0  0  0  0  0  0  0  0  0  0  0  0
    4.9353   -2.5833    8.4407 C   0  0  0  0  0  0  0  0  0  0  0  0
    5.2246   -3.6678    9.3401 C   0  0  0  0  0  0  0  0  0  0  0  0
    4.9577   -3.5911   10.6953 C   0  0  0  0  0  0  0  0  0  0  0  0
    4.3836   -2.4200   11.2368 C   0  0  0  0  0  0  0  0  0  0  0  0
    4.0850   -1.3316   10.3630 C   0  0  0  0  0  0  0  0  0  0  0  0
    4.3450   -1.3983    9.0145 C   0  0  0  0  0  0  0  0  0  0  0  0
    3.4771   -0.1964   11.1690 C   0  0  0  0  0  0  0  0  0  0  0  0
    3.4630   -0.7455   12.5831 C   0  0  0  0  0  0  0  0  0  0  0  0
    3.0196   -0.1540   13.7589 C   0  0  0  0  0  0  0  0  0  0  0  0
    3.1086   -0.8665   14.9686 C   0  0  0  0  0  0  0  0  0  0  0  0
    3.6416   -2.1623   14.9816 C   0  0  0  0  0  0  0  0  0  0  0  0
    4.0912   -2.7676   13.8039 C   0  0  0  0  0  0  0  0  0  0  0  0
    4.0046   -2.0606   12.5913 C   0  0  0  0  0  0  0  0  0  0  0  0
    4.8824   -2.7805    3.5265 C   0  0  0  0  0  0  0  0  0  0  0  0
    4.6519   -2.2576    2.2690 C   0  0  0  0  0  0  0  0  0  0  0  0
    3.8782   -1.1982   -2.0729 C   0  0  0  0  0  0  0  0  0  0  0  0
    4.1104   -2.2157   -2.9475 C   0  0  0  0  0  0  0  0  0  0  0  0
    4.2440   -2.2420   -4.4040 C   0  0  0  0  0  0  0  0  0  0  0  0
    4.1609   -3.4903   -5.0559 C   0  0  0  0  0  0  0  0  0  0  0  0
    4.3274   -3.5901   -6.4361 C   0  0  0  0  0  0  0  0  0  0  0  0
    4.6075   -2.4537   -7.1985 C   0  0  0  0  0  0  0  0  0  0  0  0
    4.7181   -1.2174   -6.5522 C   0  0  0  0  0  0  0  0  0  0  0  0
    5.0946    0.2095   -7.4880 Cl  0  0  0  0  0  0  0  0  0  0  0  0
    4.5318   -1.0992   -5.1768 C   0  0  0  0  0  0  0  0  0  0  0  0
    3.5473    0.1246   -2.3835 N   0  0  0  0  0  0  0  0  0  0  0  0
    2.5275    0.5011   -3.2594 C   0  0  0  0  0  0  0  0  0  0  0  0
    1.9283   -0.3112   -3.9359 O   0  0  0  0  0  0  0  0  0  0  0  0
    2.2349    1.9720   -3.3056 C   0  0  0  0  0  0  0  0  0  0  0  0
    1.0289    2.3651   -3.9096 C   0  0  0  0  0  0  0  0  0  0  0  0
    0.6888    3.7147   -3.9917 C   0  0  0  0  0  0  0  0  0  0  0  0
    1.5554    4.6885   -3.4824 C   0  0  0  0  0  0  0  0  0  0  0  0
    2.7650    4.3075   -2.8939 C   0  0  0  0  0  0  0  0  0  0  0  0
    3.1049    2.9558   -2.8050 C   0  0  0  0  0  0  0  0  0  0  0  0
    3.6768   -3.3678   -0.7311 H   0  0  0  0  0  0  0  0  0  0  0  0
    3.6650   -5.1352    0.6540 H   0  0  0  0  0  0  0  0  0  0  0  0
    4.0725   -6.0734    2.8968 H   0  0  0  0  0  0  0  0  0  0  0  0
    6.7023   -3.4252    5.7576 H   0  0  0  0  0  0  0  0  0  0  0  0
    6.2993   -4.5064    7.1080 H   0  0  0  0  0  0  0  0  0  0  0  0
    5.6649   -4.5942    8.9643 H   0  0  0  0  0  0  0  0  0  0  0  0
    5.1942   -4.4416   11.3412 H   0  0  0  0  0  0  0  0  0  0  0  0
    4.1181   -0.5707    8.3404 H   0  0  0  0  0  0  0  0  0  0  0  0
    2.4614    0.0597   10.8171 H   0  0  0  0  0  0  0  0  0  0  0  0
    4.0744    0.7299   11.0925 H   0  0  0  0  0  0  0  0  0  0  0  0
    2.6039    0.8584   13.7491 H   0  0  0  0  0  0  0  0  0  0  0  0
    2.7622   -0.4088   15.8986 H   0  0  0  0  0  0  0  0  0  0  0  0
    3.7072   -2.7086   15.9271 H   0  0  0  0  0  0  0  0  0  0  0  0
    4.5053   -3.7792   13.8291 H   0  0  0  0  0  0  0  0  0  0  0  0
    5.1434   -2.1271    4.3710 H   0  0  0  0  0  0  0  0  0  0  0  0
    4.7837   -1.1946    2.0854 H   0  0  0  0  0  0  0  0  0  0  0  0
    4.2977   -3.1957   -2.5002 H   0  0  0  0  0  0  0  0  0  0  0  0
    3.9548   -4.3899   -4.4702 H   0  0  0  0  0  0  0  0  0  0  0  0
    4.2453   -4.5623   -6.9274 H   0  0  0  0  0  0  0  0  0  0  0  0
    4.7457   -2.5171   -8.2788 H   0  0  0  0  0  0  0  0  0  0  0  0
    4.6442   -0.1233   -4.7096 H   0  0  0  0  0  0  0  0  0  0  0  0
    3.7620    0.7669   -1.6230 H   0  0  0  0  0  0  0  0  0  0  0  0
    0.3728    1.5898   -4.3092 H   0  0  0  0  0  0  0  0  0  0  0  0
   -0.2545    4.0110   -4.4568 H   0  0  0  0  0  0  0  0  0  0  0  0
    1.2902    5.7466   -3.5489 H   0  0  0  0  0  0  0  0  0  0  0  0
    3.4504    5.0655   -2.5076 H   0  0  0  0  0  0  0  0  0  0  0  0
    4.0675    2.6816   -2.3666 H   0  0  0  0  0  0  0  0  0  0  0  0
  1  2  2  0
  2  3  1  0
  2 27  1  0
  3  4  1  0
  3 45  1  0
  4  5  2  0
  4 26  1  0
  5  6  1  0
  5 46  1  0
  6  7  2  0
  6 47  1  0
  7  8  1  0
  7 25  1  0
  8  9  1  0
  9 10  1  0
  9 48  1  0
  9 49  1  0
 10 11  2  0
 10 12  1  0
 12 13  2  0
 12 17  1  0
 13 14  1  0
 13 50  1  0
 14 15  2  0
 14 51  1  0
 15 16  1  0
 15 24  1  0
 16 17  2  0
 16 18  1  0
 17 52  1  0
 18 19  1  0
 18 53  1  0
 18 54  1  0
 19 20  1  0
 19 24  2  0
 20 21  2  0
 20 55  1  0
 21 22  1  0
 21 56  1  0
 22 23  2  0
 22 57  1  0
 23 24  1  0
 23 58  1  0
 25 26  2  0
 25 59  1  0
 26 60  1  0
 27 28  2  0
 27 36  1  0
 28 29  1  0
 28 61  1  0
 29 30  2  0
 29 35  1  0
 30 31  1  0
 30 62  1  0
 31 32  2  0
 31 63  1  0
 32 33  1  0
 32 64  1  0
 33 34  1  0
 33 35  2  0
 35 65  1  0
 36 37  1  0
 36 66  1  0
 37 38  2  0
 37 39  1  0
 39 40  2  0
 39 44  1  0
 40 41  1  0
 40 67  1  0
 41 42  2  0
 41 68  1  0
 42 43  1  0
 42 69  1  0
 43 44  2  0
 43 70  1  0
 44 71  1  0
M  END

