
     RDKit          3D

 22 23  0  0  0  0  0  0  0  0999 V2000
    2.5210    1.4446   -0.2770 F   0  0  0  0  0  0  0  0  0  0  0  0
    2.0506    0.2023   -0.0488 C   0  0  1  0  0  0  0  0  0  0  0  0
    0.7499    0.3457    0.3209 F   0  0  0  0  0  0  0  0  0  0  0  0
    2.0199   -0.4375   -1.2372 F   0  0  0  0  0  0  0  0  0  0  0  0
    2.8896   -0.4965    0.9638 C   0  0  0  0  0  0  0  0  0  0  0  0
    3.7252    0.2527    1.8714 C   0  0  0  0  0  0  0  0  0  0  0  0
    4.2630   -0.3240    3.0032 C   0  0  0  0  0  0  0  0  0  0  0  0
    5.1581    0.3669    3.7479 O   0  0  0  0  0  0  0  0  0  0  0  0
    5.1894    0.1565    5.1325 C   0  0  1  0  0  0  0  0  0  0  0  0
    6.3494   -0.6300    5.7050 C   0  0  0  0  0  0  0  0  0  0  0  0
    6.2871    0.8684    5.8588 C   0  0  0  0  0  0  0  0  0  0  0  0
    3.9610   -1.6998    3.3661 C   0  0  0  0  0  0  0  0  0  0  0  0
    3.2212   -2.3128    2.4206 N   0  0  0  0  0  0  0  0  0  0  0  0
    2.6515   -1.8522    1.3683 C   0  0  0  0  0  0  0  0  0  0  0  0
    1.4783   -3.0596    0.4746 Br  0  0  0  0  0  0  0  0  0  0  0  0
    3.9285    1.3050    1.6763 H   0  0  0  0  0  0  0  0  0  0  0  0
    4.1989    0.0581    5.5888 H   0  0  0  0  0  0  0  0  0  0  0  0
    7.0665   -1.0318    4.9842 H   0  0  0  0  0  0  0  0  0  0  0  0
    6.1531   -1.2670    6.5722 H   0  0  0  0  0  0  0  0  0  0  0  0
    6.9607    1.4661    5.2388 H   0  0  0  0  0  0  0  0  0  0  0  0
    6.0543    1.2967    6.8373 H   0  0  0  0  0  0  0  0  0  0  0  0
    4.6165   -2.2862    4.0117 H   0  0  0  0  0  0  0  0  0  0  0  0
  2  1  1  6
  2  3  1  0
  2  4  1  0
  2  5  1  0
  5  6  2  0
  5 14  1  0
  6  7  1  0
  6 16  1  0
  7  8  1  0
  7 12  2  0
  8  9  1  0
  9 10  1  0
  9 11  1  0
  9 17  1  1
 10 11  1  0
 10 18  1  0
 10 19  1  0
 11 20  1  0
 11 21  1  0
 12 13  1  0
 12 22  1  0
 13 14  2  0
 14 15  1  0
M  END

