
     RDKit          3D

 89 94  0  0  0  0  0  0  0  0999 V2000
    4.3223   -4.8335    1.2335 C   0  0  0  0  0  0  0  0  0  0  0  0
    3.9000   -4.0476   -0.0092 C   0  0  0  0  0  0  0  0  0  0  0  0
    4.7144   -4.4098   -1.2574 C   0  0  0  0  0  0  0  0  0  0  0  0
    4.3170   -3.6627   -2.5401 C   0  0  0  0  0  0  0  0  0  0  0  0
    4.7626   -2.1877   -2.7212 C   0  0  2  0  0  0  0  0  0  0  0  0
    4.4964   -1.6271   -1.8178 H   0  0  0  0  0  0  0  0  0  0  0  0
    4.0795   -1.5068   -3.8288 N   0  0  0  0  0  0  0  0  0  0  0  0
    2.7307   -0.9207   -3.7947 C   0  0  1  0  0  0  0  0  0  0  0  0
    2.5876   -0.1402   -2.4611 C   0  0  0  0  0  0  0  0  0  0  0  0
    2.9160    1.2220   -2.3765 C   0  0  0  0  0  0  0  0  0  0  0  0
    2.8589    1.9076   -1.1588 C   0  0  0  0  0  0  0  0  0  0  0  0
    2.4739    1.2449    0.0084 C   0  0  0  0  0  0  0  0  0  0  0  0
    2.1524   -0.1134   -0.0550 C   0  0  0  0  0  0  0  0  0  0  0  0
    2.2121   -0.7946   -1.2742 C   0  0  0  0  0  0  0  0  0  0  0  0
    2.6384    0.0712   -5.0007 C   0  0  0  0  0  0  0  0  0  0  0  0
    1.3962    0.5439   -5.4597 C   0  0  0  0  0  0  0  0  0  0  0  0
    1.3122    1.4592   -6.5108 C   0  0  0  0  0  0  0  0  0  0  0  0
    2.4714    1.9224   -7.1403 C   0  0  0  0  0  0  0  0  0  0  0  0
    3.7122    1.4639   -6.6960 C   0  0  0  0  0  0  0  0  0  0  0  0
    3.7940    0.5529   -5.6365 C   0  0  0  0  0  0  0  0  0  0  0  0
    1.5820   -1.9633   -3.9940 C   0  0  0  0  0  0  0  0  0  0  0  0
    0.3009   -1.8041   -3.4382 C   0  0  0  0  0  0  0  0  0  0  0  0
   -0.7289   -2.7130   -3.7067 C   0  0  0  0  0  0  0  0  0  0  0  0
   -0.5067   -3.8035   -4.5491 C   0  0  0  0  0  0  0  0  0  0  0  0
    0.7558   -3.9684   -5.1253 C   0  0  0  0  0  0  0  0  0  0  0  0
    1.7794   -3.0591   -4.8503 C   0  0  0  0  0  0  0  0  0  0  0  0
    6.3041   -1.9566   -2.9294 C   0  0  1  0  0  0  0  0  0  0  0  0
    7.0232   -1.3555   -1.8108 N   0  0  0  0  0  0  0  0  0  0  0  0
    6.7345   -1.7277   -0.4355 C   0  0  0  0  0  0  0  0  0  0  0  0
    8.4309   -1.4793   -2.1794 C   0  0  2  0  0  0  0  0  0  0  0  0
    9.0344   -1.5439   -1.2611 H   0  0  0  0  0  0  0  0  0  0  0  0
    8.9466   -0.2700   -2.9712 C   0  0  0  0  0  0  0  0  0  0  0  0
    8.2193    0.9289   -2.9952 C   0  0  0  0  0  0  0  0  0  0  0  0
    8.7139    2.0551   -3.6601 C   0  0  0  0  0  0  0  0  0  0  0  0
    9.9518    2.0072   -4.3067 C   0  0  0  0  0  0  0  0  0  0  0  0
   10.6908    0.8207   -4.2828 C   0  0  0  0  0  0  0  0  0  0  0  0
   10.1905   -0.3053   -3.6231 C   0  0  0  0  0  0  0  0  0  0  0  0
    8.5138   -2.8444   -2.9594 C   0  0  1  0  0  0  0  0  0  0  0  0
    9.1102   -2.6813   -3.8755 H   0  0  0  0  0  0  0  0  0  0  0  0
    9.1959   -3.9751   -2.1882 C   0  0  0  0  0  0  0  0  0  0  0  0
    8.5542   -5.1972   -1.9468 C   0  0  0  0  0  0  0  0  0  0  0  0
    9.2097   -6.2315   -1.2694 C   0  0  0  0  0  0  0  0  0  0  0  0
   10.5220   -6.0629   -0.8221 C   0  0  0  0  0  0  0  0  0  0  0  0
   11.1760   -4.8496   -1.0612 C   0  0  0  0  0  0  0  0  0  0  0  0
   10.5190   -3.8200   -1.7385 C   0  0  0  0  0  0  0  0  0  0  0  0
    7.1179   -3.1312   -3.3285 N   0  0  0  0  0  0  0  0  0  0  0  0
    6.9726   -3.5207   -4.7196 C   0  0  0  0  0  0  0  0  0  0  0  0
    3.7122   -4.5665    2.1114 H   0  0  0  0  0  0  0  0  0  0  0  0
    5.3774   -4.6405    1.4900 H   0  0  0  0  0  0  0  0  0  0  0  0
    4.2183   -5.9201    1.0740 H   0  0  0  0  0  0  0  0  0  0  0  0
    3.9807   -2.9671    0.1998 H   0  0  0  0  0  0  0  0  0  0  0  0
    2.8293   -4.2313   -0.2140 H   0  0  0  0  0  0  0  0  0  0  0  0
    4.5817   -5.4910   -1.4443 H   0  0  0  0  0  0  0  0  0  0  0  0
    5.7884   -4.2820   -1.0571 H   0  0  0  0  0  0  0  0  0  0  0  0
    3.2184   -3.6777   -2.6139 H   0  0  0  0  0  0  0  0  0  0  0  0
    4.6725   -4.2413   -3.4060 H   0  0  0  0  0  0  0  0  0  0  0  0
    4.2658   -1.9519   -4.7227 H   0  0  0  0  0  0  0  0  0  0  0  0
    3.2209    1.7611   -3.2735 H   0  0  0  0  0  0  0  0  0  0  0  0
    3.1168    2.9694   -1.1274 H   0  0  0  0  0  0  0  0  0  0  0  0
    2.4248    1.7813    0.9595 H   0  0  0  0  0  0  0  0  0  0  0  0
    1.8531   -0.6511    0.8486 H   0  0  0  0  0  0  0  0  0  0  0  0
    1.9582   -1.8550   -1.2967 H   0  0  0  0  0  0  0  0  0  0  0  0
    0.4737    0.1942   -4.9960 H   0  0  0  0  0  0  0  0  0  0  0  0
    0.3306    1.8075   -6.8429 H   0  0  0  0  0  0  0  0  0  0  0  0
    2.4060    2.6333   -7.9681 H   0  0  0  0  0  0  0  0  0  0  0  0
    4.6312    1.8182   -7.1710 H   0  0  0  0  0  0  0  0  0  0  0  0
    4.7700    0.2229   -5.2829 H   0  0  0  0  0  0  0  0  0  0  0  0
    0.0928   -0.9564   -2.7841 H   0  0  0  0  0  0  0  0  0  0  0  0
   -1.7117   -2.5614   -3.2521 H   0  0  0  0  0  0  0  0  0  0  0  0
   -1.3089   -4.5156   -4.7587 H   0  0  0  0  0  0  0  0  0  0  0  0
    0.9479   -4.8109   -5.7951 H   0  0  0  0  0  0  0  0  0  0  0  0
    2.7525   -3.2155   -5.3195 H   0  0  0  0  0  0  0  0  0  0  0  0
    6.3563   -1.2118   -3.7497 H   0  0  0  0  0  0  0  0  0  0  0  0
    5.6735   -1.5655   -0.2046 H   0  0  0  0  0  0  0  0  0  0  0  0
    7.3040   -1.0628    0.2327 H   0  0  0  0  0  0  0  0  0  0  0  0
    6.9927   -2.7717   -0.1693 H   0  0  0  0  0  0  0  0  0  0  0  0
    7.2559    0.9580   -2.4827 H   0  0  0  0  0  0  0  0  0  0  0  0
    8.1267    2.9775   -3.6705 H   0  0  0  0  0  0  0  0  0  0  0  0
   10.3395    2.8878   -4.8255 H   0  0  0  0  0  0  0  0  0  0  0  0
   11.6623    0.7690   -4.7816 H   0  0  0  0  0  0  0  0  0  0  0  0
   10.7869   -1.2217   -3.6186 H   0  0  0  0  0  0  0  0  0  0  0  0
    7.5284   -5.3238   -2.2949 H   0  0  0  0  0  0  0  0  0  0  0  0
    8.6879   -7.1757   -1.0905 H   0  0  0  0  0  0  0  0  0  0  0  0
   11.0338   -6.8700   -0.2915 H   0  0  0  0  0  0  0  0  0  0  0  0
   12.2040   -4.7035   -0.7185 H   0  0  0  0  0  0  0  0  0  0  0  0
   11.0487   -2.8792   -1.9160 H   0  0  0  0  0  0  0  0  0  0  0  0
    7.5915   -4.4059   -4.9336 H   0  0  0  0  0  0  0  0  0  0  0  0
    7.2704   -2.7160   -5.4291 H   0  0  0  0  0  0  0  0  0  0  0  0
    5.9314   -3.7971   -4.9457 H   0  0  0  0  0  0  0  0  0  0  0  0
  1  2  1  0
  1 48  1  0
  1 49  1  0
  1 50  1  0
  2  3  1  0
  2 51  1  0
  2 52  1  0
  3  4  1  0
  3 53  1  0
  3 54  1  0
  4  5  1  0
  4 55  1  0
  4 56  1  0
  5  6  1  1
  5  7  1  0
  5 27  1  0
  8  7  1  1
  7 57  1  0
  8  9  1  0
  8 15  1  0
  8 21  1  0
  9 10  2  0
  9 14  1  0
 10 11  1  0
 10 58  1  0
 11 12  2  0
 11 59  1  0
 12 13  1  0
 12 60  1  0
 13 14  2  0
 13 61  1  0
 14 62  1  0
 15 16  2  0
 15 20  1  0
 16 17  1  0
 16 63  1  0
 17 18  2  0
 17 64  1  0
 18 19  1  0
 18 65  1  0
 19 20  2  0
 19 66  1  0
 20 67  1  0
 21 22  2  0
 21 26  1  0
 22 23  1  0
 22 68  1  0
 23 24  2  0
 23 69  1  0
 24 25  1  0
 24 70  1  0
 25 26  2  0
 25 71  1  0
 26 72  1  0
 27 28  1  0
 27 46  1  0
 27 73  1  6
 28 29  1  0
 28 30  1  0
 29 74  1  0
 29 75  1  0
 29 76  1  0
 30 31  1  1
 30 32  1  0
 30 38  1  0
 32 33  2  0
 32 37  1  0
 33 34  1  0
 33 77  1  0
 34 35  2  0
 34 78  1  0
 35 36  1  0
 35 79  1  0
 36 37  2  0
 36 80  1  0
 37 81  1  0
 38 39  1  6
 38 40  1  0
 38 46  1  0
 40 41  2  0
 40 45  1  0
 41 42  1  0
 41 82  1  0
 42 43  2  0
 42 83  1  0
 43 44  1  0
 43 84  1  0
 44 45  2  0
 44 85  1  0
 45 86  1  0
 46 47  1  0
 47 87  1  0
 47 88  1  0
 47 89  1  0
M  END

