
     RDKit          3D

 26 27  0  0  0  0  0  0  0  0999 V2000
    5.3077   -2.2698   -3.2378 C   0  0  0  0  0  0  0  0  0  0  0  0
    5.5122   -0.9521   -2.6709 N   0  0  0  0  0  0  0  0  0  0  0  0
    5.3485   -0.5616   -1.3887 C   0  0  0  0  0  0  0  0  0  0  0  0
    5.6559    0.7973   -1.3293 C   0  0  0  0  0  0  0  0  0  0  0  0
    5.6588    1.5668   -0.0616 C   0  0  0  0  0  0  0  0  0  0  0  0
    5.6785    0.9651    1.0058 O   0  0  0  0  0  0  0  0  0  0  0  0
    5.6570    3.0609   -0.0826 C   0  0  0  0  0  0  0  0  0  0  0  0
    5.2073    3.8440   -1.1608 C   0  0  0  0  0  0  0  0  0  0  0  0
    5.1922    5.2321   -1.0836 C   0  0  0  0  0  0  0  0  0  0  0  0
    5.6345    5.9116    0.0728 C   0  0  0  0  0  0  0  0  0  0  0  0
    5.6034    7.2753    0.1632 N   0  0  0  0  0  0  0  0  0  0  0  0
    6.0775    5.1074    1.1553 C   0  0  0  0  0  0  0  0  0  0  0  0
    6.6418    5.9092    2.6166 Cl  0  0  0  0  0  0  0  0  0  0  0  0
    6.0768    3.7244    1.0854 C   0  0  0  0  0  0  0  0  0  0  0  0
    6.0167    1.1121   -2.6721 C   0  0  0  0  0  0  0  0  0  0  0  0
    5.9281    0.0534   -3.4663 N   0  0  0  0  0  0  0  0  0  0  0  0
    4.9606   -2.9517   -2.4506 H   0  0  0  0  0  0  0  0  0  0  0  0
    6.2496   -2.6500   -3.6608 H   0  0  0  0  0  0  0  0  0  0  0  0
    4.5551   -2.2235   -4.0388 H   0  0  0  0  0  0  0  0  0  0  0  0
    5.0330   -1.2374   -0.5971 H   0  0  0  0  0  0  0  0  0  0  0  0
    4.8275    3.3667   -2.0645 H   0  0  0  0  0  0  0  0  0  0  0  0
    4.8213    5.8206   -1.9273 H   0  0  0  0  0  0  0  0  0  0  0  0
    5.4863    7.8215   -0.6789 H   0  0  0  0  0  0  0  0  0  0  0  0
    6.0819    7.7146    0.9393 H   0  0  0  0  0  0  0  0  0  0  0  0
    6.4040    3.1278    1.9379 H   0  0  0  0  0  0  0  0  0  0  0  0
    6.3673    2.0589   -3.0796 H   0  0  0  0  0  0  0  0  0  0  0  0
  1  2  1  0
  1 17  1  0
  1 18  1  0
  1 19  1  0
  2  3  1  0
  2 16  1  0
  3  4  2  0
  3 20  1  0
  4  5  1  0
  4 15  1  0
  5  6  2  0
  5  7  1  0
  7  8  2  0
  7 14  1  0
  8  9  1  0
  8 21  1  0
  9 10  2  0
  9 22  1  0
 10 11  1  0
 10 12  1  0
 11 23  1  0
 11 24  1  0
 12 13  1  0
 12 14  2  0
 14 25  1  0
 15 16  2  0
 15 26  1  0
M  END

