
     RDKit          3D

 35 36  0  0  0  0  0  0  0  0999 V2000
    1.0124   -0.4061   -2.5454 C   0  0  0  0  0  0  0  0  0  0  0  0
    2.3589    0.1024   -2.3389 N   0  0  0  0  0  0  0  0  0  0  0  0
    3.0892   -0.5307   -1.2594 C   0  0  0  0  0  0  0  0  0  0  0  0
    4.5982   -0.2393   -1.3503 C   0  0  1  0  0  0  0  0  0  0  0  0
    4.9683    1.2478   -1.2098 C   0  0  0  0  0  0  0  0  0  0  0  0
    4.7676    1.7595    0.2185 C   0  0  0  0  0  0  0  0  0  0  0  0
    5.5142    0.8752    1.2399 C   0  0  0  0  0  0  0  0  0  0  0  0
    5.1965   -0.5150    1.0407 N   0  0  0  0  0  0  0  0  0  0  0  0
    4.6830   -1.3994    2.1606 C   0  0  0  0  0  0  0  0  0  0  0  0
    4.4731   -0.7830    3.4671 C   0  0  0  0  0  0  0  0  0  0  0  0
    5.7959   -0.5560    4.6590 S   0  0  0  0  0  0  0  0  0  0  0  0
    4.7718    0.5359    5.6153 C   0  0  0  0  0  0  0  0  0  0  0  0
    3.5101    0.7038    5.0415 C   0  0  0  0  0  0  0  0  0  0  0  0
    3.3596    0.0113    3.8684 C   0  0  0  0  0  0  0  0  0  0  0  0
    1.8995    0.0931    2.8738 Cl  0  0  0  0  0  0  0  0  0  0  0  0
    5.3748   -1.0567   -0.2817 C   0  0  0  0  0  0  0  0  0  0  0  0
    0.5246    0.1558   -3.3566 H   0  0  0  0  0  0  0  0  0  0  0  0
    0.3572   -0.3516   -1.6495 H   0  0  0  0  0  0  0  0  0  0  0  0
    1.0540   -1.4630   -2.8579 H   0  0  0  0  0  0  0  0  0  0  0  0
    2.3250    1.1108   -2.2010 H   0  0  0  0  0  0  0  0  0  0  0  0
    2.9493   -1.6217   -1.3554 H   0  0  0  0  0  0  0  0  0  0  0  0
    2.7028   -0.2718   -0.2477 H   0  0  0  0  0  0  0  0  0  0  0  0
    4.9327   -0.5952   -2.3378 H   0  0  0  0  0  0  0  0  0  0  0  0
    4.3838    1.8464   -1.9264 H   0  0  0  0  0  0  0  0  0  0  0  0
    6.0249    1.3807   -1.5025 H   0  0  0  0  0  0  0  0  0  0  0  0
    3.7018    1.7729    0.4949 H   0  0  0  0  0  0  0  0  0  0  0  0
    5.1383    2.7894    0.3276 H   0  0  0  0  0  0  0  0  0  0  0  0
    5.2774    1.1298    2.2778 H   0  0  0  0  0  0  0  0  0  0  0  0
    6.6067    0.9868    1.0937 H   0  0  0  0  0  0  0  0  0  0  0  0
    5.4052   -2.2370    2.1706 H   0  0  0  0  0  0  0  0  0  0  0  0
    3.7456   -1.8102    1.7434 H   0  0  0  0  0  0  0  0  0  0  0  0
    5.1377    0.9213    6.5623 H   0  0  0  0  0  0  0  0  0  0  0  0
    2.7233    1.3139    5.4847 H   0  0  0  0  0  0  0  0  0  0  0  0
    5.0624   -2.1110   -0.2752 H   0  0  0  0  0  0  0  0  0  0  0  0
    6.4534   -1.0221   -0.5256 H   0  0  0  0  0  0  0  0  0  0  0  0
  1  2  1  0
  1 17  1  0
  1 18  1  0
  1 19  1  0
  2  3  1  0
  2 20  1  0
  3  4  1  0
  3 21  1  0
  3 22  1  0
  4  5  1  0
  4 16  1  0
  4 23  1  6
  5  6  1  0
  5 24  1  0
  5 25  1  0
  6  7  1  0
  6 26  1  0
  6 27  1  0
  7  8  1  0
  7 28  1  0
  7 29  1  0
  8  9  1  0
  8 16  1  0
  9 10  1  0
  9 30  1  0
  9 31  1  0
 10 11  1  0
 10 14  2  0
 11 12  1  0
 12 13  2  0
 12 32  1  0
 13 14  1  0
 13 33  1  0
 14 15  1  0
 16 34  1  0
 16 35  1  0
M  END

