
     RDKit          3D

102107  0  0  0  0  0  0  0  0999 V2000
    1.3701   -0.7416    0.1167 C   0  0  0  0  0  0  0  0  0  0  0  0
    2.8349   -0.5193   -0.3041 C   0  0  1  0  0  0  0  0  0  0  0  0
    3.4002   -1.8103   -0.9278 C   0  0  0  0  0  0  0  0  0  0  0  0
    3.0455    1.0090   -1.4553 Si  0  0  1  0  0  4  0  0  0  0  0  0
    2.5393    0.4732   -3.1520 C   0  0  0  0  0  0  0  0  0  0  0  0
    2.1633    0.1106   -4.2599 C   0  0  0  0  0  0  0  0  0  0  0  0
    1.7211   -0.3105   -5.5384 C   0  0  0  0  0  0  0  0  0  0  0  0
    1.6337   -1.7027   -5.8546 C   0  0  0  0  0  0  0  0  0  0  0  0
    1.9734   -2.6062   -4.9178 N   0  0  0  0  0  0  0  0  0  0  0  0
    1.8873   -3.8973   -5.2198 C   0  0  0  0  0  0  0  0  0  0  0  0
    2.2408   -4.8904   -4.2454 C   0  0  0  0  0  0  0  0  0  0  0  0
    2.1495   -6.2206   -4.5568 C   0  0  0  0  0  0  0  0  0  0  0  0
    1.7024   -6.6467   -5.8520 C   0  0  0  0  0  0  0  0  0  0  0  0
    1.3548   -5.7351   -6.8130 C   0  0  0  0  0  0  0  0  0  0  0  0
    1.4346   -4.3294   -6.5338 C   0  0  0  0  0  0  0  0  0  0  0  0
    1.0973   -3.4434   -7.4654 N   0  0  0  0  0  0  0  0  0  0  0  0
    1.1827   -2.1343   -7.1694 C   0  0  0  0  0  0  0  0  0  0  0  0
    0.8217   -1.1711   -8.1651 C   0  0  0  0  0  0  0  0  0  0  0  0
    0.4005   -1.5983   -9.4501 C   0  0  0  0  0  0  0  0  0  0  0  0
    0.0478   -2.0021  -10.5518 C   0  0  0  0  0  0  0  0  0  0  0  0
   -0.4768   -2.7029  -12.1835 Si  0  0  1  0  0  4  0  0  0  0  0  0
    0.4880   -1.7758  -13.5604 C   0  0  1  0  0  0  0  0  0  0  0  0
    0.1745   -0.2696  -13.5734 C   0  0  0  0  0  0  0  0  0  0  0  0
    2.0062   -2.0136  -13.4853 C   0  0  0  0  0  0  0  0  0  0  0  0
    0.0312   -4.5532  -12.1591 C   0  0  1  0  0  0  0  0  0  0  0  0
   -0.4027   -5.3085  -10.8904 C   0  0  0  0  0  0  0  0  0  0  0  0
   -0.3592   -5.3228  -13.4334 C   0  0  0  0  0  0  0  0  0  0  0  0
   -2.3540   -2.3317  -12.3572 C   0  0  1  0  0  0  0  0  0  0  0  0
   -2.9230   -2.6060  -13.7606 C   0  0  0  0  0  0  0  0  0  0  0  0
   -3.2221   -2.9846  -11.2683 C   0  0  0  0  0  0  0  0  0  0  0  0
    0.8989    0.2087   -7.8385 C   0  0  0  0  0  0  0  0  0  0  0  0
    0.5421    1.1265   -8.7691 N   0  0  0  0  0  0  0  0  0  0  0  0
    0.6138    2.4055   -8.4682 C   0  0  0  0  0  0  0  0  0  0  0  0
    1.0763    2.8371   -7.1540 C   0  0  0  0  0  0  0  0  0  0  0  0
    1.1526    4.2496   -6.8611 C   0  0  0  0  0  0  0  0  0  0  0  0
    0.7947    5.1707   -7.7940 C   0  0  0  0  0  0  0  0  0  0  0  0
    0.3214    4.7910   -9.1104 C   0  0  0  0  0  0  0  0  0  0  0  0
   -0.0514    5.7614  -10.0643 C   0  0  0  0  0  0  0  0  0  0  0  0
   -0.5071    5.3829  -11.3218 C   0  0  0  0  0  0  0  0  0  0  0  0
   -0.6020    4.0209  -11.6566 C   0  0  0  0  0  0  0  0  0  0  0  0
   -0.2391    3.0474  -10.7327 C   0  0  0  0  0  0  0  0  0  0  0  0
    0.2259    3.4143   -9.4556 C   0  0  0  0  0  0  0  0  0  0  0  0
    1.4246    1.9588   -6.2322 N   0  0  0  0  0  0  0  0  0  0  0  0
    1.3505    0.6395   -6.5279 C   0  0  0  0  0  0  0  0  0  0  0  0
    1.8295    2.3978   -0.9255 C   0  0  1  0  0  0  0  0  0  0  0  0
    2.1261    2.9362    0.4854 C   0  0  0  0  0  0  0  0  0  0  0  0
    1.6817    3.5448   -1.9399 C   0  0  0  0  0  0  0  0  0  0  0  0
    4.8545    1.6665   -1.4982 C   0  0  1  0  0  0  0  0  0  0  0  0
    5.9448    0.5941   -1.3401 C   0  0  0  0  0  0  0  0  0  0  0  0
    5.1358    2.5310   -2.7412 C   0  0  0  0  0  0  0  0  0  0  0  0
    1.2825   -1.6332    0.7623 H   0  0  0  0  0  0  0  0  0  0  0  0
    0.7225   -0.9133   -0.7599 H   0  0  0  0  0  0  0  0  0  0  0  0
    0.9524    0.1085    0.6777 H   0  0  0  0  0  0  0  0  0  0  0  0
    3.4192   -0.2938    0.6094 H   0  0  0  0  0  0  0  0  0  0  0  0
    2.8802   -2.0562   -1.8683 H   0  0  0  0  0  0  0  0  0  0  0  0
    3.2707   -2.6623   -0.2367 H   0  0  0  0  0  0  0  0  0  0  0  0
    4.4727   -1.7369   -1.1585 H   0  0  0  0  0  0  0  0  0  0  0  0
    2.5776   -4.5430   -3.2669 H   0  0  0  0  0  0  0  0  0  0  0  0
    2.4187   -6.9757   -3.8139 H   0  0  0  0  0  0  0  0  0  0  0  0
    1.6413   -7.7166   -6.0663 H   0  0  0  0  0  0  0  0  0  0  0  0
    1.0122   -6.0367   -7.8045 H   0  0  0  0  0  0  0  0  0  0  0  0
    0.1269   -2.2051  -14.5146 H   0  0  0  0  0  0  0  0  0  0  0  0
    0.4924    0.2083  -12.6318 H   0  0  0  0  0  0  0  0  0  0  0  0
   -0.8997   -0.0637  -13.7054 H   0  0  0  0  0  0  0  0  0  0  0  0
    0.7095    0.2374  -14.3957 H   0  0  0  0  0  0  0  0  0  0  0  0
    2.4210   -1.6605  -12.5263 H   0  0  0  0  0  0  0  0  0  0  0  0
    2.5301   -1.4680  -14.2898 H   0  0  0  0  0  0  0  0  0  0  0  0
    2.2707   -3.0777  -13.5884 H   0  0  0  0  0  0  0  0  0  0  0  0
    1.1359   -4.4966  -12.1322 H   0  0  0  0  0  0  0  0  0  0  0  0
   -1.4962   -5.4372  -10.8437 H   0  0  0  0  0  0  0  0  0  0  0  0
   -0.0865   -4.7843   -9.9750 H   0  0  0  0  0  0  0  0  0  0  0  0
    0.0406   -6.3205  -10.8732 H   0  0  0  0  0  0  0  0  0  0  0  0
   -1.4516   -5.4502  -13.5122 H   0  0  0  0  0  0  0  0  0  0  0  0
    0.0817   -6.3353  -13.4310 H   0  0  0  0  0  0  0  0  0  0  0  0
   -0.0183   -4.8221  -14.3546 H   0  0  0  0  0  0  0  0  0  0  0  0
   -2.3959   -1.2382  -12.1912 H   0  0  0  0  0  0  0  0  0  0  0  0
   -2.9227   -3.6819  -14.0001 H   0  0  0  0  0  0  0  0  0  0  0  0
   -2.3583   -2.0921  -14.5550 H   0  0  0  0  0  0  0  0  0  0  0  0
   -3.9703   -2.2626  -13.8313 H   0  0  0  0  0  0  0  0  0  0  0  0
   -3.2837   -4.0774  -11.3996 H   0  0  0  0  0  0  0  0  0  0  0  0
   -4.2557   -2.5976  -11.3066 H   0  0  0  0  0  0  0  0  0  0  0  0
   -2.8323   -2.7922  -10.2564 H   0  0  0  0  0  0  0  0  0  0  0  0
    1.5073    4.5340   -5.8689 H   0  0  0  0  0  0  0  0  0  0  0  0
    0.8566    6.2376   -7.5620 H   0  0  0  0  0  0  0  0  0  0  0  0
    0.0218    6.8201   -9.8011 H   0  0  0  0  0  0  0  0  0  0  0  0
   -0.7926    6.1457  -12.0506 H   0  0  0  0  0  0  0  0  0  0  0  0
   -0.9615    3.7262  -12.6455 H   0  0  0  0  0  0  0  0  0  0  0  0
   -0.3062    1.9851  -10.9718 H   0  0  0  0  0  0  0  0  0  0  0  0
    0.8561    1.8747   -0.8880 H   0  0  0  0  0  0  0  0  0  0  0  0
    3.0877    3.4761    0.5199 H   0  0  0  0  0  0  0  0  0  0  0  0
    2.1716    2.1373    1.2435 H   0  0  0  0  0  0  0  0  0  0  0  0
    1.3473    3.6492    0.8088 H   0  0  0  0  0  0  0  0  0  0  0  0
    2.5842    4.1775   -1.9720 H   0  0  0  0  0  0  0  0  0  0  0  0
    0.8404    4.2044   -1.6619 H   0  0  0  0  0  0  0  0  0  0  0  0
    1.4968    3.1732   -2.9601 H   0  0  0  0  0  0  0  0  0  0  0  0
    4.9112    2.3251   -0.6094 H   0  0  0  0  0  0  0  0  0  0  0  0
    5.9391   -0.1171   -2.1829 H   0  0  0  0  0  0  0  0  0  0  0  0
    5.8349    0.0141   -0.4108 H   0  0  0  0  0  0  0  0  0  0  0  0
    6.9455    1.0609   -1.3184 H   0  0  0  0  0  0  0  0  0  0  0  0
    5.0805    1.9299   -3.6634 H   0  0  0  0  0  0  0  0  0  0  0  0
    6.1481    2.9694   -2.6900 H   0  0  0  0  0  0  0  0  0  0  0  0
    4.4223    3.3605   -2.8537 H   0  0  0  0  0  0  0  0  0  0  0  0
  1  2  1  0
  1 51  1  0
  1 52  1  0
  1 53  1  0
  2  3  1  0
  2  4  1  0
  2 54  1  1
  3 55  1  0
  3 56  1  0
  3 57  1  0
  4  5  1  6
  4 45  1  0
  4 48  1  0
  5  6  3  0
  6  7  1  0
  7  8  2  0
  7 44  1  0
  8  9  1  0
  8 17  1  0
  9 10  2  0
 10 11  1  0
 10 15  1  0
 11 12  2  0
 11 58  1  0
 12 13  1  0
 12 59  1  0
 13 14  2  0
 13 60  1  0
 14 15  1  0
 14 61  1  0
 15 16  2  0
 16 17  1  0
 17 18  2  0
 18 19  1  0
 18 31  1  0
 19 20  3  0
 21 20  1  1
 21 22  1  0
 21 25  1  0
 21 28  1  0
 22 23  1  0
 22 24  1  0
 22 62  1  6
 23 63  1  0
 23 64  1  0
 23 65  1  0
 24 66  1  0
 24 67  1  0
 24 68  1  0
 25 26  1  0
 25 27  1  0
 25 69  1  1
 26 70  1  0
 26 71  1  0
 26 72  1  0
 27 73  1  0
 27 74  1  0
 27 75  1  0
 28 29  1  0
 28 30  1  0
 28 76  1  1
 29 77  1  0
 29 78  1  0
 29 79  1  0
 30 80  1  0
 30 81  1  0
 30 82  1  0
 31 32  1  0
 31 44  2  0
 32 33  2  0
 33 34  1  0
 33 42  1  0
 34 35  1  0
 34 43  2  0
 35 36  2  0
 35 83  1  0
 36 37  1  0
 36 84  1  0
 37 38  1  0
 37 42  2  0
 38 39  2  0
 38 85  1  0
 39 40  1  0
 39 86  1  0
 40 41  2  0
 40 87  1  0
 41 42  1  0
 41 88  1  0
 43 44  1  0
 45 46  1  0
 45 47  1  0
 45 89  1  1
 46 90  1  0
 46 91  1  0
 46 92  1  0
 47 93  1  0
 47 94  1  0
 47 95  1  0
 48 49  1  0
 48 50  1  0
 48 96  1  1
 49 97  1  0
 49 98  1  0
 49 99  1  0
 50100  1  0
 50101  1  0
 50102  1  0
M  END

