
     RDKit          3D

 47 47  0  0  0  0  0  0  0  0999 V2000
    5.4559   -2.0824    0.2292 C   0  0  0  0  0  0  0  0  0  0  0  0
    4.7492   -0.7463    0.4609 C   0  0  0  0  0  0  0  0  0  0  0  0
    4.9871    0.2998   -0.6643 C   0  0  1  0  0  0  0  0  0  0  0  0
    4.3103   -0.0620   -1.9943 C   0  0  0  0  0  0  0  0  0  0  0  0
    4.7029    0.8437   -3.1636 C   0  0  0  0  0  0  0  0  0  0  0  0
    4.4771    1.6369   -0.1479 C   0  0  0  0  0  0  0  0  0  0  0  0
    3.3997    2.1159   -0.4482 O   0  0  0  0  0  0  0  0  0  0  0  0
    5.2891    2.3129    0.8106 N   0  0  0  0  0  0  0  0  0  0  0  0
    4.6849    3.3927    1.5831 C   0  0  0  0  0  0  0  0  0  0  0  0
    5.3394    4.7657    1.3283 C   0  0  1  0  0  0  0  0  0  0  0  0
    4.9808    5.3532   -0.0436 C   0  0  0  0  0  0  0  0  0  0  0  0
    4.9845    5.6835    2.5084 C   0  0  0  0  0  0  0  0  0  0  0  0
    4.4974    5.2980    3.5372 O   0  0  0  0  0  0  0  0  0  0  0  0
    5.2885    6.9867    2.3469 O   0  0  0  0  0  0  0  0  0  0  0  0
    6.6806    2.0075    0.9462 C   0  0  0  0  0  0  0  0  0  0  0  0
    7.5015    2.5436   -0.1615 C   0  0  0  0  0  0  0  0  0  0  0  0
    8.7195    3.1466    0.1559 C   0  0  0  0  0  0  0  0  0  0  0  0
    9.2307    3.1178    1.4558 C   0  0  0  0  0  0  0  0  0  0  0  0
    8.5163    2.4554    2.5143 C   0  0  0  0  0  0  0  0  0  0  0  0
    7.2495    1.9516    2.2583 C   0  0  0  0  0  0  0  0  0  0  0  0
    6.4451    1.3588    3.1889 O   0  0  0  0  0  0  0  0  0  0  0  0
    6.8748    1.2985    4.5350 C   0  0  0  0  0  0  0  0  0  0  0  0
    5.2739   -2.7647    1.0745 H   0  0  0  0  0  0  0  0  0  0  0  0
    6.5458   -1.9428    0.1431 H   0  0  0  0  0  0  0  0  0  0  0  0
    5.1069   -2.5915   -0.6826 H   0  0  0  0  0  0  0  0  0  0  0  0
    5.1054   -0.3233    1.4143 H   0  0  0  0  0  0  0  0  0  0  0  0
    3.6611   -0.9021    0.5696 H   0  0  0  0  0  0  0  0  0  0  0  0
    6.0750    0.3789   -0.8093 H   0  0  0  0  0  0  0  0  0  0  0  0
    3.2170   -0.0364   -1.8548 H   0  0  0  0  0  0  0  0  0  0  0  0
    4.5716   -1.1030   -2.2410 H   0  0  0  0  0  0  0  0  0  0  0  0
    4.4076    1.8897   -2.9839 H   0  0  0  0  0  0  0  0  0  0  0  0
    4.2098    0.5216   -4.0943 H   0  0  0  0  0  0  0  0  0  0  0  0
    5.7914    0.8236   -3.3402 H   0  0  0  0  0  0  0  0  0  0  0  0
    4.8244    3.1466    2.6466 H   0  0  0  0  0  0  0  0  0  0  0  0
    3.6115    3.4244    1.3643 H   0  0  0  0  0  0  0  0  0  0  0  0
    6.4351    4.6320    1.3766 H   0  0  0  0  0  0  0  0  0  0  0  0
    3.9039    5.5666   -0.1288 H   0  0  0  0  0  0  0  0  0  0  0  0
    5.2565    4.6469   -0.8392 H   0  0  0  0  0  0  0  0  0  0  0  0
    5.5370    6.2816   -0.2590 H   0  0  0  0  0  0  0  0  0  0  0  0
    5.6740    7.1429    1.4731 H   0  0  0  0  0  0  0  0  0  0  0  0
    7.1501    2.4752   -1.1931 H   0  0  0  0  0  0  0  0  0  0  0  0
    9.3029    3.6189   -0.6426 H   0  0  0  0  0  0  0  0  0  0  0  0
   10.1972    3.5774    1.6743 H   0  0  0  0  0  0  0  0  0  0  0  0
    8.9913    2.3253    3.4863 H   0  0  0  0  0  0  0  0  0  0  0  0
    6.0527    0.8481    5.1069 H   0  0  0  0  0  0  0  0  0  0  0  0
    7.0915    2.3044    4.9341 H   0  0  0  0  0  0  0  0  0  0  0  0
    7.7760    0.6701    4.6407 H   0  0  0  0  0  0  0  0  0  0  0  0
  1  2  1  0
  1 23  1  0
  1 24  1  0
  1 25  1  0
  2  3  1  0
  2 26  1  0
  2 27  1  0
  3  4  1  0
  3  6  1  0
  3 28  1  6
  4  5  1  0
  4 29  1  0
  4 30  1  0
  5 31  1  0
  5 32  1  0
  5 33  1  0
  6  7  2  0
  6  8  1  0
  8  9  1  0
  8 15  1  0
  9 10  1  0
  9 34  1  0
  9 35  1  0
 10 11  1  0
 10 12  1  0
 10 36  1  6
 11 37  1  0
 11 38  1  0
 11 39  1  0
 12 13  2  0
 12 14  1  0
 14 40  1  0
 15 16  2  0
 15 20  1  0
 16 17  1  0
 16 41  1  0
 17 18  2  0
 17 42  1  0
 18 19  1  0
 18 43  1  0
 19 20  2  0
 19 44  1  0
 20 21  1  0
 21 22  1  0
 22 45  1  0
 22 46  1  0
 22 47  1  0
M  END

