
     RDKit          3D

 40 41  0  0  0  0  0  0  0  0999 V2000
    1.2513   -0.6926    1.3236 C   0  0  0  0  0  0  0  0  0  0  0  0
    2.3489   -0.1500    0.0070 S   0  0  1  0  0  0  0  0  0  0  0  0
    3.1059   -1.3246   -0.4356 O   0  0  0  0  0  0  0  0  0  0  0  0
    1.5432    0.6377   -0.9319 O   0  0  0  0  0  0  0  0  0  0  0  0
    3.4151    0.9028    0.7967 N   0  0  0  0  0  0  0  0  0  0  0  0
    4.7998    0.4603    1.0148 C   0  0  0  0  0  0  0  0  0  0  0  0
    5.7218    0.9140   -0.1186 C   0  0  0  0  0  0  0  0  0  0  0  0
    5.5852    2.3520   -0.3495 N   0  0  0  0  0  0  0  0  0  0  0  0
    6.7136    3.1361   -0.4115 C   0  0  0  0  0  0  0  0  0  0  0  0
    7.8310    2.6719   -0.2357 O   0  0  0  0  0  0  0  0  0  0  0  0
    6.5208    4.6259   -0.7079 C   0  0  0  0  0  0  0  0  0  0  0  0
    7.8626    5.3851   -0.6918 C   0  0  0  0  0  0  0  0  0  0  0  0
    7.7096    6.8212   -1.0790 C   0  0  0  0  0  0  0  0  0  0  0  0
    7.7353    7.8450   -0.0790 C   0  0  0  0  0  0  0  0  0  0  0  0
    7.5203    9.2141   -0.3897 C   0  0  0  0  0  0  0  0  0  0  0  0
    7.1474    9.5036   -1.7303 C   0  0  0  0  0  0  0  0  0  0  0  0
    6.7346   10.7277   -2.0498 F   0  0  0  0  0  0  0  0  0  0  0  0
    7.1278    8.5042   -2.7374 C   0  0  0  0  0  0  0  0  0  0  0  0
    6.6450    8.8299   -3.9396 F   0  0  0  0  0  0  0  0  0  0  0  0
    7.4818    7.1580   -2.4550 C   0  0  0  0  0  0  0  0  0  0  0  0
    4.2171    2.7897   -0.6043 C   0  0  0  0  0  0  0  0  0  0  0  0
    3.2897    2.3389    0.5319 C   0  0  0  0  0  0  0  0  0  0  0  0
    0.5337   -1.3861    0.8638 H   0  0  0  0  0  0  0  0  0  0  0  0
    0.7332    0.1820    1.7370 H   0  0  0  0  0  0  0  0  0  0  0  0
    1.8462   -1.2044    2.0906 H   0  0  0  0  0  0  0  0  0  0  0  0
    4.8209   -0.6334    1.0990 H   0  0  0  0  0  0  0  0  0  0  0  0
    5.1391    0.8890    1.9740 H   0  0  0  0  0  0  0  0  0  0  0  0
    5.4533    0.3612   -1.0374 H   0  0  0  0  0  0  0  0  0  0  0  0
    6.7739    0.7100    0.1163 H   0  0  0  0  0  0  0  0  0  0  0  0
    5.8316    5.0737    0.0280 H   0  0  0  0  0  0  0  0  0  0  0  0
    6.0354    4.7484   -1.6917 H   0  0  0  0  0  0  0  0  0  0  0  0
    8.5423    4.8741   -1.3974 H   0  0  0  0  0  0  0  0  0  0  0  0
    8.3167    5.2920    0.3060 H   0  0  0  0  0  0  0  0  0  0  0  0
    7.9183    7.5505    0.9579 H   0  0  0  0  0  0  0  0  0  0  0  0
    7.6565   10.0200    0.3307 H   0  0  0  0  0  0  0  0  0  0  0  0
    7.6311    6.4422   -3.2646 H   0  0  0  0  0  0  0  0  0  0  0  0
    3.8499    2.3497   -1.5505 H   0  0  0  0  0  0  0  0  0  0  0  0
    4.1711    3.8802   -0.7050 H   0  0  0  0  0  0  0  0  0  0  0  0
    2.2484    2.5729    0.2776 H   0  0  0  0  0  0  0  0  0  0  0  0
    3.5516    2.8753    1.4612 H   0  0  0  0  0  0  0  0  0  0  0  0
  2  1  1  1
  1 23  1  0
  1 24  1  0
  1 25  1  0
  2  3  2  0
  2  4  2  0
  2  5  1  0
  5  6  1  0
  5 22  1  0
  6  7  1  0
  6 26  1  0
  6 27  1  0
  7  8  1  0
  7 28  1  0
  7 29  1  0
  8  9  1  0
  8 21  1  0
  9 10  2  0
  9 11  1  0
 11 12  1  0
 11 30  1  0
 11 31  1  0
 12 13  1  0
 12 32  1  0
 12 33  1  0
 13 14  2  0
 13 20  1  0
 14 15  1  0
 14 34  1  0
 15 16  2  0
 15 35  1  0
 16 17  1  0
 16 18  1  0
 18 19  1  0
 18 20  2  0
 20 36  1  0
 21 22  1  0
 21 37  1  0
 21 38  1  0
 22 39  1  0
 22 40  1  0
M  END

