
     RDKit          3D

 44 45  0  0  0  0  0  0  0  0999 V2000
    8.4973    3.6510   -5.0480 C   0  0  0  0  0  0  0  0  0  0  0  0
    7.9425    3.2820   -3.8162 O   0  0  0  0  0  0  0  0  0  0  0  0
    6.6651    2.6944   -3.9203 C   0  0  0  0  0  0  0  0  0  0  0  0
    6.1710    2.3603   -2.5224 C   0  0  1  0  0  0  0  0  0  0  0  0
    6.9449    1.7234   -2.0576 H   0  0  0  0  0  0  0  0  0  0  0  0
    5.9384    3.5567   -1.5889 C   0  0  0  0  0  0  0  0  0  0  0  0
    5.1889    2.9216   -0.4101 C   0  0  0  0  0  0  0  0  0  0  0  0
    4.2233    1.9135   -1.0730 C   0  0  0  0  0  0  0  0  0  0  0  0
    4.8367    1.5559   -2.4612 C   0  0  1  0  0  0  0  0  0  0  0  0
    5.0479    0.4828   -2.5636 H   0  0  0  0  0  0  0  0  0  0  0  0
    3.9030    1.8730   -3.5389 N   0  0  0  0  0  0  0  0  0  0  0  0
    3.6917    1.0581   -4.5987 C   0  0  0  0  0  0  0  0  0  0  0  0
    4.3033    0.0201   -4.8214 O   0  0  0  0  0  0  0  0  0  0  0  0
    2.5624    1.5267   -5.5392 C   0  0  0  0  0  0  0  0  0  0  0  0
    1.2278    1.2279   -5.0038 N   0  0  0  0  0  0  0  0  0  0  0  0
    0.5860    0.0442   -5.2586 C   0  0  0  0  0  0  0  0  0  0  0  0
    1.2678   -0.9963   -6.0997 C   0  0  0  0  0  0  0  0  0  0  0  0
   -0.6716   -0.1376   -4.7315 C   0  0  0  0  0  0  0  0  0  0  0  0
   -1.2552    0.9165   -3.9711 C   0  0  0  0  0  0  0  0  0  0  0  0
   -2.6583    0.7674   -3.4462 C   0  0  0  0  0  0  0  0  0  0  0  0
   -0.6148    2.0305   -3.6999 N   0  0  0  0  0  0  0  0  0  0  0  0
    0.6673    2.2184   -4.1352 C   0  0  0  0  0  0  0  0  0  0  0  0
    1.3579    3.1845   -3.8288 O   0  0  0  0  0  0  0  0  0  0  0  0
    9.4887    4.0879   -4.8562 H   0  0  0  0  0  0  0  0  0  0  0  0
    7.8776    4.4051   -5.5766 H   0  0  0  0  0  0  0  0  0  0  0  0
    8.6206    2.7819   -5.7269 H   0  0  0  0  0  0  0  0  0  0  0  0
    6.7057    1.7754   -4.5418 H   0  0  0  0  0  0  0  0  0  0  0  0
    5.9606    3.3911   -4.4215 H   0  0  0  0  0  0  0  0  0  0  0  0
    5.2999    4.3069   -2.0920 H   0  0  0  0  0  0  0  0  0  0  0  0
    6.8734    4.0610   -1.3052 H   0  0  0  0  0  0  0  0  0  0  0  0
    4.6645    3.6540    0.2227 H   0  0  0  0  0  0  0  0  0  0  0  0
    5.9081    2.3924    0.2379 H   0  0  0  0  0  0  0  0  0  0  0  0
    3.2313    2.3691   -1.2219 H   0  0  0  0  0  0  0  0  0  0  0  0
    4.0634    1.0158   -0.4570 H   0  0  0  0  0  0  0  0  0  0  0  0
    3.2518    2.6546   -3.4369 H   0  0  0  0  0  0  0  0  0  0  0  0
    2.7025    1.0218   -6.4993 H   0  0  0  0  0  0  0  0  0  0  0  0
    2.6094    2.6134   -5.6848 H   0  0  0  0  0  0  0  0  0  0  0  0
    2.2865   -1.2005   -5.7360 H   0  0  0  0  0  0  0  0  0  0  0  0
    1.3563   -0.6605   -7.1470 H   0  0  0  0  0  0  0  0  0  0  0  0
    0.6829   -1.9248   -6.0917 H   0  0  0  0  0  0  0  0  0  0  0  0
   -1.2109   -1.0671   -4.9138 H   0  0  0  0  0  0  0  0  0  0  0  0
   -3.3658    0.5827   -4.2714 H   0  0  0  0  0  0  0  0  0  0  0  0
   -2.9530    1.6768   -2.9081 H   0  0  0  0  0  0  0  0  0  0  0  0
   -2.7257   -0.0965   -2.7639 H   0  0  0  0  0  0  0  0  0  0  0  0
  1  2  1  0
  1 24  1  0
  1 25  1  0
  1 26  1  0
  2  3  1  0
  3  4  1  0
  3 27  1  0
  3 28  1  0
  4  5  1  1
  4  6  1  0
  4  9  1  0
  6  7  1  0
  6 29  1  0
  6 30  1  0
  7  8  1  0
  7 31  1  0
  7 32  1  0
  8  9  1  0
  8 33  1  0
  8 34  1  0
  9 10  1  1
  9 11  1  0
 11 12  1  0
 11 35  1  0
 12 13  2  0
 12 14  1  0
 14 15  1  0
 14 36  1  0
 14 37  1  0
 15 16  1  0
 15 22  1  0
 16 17  1  0
 16 18  2  0
 17 38  1  0
 17 39  1  0
 17 40  1  0
 18 19  1  0
 18 41  1  0
 19 20  1  0
 19 21  2  0
 20 42  1  0
 20 43  1  0
 20 44  1  0
 21 22  1  0
 22 23  2  0
M  END

