
     RDKit          3D

 38 40  0  0  0  0  0  0  0  0999 V2000
    1.6410   -0.5594    1.4517 C   0  0  0  0  0  0  0  0  0  0  0  0
    2.8740   -0.2491    0.6520 C   0  0  0  0  0  0  0  0  0  0  0  0
    3.5911    0.9732    0.8019 C   0  0  0  0  0  0  0  0  0  0  0  0
    4.6628    1.3320    0.0141 C   0  0  0  0  0  0  0  0  0  0  0  0
    5.1192    0.4618   -1.0560 C   0  0  0  0  0  0  0  0  0  0  0  0
    6.3334    0.7628   -1.8174 C   0  0  1  0  0  0  0  0  0  0  0  0
    6.4595    2.0819   -2.1194 F   0  0  0  0  0  0  0  0  0  0  0  0
    7.5148    0.4594   -1.1686 F   0  0  0  0  0  0  0  0  0  0  0  0
    6.4049    0.0737   -2.9883 F   0  0  0  0  0  0  0  0  0  0  0  0
    4.4324   -0.7700   -1.2221 C   0  0  0  0  0  0  0  0  0  0  0  0
    3.3639   -1.0931   -0.4176 C   0  0  0  0  0  0  0  0  0  0  0  0
    2.7137   -2.3900   -0.6359 N   0  0  0  0  0  0  0  0  0  0  0  0
    1.6634   -2.6414   -1.4599 C   0  0  0  0  0  0  0  0  0  0  0  0
    1.3054   -4.0214   -1.3966 C   0  0  0  0  0  0  0  0  0  0  0  0
    2.1806   -4.6137   -0.5089 C   0  0  0  0  0  0  0  0  0  0  0  0
    3.0499   -3.5635   -0.0310 C   0  0  0  0  0  0  0  0  0  0  0  0
    4.1370   -3.7510    0.9502 C   0  0  0  0  0  0  0  0  0  0  0  0
    3.9751   -5.0923    1.6873 C   0  0  0  0  0  0  0  0  0  0  0  0
    3.6358   -6.2328    0.7186 C   0  0  0  0  0  0  0  0  0  0  0  0
    2.2769   -6.0331   -0.0053 C   0  0  1  0  0  0  0  0  0  0  0  0
    1.0756   -6.3430    0.7701 N   0  0  0  0  0  0  0  0  0  0  0  0
    1.5306    0.1669    2.2721 H   0  0  0  0  0  0  0  0  0  0  0  0
    1.6489   -1.5597    1.9286 H   0  0  0  0  0  0  0  0  0  0  0  0
    0.6940   -0.5069    0.8711 H   0  0  0  0  0  0  0  0  0  0  0  0
    3.2632    1.6632    1.5869 H   0  0  0  0  0  0  0  0  0  0  0  0
    5.1698    2.2832    0.1831 H   0  0  0  0  0  0  0  0  0  0  0  0
    4.7580   -1.4616   -2.0020 H   0  0  0  0  0  0  0  0  0  0  0  0
    1.2227   -1.8381   -2.0452 H   0  0  0  0  0  0  0  0  0  0  0  0
    0.4921   -4.4909   -1.9447 H   0  0  0  0  0  0  0  0  0  0  0  0
    4.1896   -2.8817    1.6227 H   0  0  0  0  0  0  0  0  0  0  0  0
    5.0909   -3.7268    0.3869 H   0  0  0  0  0  0  0  0  0  0  0  0
    3.1795   -4.9982    2.4474 H   0  0  0  0  0  0  0  0  0  0  0  0
    4.8987   -5.3177    2.2398 H   0  0  0  0  0  0  0  0  0  0  0  0
    3.6090   -7.1965    1.2515 H   0  0  0  0  0  0  0  0  0  0  0  0
    4.4379   -6.3170   -0.0370 H   0  0  0  0  0  0  0  0  0  0  0  0
    2.2590   -6.7034   -0.8819 H   0  0  0  0  0  0  0  0  0  0  0  0
    1.0101   -5.7621    1.6066 H   0  0  0  0  0  0  0  0  0  0  0  0
    1.0944   -7.3146    1.0801 H   0  0  0  0  0  0  0  0  0  0  0  0
  1  2  1  0
  1 22  1  0
  1 23  1  0
  1 24  1  0
  2  3  2  0
  2 11  1  0
  3  4  1  0
  3 25  1  0
  4  5  2  0
  4 26  1  0
  5  6  1  0
  5 10  1  0
  6  7  1  6
  6  8  1  0
  6  9  1  0
 10 11  2  0
 10 27  1  0
 11 12  1  0
 12 13  1  0
 12 16  1  0
 13 14  2  0
 13 28  1  0
 14 15  1  0
 14 29  1  0
 15 16  2  0
 15 20  1  0
 16 17  1  0
 17 18  1  0
 17 30  1  0
 17 31  1  0
 18 19  1  0
 18 32  1  0
 18 33  1  0
 19 20  1  0
 19 34  1  0
 19 35  1  0
 20 21  1  0
 20 36  1  6
 21 37  1  0
 21 38  1  0
M  END

