
     RDKit          3D

 66 71  0  0  0  0  0  0  0  0999 V2000
    1.4162   -0.2875    2.3411 C   0  0  0  0  0  0  0  0  0  0  0  0
    2.7747   -0.0362    1.7858 C   0  0  0  0  0  0  0  0  0  0  0  0
    3.4556    1.0874    1.9374 N   0  0  0  0  0  0  0  0  0  0  0  0
    4.6478    0.8640    1.2978 C   0  0  0  0  0  0  0  0  0  0  0  0
    5.7619    1.6935    1.1448 C   0  0  0  0  0  0  0  0  0  0  0  0
    6.8750    1.2006    0.4419 C   0  0  0  0  0  0  0  0  0  0  0  0
    8.0280    2.1074    0.2764 C   0  0  0  0  0  0  0  0  0  0  0  0
    7.9688    3.2999    0.0807 O   0  0  0  0  0  0  0  0  0  0  0  0
    9.3666    1.5446    0.3873 N   0  0  0  0  0  0  0  0  0  0  0  0
    9.7111    0.3219    1.0342 C   0  0  0  0  0  0  0  0  0  0  0  0
   10.5198   -0.5964    0.0256 C   0  0  0  0  0  0  0  0  0  0  0  0
   11.6239    0.1484   -0.5139 N   0  0  0  0  0  0  0  0  0  0  0  0
   12.9321    0.0580    0.1462 C   0  0  0  0  0  0  0  0  0  0  0  0
   14.0881    0.2911   -0.7755 C   0  0  0  0  0  0  0  0  0  0  0  0
   14.5345    1.4876   -1.0730 N   0  0  0  0  0  0  0  0  0  0  0  0
   15.5689    1.3420   -1.9428 N   0  0  0  0  0  0  0  0  0  0  0  0
   15.7371    0.0557   -2.1663 C   0  0  0  0  0  0  0  0  0  0  0  0
   14.8071   -0.6692   -1.4489 N   0  0  0  0  0  0  0  0  0  0  0  0
   14.6286   -2.1256   -1.3640 C   0  0  0  0  0  0  0  0  0  0  0  0
   15.0312   -2.8636   -2.6426 C   0  0  0  0  0  0  0  0  0  0  0  0
   16.5431   -3.0629   -2.8408 C   0  0  0  0  0  0  0  0  0  0  0  0
   17.4110   -1.8264   -2.5501 C   0  0  0  0  0  0  0  0  0  0  0  0
   16.8082   -0.5064   -3.0527 C   0  0  0  0  0  0  0  0  0  0  0  0
   11.2733    1.3882   -1.1542 C   0  0  0  0  0  0  0  0  0  0  0  0
   10.4740    2.2853   -0.1231 C   0  0  0  0  0  0  0  0  0  0  0  0
    6.8420   -0.0939   -0.1539 C   0  0  0  0  0  0  0  0  0  0  0  0
    5.7322   -0.9226   -0.0297 C   0  0  0  0  0  0  0  0  0  0  0  0
    4.6528   -0.4435    0.7212 C   0  0  0  0  0  0  0  0  0  0  0  0
    3.4446   -1.0059    1.0521 N   0  0  0  0  0  0  0  0  0  0  0  0
    2.9709   -2.3167    0.7063 C   0  0  0  0  0  0  0  0  0  0  0  0
    3.6158   -3.4831    1.2202 C   0  0  0  0  0  0  0  0  0  0  0  0
    3.2016   -4.7436    0.8438 C   0  0  0  0  0  0  0  0  0  0  0  0
    2.1111   -4.9155   -0.0836 C   0  0  0  0  0  0  0  0  0  0  0  0
    1.4882   -3.7510   -0.6035 C   0  0  0  0  0  0  0  0  0  0  0  0
    1.8883   -2.4781   -0.2438 C   0  0  0  0  0  0  0  0  0  0  0  0
    1.1433    0.5369    3.0118 H   0  0  0  0  0  0  0  0  0  0  0  0
    1.3967   -1.2473    2.8811 H   0  0  0  0  0  0  0  0  0  0  0  0
    0.6629   -0.3721    1.5408 H   0  0  0  0  0  0  0  0  0  0  0  0
    5.7699    2.6981    1.5714 H   0  0  0  0  0  0  0  0  0  0  0  0
    8.8201   -0.2126    1.3745 H   0  0  0  0  0  0  0  0  0  0  0  0
   10.3787    0.5065    1.8968 H   0  0  0  0  0  0  0  0  0  0  0  0
    9.8398   -0.8870   -0.7844 H   0  0  0  0  0  0  0  0  0  0  0  0
   10.8771   -1.4952    0.5430 H   0  0  0  0  0  0  0  0  0  0  0  0
   12.9939   -0.9159    0.6470 H   0  0  0  0  0  0  0  0  0  0  0  0
   12.9859    0.8384    0.9284 H   0  0  0  0  0  0  0  0  0  0  0  0
   13.5629   -2.3078   -1.1651 H   0  0  0  0  0  0  0  0  0  0  0  0
   15.1924   -2.5123   -0.4969 H   0  0  0  0  0  0  0  0  0  0  0  0
   14.5921   -2.3274   -3.5006 H   0  0  0  0  0  0  0  0  0  0  0  0
   14.5406   -3.8498   -2.6258 H   0  0  0  0  0  0  0  0  0  0  0  0
   16.7033   -3.3890   -3.8820 H   0  0  0  0  0  0  0  0  0  0  0  0
   16.8896   -3.8972   -2.2077 H   0  0  0  0  0  0  0  0  0  0  0  0
   18.3995   -1.9705   -3.0129 H   0  0  0  0  0  0  0  0  0  0  0  0
   17.6031   -1.7395   -1.4665 H   0  0  0  0  0  0  0  0  0  0  0  0
   16.4167   -0.6311   -4.0786 H   0  0  0  0  0  0  0  0  0  0  0  0
   17.5746    0.2790   -3.1177 H   0  0  0  0  0  0  0  0  0  0  0  0
   10.6168    1.1900   -2.0124 H   0  0  0  0  0  0  0  0  0  0  0  0
   12.1805    1.9160   -1.4757 H   0  0  0  0  0  0  0  0  0  0  0  0
   10.1121    3.1950   -0.6160 H   0  0  0  0  0  0  0  0  0  0  0  0
   11.1857    2.5711    0.6733 H   0  0  0  0  0  0  0  0  0  0  0  0
    7.6699   -0.4232   -0.7858 H   0  0  0  0  0  0  0  0  0  0  0  0
    5.6870   -1.9051   -0.5018 H   0  0  0  0  0  0  0  0  0  0  0  0
    4.4333   -3.3665    1.9387 H   0  0  0  0  0  0  0  0  0  0  0  0
    3.6982   -5.6205    1.2692 H   0  0  0  0  0  0  0  0  0  0  0  0
    1.7792   -5.9102   -0.3816 H   0  0  0  0  0  0  0  0  0  0  0  0
    0.6662   -3.8597   -1.3196 H   0  0  0  0  0  0  0  0  0  0  0  0
    1.4083   -1.5987   -0.6794 H   0  0  0  0  0  0  0  0  0  0  0  0
  1  2  1  0
  1 36  1  0
  1 37  1  0
  1 38  1  0
  2  3  2  0
  2 29  1  0
  3  4  1  0
  4  5  2  0
  4 28  1  0
  5  6  1  0
  5 39  1  0
  6  7  1  0
  6 26  2  0
  7  8  2  0
  7  9  1  0
  9 10  1  0
  9 25  1  0
 10 11  1  0
 10 40  1  0
 10 41  1  0
 11 12  1  0
 11 42  1  0
 11 43  1  0
 12 13  1  0
 12 24  1  0
 13 14  1  0
 13 44  1  0
 13 45  1  0
 14 15  2  0
 14 18  1  0
 15 16  1  0
 16 17  2  0
 17 18  1  0
 17 23  1  0
 18 19  1  0
 19 20  1  0
 19 46  1  0
 19 47  1  0
 20 21  1  0
 20 48  1  0
 20 49  1  0
 21 22  1  0
 21 50  1  0
 21 51  1  0
 22 23  1  0
 22 52  1  0
 22 53  1  0
 23 54  1  0
 23 55  1  0
 24 25  1  0
 24 56  1  0
 24 57  1  0
 25 58  1  0
 25 59  1  0
 26 27  1  0
 26 60  1  0
 27 28  2  0
 27 61  1  0
 28 29  1  0
 29 30  1  0
 30 31  2  0
 30 35  1  0
 31 32  1  0
 31 62  1  0
 32 33  2  0
 32 63  1  0
 33 34  1  0
 33 64  1  0
 34 35  2  0
 34 65  1  0
 35 66  1  0
M  END

