
     RDKit          3D

 68 76  0  0  0  0  0  0  0  0999 V2000
   -2.2833   -8.2652    0.3885 O   0  0  0  0  0  0  0  0  0  0  0  0
   -1.6190   -9.2901    0.4651 C   0  0  0  0  0  0  0  0  0  0  0  0
   -2.1423  -10.5283    0.8383 N   0  0  0  0  0  0  0  0  0  0  0  0
   -1.3176  -11.6254    0.8960 C   0  0  0  0  0  0  0  0  0  0  0  0
   -1.7514  -13.1513    1.3100 S   0  0  0  0  0  0  0  0  0  0  0  0
    0.3257  -11.1250    0.4425 S   0  0  0  0  0  0  0  0  0  0  0  0
   -0.1890   -9.4463    0.1959 C   0  0  0  0  0  0  0  0  0  0  0  0
    0.5924   -8.3908   -0.1929 C   0  0  0  0  0  0  0  0  0  0  0  0
    0.1216   -7.1198   -0.3633 N   0  0  0  0  0  0  0  0  0  0  0  0
   -0.8726   -6.9392   -0.1922 H   0  0  0  0  0  0  0  0  0  0  0  0
    1.0227   -6.1356   -0.7631 C   0  0  0  0  0  0  0  0  0  0  0  0
    0.7290   -4.9761   -0.9487 O   0  0  0  0  0  0  0  0  0  0  0  0
    2.3773   -6.7481   -0.9201 C   0  0  0  0  0  0  0  0  0  0  0  0
    3.4291   -5.9870   -1.3122 C   0  0  0  0  0  0  0  0  0  0  0  0
    4.8287   -6.2913   -1.5500 C   0  0  0  0  0  0  0  0  0  0  0  0
    5.4099   -7.5765   -1.3622 C   0  0  0  0  0  0  0  0  0  0  0  0
    6.7541   -7.8245   -1.6098 C   0  0  0  0  0  0  0  0  0  0  0  0
    7.5530   -6.7643   -2.0640 C   0  0  0  0  0  0  0  0  0  0  0  0
    7.0093   -5.4617   -2.2480 C   0  0  0  0  0  0  0  0  0  0  0  0
    5.6574   -5.2378   -1.9920 C   0  0  0  0  0  0  0  0  0  0  0  0
    8.1008   -4.6127   -2.6883 C   0  0  0  0  0  0  0  0  0  0  0  0
    8.1949   -3.2586   -3.0393 C   0  0  0  0  0  0  0  0  0  0  0  0
    9.4261   -2.7502   -3.4505 C   0  0  0  0  0  0  0  0  0  0  0  0
   10.5587   -3.5831   -3.5195 C   0  0  0  0  0  0  0  0  0  0  0  0
   10.4917   -4.9339   -3.1748 C   0  0  0  0  0  0  0  0  0  0  0  0
    9.2557   -5.4363   -2.7515 C   0  0  0  0  0  0  0  0  0  0  0  0
    8.9085   -6.7403   -2.3686 N   0  0  0  0  0  0  0  0  0  0  0  0
    9.7952   -7.8502   -2.3085 C   0  0  0  0  0  0  0  0  0  0  0  0
   10.9260   -7.8087   -1.4798 C   0  0  0  0  0  0  0  0  0  0  0  0
   11.8067   -8.8888   -1.4359 C   0  0  0  0  0  0  0  0  0  0  0  0
   11.5539  -10.0441   -2.1930 C   0  0  0  0  0  0  0  0  0  0  0  0
   12.4400  -11.1470   -2.1368 N   0  0  0  0  0  0  0  0  0  0  0  0
   12.8387  -11.8200   -0.9744 C   0  0  0  0  0  0  0  0  0  0  0  0
   12.4558  -11.6084    0.3562 C   0  0  0  0  0  0  0  0  0  0  0  0
   12.9944  -12.4496    1.3312 C   0  0  0  0  0  0  0  0  0  0  0  0
   13.8895  -13.4826    0.9964 C   0  0  0  0  0  0  0  0  0  0  0  0
   14.2568  -13.6987   -0.3310 C   0  0  0  0  0  0  0  0  0  0  0  0
   13.7299  -12.8677   -1.3302 C   0  0  0  0  0  0  0  0  0  0  0  0
   13.8771  -12.8222   -2.7723 C   0  0  0  0  0  0  0  0  0  0  0  0
   14.6221  -13.5745   -3.6917 C   0  0  0  0  0  0  0  0  0  0  0  0
   14.5575  -13.2504   -5.0462 C   0  0  0  0  0  0  0  0  0  0  0  0
   13.7619  -12.1767   -5.4871 C   0  0  0  0  0  0  0  0  0  0  0  0
   13.0103  -11.4125   -4.5929 C   0  0  0  0  0  0  0  0  0  0  0  0
   13.0670  -11.7505   -3.2348 C   0  0  0  0  0  0  0  0  0  0  0  0
   10.4115  -10.0901   -3.0080 C   0  0  0  0  0  0  0  0  0  0  0  0
    9.5494   -8.9963   -3.0787 C   0  0  0  0  0  0  0  0  0  0  0  0
    2.3192   -8.4804   -0.5381 S   0  0  0  0  0  0  0  0  0  0  0  0
   -3.1281  -10.6246    1.0680 H   0  0  0  0  0  0  0  0  0  0  0  0
    3.1373   -4.9432   -1.4782 H   0  0  0  0  0  0  0  0  0  0  0  0
    4.7982   -8.4059   -1.0062 H   0  0  0  0  0  0  0  0  0  0  0  0
    7.1711   -8.8195   -1.4489 H   0  0  0  0  0  0  0  0  0  0  0  0
    5.2294   -4.2419   -2.1313 H   0  0  0  0  0  0  0  0  0  0  0  0
    7.3149   -2.6121   -2.9947 H   0  0  0  0  0  0  0  0  0  0  0  0
    9.5144   -1.6970   -3.7265 H   0  0  0  0  0  0  0  0  0  0  0  0
   11.5124   -3.1662   -3.8525 H   0  0  0  0  0  0  0  0  0  0  0  0
   11.3736   -5.5730   -3.2390 H   0  0  0  0  0  0  0  0  0  0  0  0
   11.1170   -6.9215   -0.8730 H   0  0  0  0  0  0  0  0  0  0  0  0
   12.6990   -8.8409   -0.8094 H   0  0  0  0  0  0  0  0  0  0  0  0
   11.7543  -10.8184    0.6284 H   0  0  0  0  0  0  0  0  0  0  0  0
   12.7101  -12.3020    2.3762 H   0  0  0  0  0  0  0  0  0  0  0  0
   14.2938  -14.1223    1.7843 H   0  0  0  0  0  0  0  0  0  0  0  0
   14.9435  -14.5080   -0.5915 H   0  0  0  0  0  0  0  0  0  0  0  0
   15.2485  -14.4019   -3.3491 H   0  0  0  0  0  0  0  0  0  0  0  0
   15.1321  -13.8299   -5.7725 H   0  0  0  0  0  0  0  0  0  0  0  0
   13.7316  -11.9314   -6.5517 H   0  0  0  0  0  0  0  0  0  0  0  0
   12.4055  -10.5764   -4.9472 H   0  0  0  0  0  0  0  0  0  0  0  0
   10.2025  -10.9892   -3.5902 H   0  0  0  0  0  0  0  0  0  0  0  0
    8.6755   -9.0300   -3.7323 H   0  0  0  0  0  0  0  0  0  0  0  0
  1  2  2  0
  2  3  1  0
  2  7  1  0
  3  4  1  0
  3 48  1  0
  4  5  2  0
  4  6  1  0
  6  7  1  0
  7  8  2  0
  8  9  1  0
  8 47  1  0
  9 10  1  0
  9 11  1  0
 11 12  2  0
 11 13  1  0
 13 14  2  0
 13 47  1  0
 14 15  1  0
 14 49  1  0
 15 16  2  0
 15 20  1  0
 16 17  1  0
 16 50  1  0
 17 18  2  0
 17 51  1  0
 18 19  1  0
 18 27  1  0
 19 20  2  0
 19 21  1  0
 20 52  1  0
 21 22  2  0
 21 26  1  0
 22 23  1  0
 22 53  1  0
 23 24  2  0
 23 54  1  0
 24 25  1  0
 24 55  1  0
 25 26  2  0
 25 56  1  0
 26 27  1  0
 27 28  1  0
 28 29  2  0
 28 46  1  0
 29 30  1  0
 29 57  1  0
 30 31  2  0
 30 58  1  0
 31 32  1  0
 31 45  1  0
 32 33  1  0
 32 44  1  0
 33 34  2  0
 33 38  1  0
 34 35  1  0
 34 59  1  0
 35 36  2  0
 35 60  1  0
 36 37  1  0
 36 61  1  0
 37 38  2  0
 37 62  1  0
 38 39  1  0
 39 40  1  0
 39 44  2  0
 40 41  2  0
 40 63  1  0
 41 42  1  0
 41 64  1  0
 42 43  2  0
 42 65  1  0
 43 44  1  0
 43 66  1  0
 45 46  2  0
 45 67  1  0
 46 68  1  0
M  END

