
     RDKit          3D

 44 47  0  0  0  0  0  0  0  0999 V2000
    1.5772    0.2488   -0.0166 C   0  0  0  0  0  0  0  0  0  0  0  0
    3.0187   -0.1492   -0.1864 C   0  0  0  0  0  0  0  0  0  0  0  0
    4.0183    0.7886   -0.3524 C   0  0  0  0  0  0  0  0  0  0  0  0
    5.3847    0.4088   -0.5273 C   0  0  0  0  0  0  0  0  0  0  0  0
    5.7184   -0.9902   -0.4798 C   0  0  0  0  0  0  0  0  0  0  0  0
    4.7327   -1.9519   -0.2960 C   0  0  0  0  0  0  0  0  0  0  0  0
    3.3558   -1.5515   -0.1724 C   0  0  0  0  0  0  0  0  0  0  0  0
    5.0459   -3.4590   -0.3555 C   0  0  2  0  0  0  0  0  0  0  0  0
    4.2185   -4.2652    0.7017 C   0  0  0  0  0  0  0  0  0  0  0  0
    5.0107   -5.3884    1.3795 C   0  0  0  0  0  0  0  0  0  0  0  0
    6.2465   -4.8439    2.1250 C   0  0  0  0  0  0  0  0  0  0  0  0
    6.9338   -3.6880    1.3526 C   0  0  0  0  0  0  0  0  0  0  0  0
    6.5523   -3.7545   -0.1283 C   0  0  2  0  0  0  0  0  0  0  0  0
    6.7560   -4.7878   -0.4653 H   0  0  0  0  0  0  0  0  0  0  0  0
    7.3817   -2.8346   -1.0295 C   0  0  2  0  0  0  0  0  0  0  0  0
    8.4528   -3.0879   -0.9656 H   0  0  0  0  0  0  0  0  0  0  0  0
    7.1693   -1.3553   -0.6742 C   0  0  0  0  0  0  0  0  0  0  0  0
    7.0039   -3.0837   -2.4351 N   0  0  0  0  0  0  0  0  0  0  0  0
    8.0168   -3.0736   -3.4523 C   0  0  0  0  0  0  0  0  0  0  0  0
    5.6043   -3.2213   -2.8182 C   0  0  0  0  0  0  0  0  0  0  0  0
    4.7450   -3.9626   -1.7873 C   0  0  0  0  0  0  0  0  0  0  0  0
    1.4430    1.3414   -0.0520 H   0  0  0  0  0  0  0  0  0  0  0  0
    1.1668   -0.1124    0.9469 H   0  0  0  0  0  0  0  0  0  0  0  0
    0.9367   -0.1974   -0.8030 H   0  0  0  0  0  0  0  0  0  0  0  0
    3.7551    1.8524   -0.3579 H   0  0  0  0  0  0  0  0  0  0  0  0
    6.1690    1.1606   -0.6314 H   0  0  0  0  0  0  0  0  0  0  0  0
    2.5656   -2.2889   -0.0276 H   0  0  0  0  0  0  0  0  0  0  0  0
    3.3071   -4.6727    0.2352 H   0  0  0  0  0  0  0  0  0  0  0  0
    3.8712   -3.5596    1.4699 H   0  0  0  0  0  0  0  0  0  0  0  0
    5.3227   -6.1387    0.6312 H   0  0  0  0  0  0  0  0  0  0  0  0
    4.3602   -5.9314    2.0847 H   0  0  0  0  0  0  0  0  0  0  0  0
    6.9608   -5.6656    2.3024 H   0  0  0  0  0  0  0  0  0  0  0  0
    5.9458   -4.4804    3.1209 H   0  0  0  0  0  0  0  0  0  0  0  0
    8.0292   -3.7379    1.4786 H   0  0  0  0  0  0  0  0  0  0  0  0
    6.6101   -2.7162    1.7534 H   0  0  0  0  0  0  0  0  0  0  0  0
    7.6258   -0.7143   -1.4531 H   0  0  0  0  0  0  0  0  0  0  0  0
    7.7788   -1.1751    0.2319 H   0  0  0  0  0  0  0  0  0  0  0  0
    7.6022   -2.7263   -4.4078 H   0  0  0  0  0  0  0  0  0  0  0  0
    8.3914   -4.1062   -3.5961 H   0  0  0  0  0  0  0  0  0  0  0  0
    8.8615   -2.4428   -3.1478 H   0  0  0  0  0  0  0  0  0  0  0  0
    5.5701   -3.6835   -3.8165 H   0  0  0  0  0  0  0  0  0  0  0  0
    5.2389   -2.1819   -2.9072 H   0  0  0  0  0  0  0  0  0  0  0  0
    4.9202   -5.0507   -1.8698 H   0  0  0  0  0  0  0  0  0  0  0  0
    3.6949   -3.7719   -2.0482 H   0  0  0  0  0  0  0  0  0  0  0  0
  1  2  1  0
  1 22  1  0
  1 23  1  0
  1 24  1  0
  2  3  2  0
  2  7  1  0
  3  4  1  0
  3 25  1  0
  4  5  2  0
  4 26  1  0
  5  6  1  0
  5 17  1  0
  6  7  2  0
  6  8  1  0
  7 27  1  0
  8  9  1  1
  8 13  1  0
  8 21  1  0
  9 10  1  0
  9 28  1  0
  9 29  1  0
 10 11  1  0
 10 30  1  0
 10 31  1  0
 11 12  1  0
 11 32  1  0
 11 33  1  0
 12 13  1  0
 12 34  1  0
 12 35  1  0
 13 14  1  6
 13 15  1  0
 15 16  1  6
 15 17  1  0
 15 18  1  0
 17 36  1  0
 17 37  1  0
 18 19  1  0
 18 20  1  0
 19 38  1  0
 19 39  1  0
 19 40  1  0
 20 21  1  0
 20 41  1  0
 20 42  1  0
 21 43  1  0
 21 44  1  0
M  END

