
     RDKit          3D

 52 58  0  0  0  0  0  0  0  0999 V2000
    1.1613   -0.1538   -1.1220 Br  0  0  0  0  0  0  0  0  0  0  0  0
    3.0531   -0.1747   -0.8710 C   0  0  0  0  0  0  0  0  0  0  0  0
    3.7578    1.0124   -1.0636 C   0  0  0  0  0  0  0  0  0  0  0  0
    5.1524    1.0384   -0.8926 C   0  0  0  0  0  0  0  0  0  0  0  0
    5.8623   -0.1020   -0.5228 C   0  0  0  0  0  0  0  0  0  0  0  0
    5.1387   -1.2833   -0.3231 C   0  0  0  0  0  0  0  0  0  0  0  0
    3.7244   -1.3528   -0.5005 C   0  0  0  0  0  0  0  0  0  0  0  0
    3.3409   -2.7293   -0.2379 C   0  0  0  0  0  0  0  0  0  0  0  0
    2.1223   -3.4253   -0.2503 C   0  0  0  0  0  0  0  0  0  0  0  0
    2.1058   -4.7820    0.0850 C   0  0  0  0  0  0  0  0  0  0  0  0
    0.8750   -5.4979    0.0946 N   0  0  0  0  0  0  0  0  0  0  0  0
   -0.2200   -5.2303    0.9197 C   0  0  0  0  0  0  0  0  0  0  0  0
   -0.3761   -4.2407    1.8987 C   0  0  0  0  0  0  0  0  0  0  0  0
   -1.5829   -4.2011    2.5980 C   0  0  0  0  0  0  0  0  0  0  0  0
   -2.6141   -5.1236    2.3365 C   0  0  0  0  0  0  0  0  0  0  0  0
   -2.4516   -6.1119    1.3667 C   0  0  0  0  0  0  0  0  0  0  0  0
   -1.2480   -6.1750    0.6492 C   0  0  0  0  0  0  0  0  0  0  0  0
   -0.7443   -7.0522   -0.3897 C   0  0  0  0  0  0  0  0  0  0  0  0
   -1.2795   -8.1526   -1.0750 C   0  0  0  0  0  0  0  0  0  0  0  0
   -0.5141   -8.7810   -2.0566 C   0  0  0  0  0  0  0  0  0  0  0  0
    0.7789   -8.3154   -2.3630 C   0  0  0  0  0  0  0  0  0  0  0  0
    1.3358   -7.2230   -1.6969 C   0  0  0  0  0  0  0  0  0  0  0  0
    0.5672   -6.6006   -0.7044 C   0  0  0  0  0  0  0  0  0  0  0  0
    3.3019   -5.4499    0.4263 C   0  0  0  0  0  0  0  0  0  0  0  0
    4.5258   -4.7866    0.4220 C   0  0  0  0  0  0  0  0  0  0  0  0
    4.5379   -3.4270    0.0861 C   0  0  0  0  0  0  0  0  0  0  0  0
    5.6146   -2.5446    0.0324 N   0  0  0  0  0  0  0  0  0  0  0  0
    6.9749   -2.8751    0.2942 C   0  0  0  0  0  0  0  0  0  0  0  0
    7.6348   -3.8202   -0.5047 C   0  0  0  0  0  0  0  0  0  0  0  0
    8.9663   -4.1493   -0.2394 C   0  0  0  0  0  0  0  0  0  0  0  0
    9.6507   -3.5271    0.8094 C   0  0  0  0  0  0  0  0  0  0  0  0
    8.9948   -2.5786    1.6002 C   0  0  0  0  0  0  0  0  0  0  0  0
    7.6582   -2.2575    1.3520 C   0  0  0  0  0  0  0  0  0  0  0  0
    3.2219    1.9182   -1.3501 H   0  0  0  0  0  0  0  0  0  0  0  0
    5.6882    1.9766   -1.0557 H   0  0  0  0  0  0  0  0  0  0  0  0
    6.9452   -0.0759   -0.3966 H   0  0  0  0  0  0  0  0  0  0  0  0
    1.1952   -2.9207   -0.5185 H   0  0  0  0  0  0  0  0  0  0  0  0
    0.4186   -3.5230    2.1086 H   0  0  0  0  0  0  0  0  0  0  0  0
   -1.7281   -3.4364    3.3655 H   0  0  0  0  0  0  0  0  0  0  0  0
   -3.5475   -5.0633    2.9013 H   0  0  0  0  0  0  0  0  0  0  0  0
   -3.2510   -6.8306    1.1684 H   0  0  0  0  0  0  0  0  0  0  0  0
   -2.2859   -8.5111   -0.8437 H   0  0  0  0  0  0  0  0  0  0  0  0
   -0.9200   -9.6396   -2.5968 H   0  0  0  0  0  0  0  0  0  0  0  0
    1.3601   -8.8171   -3.1412 H   0  0  0  0  0  0  0  0  0  0  0  0
    2.3362   -6.8641   -1.9446 H   0  0  0  0  0  0  0  0  0  0  0  0
    3.2563   -6.5050    0.7034 H   0  0  0  0  0  0  0  0  0  0  0  0
    5.4441   -5.3114    0.6891 H   0  0  0  0  0  0  0  0  0  0  0  0
    7.1011   -4.2873   -1.3350 H   0  0  0  0  0  0  0  0  0  0  0  0
    9.4745   -4.8880   -0.8641 H   0  0  0  0  0  0  0  0  0  0  0  0
   10.6942   -3.7813    1.0103 H   0  0  0  0  0  0  0  0  0  0  0  0
    9.5225   -2.0925    2.4245 H   0  0  0  0  0  0  0  0  0  0  0  0
    7.1350   -1.5327    1.9792 H   0  0  0  0  0  0  0  0  0  0  0  0
  1  2  1  0
  2  3  2  0
  2  7  1  0
  3  4  1  0
  3 34  1  0
  4  5  2  0
  4 35  1  0
  5  6  1  0
  5 36  1  0
  6  7  2  0
  6 27  1  0
  7  8  1  0
  8  9  2  0
  8 26  1  0
  9 10  1  0
  9 37  1  0
 10 11  1  0
 10 24  2  0
 11 12  1  0
 11 23  1  0
 12 13  2  0
 12 17  1  0
 13 14  1  0
 13 38  1  0
 14 15  2  0
 14 39  1  0
 15 16  1  0
 15 40  1  0
 16 17  2  0
 16 41  1  0
 17 18  1  0
 18 19  1  0
 18 23  2  0
 19 20  2  0
 19 42  1  0
 20 21  1  0
 20 43  1  0
 21 22  2  0
 21 44  1  0
 22 23  1  0
 22 45  1  0
 24 25  1  0
 24 46  1  0
 25 26  2  0
 25 47  1  0
 26 27  1  0
 27 28  1  0
 28 29  2  0
 28 33  1  0
 29 30  1  0
 29 48  1  0
 30 31  2  0
 30 49  1  0
 31 32  1  0
 31 50  1  0
 32 33  2  0
 32 51  1  0
 33 52  1  0
M  END

