
     RDKit          3D

 31 32  0  0  0  0  0  0  0  0999 V2000
    3.0445   -1.4912   -0.0839 N   0  0  0  0  0  0  0  0  0  0  0  0
    2.5004   -0.1332   -0.0881 C   0  0  1  0  0  0  0  0  0  0  0  0
    2.9381    0.6951   -1.3055 C   0  0  0  0  0  0  0  0  0  0  0  0
    2.5242    0.0356   -2.4817 O   0  0  0  0  0  0  0  0  0  0  0  0
    2.8971    0.6850   -3.6696 C   0  0  0  0  0  0  0  0  0  0  0  0
    2.4165   -0.0765   -4.8846 C   0  0  0  0  0  0  0  0  0  0  0  0
    1.4001   -1.0361   -4.7922 C   0  0  0  0  0  0  0  0  0  0  0  0
    0.9503   -1.7036   -5.9363 C   0  0  0  0  0  0  0  0  0  0  0  0
    1.5065   -1.4176   -7.1858 C   0  0  0  0  0  0  0  0  0  0  0  0
    2.5222   -0.4606   -7.2854 C   0  0  0  0  0  0  0  0  0  0  0  0
    2.9749    0.2009   -6.1419 C   0  0  0  0  0  0  0  0  0  0  0  0
    0.9854   -0.1699    0.0383 C   0  0  1  0  0  0  0  0  0  0  0  0
    0.3501   -0.4736    1.3641 C   0  0  0  0  0  0  0  0  0  0  0  0
    0.2549    0.9183    0.7867 C   0  0  0  0  0  0  0  0  0  0  0  0
    4.0654   -1.4571   -0.0862 H   0  0  0  0  0  0  0  0  0  0  0  0
    2.7850   -1.9476   -0.9604 H   0  0  0  0  0  0  0  0  0  0  0  0
    2.8987    0.3880    0.8019 H   0  0  0  0  0  0  0  0  0  0  0  0
    4.0442    0.8051   -1.3027 H   0  0  0  0  0  0  0  0  0  0  0  0
    2.5072    1.7169   -1.2578 H   0  0  0  0  0  0  0  0  0  0  0  0
    4.0005    0.8035   -3.7190 H   0  0  0  0  0  0  0  0  0  0  0  0
    2.4773    1.7150   -3.6887 H   0  0  0  0  0  0  0  0  0  0  0  0
    0.9686   -1.2595   -3.8157 H   0  0  0  0  0  0  0  0  0  0  0  0
    0.1588   -2.4528   -5.8489 H   0  0  0  0  0  0  0  0  0  0  0  0
    1.1539   -1.9401   -8.0787 H   0  0  0  0  0  0  0  0  0  0  0  0
    2.9683   -0.2335   -8.2573 H   0  0  0  0  0  0  0  0  0  0  0  0
    3.7764    0.9417   -6.2271 H   0  0  0  0  0  0  0  0  0  0  0  0
    0.4821   -0.5662   -0.8504 H   0  0  0  0  0  0  0  0  0  0  0  0
    1.0195   -0.6363    2.2141 H   0  0  0  0  0  0  0  0  0  0  0  0
   -0.5498   -1.0949    1.3821 H   0  0  0  0  0  0  0  0  0  0  0  0
    0.8505    1.7087    1.2554 H   0  0  0  0  0  0  0  0  0  0  0  0
   -0.7092    1.2609    0.3997 H   0  0  0  0  0  0  0  0  0  0  0  0
  1  2  1  0
  1 15  1  0
  1 16  1  0
  2  3  1  0
  2 12  1  0
  2 17  1  1
  3  4  1  0
  3 18  1  0
  3 19  1  0
  4  5  1  0
  5  6  1  0
  5 20  1  0
  5 21  1  0
  6  7  2  0
  6 11  1  0
  7  8  1  0
  7 22  1  0
  8  9  2  0
  8 23  1  0
  9 10  1  0
  9 24  1  0
 10 11  2  0
 10 25  1  0
 11 26  1  0
 12 13  1  0
 12 14  1  0
 12 27  1  6
 13 14  1  0
 13 28  1  0
 13 29  1  0
 14 30  1  0
 14 31  1  0
M  END

