
     RDKit          3D

 71 72  0  0  0  0  0  0  0  0999 V2000
    2.9559   -3.0028   -0.1128 C   0  0  0  0  0  0  0  0  0  0  0  0
    2.3205   -2.5951   -1.4466 C   0  0  1  0  0  0  0  0  0  0  0  0
    2.2365   -3.7703   -2.4267 C   0  0  0  0  0  0  0  0  0  0  0  0
    0.9385   -1.9781   -1.2213 C   0  0  0  0  0  0  0  0  0  0  0  0
    3.0755   -1.4938   -2.0465 O   0  0  0  0  0  0  0  0  0  0  0  0
    4.3730   -1.6297   -2.4031 C   0  0  0  0  0  0  0  0  0  0  0  0
    5.0499   -2.6310   -2.2780 O   0  0  0  0  0  0  0  0  0  0  0  0
    4.8287   -0.4524   -2.9270 N   0  0  0  0  0  0  0  0  0  0  0  0
    6.1779   -0.3016   -3.4272 C   0  0  0  0  0  0  0  0  0  0  0  0
    6.3147   -0.6628   -4.9061 C   0  0  0  0  0  0  0  0  0  0  0  0
    7.6414   -0.4100   -5.2922 O   0  0  0  0  0  0  0  0  0  0  0  0
    7.9395   -0.7472   -6.6234 C   0  0  0  0  0  0  0  0  0  0  0  0
    9.4004   -0.4158   -6.8779 C   0  0  0  0  0  0  0  0  0  0  0  0
    9.6958   -0.7453   -8.2111 O   0  0  0  0  0  0  0  0  0  0  0  0
   11.0256   -0.4961   -8.5915 C   0  0  0  0  0  0  0  0  0  0  0  0
   11.1802   -0.8913  -10.0504 C   0  0  0  0  0  0  0  0  0  0  0  0
   12.5118   -0.6538  -10.4285 O   0  0  0  0  0  0  0  0  0  0  0  0
   12.7969   -0.9449  -11.7741 C   0  0  0  0  0  0  0  0  0  0  0  0
   14.2570   -0.5785  -12.0399 C   0  0  0  0  0  0  0  0  0  0  0  0
   14.6834   -0.8924  -13.3882 N   0  0  0  0  0  0  0  0  0  0  0  0
   14.4757   -0.0231  -14.4307 C   0  0  0  0  0  0  0  0  0  0  0  0
   13.9342    1.0646  -14.2600 O   0  0  0  0  0  0  0  0  0  0  0  0
   14.9410   -0.4642  -15.7792 C   0  0  0  0  0  0  0  0  0  0  0  0
   14.5550    0.3175  -16.8872 C   0  0  0  0  0  0  0  0  0  0  0  0
   14.9291   -0.0165  -18.1740 C   0  0  0  0  0  0  0  0  0  0  0  0
   15.7366   -1.1735  -18.4579 C   0  0  0  0  0  0  0  0  0  0  0  0
   16.0795   -1.5395  -19.7903 C   0  0  0  0  0  0  0  0  0  0  0  0
   15.3494   -0.8464  -20.8237 N   0  0  0  0  0  0  0  0  0  0  0  0
   14.6044   -0.2415  -20.4995 H   0  0  0  0  0  0  0  0  0  0  0  0
   15.5010   -1.0179  -22.1221 C   0  0  0  0  0  0  0  0  0  0  0  0
   14.5295   -0.1551  -23.3027 S   0  0  0  0  0  0  0  0  0  0  0  0
   16.4046   -1.8801  -22.5556 N   0  0  0  0  0  0  0  0  0  0  0  0
   16.5630   -2.0270  -23.5496 H   0  0  0  0  0  0  0  0  0  0  0  0
   17.2461   -2.7129  -21.6856 C   0  0  0  0  0  0  0  0  0  0  0  0
   18.0111   -3.4621  -22.2466 O   0  0  0  0  0  0  0  0  0  0  0  0
   17.0289   -2.4866  -20.2832 C   0  0  0  0  0  0  0  0  0  0  0  0
   17.8868   -3.2521  -19.4453 C   0  0  0  0  0  0  0  0  0  0  0  0
   18.6041   -3.8927  -18.7901 N   0  0  0  0  0  0  0  0  0  0  0  0
   16.1547   -1.9315  -17.3145 C   0  0  0  0  0  0  0  0  0  0  0  0
   15.7663   -1.5832  -16.0342 C   0  0  0  0  0  0  0  0  0  0  0  0
    2.3252   -3.7552    0.3861 H   0  0  0  0  0  0  0  0  0  0  0  0
    3.0378   -2.1299    0.5539 H   0  0  0  0  0  0  0  0  0  0  0  0
    3.9566   -3.4254   -0.2674 H   0  0  0  0  0  0  0  0  0  0  0  0
    1.5768   -4.5509   -2.0165 H   0  0  0  0  0  0  0  0  0  0  0  0
    3.2283   -4.2040   -2.6066 H   0  0  0  0  0  0  0  0  0  0  0  0
    1.8141   -3.4376   -3.3881 H   0  0  0  0  0  0  0  0  0  0  0  0
    0.2608   -2.7152   -0.7645 H   0  0  0  0  0  0  0  0  0  0  0  0
    0.5016   -1.6469   -2.1758 H   0  0  0  0  0  0  0  0  0  0  0  0
    1.0083   -1.1065   -0.5529 H   0  0  0  0  0  0  0  0  0  0  0  0
    4.1614    0.3031   -3.0217 H   0  0  0  0  0  0  0  0  0  0  0  0
    6.8427   -0.9510   -2.8399 H   0  0  0  0  0  0  0  0  0  0  0  0
    6.5087    0.7388   -3.2795 H   0  0  0  0  0  0  0  0  0  0  0  0
    5.6028   -0.0622   -5.5127 H   0  0  0  0  0  0  0  0  0  0  0  0
    6.0507   -1.7298   -5.0511 H   0  0  0  0  0  0  0  0  0  0  0  0
    7.3041   -0.1824   -7.3365 H   0  0  0  0  0  0  0  0  0  0  0  0
    7.7660   -1.8255   -6.8163 H   0  0  0  0  0  0  0  0  0  0  0  0
   10.0367   -0.9843   -6.1690 H   0  0  0  0  0  0  0  0  0  0  0  0
    9.5745    0.6616   -6.6786 H   0  0  0  0  0  0  0  0  0  0  0  0
   11.7390   -1.0782   -7.9728 H   0  0  0  0  0  0  0  0  0  0  0  0
   11.2878    0.5747   -8.4693 H   0  0  0  0  0  0  0  0  0  0  0  0
   10.4726   -0.3028  -10.6694 H   0  0  0  0  0  0  0  0  0  0  0  0
   10.9081   -1.9601  -10.1735 H   0  0  0  0  0  0  0  0  0  0  0  0
   12.1444   -0.3648  -12.4561 H   0  0  0  0  0  0  0  0  0  0  0  0
   12.6285   -2.0224  -11.9892 H   0  0  0  0  0  0  0  0  0  0  0  0
   14.9003   -1.1090  -11.3198 H   0  0  0  0  0  0  0  0  0  0  0  0
   14.3833    0.5013  -11.8793 H   0  0  0  0  0  0  0  0  0  0  0  0
   14.9898   -1.8353  -13.5872 H   0  0  0  0  0  0  0  0  0  0  0  0
   13.9586    1.2108  -16.6931 H   0  0  0  0  0  0  0  0  0  0  0  0
   14.6325    0.6810  -18.9619 H   0  0  0  0  0  0  0  0  0  0  0  0
   16.7816   -2.8101  -17.4407 H   0  0  0  0  0  0  0  0  0  0  0  0
   16.1380   -2.2008  -15.2125 H   0  0  0  0  0  0  0  0  0  0  0  0
  1  2  1  0
  1 41  1  0
  1 42  1  0
  1 43  1  0
  2  3  1  0
  2  4  1  0
  2  5  1  6
  3 44  1  0
  3 45  1  0
  3 46  1  0
  4 47  1  0
  4 48  1  0
  4 49  1  0
  5  6  1  0
  6  7  2  0
  6  8  1  0
  8  9  1  0
  8 50  1  0
  9 10  1  0
  9 51  1  0
  9 52  1  0
 10 11  1  0
 10 53  1  0
 10 54  1  0
 11 12  1  0
 12 13  1  0
 12 55  1  0
 12 56  1  0
 13 14  1  0
 13 57  1  0
 13 58  1  0
 14 15  1  0
 15 16  1  0
 15 59  1  0
 15 60  1  0
 16 17  1  0
 16 61  1  0
 16 62  1  0
 17 18  1  0
 18 19  1  0
 18 63  1  0
 18 64  1  0
 19 20  1  0
 19 65  1  0
 19 66  1  0
 20 21  1  0
 20 67  1  0
 21 22  2  0
 21 23  1  0
 23 24  2  0
 23 40  1  0
 24 25  1  0
 24 68  1  0
 25 26  2  0
 25 69  1  0
 26 27  1  0
 26 39  1  0
 27 28  1  0
 27 36  2  0
 28 29  1  0
 28 30  1  0
 30 31  2  0
 30 32  1  0
 32 33  1  0
 32 34  1  0
 34 35  2  0
 34 36  1  0
 36 37  1  0
 37 38  3  0
 39 40  2  0
 39 70  1  0
 40 71  1  0
M  END

