
     RDKit          3D

 30 31  0  0  0  0  0  0  0  0999 V2000
    0.9647   -0.3174   -0.2397 C   0  0  0  0  0  0  0  0  0  0  0  0
    2.4604   -0.1221   -0.0661 C   0  0  0  0  0  0  0  0  0  0  0  0
    3.1955   -1.3128   -0.0093 C   0  0  0  0  0  0  0  0  0  0  0  0
    4.5162   -1.2215    0.0594 N   0  0  0  0  0  0  0  0  0  0  0  0
    5.3350   -0.1837   -0.0011 C   0  0  0  0  0  0  0  0  0  0  0  0
    6.7435   -0.2733    0.0193 C   0  0  0  0  0  0  0  0  0  0  0  0
    7.5141    0.8872   -0.1294 C   0  0  0  0  0  0  0  0  0  0  0  0
    6.8906    2.1154   -0.3111 C   0  0  0  0  0  0  0  0  0  0  0  0
    5.4857    2.2108   -0.3090 C   0  0  0  0  0  0  0  0  0  0  0  0
    4.6304    1.1031   -0.1080 C   0  0  0  0  0  0  0  0  0  0  0  0
    3.1784    1.1162   -0.0039 C   0  0  0  0  0  0  0  0  0  0  0  0
    2.4332    2.4716    0.1414 C   0  0  1  0  0  0  0  0  0  0  0  0
    3.0129    3.3428    1.2788 C   0  0  0  0  0  0  0  0  0  0  0  0
    2.3792    3.2258   -1.1980 C   0  0  0  0  0  0  0  0  0  0  0  0
    1.0567    2.2794    0.4745 O   0  0  0  0  0  0  0  0  0  0  0  0
    0.7607   -1.3567   -0.5392 H   0  0  0  0  0  0  0  0  0  0  0  0
    0.5474    0.3511   -1.0027 H   0  0  0  0  0  0  0  0  0  0  0  0
    0.4018   -0.1244    0.6863 H   0  0  0  0  0  0  0  0  0  0  0  0
    2.7420   -2.3045   -0.0590 H   0  0  0  0  0  0  0  0  0  0  0  0
    7.2019   -1.2548    0.1387 H   0  0  0  0  0  0  0  0  0  0  0  0
    8.6042    0.8137   -0.1162 H   0  0  0  0  0  0  0  0  0  0  0  0
    7.4841    3.0208   -0.4558 H   0  0  0  0  0  0  0  0  0  0  0  0
    5.0465    3.1897   -0.4810 H   0  0  0  0  0  0  0  0  0  0  0  0
    4.0514    3.6570    1.1339 H   0  0  0  0  0  0  0  0  0  0  0  0
    2.9735    2.7841    2.2295 H   0  0  0  0  0  0  0  0  0  0  0  0
    2.3836    4.2401    1.3785 H   0  0  0  0  0  0  0  0  0  0  0  0
    3.3772    3.4169   -1.6131 H   0  0  0  0  0  0  0  0  0  0  0  0
    1.8568    4.1858   -1.0633 H   0  0  0  0  0  0  0  0  0  0  0  0
    1.8158    2.6293   -1.9307 H   0  0  0  0  0  0  0  0  0  0  0  0
    1.0146    1.9790    1.3921 H   0  0  0  0  0  0  0  0  0  0  0  0
  1  2  1  0
  1 16  1  0
  1 17  1  0
  1 18  1  0
  2  3  2  0
  2 11  1  0
  3  4  1  0
  3 19  1  0
  4  5  2  0
  5  6  1  0
  5 10  1  0
  6  7  2  0
  6 20  1  0
  7  8  1  0
  7 21  1  0
  8  9  2  0
  8 22  1  0
  9 10  1  0
  9 23  1  0
 10 11  2  0
 11 12  1  0
 12 13  1  0
 12 14  1  0
 12 15  1  1
 13 24  1  0
 13 25  1  0
 13 26  1  0
 14 27  1  0
 14 28  1  0
 14 29  1  0
 15 30  1  0
M  END

