
     RDKit          3D

 32 33  0  0  0  0  0  0  0  0999 V2000
    1.1824   -0.0775   -0.2889 C   0  0  0  0  0  0  0  0  0  0  0  0
    2.6020   -0.2429   -0.2611 O   0  0  0  0  0  0  0  0  0  0  0  0
    3.1045   -0.8887    0.8051 C   0  0  0  0  0  0  0  0  0  0  0  0
    2.4247   -1.3169    1.7061 O   0  0  0  0  0  0  0  0  0  0  0  0
    4.6163   -0.9925    0.7430 C   0  0  1  0  0  0  0  0  0  0  0  0
    5.3102   -0.2594    1.9069 C   0  0  0  0  0  0  0  0  0  0  0  0
    6.7043   -0.8899    1.9307 C   0  0  0  0  0  0  0  0  0  0  0  0
    6.4729   -2.2671    1.4761 N   0  0  0  0  0  0  0  0  0  0  0  0
    7.2297   -3.3784    1.7268 C   0  0  0  0  0  0  0  0  0  0  0  0
    6.5693   -4.5422    1.5449 N   0  0  0  0  0  0  0  0  0  0  0  0
    7.1320   -5.7097    1.8077 C   0  0  0  0  0  0  0  0  0  0  0  0
    8.4358   -5.8205    2.2965 C   0  0  0  0  0  0  0  0  0  0  0  0
    9.1855   -7.5180    2.7074 Br  0  0  0  0  0  0  0  0  0  0  0  0
    9.1780   -4.6504    2.4280 C   0  0  0  0  0  0  0  0  0  0  0  0
    8.6106   -3.4082    2.1272 C   0  0  0  0  0  0  0  0  0  0  0  0
    9.5409   -2.2189    2.1521 C   0  0  1  0  0  0  0  0  0  0  0  0
    9.4184   -1.4637    1.0413 F   0  0  0  0  0  0  0  0  0  0  0  0
    9.3412   -1.3975    3.2086 F   0  0  0  0  0  0  0  0  0  0  0  0
   10.8284   -2.5985    2.2195 F   0  0  0  0  0  0  0  0  0  0  0  0
    5.1156   -2.4331    0.9322 C   0  0  0  0  0  0  0  0  0  0  0  0
    0.9555    0.4619   -1.2166 H   0  0  0  0  0  0  0  0  0  0  0  0
    0.8390    0.4989    0.5834 H   0  0  0  0  0  0  0  0  0  0  0  0
    0.6762   -1.0545   -0.2801 H   0  0  0  0  0  0  0  0  0  0  0  0
    4.9620   -0.5863   -0.2191 H   0  0  0  0  0  0  0  0  0  0  0  0
    4.7661   -0.4778    2.8395 H   0  0  0  0  0  0  0  0  0  0  0  0
    5.3448    0.8319    1.7741 H   0  0  0  0  0  0  0  0  0  0  0  0
    7.1509   -0.8725    2.9334 H   0  0  0  0  0  0  0  0  0  0  0  0
    7.3888   -0.3545    1.2529 H   0  0  0  0  0  0  0  0  0  0  0  0
    6.5288   -6.6067    1.6263 H   0  0  0  0  0  0  0  0  0  0  0  0
   10.2214   -4.6994    2.7379 H   0  0  0  0  0  0  0  0  0  0  0  0
    4.4683   -2.9775    1.6392 H   0  0  0  0  0  0  0  0  0  0  0  0
    5.1368   -3.0124   -0.0021 H   0  0  0  0  0  0  0  0  0  0  0  0
  1  2  1  0
  1 21  1  0
  1 22  1  0
  1 23  1  0
  2  3  1  0
  3  4  2  0
  3  5  1  0
  5  6  1  0
  5 20  1  0
  5 24  1  6
  6  7  1  0
  6 25  1  0
  6 26  1  0
  7  8  1  0
  7 27  1  0
  7 28  1  0
  8  9  1  0
  8 20  1  0
  9 10  2  0
  9 15  1  0
 10 11  1  0
 11 12  2  0
 11 29  1  0
 12 13  1  0
 12 14  1  0
 14 15  2  0
 14 30  1  0
 15 16  1  0
 16 17  1  6
 16 18  1  0
 16 19  1  0
 20 31  1  0
 20 32  1  0
M  END

