
     RDKit          3D

 47 49  0  0  0  0  0  0  0  0999 V2000
    1.3908    0.7596    0.1934 C   0  0  0  0  0  0  0  0  0  0  0  0
    2.7756    0.1411    0.0021 C   0  0  0  0  0  0  0  0  0  0  0  0
    3.0464   -0.9862    0.9029 N   0  0  0  0  0  0  0  0  0  0  0  0
    3.6969   -0.6757    2.1057 C   0  0  0  0  0  0  0  0  0  0  0  0
    4.0421    0.4792    2.3767 O   0  0  0  0  0  0  0  0  0  0  0  0
    3.9741   -1.7772    3.0190 C   0  0  0  0  0  0  0  0  0  0  0  0
    4.6922   -1.5241    4.3068 C   0  0  0  0  0  0  0  0  0  0  0  0
    3.5655   -2.9713    2.6206 N   0  0  0  0  0  0  0  0  0  0  0  0
    2.9123   -3.3405    1.5233 C   0  0  0  0  0  0  0  0  0  0  0  0
    2.4974   -4.6669    1.2433 C   0  0  0  0  0  0  0  0  0  0  0  0
    1.8082   -4.9576    0.0600 C   0  0  0  0  0  0  0  0  0  0  0  0
    1.3397   -6.3422   -0.2992 C   0  0  0  0  0  0  0  0  0  0  0  0
    0.4818   -6.5339   -1.1534 O   0  0  0  0  0  0  0  0  0  0  0  0
    1.9268   -7.3748    0.3714 N   0  0  0  0  0  0  0  0  0  0  0  0
    1.5361   -8.7459    0.1662 C   0  0  1  0  0  0  0  0  0  0  0  0
    2.2351   -9.3885   -1.0784 C   0  0  0  0  0  0  0  0  0  0  0  0
    2.1377  -10.9209   -1.2651 C   0  0  0  0  0  0  0  0  0  0  0  0
    2.8930  -11.7941   -0.2319 C   0  0  0  0  0  0  0  0  0  0  0  0
    2.1504  -11.9853    1.1147 C   0  0  0  0  0  0  0  0  0  0  0  0
    1.3164  -10.8157    1.4240 N   0  0  0  0  0  0  0  0  0  0  0  0
    1.9716   -9.5951    1.3514 C   0  0  0  0  0  0  0  0  0  0  0  0
    2.9480   -9.3127    2.0180 O   0  0  0  0  0  0  0  0  0  0  0  0
    1.5050   -3.9256   -0.8352 C   0  0  0  0  0  0  0  0  0  0  0  0
    1.9047   -2.6054   -0.5721 C   0  0  0  0  0  0  0  0  0  0  0  0
    2.6119   -2.2793    0.5873 C   0  0  0  0  0  0  0  0  0  0  0  0
    1.2524    1.5917   -0.5152 H   0  0  0  0  0  0  0  0  0  0  0  0
    1.2868    1.1613    1.2126 H   0  0  0  0  0  0  0  0  0  0  0  0
    0.5856    0.0288    0.0230 H   0  0  0  0  0  0  0  0  0  0  0  0
    3.5497    0.8916    0.2088 H   0  0  0  0  0  0  0  0  0  0  0  0
    2.9190   -0.2075   -1.0313 H   0  0  0  0  0  0  0  0  0  0  0  0
    5.6812   -1.0710    4.1236 H   0  0  0  0  0  0  0  0  0  0  0  0
    4.8250   -2.4647    4.8579 H   0  0  0  0  0  0  0  0  0  0  0  0
    4.1291   -0.8148    4.9369 H   0  0  0  0  0  0  0  0  0  0  0  0
    2.7111   -5.4248    1.9971 H   0  0  0  0  0  0  0  0  0  0  0  0
    2.7020   -7.2333    1.0116 H   0  0  0  0  0  0  0  0  0  0  0  0
    0.4442   -8.7832    0.0158 H   0  0  0  0  0  0  0  0  0  0  0  0
    3.3009   -9.1085   -1.0205 H   0  0  0  0  0  0  0  0  0  0  0  0
    1.8178   -8.8838   -1.9632 H   0  0  0  0  0  0  0  0  0  0  0  0
    2.5597  -11.1387   -2.2597 H   0  0  0  0  0  0  0  0  0  0  0  0
    1.0782  -11.2333   -1.3304 H   0  0  0  0  0  0  0  0  0  0  0  0
    3.8773  -11.3332   -0.0436 H   0  0  0  0  0  0  0  0  0  0  0  0
    3.0990  -12.7851   -0.6689 H   0  0  0  0  0  0  0  0  0  0  0  0
    2.8615  -12.1541    1.9361 H   0  0  0  0  0  0  0  0  0  0  0  0
    1.4828  -12.8599    1.0779 H   0  0  0  0  0  0  0  0  0  0  0  0
    0.4716  -10.8159    0.8599 H   0  0  0  0  0  0  0  0  0  0  0  0
    0.9465   -4.1684   -1.7395 H   0  0  0  0  0  0  0  0  0  0  0  0
    1.6517   -1.8278   -1.2915 H   0  0  0  0  0  0  0  0  0  0  0  0
  1  2  1  0
  1 26  1  0
  1 27  1  0
  1 28  1  0
  2  3  1  0
  2 29  1  0
  2 30  1  0
  3  4  1  0
  3 25  1  0
  4  5  2  0
  4  6  1  0
  6  7  1  0
  6  8  2  0
  7 31  1  0
  7 32  1  0
  7 33  1  0
  8  9  1  0
  9 10  1  0
  9 25  2  0
 10 11  2  0
 10 34  1  0
 11 12  1  0
 11 23  1  0
 12 13  2  0
 12 14  1  0
 14 15  1  0
 14 35  1  0
 15 16  1  0
 15 21  1  0
 15 36  1  6
 16 17  1  0
 16 37  1  0
 16 38  1  0
 17 18  1  0
 17 39  1  0
 17 40  1  0
 18 19  1  0
 18 41  1  0
 18 42  1  0
 19 20  1  0
 19 43  1  0
 19 44  1  0
 20 21  1  0
 20 45  1  0
 21 22  2  0
 23 24  2  0
 23 46  1  0
 24 25  1  0
 24 47  1  0
M  END

