
     RDKit          3D

 43 44  0  0  0  0  0  0  0  0999 V2000
    1.1494   -0.0885   -0.0231 C   0  0  0  0  0  0  0  0  0  0  0  0
    2.6281    0.2854    0.1637 C   0  0  1  0  0  0  0  0  0  0  0  0
    2.7853    1.2576    1.3436 C   0  0  0  0  0  0  0  0  0  0  0  0
    3.4780   -0.9951    0.4053 C   0  0  0  0  0  0  0  0  0  0  0  0
    3.1421   -1.7227    1.6295 C   0  0  0  0  0  0  0  0  0  0  0  0
    2.8656   -2.2901    2.6021 N   0  0  0  0  0  0  0  0  0  0  0  0
    3.1483    0.9450   -1.1376 C   0  0  0  0  0  0  0  0  0  0  0  0
    4.5491    1.2756   -1.0729 N   0  0  0  0  0  0  0  0  0  0  0  0
    5.0867    1.9529   -2.0235 C   0  0  0  0  0  0  0  0  0  0  0  0
    4.4465    2.3606   -3.1879 N   0  0  0  0  0  0  0  0  0  0  0  0
    6.4215    2.3283   -1.9684 N   0  0  0  0  0  0  0  0  0  0  0  0
    7.3287    1.7545   -0.9429 C   0  0  2  0  0  0  0  0  0  0  0  0
    7.2138    2.5264    0.3783 C   0  0  0  0  0  0  0  0  0  0  0  0
    7.9217    3.8606    0.2589 C   0  0  0  0  0  0  0  0  0  0  0  0
    9.3092    3.7083   -0.0730 O   0  0  0  0  0  0  0  0  0  0  0  0
    9.6799    2.7600   -0.9537 C   0  0  0  0  0  0  0  0  0  0  0  0
   11.0425    2.8034   -1.3476 C   0  0  0  0  0  0  0  0  0  0  0  0
   11.5094    1.8363   -2.2889 C   0  0  0  0  0  0  0  0  0  0  0  0
   10.5953    0.8870   -2.8003 C   0  0  0  0  0  0  0  0  0  0  0  0
    9.2311    0.8542   -2.4126 C   0  0  0  0  0  0  0  0  0  0  0  0
    8.7419    1.7842   -1.4330 C   0  0  0  0  0  0  0  0  0  0  0  0
    0.7477   -0.5835    0.8748 H   0  0  0  0  0  0  0  0  0  0  0  0
    1.0110   -0.7739   -0.8760 H   0  0  0  0  0  0  0  0  0  0  0  0
    0.5390    0.8098   -0.2112 H   0  0  0  0  0  0  0  0  0  0  0  0
    2.4522    0.7992    2.2877 H   0  0  0  0  0  0  0  0  0  0  0  0
    2.1817    2.1649    1.1774 H   0  0  0  0  0  0  0  0  0  0  0  0
    3.8354    1.5651    1.4559 H   0  0  0  0  0  0  0  0  0  0  0  0
    4.5416   -0.7107    0.4352 H   0  0  0  0  0  0  0  0  0  0  0  0
    3.3599   -1.6878   -0.4460 H   0  0  0  0  0  0  0  0  0  0  0  0
    2.5134    1.8420   -1.3203 H   0  0  0  0  0  0  0  0  0  0  0  0
    2.9383    0.2502   -1.9797 H   0  0  0  0  0  0  0  0  0  0  0  0
    3.4345    2.3179   -3.1804 H   0  0  0  0  0  0  0  0  0  0  0  0
    4.8084    3.1955   -3.6366 H   0  0  0  0  0  0  0  0  0  0  0  0
    6.8655    2.4357   -2.8753 H   0  0  0  0  0  0  0  0  0  0  0  0
    7.0088    0.7087   -0.7708 H   0  0  0  0  0  0  0  0  0  0  0  0
    7.6658    1.9365    1.1929 H   0  0  0  0  0  0  0  0  0  0  0  0
    6.1557    2.6887    0.6288 H   0  0  0  0  0  0  0  0  0  0  0  0
    7.9138    4.4411    1.1918 H   0  0  0  0  0  0  0  0  0  0  0  0
    7.4549    4.4683   -0.5385 H   0  0  0  0  0  0  0  0  0  0  0  0
   11.6790    3.5876   -0.9381 H   0  0  0  0  0  0  0  0  0  0  0  0
   12.5483    1.8383   -2.6198 H   0  0  0  0  0  0  0  0  0  0  0  0
   10.9526    0.1412   -3.5165 H   0  0  0  0  0  0  0  0  0  0  0  0
    8.5686    0.0784   -2.8015 H   0  0  0  0  0  0  0  0  0  0  0  0
  2  1  1  6
  1 22  1  0
  1 23  1  0
  1 24  1  0
  2  3  1  0
  2  4  1  0
  2  7  1  0
  3 25  1  0
  3 26  1  0
  3 27  1  0
  4  5  1  0
  4 28  1  0
  4 29  1  0
  5  6  3  0
  7  8  1  0
  7 30  1  0
  7 31  1  0
  8  9  2  0
  9 10  1  0
  9 11  1  0
 10 32  1  0
 10 33  1  0
 11 12  1  0
 11 34  1  0
 12 13  1  0
 12 21  1  0
 12 35  1  1
 13 14  1  0
 13 36  1  0
 13 37  1  0
 14 15  1  0
 14 38  1  0
 14 39  1  0
 15 16  1  0
 16 17  1  0
 16 21  2  0
 17 18  2  0
 17 40  1  0
 18 19  1  0
 18 41  1  0
 19 20  2  0
 19 42  1  0
 20 21  1  0
 20 43  1  0
M  END

