
     RDKit          3D

 37 38  0  0  0  0  0  0  0  0999 V2000
    3.2976    0.0857   -0.8661 N   0  0  0  0  0  0  0  0  0  0  0  0
    3.9939   -0.9735   -1.1514 C   0  0  0  0  0  0  0  0  0  0  0  0
    3.2779   -2.3029   -0.9242 C   0  0  0  0  0  0  0  0  0  0  0  0
    1.9423   -2.0397   -0.4216 N   0  0  0  0  0  0  0  0  0  0  0  0
    0.8398   -2.4631   -1.3285 C   0  0  0  0  0  0  0  0  0  0  0  0
    0.5465   -3.9580   -1.2466 C   0  0  0  0  0  0  0  0  0  0  0  0
    0.2841   -4.3078    0.1344 N   0  0  0  0  0  0  0  0  0  0  0  0
   -0.5299   -5.8661    0.3801 S   0  0  1  0  0  0  0  0  0  0  0  0
   -0.6899   -5.8664    1.8434 O   0  0  0  0  0  0  0  0  0  0  0  0
   -1.6787   -5.7315   -0.5297 O   0  0  0  0  0  0  0  0  0  0  0  0
    0.4889   -7.1476   -0.1176 C   0  0  0  0  0  0  0  0  0  0  0  0
    0.4151   -7.6681   -1.4452 C   0  0  0  0  0  0  0  0  0  0  0  0
    1.2133   -8.5934   -1.9208 N   0  0  0  0  0  0  0  0  0  0  0  0
    2.1902   -9.1014   -1.0862 C   0  0  0  0  0  0  0  0  0  0  0  0
    2.2944   -8.6799    0.2439 C   0  0  0  0  0  0  0  0  0  0  0  0
    3.2380   -9.2612    1.0244 F   0  0  0  0  0  0  0  0  0  0  0  0
    1.4795   -7.7125    0.7916 C   0  0  0  0  0  0  0  0  0  0  0  0
    1.3960   -4.0201    1.0200 C   0  0  0  0  0  0  0  0  0  0  0  0
    1.6913   -2.5248    0.9646 C   0  0  0  0  0  0  0  0  0  0  0  0
    5.2534   -0.7877   -1.6110 N   0  0  0  0  0  0  0  0  0  0  0  0
    5.8219   -1.9614   -1.8520 O   0  0  0  0  0  0  0  0  0  0  0  0
    2.3489   -0.2069   -0.5236 H   0  0  0  0  0  0  0  0  0  0  0  0
    3.6549    1.0315   -0.9721 H   0  0  0  0  0  0  0  0  0  0  0  0
    3.8997   -2.9000   -0.2398 H   0  0  0  0  0  0  0  0  0  0  0  0
    3.2927   -2.8518   -1.8784 H   0  0  0  0  0  0  0  0  0  0  0  0
    1.0883   -2.1557   -2.3575 H   0  0  0  0  0  0  0  0  0  0  0  0
   -0.0589   -1.9062   -1.0208 H   0  0  0  0  0  0  0  0  0  0  0  0
    1.3885   -4.5437   -1.6846 H   0  0  0  0  0  0  0  0  0  0  0  0
   -0.3492   -4.1859   -1.8419 H   0  0  0  0  0  0  0  0  0  0  0  0
   -0.3699   -7.2875   -2.1093 H   0  0  0  0  0  0  0  0  0  0  0  0
    2.8642   -9.8643   -1.4787 H   0  0  0  0  0  0  0  0  0  0  0  0
    1.5223   -7.4518    1.8461 H   0  0  0  0  0  0  0  0  0  0  0  0
    2.3111   -4.6033    0.7649 H   0  0  0  0  0  0  0  0  0  0  0  0
    1.1088   -4.3021    2.0427 H   0  0  0  0  0  0  0  0  0  0  0  0
    2.5550   -2.2583    1.5955 H   0  0  0  0  0  0  0  0  0  0  0  0
    0.8167   -1.9730    1.3431 H   0  0  0  0  0  0  0  0  0  0  0  0
    6.7162   -1.7591   -2.1761 H   0  0  0  0  0  0  0  0  0  0  0  0
  1  2  1  0
  1 22  1  0
  1 23  1  0
  2  3  1  0
  2 20  2  0
  3  4  1  0
  3 24  1  0
  3 25  1  0
  4  5  1  0
  4 19  1  0
  5  6  1  0
  5 26  1  0
  5 27  1  0
  6  7  1  0
  6 28  1  0
  6 29  1  0
  7  8  1  0
  7 18  1  0
  8  9  2  0
  8 10  2  0
  8 11  1  6
 11 12  2  0
 11 17  1  0
 12 13  1  0
 12 30  1  0
 13 14  2  0
 14 15  1  0
 14 31  1  0
 15 16  1  0
 15 17  2  0
 17 32  1  0
 18 19  1  0
 18 33  1  0
 18 34  1  0
 19 35  1  0
 19 36  1  0
 20 21  1  0
 21 37  1  0
M  END

