
     RDKit          3D

 41 42  0  0  0  0  0  0  0  0999 V2000
    0.6567    0.8426    1.5097 C   0  0  0  0  0  0  0  0  0  0  0  0
    2.1446    0.7847    1.6682 C   0  0  0  0  0  0  0  0  0  0  0  0
    2.9361   -0.1853    1.1758 C   0  0  0  0  0  0  0  0  0  0  0  0
    4.4049   -0.2495    1.2732 C   0  0  0  0  0  0  0  0  0  0  0  0
    5.1962    0.8948    1.3872 C   0  0  0  0  0  0  0  0  0  0  0  0
    6.6203    0.8363    1.4209 C   0  0  0  0  0  0  0  0  0  0  0  0
    7.4274    2.0108    1.5685 C   0  0  0  0  0  0  0  0  0  0  0  0
    8.8735    2.0371    1.4556 C   0  0  0  0  0  0  0  0  0  0  0  0
    9.5805    3.2081    1.5731 C   0  0  0  0  0  0  0  0  0  0  0  0
    8.9159    4.4586    1.8224 C   0  0  0  0  0  0  0  0  0  0  0  0
    9.6292    5.6746    1.9355 C   0  0  0  0  0  0  0  0  0  0  0  0
   10.2563    6.6546    2.0212 N   0  0  0  0  0  0  0  0  0  0  0  0
    7.4908    4.4544    1.9677 C   0  0  0  0  0  0  0  0  0  0  0  0
    6.7766    5.4451    2.2064 O   0  0  0  0  0  0  0  0  0  0  0  0
    6.8443    3.2238    1.8363 N   0  0  0  0  0  0  0  0  0  0  0  0
    5.8417    3.2833    1.9916 H   0  0  0  0  0  0  0  0  0  0  0  0
    7.2232   -0.4522    1.2752 C   0  0  0  0  0  0  0  0  0  0  0  0
    6.4614   -1.6058    1.1640 C   0  0  0  0  0  0  0  0  0  0  0  0
    7.1336   -2.9556    0.9584 C   0  0  0  0  0  0  0  0  0  0  0  0
    8.4844   -2.9854    1.3529 O   0  0  0  0  0  0  0  0  0  0  0  0
    8.6857   -3.1868    2.7317 C   0  0  0  0  0  0  0  0  0  0  0  0
    5.0526   -1.5137    1.1835 C   0  0  0  0  0  0  0  0  0  0  0  0
    4.3180   -2.6635    1.0431 O   0  0  0  0  0  0  0  0  0  0  0  0
    3.7109   -3.1856    2.2204 C   0  0  0  0  0  0  0  0  0  0  0  0
    0.1502    0.8707    2.4908 H   0  0  0  0  0  0  0  0  0  0  0  0
    0.2699   -0.0195    0.9453 H   0  0  0  0  0  0  0  0  0  0  0  0
    0.3504    1.7628    0.9804 H   0  0  0  0  0  0  0  0  0  0  0  0
    2.5986    1.6034    2.2412 H   0  0  0  0  0  0  0  0  0  0  0  0
    2.4717   -1.0241    0.6456 H   0  0  0  0  0  0  0  0  0  0  0  0
    4.6808    1.8574    1.3746 H   0  0  0  0  0  0  0  0  0  0  0  0
    9.3980    1.1051    1.2582 H   0  0  0  0  0  0  0  0  0  0  0  0
   10.6672    3.2022    1.4736 H   0  0  0  0  0  0  0  0  0  0  0  0
    8.3062   -0.5694    1.2570 H   0  0  0  0  0  0  0  0  0  0  0  0
    7.1168   -3.1999   -0.1179 H   0  0  0  0  0  0  0  0  0  0  0  0
    6.5545   -3.7495    1.4652 H   0  0  0  0  0  0  0  0  0  0  0  0
    9.7709   -3.2198    2.9074 H   0  0  0  0  0  0  0  0  0  0  0  0
    8.2456   -4.1459    3.0704 H   0  0  0  0  0  0  0  0  0  0  0  0
    8.2537   -2.3738    3.3469 H   0  0  0  0  0  0  0  0  0  0  0  0
    4.4712   -3.4587    2.9741 H   0  0  0  0  0  0  0  0  0  0  0  0
    3.1594   -4.0883    1.9219 H   0  0  0  0  0  0  0  0  0  0  0  0
    3.0088   -2.4647    2.6726 H   0  0  0  0  0  0  0  0  0  0  0  0
  1  2  1  0
  1 25  1  0
  1 26  1  0
  1 27  1  0
  2  3  2  0
  2 28  1  0
  3  4  1  0
  3 29  1  0
  4  5  2  0
  4 22  1  0
  5  6  1  0
  5 30  1  0
  6  7  1  0
  6 17  2  0
  7  8  2  0
  7 15  1  0
  8  9  1  0
  8 31  1  0
  9 10  2  0
  9 32  1  0
 10 11  1  0
 10 13  1  0
 11 12  3  0
 13 14  2  0
 13 15  1  0
 15 16  1  0
 17 18  1  0
 17 33  1  0
 18 19  1  0
 18 22  2  0
 19 20  1  0
 19 34  1  0
 19 35  1  0
 20 21  1  0
 21 36  1  0
 21 37  1  0
 21 38  1  0
 22 23  1  0
 23 24  1  0
 24 39  1  0
 24 40  1  0
 24 41  1  0
M  END

