
     RDKit          3D

 80 86  0  0  0  0  0  0  0  0999 V2000
    6.1578    3.1441   -5.2950 C   0  0  0  0  0  0  0  0  0  0  0  0
    6.3572    2.3664   -4.0171 C   0  0  0  0  0  0  0  0  0  0  0  0
    6.5216    3.0226   -2.7852 C   0  0  0  0  0  0  0  0  0  0  0  0
    6.6905    2.3185   -1.5950 C   0  0  0  0  0  0  0  0  0  0  0  0
    6.6839    0.9090   -1.5862 C   0  0  0  0  0  0  0  0  0  0  0  0
    6.8759    0.1743   -0.3884 N   0  0  0  0  0  0  0  0  0  0  0  0
    6.3988    0.6318    0.8669 C   0  0  0  0  0  0  0  0  0  0  0  0
    5.1930    1.3491    0.9816 C   0  0  0  0  0  0  0  0  0  0  0  0
    4.7353    1.7760    2.2284 C   0  0  0  0  0  0  0  0  0  0  0  0
    5.4376    1.4944    3.4104 C   0  0  0  0  0  0  0  0  0  0  0  0
    4.9188    1.9267    4.7603 C   0  0  0  0  0  0  0  0  0  0  0  0
    6.6319    0.7679    3.2872 C   0  0  0  0  0  0  0  0  0  0  0  0
    7.1108    0.3470    2.0467 C   0  0  0  0  0  0  0  0  0  0  0  0
    7.5723   -1.0760   -0.4478 C   0  0  0  0  0  0  0  0  0  0  0  0
    8.9734   -1.0902   -0.6448 C   0  0  0  0  0  0  0  0  0  0  0  0
    9.7332    0.1189   -0.7602 C   0  0  0  0  0  0  0  0  0  0  0  0
   11.0871    0.0893   -0.9830 C   0  0  0  0  0  0  0  0  0  0  0  0
   11.7680   -1.1546   -1.1120 C   0  0  0  0  0  0  0  0  0  0  0  0
   11.0823   -2.3367   -0.9861 C   0  0  0  0  0  0  0  0  0  0  0  0
    9.6726   -2.3535   -0.7308 C   0  0  0  0  0  0  0  0  0  0  0  0
    8.9576   -3.5634   -0.5654 C   0  0  0  0  0  0  0  0  0  0  0  0
    9.6535   -4.8137   -0.6251 N   0  0  0  0  0  0  0  0  0  0  0  0
   10.4906   -5.1850    0.4584 C   0  0  0  0  0  0  0  0  0  0  0  0
   10.1695   -4.8051    1.7725 C   0  0  0  0  0  0  0  0  0  0  0  0
   11.0096   -5.1400    2.8371 C   0  0  0  0  0  0  0  0  0  0  0  0
   12.1883   -5.8728    2.6450 C   0  0  0  0  0  0  0  0  0  0  0  0
   13.0841   -6.2568    3.7974 C   0  0  0  0  0  0  0  0  0  0  0  0
   12.5028   -6.2463    1.3270 C   0  0  0  0  0  0  0  0  0  0  0  0
   11.6841   -5.9062    0.2526 C   0  0  0  0  0  0  0  0  0  0  0  0
    9.4830   -5.6394   -1.7658 C   0  0  0  0  0  0  0  0  0  0  0  0
    9.2645   -5.0717   -3.0328 C   0  0  0  0  0  0  0  0  0  0  0  0
    9.0585   -5.8818   -4.1515 C   0  0  0  0  0  0  0  0  0  0  0  0
    9.0757   -7.2805   -4.0637 C   0  0  0  0  0  0  0  0  0  0  0  0
    8.8863   -8.1553   -5.2788 C   0  0  0  0  0  0  0  0  0  0  0  0
    9.2928   -7.8394   -2.7928 C   0  0  0  0  0  0  0  0  0  0  0  0
    9.4835   -7.0451   -1.6641 C   0  0  0  0  0  0  0  0  0  0  0  0
    7.5605   -3.5481   -0.3419 C   0  0  0  0  0  0  0  0  0  0  0  0
    6.8130   -4.7540   -0.1430 C   0  0  0  0  0  0  0  0  0  0  0  0
    5.4532   -4.7256    0.0405 C   0  0  0  0  0  0  0  0  0  0  0  0
    4.7514   -3.4866    0.0292 C   0  0  0  0  0  0  0  0  0  0  0  0
    5.4313   -2.3062   -0.1366 C   0  0  0  0  0  0  0  0  0  0  0  0
    6.8535   -2.2866   -0.3088 C   0  0  0  0  0  0  0  0  0  0  0  0
    6.5241    0.2444   -2.8142 C   0  0  0  0  0  0  0  0  0  0  0  0
    6.3715    0.9652   -4.0007 C   0  0  0  0  0  0  0  0  0  0  0  0
    5.1396    3.5679   -5.3548 H   0  0  0  0  0  0  0  0  0  0  0  0
    6.3006    2.5078   -6.1814 H   0  0  0  0  0  0  0  0  0  0  0  0
    6.8610    3.9896   -5.3691 H   0  0  0  0  0  0  0  0  0  0  0  0
    6.5338    4.1166   -2.7562 H   0  0  0  0  0  0  0  0  0  0  0  0
    6.8352    2.8643   -0.6612 H   0  0  0  0  0  0  0  0  0  0  0  0
    4.6094    1.5746    0.0875 H   0  0  0  0  0  0  0  0  0  0  0  0
    3.7963    2.3351    2.2816 H   0  0  0  0  0  0  0  0  0  0  0  0
    4.2087    2.7631    4.6721 H   0  0  0  0  0  0  0  0  0  0  0  0
    5.7369    2.2460    5.4255 H   0  0  0  0  0  0  0  0  0  0  0  0
    4.3909    1.1023    5.2721 H   0  0  0  0  0  0  0  0  0  0  0  0
    7.2134    0.5325    4.1839 H   0  0  0  0  0  0  0  0  0  0  0  0
    8.0500   -0.2053    1.9887 H   0  0  0  0  0  0  0  0  0  0  0  0
    9.2142    1.0724   -0.6681 H   0  0  0  0  0  0  0  0  0  0  0  0
   11.6467    1.0243   -1.0666 H   0  0  0  0  0  0  0  0  0  0  0  0
   12.8431   -1.1658   -1.3080 H   0  0  0  0  0  0  0  0  0  0  0  0
   11.6073   -3.2869   -1.0781 H   0  0  0  0  0  0  0  0  0  0  0  0
    9.2544   -4.2423    1.9631 H   0  0  0  0  0  0  0  0  0  0  0  0
   10.7301   -4.8266    3.8473 H   0  0  0  0  0  0  0  0  0  0  0  0
   12.7798   -5.7572    4.7293 H   0  0  0  0  0  0  0  0  0  0  0  0
   14.1353   -5.9889    3.5995 H   0  0  0  0  0  0  0  0  0  0  0  0
   13.0608   -7.3450    3.9820 H   0  0  0  0  0  0  0  0  0  0  0  0
   13.4230   -6.8060    1.1319 H   0  0  0  0  0  0  0  0  0  0  0  0
   11.9728   -6.1971   -0.7588 H   0  0  0  0  0  0  0  0  0  0  0  0
    9.2543   -3.9862   -3.1427 H   0  0  0  0  0  0  0  0  0  0  0  0
    8.8883   -5.4060   -5.1219 H   0  0  0  0  0  0  0  0  0  0  0  0
    8.4800   -7.5850   -6.1277 H   0  0  0  0  0  0  0  0  0  0  0  0
    8.1980   -8.9913   -5.0731 H   0  0  0  0  0  0  0  0  0  0  0  0
    9.8417   -8.6005   -5.6085 H   0  0  0  0  0  0  0  0  0  0  0  0
    9.2970   -8.9278   -2.6776 H   0  0  0  0  0  0  0  0  0  0  0  0
    9.6284   -7.5171   -0.6909 H   0  0  0  0  0  0  0  0  0  0  0  0
    7.3459   -5.7044   -0.1416 H   0  0  0  0  0  0  0  0  0  0  0  0
    4.9036   -5.6581    0.1914 H   0  0  0  0  0  0  0  0  0  0  0  0
    3.6661   -3.4777    0.1573 H   0  0  0  0  0  0  0  0  0  0  0  0
    4.8924   -1.3593   -0.1387 H   0  0  0  0  0  0  0  0  0  0  0  0
    6.5204   -0.8463   -2.8410 H   0  0  0  0  0  0  0  0  0  0  0  0
    6.2515    0.4153   -4.9389 H   0  0  0  0  0  0  0  0  0  0  0  0
  1  2  1  0
  1 45  1  0
  1 46  1  0
  1 47  1  0
  2  3  2  0
  2 44  1  0
  3  4  1  0
  3 48  1  0
  4  5  2  0
  4 49  1  0
  5  6  1  0
  5 43  1  0
  6  7  1  0
  6 14  1  0
  7  8  2  0
  7 13  1  0
  8  9  1  0
  8 50  1  0
  9 10  2  0
  9 51  1  0
 10 11  1  0
 10 12  1  0
 11 52  1  0
 11 53  1  0
 11 54  1  0
 12 13  2  0
 12 55  1  0
 13 56  1  0
 14 15  1  0
 14 42  2  0
 15 16  2  0
 15 20  1  0
 16 17  1  0
 16 57  1  0
 17 18  2  0
 17 58  1  0
 18 19  1  0
 18 59  1  0
 19 20  2  0
 19 60  1  0
 20 21  1  0
 21 22  1  0
 21 37  2  0
 22 23  1  0
 22 30  1  0
 23 24  2  0
 23 29  1  0
 24 25  1  0
 24 61  1  0
 25 26  2  0
 25 62  1  0
 26 27  1  0
 26 28  1  0
 27 63  1  0
 27 64  1  0
 27 65  1  0
 28 29  2  0
 28 66  1  0
 29 67  1  0
 30 31  2  0
 30 36  1  0
 31 32  1  0
 31 68  1  0
 32 33  2  0
 32 69  1  0
 33 34  1  0
 33 35  1  0
 34 70  1  0
 34 71  1  0
 34 72  1  0
 35 36  2  0
 35 73  1  0
 36 74  1  0
 37 38  1  0
 37 42  1  0
 38 39  2  0
 38 75  1  0
 39 40  1  0
 39 76  1  0
 40 41  2  0
 40 77  1  0
 41 42  1  0
 41 78  1  0
 43 44  2  0
 43 79  1  0
 44 80  1  0
M  END

