
     RDKit          3D

 36 37  0  0  0  0  0  0  0  0999 V2000
    1.2961    0.0229    0.9941 N   0  0  0  0  0  0  0  0  0  0  0  0
    2.5656   -0.0514    0.4384 C   0  0  0  0  0  0  0  0  0  0  0  0
    3.2913    1.1154    0.1363 C   0  0  0  0  0  0  0  0  0  0  0  0
    4.5876    1.0148   -0.3745 C   0  0  0  0  0  0  0  0  0  0  0  0
    5.1882   -0.2220   -0.5966 C   0  0  0  0  0  0  0  0  0  0  0  0
    4.4661   -1.3894   -0.2968 C   0  0  0  0  0  0  0  0  0  0  0  0
    5.1090   -2.5672   -0.5367 O   0  0  0  0  0  0  0  0  0  0  0  0
    4.4662   -3.7912   -0.2605 C   0  0  0  0  0  0  0  0  0  0  0  0
    5.4541   -4.8956   -0.6288 C   0  0  0  0  0  0  0  0  0  0  0  0
    4.8855   -6.1795   -0.4625 O   0  0  0  0  0  0  0  0  0  0  0  0
    4.8767   -6.7949    0.7539 C   0  0  0  0  0  0  0  0  0  0  0  0
    5.4207   -6.2585    1.9309 C   0  0  0  0  0  0  0  0  0  0  0  0
    5.3616   -7.0062    3.1131 C   0  0  0  0  0  0  0  0  0  0  0  0
    4.7668   -8.2667    3.1429 C   0  0  0  0  0  0  0  0  0  0  0  0
    4.2193   -8.8052    1.9663 C   0  0  0  0  0  0  0  0  0  0  0  0
    3.5375  -10.1613    1.9893 C   0  0  0  0  0  0  0  0  0  0  0  0
    4.0366  -11.0373    2.9752 O   0  0  0  0  0  0  0  0  0  0  0  0
    4.2841   -8.0681    0.7819 C   0  0  0  0  0  0  0  0  0  0  0  0
    3.1660   -1.3096    0.2145 C   0  0  0  0  0  0  0  0  0  0  0  0
    0.7971    0.8949    0.8625 H   0  0  0  0  0  0  0  0  0  0  0  0
    0.7044   -0.7929    0.8895 H   0  0  0  0  0  0  0  0  0  0  0  0
    2.8386    2.0956    0.3066 H   0  0  0  0  0  0  0  0  0  0  0  0
    5.1415    1.9285   -0.6070 H   0  0  0  0  0  0  0  0  0  0  0  0
    6.1993   -0.3131   -0.9960 H   0  0  0  0  0  0  0  0  0  0  0  0
    3.5454   -3.9093   -0.8617 H   0  0  0  0  0  0  0  0  0  0  0  0
    4.1812   -3.8594    0.8054 H   0  0  0  0  0  0  0  0  0  0  0  0
    6.3889   -4.7799   -0.0550 H   0  0  0  0  0  0  0  0  0  0  0  0
    5.7081   -4.8079   -1.6954 H   0  0  0  0  0  0  0  0  0  0  0  0
    5.8902   -5.2746    1.9424 H   0  0  0  0  0  0  0  0  0  0  0  0
    5.7875   -6.5842    4.0275 H   0  0  0  0  0  0  0  0  0  0  0  0
    4.7209   -8.8457    4.0670 H   0  0  0  0  0  0  0  0  0  0  0  0
    3.5780  -10.6094    0.9759 H   0  0  0  0  0  0  0  0  0  0  0  0
    2.4669  -10.0280    2.2254 H   0  0  0  0  0  0  0  0  0  0  0  0
    4.9837  -11.1531    2.8171 H   0  0  0  0  0  0  0  0  0  0  0  0
    3.8819   -8.4651   -0.1539 H   0  0  0  0  0  0  0  0  0  0  0  0
    2.6006   -2.2111    0.4537 H   0  0  0  0  0  0  0  0  0  0  0  0
  1  2  1  0
  1 20  1  0
  1 21  1  0
  2  3  2  0
  2 19  1  0
  3  4  1  0
  3 22  1  0
  4  5  2  0
  4 23  1  0
  5  6  1  0
  5 24  1  0
  6  7  1  0
  6 19  2  0
  7  8  1  0
  8  9  1  0
  8 25  1  0
  8 26  1  0
  9 10  1  0
  9 27  1  0
  9 28  1  0
 10 11  1  0
 11 12  2  0
 11 18  1  0
 12 13  1  0
 12 29  1  0
 13 14  2  0
 13 30  1  0
 14 15  1  0
 14 31  1  0
 15 16  1  0
 15 18  2  0
 16 17  1  0
 16 32  1  0
 16 33  1  0
 17 34  1  0
 18 35  1  0
 19 36  1  0
M  END

