
     RDKit          3D

 81 86  0  0  0  0  0  0  0  0999 V2000
   -1.0607   12.1325    9.1793 C   0  0  0  0  0  0  0  0  0  0  0  0
   -0.2671   11.0344    8.7770 O   0  0  0  0  0  0  0  0  0  0  0  0
    0.6350   11.1846    7.7900 C   0  0  0  0  0  0  0  0  0  0  0  0
    0.8665   12.3900    7.0942 C   0  0  0  0  0  0  0  0  0  0  0  0
    1.8288   12.4809    6.0700 C   0  0  0  0  0  0  0  0  0  0  0  0
    1.9932   13.6821    5.4491 N   0  0  0  0  0  0  0  0  0  0  0  0
    2.9133   13.7421    4.4817 C   0  0  0  0  0  0  0  0  0  0  0  0
    3.7169   12.6537    4.0618 C   0  0  0  0  0  0  0  0  0  0  0  0
    3.5876   11.3943    4.6645 C   0  0  0  0  0  0  0  0  0  0  0  0
    4.4066   10.1868    4.2700 C   0  0  0  0  0  0  0  0  0  0  0  0
    5.4032   10.3907    3.1515 C   0  0  0  0  0  0  0  0  0  0  0  0
    6.7273   10.7687    3.4159 C   0  0  0  0  0  0  0  0  0  0  0  0
    7.6610   10.9701    2.3969 C   0  0  0  0  0  0  0  0  0  0  0  0
    7.2747   10.7946    1.0563 C   0  0  0  0  0  0  0  0  0  0  0  0
    8.1448   10.9710   -0.0352 N   0  0  0  0  0  0  0  0  0  0  0  0
    9.4598   11.3408   -0.0352 C   0  0  0  0  0  0  0  0  0  0  0  0
   10.1288   11.5771    0.9593 O   0  0  0  0  0  0  0  0  0  0  0  0
   10.0699   11.3999   -1.4369 C   0  0  1  0  0  0  0  0  0  0  0  0
    9.1596   11.9650   -2.5077 C   0  0  0  0  0  0  0  0  0  0  0  0
    8.1685   11.3301   -2.8641 O   0  0  0  0  0  0  0  0  0  0  0  0
    9.4411   13.1715   -3.0852 N   0  0  0  0  0  0  0  0  0  0  0  0
   10.2970   14.2355   -2.7328 C   0  0  0  0  0  0  0  0  0  0  0  0
   10.6772   14.5168   -1.4104 C   0  0  0  0  0  0  0  0  0  0  0  0
   11.4998   15.6105   -1.1320 C   0  0  0  0  0  0  0  0  0  0  0  0
   11.9315   16.4520   -2.1590 C   0  0  0  0  0  0  0  0  0  0  0  0
   11.5317   16.1872   -3.4715 C   0  0  0  0  0  0  0  0  0  0  0  0
   10.7242   15.0874   -3.7835 C   0  0  0  0  0  0  0  0  0  0  0  0
   10.3452   14.7920   -5.2227 C   0  0  0  0  0  0  0  0  0  0  0  0
    8.8948   14.6769   -5.4300 N   0  0  0  0  0  0  0  0  0  0  0  0
    8.1408   15.9238   -5.2350 C   0  0  0  0  0  0  0  0  0  0  0  0
    8.2414   16.8985   -6.4202 C   0  0  0  0  0  0  0  0  0  0  0  0
    7.8449   16.2088   -7.7331 C   0  0  0  0  0  0  0  0  0  0  0  0
    8.6357   14.9073   -7.9258 C   0  0  0  0  0  0  0  0  0  0  0  0
    8.5110   14.0129   -6.6821 C   0  0  0  0  0  0  0  0  0  0  0  0
   11.5681   11.4797   -1.5227 C   0  0  0  0  0  0  0  0  0  0  0  0
   10.8959   10.1716   -1.8102 C   0  0  0  0  0  0  0  0  0  0  0  0
    5.9484   10.4176    0.7760 C   0  0  0  0  0  0  0  0  0  0  0  0
    5.0336   10.2196    1.8082 C   0  0  0  0  0  0  0  0  0  0  0  0
    2.6091   11.2797    5.7189 C   0  0  0  0  0  0  0  0  0  0  0  0
    2.3642   10.0835    6.4264 C   0  0  0  0  0  0  0  0  0  0  0  0
    1.3965   10.0130    7.4515 C   0  0  0  0  0  0  0  0  0  0  0  0
    1.1141    8.9053    8.1663 O   0  0  0  0  0  0  0  0  0  0  0  0
    1.8130    7.7056    7.9142 C   0  0  0  0  0  0  0  0  0  0  0  0
   -1.7110   11.7650    9.9836 H   0  0  0  0  0  0  0  0  0  0  0  0
   -1.6826   12.5071    8.3480 H   0  0  0  0  0  0  0  0  0  0  0  0
   -0.4392   12.9610    9.5611 H   0  0  0  0  0  0  0  0  0  0  0  0
    0.3115   13.2985    7.3219 H   0  0  0  0  0  0  0  0  0  0  0  0
    3.0386   14.7150    3.9910 H   0  0  0  0  0  0  0  0  0  0  0  0
    4.4415   12.8081    3.2606 H   0  0  0  0  0  0  0  0  0  0  0  0
    3.7186    9.3634    3.9902 H   0  0  0  0  0  0  0  0  0  0  0  0
    4.9457    9.8106    5.1628 H   0  0  0  0  0  0  0  0  0  0  0  0
    7.0455   10.9096    4.4532 H   0  0  0  0  0  0  0  0  0  0  0  0
    8.6852   11.2569    2.6234 H   0  0  0  0  0  0  0  0  0  0  0  0
    7.7548   10.7966   -0.9636 H   0  0  0  0  0  0  0  0  0  0  0  0
    8.8455   13.4050   -3.8954 H   0  0  0  0  0  0  0  0  0  0  0  0
   10.3337   13.8867   -0.5906 H   0  0  0  0  0  0  0  0  0  0  0  0
   11.7895   15.8088   -0.0972 H   0  0  0  0  0  0  0  0  0  0  0  0
   12.5672   17.3131   -1.9408 H   0  0  0  0  0  0  0  0  0  0  0  0
   11.8596   16.8449   -4.2819 H   0  0  0  0  0  0  0  0  0  0  0  0
   10.7800   13.8185   -5.5113 H   0  0  0  0  0  0  0  0  0  0  0  0
   10.8240   15.5490   -5.8749 H   0  0  0  0  0  0  0  0  0  0  0  0
    8.4813   16.4009   -4.3034 H   0  0  0  0  0  0  0  0  0  0  0  0
    7.0813   15.6499   -5.0820 H   0  0  0  0  0  0  0  0  0  0  0  0
    9.2729   17.2860   -6.5007 H   0  0  0  0  0  0  0  0  0  0  0  0
    7.5986   17.7742   -6.2285 H   0  0  0  0  0  0  0  0  0  0  0  0
    7.9923   16.8866   -8.5902 H   0  0  0  0  0  0  0  0  0  0  0  0
    6.7647   15.9727   -7.7051 H   0  0  0  0  0  0  0  0  0  0  0  0
    9.6991   15.1403   -8.1154 H   0  0  0  0  0  0  0  0  0  0  0  0
    8.2760   14.3579   -8.8122 H   0  0  0  0  0  0  0  0  0  0  0  0
    9.1126   13.0961   -6.7926 H   0  0  0  0  0  0  0  0  0  0  0  0
    7.4592   13.6898   -6.5771 H   0  0  0  0  0  0  0  0  0  0  0  0
   12.0902   11.5974   -0.5707 H   0  0  0  0  0  0  0  0  0  0  0  0
   12.0009   12.0276   -2.3623 H   0  0  0  0  0  0  0  0  0  0  0  0
   10.9584    9.3738   -1.0649 H   0  0  0  0  0  0  0  0  0  0  0  0
   10.8300    9.8226   -2.8447 H   0  0  0  0  0  0  0  0  0  0  0  0
    5.6364   10.2774   -0.2631 H   0  0  0  0  0  0  0  0  0  0  0  0
    4.0088    9.9260    1.5632 H   0  0  0  0  0  0  0  0  0  0  0  0
    2.9351    9.1918    6.1766 H   0  0  0  0  0  0  0  0  0  0  0  0
    1.4147    6.9614    8.6162 H   0  0  0  0  0  0  0  0  0  0  0  0
    2.8974    7.8236    8.0865 H   0  0  0  0  0  0  0  0  0  0  0  0
    1.6526    7.3514    6.8805 H   0  0  0  0  0  0  0  0  0  0  0  0
  1  2  1  0
  1 44  1  0
  1 45  1  0
  1 46  1  0
  2  3  1  0
  3  4  2  0
  3 41  1  0
  4  5  1  0
  4 47  1  0
  5  6  2  0
  5 39  1  0
  6  7  1  0
  7  8  2  0
  7 48  1  0
  8  9  1  0
  8 49  1  0
  9 10  1  0
  9 39  2  0
 10 11  1  0
 10 50  1  0
 10 51  1  0
 11 12  2  0
 11 38  1  0
 12 13  1  0
 12 52  1  0
 13 14  2  0
 13 53  1  0
 14 15  1  0
 14 37  1  0
 15 16  1  0
 15 54  1  0
 16 17  2  0
 18 16  1  1
 18 19  1  0
 18 35  1  0
 18 36  1  0
 19 20  2  0
 19 21  1  0
 21 22  1  0
 21 55  1  0
 22 23  2  0
 22 27  1  0
 23 24  1  0
 23 56  1  0
 24 25  2  0
 24 57  1  0
 25 26  1  0
 25 58  1  0
 26 27  2  0
 26 59  1  0
 27 28  1  0
 28 29  1  0
 28 60  1  0
 28 61  1  0
 29 30  1  0
 29 34  1  0
 30 31  1  0
 30 62  1  0
 30 63  1  0
 31 32  1  0
 31 64  1  0
 31 65  1  0
 32 33  1  0
 32 66  1  0
 32 67  1  0
 33 34  1  0
 33 68  1  0
 33 69  1  0
 34 70  1  0
 34 71  1  0
 35 36  1  0
 35 72  1  0
 35 73  1  0
 36 74  1  0
 36 75  1  0
 37 38  2  0
 37 76  1  0
 38 77  1  0
 39 40  1  0
 40 41  2  0
 40 78  1  0
 41 42  1  0
 42 43  1  0
 43 79  1  0
 43 80  1  0
 43 81  1  0
M  END

