
     RDKit          3D

 30 30  0  0  0  0  0  0  0  0999 V2000
    3.4426   -0.3922   -1.4804 C   0  0  0  0  0  0  0  0  0  0  0  0
    2.7609   -0.2154   -0.1211 C   0  0  1  0  0  0  0  0  0  0  0  0
    2.9288    1.2016    0.4337 C   0  0  0  0  0  0  0  0  0  0  0  0
    1.2854   -0.6091   -0.1884 C   0  0  0  0  0  0  0  0  0  0  0  0
    3.3054   -1.1931    0.8390 O   0  0  0  0  0  0  0  0  0  0  0  0
    4.5783   -1.2029    1.1961 C   0  0  0  0  0  0  0  0  0  0  0  0
    5.4628   -0.4686    0.8136 O   0  0  0  0  0  0  0  0  0  0  0  0
    4.8536   -2.2167    2.1256 N   0  0  0  0  0  0  0  0  0  0  0  0
    6.2144   -2.3356    2.6446 C   0  0  0  0  0  0  0  0  0  0  0  0
    6.1682   -3.6699    3.4327 C   0  0  1  0  0  0  0  0  0  0  0  0
    6.5781   -4.4948    2.8258 H   0  0  0  0  0  0  0  0  0  0  0  0
    7.0104   -3.5824    4.7132 C   0  0  0  0  0  0  0  0  0  0  0  0
    8.1916   -3.7911    4.7210 O   0  0  0  0  0  0  0  0  0  0  0  0
    6.3236   -3.2005    5.7981 O   0  0  0  0  0  0  0  0  0  0  0  0
    4.7427   -3.8125    3.6950 N   0  0  0  0  0  0  0  0  0  0  0  0
    3.9622   -3.0988    2.7676 C   0  0  0  0  0  0  0  0  0  0  0  0
    2.7822   -3.2425    2.5980 O   0  0  0  0  0  0  0  0  0  0  0  0
    2.9552    0.2592   -2.2224 H   0  0  0  0  0  0  0  0  0  0  0  0
    3.3458   -1.4331   -1.8262 H   0  0  0  0  0  0  0  0  0  0  0  0
    4.5074   -0.1307   -1.4304 H   0  0  0  0  0  0  0  0  0  0  0  0
    2.4208    1.9177   -0.2307 H   0  0  0  0  0  0  0  0  0  0  0  0
    3.9880    1.4807    0.5042 H   0  0  0  0  0  0  0  0  0  0  0  0
    2.4707    1.2802    1.4319 H   0  0  0  0  0  0  0  0  0  0  0  0
    0.7472    0.0549   -0.8816 H   0  0  0  0  0  0  0  0  0  0  0  0
    0.8207   -0.5356    0.8058 H   0  0  0  0  0  0  0  0  0  0  0  0
    1.1780   -1.6468   -0.5371 H   0  0  0  0  0  0  0  0  0  0  0  0
    6.4544   -1.4817    3.3006 H   0  0  0  0  0  0  0  0  0  0  0  0
    6.9534   -2.3484    1.8344 H   0  0  0  0  0  0  0  0  0  0  0  0
    5.3834   -3.1290    5.5406 H   0  0  0  0  0  0  0  0  0  0  0  0
    4.3656   -4.7248    3.9386 H   0  0  0  0  0  0  0  0  0  0  0  0
  1  2  1  0
  1 18  1  0
  1 19  1  0
  1 20  1  0
  2  3  1  0
  2  4  1  0
  2  5  1  1
  3 21  1  0
  3 22  1  0
  3 23  1  0
  4 24  1  0
  4 25  1  0
  4 26  1  0
  5  6  1  0
  6  7  2  0
  6  8  1  0
  8  9  1  0
  8 16  1  0
  9 10  1  0
  9 27  1  0
  9 28  1  0
 10 11  1  6
 10 12  1  0
 10 15  1  0
 12 13  2  0
 12 14  1  0
 14 29  1  0
 15 16  1  0
 15 30  1  0
 16 17  2  0
M  END

