
     RDKit          3D

 50 52  0  0  0  0  0  0  0  0999 V2000
    0.8868    5.2525   -0.4074 C   0  0  0  0  0  0  0  0  0  0  0  0
    1.2318    4.1057   -1.3072 C   0  0  0  0  0  0  0  0  0  0  0  0
    2.0891    3.0233   -1.0987 C   0  0  0  0  0  0  0  0  0  0  0  0
    2.8804    2.6588    0.1316 C   0  0  2  0  0  0  0  0  0  0  0  0
    3.4290    1.7294   -0.1073 H   0  0  0  0  0  0  0  0  0  0  0  0
    2.0044    2.3787    1.3624 C   0  0  0  0  0  0  0  0  0  0  0  0
    3.8605    3.7341    0.3926 N   0  0  0  0  0  0  0  0  0  0  0  0
    4.8800    3.6599    1.3026 C   0  0  0  0  0  0  0  0  0  0  0  0
    4.8431    2.5995    2.0818 O   0  0  0  0  0  0  0  0  0  0  0  0
    5.9116    4.6197    1.4057 C   0  0  0  0  0  0  0  0  0  0  0  0
    5.9083    5.8217    0.6148 C   0  0  0  0  0  0  0  0  0  0  0  0
    6.9543    6.7177    0.7242 C   0  0  0  0  0  0  0  0  0  0  0  0
    8.0279    6.4988    1.6085 C   0  0  0  0  0  0  0  0  0  0  0  0
    8.0431    5.3206    2.3952 C   0  0  0  0  0  0  0  0  0  0  0  0
    9.1537    5.1199    3.2518 N   0  0  0  0  0  0  0  0  0  0  0  0
    9.1401    4.3783    4.7609 S   0  0  1  0  0  0  0  0  0  0  0  0
    7.9640    5.3259    5.7457 C   0  0  0  0  0  0  0  0  0  0  0  0
    8.5946    3.0290    4.6294 O   0  0  0  0  0  0  0  0  0  0  0  0
   10.4806    4.6166    5.2929 O   0  0  0  0  0  0  0  0  0  0  0  0
    7.0155    4.3900    2.3016 C   0  0  0  0  0  0  0  0  0  0  0  0
    2.0659    2.3090   -2.3240 C   0  0  0  0  0  0  0  0  0  0  0  0
    1.2705    2.8774   -3.2136 N   0  0  0  0  0  0  0  0  0  0  0  0
    0.7596    3.9637   -2.5915 N   0  0  0  0  0  0  0  0  0  0  0  0
   -0.1201    4.8136   -3.3224 C   0  0  0  0  0  0  0  0  0  0  0  0
    0.1826    5.1123   -4.6592 C   0  0  0  0  0  0  0  0  0  0  0  0
   -0.6691    5.9253   -5.4047 C   0  0  0  0  0  0  0  0  0  0  0  0
   -1.8170    6.4401   -4.8027 C   0  0  0  0  0  0  0  0  0  0  0  0
   -2.6320    7.2277   -5.5148 F   0  0  0  0  0  0  0  0  0  0  0  0
   -2.1388    6.1471   -3.4800 C   0  0  0  0  0  0  0  0  0  0  0  0
   -1.2897    5.3202   -2.7412 C   0  0  0  0  0  0  0  0  0  0  0  0
    1.6890    5.4031    0.3277 H   0  0  0  0  0  0  0  0  0  0  0  0
   -0.0457    5.0779    0.1555 H   0  0  0  0  0  0  0  0  0  0  0  0
    0.7591    6.1869   -0.9738 H   0  0  0  0  0  0  0  0  0  0  0  0
    2.6134    2.0879    2.2313 H   0  0  0  0  0  0  0  0  0  0  0  0
    1.3137    1.5527    1.1374 H   0  0  0  0  0  0  0  0  0  0  0  0
    1.4135    3.2636    1.6408 H   0  0  0  0  0  0  0  0  0  0  0  0
    4.0748    4.3158   -0.4105 H   0  0  0  0  0  0  0  0  0  0  0  0
    5.0763    6.0590   -0.0518 H   0  0  0  0  0  0  0  0  0  0  0  0
    6.9393    7.6310    0.1232 H   0  0  0  0  0  0  0  0  0  0  0  0
    8.8365    7.2275    1.6942 H   0  0  0  0  0  0  0  0  0  0  0  0
    9.9076    5.7987    3.1948 H   0  0  0  0  0  0  0  0  0  0  0  0
    6.9890    5.3157    5.2410 H   0  0  0  0  0  0  0  0  0  0  0  0
    8.3470    6.3474    5.8646 H   0  0  0  0  0  0  0  0  0  0  0  0
    7.9004    4.8171    6.7170 H   0  0  0  0  0  0  0  0  0  0  0  0
    7.0776    3.4698    2.8797 H   0  0  0  0  0  0  0  0  0  0  0  0
    2.6032    1.3937   -2.5761 H   0  0  0  0  0  0  0  0  0  0  0  0
    1.0830    4.6893   -5.1049 H   0  0  0  0  0  0  0  0  0  0  0  0
   -0.4538    6.1704   -6.4464 H   0  0  0  0  0  0  0  0  0  0  0  0
   -3.0561    6.5511   -3.0478 H   0  0  0  0  0  0  0  0  0  0  0  0
   -1.5571    5.0524   -1.7189 H   0  0  0  0  0  0  0  0  0  0  0  0
  1  2  1  0
  1 31  1  0
  1 32  1  0
  1 33  1  0
  2  3  2  0
  2 23  1  0
  3  4  1  0
  3 21  1  0
  4  5  1  6
  4  6  1  0
  4  7  1  0
  6 34  1  0
  6 35  1  0
  6 36  1  0
  7  8  1  0
  7 37  1  0
  8  9  2  0
  8 10  1  0
 10 11  2  0
 10 20  1  0
 11 12  1  0
 11 38  1  0
 12 13  2  0
 12 39  1  0
 13 14  1  0
 13 40  1  0
 14 15  1  0
 14 20  2  0
 16 15  1  6
 15 41  1  0
 16 17  1  0
 16 18  2  0
 16 19  2  0
 17 42  1  0
 17 43  1  0
 17 44  1  0
 20 45  1  0
 21 22  2  0
 21 46  1  0
 22 23  1  0
 23 24  1  0
 24 25  2  0
 24 30  1  0
 25 26  1  0
 25 47  1  0
 26 27  2  0
 26 48  1  0
 27 28  1  0
 27 29  1  0
 29 30  2  0
 29 49  1  0
 30 50  1  0
M  END

