
     RDKit          3D

 48 48  0  0  0  0  0  0  0  0999 V2000
    4.0281   -0.7840    1.1158 C   0  0  0  0  0  0  0  0  0  0  0  0
    2.9853   -0.3223    0.0953 C   0  0  0  0  0  0  0  0  0  0  0  0
    3.1116    1.1456   -0.3256 C   0  0  0  0  0  0  0  0  0  0  0  0
    4.3419    1.4420   -0.9920 N   0  0  0  0  0  0  0  0  0  0  0  0
    4.6180    2.5456   -1.8953 C   0  0  1  0  0  0  0  0  0  0  0  0
    3.9673    3.8896   -1.4743 C   0  0  0  0  0  0  0  0  0  0  0  0
    4.3531    4.4722   -0.1354 C   0  0  0  0  0  0  0  0  0  0  0  0
    3.5376    4.2182    1.0611 C   0  0  0  0  0  0  0  0  0  0  0  0
    3.9781    4.7771    2.2721 C   0  0  0  0  0  0  0  0  0  0  0  0
    3.2065    4.5549    3.3701 F   0  0  0  0  0  0  0  0  0  0  0  0
    5.1277    5.5256    2.4173 C   0  0  0  0  0  0  0  0  0  0  0  0
    5.9016    5.8353    1.2290 C   0  0  0  0  0  0  0  0  0  0  0  0
    5.4569    5.3053    0.0223 C   0  0  0  0  0  0  0  0  0  0  0  0
    6.1922    5.6072   -1.1070 F   0  0  0  0  0  0  0  0  0  0  0  0
    6.1780    2.6171   -2.1065 C   0  0  1  0  0  0  0  0  0  0  0  0
    6.8144    1.6758   -1.2374 O   0  0  0  0  0  0  0  0  0  0  0  0
    7.6205    2.2336   -0.1971 C   0  0  0  0  0  0  0  0  0  0  0  0
    6.6352    2.3732   -3.5752 C   0  0  1  0  0  0  0  0  0  0  0  0
    5.9816    3.4212   -4.4967 C   0  0  0  0  0  0  0  0  0  0  0  0
    8.1646    2.5547   -3.6342 C   0  0  0  0  0  0  0  0  0  0  0  0
    6.2845    0.9496   -4.0453 C   0  0  0  0  0  0  0  0  0  0  0  0
    3.8426   -1.8273    1.4110 H   0  0  0  0  0  0  0  0  0  0  0  0
    4.0000   -0.1643    2.0256 H   0  0  0  0  0  0  0  0  0  0  0  0
    5.0564   -0.7471    0.7179 H   0  0  0  0  0  0  0  0  0  0  0  0
    1.9762   -0.4352    0.5214 H   0  0  0  0  0  0  0  0  0  0  0  0
    3.0099   -0.9648   -0.8019 H   0  0  0  0  0  0  0  0  0  0  0  0
    3.1075    1.8185    0.5571 H   0  0  0  0  0  0  0  0  0  0  0  0
    2.2763    1.4726   -0.9623 H   0  0  0  0  0  0  0  0  0  0  0  0
    5.2130    0.9588   -0.7216 H   0  0  0  0  0  0  0  0  0  0  0  0
    4.1449    2.2257   -2.8442 H   0  0  0  0  0  0  0  0  0  0  0  0
    2.8692    3.7763   -1.5317 H   0  0  0  0  0  0  0  0  0  0  0  0
    4.2254    4.5824   -2.2910 H   0  0  0  0  0  0  0  0  0  0  0  0
    2.4819    3.9434    0.9741 H   0  0  0  0  0  0  0  0  0  0  0  0
    5.4316    5.8713    3.4055 H   0  0  0  0  0  0  0  0  0  0  0  0
    6.7579    6.5075    1.2498 H   0  0  0  0  0  0  0  0  0  0  0  0
    6.4882    3.6296   -1.8227 H   0  0  0  0  0  0  0  0  0  0  0  0
    7.9879    1.3907    0.4056 H   0  0  0  0  0  0  0  0  0  0  0  0
    7.0482    2.9266    0.4402 H   0  0  0  0  0  0  0  0  0  0  0  0
    8.4861    2.7694   -0.6195 H   0  0  0  0  0  0  0  0  0  0  0  0
    6.2104    4.4457   -4.1626 H   0  0  0  0  0  0  0  0  0  0  0  0
    4.8855    3.3210   -4.5501 H   0  0  0  0  0  0  0  0  0  0  0  0
    6.3622    3.3098   -5.5243 H   0  0  0  0  0  0  0  0  0  0  0  0
    8.4614    3.5620   -3.3006 H   0  0  0  0  0  0  0  0  0  0  0  0
    8.5257    2.4242   -4.6666 H   0  0  0  0  0  0  0  0  0  0  0  0
    8.6779    1.8155   -3.0019 H   0  0  0  0  0  0  0  0  0  0  0  0
    5.1966    0.7791   -4.1053 H   0  0  0  0  0  0  0  0  0  0  0  0
    6.7174    0.1956   -3.3703 H   0  0  0  0  0  0  0  0  0  0  0  0
    6.6891    0.7699   -5.0540 H   0  0  0  0  0  0  0  0  0  0  0  0
  1  2  1  0
  1 22  1  0
  1 23  1  0
  1 24  1  0
  2  3  1  0
  2 25  1  0
  2 26  1  0
  3  4  1  0
  3 27  1  0
  3 28  1  0
  4  5  1  0
  4 29  1  0
  5  6  1  0
  5 15  1  0
  5 30  1  6
  6  7  1  0
  6 31  1  0
  6 32  1  0
  7  8  2  0
  7 13  1  0
  8  9  1  0
  8 33  1  0
  9 10  1  0
  9 11  2  0
 11 12  1  0
 11 34  1  0
 12 13  2  0
 12 35  1  0
 13 14  1  0
 15 16  1  0
 15 18  1  0
 15 36  1  1
 16 17  1  0
 17 37  1  0
 17 38  1  0
 17 39  1  0
 18 19  1  6
 18 20  1  0
 18 21  1  0
 19 40  1  0
 19 41  1  0
 19 42  1  0
 20 43  1  0
 20 44  1  0
 20 45  1  0
 21 46  1  0
 21 47  1  0
 21 48  1  0
M  END

