
     RDKit          3D

 67 69  0  0  0  0  0  0  0  0999 V2000
    8.3586   -0.0523    1.2029 C   0  0  0  0  0  0  0  0  0  0  0  0
    7.0710   -0.4120    1.6550 O   0  0  0  0  0  0  0  0  0  0  0  0
    6.6113   -1.7661    1.5368 C   0  0  1  0  0  0  0  0  0  0  0  0
    7.7612   -2.7887    1.5641 C   0  0  0  0  0  0  0  0  0  0  0  0
    5.6883   -2.0175    2.7391 C   0  0  0  0  0  0  0  0  0  0  0  0
    5.6425   -1.1265    3.8178 C   0  0  0  0  0  0  0  0  0  0  0  0
    4.8189   -1.3859    4.9190 C   0  0  0  0  0  0  0  0  0  0  0  0
    3.9990   -2.5183    4.9832 C   0  0  0  0  0  0  0  0  0  0  0  0
    3.1178   -2.7581    6.1844 C   0  0  0  0  0  0  0  0  0  0  0  0
    4.0402   -3.4253    3.8965 C   0  0  0  0  0  0  0  0  0  0  0  0
    3.1416   -4.6504    3.8548 C   0  0  0  0  0  0  0  0  0  0  0  0
    1.7396   -4.2965    3.4638 C   0  0  0  0  0  0  0  0  0  0  0  0
    1.3248   -3.4340    2.4182 C   0  0  0  0  0  0  0  0  0  0  0  0
   -0.0525   -3.3159    2.2926 C   0  0  0  0  0  0  0  0  0  0  0  0
   -0.7857   -4.0970    3.2480 C   0  0  0  0  0  0  0  0  0  0  0  0
   -2.1785   -4.2553    3.4110 C   0  0  0  0  0  0  0  0  0  0  0  0
   -2.7300   -5.0868    4.4567 C   0  0  0  0  0  0  0  0  0  0  0  0
   -4.0977   -5.2382    4.6057 C   0  0  0  0  0  0  0  0  0  0  0  0
   -4.9647   -4.5725    3.7275 C   0  0  0  0  0  0  0  0  0  0  0  0
   -6.2897   -4.7188    3.8755 F   0  0  0  0  0  0  0  0  0  0  0  0
   -4.4788   -3.7514    2.6939 C   0  0  0  0  0  0  0  0  0  0  0  0
   -3.1156   -3.5924    2.5352 C   0  0  0  0  0  0  0  0  0  0  0  0
    0.3684   -4.9724    4.3209 S   0  0  0  0  0  0  0  0  0  0  0  0
    4.8869   -3.1676    2.8100 C   0  0  0  0  0  0  0  0  0  0  0  0
    5.8244   -1.8902    0.1978 C   0  0  2  0  0  0  0  0  0  0  0  0
    5.4395   -2.9256    0.1372 H   0  0  0  0  0  0  0  0  0  0  0  0
    6.7456   -1.6657   -0.8527 O   0  0  0  0  0  0  0  0  0  0  0  0
    4.5411   -0.9860    0.1521 C   0  0  2  0  0  0  0  0  0  0  0  0
    3.3722   -1.7991    0.1400 O   0  0  0  0  0  0  0  0  0  0  0  0
    4.4525   -0.0210   -1.0429 C   0  0  2  0  0  0  0  0  0  0  0  0
    3.4286    0.3986   -1.0003 H   0  0  0  0  0  0  0  0  0  0  0  0
    4.5406   -0.8779   -2.2011 O   0  0  0  0  0  0  0  0  0  0  0  0
    5.4459    1.1531   -1.1062 C   0  0  1  0  0  0  0  0  0  0  0  0
    5.2933    1.9341   -2.4186 C   0  0  0  0  0  0  0  0  0  0  0  0
    5.2806    2.0952    0.1006 C   0  0  0  0  0  0  0  0  0  0  0  0
    6.1718    3.1945    0.0578 O   0  0  0  0  0  0  0  0  0  0  0  0
    8.4273    1.0416    1.3165 H   0  0  0  0  0  0  0  0  0  0  0  0
    8.5240   -0.3138    0.1464 H   0  0  0  0  0  0  0  0  0  0  0  0
    9.1631   -0.4976    1.8154 H   0  0  0  0  0  0  0  0  0  0  0  0
    8.3517   -2.6785    2.4855 H   0  0  0  0  0  0  0  0  0  0  0  0
    8.4151   -2.6867    0.6883 H   0  0  0  0  0  0  0  0  0  0  0  0
    7.3458   -3.8064    1.5556 H   0  0  0  0  0  0  0  0  0  0  0  0
    6.2558   -0.2266    3.7904 H   0  0  0  0  0  0  0  0  0  0  0  0
    4.8092   -0.6777    5.7528 H   0  0  0  0  0  0  0  0  0  0  0  0
    3.2013   -1.9332    6.9069 H   0  0  0  0  0  0  0  0  0  0  0  0
    3.3947   -3.6886    6.7102 H   0  0  0  0  0  0  0  0  0  0  0  0
    2.0575   -2.8588    5.9036 H   0  0  0  0  0  0  0  0  0  0  0  0
    3.1327   -5.1659    4.8289 H   0  0  0  0  0  0  0  0  0  0  0  0
    3.5678   -5.3814    3.1370 H   0  0  0  0  0  0  0  0  0  0  0  0
    2.0400   -2.9068    1.7819 H   0  0  0  0  0  0  0  0  0  0  0  0
   -0.5430   -2.6880    1.5492 H   0  0  0  0  0  0  0  0  0  0  0  0
   -2.0536   -5.6024    5.1429 H   0  0  0  0  0  0  0  0  0  0  0  0
   -4.5199   -5.8642    5.3950 H   0  0  0  0  0  0  0  0  0  0  0  0
   -5.1923   -3.2535    2.0336 H   0  0  0  0  0  0  0  0  0  0  0  0
   -2.7407   -2.9569    1.7310 H   0  0  0  0  0  0  0  0  0  0  0  0
    4.9004   -3.8943    1.9943 H   0  0  0  0  0  0  0  0  0  0  0  0
    6.2277   -1.6023   -1.6730 H   0  0  0  0  0  0  0  0  0  0  0  0
    4.4755   -0.4007    1.0778 H   0  0  0  0  0  0  0  0  0  0  0  0
    3.3125   -2.1786   -0.7501 H   0  0  0  0  0  0  0  0  0  0  0  0
    4.2969   -0.3768   -2.9897 H   0  0  0  0  0  0  0  0  0  0  0  0
    6.4628    0.7313   -1.0636 H   0  0  0  0  0  0  0  0  0  0  0  0
    4.2539    2.2817   -2.5601 H   0  0  0  0  0  0  0  0  0  0  0  0
    5.5836    1.3341   -3.2965 H   0  0  0  0  0  0  0  0  0  0  0  0
    5.9349    2.8259   -2.3978 H   0  0  0  0  0  0  0  0  0  0  0  0
    5.4045    1.5297    1.0395 H   0  0  0  0  0  0  0  0  0  0  0  0
    4.2647    2.5275    0.1000 H   0  0  0  0  0  0  0  0  0  0  0  0
    7.0666    2.8544    0.1886 H   0  0  0  0  0  0  0  0  0  0  0  0
  1  2  1  0
  1 37  1  0
  1 38  1  0
  1 39  1  0
  3  2  1  1
  3  4  1  0
  3  5  1  0
  3 25  1  0
  4 40  1  0
  4 41  1  0
  4 42  1  0
  5  6  2  0
  5 24  1  0
  6  7  1  0
  6 43  1  0
  7  8  2  0
  7 44  1  0
  8  9  1  0
  8 10  1  0
  9 45  1  0
  9 46  1  0
  9 47  1  0
 10 11  1  0
 10 24  2  0
 11 12  1  0
 11 48  1  0
 11 49  1  0
 12 13  2  0
 12 23  1  0
 13 14  1  0
 13 50  1  0
 14 15  2  0
 14 51  1  0
 15 16  1  0
 15 23  1  0
 16 17  2  0
 16 22  1  0
 17 18  1  0
 17 52  1  0
 18 19  2  0
 18 53  1  0
 19 20  1  0
 19 21  1  0
 21 22  2  0
 21 54  1  0
 22 55  1  0
 24 56  1  0
 25 26  1  6
 25 27  1  0
 25 28  1  0
 27 57  1  0
 28 29  1  0
 28 30  1  0
 28 58  1  1
 29 59  1  0
 30 31  1  1
 30 32  1  0
 30 33  1  0
 32 60  1  0
 33 34  1  0
 33 35  1  0
 33 61  1  6
 34 62  1  0
 34 63  1  0
 34 64  1  0
 35 36  1  0
 35 65  1  0
 35 66  1  0
 36 67  1  0
M  END

