
     RDKit          3D

 68 70  0  0  0  0  0  0  0  0999 V2000
    5.1135   -0.6108    0.5535 C   0  0  0  0  0  0  0  0  0  0  0  0
    4.0899    0.5161    0.4663 C   0  0  0  0  0  0  0  0  0  0  0  0
    4.1370    1.3279   -0.7411 N   0  0  0  0  0  0  0  0  0  0  0  0
    4.2990    0.7158   -2.0444 C   0  0  0  0  0  0  0  0  0  0  0  0
    2.9613    0.2095   -2.6151 C   0  0  0  0  0  0  0  0  0  0  0  0
    3.7353    2.7345   -0.6587 C   0  0  0  0  0  0  0  0  0  0  0  0
    4.6155    3.5797    0.2680 C   0  0  0  0  0  0  0  0  0  0  0  0
    5.9761    3.5942   -0.1484 N   0  0  0  0  0  0  0  0  0  0  0  0
    6.7741    4.7762    0.1108 C   0  0  0  0  0  0  0  0  0  0  0  0
    6.1236    5.8297    0.2426 O   0  0  0  0  0  0  0  0  0  0  0  0
    8.1923    4.5640    0.1868 C   0  0  0  0  0  0  0  0  0  0  0  0
    8.7000    3.2249    0.4590 C   0  0  0  0  0  0  0  0  0  0  0  0
   10.0210    2.9815    0.7840 C   0  0  0  0  0  0  0  0  0  0  0  0
   10.5176    1.6777    1.0990 N   0  0  0  0  0  0  0  0  0  0  0  0
    9.9187    0.4557    1.0174 C   0  0  0  0  0  0  0  0  0  0  0  0
    8.7580    0.2452    0.6731 O   0  0  0  0  0  0  0  0  0  0  0  0
   10.7918   -0.5765    1.3833 N   0  0  0  0  0  0  0  0  0  0  0  0
   10.5627   -1.9510    1.4252 C   0  0  0  0  0  0  0  0  0  0  0  0
    9.3553   -2.5892    1.1100 C   0  0  0  0  0  0  0  0  0  0  0  0
    9.2449   -3.9833    1.1933 C   0  0  0  0  0  0  0  0  0  0  0  0
   10.3292   -4.7613    1.5893 C   0  0  0  0  0  0  0  0  0  0  0  0
   11.5469   -4.1420    1.9075 C   0  0  0  0  0  0  0  0  0  0  0  0
   11.6669   -2.7555    1.8271 C   0  0  0  0  0  0  0  0  0  0  0  0
   12.8076   -2.0553    2.1140 O   0  0  0  0  0  0  0  0  0  0  0  0
   13.9633   -2.7484    2.5253 C   0  0  0  0  0  0  0  0  0  0  0  0
   10.9489    4.0396    0.8509 C   0  0  0  0  0  0  0  0  0  0  0  0
   10.5032    5.3447    0.5160 C   0  0  0  0  0  0  0  0  0  0  0  0
    9.1852    5.6364    0.1622 C   0  0  0  0  0  0  0  0  0  0  0  0
    8.8590    6.9368   -0.2348 N   0  0  0  0  0  0  0  0  0  0  0  0
    7.9802    7.2552   -1.3657 C   0  0  0  0  0  0  0  0  0  0  0  0
    8.4060    8.6716   -1.7809 C   0  0  0  0  0  0  0  0  0  0  0  0
    8.9392    9.2678   -0.4722 C   0  0  0  0  0  0  0  0  0  0  0  0
    9.6826    8.0738    0.1321 C   0  0  0  0  0  0  0  0  0  0  0  0
    5.0093   -1.0815    1.5411 H   0  0  0  0  0  0  0  0  0  0  0  0
    6.1451   -0.2365    0.4763 H   0  0  0  0  0  0  0  0  0  0  0  0
    4.9491   -1.3958   -0.1988 H   0  0  0  0  0  0  0  0  0  0  0  0
    4.1882    1.2032    1.3154 H   0  0  0  0  0  0  0  0  0  0  0  0
    3.0568    0.1135    0.5141 H   0  0  0  0  0  0  0  0  0  0  0  0
    5.0157   -0.1094   -1.9556 H   0  0  0  0  0  0  0  0  0  0  0  0
    4.7337    1.4763   -2.7063 H   0  0  0  0  0  0  0  0  0  0  0  0
    2.5269   -0.5793   -1.9836 H   0  0  0  0  0  0  0  0  0  0  0  0
    3.1476   -0.2116   -3.6121 H   0  0  0  0  0  0  0  0  0  0  0  0
    2.2329    1.0270   -2.7166 H   0  0  0  0  0  0  0  0  0  0  0  0
    2.6865    2.7352   -0.3073 H   0  0  0  0  0  0  0  0  0  0  0  0
    3.7709    3.1481   -1.6739 H   0  0  0  0  0  0  0  0  0  0  0  0
    4.4388    3.2841    1.3292 H   0  0  0  0  0  0  0  0  0  0  0  0
    4.2526    4.6170    0.1921 H   0  0  0  0  0  0  0  0  0  0  0  0
    6.4730    2.7251   -0.2659 H   0  0  0  0  0  0  0  0  0  0  0  0
    8.0262    2.3841    0.5500 H   0  0  0  0  0  0  0  0  0  0  0  0
   11.4792    1.6911    1.4151 H   0  0  0  0  0  0  0  0  0  0  0  0
   11.7422   -0.3312    1.6358 H   0  0  0  0  0  0  0  0  0  0  0  0
    8.5193   -1.9713    0.7961 H   0  0  0  0  0  0  0  0  0  0  0  0
    8.2932   -4.4588    0.9416 H   0  0  0  0  0  0  0  0  0  0  0  0
   10.2435   -5.8485    1.6541 H   0  0  0  0  0  0  0  0  0  0  0  0
   12.3974   -4.7502    2.2166 H   0  0  0  0  0  0  0  0  0  0  0  0
   14.7409   -1.9918    2.6973 H   0  0  0  0  0  0  0  0  0  0  0  0
   14.3145   -3.4537    1.7507 H   0  0  0  0  0  0  0  0  0  0  0  0
   13.7931   -3.3070    3.4633 H   0  0  0  0  0  0  0  0  0  0  0  0
   12.0002    3.8590    1.0891 H   0  0  0  0  0  0  0  0  0  0  0  0
   11.2477    6.1403    0.4795 H   0  0  0  0  0  0  0  0  0  0  0  0
    6.9250    7.2179   -1.0555 H   0  0  0  0  0  0  0  0  0  0  0  0
    8.1077    6.5257   -2.1873 H   0  0  0  0  0  0  0  0  0  0  0  0
    7.5812    9.2485   -2.2283 H   0  0  0  0  0  0  0  0  0  0  0  0
    9.2236    8.6320   -2.5220 H   0  0  0  0  0  0  0  0  0  0  0  0
    8.1053    9.5695    0.1836 H   0  0  0  0  0  0  0  0  0  0  0  0
    9.5899   10.1440   -0.6223 H   0  0  0  0  0  0  0  0  0  0  0  0
    9.8010    8.1357    1.2282 H   0  0  0  0  0  0  0  0  0  0  0  0
   10.7109    8.0267   -0.2956 H   0  0  0  0  0  0  0  0  0  0  0  0
  1  2  1  0
  1 34  1  0
  1 35  1  0
  1 36  1  0
  2  3  1  0
  2 37  1  0
  2 38  1  0
  3  4  1  0
  3  6  1  0
  4  5  1  0
  4 39  1  0
  4 40  1  0
  5 41  1  0
  5 42  1  0
  5 43  1  0
  6  7  1  0
  6 44  1  0
  6 45  1  0
  7  8  1  0
  7 46  1  0
  7 47  1  0
  8  9  1  0
  8 48  1  0
  9 10  2  0
  9 11  1  0
 11 12  2  0
 11 28  1  0
 12 13  1  0
 12 49  1  0
 13 14  1  0
 13 26  2  0
 14 15  1  0
 14 50  1  0
 15 16  2  0
 15 17  1  0
 17 18  1  0
 17 51  1  0
 18 19  2  0
 18 23  1  0
 19 20  1  0
 19 52  1  0
 20 21  2  0
 20 53  1  0
 21 22  1  0
 21 54  1  0
 22 23  2  0
 22 55  1  0
 23 24  1  0
 24 25  1  0
 25 56  1  0
 25 57  1  0
 25 58  1  0
 26 27  1  0
 26 59  1  0
 27 28  2  0
 27 60  1  0
 28 29  1  0
 29 30  1  0
 29 33  1  0
 30 31  1  0
 30 61  1  0
 30 62  1  0
 31 32  1  0
 31 63  1  0
 31 64  1  0
 32 33  1  0
 32 65  1  0
 32 66  1  0
 33 67  1  0
 33 68  1  0
M  END

