
     RDKit          3D

 32 33  0  0  0  0  0  0  0  0999 V2000
    1.2428   -0.5618    1.1717 C   0  0  0  0  0  0  0  0  0  0  0  0
    2.6616   -0.3419    0.7068 C   0  0  0  0  0  0  0  0  0  0  0  0
    3.2538    0.9274    0.7018 C   0  0  0  0  0  0  0  0  0  0  0  0
    4.5689    1.1278    0.2821 C   0  0  0  0  0  0  0  0  0  0  0  0
    5.3583    0.0490   -0.1571 C   0  0  0  0  0  0  0  0  0  0  0  0
    6.6862    0.1942   -0.5891 N   0  0  0  0  0  0  0  0  0  0  0  0
    7.4380    1.3433   -0.6810 C   0  0  0  0  0  0  0  0  0  0  0  0
    7.0424    2.4589   -0.4011 O   0  0  0  0  0  0  0  0  0  0  0  0
    8.8810    1.1038   -1.1576 C   0  0  0  0  0  0  0  0  0  0  0  0
    9.7644    0.5562   -0.0576 C   0  0  0  0  0  0  0  0  0  0  0  0
   10.4124    1.3940    0.8646 C   0  0  0  0  0  0  0  0  0  0  0  0
   11.2045    0.8619    1.8839 C   0  0  0  0  0  0  0  0  0  0  0  0
   11.3678   -0.5217    2.0073 C   0  0  0  0  0  0  0  0  0  0  0  0
   10.7253   -1.3609    1.1032 C   0  0  0  0  0  0  0  0  0  0  0  0
   10.8559   -2.6869    1.1908 F   0  0  0  0  0  0  0  0  0  0  0  0
    9.9304   -0.8234    0.0881 C   0  0  0  0  0  0  0  0  0  0  0  0
    9.3064   -1.6622   -0.7605 F   0  0  0  0  0  0  0  0  0  0  0  0
    4.7563   -1.2296   -0.1552 C   0  0  0  0  0  0  0  0  0  0  0  0
    5.7464   -2.7631   -0.7437 Br  0  0  0  0  0  0  0  0  0  0  0  0
    3.4429   -1.4209    0.2667 C   0  0  0  0  0  0  0  0  0  0  0  0
    0.7398    0.3921    1.3880 H   0  0  0  0  0  0  0  0  0  0  0  0
    1.2110   -1.1717    2.0907 H   0  0  0  0  0  0  0  0  0  0  0  0
    0.6463   -1.0933    0.4120 H   0  0  0  0  0  0  0  0  0  0  0  0
    2.6742    1.7927    1.0349 H   0  0  0  0  0  0  0  0  0  0  0  0
    5.0108    2.1213    0.2830 H   0  0  0  0  0  0  0  0  0  0  0  0
    7.1468   -0.6745   -0.8501 H   0  0  0  0  0  0  0  0  0  0  0  0
    9.2532    2.0824   -1.4853 H   0  0  0  0  0  0  0  0  0  0  0  0
    8.8852    0.4212   -2.0209 H   0  0  0  0  0  0  0  0  0  0  0  0
   10.2865    2.4751    0.7732 H   0  0  0  0  0  0  0  0  0  0  0  0
   11.7032    1.5282    2.5910 H   0  0  0  0  0  0  0  0  0  0  0  0
   11.9824   -0.9664    2.7924 H   0  0  0  0  0  0  0  0  0  0  0  0
    3.0244   -2.4295    0.2497 H   0  0  0  0  0  0  0  0  0  0  0  0
  1  2  1  0
  1 21  1  0
  1 22  1  0
  1 23  1  0
  2  3  2  0
  2 20  1  0
  3  4  1  0
  3 24  1  0
  4  5  2  0
  4 25  1  0
  5  6  1  0
  5 18  1  0
  6  7  1  0
  6 26  1  0
  7  8  2  0
  7  9  1  0
  9 10  1  0
  9 27  1  0
  9 28  1  0
 10 11  2  0
 10 16  1  0
 11 12  1  0
 11 29  1  0
 12 13  2  0
 12 30  1  0
 13 14  1  0
 13 31  1  0
 14 15  1  0
 14 16  2  0
 16 17  1  0
 18 19  1  0
 18 20  2  0
 20 32  1  0
M  END

