
     RDKit          3D

 47 49  0  0  0  0  0  0  0  0999 V2000
    1.3636   -1.1495   -3.3841 C   0  0  0  0  0  0  0  0  0  0  0  0
    2.8513   -0.8304   -3.2380 C   0  0  0  0  0  0  0  0  0  0  0  0
    3.3015   -0.8342   -1.7747 C   0  0  0  0  0  0  0  0  0  0  0  0
    4.7353   -0.5634   -1.6172 N   0  0  0  0  0  0  0  0  0  0  0  0
    5.5386   -1.6225   -1.6893 N   0  0  0  0  0  0  0  0  0  0  0  0
    6.8336   -1.5038   -1.5894 C   0  0  0  0  0  0  0  0  0  0  0  0
    7.5941   -2.8035   -1.6840 C   0  0  0  0  0  0  0  0  0  0  0  0
    8.8197   -2.9029   -1.6365 O   0  0  0  0  0  0  0  0  0  0  0  0
    6.8096   -3.8956   -1.8310 N   0  0  0  0  0  0  0  0  0  0  0  0
    7.3959   -5.1323   -1.9338 N   0  0  0  0  0  0  0  0  0  0  0  0
    6.5863   -6.2203   -2.0834 C   0  0  0  0  0  0  0  0  0  0  0  0
    5.3648   -6.0836   -2.1211 O   0  0  0  0  0  0  0  0  0  0  0  0
    7.2437   -7.5383   -2.1937 C   0  0  0  0  0  0  0  0  0  0  0  0
    6.5533   -8.7849   -2.3413 C   0  0  0  0  0  0  0  0  0  0  0  0
    5.0799   -9.0285   -2.4132 C   0  0  0  0  0  0  0  0  0  0  0  0
    7.4103   -9.7965   -2.4158 N   0  0  0  0  0  0  0  0  0  0  0  0
    8.6463   -9.2600   -2.3232 N   0  0  0  0  0  0  0  0  0  0  0  0
    9.8218  -10.1076   -2.3677 C   0  0  0  0  0  0  0  0  0  0  0  0
    8.5879   -7.9150   -2.1891 C   0  0  0  0  0  0  0  0  0  0  0  0
   10.0331   -6.9804   -2.0510 Cl  0  0  0  0  0  0  0  0  0  0  0  0
    7.4794   -0.2133   -1.3967 C   0  0  0  0  0  0  0  0  0  0  0  0
    8.8748   -0.0165   -1.2698 C   0  0  0  0  0  0  0  0  0  0  0  0
    9.3799    1.2643   -1.0844 C   0  0  0  0  0  0  0  0  0  0  0  0
    8.5245    2.3792   -1.0214 C   0  0  0  0  0  0  0  0  0  0  0  0
    7.1531    2.2053   -1.1468 C   0  0  0  0  0  0  0  0  0  0  0  0
    6.6249    0.9162   -1.3328 C   0  0  0  0  0  0  0  0  0  0  0  0
    5.1656    0.7664   -1.4647 C   0  0  0  0  0  0  0  0  0  0  0  0
    4.3617    1.6843   -1.4467 O   0  0  0  0  0  0  0  0  0  0  0  0
    1.0592   -1.1435   -4.4421 H   0  0  0  0  0  0  0  0  0  0  0  0
    0.7394   -0.4108   -2.8545 H   0  0  0  0  0  0  0  0  0  0  0  0
    1.1227   -2.1447   -2.9744 H   0  0  0  0  0  0  0  0  0  0  0  0
    3.0705    0.1598   -3.6708 H   0  0  0  0  0  0  0  0  0  0  0  0
    3.4544   -1.5670   -3.7963 H   0  0  0  0  0  0  0  0  0  0  0  0
    3.1132   -1.8126   -1.3095 H   0  0  0  0  0  0  0  0  0  0  0  0
    2.7668   -0.0587   -1.2100 H   0  0  0  0  0  0  0  0  0  0  0  0
    5.7940   -3.8823   -1.8798 H   0  0  0  0  0  0  0  0  0  0  0  0
    8.4120   -5.1200   -1.8888 H   0  0  0  0  0  0  0  0  0  0  0  0
    4.5731   -8.6594   -1.5092 H   0  0  0  0  0  0  0  0  0  0  0  0
    4.8968  -10.1062   -2.5255 H   0  0  0  0  0  0  0  0  0  0  0  0
    4.6301   -8.4869   -3.2584 H   0  0  0  0  0  0  0  0  0  0  0  0
    9.4648  -11.1353   -2.4997 H   0  0  0  0  0  0  0  0  0  0  0  0
   10.3969  -10.0336   -1.4319 H   0  0  0  0  0  0  0  0  0  0  0  0
   10.4743   -9.8315   -3.2099 H   0  0  0  0  0  0  0  0  0  0  0  0
    9.5312   -0.8827   -1.3219 H   0  0  0  0  0  0  0  0  0  0  0  0
   10.4595    1.4043   -0.9871 H   0  0  0  0  0  0  0  0  0  0  0  0
    8.9397    3.3794   -0.8746 H   0  0  0  0  0  0  0  0  0  0  0  0
    6.4571    3.0449   -1.1053 H   0  0  0  0  0  0  0  0  0  0  0  0
  1  2  1  0
  1 29  1  0
  1 30  1  0
  1 31  1  0
  2  3  1  0
  2 32  1  0
  2 33  1  0
  3  4  1  0
  3 34  1  0
  3 35  1  0
  4  5  1  0
  4 27  1  0
  5  6  2  0
  6  7  1  0
  6 21  1  0
  7  8  2  0
  7  9  1  0
  9 10  1  0
  9 36  1  0
 10 11  1  0
 10 37  1  0
 11 12  2  0
 11 13  1  0
 13 14  1  0
 13 19  2  0
 14 15  1  0
 14 16  2  0
 15 38  1  0
 15 39  1  0
 15 40  1  0
 16 17  1  0
 17 18  1  0
 17 19  1  0
 18 41  1  0
 18 42  1  0
 18 43  1  0
 19 20  1  0
 21 22  1  0
 21 26  2  0
 22 23  2  0
 22 44  1  0
 23 24  1  0
 23 45  1  0
 24 25  2  0
 24 46  1  0
 25 26  1  0
 25 47  1  0
 26 27  1  0
 27 28  2  0
M  END

