
     RDKit          3D

 39 40  0  0  0  0  0  0  0  0999 V2000
    3.1902   -0.0970   -1.1364 C   0  0  0  0  0  0  0  0  0  0  0  0
    2.2509    0.3812   -0.0111 C   0  0  1  0  0  0  0  0  0  0  0  0
    1.4832   -0.7851    0.6446 C   0  0  0  0  0  0  0  0  0  0  0  0
    2.9148    1.3308    0.9902 C   0  0  0  0  0  0  0  0  0  0  0  0
    2.4331    2.6448    1.0625 C   0  0  0  0  0  0  0  0  0  0  0  0
    2.9619    3.6045    1.9302 C   0  0  0  0  0  0  0  0  0  0  0  0
    4.0176    3.2374    2.7624 C   0  0  0  0  0  0  0  0  0  0  0  0
    4.5237    1.9379    2.7244 C   0  0  0  0  0  0  0  0  0  0  0  0
    3.9972    0.9644    1.8469 C   0  0  0  0  0  0  0  0  0  0  0  0
    4.5485   -0.3129    1.7886 N   0  0  0  0  0  0  0  0  0  0  0  0
    5.4470   -0.8818    2.7881 C   0  0  1  0  0  0  0  0  0  0  0  0
    4.7438   -1.1919    4.1173 C   0  0  0  0  0  0  0  0  0  0  0  0
    6.1768   -2.0727    2.1627 C   0  0  0  0  0  0  0  0  0  0  0  0
    6.8816   -1.8815    0.9608 C   0  0  0  0  0  0  0  0  0  0  0  0
    7.5782   -2.9242    0.3493 C   0  0  0  0  0  0  0  0  0  0  0  0
    7.5734   -4.1916    0.9433 C   0  0  0  0  0  0  0  0  0  0  0  0
    8.6329   -5.7943    0.0280 I   0  0  0  0  0  0  0  0  0  0  0  0
    6.8808   -4.4105    2.1337 C   0  0  0  0  0  0  0  0  0  0  0  0
    6.1889   -3.3511    2.7346 C   0  0  0  0  0  0  0  0  0  0  0  0
    2.6239   -0.6656   -1.8923 H   0  0  0  0  0  0  0  0  0  0  0  0
    4.0006   -0.7474   -0.7736 H   0  0  0  0  0  0  0  0  0  0  0  0
    3.6616    0.7606   -1.6410 H   0  0  0  0  0  0  0  0  0  0  0  0
    1.4795    0.9922   -0.5082 H   0  0  0  0  0  0  0  0  0  0  0  0
    2.1368   -1.5164    1.1484 H   0  0  0  0  0  0  0  0  0  0  0  0
    0.9112   -1.3419   -0.1157 H   0  0  0  0  0  0  0  0  0  0  0  0
    0.7723   -0.4127    1.3984 H   0  0  0  0  0  0  0  0  0  0  0  0
    1.6042    2.9237    0.4044 H   0  0  0  0  0  0  0  0  0  0  0  0
    2.5526    4.6168    1.9525 H   0  0  0  0  0  0  0  0  0  0  0  0
    4.4558    3.9607    3.4554 H   0  0  0  0  0  0  0  0  0  0  0  0
    5.3477    1.6796    3.3902 H   0  0  0  0  0  0  0  0  0  0  0  0
    4.0012   -1.0037    1.2949 H   0  0  0  0  0  0  0  0  0  0  0  0
    6.2257   -0.1256    2.9902 H   0  0  0  0  0  0  0  0  0  0  0  0
    3.9725   -1.9681    3.9891 H   0  0  0  0  0  0  0  0  0  0  0  0
    4.2471   -0.2876    4.4972 H   0  0  0  0  0  0  0  0  0  0  0  0
    5.4562   -1.5335    4.8846 H   0  0  0  0  0  0  0  0  0  0  0  0
    6.8802   -0.8932    0.4942 H   0  0  0  0  0  0  0  0  0  0  0  0
    8.1211   -2.7479   -0.5812 H   0  0  0  0  0  0  0  0  0  0  0  0
    6.8728   -5.3973    2.5997 H   0  0  0  0  0  0  0  0  0  0  0  0
    5.6558   -3.5467    3.6659 H   0  0  0  0  0  0  0  0  0  0  0  0
  1  2  1  0
  1 20  1  0
  1 21  1  0
  1 22  1  0
  2  3  1  0
  2  4  1  0
  2 23  1  6
  3 24  1  0
  3 25  1  0
  3 26  1  0
  4  5  2  0
  4  9  1  0
  5  6  1  0
  5 27  1  0
  6  7  2  0
  6 28  1  0
  7  8  1  0
  7 29  1  0
  8  9  2  0
  8 30  1  0
  9 10  1  0
 10 11  1  0
 10 31  1  0
 11 12  1  0
 11 13  1  0
 11 32  1  1
 12 33  1  0
 12 34  1  0
 12 35  1  0
 13 14  2  0
 13 19  1  0
 14 15  1  0
 14 36  1  0
 15 16  2  0
 15 37  1  0
 16 17  1  0
 16 18  1  0
 18 19  2  0
 18 38  1  0
 19 39  1  0
M  END

