
     RDKit          3D

 42 43  0  0  0  0  0  0  0  0999 V2000
    2.7145   -0.5299    3.1014 C   0  0  0  0  0  0  0  0  0  0  0  0
    2.6553   -1.6579    2.0713 C   0  0  0  0  0  0  0  0  0  0  0  0
    3.3682   -1.3519    0.7487 C   0  0  0  0  0  0  0  0  0  0  0  0
    4.8033   -1.1212    0.8940 N   0  0  0  0  0  0  0  0  0  0  0  0
    5.3907    0.1404    0.8300 C   0  0  0  0  0  0  0  0  0  0  0  0
    4.7938    1.1754    0.6538 O   0  0  0  0  0  0  0  0  0  0  0  0
    6.9023   -0.0244    1.0035 C   0  0  2  0  0  0  0  0  0  0  0  0
    7.1992    0.5327    1.9042 H   0  0  0  0  0  0  0  0  0  0  0  0
    7.6894    0.4507   -0.2367 C   0  0  0  0  0  0  0  0  0  0  0  0
    7.8750   -0.7774   -0.9975 N   0  0  0  0  0  0  0  0  0  0  0  0
    8.1112   -0.8821   -2.3439 C   0  0  0  0  0  0  0  0  0  0  0  0
    8.3537   -1.9352   -2.8999 O   0  0  0  0  0  0  0  0  0  0  0  0
    8.0243    0.3276   -2.9347 O   0  0  0  0  0  0  0  0  0  0  0  0
    8.1778    0.4926   -4.3845 C   0  0  1  0  0  0  0  0  0  0  0  0
    7.0885   -0.2949   -5.1198 C   0  0  0  0  0  0  0  0  0  0  0  0
    7.9823    1.9975   -4.5775 C   0  0  0  0  0  0  0  0  0  0  0  0
    9.5864    0.0689   -4.8138 C   0  0  0  0  0  0  0  0  0  0  0  0
    8.0207   -1.9218   -0.1098 C   0  0  0  0  0  0  0  0  0  0  0  0
    7.1276   -1.5517    1.0960 C   0  0  2  0  0  0  0  0  0  0  0  0
    7.5761   -1.8876    2.0421 H   0  0  0  0  0  0  0  0  0  0  0  0
    5.7271   -2.1591    1.0001 C   0  0  0  0  0  0  0  0  0  0  0  0
    5.4432   -3.3328    0.9990 O   0  0  0  0  0  0  0  0  0  0  0  0
    2.1496   -0.7960    4.0087 H   0  0  0  0  0  0  0  0  0  0  0  0
    2.2937    0.4066    2.7013 H   0  0  0  0  0  0  0  0  0  0  0  0
    3.7502   -0.3172    3.4128 H   0  0  0  0  0  0  0  0  0  0  0  0
    1.6033   -1.8831    1.8238 H   0  0  0  0  0  0  0  0  0  0  0  0
    3.0745   -2.5869    2.4925 H   0  0  0  0  0  0  0  0  0  0  0  0
    2.9555   -0.4444    0.2836 H   0  0  0  0  0  0  0  0  0  0  0  0
    3.2430   -2.1969    0.0549 H   0  0  0  0  0  0  0  0  0  0  0  0
    8.6590    0.8892    0.0673 H   0  0  0  0  0  0  0  0  0  0  0  0
    7.1471    1.2048   -0.8200 H   0  0  0  0  0  0  0  0  0  0  0  0
    6.0911    0.0074   -4.7636 H   0  0  0  0  0  0  0  0  0  0  0  0
    7.2089   -1.3744   -4.9646 H   0  0  0  0  0  0  0  0  0  0  0  0
    7.1430   -0.0838   -6.1993 H   0  0  0  0  0  0  0  0  0  0  0  0
    6.9840    2.3074   -4.2328 H   0  0  0  0  0  0  0  0  0  0  0  0
    8.0808    2.2610   -5.6415 H   0  0  0  0  0  0  0  0  0  0  0  0
    8.7354    2.5625   -4.0075 H   0  0  0  0  0  0  0  0  0  0  0  0
    9.7397   -1.0066   -4.6596 H   0  0  0  0  0  0  0  0  0  0  0  0
   10.3448    0.6227   -4.2383 H   0  0  0  0  0  0  0  0  0  0  0  0
    9.7332    0.2987   -5.8807 H   0  0  0  0  0  0  0  0  0  0  0  0
    9.0710   -2.0491    0.2142 H   0  0  0  0  0  0  0  0  0  0  0  0
    7.7134   -2.8476   -0.6132 H   0  0  0  0  0  0  0  0  0  0  0  0
  1  2  1  0
  1 23  1  0
  1 24  1  0
  1 25  1  0
  2  3  1  0
  2 26  1  0
  2 27  1  0
  3  4  1  0
  3 28  1  0
  3 29  1  0
  4  5  1  0
  4 21  1  0
  5  6  2  0
  5  7  1  0
  7  8  1  1
  7  9  1  0
  7 19  1  0
  9 10  1  0
  9 30  1  0
  9 31  1  0
 10 11  1  0
 10 18  1  0
 11 12  2  0
 11 13  1  0
 14 13  1  1
 14 15  1  0
 14 16  1  0
 14 17  1  0
 15 32  1  0
 15 33  1  0
 15 34  1  0
 16 35  1  0
 16 36  1  0
 16 37  1  0
 17 38  1  0
 17 39  1  0
 17 40  1  0
 18 19  1  0
 18 41  1  0
 18 42  1  0
 19 20  1  1
 19 21  1  0
 21 22  2  0
M  END

