
     RDKit          3D

 47 49  0  0  0  0  0  0  0  0999 V2000
    1.0030    0.0789    0.0059 C   0  0  0  0  0  0  0  0  0  0  0  0
    2.5213   -0.0366   -0.1376 C   0  0  1  0  0  0  0  0  0  0  0  0
    3.1991    0.3128    1.0957 N   0  0  0  0  0  0  0  0  0  0  0  0
    4.4103    1.1375    1.2174 C   0  0  0  0  0  0  0  0  0  0  0  0
    4.9687    1.1948    2.6039 C   0  0  0  0  0  0  0  0  0  0  0  0
    5.8734    0.1899    3.0793 C   0  0  0  0  0  0  0  0  0  0  0  0
    6.3348    0.1981    4.3741 C   0  0  0  0  0  0  0  0  0  0  0  0
    5.9288    1.2046    5.3177 C   0  0  0  0  0  0  0  0  0  0  0  0
    6.4208    1.1113    6.6772 C   0  0  0  0  0  0  0  0  0  0  0  0
    7.2218    0.2774    7.0839 O   0  0  0  0  0  0  0  0  0  0  0  0
    5.9366    2.0425    7.5836 O   0  0  0  0  0  0  0  0  0  0  0  0
    5.0770    2.2512    4.8077 C   0  0  0  0  0  0  0  0  0  0  0  0
    4.6137    2.2328    3.5062 C   0  0  0  0  0  0  0  0  0  0  0  0
    3.0366   -1.4291   -0.5055 C   0  0  0  0  0  0  0  0  0  0  0  0
    3.9898   -1.5860   -1.5254 C   0  0  0  0  0  0  0  0  0  0  0  0
    4.4843   -2.8358   -1.8747 C   0  0  0  0  0  0  0  0  0  0  0  0
    4.0609   -3.9906   -1.1714 C   0  0  0  0  0  0  0  0  0  0  0  0
    4.5579   -5.2618   -1.4714 N   0  0  0  0  0  0  0  0  0  0  0  0
    4.2643   -6.4313   -0.6309 C   0  0  0  0  0  0  0  0  0  0  0  0
    5.2427   -7.5050   -1.1310 C   0  0  0  0  0  0  0  0  0  0  0  0
    5.4720   -7.1270   -2.5945 C   0  0  0  0  0  0  0  0  0  0  0  0
    5.2673   -5.6194   -2.6323 C   0  0  0  0  0  0  0  0  0  0  0  0
    5.6221   -4.8668   -3.5092 O   0  0  0  0  0  0  0  0  0  0  0  0
    3.1187   -3.8320   -0.1300 C   0  0  0  0  0  0  0  0  0  0  0  0
    2.6246   -2.5742    0.1974 C   0  0  0  0  0  0  0  0  0  0  0  0
    0.7119    1.1121    0.2473 H   0  0  0  0  0  0  0  0  0  0  0  0
    0.6153   -0.5795    0.7982 H   0  0  0  0  0  0  0  0  0  0  0  0
    0.5226   -0.2091   -0.9404 H   0  0  0  0  0  0  0  0  0  0  0  0
    2.8745    0.6726   -0.9007 H   0  0  0  0  0  0  0  0  0  0  0  0
    2.8962   -0.1490    1.9548 H   0  0  0  0  0  0  0  0  0  0  0  0
    4.1146    2.1315    0.8280 H   0  0  0  0  0  0  0  0  0  0  0  0
    5.1217    0.7355    0.4710 H   0  0  0  0  0  0  0  0  0  0  0  0
    6.2162   -0.5954    2.3964 H   0  0  0  0  0  0  0  0  0  0  0  0
    7.0306   -0.5635    4.7307 H   0  0  0  0  0  0  0  0  0  0  0  0
    5.2105    2.5278    7.1732 H   0  0  0  0  0  0  0  0  0  0  0  0
    4.8117    3.1097    5.4332 H   0  0  0  0  0  0  0  0  0  0  0  0
    3.9753    3.0547    3.1617 H   0  0  0  0  0  0  0  0  0  0  0  0
    4.3439   -0.7105   -2.0763 H   0  0  0  0  0  0  0  0  0  0  0  0
    5.1933   -2.9405   -2.6913 H   0  0  0  0  0  0  0  0  0  0  0  0
    3.2115   -6.7424   -0.7608 H   0  0  0  0  0  0  0  0  0  0  0  0
    4.4145   -6.1900    0.4315 H   0  0  0  0  0  0  0  0  0  0  0  0
    4.8454   -8.5194   -0.9900 H   0  0  0  0  0  0  0  0  0  0  0  0
    6.1873   -7.4354   -0.5694 H   0  0  0  0  0  0  0  0  0  0  0  0
    4.7205   -7.5792   -3.2659 H   0  0  0  0  0  0  0  0  0  0  0  0
    6.4618   -7.3831   -2.9960 H   0  0  0  0  0  0  0  0  0  0  0  0
    2.7588   -4.6941    0.4294 H   0  0  0  0  0  0  0  0  0  0  0  0
    1.8963   -2.4984    1.0085 H   0  0  0  0  0  0  0  0  0  0  0  0
  1  2  1  0
  1 26  1  0
  1 27  1  0
  1 28  1  0
  2  3  1  0
  2 14  1  0
  2 29  1  6
  3  4  1  0
  3 30  1  0
  4  5  1  0
  4 31  1  0
  4 32  1  0
  5  6  2  0
  5 13  1  0
  6  7  1  0
  6 33  1  0
  7  8  2  0
  7 34  1  0
  8  9  1  0
  8 12  1  0
  9 10  2  0
  9 11  1  0
 11 35  1  0
 12 13  2  0
 12 36  1  0
 13 37  1  0
 14 15  2  0
 14 25  1  0
 15 16  1  0
 15 38  1  0
 16 17  2  0
 16 39  1  0
 17 18  1  0
 17 24  1  0
 18 19  1  0
 18 22  1  0
 19 20  1  0
 19 40  1  0
 19 41  1  0
 20 21  1  0
 20 42  1  0
 20 43  1  0
 21 22  1  0
 21 44  1  0
 21 45  1  0
 22 23  2  0
 24 25  2  0
 24 46  1  0
 25 47  1  0
M  END

