
     RDKit          3D

 64 69  0  0  0  0  0  0  0  0999 V2000
    1.2273    0.5065   -0.6076 O   0  0  0  0  0  0  0  0  0  0  0  0
    2.3747    0.2726   -0.4205 C   0  0  0  0  0  0  0  0  0  0  0  0
    3.1244    1.0795    0.7771 C   0  0  0  0  0  0  0  0  0  0  0  0
    3.9943    0.2293    1.4547 N   0  0  0  0  0  0  0  0  0  0  0  0
    5.0685   -0.4942    0.7491 C   0  0  1  0  0  0  0  0  0  0  0  0
    6.0926    0.4964    0.1500 C   0  0  0  0  0  0  0  0  0  0  0  0
    6.9532    1.1950    1.2109 C   0  0  0  0  0  0  0  0  0  0  0  0
    7.6884    0.2110    2.1359 C   0  0  2  0  0  0  0  0  0  0  0  0
    8.8291   -0.5822    1.4437 C   0  0  0  0  0  0  0  0  0  0  0  0
    9.7846    0.2412    0.6192 C   0  0  0  0  0  0  0  0  0  0  0  0
   10.7587    1.0849    1.1829 C   0  0  0  0  0  0  0  0  0  0  0  0
   10.8125    1.1299    2.5417 F   0  0  0  0  0  0  0  0  0  0  0  0
   11.6337    1.8652    0.4560 C   0  0  0  0  0  0  0  0  0  0  0  0
   11.6039    1.8687   -0.9721 C   0  0  0  0  0  0  0  0  0  0  0  0
   12.4927    2.6860   -1.7839 C   0  0  0  0  0  0  0  0  0  0  0  0
   13.5542    3.4405   -1.2036 C   0  0  0  0  0  0  0  0  0  0  0  0
   14.4048    4.2171   -1.9587 C   0  0  0  0  0  0  0  0  0  0  0  0
   14.2653    4.3155   -3.3831 C   0  0  0  0  0  0  0  0  0  0  0  0
   15.0945    5.0899   -4.2070 C   0  0  0  0  0  0  0  0  0  0  0  0
   14.8626    5.1132   -5.5937 C   0  0  0  0  0  0  0  0  0  0  0  0
   13.7976    4.3522   -6.0957 C   0  0  0  0  0  0  0  0  0  0  0  0
   12.9832    3.6021   -5.3616 N   0  0  0  0  0  0  0  0  0  0  0  0
   13.1948    3.5625   -4.0043 C   0  0  0  0  0  0  0  0  0  0  0  0
   12.3521    2.7763   -3.2002 C   0  0  0  0  0  0  0  0  0  0  0  0
   10.6224    1.0178   -1.5678 C   0  0  0  0  0  0  0  0  0  0  0  0
    9.7774    0.2621   -0.7816 C   0  0  0  0  0  0  0  0  0  0  0  0
    8.8458   -0.5252   -1.4120 F   0  0  0  0  0  0  0  0  0  0  0  0
    6.6531   -0.7252    2.7862 C   0  0  0  0  0  0  0  0  0  0  0  0
    5.7663   -1.4371    1.7521 C   0  0  0  0  0  0  0  0  0  0  0  0
    4.3312   -1.3565   -0.3319 C   0  0  0  0  0  0  0  0  0  0  0  0
    3.2802   -0.6628   -1.2185 C   0  0  2  0  0  0  0  0  0  0  0  0
    3.8209    0.0959   -2.4322 C   0  0  1  0  0  0  0  0  0  0  0  0
    4.0208   -0.6623   -3.7242 C   0  0  0  0  0  0  0  0  0  0  0  0
    2.9238    0.3596   -3.6171 C   0  0  0  0  0  0  0  0  0  0  0  0
    2.3525    1.5109    1.4222 H   0  0  0  0  0  0  0  0  0  0  0  0
    3.6535    1.8641    0.2160 H   0  0  0  0  0  0  0  0  0  0  0  0
    3.6498   -0.1896    2.3166 H   0  0  0  0  0  0  0  0  0  0  0  0
    5.5936    1.2505   -0.4773 H   0  0  0  0  0  0  0  0  0  0  0  0
    6.7359   -0.0738   -0.5346 H   0  0  0  0  0  0  0  0  0  0  0  0
    6.3212    1.8626    1.8245 H   0  0  0  0  0  0  0  0  0  0  0  0
    7.6782    1.8415    0.6984 H   0  0  0  0  0  0  0  0  0  0  0  0
    8.1588    0.8067    2.9338 H   0  0  0  0  0  0  0  0  0  0  0  0
    8.4140   -1.3662    0.7925 H   0  0  0  0  0  0  0  0  0  0  0  0
    9.3806   -1.1110    2.2397 H   0  0  0  0  0  0  0  0  0  0  0  0
   12.3342    2.4858    1.0131 H   0  0  0  0  0  0  0  0  0  0  0  0
   13.7207    3.4003   -0.1248 H   0  0  0  0  0  0  0  0  0  0  0  0
   15.2122    4.7734   -1.4727 H   0  0  0  0  0  0  0  0  0  0  0  0
   15.9109    5.6671   -3.7620 H   0  0  0  0  0  0  0  0  0  0  0  0
   15.4872    5.7037   -6.2677 H   0  0  0  0  0  0  0  0  0  0  0  0
   13.6005    4.3600   -7.1778 H   0  0  0  0  0  0  0  0  0  0  0  0
   11.5656    2.2439   -3.7343 H   0  0  0  0  0  0  0  0  0  0  0  0
   10.5273    0.9367   -2.6486 H   0  0  0  0  0  0  0  0  0  0  0  0
    6.0223   -0.1468    3.4864 H   0  0  0  0  0  0  0  0  0  0  0  0
    7.1541   -1.4905    3.4004 H   0  0  0  0  0  0  0  0  0  0  0  0
    5.0052   -2.0627    2.2545 H   0  0  0  0  0  0  0  0  0  0  0  0
    6.3746   -2.1341    1.1578 H   0  0  0  0  0  0  0  0  0  0  0  0
    3.8430   -2.1929    0.1943 H   0  0  0  0  0  0  0  0  0  0  0  0
    5.1002   -1.7915   -0.9827 H   0  0  0  0  0  0  0  0  0  0  0  0
    2.5897   -1.4321   -1.5970 H   0  0  0  0  0  0  0  0  0  0  0  0
    4.5714    0.8580   -2.2103 H   0  0  0  0  0  0  0  0  0  0  0  0
    3.7371   -1.7187   -3.7460 H   0  0  0  0  0  0  0  0  0  0  0  0
    4.9087   -0.4258   -4.3147 H   0  0  0  0  0  0  0  0  0  0  0  0
    1.8911    0.0009   -3.5692 H   0  0  0  0  0  0  0  0  0  0  0  0
    3.0405    1.3109   -4.1414 H   0  0  0  0  0  0  0  0  0  0  0  0
  1  2  2  0
  2  3  1  0
  2 31  1  0
  3  4  1  0
  3 35  1  0
  3 36  1  0
  5  4  1  1
  4 37  1  0
  5  6  1  0
  5 29  1  0
  5 30  1  0
  6  7  1  0
  6 38  1  0
  6 39  1  0
  7  8  1  0
  7 40  1  0
  7 41  1  0
  8  9  1  0
  8 28  1  0
  8 42  1  1
  9 10  1  0
  9 43  1  0
  9 44  1  0
 10 11  2  0
 10 26  1  0
 11 12  1  0
 11 13  1  0
 13 14  2  0
 13 45  1  0
 14 15  1  0
 14 25  1  0
 15 16  2  0
 15 24  1  0
 16 17  1  0
 16 46  1  0
 17 18  2  0
 17 47  1  0
 18 19  1  0
 18 23  1  0
 19 20  2  0
 19 48  1  0
 20 21  1  0
 20 49  1  0
 21 22  2  0
 21 50  1  0
 22 23  1  0
 23 24  2  0
 24 51  1  0
 25 26  2  0
 25 52  1  0
 26 27  1  0
 28 29  1  0
 28 53  1  0
 28 54  1  0
 29 55  1  0
 29 56  1  0
 30 31  1  0
 30 57  1  0
 30 58  1  0
 31 32  1  0
 31 59  1  6
 32 33  1  0
 32 34  1  0
 32 60  1  1
 33 34  1  0
 33 61  1  0
 33 62  1  0
 34 63  1  0
 34 64  1  0
M  END

