
     RDKit          3D

 93 97  0  0  0  0  0  0  0  0999 V2000
    0.6741    0.9125   -2.1444 C   0  0  0  0  0  0  0  0  0  0  0  0
    2.0754    0.7291   -1.5600 C   0  0  0  0  0  0  0  0  0  0  0  0
    2.8103    2.0481   -1.3018 C   0  0  0  0  0  0  0  0  0  0  0  0
    4.2141    1.8735   -0.7153 C   0  0  0  0  0  0  0  0  0  0  0  0
    4.9484    3.1925   -0.4578 C   0  0  0  0  0  0  0  0  0  0  0  0
    6.3514    3.0171    0.1311 C   0  0  0  0  0  0  0  0  0  0  0  0
    7.0837    4.3387    0.3864 C   0  0  0  0  0  0  0  0  0  0  0  0
    8.4821    4.1417    0.9778 C   0  0  0  0  0  0  0  0  0  0  0  0
    9.3042    5.4301    1.2699 C   0  0  2  0  0  0  0  0  0  0  0  0
   10.6786    5.0055    1.8644 C   0  0  0  0  0  0  0  0  0  0  0  0
   11.6554    6.1347    2.2031 C   0  0  0  0  0  0  0  0  0  0  0  0
   12.9791    5.6288    2.7869 C   0  0  0  0  0  0  0  0  0  0  0  0
   13.9791    6.7460    3.0993 C   0  0  0  0  0  0  0  0  0  0  0  0
   15.3061    6.2491    3.6805 C   0  0  0  0  0  0  0  0  0  0  0  0
   16.3120    7.3665    3.9715 C   0  0  0  0  0  0  0  0  0  0  0  0
   17.6404    6.8728    4.5533 C   0  0  0  0  0  0  0  0  0  0  0  0
   18.6415    7.9948    4.8317 C   0  0  0  0  0  0  0  0  0  0  0  0
    8.5540    6.3873    2.1979 C   0  0  0  0  0  0  0  0  0  0  0  0
    8.1067    6.1668    3.4952 C   0  0  0  0  0  0  0  0  0  0  0  0
    7.4138    7.1818    4.1914 C   0  0  0  0  0  0  0  0  0  0  0  0
    6.9255    6.9546    5.5754 C   0  0  0  0  0  0  0  0  0  0  0  0
    7.6560    6.1635    6.4853 C   0  0  0  0  0  0  0  0  0  0  0  0
    7.2028    5.9454    7.7828 C   0  0  0  0  0  0  0  0  0  0  0  0
    5.9921    6.5186    8.2149 C   0  0  0  0  0  0  0  0  0  0  0  0
    5.5192    6.2974    9.5523 C   0  0  0  0  0  0  0  0  0  0  0  0
    5.1367    6.1182   10.6342 N   0  0  0  0  0  0  0  0  0  0  0  0
    5.2512    7.3112    7.3183 C   0  0  0  0  0  0  0  0  0  0  0  0
    5.7148    7.5212    6.0231 C   0  0  0  0  0  0  0  0  0  0  0  0
    7.1947    8.4160    3.5433 C   0  0  0  0  0  0  0  0  0  0  0  0
    7.6438    8.6463    2.2425 C   0  0  0  0  0  0  0  0  0  0  0  0
    8.3233    7.6281    1.5655 C   0  0  0  0  0  0  0  0  0  0  0  0
    8.8949    7.5756    0.2163 C   0  0  0  0  0  0  0  0  0  0  0  0
    8.9438    8.5313   -0.8041 C   0  0  0  0  0  0  0  0  0  0  0  0
    9.5681    8.2078   -2.0094 C   0  0  0  0  0  0  0  0  0  0  0  0
   10.1463    6.9385   -2.2224 C   0  0  0  0  0  0  0  0  0  0  0  0
   10.8064    6.6131   -3.5123 C   0  0  0  0  0  0  0  0  0  0  0  0
   11.5361    7.5874   -4.2232 C   0  0  0  0  0  0  0  0  0  0  0  0
   12.1575    7.2886   -5.4321 C   0  0  0  0  0  0  0  0  0  0  0  0
   12.0670    5.9919   -5.9721 C   0  0  0  0  0  0  0  0  0  0  0  0
   12.7060    5.6769   -7.2186 C   0  0  0  0  0  0  0  0  0  0  0  0
   13.2232    5.4221   -8.2268 N   0  0  0  0  0  0  0  0  0  0  0  0
   11.3419    5.0080   -5.2741 C   0  0  0  0  0  0  0  0  0  0  0  0
   10.7250    5.3194   -4.0661 C   0  0  0  0  0  0  0  0  0  0  0  0
   10.0837    5.9838   -1.1832 C   0  0  0  0  0  0  0  0  0  0  0  0
    9.4674    6.3000    0.0217 C   0  0  0  0  0  0  0  0  0  0  0  0
    0.1757   -0.0553   -2.3144 H   0  0  0  0  0  0  0  0  0  0  0  0
    0.7082    1.4428   -3.1110 H   0  0  0  0  0  0  0  0  0  0  0  0
    0.0321    1.5029   -1.4690 H   0  0  0  0  0  0  0  0  0  0  0  0
    2.6807    0.1044   -2.2421 H   0  0  0  0  0  0  0  0  0  0  0  0
    2.0090    0.1600   -0.6147 H   0  0  0  0  0  0  0  0  0  0  0  0
    2.2051    2.6743   -0.6197 H   0  0  0  0  0  0  0  0  0  0  0  0
    2.8778    2.6180   -2.2476 H   0  0  0  0  0  0  0  0  0  0  0  0
    4.8187    1.2467   -1.3972 H   0  0  0  0  0  0  0  0  0  0  0  0
    4.1459    1.3041    0.2305 H   0  0  0  0  0  0  0  0  0  0  0  0
    4.3440    3.8201    0.2232 H   0  0  0  0  0  0  0  0  0  0  0  0
    5.0186    3.7618   -1.4034 H   0  0  0  0  0  0  0  0  0  0  0  0
    6.9556    2.3879   -0.5492 H   0  0  0  0  0  0  0  0  0  0  0  0
    6.2805    2.4486    1.0773 H   0  0  0  0  0  0  0  0  0  0  0  0
    6.4777    4.9635    1.0651 H   0  0  0  0  0  0  0  0  0  0  0  0
    7.1565    4.9018   -0.5604 H   0  0  0  0  0  0  0  0  0  0  0  0
    9.0785    3.5066    0.2986 H   0  0  0  0  0  0  0  0  0  0  0  0
    8.4014    3.5712    1.9205 H   0  0  0  0  0  0  0  0  0  0  0  0
   11.1576    4.3135    1.1488 H   0  0  0  0  0  0  0  0  0  0  0  0
   10.4842    4.4053    2.7714 H   0  0  0  0  0  0  0  0  0  0  0  0
   11.1857    6.8317    2.9189 H   0  0  0  0  0  0  0  0  0  0  0  0
   11.8645    6.7269    1.2955 H   0  0  0  0  0  0  0  0  0  0  0  0
   13.4418    4.9143    2.0806 H   0  0  0  0  0  0  0  0  0  0  0  0
   12.7787    5.0496    3.7077 H   0  0  0  0  0  0  0  0  0  0  0  0
   13.5173    7.4627    3.8038 H   0  0  0  0  0  0  0  0  0  0  0  0
   14.1782    7.3222    2.1766 H   0  0  0  0  0  0  0  0  0  0  0  0
   15.7609    5.5229    2.9810 H   0  0  0  0  0  0  0  0  0  0  0  0
   15.1090    5.6837    4.6106 H   0  0  0  0  0  0  0  0  0  0  0  0
   15.8576    8.0949    4.6692 H   0  0  0  0  0  0  0  0  0  0  0  0
   16.5097    7.9299    3.0402 H   0  0  0  0  0  0  0  0  0  0  0  0
   18.0907    6.1409    3.8580 H   0  0  0  0  0  0  0  0  0  0  0  0
   17.4424    6.3146    5.4867 H   0  0  0  0  0  0  0  0  0  0  0  0
   18.8913    8.5470    3.9101 H   0  0  0  0  0  0  0  0  0  0  0  0
   19.5829    7.6041    5.2501 H   0  0  0  0  0  0  0  0  0  0  0  0
   18.2357    8.7253    5.5519 H   0  0  0  0  0  0  0  0  0  0  0  0
    8.2644    5.1965    3.9723 H   0  0  0  0  0  0  0  0  0  0  0  0
    8.6110    5.7319    6.1793 H   0  0  0  0  0  0  0  0  0  0  0  0
    7.7883    5.3368    8.4747 H   0  0  0  0  0  0  0  0  0  0  0  0
    4.3063    7.7520    7.6421 H   0  0  0  0  0  0  0  0  0  0  0  0
    5.1114    8.1168    5.3353 H   0  0  0  0  0  0  0  0  0  0  0  0
    6.6860    9.2198    4.0797 H   0  0  0  0  0  0  0  0  0  0  0  0
    7.4679    9.6153    1.7688 H   0  0  0  0  0  0  0  0  0  0  0  0
    8.4960    9.5192   -0.6704 H   0  0  0  0  0  0  0  0  0  0  0  0
    9.5844    8.9458   -2.8143 H   0  0  0  0  0  0  0  0  0  0  0  0
   11.6402    8.5919   -3.8085 H   0  0  0  0  0  0  0  0  0  0  0  0
   12.7258    8.0552   -5.9623 H   0  0  0  0  0  0  0  0  0  0  0  0
   11.2590    4.0023   -5.6907 H   0  0  0  0  0  0  0  0  0  0  0  0
   10.1451    4.5491   -3.5539 H   0  0  0  0  0  0  0  0  0  0  0  0
   10.5488    5.0047   -1.3224 H   0  0  0  0  0  0  0  0  0  0  0  0
  1  2  1  0
  1 46  1  0
  1 47  1  0
  1 48  1  0
  2  3  1  0
  2 49  1  0
  2 50  1  0
  3  4  1  0
  3 51  1  0
  3 52  1  0
  4  5  1  0
  4 53  1  0
  4 54  1  0
  5  6  1  0
  5 55  1  0
  5 56  1  0
  6  7  1  0
  6 57  1  0
  6 58  1  0
  7  8  1  0
  7 59  1  0
  7 60  1  0
  9  8  1  6
  8 61  1  0
  8 62  1  0
  9 10  1  0
  9 18  1  0
  9 45  1  0
 10 11  1  0
 10 63  1  0
 10 64  1  0
 11 12  1  0
 11 65  1  0
 11 66  1  0
 12 13  1  0
 12 67  1  0
 12 68  1  0
 13 14  1  0
 13 69  1  0
 13 70  1  0
 14 15  1  0
 14 71  1  0
 14 72  1  0
 15 16  1  0
 15 73  1  0
 15 74  1  0
 16 17  1  0
 16 75  1  0
 16 76  1  0
 17 77  1  0
 17 78  1  0
 17 79  1  0
 18 19  2  0
 18 31  1  0
 19 20  1  0
 19 80  1  0
 20 21  1  0
 20 29  2  0
 21 22  2  0
 21 28  1  0
 22 23  1  0
 22 81  1  0
 23 24  2  0
 23 82  1  0
 24 25  1  0
 24 27  1  0
 25 26  3  0
 27 28  2  0
 27 83  1  0
 28 84  1  0
 29 30  1  0
 29 85  1  0
 30 31  2  0
 30 86  1  0
 31 32  1  0
 32 33  2  0
 32 45  1  0
 33 34  1  0
 33 87  1  0
 34 35  2  0
 34 88  1  0
 35 36  1  0
 35 44  1  0
 36 37  2  0
 36 43  1  0
 37 38  1  0
 37 89  1  0
 38 39  2  0
 38 90  1  0
 39 40  1  0
 39 42  1  0
 40 41  3  0
 42 43  2  0
 42 91  1  0
 43 92  1  0
 44 45  2  0
 44 93  1  0
M  END

