
     RDKit          3D

 54 57  0  0  0  0  0  0  0  0999 V2000
    3.6647    2.6656   -3.5021 C   0  0  0  0  0  0  0  0  0  0  0  0
    4.4302    1.9419   -2.5667 O   0  0  0  0  0  0  0  0  0  0  0  0
    4.6538    2.5685   -1.3479 C   0  0  0  0  0  0  0  0  0  0  0  0
    4.2222    3.7170   -1.1416 O   0  0  0  0  0  0  0  0  0  0  0  0
    5.4221    1.7705   -0.4390 C   0  0  0  0  0  0  0  0  0  0  0  0
    5.9932    0.4937   -0.7861 C   0  0  0  0  0  0  0  0  0  0  0  0
    6.8400   -0.1692    0.0886 C   0  0  0  0  0  0  0  0  0  0  0  0
    7.1501    0.3990    1.3429 C   0  0  0  0  0  0  0  0  0  0  0  0
    8.1082   -0.2609    2.1573 O   0  0  0  0  0  0  0  0  0  0  0  0
    9.1672    0.3611    2.6801 C   0  0  0  0  0  0  0  0  0  0  0  0
    9.9059    1.5755    2.3505 C   0  0  0  0  0  0  0  0  0  0  0  0
    9.7495    2.5459    1.2968 C   0  0  0  0  0  0  0  0  0  0  0  0
    9.8775    3.9335    1.5891 C   0  0  0  0  0  0  0  0  0  0  0  0
    9.4121    4.8855    0.7124 C   0  0  0  0  0  0  0  0  0  0  0  0
    8.8491    4.4691   -0.5390 C   0  0  0  0  0  0  0  0  0  0  0  0
    8.2842    5.2929   -1.4013 O   0  0  0  0  0  0  0  0  0  0  0  0
    7.8835    6.6370   -1.0383 C   0  0  0  0  0  0  0  0  0  0  0  0
    6.8480    7.1136   -2.0193 C   0  0  0  0  0  0  0  0  0  0  0  0
    7.1027    8.2159   -2.8450 C   0  0  0  0  0  0  0  0  0  0  0  0
    6.1371    8.6751   -3.7449 C   0  0  0  0  0  0  0  0  0  0  0  0
    4.9110    8.0099   -3.8193 C   0  0  0  0  0  0  0  0  0  0  0  0
    3.5873    8.6264   -5.0462 Br  0  0  0  0  0  0  0  0  0  0  0  0
    4.6423    6.9013   -3.0100 C   0  0  0  0  0  0  0  0  0  0  0  0
    5.6097    6.4559   -2.1079 C   0  0  0  0  0  0  0  0  0  0  0  0
    8.9054    3.1144   -0.9277 C   0  0  0  0  0  0  0  0  0  0  0  0
    9.3667    2.1617   -0.0404 C   0  0  0  0  0  0  0  0  0  0  0  0
    9.4944    0.8706   -0.3453 O   0  0  0  0  0  0  0  0  0  0  0  0
   10.8275    1.8262    3.3149 N   0  0  0  0  0  0  0  0  0  0  0  0
   10.7329    0.8189    4.1529 N   0  0  0  0  0  0  0  0  0  0  0  0
   11.3677    0.7769    4.9445 H   0  0  0  0  0  0  0  0  0  0  0  0
    9.7525   -0.0950    3.8556 C   0  0  0  0  0  0  0  0  0  0  0  0
    9.4241   -1.2877    4.6853 C   0  0  0  0  0  0  0  0  0  0  0  0
    6.5054    1.5777    1.7658 C   0  0  0  0  0  0  0  0  0  0  0  0
    5.6644    2.2517    0.8973 C   0  0  0  0  0  0  0  0  0  0  0  0
    3.5035    1.9987   -4.3618 H   0  0  0  0  0  0  0  0  0  0  0  0
    4.1837    3.5781   -3.8450 H   0  0  0  0  0  0  0  0  0  0  0  0
    2.6908    2.9739   -3.0863 H   0  0  0  0  0  0  0  0  0  0  0  0
    5.7320    0.0439   -1.7450 H   0  0  0  0  0  0  0  0  0  0  0  0
    7.2641   -1.1442   -0.1698 H   0  0  0  0  0  0  0  0  0  0  0  0
   10.2651    4.2160    2.5685 H   0  0  0  0  0  0  0  0  0  0  0  0
    9.4458    5.9405    0.9802 H   0  0  0  0  0  0  0  0  0  0  0  0
    8.7733    7.2870   -1.0455 H   0  0  0  0  0  0  0  0  0  0  0  0
    7.4713    6.6057   -0.0175 H   0  0  0  0  0  0  0  0  0  0  0  0
    8.0664    8.7308   -2.7903 H   0  0  0  0  0  0  0  0  0  0  0  0
    6.3375    9.5361   -4.3843 H   0  0  0  0  0  0  0  0  0  0  0  0
    3.6871    6.3781   -3.0707 H   0  0  0  0  0  0  0  0  0  0  0  0
    5.3697    5.5775   -1.4975 H   0  0  0  0  0  0  0  0  0  0  0  0
    8.5329    2.8379   -1.9136 H   0  0  0  0  0  0  0  0  0  0  0  0
    8.7561    0.5822   -0.9153 H   0  0  0  0  0  0  0  0  0  0  0  0
    9.3508   -1.0365    5.7562 H   0  0  0  0  0  0  0  0  0  0  0  0
   10.1722   -2.0915    4.5754 H   0  0  0  0  0  0  0  0  0  0  0  0
    8.4550   -1.6865    4.3565 H   0  0  0  0  0  0  0  0  0  0  0  0
    6.6740    1.9596    2.7763 H   0  0  0  0  0  0  0  0  0  0  0  0
    5.1541    3.1636    1.2115 H   0  0  0  0  0  0  0  0  0  0  0  0
  1  2  1  0
  1 35  1  0
  1 36  1  0
  1 37  1  0
  2  3  1  0
  3  4  2  0
  3  5  1  0
  5  6  2  0
  5 34  1  0
  6  7  1  0
  6 38  1  0
  7  8  2  0
  7 39  1  0
  8  9  1  0
  8 33  1  0
  9 10  1  0
 10 11  1  0
 10 31  2  0
 11 12  1  0
 11 28  2  0
 12 13  2  0
 12 26  1  0
 13 14  1  0
 13 40  1  0
 14 15  2  0
 14 41  1  0
 15 16  1  0
 15 25  1  0
 16 17  1  0
 17 18  1  0
 17 42  1  0
 17 43  1  0
 18 19  2  0
 18 24  1  0
 19 20  1  0
 19 44  1  0
 20 21  2  0
 20 45  1  0
 21 22  1  0
 21 23  1  0
 23 24  2  0
 23 46  1  0
 24 47  1  0
 25 26  2  0
 25 48  1  0
 26 27  1  0
 27 49  1  0
 28 29  1  0
 29 30  1  0
 29 31  1  0
 31 32  1  0
 32 50  1  0
 32 51  1  0
 32 52  1  0
 33 34  2  0
 33 53  1  0
 34 54  1  0
M  END

