
     RDKit          3D

 34 37  0  0  0  0  0  0  0  0999 V2000
    4.1997    0.7411    2.2471 C   0  0  0  0  0  0  0  0  0  0  0  0
    3.7190    0.4916    0.8894 N   0  0  0  0  0  0  0  0  0  0  0  0
    3.1914    1.3752   -0.0396 C   0  0  0  0  0  0  0  0  0  0  0  0
    2.7658    2.6094    0.1703 N   0  0  0  0  0  0  0  0  0  0  0  0
    2.2280    3.1970    1.4120 C   0  0  0  0  0  0  0  0  0  0  0  0
    2.1059    2.5085    2.4011 O   0  0  0  0  0  0  0  0  0  0  0  0
    1.8645    4.5657    1.2128 C   0  0  0  0  0  0  0  0  0  0  0  0
    1.3624    5.5441    2.1263 C   0  0  0  0  0  0  0  0  0  0  0  0
    1.1386    6.7003    1.5437 N   0  0  0  0  0  0  0  0  0  0  0  0
    1.4767    6.5023    0.2238 N   0  0  0  0  0  0  0  0  0  0  0  0
    1.3881    7.4731   -0.7838 C   0  0  0  0  0  0  0  0  0  0  0  0
    1.7739    7.0296   -2.0556 C   0  0  0  0  0  0  0  0  0  0  0  0
    2.1995    5.7259   -2.2657 C   0  0  0  0  0  0  0  0  0  0  0  0
    2.2818    4.7885   -1.2448 N   0  0  0  0  0  0  0  0  0  0  0  0
    1.9170    5.2425   -0.0369 C   0  0  0  0  0  0  0  0  0  0  0  0
    3.1486    0.8313   -1.2999 N   0  0  0  0  0  0  0  0  0  0  0  0
    3.5932   -0.4141   -1.1701 C   0  0  0  0  0  0  0  0  0  0  0  0
    3.7344   -1.4343   -2.1564 C   0  0  0  0  0  0  0  0  0  0  0  0
    4.2304   -2.6564   -1.7522 C   0  0  0  0  0  0  0  0  0  0  0  0
    4.5904   -2.8941   -0.3951 C   0  0  0  0  0  0  0  0  0  0  0  0
    4.4640   -1.9133    0.6011 C   0  0  0  0  0  0  0  0  0  0  0  0
    3.9636   -0.6833    0.2029 C   0  0  0  0  0  0  0  0  0  0  0  0
    4.4863    1.7918    2.3499 H   0  0  0  0  0  0  0  0  0  0  0  0
    5.0867    0.1129    2.4116 H   0  0  0  0  0  0  0  0  0  0  0  0
    3.4265    0.5242    2.9930 H   0  0  0  0  0  0  0  0  0  0  0  0
    2.6249    3.2406   -0.6907 H   0  0  0  0  0  0  0  0  0  0  0  0
    1.1742    5.4211    3.1927 H   0  0  0  0  0  0  0  0  0  0  0  0
    1.0336    8.4567   -0.4964 H   0  0  0  0  0  0  0  0  0  0  0  0
    1.7320    7.7251   -2.8958 H   0  0  0  0  0  0  0  0  0  0  0  0
    2.4871    5.3834   -3.2606 H   0  0  0  0  0  0  0  0  0  0  0  0
    3.4508   -1.2276   -3.1886 H   0  0  0  0  0  0  0  0  0  0  0  0
    4.3509   -3.4638   -2.4765 H   0  0  0  0  0  0  0  0  0  0  0  0
    4.9744   -3.8782   -0.1186 H   0  0  0  0  0  0  0  0  0  0  0  0
    4.7404   -2.1265    1.6340 H   0  0  0  0  0  0  0  0  0  0  0  0
  1  2  1  0
  1 23  1  0
  1 24  1  0
  1 25  1  0
  2  3  1  0
  2 22  1  0
  3  4  1  0
  3 16  2  0
  4  5  1  0
  4 26  1  0
  5  6  2  0
  5  7  1  0
  7  8  1  0
  7 15  2  0
  8  9  2  0
  8 27  1  0
  9 10  1  0
 10 11  1  0
 10 15  1  0
 11 12  2  0
 11 28  1  0
 12 13  1  0
 12 29  1  0
 13 14  2  0
 13 30  1  0
 14 15  1  0
 16 17  1  0
 17 18  1  0
 17 22  2  0
 18 19  2  0
 18 31  1  0
 19 20  1  0
 19 32  1  0
 20 21  2  0
 20 33  1  0
 21 22  1  0
 21 34  1  0
M  END

