
     RDKit          3D

 70 74  0  0  0  0  0  0  0  0999 V2000
    2.7916   -4.9294    4.6385 C   0  0  0  0  0  0  0  0  0  0  0  0
    4.1959   -4.3089    4.6981 C   0  0  2  0  0  0  0  0  0  0  0  0
    4.1959   -3.0108    5.5156 C   0  0  0  0  0  0  0  0  0  0  0  0
    4.8494   -4.0892    3.3161 C   0  0  2  0  0  0  0  0  0  0  0  0
    5.8315   -3.6113    3.4540 H   0  0  0  0  0  0  0  0  0  0  0  0
    4.0482   -3.1184    2.3364 C   0  0  0  0  0  0  0  0  0  0  0  0
    4.7399   -3.0320    1.0892 N   0  0  0  0  0  0  0  0  0  0  0  0
    5.5141   -1.8354    0.8363 C   0  0  0  0  0  0  0  0  0  0  0  0
    5.1131   -0.8142    1.3514 O   0  0  0  0  0  0  0  0  0  0  0  0
    6.7231   -1.9370    0.0122 C   0  0  0  0  0  0  0  0  0  0  0  0
    7.3495   -0.8716   -0.6049 C   0  0  0  0  0  0  0  0  0  0  0  0
    8.4739   -1.4011   -1.1926 N   0  0  0  0  0  0  0  0  0  0  0  0
    9.4920   -0.7556   -1.9521 C   0  0  0  0  0  0  0  0  0  0  0  0
    9.4233    0.6778   -2.1507 C   0  0  0  0  0  0  0  0  0  0  0  0
    8.4342    1.3803   -1.8575 O   0  0  0  0  0  0  0  0  0  0  0  0
   10.5488    1.2655   -2.7271 N   0  0  0  0  0  0  0  0  0  0  0  0
   10.6001    2.6748   -3.0481 C   0  0  0  0  0  0  0  0  0  0  0  0
   11.3805    3.5446   -2.0400 C   0  0  2  0  0  0  0  0  0  0  0  0
   12.4246    3.1757   -2.0592 H   0  0  0  0  0  0  0  0  0  0  0  0
   10.8487    3.4177   -0.5755 C   0  0  0  0  0  0  0  0  0  0  0  0
   10.7527    4.7583    0.2161 C   0  0  0  0  0  0  0  0  0  0  0  0
   11.0093    5.9928   -0.6574 C   0  0  1  0  0  0  0  0  0  0  0  0
   10.8932    6.9245   -0.0762 H   0  0  0  0  0  0  0  0  0  0  0  0
   12.3289    5.7781   -1.4403 C   0  0  0  0  0  0  0  0  0  0  0  0
   11.4664    5.0181   -2.4832 C   0  0  2  0  0  0  0  0  0  0  0  0
   11.7578    5.0912   -3.5460 H   0  0  0  0  0  0  0  0  0  0  0  0
   10.2477    5.9086   -2.0256 C   0  0  2  0  0  0  0  0  0  0  0  0
   10.2432    7.2593   -2.7610 C   0  0  0  0  0  0  0  0  0  0  0  0
    8.8149    5.3664   -2.0409 C   0  0  0  0  0  0  0  0  0  0  0  0
   10.4993   -1.6142   -2.4577 C   0  0  0  0  0  0  0  0  0  0  0  0
   10.5298   -2.9833   -2.1788 C   0  0  0  0  0  0  0  0  0  0  0  0
    9.5532   -3.5895   -1.3867 C   0  0  0  0  0  0  0  0  0  0  0  0
    8.4936   -2.7676   -0.8987 C   0  0  0  0  0  0  0  0  0  0  0  0
    7.4334   -3.1079   -0.1682 N   0  0  0  0  0  0  0  0  0  0  0  0
    4.8786   -4.2715    0.3934 C   0  0  0  0  0  0  0  0  0  0  0  0
    5.6833   -5.2817    1.3117 C   0  0  0  0  0  0  0  0  0  0  0  0
    5.0671   -5.3203    2.6024 N   0  0  0  0  0  0  0  0  0  0  0  0
    2.4426   -5.1650    5.6549 H   0  0  0  0  0  0  0  0  0  0  0  0
    2.7554   -5.8759    4.0717 H   0  0  0  0  0  0  0  0  0  0  0  0
    2.0553   -4.2423    4.1924 H   0  0  0  0  0  0  0  0  0  0  0  0
    4.8573   -5.0249    5.2182 H   0  0  0  0  0  0  0  0  0  0  0  0
    3.5156   -2.2561    5.0902 H   0  0  0  0  0  0  0  0  0  0  0  0
    5.2016   -2.5657    5.5706 H   0  0  0  0  0  0  0  0  0  0  0  0
    3.8618   -3.2095    6.5449 H   0  0  0  0  0  0  0  0  0  0  0  0
    3.9908   -2.1187    2.7826 H   0  0  0  0  0  0  0  0  0  0  0  0
    3.0333   -3.5258    2.2018 H   0  0  0  0  0  0  0  0  0  0  0  0
    7.1184    0.1827   -0.6996 H   0  0  0  0  0  0  0  0  0  0  0  0
   11.4250    0.7627   -2.6781 H   0  0  0  0  0  0  0  0  0  0  0  0
    9.5595    3.0135   -3.1218 H   0  0  0  0  0  0  0  0  0  0  0  0
   11.0601    2.8057   -4.0461 H   0  0  0  0  0  0  0  0  0  0  0  0
   11.4836    2.7103   -0.0204 H   0  0  0  0  0  0  0  0  0  0  0  0
    9.8582    2.9442   -0.6101 H   0  0  0  0  0  0  0  0  0  0  0  0
   11.4856    4.7706    1.0416 H   0  0  0  0  0  0  0  0  0  0  0  0
    9.7606    4.8358    0.6918 H   0  0  0  0  0  0  0  0  0  0  0  0
   13.1207    5.1997   -0.9355 H   0  0  0  0  0  0  0  0  0  0  0  0
   12.7688    6.7081   -1.8246 H   0  0  0  0  0  0  0  0  0  0  0  0
   11.2297    7.7445   -2.7867 H   0  0  0  0  0  0  0  0  0  0  0  0
    9.5420    7.9597   -2.2761 H   0  0  0  0  0  0  0  0  0  0  0  0
    9.9106    7.1289   -3.8048 H   0  0  0  0  0  0  0  0  0  0  0  0
    8.6949    4.3843   -1.5695 H   0  0  0  0  0  0  0  0  0  0  0  0
    8.4435    5.2786   -3.0759 H   0  0  0  0  0  0  0  0  0  0  0  0
    8.1449    6.0718   -1.5190 H   0  0  0  0  0  0  0  0  0  0  0  0
   11.2562   -1.1923   -3.1186 H   0  0  0  0  0  0  0  0  0  0  0  0
   11.3352   -3.5896   -2.6018 H   0  0  0  0  0  0  0  0  0  0  0  0
    9.5553   -4.6501   -1.1448 H   0  0  0  0  0  0  0  0  0  0  0  0
    5.4452   -4.1491   -0.5314 H   0  0  0  0  0  0  0  0  0  0  0  0
    3.8827   -4.7064    0.1937 H   0  0  0  0  0  0  0  0  0  0  0  0
    6.6991   -4.8652    1.3533 H   0  0  0  0  0  0  0  0  0  0  0  0
    5.6948   -6.2857    0.8677 H   0  0  0  0  0  0  0  0  0  0  0  0
    4.3566   -6.0366    2.7400 H   0  0  0  0  0  0  0  0  0  0  0  0
  1  2  1  0
  1 38  1  0
  1 39  1  0
  1 40  1  0
  2  3  1  0
  2  4  1  0
  2 41  1  1
  3 42  1  0
  3 43  1  0
  3 44  1  0
  4  5  1  1
  4  6  1  0
  4 37  1  0
  6  7  1  0
  6 45  1  0
  6 46  1  0
  7  8  1  0
  7 35  1  0
  8  9  2  0
  8 10  1  0
 10 11  2  0
 10 34  1  0
 11 12  1  0
 11 47  1  0
 12 13  1  0
 12 33  1  0
 13 14  1  0
 13 30  2  0
 14 15  2  0
 14 16  1  0
 16 17  1  0
 16 48  1  0
 17 18  1  0
 17 49  1  0
 17 50  1  0
 18 19  1  1
 18 20  1  0
 18 25  1  0
 20 21  1  0
 20 51  1  0
 20 52  1  0
 21 22  1  0
 21 53  1  0
 21 54  1  0
 22 23  1  1
 22 24  1  0
 22 27  1  0
 24 25  1  0
 24 55  1  0
 24 56  1  0
 25 26  1  6
 25 27  1  0
 27 28  1  6
 27 29  1  0
 28 57  1  0
 28 58  1  0
 28 59  1  0
 29 60  1  0
 29 61  1  0
 29 62  1  0
 30 31  1  0
 30 63  1  0
 31 32  2  0
 31 64  1  0
 32 33  1  0
 32 65  1  0
 33 34  2  0
 35 36  1  0
 35 66  1  0
 35 67  1  0
 36 37  1  0
 36 68  1  0
 36 69  1  0
 37 70  1  0
M  END

