
     RDKit          3D

 70 74  0  0  0  0  0  0  0  0999 V2000
    7.4054   -1.6651   -1.8764 C   0  0  0  0  0  0  0  0  0  0  0  0
    6.3392   -1.7715   -0.9228 O   0  0  0  0  0  0  0  0  0  0  0  0
    6.1940   -0.7539   -0.0638 C   0  0  0  0  0  0  0  0  0  0  0  0
    6.9034    0.2190   -0.0455 O   0  0  0  0  0  0  0  0  0  0  0  0
    5.0077   -1.0021    0.8973 C   0  0  1  0  0  0  0  0  0  0  0  0
    4.8424    0.2314    1.8117 C   0  0  0  0  0  0  0  0  0  0  0  0
    3.7325   -1.2040    0.0550 C   0  0  0  0  0  0  0  0  0  0  0  0
    5.3589   -2.2156    1.7562 C   0  0  0  0  0  0  0  0  0  0  0  0
    6.6126   -2.2658    2.4178 C   0  0  0  0  0  0  0  0  0  0  0  0
    6.9735   -3.3188    3.2259 C   0  0  0  0  0  0  0  0  0  0  0  0
    6.0787   -4.4249    3.4460 C   0  0  0  0  0  0  0  0  0  0  0  0
    6.4178   -5.4645    4.2361 N   0  0  0  0  0  0  0  0  0  0  0  0
    5.5601   -6.6423    4.4704 C   0  0  0  0  0  0  0  0  0  0  0  0
    6.1725   -7.8924    3.8160 C   0  0  0  0  0  0  0  0  0  0  0  0
    7.6122   -8.1533    4.2821 C   0  0  2  0  0  0  0  0  0  0  0  0
    7.6717   -8.7853    5.6911 C   0  0  0  0  0  0  0  0  0  0  0  0
    8.9780   -8.8387    6.1728 O   0  0  0  0  0  0  0  0  0  0  0  0
    9.7735   -9.9100    5.6572 C   0  0  0  0  0  0  0  0  0  0  0  0
    9.2029  -10.8165    5.0441 O   0  0  0  0  0  0  0  0  0  0  0  0
   11.1468   -9.7403    5.9233 C   0  0  0  0  0  0  0  0  0  0  0  0
   11.8249   -8.6486    6.5812 C   0  0  0  0  0  0  0  0  0  0  0  0
   13.2208   -8.9170    6.4965 N   0  0  0  0  0  0  0  0  0  0  0  0
   13.4243  -10.2059    6.0344 C   0  0  0  0  0  0  0  0  0  0  0  0
   14.5999  -10.9576    5.9564 C   0  0  0  0  0  0  0  0  0  0  0  0
   14.5228  -12.2566    5.4212 C   0  0  0  0  0  0  0  0  0  0  0  0
   13.2989  -12.7820    4.9944 C   0  0  0  0  0  0  0  0  0  0  0  0
   12.1135  -12.0332    5.0972 C   0  0  0  0  0  0  0  0  0  0  0  0
   12.1625  -10.7393    5.6320 C   0  0  0  0  0  0  0  0  0  0  0  0
   14.1464   -8.0926    7.2295 C   0  0  0  0  0  0  0  0  0  0  0  0
   13.7319   -6.6249    7.0542 C   0  0  0  0  0  0  0  0  0  0  0  0
   12.2208   -6.4646    7.2615 C   0  0  0  0  0  0  0  0  0  0  0  0
   11.4897   -7.2966    6.3874 O   0  0  0  0  0  0  0  0  0  0  0  0
    8.4531   -6.8702    4.1797 C   0  0  0  0  0  0  0  0  0  0  0  0
    7.7597   -5.6652    4.8296 C   0  0  0  0  0  0  0  0  0  0  0  0
    4.8065   -4.3612    2.7784 C   0  0  0  0  0  0  0  0  0  0  0  0
    4.4753   -3.2960    1.9657 C   0  0  0  0  0  0  0  0  0  0  0  0
    7.3684   -2.5820   -2.4758 H   0  0  0  0  0  0  0  0  0  0  0  0
    8.3746   -1.5788   -1.3640 H   0  0  0  0  0  0  0  0  0  0  0  0
    7.2638   -0.7815   -2.5153 H   0  0  0  0  0  0  0  0  0  0  0  0
    4.6252    1.1198    1.2023 H   0  0  0  0  0  0  0  0  0  0  0  0
    5.7549    0.4425    2.3852 H   0  0  0  0  0  0  0  0  0  0  0  0
    4.0112    0.0732    2.5150 H   0  0  0  0  0  0  0  0  0  0  0  0
    3.5785   -0.3319   -0.5974 H   0  0  0  0  0  0  0  0  0  0  0  0
    2.8442   -1.2880    0.6991 H   0  0  0  0  0  0  0  0  0  0  0  0
    3.8007   -2.0954   -0.5831 H   0  0  0  0  0  0  0  0  0  0  0  0
    7.3222   -1.4474    2.2800 H   0  0  0  0  0  0  0  0  0  0  0  0
    7.9502   -3.2980    3.6997 H   0  0  0  0  0  0  0  0  0  0  0  0
    4.5431   -6.4585    4.1159 H   0  0  0  0  0  0  0  0  0  0  0  0
    5.5034   -6.7644    5.5616 H   0  0  0  0  0  0  0  0  0  0  0  0
    6.1369   -7.7628    2.7205 H   0  0  0  0  0  0  0  0  0  0  0  0
    5.5204   -8.7483    4.0534 H   0  0  0  0  0  0  0  0  0  0  0  0
    8.0607   -8.9011    3.6114 H   0  0  0  0  0  0  0  0  0  0  0  0
    7.2244   -9.7918    5.6293 H   0  0  0  0  0  0  0  0  0  0  0  0
    7.0909   -8.1986    6.4274 H   0  0  0  0  0  0  0  0  0  0  0  0
   15.5567  -10.5514    6.2941 H   0  0  0  0  0  0  0  0  0  0  0  0
   15.4322  -12.8594    5.3452 H   0  0  0  0  0  0  0  0  0  0  0  0
   13.2609  -13.7954    4.5844 H   0  0  0  0  0  0  0  0  0  0  0  0
   11.1518  -12.4390    4.7806 H   0  0  0  0  0  0  0  0  0  0  0  0
   15.1686   -8.2536    6.8526 H   0  0  0  0  0  0  0  0  0  0  0  0
   14.1475   -8.3547    8.3105 H   0  0  0  0  0  0  0  0  0  0  0  0
   13.9811   -6.2979    6.0302 H   0  0  0  0  0  0  0  0  0  0  0  0
   14.2831   -5.9822    7.7619 H   0  0  0  0  0  0  0  0  0  0  0  0
   11.9112   -5.4265    7.0565 H   0  0  0  0  0  0  0  0  0  0  0  0
   11.9651   -6.7061    8.3148 H   0  0  0  0  0  0  0  0  0  0  0  0
    8.6604   -6.6279    3.1228 H   0  0  0  0  0  0  0  0  0  0  0  0
    9.4156   -7.0142    4.6907 H   0  0  0  0  0  0  0  0  0  0  0  0
    8.3631   -4.7599    4.7366 H   0  0  0  0  0  0  0  0  0  0  0  0
    7.6038   -5.8438    5.9029 H   0  0  0  0  0  0  0  0  0  0  0  0
    4.0835   -5.1635    2.8924 H   0  0  0  0  0  0  0  0  0  0  0  0
    3.5029   -3.3071    1.4758 H   0  0  0  0  0  0  0  0  0  0  0  0
  1  2  1  0
  1 37  1  0
  1 38  1  0
  1 39  1  0
  2  3  1  0
  3  4  2  0
  5  3  1  6
  5  6  1  0
  5  7  1  0
  5  8  1  0
  6 40  1  0
  6 41  1  0
  6 42  1  0
  7 43  1  0
  7 44  1  0
  7 45  1  0
  8  9  2  0
  8 36  1  0
  9 10  1  0
  9 46  1  0
 10 11  2  0
 10 47  1  0
 11 12  1  0
 11 35  1  0
 12 13  1  0
 12 34  1  0
 13 14  1  0
 13 48  1  0
 13 49  1  0
 14 15  1  0
 14 50  1  0
 14 51  1  0
 15 16  1  0
 15 33  1  0
 15 52  1  6
 16 17  1  0
 16 53  1  0
 16 54  1  0
 17 18  1  0
 18 19  2  0
 18 20  1  0
 20 21  2  0
 20 28  1  0
 21 22  1  0
 21 32  1  0
 22 23  1  0
 22 29  1  0
 23 24  2  0
 23 28  1  0
 24 25  1  0
 24 55  1  0
 25 26  2  0
 25 56  1  0
 26 27  1  0
 26 57  1  0
 27 28  2  0
 27 58  1  0
 29 30  1  0
 29 59  1  0
 29 60  1  0
 30 31  1  0
 30 61  1  0
 30 62  1  0
 31 32  1  0
 31 63  1  0
 31 64  1  0
 33 34  1  0
 33 65  1  0
 33 66  1  0
 34 67  1  0
 34 68  1  0
 35 36  2  0
 35 69  1  0
 36 70  1  0
M  END

