
     RDKit          3D

 49 51  0  0  0  0  0  0  0  0999 V2000
    4.0207    0.0723   -1.2069 C   0  0  0  0  0  0  0  0  0  0  0  0
    3.3197   -0.0581    0.1417 C   0  0  1  0  0  0  0  0  0  0  0  0
    2.0282    0.7419    0.2235 C   0  0  0  0  0  0  0  0  0  0  0  0
    3.1398   -1.6260    0.6059 C   0  0  1  0  0  0  0  0  0  0  0  0
    2.3837   -2.3193   -0.3796 N   0  0  0  0  0  0  0  0  0  0  0  0
    0.9795   -2.4508   -0.4139 C   0  0  0  0  0  0  0  0  0  0  0  0
    0.2585   -1.9101    0.4024 O   0  0  0  0  0  0  0  0  0  0  0  0
    0.5441   -3.2244   -1.4412 N   0  0  0  0  0  0  0  0  0  0  0  0
   -0.8676   -3.4820   -1.6187 C   0  0  0  0  0  0  0  0  0  0  0  0
   -1.0145   -4.3409   -2.8374 C   0  0  0  0  0  0  0  0  0  0  0  0
   -0.0001   -4.7201   -3.5722 N   0  0  0  0  0  0  0  0  0  0  0  0
   -0.4825   -5.4930   -4.5884 N   0  0  0  0  0  0  0  0  0  0  0  0
   -1.7867   -5.5638   -4.4552 C   0  0  0  0  0  0  0  0  0  0  0  0
   -2.1847   -4.8390   -3.3444 N   0  0  0  0  0  0  0  0  0  0  0  0
   -3.5224   -4.6588   -2.7700 C   0  0  0  0  0  0  0  0  0  0  0  0
   -4.6381   -4.6841   -3.8162 C   0  0  0  0  0  0  0  0  0  0  0  0
   -5.0361   -6.0797   -4.3264 C   0  0  0  0  0  0  0  0  0  0  0  0
   -3.8657   -7.0203   -4.6645 C   0  0  0  0  0  0  0  0  0  0  0  0
   -2.6892   -6.3326   -5.3733 C   0  0  0  0  0  0  0  0  0  0  0  0
    4.4407   -2.3531    0.7881 C   0  0  0  0  0  0  0  0  0  0  0  0
    4.4039   -3.6656    1.4105 C   0  0  0  0  0  0  0  0  0  0  0  0
    5.4572   -3.9172    2.2851 C   0  0  0  0  0  0  0  0  0  0  0  0
    6.3463   -2.8512    2.4469 C   0  0  0  0  0  0  0  0  0  0  0  0
    5.8595   -1.4598    1.4736 S   0  0  0  0  0  0  0  0  0  0  0  0
    4.3073    1.1258   -1.3635 H   0  0  0  0  0  0  0  0  0  0  0  0
    3.3582   -0.2085   -2.0430 H   0  0  0  0  0  0  0  0  0  0  0  0
    4.9302   -0.5408   -1.2519 H   0  0  0  0  0  0  0  0  0  0  0  0
    3.9974    0.2646    0.9480 H   0  0  0  0  0  0  0  0  0  0  0  0
    1.3056    0.4658   -0.5604 H   0  0  0  0  0  0  0  0  0  0  0  0
    2.2645    1.8109    0.0848 H   0  0  0  0  0  0  0  0  0  0  0  0
    1.5274    0.6284    1.1956 H   0  0  0  0  0  0  0  0  0  0  0  0
    2.4753   -1.5161    1.4890 H   0  0  0  0  0  0  0  0  0  0  0  0
    2.9640   -2.7957   -1.0749 H   0  0  0  0  0  0  0  0  0  0  0  0
    1.1521   -3.6505   -2.1446 H   0  0  0  0  0  0  0  0  0  0  0  0
   -1.4214   -2.5297   -1.7227 H   0  0  0  0  0  0  0  0  0  0  0  0
   -1.2836   -3.9734   -0.7191 H   0  0  0  0  0  0  0  0  0  0  0  0
   -3.5227   -3.6845   -2.2590 H   0  0  0  0  0  0  0  0  0  0  0  0
   -3.6954   -5.4274   -1.9957 H   0  0  0  0  0  0  0  0  0  0  0  0
   -4.3353   -4.0345   -4.6547 H   0  0  0  0  0  0  0  0  0  0  0  0
   -5.5242   -4.2027   -3.3719 H   0  0  0  0  0  0  0  0  0  0  0  0
   -5.6659   -5.9410   -5.2213 H   0  0  0  0  0  0  0  0  0  0  0  0
   -5.6809   -6.5728   -3.5791 H   0  0  0  0  0  0  0  0  0  0  0  0
   -4.2425   -7.8373   -5.2998 H   0  0  0  0  0  0  0  0  0  0  0  0
   -3.4909   -7.5085   -3.7482 H   0  0  0  0  0  0  0  0  0  0  0  0
   -3.0635   -5.6707   -6.1759 H   0  0  0  0  0  0  0  0  0  0  0  0
   -2.0427   -7.0704   -5.8698 H   0  0  0  0  0  0  0  0  0  0  0  0
    3.6033   -4.3850    1.2221 H   0  0  0  0  0  0  0  0  0  0  0  0
    5.5871   -4.8669    2.8109 H   0  0  0  0  0  0  0  0  0  0  0  0
    7.1951   -2.7727    3.1232 H   0  0  0  0  0  0  0  0  0  0  0  0
  1  2  1  0
  1 25  1  0
  1 26  1  0
  1 27  1  0
  2  3  1  0
  2  4  1  0
  2 28  1  1
  3 29  1  0
  3 30  1  0
  3 31  1  0
  4  5  1  0
  4 20  1  0
  4 32  1  1
  5  6  1  0
  5 33  1  0
  6  7  2  0
  6  8  1  0
  8  9  1  0
  8 34  1  0
  9 10  1  0
  9 35  1  0
  9 36  1  0
 10 11  2  0
 10 14  1  0
 11 12  1  0
 12 13  2  0
 13 14  1  0
 13 19  1  0
 14 15  1  0
 15 16  1  0
 15 37  1  0
 15 38  1  0
 16 17  1  0
 16 39  1  0
 16 40  1  0
 17 18  1  0
 17 41  1  0
 17 42  1  0
 18 19  1  0
 18 43  1  0
 18 44  1  0
 19 45  1  0
 19 46  1  0
 20 21  2  0
 20 24  1  0
 21 22  1  0
 21 47  1  0
 22 23  2  0
 22 48  1  0
 23 24  1  0
 23 49  1  0
M  END

