
     RDKit          3D

 51 52  0  0  0  0  0  0  0  0999 V2000
    0.7652    3.6178   -2.7772 C   0  0  0  0  0  0  0  0  0  0  0  0
    2.1394    3.7001   -2.1101 C   0  0  1  0  0  0  0  0  0  0  0  0
    2.0523    3.6594   -0.5789 C   0  0  0  0  0  0  0  0  0  0  0  0
    3.0059    2.6474   -2.6376 N   0  0  0  0  0  0  0  0  0  0  0  0
    4.3700    2.8294   -2.7407 C   0  0  0  0  0  0  0  0  0  0  0  0
    4.9122    3.8975   -2.5100 O   0  0  0  0  0  0  0  0  0  0  0  0
    5.0451    1.6852   -3.1524 N   0  0  0  0  0  0  0  0  0  0  0  0
    6.4240    1.5077   -3.3552 C   0  0  0  0  0  0  0  0  0  0  0  0
    7.3826    2.5183   -3.1463 C   0  0  0  0  0  0  0  0  0  0  0  0
    8.7321    2.2494   -3.3726 C   0  0  0  0  0  0  0  0  0  0  0  0
    9.1807    0.9921   -3.8067 C   0  0  0  0  0  0  0  0  0  0  0  0
   10.6468    0.7288   -4.0811 C   0  0  0  0  0  0  0  0  0  0  0  0
   11.5093    1.1423   -2.9886 N   0  0  0  0  0  0  0  0  0  0  0  0
   12.7072    1.7771   -3.1944 C   0  0  0  0  0  0  0  0  0  0  0  0
   13.1224    2.0379   -4.3165 O   0  0  0  0  0  0  0  0  0  0  0  0
   13.4893    2.1395   -1.9702 C   0  0  0  0  0  0  0  0  0  0  0  0
   14.8320    2.5307   -2.1259 C   0  0  0  0  0  0  0  0  0  0  0  0
   15.5948    2.8806   -1.0266 C   0  0  0  0  0  0  0  0  0  0  0  0
   14.9931    2.8419    0.2644 C   0  0  0  0  0  0  0  0  0  0  0  0
   15.7029    3.1490    1.3992 N   0  0  0  0  0  0  0  0  0  0  0  0
   15.0629    3.2113    2.7018 C   0  0  0  0  0  0  0  0  0  0  0  0
   17.0934    3.5441    1.3136 C   0  0  0  0  0  0  0  0  0  0  0  0
   13.6984    2.5023    0.4088 N   0  0  0  0  0  0  0  0  0  0  0  0
   12.9872    2.1691   -0.6618 C   0  0  0  0  0  0  0  0  0  0  0  0
    8.2181   -0.0061   -4.0048 C   0  0  0  0  0  0  0  0  0  0  0  0
    6.8635    0.2431   -3.7864 C   0  0  0  0  0  0  0  0  0  0  0  0
    0.1141    4.4342   -2.4285 H   0  0  0  0  0  0  0  0  0  0  0  0
    0.2576    2.6672   -2.5341 H   0  0  0  0  0  0  0  0  0  0  0  0
    0.8530    3.6883   -3.8722 H   0  0  0  0  0  0  0  0  0  0  0  0
    2.6255    4.6440   -2.3986 H   0  0  0  0  0  0  0  0  0  0  0  0
    1.6010    2.7137   -0.2314 H   0  0  0  0  0  0  0  0  0  0  0  0
    1.4331    4.4875   -0.1979 H   0  0  0  0  0  0  0  0  0  0  0  0
    3.0547    3.7517   -0.1347 H   0  0  0  0  0  0  0  0  0  0  0  0
    2.6372    1.7025   -2.6143 H   0  0  0  0  0  0  0  0  0  0  0  0
    4.4774    0.8834   -3.3984 H   0  0  0  0  0  0  0  0  0  0  0  0
    7.0536    3.5014   -2.8184 H   0  0  0  0  0  0  0  0  0  0  0  0
    9.4606    3.0477   -3.2058 H   0  0  0  0  0  0  0  0  0  0  0  0
   10.9966    1.2829   -4.9663 H   0  0  0  0  0  0  0  0  0  0  0  0
   10.7884   -0.3439   -4.3108 H   0  0  0  0  0  0  0  0  0  0  0  0
   11.2647    0.8352   -2.0558 H   0  0  0  0  0  0  0  0  0  0  0  0
   15.2491    2.5550   -3.1349 H   0  0  0  0  0  0  0  0  0  0  0  0
   16.6318    3.1844   -1.1613 H   0  0  0  0  0  0  0  0  0  0  0  0
   14.0307    2.8592    2.6046 H   0  0  0  0  0  0  0  0  0  0  0  0
   15.0510    4.2449    3.0954 H   0  0  0  0  0  0  0  0  0  0  0  0
   15.5954    2.5741    3.4293 H   0  0  0  0  0  0  0  0  0  0  0  0
   17.2311    4.5099    0.7910 H   0  0  0  0  0  0  0  0  0  0  0  0
   17.7038    2.7877    0.7908 H   0  0  0  0  0  0  0  0  0  0  0  0
   17.4975    3.6518    2.3292 H   0  0  0  0  0  0  0  0  0  0  0  0
   11.9342    1.9315   -0.4612 H   0  0  0  0  0  0  0  0  0  0  0  0
    8.5293   -1.0007   -4.3379 H   0  0  0  0  0  0  0  0  0  0  0  0
    6.1350   -0.5579   -3.9483 H   0  0  0  0  0  0  0  0  0  0  0  0
  1  2  1  0
  1 27  1  0
  1 28  1  0
  1 29  1  0
  2  3  1  0
  2  4  1  0
  2 30  1  1
  3 31  1  0
  3 32  1  0
  3 33  1  0
  4  5  1  0
  4 34  1  0
  5  6  2  0
  5  7  1  0
  7  8  1  0
  7 35  1  0
  8  9  2  0
  8 26  1  0
  9 10  1  0
  9 36  1  0
 10 11  2  0
 10 37  1  0
 11 12  1  0
 11 25  1  0
 12 13  1  0
 12 38  1  0
 12 39  1  0
 13 14  1  0
 13 40  1  0
 14 15  2  0
 14 16  1  0
 16 17  2  0
 16 24  1  0
 17 18  1  0
 17 41  1  0
 18 19  2  0
 18 42  1  0
 19 20  1  0
 19 23  1  0
 20 21  1  0
 20 22  1  0
 21 43  1  0
 21 44  1  0
 21 45  1  0
 22 46  1  0
 22 47  1  0
 22 48  1  0
 23 24  2  0
 24 49  1  0
 25 26  2  0
 25 50  1  0
 26 51  1  0
M  END

