
     RDKit          3D

 44 45  0  0  0  0  0  0  0  0999 V2000
    1.6469    1.9515   -1.8850 C   0  0  0  0  0  0  0  0  0  0  0  0
    2.3567    1.2499   -3.0451 C   0  0  0  0  0  0  0  0  0  0  0  0
    3.1104    0.0708   -2.6484 N   0  0  0  0  0  0  0  0  0  0  0  0
    4.3923    0.1052   -2.2019 C   0  0  0  0  0  0  0  0  0  0  0  0
    5.0817    1.2508   -2.2103 N   0  0  0  0  0  0  0  0  0  0  0  0
    6.3530    1.2223   -1.7859 C   0  0  0  0  0  0  0  0  0  0  0  0
    7.0863    2.5614   -1.7805 C   0  0  1  0  0  0  0  0  0  0  0  0
    7.1054    3.1235   -0.4674 O   0  0  0  0  0  0  0  0  0  0  0  0
    7.9000    2.5119    0.5254 C   0  0  0  0  0  0  0  0  0  0  0  0
    8.4777    2.5022   -2.4493 C   0  0  1  0  0  0  0  0  0  0  0  0
    8.4050    2.0129   -3.9133 C   0  0  0  0  0  0  0  0  0  0  0  0
    7.8089    3.0499   -4.8772 C   0  0  0  0  0  0  0  0  0  0  0  0
    8.5484    4.3913   -4.7862 C   0  0  0  0  0  0  0  0  0  0  0  0
    8.6026    4.9087   -3.3429 C   0  0  0  0  0  0  0  0  0  0  0  0
    9.1994    3.8654   -2.3866 C   0  0  0  0  0  0  0  0  0  0  0  0
    7.0046    0.1453   -1.3508 N   0  0  0  0  0  0  0  0  0  0  0  0
    6.3363   -1.0291   -1.3160 C   0  0  0  0  0  0  0  0  0  0  0  0
    7.0621   -2.2437   -0.8109 C   0  0  0  0  0  0  0  0  0  0  0  0
    5.0227   -1.0764   -1.7390 C   0  0  0  0  0  0  0  0  0  0  0  0
    4.3044   -2.2229   -1.7329 F   0  0  0  0  0  0  0  0  0  0  0  0
    1.0780    2.8210   -2.2522 H   0  0  0  0  0  0  0  0  0  0  0  0
    2.3783    2.3096   -1.1446 H   0  0  0  0  0  0  0  0  0  0  0  0
    0.9412    1.2740   -1.3768 H   0  0  0  0  0  0  0  0  0  0  0  0
    3.0595    1.9446   -3.5260 H   0  0  0  0  0  0  0  0  0  0  0  0
    1.6265    0.9371   -3.8097 H   0  0  0  0  0  0  0  0  0  0  0  0
    2.6213   -0.8089   -2.5405 H   0  0  0  0  0  0  0  0  0  0  0  0
    6.4353    3.2512   -2.3327 H   0  0  0  0  0  0  0  0  0  0  0  0
    7.6839    3.0432    1.4649 H   0  0  0  0  0  0  0  0  0  0  0  0
    8.9838    2.6041    0.3219 H   0  0  0  0  0  0  0  0  0  0  0  0
    7.6702    1.4415    0.6564 H   0  0  0  0  0  0  0  0  0  0  0  0
    9.0681    1.7599   -1.8881 H   0  0  0  0  0  0  0  0  0  0  0  0
    7.8476    1.0642   -3.9745 H   0  0  0  0  0  0  0  0  0  0  0  0
    9.4338    1.7782   -4.2415 H   0  0  0  0  0  0  0  0  0  0  0  0
    6.7383    3.2024   -4.6513 H   0  0  0  0  0  0  0  0  0  0  0  0
    7.8475    2.6622   -5.9096 H   0  0  0  0  0  0  0  0  0  0  0  0
    8.0743    5.1378   -5.4462 H   0  0  0  0  0  0  0  0  0  0  0  0
    9.5810    4.2588   -5.1608 H   0  0  0  0  0  0  0  0  0  0  0  0
    7.5848    5.1797   -3.0101 H   0  0  0  0  0  0  0  0  0  0  0  0
    9.1932    5.8393   -3.2939 H   0  0  0  0  0  0  0  0  0  0  0  0
    9.1867    4.2519   -1.3565 H   0  0  0  0  0  0  0  0  0  0  0  0
   10.2604    3.7052   -2.6517 H   0  0  0  0  0  0  0  0  0  0  0  0
    8.0115   -2.3596   -1.3558 H   0  0  0  0  0  0  0  0  0  0  0  0
    6.4645   -3.1579   -0.9185 H   0  0  0  0  0  0  0  0  0  0  0  0
    7.3181   -2.1089    0.2527 H   0  0  0  0  0  0  0  0  0  0  0  0
  1  2  1  0
  1 21  1  0
  1 22  1  0
  1 23  1  0
  2  3  1  0
  2 24  1  0
  2 25  1  0
  3  4  1  0
  3 26  1  0
  4  5  2  0
  4 19  1  0
  5  6  1  0
  6  7  1  0
  6 16  2  0
  7  8  1  0
  7 10  1  0
  7 27  1  6
  8  9  1  0
  9 28  1  0
  9 29  1  0
  9 30  1  0
 10 11  1  0
 10 15  1  0
 10 31  1  1
 11 12  1  0
 11 32  1  0
 11 33  1  0
 12 13  1  0
 12 34  1  0
 12 35  1  0
 13 14  1  0
 13 36  1  0
 13 37  1  0
 14 15  1  0
 14 38  1  0
 14 39  1  0
 15 40  1  0
 15 41  1  0
 16 17  1  0
 17 18  1  0
 17 19  2  0
 18 42  1  0
 18 43  1  0
 18 44  1  0
 19 20  1  0
M  END

