
     RDKit          3D

 32 33  0  0  0  0  0  0  0  0999 V2000
    0.9050    0.5438   -0.1704 O   0  0  0  0  0  0  0  0  0  0  0  0
    2.2731    0.1980   -0.1295 C   0  0  1  0  0  0  0  0  0  0  0  0
    2.8773    0.1179   -1.5650 C   0  0  0  0  0  0  0  0  0  0  0  0
    2.2458   -0.9443   -2.4065 C   0  0  0  0  0  0  0  0  0  0  0  0
    1.0664   -0.6648   -3.1529 C   0  0  0  0  0  0  0  0  0  0  0  0
    0.4282   -1.6667   -3.9330 C   0  0  0  0  0  0  0  0  0  0  0  0
    0.9134   -3.0044   -3.8323 C   0  0  0  0  0  0  0  0  0  0  0  0
    0.0264   -4.2564   -4.6203 Cl  0  0  0  0  0  0  0  0  0  0  0  0
    2.0771   -3.3086   -3.0702 C   0  0  0  0  0  0  0  0  0  0  0  0
    2.5528   -4.9495   -2.7843 Cl  0  0  0  0  0  0  0  0  0  0  0  0
    2.7952   -2.2615   -2.4099 C   0  0  0  0  0  0  0  0  0  0  0  0
    2.9910    1.2618    0.7155 C   0  0  0  0  0  0  0  0  0  0  0  0
    2.6102    1.2373    2.1771 C   0  0  0  0  0  0  0  0  0  0  0  0
    1.3503    1.6898    2.6112 C   0  0  0  0  0  0  0  0  0  0  0  0
    1.0039    1.6491    3.9586 C   0  0  0  0  0  0  0  0  0  0  0  0
    1.9037    1.1533    4.9112 C   0  0  0  0  0  0  0  0  0  0  0  0
    1.4408    1.1176    6.5864 Cl  0  0  0  0  0  0  0  0  0  0  0  0
    3.1644    0.6959    4.4921 C   0  0  0  0  0  0  0  0  0  0  0  0
    4.3212    0.0742    5.6348 Cl  0  0  0  0  0  0  0  0  0  0  0  0
    3.5037    0.7410    3.1360 C   0  0  0  0  0  0  0  0  0  0  0  0
    0.4326   -0.1376   -0.6719 H   0  0  0  0  0  0  0  0  0  0  0  0
    2.4119   -0.7923    0.3488 H   0  0  0  0  0  0  0  0  0  0  0  0
    3.9592   -0.0765   -1.4702 H   0  0  0  0  0  0  0  0  0  0  0  0
    2.7451    1.1105   -2.0286 H   0  0  0  0  0  0  0  0  0  0  0  0
    0.6674    0.3523   -3.1536 H   0  0  0  0  0  0  0  0  0  0  0  0
   -0.3877   -1.4356   -4.6164 H   0  0  0  0  0  0  0  0  0  0  0  0
    3.7491   -2.4797   -1.9301 H   0  0  0  0  0  0  0  0  0  0  0  0
    2.7511    2.2451    0.2763 H   0  0  0  0  0  0  0  0  0  0  0  0
    4.0774    1.1154    0.6147 H   0  0  0  0  0  0  0  0  0  0  0  0
    0.6342    2.0626    1.8780 H   0  0  0  0  0  0  0  0  0  0  0  0
    0.0274    2.0023    4.2945 H   0  0  0  0  0  0  0  0  0  0  0  0
    4.4920    0.3839    2.8393 H   0  0  0  0  0  0  0  0  0  0  0  0
  1  2  1  0
  1 21  1  0
  2  3  1  0
  2 12  1  0
  2 22  1  1
  3  4  1  0
  3 23  1  0
  3 24  1  0
  4  5  2  0
  4 11  1  0
  5  6  1  0
  5 25  1  0
  6  7  2  0
  6 26  1  0
  7  8  1  0
  7  9  1  0
  9 10  1  0
  9 11  2  0
 11 27  1  0
 12 13  1  0
 12 28  1  0
 12 29  1  0
 13 14  2  0
 13 20  1  0
 14 15  1  0
 14 30  1  0
 15 16  2  0
 15 31  1  0
 16 17  1  0
 16 18  1  0
 18 19  1  0
 18 20  2  0
 20 32  1  0
M  END

