
     RDKit          3D

 32 33  0  0  0  0  0  0  0  0999 V2000
    7.0562   -0.0693   -1.1862 C   0  0  0  0  0  0  0  0  0  0  0  0
    5.9670    0.8908   -0.8050 C   0  0  0  0  0  0  0  0  0  0  0  0
    5.7127    1.9154   -1.3675 O   0  0  0  0  0  0  0  0  0  0  0  0
    5.1272    0.5303    0.5173 C   0  0  0  0  0  0  0  0  0  0  0  0
    4.8698   -0.8296    0.7106 N   0  0  0  0  0  0  0  0  0  0  0  0
    3.6982   -1.4318    0.1244 C   0  0  0  0  0  0  0  0  0  0  0  0
    5.8012   -1.6437    1.5298 C   0  0  0  0  0  0  0  0  0  0  0  0
    6.7977   -0.9607    2.0251 N   0  0  0  0  0  0  0  0  0  0  0  0
    7.6815   -1.7106    2.8115 C   0  0  0  0  0  0  0  0  0  0  0  0
    7.4393   -3.0829    3.0274 C   0  0  0  0  0  0  0  0  0  0  0  0
    8.3260   -3.9173    3.8791 C   0  0  0  0  0  0  0  0  0  0  0  0
    9.3505   -3.3472    4.6617 C   0  0  0  0  0  0  0  0  0  0  0  0
   10.1586   -4.1781    5.4396 C   0  0  0  0  0  0  0  0  0  0  0  0
    9.9263   -5.5534    5.4245 C   0  0  0  0  0  0  0  0  0  0  0  0
    8.8795   -6.0300    4.6254 C   0  0  0  0  0  0  0  0  0  0  0  0
    8.1073   -5.2439    3.8794 N   0  0  0  0  0  0  0  0  0  0  0  0
    6.3262   -3.6610    2.4184 C   0  0  0  0  0  0  0  0  0  0  0  0
    5.4686   -2.9047    1.6196 N   0  0  0  0  0  0  0  0  0  0  0  0
    7.6017    0.3072   -2.0601 H   0  0  0  0  0  0  0  0  0  0  0  0
    6.6087   -1.0531   -1.4006 H   0  0  0  0  0  0  0  0  0  0  0  0
    7.7180   -0.2133   -0.3191 H   0  0  0  0  0  0  0  0  0  0  0  0
    4.2067    1.1248    0.4354 H   0  0  0  0  0  0  0  0  0  0  0  0
    5.7973    0.8803    1.3211 H   0  0  0  0  0  0  0  0  0  0  0  0
    3.6847   -1.2796   -0.9711 H   0  0  0  0  0  0  0  0  0  0  0  0
    2.7805   -0.9680    0.5323 H   0  0  0  0  0  0  0  0  0  0  0  0
    3.7187   -2.5007    0.3634 H   0  0  0  0  0  0  0  0  0  0  0  0
    8.5477   -1.1812    3.2018 H   0  0  0  0  0  0  0  0  0  0  0  0
    9.5010   -2.2682    4.6747 H   0  0  0  0  0  0  0  0  0  0  0  0
   10.9578   -3.7528    6.0525 H   0  0  0  0  0  0  0  0  0  0  0  0
   10.5325   -6.2433    6.0162 H   0  0  0  0  0  0  0  0  0  0  0  0
    8.6583   -7.1041    4.5917 H   0  0  0  0  0  0  0  0  0  0  0  0
    6.0978   -4.7160    2.5521 H   0  0  0  0  0  0  0  0  0  0  0  0
  1  2  1  0
  1 19  1  0
  1 20  1  0
  1 21  1  0
  2  3  2  0
  2  4  1  0
  4  5  1  0
  4 22  1  0
  4 23  1  0
  5  6  1  0
  5  7  1  0
  6 24  1  0
  6 25  1  0
  6 26  1  0
  7  8  2  0
  7 18  1  0
  8  9  1  0
  9 10  2  0
  9 27  1  0
 10 11  1  0
 10 17  1  0
 11 12  2  0
 11 16  1  0
 12 13  1  0
 12 28  1  0
 13 14  2  0
 13 29  1  0
 14 15  1  0
 14 30  1  0
 15 16  2  0
 15 31  1  0
 17 18  2  0
 17 32  1  0
M  END

