
     RDKit          3D

 45 48  0  0  0  0  0  0  0  0999 V2000
   10.2887   -2.4716    1.4831 C   0  0  0  0  0  0  0  0  0  0  0  0
    9.0293   -1.7342    1.1153 C   0  0  0  0  0  0  0  0  0  0  0  0
    8.9691   -0.3095    1.1760 C   0  0  0  0  0  0  0  0  0  0  0  0
    7.8129    0.3641    0.8358 C   0  0  0  0  0  0  0  0  0  0  0  0
    7.6140    1.8423    0.8550 C   0  0  0  0  0  0  0  0  0  0  0  0
    6.7595   -0.4140    0.4474 N   0  0  0  0  0  0  0  0  0  0  0  0
    5.5420    0.0356    0.0748 N   0  0  0  0  0  0  0  0  0  0  0  0
    4.8533   -1.0685   -0.2105 C   0  0  0  0  0  0  0  0  0  0  0  0
    5.5981   -2.2565   -0.0326 C   0  0  0  0  0  0  0  0  0  0  0  0
    5.1084   -3.6328   -0.2645 C   0  0  0  0  0  0  0  0  0  0  0  0
    3.9706   -3.8547   -0.6468 O   0  0  0  0  0  0  0  0  0  0  0  0
    6.0555   -4.6084   -0.0024 N   0  0  0  0  0  0  0  0  0  0  0  0
    5.9330   -5.9937   -0.1061 C   0  0  0  0  0  0  0  0  0  0  0  0
    4.7499   -6.6435   -0.5178 C   0  0  0  0  0  0  0  0  0  0  0  0
    4.7092   -8.0339   -0.5904 C   0  0  0  0  0  0  0  0  0  0  0  0
    5.8425   -8.7823   -0.2584 C   0  0  0  0  0  0  0  0  0  0  0  0
    5.7859  -10.5580   -0.3157 S   0  0  1  0  0  0  0  0  0  0  0  0
    6.9066  -11.0965    0.4587 O   0  0  0  0  0  0  0  0  0  0  0  0
    4.4139  -11.0000   -0.1027 O   0  0  0  0  0  0  0  0  0  0  0  0
    6.2645  -10.9544   -1.9283 N   0  0  0  0  0  0  0  0  0  0  0  0
    5.4194  -10.9498   -3.0208 C   0  0  0  0  0  0  0  0  0  0  0  0
    4.3970  -10.1629   -3.1626 N   0  0  0  0  0  0  0  0  0  0  0  0
    3.7672  -10.3866   -4.3617 C   0  0  0  0  0  0  0  0  0  0  0  0
    4.3149  -11.3453   -5.1652 C   0  0  0  0  0  0  0  0  0  0  0  0
    5.6978  -12.0515   -4.3747 S   0  0  0  0  0  0  0  0  0  0  0  0
    7.0239   -8.1572    0.1562 C   0  0  0  0  0  0  0  0  0  0  0  0
    7.0643   -6.7706    0.2290 C   0  0  0  0  0  0  0  0  0  0  0  0
    6.8562   -1.8098    0.4017 C   0  0  0  0  0  0  0  0  0  0  0  0
    7.9858   -2.4555    0.7343 N   0  0  0  0  0  0  0  0  0  0  0  0
   11.0875   -1.7903    1.8056 H   0  0  0  0  0  0  0  0  0  0  0  0
   10.6503   -3.0564    0.6221 H   0  0  0  0  0  0  0  0  0  0  0  0
   10.0848   -3.1880    2.2947 H   0  0  0  0  0  0  0  0  0  0  0  0
    9.8413    0.2622    1.4936 H   0  0  0  0  0  0  0  0  0  0  0  0
    8.5276    2.3541    1.1828 H   0  0  0  0  0  0  0  0  0  0  0  0
    6.7801    2.1053    1.5250 H   0  0  0  0  0  0  0  0  0  0  0  0
    7.3263    2.2010   -0.1461 H   0  0  0  0  0  0  0  0  0  0  0  0
    3.8183   -1.0002   -0.5437 H   0  0  0  0  0  0  0  0  0  0  0  0
    6.9629   -4.2609    0.3136 H   0  0  0  0  0  0  0  0  0  0  0  0
    3.8785   -6.0456   -0.7728 H   0  0  0  0  0  0  0  0  0  0  0  0
    3.8035   -8.5449   -0.9175 H   0  0  0  0  0  0  0  0  0  0  0  0
    7.0499  -11.5991   -1.9125 H   0  0  0  0  0  0  0  0  0  0  0  0
    2.8865   -9.7959   -4.6204 H   0  0  0  0  0  0  0  0  0  0  0  0
    4.0050  -11.6696   -6.1564 H   0  0  0  0  0  0  0  0  0  0  0  0
    7.8911   -8.7592    0.4316 H   0  0  0  0  0  0  0  0  0  0  0  0
    7.9803   -6.2724    0.5578 H   0  0  0  0  0  0  0  0  0  0  0  0
  1  2  1  0
  1 30  1  0
  1 31  1  0
  1 32  1  0
  2  3  1  0
  2 29  2  0
  3  4  2  0
  3 33  1  0
  4  5  1  0
  4  6  1  0
  5 34  1  0
  5 35  1  0
  5 36  1  0
  6  7  1  0
  6 28  1  0
  7  8  2  0
  8  9  1  0
  8 37  1  0
  9 10  1  0
  9 28  2  0
 10 11  2  0
 10 12  1  0
 12 13  1  0
 12 38  1  0
 13 14  2  0
 13 27  1  0
 14 15  1  0
 14 39  1  0
 15 16  2  0
 15 40  1  0
 16 17  1  0
 16 26  1  0
 17 18  2  0
 17 19  2  0
 17 20  1  6
 20 21  1  0
 20 41  1  0
 21 22  2  0
 21 25  1  0
 22 23  1  0
 23 24  2  0
 23 42  1  0
 24 25  1  0
 24 43  1  0
 26 27  2  0
 26 44  1  0
 27 45  1  0
 28 29  1  0
M  END

