
     RDKit          3D

 80 85  0  0  0  0  0  0  0  0999 V2000
    3.8618   -0.8841  -12.3687 C   0  0  0  0  0  0  0  0  0  0  0  0
    3.1283   -1.0761  -13.6553 C   0  0  0  0  0  0  0  0  0  0  0  0
    2.2392   -0.2568  -14.2874 C   0  0  0  0  0  0  0  0  0  0  0  0
    1.8277   -0.8818  -15.4284 O   0  0  0  0  0  0  0  0  0  0  0  0
    2.4856   -2.0622  -15.4358 C   0  0  0  0  0  0  0  0  0  0  0  0
    2.2780   -2.9712  -16.6140 C   0  0  1  0  0  0  0  0  0  0  0  0
    1.4373   -2.5559  -17.1908 H   0  0  0  0  0  0  0  0  0  0  0  0
    3.5474   -3.0510  -17.5064 C   0  0  0  0  0  0  0  0  0  0  0  0
    3.5342   -4.4843  -18.0442 C   0  0  0  0  0  0  0  0  0  0  0  0
    3.0222   -5.2791  -16.8440 C   0  0  0  0  0  0  0  0  0  0  0  0
    2.0373   -4.3766  -16.2441 N   0  0  0  0  0  0  0  0  0  0  0  0
    1.2346   -4.8654  -15.2296 C   0  0  0  0  0  0  0  0  0  0  0  0
    1.4204   -5.9984  -14.8056 O   0  0  0  0  0  0  0  0  0  0  0  0
    0.1196   -4.0031  -14.7060 C   0  0  0  0  0  0  0  0  0  0  0  0
   -0.1295   -4.0346  -13.3203 C   0  0  0  0  0  0  0  0  0  0  0  0
   -1.2544   -3.3221  -12.8267 C   0  0  0  0  0  0  0  0  0  0  0  0
   -1.5474   -3.3842  -11.3742 C   0  0  0  0  0  0  0  0  0  0  0  0
   -0.7775   -3.8238  -10.5248 O   0  0  0  0  0  0  0  0  0  0  0  0
   -2.8046   -2.8984  -10.9727 N   0  0  0  0  0  0  0  0  0  0  0  0
   -3.3427   -3.2353   -9.6720 C   0  0  2  0  0  0  0  0  0  0  0  0
   -4.8589   -2.9477   -9.6249 C   0  0  0  0  0  0  0  0  0  0  0  0
   -5.6886   -3.8625  -10.5039 C   0  0  0  0  0  0  0  0  0  0  0  0
   -6.0836   -5.1257  -10.0348 C   0  0  0  0  0  0  0  0  0  0  0  0
   -6.8138   -5.9946  -10.8486 C   0  0  0  0  0  0  0  0  0  0  0  0
   -7.1601   -5.6132  -12.1488 C   0  0  0  0  0  0  0  0  0  0  0  0
   -6.7758   -4.3585  -12.6267 C   0  0  0  0  0  0  0  0  0  0  0  0
   -6.0495   -3.4880  -11.8079 C   0  0  0  0  0  0  0  0  0  0  0  0
   -2.5249   -2.5485   -8.5489 C   0  0  2  0  0  0  0  0  0  0  0  0
   -1.4935   -2.9007   -8.6954 H   0  0  0  0  0  0  0  0  0  0  0  0
   -3.0114   -2.8553   -7.2506 O   0  0  0  0  0  0  0  0  0  0  0  0
   -2.4261   -1.0030   -8.6504 C   0  0  2  0  0  0  0  0  0  0  0  0
   -2.4116   -0.7686   -9.7242 H   0  0  0  0  0  0  0  0  0  0  0  0
   -1.2756   -0.3633   -7.8481 C   0  0  0  0  0  0  0  0  0  0  0  0
   -1.8860   -0.0563   -6.4667 C   0  0  0  0  0  0  0  0  0  0  0  0
   -3.3601    0.2441   -6.7792 C   0  0  0  0  0  0  0  0  0  0  0  0
   -3.5941   -0.3771   -8.0528 N   0  0  0  0  0  0  0  0  0  0  0  0
   -2.0722   -2.6048  -13.6962 C   0  0  0  0  0  0  0  0  0  0  0  0
   -1.8546   -2.5634  -15.1001 C   0  0  0  0  0  0  0  0  0  0  0  0
   -2.7633   -1.8204  -15.9406 C   0  0  0  0  0  0  0  0  0  0  0  0
   -2.6026   -1.7142  -17.3604 C   0  0  0  0  0  0  0  0  0  0  0  0
   -3.5070   -0.9927  -18.1132 C   0  0  0  0  0  0  0  0  0  0  0  0
   -4.5972   -0.3553  -17.4726 C   0  0  0  0  0  0  0  0  0  0  0  0
   -4.6830   -0.5063  -16.0805 C   0  0  0  0  0  0  0  0  0  0  0  0
   -3.8342   -1.1919  -15.3316 N   0  0  0  0  0  0  0  0  0  0  0  0
   -0.7166   -3.3014  -15.5747 C   0  0  0  0  0  0  0  0  0  0  0  0
    3.2761   -2.2243  -14.4205 N   0  0  0  0  0  0  0  0  0  0  0  0
    3.6418    0.0980  -11.9243 H   0  0  0  0  0  0  0  0  0  0  0  0
    4.9506   -0.9604  -12.5232 H   0  0  0  0  0  0  0  0  0  0  0  0
    3.5827   -1.6674  -11.6448 H   0  0  0  0  0  0  0  0  0  0  0  0
    1.8134    0.7198  -14.0786 H   0  0  0  0  0  0  0  0  0  0  0  0
    4.4358   -2.8968  -16.8746 H   0  0  0  0  0  0  0  0  0  0  0  0
    3.5447   -2.2749  -18.2862 H   0  0  0  0  0  0  0  0  0  0  0  0
    4.5228   -4.8214  -18.3913 H   0  0  0  0  0  0  0  0  0  0  0  0
    2.8300   -4.5756  -18.8882 H   0  0  0  0  0  0  0  0  0  0  0  0
    3.8340   -5.5092  -16.1288 H   0  0  0  0  0  0  0  0  0  0  0  0
    2.5469   -6.2352  -17.1053 H   0  0  0  0  0  0  0  0  0  0  0  0
    0.4988   -4.6209  -12.6544 H   0  0  0  0  0  0  0  0  0  0  0  0
   -3.4848   -2.8630  -11.7242 H   0  0  0  0  0  0  0  0  0  0  0  0
   -3.2044   -4.3172   -9.4671 H   0  0  0  0  0  0  0  0  0  0  0  0
   -5.0412   -1.9051   -9.9465 H   0  0  0  0  0  0  0  0  0  0  0  0
   -5.1832   -3.0499   -8.5777 H   0  0  0  0  0  0  0  0  0  0  0  0
   -5.8181   -5.4345   -9.0189 H   0  0  0  0  0  0  0  0  0  0  0  0
   -7.1127   -6.9739  -10.4664 H   0  0  0  0  0  0  0  0  0  0  0  0
   -7.7259   -6.2947  -12.7886 H   0  0  0  0  0  0  0  0  0  0  0  0
   -7.0328   -4.0511  -13.6427 H   0  0  0  0  0  0  0  0  0  0  0  0
   -5.7628   -2.5090  -12.2045 H   0  0  0  0  0  0  0  0  0  0  0  0
   -2.8037   -3.7776   -7.0516 H   0  0  0  0  0  0  0  0  0  0  0  0
   -0.9543    0.5643   -8.3465 H   0  0  0  0  0  0  0  0  0  0  0  0
   -0.4074   -1.0297   -7.7960 H   0  0  0  0  0  0  0  0  0  0  0  0
   -1.3980    0.7835   -5.9566 H   0  0  0  0  0  0  0  0  0  0  0  0
   -1.8309   -0.9398   -5.8181 H   0  0  0  0  0  0  0  0  0  0  0  0
   -3.5775    1.3240   -6.8951 H   0  0  0  0  0  0  0  0  0  0  0  0
   -4.0921   -0.1418   -6.0513 H   0  0  0  0  0  0  0  0  0  0  0  0
   -4.5313   -0.5129   -8.4258 H   0  0  0  0  0  0  0  0  0  0  0  0
   -2.9245   -2.0179  -13.3523 H   0  0  0  0  0  0  0  0  0  0  0  0
   -1.7599   -2.2022  -17.8535 H   0  0  0  0  0  0  0  0  0  0  0  0
   -3.3775   -0.9155  -19.1970 H   0  0  0  0  0  0  0  0  0  0  0  0
   -5.3374    0.2258  -18.0249 H   0  0  0  0  0  0  0  0  0  0  0  0
   -5.5159   -0.0249  -15.5452 H   0  0  0  0  0  0  0  0  0  0  0  0
   -0.5226   -3.3565  -16.6460 H   0  0  0  0  0  0  0  0  0  0  0  0
  1  2  1  0
  1 47  1  0
  1 48  1  0
  1 49  1  0
  2  3  2  0
  2 46  1  0
  3  4  1  0
  3 50  1  0
  4  5  1  0
  5  6  1  0
  5 46  2  0
  6  7  1  6
  6  8  1  0
  6 11  1  0
  8  9  1  0
  8 51  1  0
  8 52  1  0
  9 10  1  0
  9 53  1  0
  9 54  1  0
 10 11  1  0
 10 55  1  0
 10 56  1  0
 11 12  1  0
 12 13  2  0
 12 14  1  0
 14 15  2  0
 14 45  1  0
 15 16  1  0
 15 57  1  0
 16 17  1  0
 16 37  2  0
 17 18  2  0
 17 19  1  0
 19 20  1  0
 19 58  1  0
 20 21  1  0
 20 28  1  0
 20 59  1  1
 21 22  1  0
 21 60  1  0
 21 61  1  0
 22 23  2  0
 22 27  1  0
 23 24  1  0
 23 62  1  0
 24 25  2  0
 24 63  1  0
 25 26  1  0
 25 64  1  0
 26 27  2  0
 26 65  1  0
 27 66  1  0
 28 29  1  1
 28 30  1  0
 28 31  1  0
 30 67  1  0
 31 32  1  6
 31 33  1  0
 31 36  1  0
 33 34  1  0
 33 68  1  0
 33 69  1  0
 34 35  1  0
 34 70  1  0
 34 71  1  0
 35 36  1  0
 35 72  1  0
 35 73  1  0
 36 74  1  0
 37 38  1  0
 37 75  1  0
 38 39  1  0
 38 45  2  0
 39 40  2  0
 39 44  1  0
 40 41  1  0
 40 76  1  0
 41 42  2  0
 41 77  1  0
 42 43  1  0
 42 78  1  0
 43 44  2  0
 43 79  1  0
 45 80  1  0
M  END

