
     RDKit          3D

 38 39  0  0  0  0  0  0  0  0999 V2000
    6.0285    0.0287    0.5897 C   0  0  0  0  0  0  0  0  0  0  0  0
    4.2135    0.0020    0.2369 S   0  0  0  0  0  0  0  0  0  0  0  0
    3.7581    1.4677   -0.5789 C   0  0  0  0  0  0  0  0  0  0  0  0
    3.9707    1.5249   -2.0234 C   0  0  0  0  0  0  0  0  0  0  0  0
    4.1850    2.7301   -2.6597 C   0  0  0  0  0  0  0  0  0  0  0  0
    4.2261    3.9510   -1.9376 C   0  0  0  0  0  0  0  0  0  0  0  0
    4.4337    5.2198   -2.5183 N   0  0  0  0  0  0  0  0  0  0  0  0
    4.7119    5.5206   -3.8307 C   0  0  0  0  0  0  0  0  0  0  0  0
    4.9116    4.6691   -4.6907 O   0  0  0  0  0  0  0  0  0  0  0  0
    4.7445    6.8873   -4.1478 N   0  0  0  0  0  0  0  0  0  0  0  0
    5.3631    7.2706   -5.4104 C   0  0  0  0  0  0  0  0  0  0  0  0
    4.5275    8.3221   -6.1406 C   0  0  0  0  0  0  0  0  0  0  0  0
    4.2470    9.5290   -5.2385 C   0  0  0  0  0  0  0  0  0  0  0  0
    3.6220    9.0711   -3.9066 C   0  0  2  0  0  0  0  0  0  0  0  0
    3.3610   10.2080   -2.9184 C   0  0  0  0  0  0  0  0  0  0  0  0
    3.6574   10.1636   -1.7545 O   0  0  0  0  0  0  0  0  0  0  0  0
    2.7369   11.2968   -3.4195 O   0  0  0  0  0  0  0  0  0  0  0  0
    4.4812    7.9835   -3.2355 C   0  0  0  0  0  0  0  0  0  0  0  0
    4.0300    3.9113   -0.5156 C   0  0  0  0  0  0  0  0  0  0  0  0
    3.8575    2.7169    0.1261 C   0  0  0  0  0  0  0  0  0  0  0  0
    3.6352    2.6705    1.8854 Cl  0  0  0  0  0  0  0  0  0  0  0  0
    6.3260   -0.9300    1.0376 H   0  0  0  0  0  0  0  0  0  0  0  0
    6.2101    0.8693    1.2756 H   0  0  0  0  0  0  0  0  0  0  0  0
    6.5428    0.2131   -0.3654 H   0  0  0  0  0  0  0  0  0  0  0  0
    3.8904    0.6144   -2.6221 H   0  0  0  0  0  0  0  0  0  0  0  0
    4.3018    2.7614   -3.7413 H   0  0  0  0  0  0  0  0  0  0  0  0
    4.4285    5.9824   -1.8559 H   0  0  0  0  0  0  0  0  0  0  0  0
    5.4728    6.3598   -6.0104 H   0  0  0  0  0  0  0  0  0  0  0  0
    6.3796    7.6778   -5.2223 H   0  0  0  0  0  0  0  0  0  0  0  0
    3.5732    7.8671   -6.4572 H   0  0  0  0  0  0  0  0  0  0  0  0
    5.0541    8.6446   -7.0537 H   0  0  0  0  0  0  0  0  0  0  0  0
    3.5881   10.2410   -5.7678 H   0  0  0  0  0  0  0  0  0  0  0  0
    5.1886   10.0691   -5.0310 H   0  0  0  0  0  0  0  0  0  0  0  0
    2.6361    8.6209   -4.1345 H   0  0  0  0  0  0  0  0  0  0  0  0
    2.5703   11.1881   -4.3667 H   0  0  0  0  0  0  0  0  0  0  0  0
    3.9355    7.6428   -2.3481 H   0  0  0  0  0  0  0  0  0  0  0  0
    5.4208    8.4468   -2.8716 H   0  0  0  0  0  0  0  0  0  0  0  0
    3.9925    4.8365    0.0657 H   0  0  0  0  0  0  0  0  0  0  0  0
  1  2  1  0
  1 22  1  0
  1 23  1  0
  1 24  1  0
  2  3  1  0
  3  4  2  0
  3 20  1  0
  4  5  1  0
  4 25  1  0
  5  6  2  0
  5 26  1  0
  6  7  1  0
  6 19  1  0
  7  8  1  0
  7 27  1  0
  8  9  2  0
  8 10  1  0
 10 11  1  0
 10 18  1  0
 11 12  1  0
 11 28  1  0
 11 29  1  0
 12 13  1  0
 12 30  1  0
 12 31  1  0
 13 14  1  0
 13 32  1  0
 13 33  1  0
 14 15  1  0
 14 18  1  0
 14 34  1  6
 15 16  2  0
 15 17  1  0
 17 35  1  0
 18 36  1  0
 18 37  1  0
 19 20  2  0
 19 38  1  0
 20 21  1  0
M  END

