
     RDKit          3D

 43 44  0  0  0  0  0  0  0  0999 V2000
    1.4221    0.3575   -0.6469 C   0  0  0  0  0  0  0  0  0  0  0  0
    2.7281    0.3767    0.1477 C   0  0  0  0  0  0  0  0  0  0  0  0
    3.3409    1.7658    0.2187 C   0  0  0  0  0  0  0  0  0  0  0  0
    4.5449    1.6901    0.9700 O   0  0  0  0  0  0  0  0  0  0  0  0
    5.2883    2.8076    1.1732 C   0  0  0  0  0  0  0  0  0  0  0  0
    4.9598    4.0797    0.7017 C   0  0  0  0  0  0  0  0  0  0  0  0
    5.7989    5.1679    0.9687 C   0  0  0  0  0  0  0  0  0  0  0  0
    6.9639    4.9793    1.7072 C   0  0  0  0  0  0  0  0  0  0  0  0
    7.8953    6.1268    1.9985 C   0  0  1  0  0  0  0  0  0  0  0  0
    7.4164    7.2985    1.5407 F   0  0  0  0  0  0  0  0  0  0  0  0
    8.1105    6.2728    3.3197 F   0  0  0  0  0  0  0  0  0  0  0  0
    9.1036    5.9440    1.4312 F   0  0  0  0  0  0  0  0  0  0  0  0
    7.3065    3.7062    2.1888 C   0  0  0  0  0  0  0  0  0  0  0  0
    6.4780    2.6125    1.9283 C   0  0  0  0  0  0  0  0  0  0  0  0
    6.7361    1.3036    2.3665 N   0  0  0  0  0  0  0  0  0  0  0  0
    7.8106    0.8684    3.0876 C   0  0  0  0  0  0  0  0  0  0  0  0
    8.7358    1.5562    3.4792 O   0  0  0  0  0  0  0  0  0  0  0  0
    7.8297   -0.6210    3.4150 C   0  0  0  0  0  0  0  0  0  0  0  0
    6.6716   -1.2899    2.9100 O   0  0  0  0  0  0  0  0  0  0  0  0
    6.5918   -2.6059    3.1616 C   0  0  0  0  0  0  0  0  0  0  0  0
    7.4319   -3.2223    3.7712 O   0  0  0  0  0  0  0  0  0  0  0  0
    5.3478   -3.2436    2.6104 C   0  0  0  0  0  0  0  0  0  0  0  0
    5.1627   -4.6213    2.8208 C   0  0  0  0  0  0  0  0  0  0  0  0
    4.0841   -5.2587    2.3658 N   0  0  0  0  0  0  0  0  0  0  0  0
    3.1920   -4.5230    1.7019 C   0  0  0  0  0  0  0  0  0  0  0  0
    3.3764   -3.1493    1.4907 C   0  0  0  0  0  0  0  0  0  0  0  0
    4.4522   -2.5094    1.9439 N   0  0  0  0  0  0  0  0  0  0  0  0
    0.9965   -0.6571   -0.6869 H   0  0  0  0  0  0  0  0  0  0  0  0
    1.5744    0.6909   -1.6869 H   0  0  0  0  0  0  0  0  0  0  0  0
    0.6615    1.0154   -0.1947 H   0  0  0  0  0  0  0  0  0  0  0  0
    3.4676   -0.3068   -0.3015 H   0  0  0  0  0  0  0  0  0  0  0  0
    2.5632    0.0180    1.1774 H   0  0  0  0  0  0  0  0  0  0  0  0
    2.6429    2.4759    0.7011 H   0  0  0  0  0  0  0  0  0  0  0  0
    3.5577    2.1498   -0.7960 H   0  0  0  0  0  0  0  0  0  0  0  0
    4.0501    4.2361    0.1232 H   0  0  0  0  0  0  0  0  0  0  0  0
    5.5378    6.1595    0.5978 H   0  0  0  0  0  0  0  0  0  0  0  0
    8.2135    3.5487    2.7682 H   0  0  0  0  0  0  0  0  0  0  0  0
    6.0376    0.6095    2.1092 H   0  0  0  0  0  0  0  0  0  0  0  0
    7.8971   -0.7378    4.5080 H   0  0  0  0  0  0  0  0  0  0  0  0
    8.7452   -1.0608    2.9887 H   0  0  0  0  0  0  0  0  0  0  0  0
    5.9138   -5.1959    3.3702 H   0  0  0  0  0  0  0  0  0  0  0  0
    2.2990   -5.0316    1.3211 H   0  0  0  0  0  0  0  0  0  0  0  0
    2.6323   -2.5625    0.9418 H   0  0  0  0  0  0  0  0  0  0  0  0
  1  2  1  0
  1 28  1  0
  1 29  1  0
  1 30  1  0
  2  3  1  0
  2 31  1  0
  2 32  1  0
  3  4  1  0
  3 33  1  0
  3 34  1  0
  4  5  1  0
  5  6  2  0
  5 14  1  0
  6  7  1  0
  6 35  1  0
  7  8  2  0
  7 36  1  0
  8  9  1  0
  8 13  1  0
  9 10  1  6
  9 11  1  0
  9 12  1  0
 13 14  2  0
 13 37  1  0
 14 15  1  0
 15 16  1  0
 15 38  1  0
 16 17  2  0
 16 18  1  0
 18 19  1  0
 18 39  1  0
 18 40  1  0
 19 20  1  0
 20 21  2  0
 20 22  1  0
 22 23  2  0
 22 27  1  0
 23 24  1  0
 23 41  1  0
 24 25  2  0
 25 26  1  0
 25 42  1  0
 26 27  2  0
 26 43  1  0
M  END

