
     RDKit          3D

 40 42  0  0  0  0  0  0  0  0999 V2000
    0.9673    0.0468   -1.1860 C   0  0  0  0  0  0  0  0  0  0  0  0
    2.3989    0.1037   -0.7334 C   0  0  0  0  0  0  0  0  0  0  0  0
    2.9423    1.2451   -0.1144 C   0  0  0  0  0  0  0  0  0  0  0  0
    4.2772    1.2941    0.3060 C   0  0  0  0  0  0  0  0  0  0  0  0
    4.8303    2.5306    0.9643 C   0  0  0  0  0  0  0  0  0  0  0  0
    5.0479    0.1322    0.0764 C   0  0  0  0  0  0  0  0  0  0  0  0
    6.4389   -0.1886    0.3551 C   0  0  0  0  0  0  0  0  0  0  0  0
    7.3639    0.6255    0.8783 N   0  0  0  0  0  0  0  0  0  0  0  0
    6.7789   -1.5163   -0.0244 C   0  0  0  0  0  0  0  0  0  0  0  0
    8.1949   -2.0885    0.1448 C   0  0  0  0  0  0  0  0  0  0  0  0
    9.0971   -1.2463    0.2744 O   0  0  0  0  0  0  0  0  0  0  0  0
    8.2817   -3.4009    0.1251 N   0  0  0  0  0  0  0  0  0  0  0  0
    9.4507   -4.2356    0.2163 C   0  0  0  0  0  0  0  0  0  0  0  0
   10.7413   -3.7593    0.2842 C   0  0  0  0  0  0  0  0  0  0  0  0
   11.8398   -4.6642    0.3574 C   0  0  0  0  0  0  0  0  0  0  0  0
   11.5831   -6.0358    0.3743 C   0  0  0  0  0  0  0  0  0  0  0  0
   10.2809   -6.5284    0.3086 C   0  0  0  0  0  0  0  0  0  0  0  0
    9.1517   -5.6500    0.2083 C   0  0  0  0  0  0  0  0  0  0  0  0
    7.7998   -6.1327    0.0911 C   0  0  0  0  0  0  0  0  0  0  0  0
    7.5927   -7.5104   -0.0170 N   0  0  0  0  0  0  0  0  0  0  0  0
    6.7565   -5.3862    0.1178 O   0  0  0  0  0  0  0  0  0  0  0  0
    5.4846   -2.3524   -0.7596 S   0  0  0  0  0  0  0  0  0  0  0  0
    4.3946   -0.9536   -0.5498 C   0  0  0  0  0  0  0  0  0  0  0  0
    3.1441   -0.9957   -0.9463 N   0  0  0  0  0  0  0  0  0  0  0  0
    0.4303    0.9830   -0.9820 H   0  0  0  0  0  0  0  0  0  0  0  0
    0.4454   -0.7817   -0.6809 H   0  0  0  0  0  0  0  0  0  0  0  0
    0.9217   -0.1636   -2.2664 H   0  0  0  0  0  0  0  0  0  0  0  0
    2.3037    2.1169    0.0425 H   0  0  0  0  0  0  0  0  0  0  0  0
    4.0517    3.2952    1.0879 H   0  0  0  0  0  0  0  0  0  0  0  0
    5.6366    2.9809    0.3598 H   0  0  0  0  0  0  0  0  0  0  0  0
    5.2371    2.3078    1.9650 H   0  0  0  0  0  0  0  0  0  0  0  0
    7.1628    1.5881    1.1065 H   0  0  0  0  0  0  0  0  0  0  0  0
    8.3253    0.2351    0.8515 H   0  0  0  0  0  0  0  0  0  0  0  0
    7.4155   -4.0633    0.1237 H   0  0  0  0  0  0  0  0  0  0  0  0
   10.9146   -2.6859    0.2824 H   0  0  0  0  0  0  0  0  0  0  0  0
   12.8597   -4.2801    0.4117 H   0  0  0  0  0  0  0  0  0  0  0  0
   12.4141   -6.7439    0.4524 H   0  0  0  0  0  0  0  0  0  0  0  0
   10.1154   -7.6049    0.3777 H   0  0  0  0  0  0  0  0  0  0  0  0
    8.2859   -8.0259   -0.5522 H   0  0  0  0  0  0  0  0  0  0  0  0
    6.6400   -7.7203   -0.2972 H   0  0  0  0  0  0  0  0  0  0  0  0
  1  2  1  0
  1 25  1  0
  1 26  1  0
  1 27  1  0
  2  3  2  0
  2 24  1  0
  3  4  1  0
  3 28  1  0
  4  5  1  0
  4  6  2  0
  5 29  1  0
  5 30  1  0
  5 31  1  0
  6  7  1  0
  6 23  1  0
  7  8  1  0
  7  9  2  0
  8 32  1  0
  8 33  1  0
  9 10  1  0
  9 22  1  0
 10 11  2  0
 10 12  1  0
 12 13  1  0
 12 34  1  0
 13 14  2  0
 13 18  1  0
 14 15  1  0
 14 35  1  0
 15 16  2  0
 15 36  1  0
 16 17  1  0
 16 37  1  0
 17 18  2  0
 17 38  1  0
 18 19  1  0
 19 20  1  0
 19 21  2  0
 20 39  1  0
 20 40  1  0
 22 23  1  0
 23 24  2  0
M  END

