
     RDKit          3D

 28 28  0  0  0  0  0  0  0  0999 V2000
    1.8985    0.3211    1.3687 C   0  0  0  0  0  0  0  0  0  0  0  0
    2.8079    0.2230    0.1502 C   0  0  0  0  0  0  0  0  0  0  0  0
    3.1675   -1.0054   -0.0618 O   0  0  0  0  0  0  0  0  0  0  0  0
    3.2035    1.3141   -0.6382 C   0  0  0  0  0  0  0  0  0  0  0  0
    2.7739    2.6520   -0.3563 C   0  0  0  0  0  0  0  0  0  0  0  0
    3.1769    3.7162   -1.1507 C   0  0  0  0  0  0  0  0  0  0  0  0
    4.0220    3.5214   -2.2598 C   0  0  0  0  0  0  0  0  0  0  0  0
    4.4709    4.4919   -3.0979 O   0  0  0  0  0  0  0  0  0  0  0  0
    4.0772    5.8303   -2.8768 C   0  0  0  0  0  0  0  0  0  0  0  0
    4.7516    6.6675   -3.9573 C   0  0  0  0  0  0  0  0  0  0  0  0
    4.2286    8.4219   -3.9568 S   0  0  0  0  0  0  0  0  0  0  0  0
    5.3342    9.0731   -2.6659 C   0  0  1  0  0  0  0  0  0  0  0  0
    6.6289    8.8650   -2.9413 F   0  0  0  0  0  0  0  0  0  0  0  0
    5.1285   10.3875   -2.5740 F   0  0  0  0  0  0  0  0  0  0  0  0
    5.1095    8.5314   -1.4556 F   0  0  0  0  0  0  0  0  0  0  0  0
    4.4485    2.1989   -2.5402 C   0  0  0  0  0  0  0  0  0  0  0  0
    5.2521    2.0130   -3.5959 F   0  0  0  0  0  0  0  0  0  0  0  0
    4.0675    1.1242   -1.7746 C   0  0  0  0  0  0  0  0  0  0  0  0
    1.7374   -0.6700    1.8136 H   0  0  0  0  0  0  0  0  0  0  0  0
    0.9232    0.7374    1.0714 H   0  0  0  0  0  0  0  0  0  0  0  0
    2.3596    0.9766    2.1241 H   0  0  0  0  0  0  0  0  0  0  0  0
    2.1194    2.8534    0.4926 H   0  0  0  0  0  0  0  0  0  0  0  0
    2.8274    4.7187   -0.9016 H   0  0  0  0  0  0  0  0  0  0  0  0
    4.3843    6.1713   -1.8727 H   0  0  0  0  0  0  0  0  0  0  0  0
    2.9782    5.9353   -2.9470 H   0  0  0  0  0  0  0  0  0  0  0  0
    4.4727    6.2885   -4.9518 H   0  0  0  0  0  0  0  0  0  0  0  0
    5.8472    6.6151   -3.8824 H   0  0  0  0  0  0  0  0  0  0  0  0
    4.4348    0.1354   -2.0503 H   0  0  0  0  0  0  0  0  0  0  0  0
  1  2  1  0
  1 19  1  0
  1 20  1  0
  1 21  1  0
  2  3  2  0
  2  4  1  0
  4  5  2  0
  4 18  1  0
  5  6  1  0
  5 22  1  0
  6  7  2  0
  6 23  1  0
  7  8  1  0
  7 16  1  0
  8  9  1  0
  9 10  1  0
  9 24  1  0
  9 25  1  0
 10 11  1  0
 10 26  1  0
 10 27  1  0
 11 12  1  0
 12 13  1  6
 12 14  1  0
 12 15  1  0
 16 17  1  0
 16 18  2  0
 18 28  1  0
M  END

