
     RDKit          3D

 33 34  0  0  0  0  0  0  0  0999 V2000
    1.0658   -0.2558   -0.1169 C   0  0  0  0  0  0  0  0  0  0  0  0
    2.5871   -0.0519   -0.1408 C   0  0  1  0  0  0  0  0  0  0  0  0
    3.2336   -1.3279    0.1687 N   0  0  0  0  0  0  0  0  0  0  0  0
    4.3278   -1.5019    0.8579 C   0  0  0  0  0  0  0  0  0  0  0  0
    5.2261   -0.1152    1.5077 S   0  0  0  0  0  0  0  0  0  0  0  0
    4.7987   -2.7365    1.0858 N   0  0  0  0  0  0  0  0  0  0  0  0
    4.1975   -3.9704    0.6427 C   0  0  0  0  0  0  0  0  0  0  0  0
    3.0954   -3.8357   -0.1117 N   0  0  0  0  0  0  0  0  0  0  0  0
    2.4746   -5.0034   -0.5562 C   0  0  0  0  0  0  0  0  0  0  0  0
    2.9953   -6.2446   -0.2441 C   0  0  0  0  0  0  0  0  0  0  0  0
    2.1695   -7.6704   -0.8453 Cl  0  0  0  0  0  0  0  0  0  0  0  0
    4.1513   -6.4098    0.5286 C   0  0  0  0  0  0  0  0  0  0  0  0
    4.7607   -5.1747    0.9902 C   0  0  0  0  0  0  0  0  0  0  0  0
    6.3272   -5.2781    2.0825 Br  0  0  0  0  0  0  0  0  0  0  0  0
    3.0618    0.5322   -1.4691 C   0  0  0  0  0  0  0  0  0  0  0  0
    3.1598    1.9227   -1.6194 C   0  0  0  0  0  0  0  0  0  0  0  0
    3.5399    2.4829   -2.8422 C   0  0  0  0  0  0  0  0  0  0  0  0
    3.8307    1.6558   -3.9305 C   0  0  0  0  0  0  0  0  0  0  0  0
    3.7392    0.2680   -3.7881 C   0  0  0  0  0  0  0  0  0  0  0  0
    3.3560   -0.2913   -2.5662 C   0  0  0  0  0  0  0  0  0  0  0  0
    0.7373   -0.6434    0.8597 H   0  0  0  0  0  0  0  0  0  0  0  0
    0.7583   -0.9662   -0.8997 H   0  0  0  0  0  0  0  0  0  0  0  0
    0.5552    0.6986   -0.3085 H   0  0  0  0  0  0  0  0  0  0  0  0
    2.8476    0.6606    0.6609 H   0  0  0  0  0  0  0  0  0  0  0  0
    2.8659   -2.3218   -0.1522 H   0  0  0  0  0  0  0  0  0  0  0  0
    5.6670   -2.8495    1.5970 H   0  0  0  0  0  0  0  0  0  0  0  0
    1.5726   -4.8933   -1.1551 H   0  0  0  0  0  0  0  0  0  0  0  0
    4.5718   -7.3830    0.7588 H   0  0  0  0  0  0  0  0  0  0  0  0
    2.9403    2.5775   -0.7705 H   0  0  0  0  0  0  0  0  0  0  0  0
    3.6153    3.5687   -2.9418 H   0  0  0  0  0  0  0  0  0  0  0  0
    4.1330    2.0912   -4.8861 H   0  0  0  0  0  0  0  0  0  0  0  0
    3.9703   -0.3861   -4.6325 H   0  0  0  0  0  0  0  0  0  0  0  0
    3.2975   -1.3781   -2.4663 H   0  0  0  0  0  0  0  0  0  0  0  0
  1  2  1  0
  1 21  1  0
  1 22  1  0
  1 23  1  0
  2  3  1  0
  2 15  1  0
  2 24  1  1
  3  4  1  0
  3 25  1  0
  4  5  2  0
  4  6  1  0
  6  7  1  0
  6 26  1  0
  7  8  2  0
  7 13  1  0
  8  9  1  0
  9 10  2  0
  9 27  1  0
 10 11  1  0
 10 12  1  0
 12 13  2  0
 12 28  1  0
 13 14  1  0
 15 16  2  0
 15 20  1  0
 16 17  1  0
 16 29  1  0
 17 18  2  0
 17 30  1  0
 18 19  1  0
 18 31  1  0
 19 20  2  0
 19 32  1  0
 20 33  1  0
M  END

