
     RDKit          3D

 39 42  0  0  0  0  0  0  0  0999 V2000
    1.8483   -0.9705   -0.0342 O   0  0  0  0  0  0  0  0  0  0  0  0
    2.3136    0.1244   -0.3205 C   0  0  0  0  0  0  0  0  0  0  0  0
    1.8209    1.2896    0.4843 C   0  0  0  0  0  0  0  0  0  0  0  0
    1.0500    1.2261    1.6140 C   0  0  0  0  0  0  0  0  0  0  0  0
    0.8272    2.5913    1.9399 C   0  0  0  0  0  0  0  0  0  0  0  0
    1.4037    3.4026    1.0843 N   0  0  0  0  0  0  0  0  0  0  0  0
    2.0304    2.5859    0.1651 O   0  0  0  0  0  0  0  0  0  0  0  0
    3.2313    0.2948   -1.3253 N   0  0  0  0  0  0  0  0  0  0  0  0
    3.6303   -0.8734   -2.1069 C   0  0  0  0  0  0  0  0  0  0  0  0
    3.4441   -0.6044   -3.5985 C   0  0  0  0  0  0  0  0  0  0  0  0
    4.0979    0.6382   -3.9963 N   0  0  0  0  0  0  0  0  0  0  0  0
    4.6219    0.7556   -5.2573 C   0  0  0  0  0  0  0  0  0  0  0  0
    4.8743    1.9722   -5.9409 C   0  0  0  0  0  0  0  0  0  0  0  0
    5.5563    1.9045   -7.2015 C   0  0  0  0  0  0  0  0  0  0  0  0
    5.7518    0.6579   -7.7890 C   0  0  0  0  0  0  0  0  0  0  0  0
    6.2706    0.4686   -9.0797 N   0  0  0  0  0  0  0  0  0  0  0  0
    6.5261   -0.7297   -9.6924 C   0  0  0  0  0  0  0  0  0  0  0  0
    7.0094   -0.4298  -10.9495 C   0  0  0  0  0  0  0  0  0  0  0  0
    7.0097    0.9901  -10.9983 C   0  0  0  0  0  0  0  0  0  0  0  0
    6.5621    1.5227   -9.8709 N   0  0  0  0  0  0  0  0  0  0  0  0
    5.3248   -0.4346   -7.1313 N   0  0  0  0  0  0  0  0  0  0  0  0
    5.0525   -0.3547   -5.8823 N   0  0  0  0  0  0  0  0  0  0  0  0
    3.8054    1.8064   -3.1805 C   0  0  0  0  0  0  0  0  0  0  0  0
    3.9804    1.4929   -1.6913 C   0  0  0  0  0  0  0  0  0  0  0  0
    0.7007    0.3273    2.1124 H   0  0  0  0  0  0  0  0  0  0  0  0
    0.2615    3.0138    2.7707 H   0  0  0  0  0  0  0  0  0  0  0  0
    3.0233   -1.7278   -1.7855 H   0  0  0  0  0  0  0  0  0  0  0  0
    4.6924   -1.1000   -1.9008 H   0  0  0  0  0  0  0  0  0  0  0  0
    2.3620   -0.5629   -3.8355 H   0  0  0  0  0  0  0  0  0  0  0  0
    3.8804   -1.4236   -4.1889 H   0  0  0  0  0  0  0  0  0  0  0  0
    4.4831    2.9152   -5.5655 H   0  0  0  0  0  0  0  0  0  0  0  0
    5.8223    2.7944   -7.7690 H   0  0  0  0  0  0  0  0  0  0  0  0
    6.3432   -1.6688   -9.1774 H   0  0  0  0  0  0  0  0  0  0  0  0
    7.3200   -1.1300  -11.7211 H   0  0  0  0  0  0  0  0  0  0  0  0
    7.3204    1.6398  -11.8168 H   0  0  0  0  0  0  0  0  0  0  0  0
    2.7712    2.1636   -3.3588 H   0  0  0  0  0  0  0  0  0  0  0  0
    4.4961    2.6149   -3.4544 H   0  0  0  0  0  0  0  0  0  0  0  0
    3.6600    2.3529   -1.0990 H   0  0  0  0  0  0  0  0  0  0  0  0
    5.0519    1.3114   -1.4868 H   0  0  0  0  0  0  0  0  0  0  0  0
  1  2  2  0
  2  3  1  0
  2  8  1  0
  3  4  2  0
  3  7  1  0
  4  5  1  0
  4 25  1  0
  5  6  2  0
  5 26  1  0
  6  7  1  0
  8  9  1  0
  8 24  1  0
  9 10  1  0
  9 27  1  0
  9 28  1  0
 10 11  1  0
 10 29  1  0
 10 30  1  0
 11 12  1  0
 11 23  1  0
 12 13  2  0
 12 22  1  0
 13 14  1  0
 13 31  1  0
 14 15  2  0
 14 32  1  0
 15 16  1  0
 15 21  1  0
 16 17  1  0
 16 20  1  0
 17 18  2  0
 17 33  1  0
 18 19  1  0
 18 34  1  0
 19 20  2  0
 19 35  1  0
 21 22  2  0
 23 24  1  0
 23 36  1  0
 23 37  1  0
 24 38  1  0
 24 39  1  0
M  END

