
     RDKit          3D

 86 88  0  0  0  0  0  0  0  0999 V2000
   13.6045    1.7653  -10.1140 C   0  0  0  0  0  0  0  0  0  0  0  0
   12.5769    2.6278   -9.5725 N   0  0  0  0  0  0  0  0  0  0  0  0
   12.2686    2.6756   -8.2411 C   0  0  0  0  0  0  0  0  0  0  0  0
   12.8476    1.9980   -7.4001 O   0  0  0  0  0  0  0  0  0  0  0  0
   11.1702    3.6336   -7.8986 C   0  0  0  0  0  0  0  0  0  0  0  0
   10.6744    3.6678   -6.6550 C   0  0  0  0  0  0  0  0  0  0  0  0
    9.5673    4.5257   -6.0961 C   0  0  2  0  0  0  0  0  0  0  0  0
    8.6612    3.8890   -6.0779 H   0  0  0  0  0  0  0  0  0  0  0  0
    9.1679    5.7920   -6.9029 C   0  0  0  0  0  0  0  0  0  0  0  0
    9.9942    7.0441   -6.6711 C   0  0  0  0  0  0  0  0  0  0  0  0
   11.3829    7.0960   -6.8892 C   0  0  0  0  0  0  0  0  0  0  0  0
   12.1030    8.2729   -6.6648 C   0  0  0  0  0  0  0  0  0  0  0  0
   11.4511    9.4284   -6.2221 C   0  0  0  0  0  0  0  0  0  0  0  0
   10.0711    9.3969   -6.0055 C   0  0  0  0  0  0  0  0  0  0  0  0
    9.3567    8.2146   -6.2265 C   0  0  0  0  0  0  0  0  0  0  0  0
    9.8719    4.8139   -4.7044 N   0  0  0  0  0  0  0  0  0  0  0  0
    8.9223    5.0417   -3.7649 C   0  0  0  0  0  0  0  0  0  0  0  0
    7.7201    5.0233   -3.9884 O   0  0  0  0  0  0  0  0  0  0  0  0
    9.4859    5.2964   -2.3434 C   0  0  2  0  0  0  0  0  0  0  0  0
    9.2590    4.3644   -1.7963 H   0  0  0  0  0  0  0  0  0  0  0  0
    8.7037    6.4330   -1.6518 C   0  0  0  0  0  0  0  0  0  0  0  0
    8.8810    7.8018   -2.3123 C   0  0  0  0  0  0  0  0  0  0  0  0
    8.1127    8.9235   -1.6061 C   0  0  0  0  0  0  0  0  0  0  0  0
    8.2795   10.2087   -2.2588 N   0  0  0  0  0  0  0  0  0  0  0  0
    7.2782   10.8295   -2.9391 C   0  0  0  0  0  0  0  0  0  0  0  0
    6.1144   10.4837   -2.9626 O   0  0  0  0  0  0  0  0  0  0  0  0
    7.7691   11.9177   -3.5927 O   0  0  0  0  0  0  0  0  0  0  0  0
    6.8226   12.7177   -4.3267 C   0  0  0  0  0  0  0  0  0  0  0  0
    6.6959   12.2890   -5.7704 C   0  0  0  0  0  0  0  0  0  0  0  0
    5.8573   11.2199   -6.1306 C   0  0  0  0  0  0  0  0  0  0  0  0
    5.7520   10.8233   -7.4661 C   0  0  0  0  0  0  0  0  0  0  0  0
    6.4802   11.4881   -8.4589 C   0  0  0  0  0  0  0  0  0  0  0  0
    7.3159   12.5526   -8.1105 C   0  0  0  0  0  0  0  0  0  0  0  0
    7.4217   12.9482   -6.7738 C   0  0  0  0  0  0  0  0  0  0  0  0
   10.9398    5.4321   -2.3609 N   0  0  0  0  0  0  0  0  0  0  0  0
   11.6815    4.9438   -1.2020 C   0  0  0  0  0  0  0  0  0  0  0  0
   13.1716    4.8660   -1.4791 C   0  0  0  0  0  0  0  0  0  0  0  0
   14.0816    5.4763   -0.6222 C   0  0  0  0  0  0  0  0  0  0  0  0
   15.4659    5.3775   -0.8750 C   0  0  0  0  0  0  0  0  0  0  0  0
   16.2747    6.0043    0.0182 O   0  0  0  0  0  0  0  0  0  0  0  0
   17.6709    5.9501   -0.1630 C   0  0  0  0  0  0  0  0  0  0  0  0
   15.9262    4.6755   -1.9885 C   0  0  0  0  0  0  0  0  0  0  0  0
   14.9996    4.0630   -2.8585 C   0  0  0  0  0  0  0  0  0  0  0  0
   15.5416    3.4078   -3.9127 O   0  0  0  0  0  0  0  0  0  0  0  0
   14.6899    2.7985   -4.8646 C   0  0  0  0  0  0  0  0  0  0  0  0
   13.6276    4.1544   -2.6067 C   0  0  0  0  0  0  0  0  0  0  0  0
   14.3921    2.3445  -10.6255 H   0  0  0  0  0  0  0  0  0  0  0  0
   13.1877    1.0364  -10.8300 H   0  0  0  0  0  0  0  0  0  0  0  0
   14.0545    1.2176   -9.2761 H   0  0  0  0  0  0  0  0  0  0  0  0
   12.0418    3.2039  -10.2102 H   0  0  0  0  0  0  0  0  0  0  0  0
   10.7978    4.2974   -8.6855 H   0  0  0  0  0  0  0  0  0  0  0  0
   11.1071    2.9513   -5.9463 H   0  0  0  0  0  0  0  0  0  0  0  0
    8.1274    6.0173   -6.6304 H   0  0  0  0  0  0  0  0  0  0  0  0
    9.1514    5.5316   -7.9754 H   0  0  0  0  0  0  0  0  0  0  0  0
   11.9134    6.2071   -7.2353 H   0  0  0  0  0  0  0  0  0  0  0  0
   13.1822    8.2866   -6.8400 H   0  0  0  0  0  0  0  0  0  0  0  0
   12.0162   10.3485   -6.0512 H   0  0  0  0  0  0  0  0  0  0  0  0
    9.5433   10.2897   -5.6600 H   0  0  0  0  0  0  0  0  0  0  0  0
    8.2767    8.2031   -6.0551 H   0  0  0  0  0  0  0  0  0  0  0  0
   10.8322    4.8895   -4.3738 H   0  0  0  0  0  0  0  0  0  0  0  0
    9.0102    6.4786   -0.5917 H   0  0  0  0  0  0  0  0  0  0  0  0
    7.6375    6.1577   -1.6681 H   0  0  0  0  0  0  0  0  0  0  0  0
    8.5452    7.7540   -3.3603 H   0  0  0  0  0  0  0  0  0  0  0  0
    9.9521    8.0785   -2.3404 H   0  0  0  0  0  0  0  0  0  0  0  0
    8.4331    8.9974   -0.5506 H   0  0  0  0  0  0  0  0  0  0  0  0
    7.0341    8.7101   -1.6027 H   0  0  0  0  0  0  0  0  0  0  0  0
    9.2107   10.5936   -2.3684 H   0  0  0  0  0  0  0  0  0  0  0  0
    7.2126   13.7433   -4.2643 H   0  0  0  0  0  0  0  0  0  0  0  0
    5.8503   12.6655   -3.8174 H   0  0  0  0  0  0  0  0  0  0  0  0
    5.2981   10.6994   -5.3499 H   0  0  0  0  0  0  0  0  0  0  0  0
    5.0942    9.9923   -7.7344 H   0  0  0  0  0  0  0  0  0  0  0  0
    6.3943   11.1775   -9.5035 H   0  0  0  0  0  0  0  0  0  0  0  0
    7.8859   13.0781   -8.8812 H   0  0  0  0  0  0  0  0  0  0  0  0
    8.0742   13.7847   -6.5057 H   0  0  0  0  0  0  0  0  0  0  0  0
   11.2247    6.3836   -2.5896 H   0  0  0  0  0  0  0  0  0  0  0  0
   11.3048    3.9297   -0.9777 H   0  0  0  0  0  0  0  0  0  0  0  0
   11.5152    5.5445   -0.2843 H   0  0  0  0  0  0  0  0  0  0  0  0
   13.7532    6.0366    0.2556 H   0  0  0  0  0  0  0  0  0  0  0  0
   18.1175    6.5141    0.6672 H   0  0  0  0  0  0  0  0  0  0  0  0
   17.9810    6.4128   -1.1176 H   0  0  0  0  0  0  0  0  0  0  0  0
   18.0499    4.9124   -0.1355 H   0  0  0  0  0  0  0  0  0  0  0  0
   16.9840    4.5768   -2.2277 H   0  0  0  0  0  0  0  0  0  0  0  0
   15.3356    2.3600   -5.6353 H   0  0  0  0  0  0  0  0  0  0  0  0
   14.0166    3.5273   -5.3449 H   0  0  0  0  0  0  0  0  0  0  0  0
   14.0773    1.9963   -4.4182 H   0  0  0  0  0  0  0  0  0  0  0  0
   12.8994    3.6854   -3.2663 H   0  0  0  0  0  0  0  0  0  0  0  0
  1  2  1  0
  1 47  1  0
  1 48  1  0
  1 49  1  0
  2  3  1  0
  2 50  1  0
  3  4  2  0
  3  5  1  0
  5  6  2  0
  5 51  1  0
  6  7  1  0
  6 52  1  0
  7  8  1  1
  7  9  1  0
  7 16  1  0
  9 10  1  0
  9 53  1  0
  9 54  1  0
 10 11  2  0
 10 15  1  0
 11 12  1  0
 11 55  1  0
 12 13  2  0
 12 56  1  0
 13 14  1  0
 13 57  1  0
 14 15  2  0
 14 58  1  0
 15 59  1  0
 16 17  1  0
 16 60  1  0
 17 18  2  0
 17 19  1  0
 19 20  1  1
 19 21  1  0
 19 35  1  0
 21 22  1  0
 21 61  1  0
 21 62  1  0
 22 23  1  0
 22 63  1  0
 22 64  1  0
 23 24  1  0
 23 65  1  0
 23 66  1  0
 24 25  1  0
 24 67  1  0
 25 26  2  0
 25 27  1  0
 27 28  1  0
 28 29  1  0
 28 68  1  0
 28 69  1  0
 29 30  2  0
 29 34  1  0
 30 31  1  0
 30 70  1  0
 31 32  2  0
 31 71  1  0
 32 33  1  0
 32 72  1  0
 33 34  2  0
 33 73  1  0
 34 74  1  0
 35 36  1  0
 35 75  1  0
 36 37  1  0
 36 76  1  0
 36 77  1  0
 37 38  2  0
 37 46  1  0
 38 39  1  0
 38 78  1  0
 39 40  1  0
 39 42  2  0
 40 41  1  0
 41 79  1  0
 41 80  1  0
 41 81  1  0
 42 43  1  0
 42 82  1  0
 43 44  1  0
 43 46  2  0
 44 45  1  0
 45 83  1  0
 45 84  1  0
 45 85  1  0
 46 86  1  0
M  END

