
     RDKit          3D

 48 50  0  0  0  0  0  0  0  0999 V2000
    5.6803    2.5793    3.9929 C   0  0  0  0  0  0  0  0  0  0  0  0
    4.7575    2.3758    2.9476 O   0  0  0  0  0  0  0  0  0  0  0  0
    4.4360    1.1130    2.5720 C   0  0  0  0  0  0  0  0  0  0  0  0
    3.5168    0.9993    1.5140 C   0  0  0  0  0  0  0  0  0  0  0  0
    3.1411   -0.2599    1.0564 C   0  0  0  0  0  0  0  0  0  0  0  0
    3.6631   -1.4196    1.6364 C   0  0  0  0  0  0  0  0  0  0  0  0
    4.5741   -1.3190    2.6987 C   0  0  0  0  0  0  0  0  0  0  0  0
    5.1207   -2.5533    3.3192 C   0  0  0  0  0  0  0  0  0  0  0  0
    5.7506   -2.5656    4.5905 C   0  0  0  0  0  0  0  0  0  0  0  0
    6.2254   -3.7587    5.0865 C   0  0  0  0  0  0  0  0  0  0  0  0
    6.0486   -4.9099    4.2866 C   0  0  0  0  0  0  0  0  0  0  0  0
    6.6569   -6.4594    4.8859 S   0  0  0  0  0  0  0  0  0  0  0  0
    5.8370   -7.6852    3.7915 C   0  0  0  0  0  0  0  0  0  0  0  0
    6.5794   -8.0028    2.4865 C   0  0  0  0  0  0  0  0  0  0  0  0
    7.1837   -9.0502    2.3487 O   0  0  0  0  0  0  0  0  0  0  0  0
    6.4591   -7.0180    1.5415 N   0  0  0  0  0  0  0  0  0  0  0  0
    7.0132   -6.9707    0.2585 C   0  0  0  0  0  0  0  0  0  0  0  0
    7.8009   -8.0002   -0.2852 C   0  0  0  0  0  0  0  0  0  0  0  0
    8.3079   -7.8684   -1.5816 C   0  0  0  0  0  0  0  0  0  0  0  0
    9.0975   -9.0136   -2.1725 C   0  0  1  0  0  0  0  0  0  0  0  0
    9.8466   -9.6348   -1.2474 F   0  0  0  0  0  0  0  0  0  0  0  0
    8.2854   -9.9437   -2.7102 F   0  0  0  0  0  0  0  0  0  0  0  0
    9.9221   -8.5998   -3.1512 F   0  0  0  0  0  0  0  0  0  0  0  0
    8.0555   -6.7316   -2.3515 C   0  0  0  0  0  0  0  0  0  0  0  0
    7.2751   -5.7084   -1.8023 C   0  0  0  0  0  0  0  0  0  0  0  0
    7.0392   -4.4467   -2.5976 C   0  0  1  0  0  0  0  0  0  0  0  0
    6.9044   -4.7048   -3.9100 F   0  0  0  0  0  0  0  0  0  0  0  0
    5.9325   -3.7986   -2.1959 F   0  0  0  0  0  0  0  0  0  0  0  0
    8.0672   -3.5849   -2.4727 F   0  0  0  0  0  0  0  0  0  0  0  0
    6.7551   -5.8223   -0.5146 C   0  0  0  0  0  0  0  0  0  0  0  0
    5.4426   -4.8365    3.1015 N   0  0  0  0  0  0  0  0  0  0  0  0
    4.9872   -3.6892    2.6262 N   0  0  0  0  0  0  0  0  0  0  0  0
    4.9608   -0.0443    3.1621 C   0  0  0  0  0  0  0  0  0  0  0  0
    5.7790    3.6660    4.1164 H   0  0  0  0  0  0  0  0  0  0  0  0
    6.6733    2.1566    3.7541 H   0  0  0  0  0  0  0  0  0  0  0  0
    5.3273    2.1437    4.9456 H   0  0  0  0  0  0  0  0  0  0  0  0
    3.1208    1.9146    1.0699 H   0  0  0  0  0  0  0  0  0  0  0  0
    2.4285   -0.3416    0.2320 H   0  0  0  0  0  0  0  0  0  0  0  0
    3.3728   -2.4065    1.2777 H   0  0  0  0  0  0  0  0  0  0  0  0
    5.8371   -1.6532    5.1814 H   0  0  0  0  0  0  0  0  0  0  0  0
    6.7022   -3.8254    6.0668 H   0  0  0  0  0  0  0  0  0  0  0  0
    4.8087   -7.3424    3.6051 H   0  0  0  0  0  0  0  0  0  0  0  0
    5.8185   -8.6096    4.3824 H   0  0  0  0  0  0  0  0  0  0  0  0
    5.9444   -6.1835    1.8604 H   0  0  0  0  0  0  0  0  0  0  0  0
    8.0082   -8.8852    0.3119 H   0  0  0  0  0  0  0  0  0  0  0  0
    8.4572   -6.6436   -3.3608 H   0  0  0  0  0  0  0  0  0  0  0  0
    6.1413   -5.0188   -0.1017 H   0  0  0  0  0  0  0  0  0  0  0  0
    5.6908    0.0447    3.9647 H   0  0  0  0  0  0  0  0  0  0  0  0
  1  2  1  0
  1 34  1  0
  1 35  1  0
  1 36  1  0
  2  3  1  0
  3  4  2  0
  3 33  1  0
  4  5  1  0
  4 37  1  0
  5  6  2  0
  5 38  1  0
  6  7  1  0
  6 39  1  0
  7  8  1  0
  7 33  2  0
  8  9  2  0
  8 32  1  0
  9 10  1  0
  9 40  1  0
 10 11  2  0
 10 41  1  0
 11 12  1  0
 11 31  1  0
 12 13  1  0
 13 14  1  0
 13 42  1  0
 13 43  1  0
 14 15  2  0
 14 16  1  0
 16 17  1  0
 16 44  1  0
 17 18  2  0
 17 30  1  0
 18 19  1  0
 18 45  1  0
 19 20  1  0
 19 24  2  0
 20 21  1  1
 20 22  1  0
 20 23  1  0
 24 25  1  0
 24 46  1  0
 25 26  1  0
 25 30  2  0
 26 27  1  6
 26 28  1  0
 26 29  1  0
 30 47  1  0
 31 32  2  0
 33 48  1  0
M  END

