
     RDKit          3D

 43 48  0  0  0  0  0  0  0  0999 V2000
    2.2174    0.5541    1.6786 O   0  0  0  0  0  0  0  0  0  0  0  0
    3.0250    0.2093    0.8516 C   0  0  0  0  0  0  0  0  0  0  0  0
    3.6849    1.0926   -0.1915 C   0  0  1  0  0  0  0  0  0  0  0  0
    2.8941    1.5461   -0.8082 H   0  0  0  0  0  0  0  0  0  0  0  0
    4.6473    2.2144    0.3615 C   0  0  1  0  0  0  0  0  0  0  0  0
    4.1222    3.1161    0.6998 H   0  0  0  0  0  0  0  0  0  0  0  0
    5.5796    1.5523    1.3662 C   0  0  0  0  0  0  0  0  0  0  0  0
    6.4082    0.7466    0.6816 C   0  0  0  0  0  0  0  0  0  0  0  0
    6.0424    0.8574   -0.7917 C   0  0  2  0  0  0  0  0  0  0  0  0
    6.7964    0.5152   -1.5111 H   0  0  0  0  0  0  0  0  0  0  0  0
    5.5991    2.3398   -0.8533 C   0  0  0  0  0  0  0  0  0  0  0  0
    4.6362    0.1683   -0.9734 C   0  0  1  0  0  0  0  0  0  0  0  0
    4.3940    0.0823   -2.0439 H   0  0  0  0  0  0  0  0  0  0  0  0
    4.4896   -1.1997   -0.3341 C   0  0  0  0  0  0  0  0  0  0  0  0
    5.0889   -2.2030   -0.6355 O   0  0  0  0  0  0  0  0  0  0  0  0
    3.5237   -1.1077    0.6974 N   0  0  0  0  0  0  0  0  0  0  0  0
    3.1247   -2.2090    1.5032 C   0  0  0  0  0  0  0  0  0  0  0  0
    2.8255   -2.0351    2.8588 C   0  0  0  0  0  0  0  0  0  0  0  0
    2.4284   -3.1382    3.6345 C   0  0  0  0  0  0  0  0  0  0  0  0
    2.3219   -4.4376    3.0893 C   0  0  0  0  0  0  0  0  0  0  0  0
    1.9315   -5.5638    3.8482 C   0  0  0  0  0  0  0  0  0  0  0  0
    1.8283   -6.8680    3.2958 C   0  0  0  0  0  0  0  0  0  0  0  0
    1.4411   -7.9912    4.0562 C   0  0  0  0  0  0  0  0  0  0  0  0
    1.3509   -9.2748    3.4754 C   0  0  0  0  0  0  0  0  0  0  0  0
    1.6467   -9.4491    2.1246 C   0  0  0  0  0  0  0  0  0  0  0  0
    2.0356   -8.3441    1.3396 C   0  0  0  0  0  0  0  0  0  0  0  0
    2.1349   -7.0481    1.8940 C   0  0  0  0  0  0  0  0  0  0  0  0
    2.5232   -5.9173    1.1341 C   0  0  0  0  0  0  0  0  0  0  0  0
    2.6275   -4.6156    1.6884 C   0  0  0  0  0  0  0  0  0  0  0  0
    3.0139   -3.5003    0.9202 C   0  0  0  0  0  0  0  0  0  0  0  0
    5.4997    1.6525    2.4501 H   0  0  0  0  0  0  0  0  0  0  0  0
    7.1425    0.0503    1.0904 H   0  0  0  0  0  0  0  0  0  0  0  0
    5.0861    2.6092   -1.7911 H   0  0  0  0  0  0  0  0  0  0  0  0
    6.4286    3.0392   -0.6726 H   0  0  0  0  0  0  0  0  0  0  0  0
    2.8877   -1.0488    3.3127 H   0  0  0  0  0  0  0  0  0  0  0  0
    2.2026   -2.9872    4.6932 H   0  0  0  0  0  0  0  0  0  0  0  0
    1.6978   -5.4255    4.9083 H   0  0  0  0  0  0  0  0  0  0  0  0
    1.2082   -7.8582    5.1161 H   0  0  0  0  0  0  0  0  0  0  0  0
    1.0489  -10.1262    4.0896 H   0  0  0  0  0  0  0  0  0  0  0  0
    1.5797  -10.4394    1.6681 H   0  0  0  0  0  0  0  0  0  0  0  0
    2.2670   -8.4856    0.2804 H   0  0  0  0  0  0  0  0  0  0  0  0
    2.7581   -6.0541    0.0743 H   0  0  0  0  0  0  0  0  0  0  0  0
    3.2477   -3.6389   -0.1338 H   0  0  0  0  0  0  0  0  0  0  0  0
  1  2  2  0
  2  3  1  0
  2 16  1  0
  3  4  1  6
  3  5  1  0
  3 12  1  0
  5  6  1  1
  5  7  1  0
  5 11  1  0
  7  8  2  0
  7 31  1  0
  8  9  1  0
  8 32  1  0
  9 10  1  6
  9 11  1  0
  9 12  1  0
 11 33  1  0
 11 34  1  0
 12 13  1  6
 12 14  1  0
 14 15  2  0
 14 16  1  0
 16 17  1  0
 17 18  2  0
 17 30  1  0
 18 19  1  0
 18 35  1  0
 19 20  2  0
 19 36  1  0
 20 21  1  0
 20 29  1  0
 21 22  2  0
 21 37  1  0
 22 23  1  0
 22 27  1  0
 23 24  2  0
 23 38  1  0
 24 25  1  0
 24 39  1  0
 25 26  2  0
 25 40  1  0
 26 27  1  0
 26 41  1  0
 27 28  2  0
 28 29  1  0
 28 42  1  0
 29 30  2  0
 30 43  1  0
M  END

