
     RDKit          3D

 49 49  0  0  0  0  0  0  0  0999 V2000
    3.5306   -5.2023   -2.3808 C   0  0  0  0  0  0  0  0  0  0  0  0
    4.2963   -4.3582   -1.3349 C   0  0  1  0  0  0  0  0  0  0  0  0
    5.2614   -3.3679   -2.0277 C   0  0  0  0  0  0  0  0  0  0  0  0
    3.4284   -3.7022   -0.2703 C   0  0  0  0  0  0  0  0  0  0  0  0
    3.5176   -3.9852    1.0883 C   0  0  0  0  0  0  0  0  0  0  0  0
    4.3014   -5.1934    1.5158 N   0  0  0  0  0  0  0  0  0  0  0  0
    4.1108   -5.4445    2.8150 N   0  0  0  0  0  0  0  0  0  0  0  0
    3.0290   -3.3462    2.1012 N   0  0  0  0  0  0  0  0  0  0  0  0
    2.3469   -2.1662    1.8020 C   0  0  0  0  0  0  0  0  0  0  0  0
    2.0721   -1.8144    0.5139 N   0  0  0  0  0  0  0  0  0  0  0  0
    2.5500   -2.5130   -0.4777 C   0  0  0  0  0  0  0  0  0  0  0  0
    2.2591   -2.1235   -1.7715 N   0  0  0  0  0  0  0  0  0  0  0  0
    1.3624   -1.0181   -2.0608 C   0  0  0  0  0  0  0  0  0  0  0  0
   -0.1584   -1.3339   -2.0253 C   0  0  1  0  0  0  0  0  0  0  0  0
   -0.9778   -0.0789   -1.5883 C   0  0  1  0  0  0  0  0  0  0  0  0
   -0.8939    0.1601   -0.0737 C   0  0  0  0  0  0  0  0  0  0  0  0
   -0.6160    1.1972   -2.3677 C   0  0  0  0  0  0  0  0  0  0  0  0
   -0.7141   -1.9439   -3.3481 C   0  0  1  0  0  0  0  0  0  0  0  0
    0.2186   -2.9579   -4.0298 C   0  0  0  0  0  0  0  0  0  0  0  0
   -2.0838   -2.6090   -3.1342 C   0  0  0  0  0  0  0  0  0  0  0  0
    4.2310   -5.7683   -3.0189 H   0  0  0  0  0  0  0  0  0  0  0  0
    2.9160   -4.5884   -3.0598 H   0  0  0  0  0  0  0  0  0  0  0  0
    2.8514   -5.9189   -1.8922 H   0  0  0  0  0  0  0  0  0  0  0  0
    4.9534   -5.0737   -0.8106 H   0  0  0  0  0  0  0  0  0  0  0  0
    4.7116   -2.5869   -2.5735 H   0  0  0  0  0  0  0  0  0  0  0  0
    5.9183   -3.8895   -2.7450 H   0  0  0  0  0  0  0  0  0  0  0  0
    5.8966   -2.8608   -1.2853 H   0  0  0  0  0  0  0  0  0  0  0  0
    4.2851   -6.0096    0.9052 H   0  0  0  0  0  0  0  0  0  0  0  0
    3.6735   -4.5749    3.2223 H   0  0  0  0  0  0  0  0  0  0  0  0
    4.7819   -6.0450    3.2878 H   0  0  0  0  0  0  0  0  0  0  0  0
    1.8958   -1.6078    2.6189 H   0  0  0  0  0  0  0  0  0  0  0  0
    2.3824   -2.8220   -2.4884 H   0  0  0  0  0  0  0  0  0  0  0  0
    1.6416   -0.5987   -3.0420 H   0  0  0  0  0  0  0  0  0  0  0  0
    1.5839   -0.2495   -1.3102 H   0  0  0  0  0  0  0  0  0  0  0  0
   -0.2909   -2.0914   -1.2329 H   0  0  0  0  0  0  0  0  0  0  0  0
   -2.0363   -0.2919   -1.8146 H   0  0  0  0  0  0  0  0  0  0  0  0
    0.1452    0.2873    0.2659 H   0  0  0  0  0  0  0  0  0  0  0  0
   -1.3046   -0.6963    0.4847 H   0  0  0  0  0  0  0  0  0  0  0  0
   -1.4664    1.0577    0.2146 H   0  0  0  0  0  0  0  0  0  0  0  0
    0.3901    1.5658   -2.1106 H   0  0  0  0  0  0  0  0  0  0  0  0
   -1.3258    2.0062   -2.1297 H   0  0  0  0  0  0  0  0  0  0  0  0
   -0.6484    1.0454   -3.4590 H   0  0  0  0  0  0  0  0  0  0  0  0
   -0.8522   -1.1102   -4.0627 H   0  0  0  0  0  0  0  0  0  0  0  0
    0.4210   -3.8216   -3.3741 H   0  0  0  0  0  0  0  0  0  0  0  0
    1.1820   -2.5160   -4.3290 H   0  0  0  0  0  0  0  0  0  0  0  0
   -0.2478   -3.3496   -4.9486 H   0  0  0  0  0  0  0  0  0  0  0  0
   -1.9890   -3.4849   -2.4693 H   0  0  0  0  0  0  0  0  0  0  0  0
   -2.5061   -2.9620   -4.0894 H   0  0  0  0  0  0  0  0  0  0  0  0
   -2.8209   -1.9294   -2.6819 H   0  0  0  0  0  0  0  0  0  0  0  0
  1  2  1  0
  1 21  1  0
  1 22  1  0
  1 23  1  0
  2  3  1  0
  2  4  1  0
  2 24  1  1
  3 25  1  0
  3 26  1  0
  3 27  1  0
  4  5  2  0
  4 11  1  0
  5  6  1  0
  5  8  1  0
  6  7  1  0
  6 28  1  0
  7 29  1  0
  7 30  1  0
  8  9  2  0
  9 10  1  0
  9 31  1  0
 10 11  2  0
 11 12  1  0
 12 13  1  0
 12 32  1  0
 13 14  1  0
 13 33  1  0
 13 34  1  0
 14 15  1  0
 14 18  1  0
 14 35  1  6
 15 16  1  0
 15 17  1  0
 15 36  1  6
 16 37  1  0
 16 38  1  0
 16 39  1  0
 17 40  1  0
 17 41  1  0
 17 42  1  0
 18 19  1  0
 18 20  1  0
 18 43  1  1
 19 44  1  0
 19 45  1  0
 19 46  1  0
 20 47  1  0
 20 48  1  0
 20 49  1  0
M  END

