
     RDKit          3D

 50 52  0  0  0  0  0  0  0  0999 V2000
    1.6634   -0.5497   -2.1374 C   0  0  0  0  0  0  0  0  0  0  0  0
    2.7776   -0.2028   -1.1742 C   0  0  0  0  0  0  0  0  0  0  0  0
    3.4275    1.0363   -1.2999 C   0  0  0  0  0  0  0  0  0  0  0  0
    4.4622    1.4151   -0.4435 C   0  0  0  0  0  0  0  0  0  0  0  0
    4.8689    0.5438    0.5684 C   0  0  0  0  0  0  0  0  0  0  0  0
    4.2338   -0.6913    0.7057 C   0  0  0  0  0  0  0  0  0  0  0  0
    3.1905   -1.0871   -0.1484 C   0  0  0  0  0  0  0  0  0  0  0  0
    2.5306   -2.4396    0.0507 C   0  0  1  0  0  0  0  0  0  0  0  0
    3.4572   -3.6754    0.0122 C   0  0  0  0  0  0  0  0  0  0  0  0
    2.5871   -4.7867    0.6050 C   0  0  0  0  0  0  0  0  0  0  0  0
    1.7460   -4.0724    1.5688 N   0  0  0  0  0  0  0  0  0  0  0  0
    0.8672   -4.7726    2.3627 C   0  0  0  0  0  0  0  0  0  0  0  0
    0.7526   -5.9900    2.2866 O   0  0  0  0  0  0  0  0  0  0  0  0
    0.1114   -4.0079    3.2374 N   0  0  0  0  0  0  0  0  0  0  0  0
   -0.7380   -4.6708    4.2328 C   0  0  1  0  0  0  0  0  0  0  0  0
   -1.0358   -3.7108    5.3942 C   0  0  0  0  0  0  0  0  0  0  0  0
   -1.9758   -2.5578    5.0067 C   0  0  0  0  0  0  0  0  0  0  0  0
   -3.2777   -3.0625    4.3607 C   0  0  2  0  0  0  0  0  0  0  0  0
   -4.2102   -3.6814    5.4136 C   0  0  0  0  0  0  0  0  0  0  0  0
   -4.0332   -3.6154    6.6003 O   0  0  0  0  0  0  0  0  0  0  0  0
   -5.3131   -4.2995    4.9312 O   0  0  0  0  0  0  0  0  0  0  0  0
   -2.9600   -4.0102    3.1812 C   0  0  0  0  0  0  0  0  0  0  0  0
   -2.0519   -5.1707    3.5988 C   0  0  0  0  0  0  0  0  0  0  0  0
    1.8062   -2.6245    1.4054 C   0  0  0  0  0  0  0  0  0  0  0  0
    1.4882    0.2747   -2.8436 H   0  0  0  0  0  0  0  0  0  0  0  0
    0.7104   -0.7457   -1.6184 H   0  0  0  0  0  0  0  0  0  0  0  0
    1.8951   -1.4484   -2.7333 H   0  0  0  0  0  0  0  0  0  0  0  0
    3.1099    1.7197   -2.0925 H   0  0  0  0  0  0  0  0  0  0  0  0
    4.9475    2.3865   -0.5677 H   0  0  0  0  0  0  0  0  0  0  0  0
    5.6778    0.8218    1.2487 H   0  0  0  0  0  0  0  0  0  0  0  0
    4.5628   -1.3665    1.5007 H   0  0  0  0  0  0  0  0  0  0  0  0
    1.7728   -2.5875   -0.7320 H   0  0  0  0  0  0  0  0  0  0  0  0
    4.3446   -3.5054    0.6432 H   0  0  0  0  0  0  0  0  0  0  0  0
    3.8125   -3.9050   -1.0032 H   0  0  0  0  0  0  0  0  0  0  0  0
    3.1662   -5.5801    1.1012 H   0  0  0  0  0  0  0  0  0  0  0  0
    1.9661   -5.2803   -0.1650 H   0  0  0  0  0  0  0  0  0  0  0  0
    0.4626   -3.0894    3.4803 H   0  0  0  0  0  0  0  0  0  0  0  0
   -0.1943   -5.5509    4.6143 H   0  0  0  0  0  0  0  0  0  0  0  0
   -0.0915   -3.3116    5.8040 H   0  0  0  0  0  0  0  0  0  0  0  0
   -1.5050   -4.2869    6.2063 H   0  0  0  0  0  0  0  0  0  0  0  0
   -1.4794   -1.8799    4.2909 H   0  0  0  0  0  0  0  0  0  0  0  0
   -2.2150   -1.9616    5.8990 H   0  0  0  0  0  0  0  0  0  0  0  0
   -3.8384   -2.1934    3.9665 H   0  0  0  0  0  0  0  0  0  0  0  0
   -5.3116   -4.2852    3.9635 H   0  0  0  0  0  0  0  0  0  0  0  0
   -2.4541   -3.4212    2.3987 H   0  0  0  0  0  0  0  0  0  0  0  0
   -3.8790   -4.3956    2.7028 H   0  0  0  0  0  0  0  0  0  0  0  0
   -1.8074   -5.8098    2.7381 H   0  0  0  0  0  0  0  0  0  0  0  0
   -2.5709   -5.8115    4.3336 H   0  0  0  0  0  0  0  0  0  0  0  0
    2.3753   -2.1357    2.2210 H   0  0  0  0  0  0  0  0  0  0  0  0
    0.7981   -2.1762    1.3932 H   0  0  0  0  0  0  0  0  0  0  0  0
  1  2  1  0
  1 25  1  0
  1 26  1  0
  1 27  1  0
  2  3  2  0
  2  7  1  0
  3  4  1  0
  3 28  1  0
  4  5  2  0
  4 29  1  0
  5  6  1  0
  5 30  1  0
  6  7  2  0
  6 31  1  0
  7  8  1  0
  8  9  1  0
  8 24  1  0
  8 32  1  6
  9 10  1  0
  9 33  1  0
  9 34  1  0
 10 11  1  0
 10 35  1  0
 10 36  1  0
 11 12  1  0
 11 24  1  0
 12 13  2  0
 12 14  1  0
 14 15  1  0
 14 37  1  0
 15 16  1  0
 15 23  1  0
 15 38  1  1
 16 17  1  0
 16 39  1  0
 16 40  1  0
 17 18  1  0
 17 41  1  0
 17 42  1  0
 18 19  1  0
 18 22  1  0
 18 43  1  6
 19 20  2  0
 19 21  1  0
 21 44  1  0
 22 23  1  0
 22 45  1  0
 22 46  1  0
 23 47  1  0
 23 48  1  0
 24 49  1  0
 24 50  1  0
M  END

