
     RDKit          3D

 71 75  0  0  0  0  0  0  0  0999 V2000
   -2.5610   -1.6291   -4.5192 C   0  0  0  0  0  0  0  0  0  0  0  0
   -3.3875   -2.7300   -3.8996 C   0  0  0  0  0  0  0  0  0  0  0  0
   -4.5071   -3.2398   -4.5736 C   0  0  0  0  0  0  0  0  0  0  0  0
   -5.3116   -4.2375   -4.0154 C   0  0  0  0  0  0  0  0  0  0  0  0
   -5.0035   -4.7554   -2.7566 C   0  0  0  0  0  0  0  0  0  0  0  0
   -3.8835   -4.2723   -2.0759 C   0  0  0  0  0  0  0  0  0  0  0  0
   -3.0718   -3.2725   -2.6320 C   0  0  0  0  0  0  0  0  0  0  0  0
   -1.9347   -2.6873   -1.8267 C   0  0  0  0  0  0  0  0  0  0  0  0
   -1.9236   -1.4941   -1.5555 O   0  0  0  0  0  0  0  0  0  0  0  0
   -0.9332   -3.5328   -1.3931 N   0  0  0  0  0  0  0  0  0  0  0  0
   -0.7290   -4.9099   -1.8291 C   0  0  0  0  0  0  0  0  0  0  0  0
   -0.7634   -5.9344   -0.6894 C   0  0  0  0  0  0  0  0  0  0  0  0
    0.1828   -5.6327    0.4865 C   0  0  0  0  0  0  0  0  0  0  0  0
   -0.2592   -4.5485    1.3559 N   0  0  0  0  0  0  0  0  0  0  0  0
   -0.8958   -4.7109    2.5667 C   0  0  0  0  0  0  0  0  0  0  0  0
   -1.2201   -3.7362    3.2349 O   0  0  0  0  0  0  0  0  0  0  0  0
   -1.2568   -6.1324    3.0696 C   0  0  1  0  0  0  0  0  0  0  0  0
   -0.5174   -6.8534    2.7012 H   0  0  0  0  0  0  0  0  0  0  0  0
   -1.2040   -6.1617    4.6039 C   0  0  0  0  0  0  0  0  0  0  0  0
   -2.5374   -6.5098    2.4583 N   0  0  0  0  0  0  0  0  0  0  0  0
   -3.7197   -5.8074    2.9475 C   0  0  0  0  0  0  0  0  0  0  0  0
   -4.7854   -5.7111    1.8483 C   0  0  0  0  0  0  0  0  0  0  0  0
   -4.9232   -7.0457    1.1794 C   0  0  0  0  0  0  0  0  0  0  0  0
   -6.2784   -7.5143    0.1881 S   0  0  0  0  0  0  0  0  0  0  0  0
   -5.5862   -9.0781   -0.1107 C   0  0  0  0  0  0  0  0  0  0  0  0
   -4.3833   -9.2252    0.5245 C   0  0  0  0  0  0  0  0  0  0  0  0
   -3.9953   -8.0559    1.2611 C   0  0  0  0  0  0  0  0  0  0  0  0
   -2.7121   -7.9171    2.0580 C   0  0  2  0  0  0  0  0  0  0  0  0
   -1.8860   -8.1372    1.3637 H   0  0  0  0  0  0  0  0  0  0  0  0
   -2.6409   -8.9611    3.1917 C   0  0  0  0  0  0  0  0  0  0  0  0
   -3.7162   -9.0771    4.0897 C   0  0  0  0  0  0  0  0  0  0  0  0
   -3.6831   -9.9627    5.1673 C   0  0  0  0  0  0  0  0  0  0  0  0
   -2.5635  -10.7757    5.3535 C   0  0  0  0  0  0  0  0  0  0  0  0
   -1.5039  -10.6991    4.4490 C   0  0  0  0  0  0  0  0  0  0  0  0
   -1.5182   -9.8078    3.3620 C   0  0  0  0  0  0  0  0  0  0  0  0
   -0.3404   -9.8167    2.4085 C   0  0  0  0  0  0  0  0  0  0  0  0
   -0.0515   -3.1552    0.9300 C   0  0  0  0  0  0  0  0  0  0  0  0
    0.1323   -2.9600   -0.5748 C   0  0  0  0  0  0  0  0  0  0  0  0
   -2.9084   -1.4006   -5.5372 H   0  0  0  0  0  0  0  0  0  0  0  0
   -1.4947   -1.9034   -4.5771 H   0  0  0  0  0  0  0  0  0  0  0  0
   -2.6133   -0.7154   -3.9090 H   0  0  0  0  0  0  0  0  0  0  0  0
   -4.7561   -2.8369   -5.5595 H   0  0  0  0  0  0  0  0  0  0  0  0
   -6.1812   -4.6064   -4.5655 H   0  0  0  0  0  0  0  0  0  0  0  0
   -5.6233   -5.5310   -2.3003 H   0  0  0  0  0  0  0  0  0  0  0  0
   -3.6408   -4.6736   -1.0893 H   0  0  0  0  0  0  0  0  0  0  0  0
    0.2556   -4.9680   -2.3337 H   0  0  0  0  0  0  0  0  0  0  0  0
   -1.4833   -5.1648   -2.5828 H   0  0  0  0  0  0  0  0  0  0  0  0
   -0.4903   -6.9160   -1.1152 H   0  0  0  0  0  0  0  0  0  0  0  0
   -1.7843   -6.0290   -0.2864 H   0  0  0  0  0  0  0  0  0  0  0  0
    1.1952   -5.4017    0.1114 H   0  0  0  0  0  0  0  0  0  0  0  0
    0.2997   -6.5423    1.0855 H   0  0  0  0  0  0  0  0  0  0  0  0
   -0.1822   -5.9421    4.9525 H   0  0  0  0  0  0  0  0  0  0  0  0
   -1.4954   -7.1504    4.9843 H   0  0  0  0  0  0  0  0  0  0  0  0
   -1.8613   -5.3957    5.0363 H   0  0  0  0  0  0  0  0  0  0  0  0
   -3.4147   -4.7962    3.2488 H   0  0  0  0  0  0  0  0  0  0  0  0
   -4.1581   -6.2856    3.8471 H   0  0  0  0  0  0  0  0  0  0  0  0
   -4.4896   -4.9411    1.1137 H   0  0  0  0  0  0  0  0  0  0  0  0
   -5.7437   -5.3785    2.2810 H   0  0  0  0  0  0  0  0  0  0  0  0
   -6.1133   -9.8005   -0.7321 H   0  0  0  0  0  0  0  0  0  0  0  0
   -3.7894  -10.1400    0.4795 H   0  0  0  0  0  0  0  0  0  0  0  0
   -4.6087   -8.4702    3.9285 H   0  0  0  0  0  0  0  0  0  0  0  0
   -4.5336  -10.0241    5.8510 H   0  0  0  0  0  0  0  0  0  0  0  0
   -2.5198  -11.4787    6.1893 H   0  0  0  0  0  0  0  0  0  0  0  0
   -0.6377  -11.3537    4.5817 H   0  0  0  0  0  0  0  0  0  0  0  0
    0.3749  -10.6032    2.6888 H   0  0  0  0  0  0  0  0  0  0  0  0
    0.2126   -8.8631    2.4087 H   0  0  0  0  0  0  0  0  0  0  0  0
   -0.6475  -10.0103    1.3676 H   0  0  0  0  0  0  0  0  0  0  0  0
    0.8284   -2.7268    1.4467 H   0  0  0  0  0  0  0  0  0  0  0  0
   -0.9166   -2.5729    1.2735 H   0  0  0  0  0  0  0  0  0  0  0  0
    1.0922   -3.3782   -0.9198 H   0  0  0  0  0  0  0  0  0  0  0  0
    0.1543   -1.8775   -0.7604 H   0  0  0  0  0  0  0  0  0  0  0  0
  1  2  1  0
  1 39  1  0
  1 40  1  0
  1 41  1  0
  2  3  2  0
  2  7  1  0
  3  4  1  0
  3 42  1  0
  4  5  2  0
  4 43  1  0
  5  6  1  0
  5 44  1  0
  6  7  2  0
  6 45  1  0
  7  8  1  0
  8  9  2  0
  8 10  1  0
 10 11  1  0
 10 38  1  0
 11 12  1  0
 11 46  1  0
 11 47  1  0
 12 13  1  0
 12 48  1  0
 12 49  1  0
 13 14  1  0
 13 50  1  0
 13 51  1  0
 14 15  1  0
 14 37  1  0
 15 16  2  0
 15 17  1  0
 17 18  1  6
 17 19  1  0
 17 20  1  0
 19 52  1  0
 19 53  1  0
 19 54  1  0
 20 21  1  0
 20 28  1  0
 21 22  1  0
 21 55  1  0
 21 56  1  0
 22 23  1  0
 22 57  1  0
 22 58  1  0
 23 24  1  0
 23 27  2  0
 24 25  1  0
 25 26  2  0
 25 59  1  0
 26 27  1  0
 26 60  1  0
 27 28  1  0
 28 29  1  6
 28 30  1  0
 30 31  2  0
 30 35  1  0
 31 32  1  0
 31 61  1  0
 32 33  2  0
 32 62  1  0
 33 34  1  0
 33 63  1  0
 34 35  2  0
 34 64  1  0
 35 36  1  0
 36 65  1  0
 36 66  1  0
 36 67  1  0
 37 38  1  0
 37 68  1  0
 37 69  1  0
 38 70  1  0
 38 71  1  0
M  END

