
     RDKit          3D

 31 33  0  0  0  0  0  0  0  0999 V2000
    1.8229   -0.0187    1.2670 C   0  0  0  0  0  0  0  0  0  0  0  0
    2.6251   -0.1722    0.1119 O   0  0  0  0  0  0  0  0  0  0  0  0
    2.8672    0.8824   -0.6881 C   0  0  0  0  0  0  0  0  0  0  0  0
    2.3708    2.1869   -0.4700 C   0  0  0  0  0  0  0  0  0  0  0  0
    2.6800    3.2059   -1.3579 C   0  0  0  0  0  0  0  0  0  0  0  0
    3.4960    2.9849   -2.5061 C   0  0  0  0  0  0  0  0  0  0  0  0
    3.8088    4.0451   -3.4188 C   0  0  0  0  0  0  0  0  0  0  0  0
    3.4102    5.3973   -3.3805 C   0  0  0  0  0  0  0  0  0  0  0  0
    3.8900    6.1740   -4.4307 C   0  0  0  0  0  0  0  0  0  0  0  0
    4.6960    5.4450   -5.3475 C   0  0  0  0  0  0  0  0  0  0  0  0
    5.3362    5.9132   -6.5180 C   0  0  0  0  0  0  0  0  0  0  0  0
    6.1348    5.2038   -7.4449 C   0  0  0  0  0  0  0  0  0  0  0  0
    6.6094    5.9899   -8.4935 C   0  0  0  0  0  0  0  0  0  0  0  0
    6.1951    7.3324   -8.4149 C   0  0  0  0  0  0  0  0  0  0  0  0
    6.4963    8.3789   -9.3062 C   0  0  0  0  0  0  0  0  0  0  0  0
    6.7467    9.2473  -10.0467 N   0  0  0  0  0  0  0  0  0  0  0  0
    5.1903    7.6127   -6.9986 S   0  0  0  0  0  0  0  0  0  0  0  0
    4.8291    3.7597   -4.8440 S   0  0  0  0  0  0  0  0  0  0  0  0
    3.9834    1.6552   -2.6993 C   0  0  0  0  0  0  0  0  0  0  0  0
    3.6786    0.6363   -1.8186 C   0  0  0  0  0  0  0  0  0  0  0  0
    1.7749   -1.0060    1.7440 H   0  0  0  0  0  0  0  0  0  0  0  0
    0.8003    0.3085    1.0097 H   0  0  0  0  0  0  0  0  0  0  0  0
    2.2657    0.7036    1.9751 H   0  0  0  0  0  0  0  0  0  0  0  0
    1.7424    2.4078    0.3931 H   0  0  0  0  0  0  0  0  0  0  0  0
    2.2821    4.2031   -1.1634 H   0  0  0  0  0  0  0  0  0  0  0  0
    2.7762    5.7977   -2.5888 H   0  0  0  0  0  0  0  0  0  0  0  0
    3.6813    7.2368   -4.5559 H   0  0  0  0  0  0  0  0  0  0  0  0
    6.3501    4.1395   -7.3346 H   0  0  0  0  0  0  0  0  0  0  0  0
    7.2394    5.6253   -9.3051 H   0  0  0  0  0  0  0  0  0  0  0  0
    4.6126    1.4345   -3.5648 H   0  0  0  0  0  0  0  0  0  0  0  0
    4.0539   -0.3773   -1.9731 H   0  0  0  0  0  0  0  0  0  0  0  0
  1  2  1  0
  1 21  1  0
  1 22  1  0
  1 23  1  0
  2  3  1  0
  3  4  2  0
  3 20  1  0
  4  5  1  0
  4 24  1  0
  5  6  2  0
  5 25  1  0
  6  7  1  0
  6 19  1  0
  7  8  2  0
  7 18  1  0
  8  9  1  0
  8 26  1  0
  9 10  2  0
  9 27  1  0
 10 11  1  0
 10 18  1  0
 11 12  2  0
 11 17  1  0
 12 13  1  0
 12 28  1  0
 13 14  2  0
 13 29  1  0
 14 15  1  0
 14 17  1  0
 15 16  3  0
 19 20  2  0
 19 30  1  0
 20 31  1  0
M  END

