
     RDKit          3D

 87 93  0  0  0  0  0  0  0  0999 V2000
    1.6702    2.4037   -0.8991 C   0  0  0  0  0  0  0  0  0  0  0  0
    3.0541    2.0280   -0.9858 O   0  0  0  0  0  0  0  0  0  0  0  0
    3.3090    0.7609   -1.3126 C   0  0  0  0  0  0  0  0  0  0  0  0
    2.4457   -0.0637   -1.5046 O   0  0  0  0  0  0  0  0  0  0  0  0
    4.8224    0.4249   -1.3583 C   0  0  1  0  0  0  0  0  0  0  0  0
    5.6992    1.6935   -1.5779 C   0  0  0  0  0  0  0  0  0  0  0  0
    7.1961    1.5243   -1.4096 C   0  0  0  0  0  0  0  0  0  0  0  0
    7.9874    0.7491   -2.2830 C   0  0  0  0  0  0  0  0  0  0  0  0
    9.3611    0.6295   -2.1031 C   0  0  0  0  0  0  0  0  0  0  0  0
   10.0051    1.2886   -1.0401 C   0  0  0  0  0  0  0  0  0  0  0  0
   11.3450    1.1136   -0.9491 O   0  0  0  0  0  0  0  0  0  0  0  0
   12.0581    1.7532    0.0865 C   0  0  0  0  0  0  0  0  0  0  0  0
    9.2396    2.0703   -0.1633 C   0  0  0  0  0  0  0  0  0  0  0  0
    7.8573    2.1755   -0.3589 C   0  0  0  0  0  0  0  0  0  0  0  0
    5.2057   -0.2881    0.0060 C   0  0  1  0  0  0  0  0  0  0  0  0
    6.2321    0.0146    0.2523 H   0  0  0  0  0  0  0  0  0  0  0  0
    4.2704   -0.1210    1.1637 C   0  0  0  0  0  0  0  0  0  0  0  0
    3.9208    0.7322    2.1890 C   0  0  0  0  0  0  0  0  0  0  0  0
    2.8499    0.0885    2.8903 C   0  0  0  0  0  0  0  0  0  0  0  0
    2.3414    0.4560    4.2535 C   0  0  0  0  0  0  0  0  0  0  0  0
    3.0112   -0.0971    5.1260 O   0  0  0  0  0  0  0  0  0  0  0  0
    1.3501    1.3337    4.4341 N   0  0  0  0  0  0  0  0  0  0  0  0
    0.5509    1.8825    3.3491 C   0  0  0  0  0  0  0  0  0  0  0  0
    0.9108    1.6382    5.7922 C   0  0  0  0  0  0  0  0  0  0  0  0
    2.5815   -1.1357    2.3071 N   0  0  0  0  0  0  0  0  0  0  0  0
    1.4978   -2.1022    2.7251 C   0  0  0  0  0  0  0  0  0  0  0  0
    0.1176   -1.5194    2.6790 C   0  0  0  0  0  0  0  0  0  0  0  0
   -0.3778   -1.0966    1.4095 C   0  0  0  0  0  0  0  0  0  0  0  0
   -1.6360   -0.5203    1.2912 C   0  0  0  0  0  0  0  0  0  0  0  0
   -2.4419   -0.3443    2.4285 C   0  0  0  0  0  0  0  0  0  0  0  0
   -2.0072   -0.7763    3.7187 C   0  0  0  0  0  0  0  0  0  0  0  0
   -2.8152   -0.6114    4.8722 C   0  0  0  0  0  0  0  0  0  0  0  0
   -2.3958   -1.0433    6.1421 C   0  0  0  0  0  0  0  0  0  0  0  0
   -1.1536   -1.6588    6.2788 C   0  0  0  0  0  0  0  0  0  0  0  0
   -0.3207   -1.8371    5.1585 C   0  0  0  0  0  0  0  0  0  0  0  0
   -0.6965   -1.3983    3.8591 C   0  0  0  0  0  0  0  0  0  0  0  0
    3.4322   -1.2746    1.2750 C   0  0  0  0  0  0  0  0  0  0  0  0
    3.7246   -2.2969    0.2370 C   0  0  0  0  0  0  0  0  0  0  0  0
    5.1211   -1.8183   -0.2854 C   0  0  1  0  0  0  0  0  0  0  0  0
    5.8966   -2.3400    0.2947 H   0  0  0  0  0  0  0  0  0  0  0  0
    5.3986   -1.9476   -1.7778 C   0  0  0  0  0  0  0  0  0  0  0  0
    5.0399   -0.6442   -2.3533 N   0  0  0  0  0  0  0  0  0  0  0  0
    5.0998   -0.5587   -3.7306 C   0  0  0  0  0  0  0  0  0  0  0  0
    5.5623   -1.4903   -4.3733 O   0  0  0  0  0  0  0  0  0  0  0  0
    4.5961    0.6637   -4.4598 C   0  0  0  0  0  0  0  0  0  0  0  0
    3.2441    1.0415   -4.4435 C   0  0  0  0  0  0  0  0  0  0  0  0
    2.8009    2.1024   -5.2412 C   0  0  0  0  0  0  0  0  0  0  0  0
    3.6996    2.7989   -6.0525 C   0  0  0  0  0  0  0  0  0  0  0  0
    5.0439    2.4119   -6.0891 C   0  0  0  0  0  0  0  0  0  0  0  0
    5.4851    1.3395   -5.3131 C   0  0  0  0  0  0  0  0  0  0  0  0
    1.6601    3.4276   -0.5077 H   0  0  0  0  0  0  0  0  0  0  0  0
    1.1200    1.7214   -0.2357 H   0  0  0  0  0  0  0  0  0  0  0  0
    1.2091    2.3743   -1.8968 H   0  0  0  0  0  0  0  0  0  0  0  0
    5.4674    2.1008   -2.5725 H   0  0  0  0  0  0  0  0  0  0  0  0
    5.3501    2.4472   -0.8599 H   0  0  0  0  0  0  0  0  0  0  0  0
    7.5321    0.2244   -3.1243 H   0  0  0  0  0  0  0  0  0  0  0  0
    9.9685    0.0296   -2.7838 H   0  0  0  0  0  0  0  0  0  0  0  0
   13.1120    1.4719   -0.0393 H   0  0  0  0  0  0  0  0  0  0  0  0
   11.7169    1.4241    1.0846 H   0  0  0  0  0  0  0  0  0  0  0  0
   11.9718    2.8532    0.0261 H   0  0  0  0  0  0  0  0  0  0  0  0
    9.7017    2.6024    0.6683 H   0  0  0  0  0  0  0  0  0  0  0  0
    7.2802    2.7974    0.3322 H   0  0  0  0  0  0  0  0  0  0  0  0
    4.3415    1.6966    2.4631 H   0  0  0  0  0  0  0  0  0  0  0  0
    0.8917    1.4956    2.3813 H   0  0  0  0  0  0  0  0  0  0  0  0
    0.6207    2.9836    3.3480 H   0  0  0  0  0  0  0  0  0  0  0  0
   -0.4995    1.5810    3.4652 H   0  0  0  0  0  0  0  0  0  0  0  0
    1.6288    1.2172    6.5052 H   0  0  0  0  0  0  0  0  0  0  0  0
   -0.0789    1.1930    5.9751 H   0  0  0  0  0  0  0  0  0  0  0  0
    0.8547    2.7308    5.9253 H   0  0  0  0  0  0  0  0  0  0  0  0
    1.6284   -2.9467    2.0279 H   0  0  0  0  0  0  0  0  0  0  0  0
    1.7800   -2.4554    3.7234 H   0  0  0  0  0  0  0  0  0  0  0  0
    0.2323   -1.2401    0.5127 H   0  0  0  0  0  0  0  0  0  0  0  0
   -2.0063   -0.2151    0.3081 H   0  0  0  0  0  0  0  0  0  0  0  0
   -3.4339    0.1058    2.3375 H   0  0  0  0  0  0  0  0  0  0  0  0
   -3.7956   -0.1414    4.7513 H   0  0  0  0  0  0  0  0  0  0  0  0
   -3.0472   -0.9079    7.0098 H   0  0  0  0  0  0  0  0  0  0  0  0
   -0.8184   -2.0153    7.2569 H   0  0  0  0  0  0  0  0  0  0  0  0
    0.6399   -2.3314    5.3139 H   0  0  0  0  0  0  0  0  0  0  0  0
    2.9610   -2.2362   -0.5576 H   0  0  0  0  0  0  0  0  0  0  0  0
    3.7319   -3.3283    0.6198 H   0  0  0  0  0  0  0  0  0  0  0  0
    4.8211   -2.7468   -2.2665 H   0  0  0  0  0  0  0  0  0  0  0  0
    6.4616   -2.1680   -1.9715 H   0  0  0  0  0  0  0  0  0  0  0  0
    2.5298    0.4829   -3.8384 H   0  0  0  0  0  0  0  0  0  0  0  0
    1.7427    2.3765   -5.2356 H   0  0  0  0  0  0  0  0  0  0  0  0
    3.3514    3.6314   -6.6690 H   0  0  0  0  0  0  0  0  0  0  0  0
    5.7489    2.9393   -6.7364 H   0  0  0  0  0  0  0  0  0  0  0  0
    6.5268    1.0162   -5.3683 H   0  0  0  0  0  0  0  0  0  0  0  0
  1  2  1  0
  1 51  1  0
  1 52  1  0
  1 53  1  0
  2  3  1  0
  3  4  2  0
  5  3  1  1
  5  6  1  0
  5 15  1  0
  5 42  1  0
  6  7  1  0
  6 54  1  0
  6 55  1  0
  7  8  2  0
  7 14  1  0
  8  9  1  0
  8 56  1  0
  9 10  2  0
  9 57  1  0
 10 11  1  0
 10 13  1  0
 11 12  1  0
 12 58  1  0
 12 59  1  0
 12 60  1  0
 13 14  2  0
 13 61  1  0
 14 62  1  0
 15 16  1  1
 15 17  1  0
 15 39  1  0
 17 18  1  0
 17 37  2  0
 18 19  2  0
 18 63  1  0
 19 20  1  0
 19 25  1  0
 20 21  2  0
 20 22  1  0
 22 23  1  0
 22 24  1  0
 23 64  1  0
 23 65  1  0
 23 66  1  0
 24 67  1  0
 24 68  1  0
 24 69  1  0
 25 26  1  0
 25 37  1  0
 26 27  1  0
 26 70  1  0
 26 71  1  0
 27 28  2  0
 27 36  1  0
 28 29  1  0
 28 72  1  0
 29 30  2  0
 29 73  1  0
 30 31  1  0
 30 74  1  0
 31 32  1  0
 31 36  2  0
 32 33  2  0
 32 75  1  0
 33 34  1  0
 33 76  1  0
 34 35  2  0
 34 77  1  0
 35 36  1  0
 35 78  1  0
 37 38  1  0
 38 39  1  0
 38 79  1  0
 38 80  1  0
 39 40  1  1
 39 41  1  0
 41 42  1  0
 41 81  1  0
 41 82  1  0
 42 43  1  0
 43 44  2  0
 43 45  1  0
 45 46  2  0
 45 50  1  0
 46 47  1  0
 46 83  1  0
 47 48  2  0
 47 84  1  0
 48 49  1  0
 48 85  1  0
 49 50  2  0
 49 86  1  0
 50 87  1  0
M  END

