
     RDKit          3D

 29 30  0  0  0  0  0  0  0  0999 V2000
    1.1627    0.8865    0.2255 C   0  0  0  0  0  0  0  0  0  0  0  0
    2.2994   -0.0135   -0.2642 C   0  0  1  0  0  0  0  0  0  0  0  0
    1.9722   -0.7110   -1.5874 C   0  0  0  0  0  0  0  0  0  0  0  0
    3.7301    0.6184   -0.1898 C   0  0  0  0  0  0  0  0  0  0  0  0
    4.1076   -0.3498    0.8195 N   0  0  0  0  0  0  0  0  0  0  0  0
    5.3505   -0.5316    1.5580 C   0  0  0  0  0  0  0  0  0  0  0  0
    6.4862    0.2711    1.0231 C   0  0  0  0  0  0  0  0  0  0  0  0
    7.1681   -0.1414   -0.2015 C   0  0  0  0  0  0  0  0  0  0  0  0
    8.2335    0.7032   -0.6610 C   0  0  0  0  0  0  0  0  0  0  0  0
    8.5291    1.8720   -0.0080 C   0  0  0  0  0  0  0  0  0  0  0  0
    9.5033    2.6824   -0.4902 F   0  0  0  0  0  0  0  0  0  0  0  0
    7.8468    2.3215    1.1721 C   0  0  0  0  0  0  0  0  0  0  0  0
    6.8380    1.4626    1.6297 C   0  0  0  0  0  0  0  0  0  0  0  0
    6.1288    1.8460    2.7368 F   0  0  0  0  0  0  0  0  0  0  0  0
    2.8235   -0.9789    0.8137 C   0  0  0  0  0  0  0  0  0  0  0  0
    2.4452   -1.9049    1.4715 O   0  0  0  0  0  0  0  0  0  0  0  0
    0.9571    1.6707   -0.5192 H   0  0  0  0  0  0  0  0  0  0  0  0
    1.4060    1.3770    1.1810 H   0  0  0  0  0  0  0  0  0  0  0  0
    0.2431    0.2993    0.3671 H   0  0  0  0  0  0  0  0  0  0  0  0
    1.7881    0.0397   -2.3713 H   0  0  0  0  0  0  0  0  0  0  0  0
    1.0664   -1.3269   -1.4830 H   0  0  0  0  0  0  0  0  0  0  0  0
    2.7936   -1.3622   -1.9239 H   0  0  0  0  0  0  0  0  0  0  0  0
    3.8176    1.6472    0.1996 H   0  0  0  0  0  0  0  0  0  0  0  0
    4.3958    0.5372   -1.0645 H   0  0  0  0  0  0  0  0  0  0  0  0
    5.5178   -1.6273    1.5698 H   0  0  0  0  0  0  0  0  0  0  0  0
    5.0965   -0.2673    2.6041 H   0  0  0  0  0  0  0  0  0  0  0  0
    7.1237   -1.1855   -0.5253 H   0  0  0  0  0  0  0  0  0  0  0  0
    8.8210    0.4373   -1.5431 H   0  0  0  0  0  0  0  0  0  0  0  0
    8.1387    3.2186    1.7105 H   0  0  0  0  0  0  0  0  0  0  0  0
  2  1  1  1
  1 17  1  0
  1 18  1  0
  1 19  1  0
  2  3  1  0
  2  4  1  0
  2 15  1  0
  3 20  1  0
  3 21  1  0
  3 22  1  0
  4  5  1  0
  4 23  1  0
  4 24  1  0
  5  6  1  0
  5 15  1  0
  6  7  1  0
  6 25  1  0
  6 26  1  0
  7  8  2  0
  7 13  1  0
  8  9  1  0
  8 27  1  0
  9 10  2  0
  9 28  1  0
 10 11  1  0
 10 12  1  0
 12 13  2  0
 12 29  1  0
 13 14  1  0
 15 16  2  0
M  END

