
     RDKit          3D

 43 43  0  0  0  0  0  0  0  0999 V2000
    1.3481    1.4333   -3.7962 C   0  0  0  0  0  0  0  0  0  0  0  0
    3.1296    1.7823   -3.6786 S   0  0  0  0  0  0  0  0  0  0  0  0
    3.4189    1.2945   -1.9337 C   0  0  0  0  0  0  0  0  0  0  0  0
    4.8800    1.5037   -1.5254 C   0  0  0  0  0  0  0  0  0  0  0  0
    5.3766    2.9610   -1.5962 C   0  0  1  0  0  0  0  0  0  0  0  0
    4.6432    3.9154   -0.6479 C   0  0  0  0  0  0  0  0  0  0  0  0
    6.8437    3.0067   -1.3948 N   0  0  0  0  0  0  0  0  0  0  0  0
    7.4010    2.3731   -0.2059 C   0  0  0  0  0  0  0  0  0  0  0  0
    7.5731    3.8605   -2.1674 C   0  0  0  0  0  0  0  0  0  0  0  0
    6.9923    4.7582   -2.8329 O   0  0  0  0  0  0  0  0  0  0  0  0
    8.9340    3.7186   -2.2305 N   0  0  0  0  0  0  0  0  0  0  0  0
    9.5856    2.4077   -2.2615 C   0  0  0  0  0  0  0  0  0  0  0  0
    9.7946    4.8711   -2.3949 C   0  0  0  0  0  0  0  0  0  0  0  0
   10.4797    5.3057   -1.2693 C   0  0  0  0  0  0  0  0  0  0  0  0
   11.5149    6.2547   -1.3335 C   0  0  0  0  0  0  0  0  0  0  0  0
   11.9042    6.7456   -2.6044 C   0  0  0  0  0  0  0  0  0  0  0  0
   11.2421    6.3499   -3.7462 C   0  0  0  0  0  0  0  0  0  0  0  0
   10.1273    5.4354   -3.6970 C   0  0  0  0  0  0  0  0  0  0  0  0
    9.3600    5.2372   -4.8714 C   0  0  0  0  0  0  0  0  0  0  0  0
    9.7714    5.5919   -6.0565 O   0  0  0  0  0  0  0  0  0  0  0  0
    8.1675    4.7341   -4.9513 O   0  0  0  0  0  0  0  0  0  0  0  0
    1.0401    1.6950   -4.8185 H   0  0  0  0  0  0  0  0  0  0  0  0
    0.7690    2.0442   -3.0861 H   0  0  0  0  0  0  0  0  0  0  0  0
    1.1339    0.3666   -3.6250 H   0  0  0  0  0  0  0  0  0  0  0  0
    3.1596    0.2295   -1.8160 H   0  0  0  0  0  0  0  0  0  0  0  0
    2.7403    1.8703   -1.2827 H   0  0  0  0  0  0  0  0  0  0  0  0
    5.5240    0.8838   -2.1725 H   0  0  0  0  0  0  0  0  0  0  0  0
    4.9935    1.1127   -0.4990 H   0  0  0  0  0  0  0  0  0  0  0  0
    5.2144    3.3296   -2.6170 H   0  0  0  0  0  0  0  0  0  0  0  0
    4.7235    3.6037    0.4071 H   0  0  0  0  0  0  0  0  0  0  0  0
    3.5739    3.9630   -0.9028 H   0  0  0  0  0  0  0  0  0  0  0  0
    5.0524    4.9308   -0.7497 H   0  0  0  0  0  0  0  0  0  0  0  0
    6.6972    2.4807    0.6332 H   0  0  0  0  0  0  0  0  0  0  0  0
    8.3355    2.8701    0.0799 H   0  0  0  0  0  0  0  0  0  0  0  0
    7.6045    1.2988   -0.3454 H   0  0  0  0  0  0  0  0  0  0  0  0
    8.8454    1.6163   -2.4455 H   0  0  0  0  0  0  0  0  0  0  0  0
   10.1319    2.1805   -1.3308 H   0  0  0  0  0  0  0  0  0  0  0  0
   10.3093    2.3988   -3.0908 H   0  0  0  0  0  0  0  0  0  0  0  0
   10.2218    4.8542   -0.3063 H   0  0  0  0  0  0  0  0  0  0  0  0
   12.0239    6.5794   -0.4249 H   0  0  0  0  0  0  0  0  0  0  0  0
   12.7329    7.4544   -2.6834 H   0  0  0  0  0  0  0  0  0  0  0  0
   11.5408    6.7702   -4.7080 H   0  0  0  0  0  0  0  0  0  0  0  0
    7.6228    4.8276   -4.0191 H   0  0  0  0  0  0  0  0  0  0  0  0
  1  2  1  0
  1 22  1  0
  1 23  1  0
  1 24  1  0
  2  3  1  0
  3  4  1  0
  3 25  1  0
  3 26  1  0
  4  5  1  0
  4 27  1  0
  4 28  1  0
  5  6  1  0
  5  7  1  0
  5 29  1  6
  6 30  1  0
  6 31  1  0
  6 32  1  0
  7  8  1  0
  7  9  1  0
  8 33  1  0
  8 34  1  0
  8 35  1  0
  9 10  2  0
  9 11  1  0
 11 12  1  0
 11 13  1  0
 12 36  1  0
 12 37  1  0
 12 38  1  0
 13 14  2  0
 13 18  1  0
 14 15  1  0
 14 39  1  0
 15 16  2  0
 15 40  1  0
 16 17  1  0
 16 41  1  0
 17 18  2  0
 17 42  1  0
 18 19  1  0
 19 20  2  0
 19 21  1  0
 21 43  1  0
M  END

