
     RDKit          3D

120131  0  0  0  0  0  0  0  0999 V2000
    4.3454    4.4693    5.4326 C   0  0  0  0  0  0  0  0  0  0  0  0
    4.0067    3.1389    4.7477 C   0  0  0  0  0  0  0  0  0  0  0  0
    4.9806    2.0699    4.9441 N   0  0  0  0  0  0  0  0  0  0  0  0
    4.7307    1.1146    6.0180 C   0  0  0  0  0  0  0  0  0  0  0  0
    5.4421    1.4177    7.3432 C   0  0  0  0  0  0  0  0  0  0  0  0
    6.1270    1.9979    4.1713 C   0  0  0  0  0  0  0  0  0  0  0  0
    7.0956    0.9642    4.3632 C   0  0  0  0  0  0  0  0  0  0  0  0
    8.2210    0.8765    3.5653 C   0  0  0  0  0  0  0  0  0  0  0  0
    8.4807    1.8072    2.5196 C   0  0  0  0  0  0  0  0  0  0  0  0
    9.5995    1.7880    1.6661 C   0  0  0  0  0  0  0  0  0  0  0  0
    9.7941    2.7592    0.6464 C   0  0  0  0  0  0  0  0  0  0  0  0
   10.9467    2.7115   -0.2301 C   0  0  0  0  0  0  0  0  0  0  0  0
   11.8960    1.6375   -0.1399 C   0  0  0  0  0  0  0  0  0  0  0  0
   13.0056    1.5625   -0.9547 C   0  0  0  0  0  0  0  0  0  0  0  0
   13.2951    2.5507   -1.9362 C   0  0  0  0  0  0  0  0  0  0  0  0
   14.4721    2.4716   -2.7878 C   0  0  0  0  0  0  0  0  0  0  0  0
   15.2654    1.2902   -2.8792 C   0  0  0  0  0  0  0  0  0  0  0  0
   16.4071    1.2549   -3.6457 C   0  0  0  0  0  0  0  0  0  0  0  0
   16.8490    2.3745   -4.4044 C   0  0  0  0  0  0  0  0  0  0  0  0
   18.0817    2.3729   -5.1520 C   0  0  0  0  0  0  0  0  0  0  0  0
   18.8133    1.1804   -5.4026 C   0  0  0  0  0  0  0  0  0  0  0  0
   19.9734    1.1842   -6.1521 C   0  0  0  0  0  0  0  0  0  0  0  0
   20.4409    2.3920   -6.7088 C   0  0  0  0  0  0  0  0  0  0  0  0
   19.7627    3.5740   -6.4645 C   0  0  0  0  0  0  0  0  0  0  0  0
   18.5942    3.6162   -5.6579 C   0  0  0  0  0  0  0  0  0  0  0  0
   17.8372    4.8456   -5.4653 C   0  0  0  0  0  0  0  0  0  0  0  0
   18.4118    6.1827   -5.6288 C   0  0  0  0  0  0  0  0  0  0  0  0
   19.7926    6.4246   -5.4351 C   0  0  0  0  0  0  0  0  0  0  0  0
   20.3593    7.7009   -5.5037 C   0  0  0  0  0  0  0  0  0  0  0  0
   21.8097    7.9128   -5.2763 C   0  0  0  0  0  0  0  0  0  0  0  0
   22.7566    6.9126   -5.5744 C   0  0  0  0  0  0  0  0  0  0  0  0
   24.1156    7.1136   -5.3567 C   0  0  0  0  0  0  0  0  0  0  0  0
   24.6109    8.3279   -4.8360 C   0  0  0  0  0  0  0  0  0  0  0  0
   26.0685    8.5267   -4.6605 C   0  0  0  0  0  0  0  0  0  0  0  0
   26.9898    7.8958   -5.4604 C   0  0  0  0  0  0  0  0  0  0  0  0
   28.3984    8.0435   -5.2814 C   0  0  0  0  0  0  0  0  0  0  0  0
   29.3929    7.4167   -6.0629 C   0  0  0  0  0  0  0  0  0  0  0  0
   30.7400    7.6074   -5.8166 C   0  0  0  0  0  0  0  0  0  0  0  0
   31.1873    8.4643   -4.7620 C   0  0  0  0  0  0  0  0  0  0  0  0
   32.5307    8.6865   -4.5370 N   0  0  0  0  0  0  0  0  0  0  0  0
   32.9761    9.5644   -3.4573 C   0  0  0  0  0  0  0  0  0  0  0  0
   33.0330    8.9198   -2.0677 C   0  0  0  0  0  0  0  0  0  0  0  0
   33.5548    8.0094   -5.3285 C   0  0  0  0  0  0  0  0  0  0  0  0
   33.8763    6.5749   -4.8940 C   0  0  0  0  0  0  0  0  0  0  0  0
   30.1931    9.0887   -3.9702 C   0  0  0  0  0  0  0  0  0  0  0  0
   28.8439    8.8791   -4.2364 C   0  0  0  0  0  0  0  0  0  0  0  0
   27.9421    9.5138   -3.4478 O   0  0  0  0  0  0  0  0  0  0  0  0
   26.5607    9.4155   -3.5875 C   0  0  0  0  0  0  0  0  0  0  0  0
   25.8967   10.0635   -2.8193 O   0  0  0  0  0  0  0  0  0  0  0  0
   23.6633    9.3244   -4.5224 C   0  0  0  0  0  0  0  0  0  0  0  0
   22.3035    9.1193   -4.7430 C   0  0  0  0  0  0  0  0  0  0  0  0
   19.4922    8.7857   -5.7763 C   0  0  0  0  0  0  0  0  0  0  0  0
   18.1313    8.5861   -5.9179 C   0  0  0  0  0  0  0  0  0  0  0  0
   17.5504    7.3000   -5.8318 C   0  0  0  0  0  0  0  0  0  0  0  0
   16.1143    7.0828   -5.9254 C   0  0  0  0  0  0  0  0  0  0  0  0
   15.2313    8.0844   -6.3908 C   0  0  0  0  0  0  0  0  0  0  0  0
   13.8684    7.8600   -6.4995 C   0  0  0  0  0  0  0  0  0  0  0  0
   13.3429    6.5987   -6.1678 C   0  0  0  0  0  0  0  0  0  0  0  0
   14.1825    5.6025   -5.6987 C   0  0  0  0  0  0  0  0  0  0  0  0
   15.5784    5.8161   -5.5315 C   0  0  0  0  0  0  0  0  0  0  0  0
   16.4776    4.7438   -5.1243 C   0  0  0  0  0  0  0  0  0  0  0  0
   16.0329    3.5504   -4.3951 C   0  0  0  0  0  0  0  0  0  0  0  0
   14.9000    3.5773   -3.5654 C   0  0  0  0  0  0  0  0  0  0  0  0
   12.3541    3.6214   -2.0282 C   0  0  0  0  0  0  0  0  0  0  0  0
   11.2348    3.6985   -1.2260 C   0  0  0  0  0  0  0  0  0  0  0  0
    8.7873    3.8163    0.5052 C   0  0  0  0  0  0  0  0  0  0  0  0
    8.7635    4.7353   -0.2811 O   0  0  0  0  0  0  0  0  0  0  0  0
    7.6939    3.7763    1.3857 O   0  0  0  0  0  0  0  0  0  0  0  0
    7.5162    2.8401    2.3486 C   0  0  0  0  0  0  0  0  0  0  0  0
    6.3825    2.9418    3.1402 C   0  0  0  0  0  0  0  0  0  0  0  0
    3.5706    5.2191    5.2034 H   0  0  0  0  0  0  0  0  0  0  0  0
    5.3126    4.8651    5.0879 H   0  0  0  0  0  0  0  0  0  0  0  0
    4.3955    4.3583    6.5266 H   0  0  0  0  0  0  0  0  0  0  0  0
    3.8660    3.3027    3.6670 H   0  0  0  0  0  0  0  0  0  0  0  0
    3.0388    2.7714    5.1232 H   0  0  0  0  0  0  0  0  0  0  0  0
    5.0007    0.1033    5.6724 H   0  0  0  0  0  0  0  0  0  0  0  0
    3.6427    1.0908    6.1865 H   0  0  0  0  0  0  0  0  0  0  0  0
    6.5342    1.4588    7.2137 H   0  0  0  0  0  0  0  0  0  0  0  0
    5.2152    0.6325    8.0829 H   0  0  0  0  0  0  0  0  0  0  0  0
    5.1163    2.3818    7.7625 H   0  0  0  0  0  0  0  0  0  0  0  0
    6.9615    0.2224    5.1484 H   0  0  0  0  0  0  0  0  0  0  0  0
    8.9397    0.0711    3.7391 H   0  0  0  0  0  0  0  0  0  0  0  0
   10.3345    0.9998    1.8211 H   0  0  0  0  0  0  0  0  0  0  0  0
   11.7529    0.8407    0.5886 H   0  0  0  0  0  0  0  0  0  0  0  0
   13.6876    0.7230   -0.8118 H   0  0  0  0  0  0  0  0  0  0  0  0
   14.9750    0.3927   -2.3328 H   0  0  0  0  0  0  0  0  0  0  0  0
   16.9978    0.3385   -3.6496 H   0  0  0  0  0  0  0  0  0  0  0  0
   18.4360    0.2306   -5.0231 H   0  0  0  0  0  0  0  0  0  0  0  0
   20.5067    0.2490   -6.3395 H   0  0  0  0  0  0  0  0  0  0  0  0
   21.3244    2.3954   -7.3518 H   0  0  0  0  0  0  0  0  0  0  0  0
   20.1081    4.4865   -6.9479 H   0  0  0  0  0  0  0  0  0  0  0  0
   20.4302    5.5918   -5.1459 H   0  0  0  0  0  0  0  0  0  0  0  0
   22.4275    5.9601   -5.9949 H   0  0  0  0  0  0  0  0  0  0  0  0
   24.8067    6.2980   -5.5807 H   0  0  0  0  0  0  0  0  0  0  0  0
   26.6447    7.2641   -6.2832 H   0  0  0  0  0  0  0  0  0  0  0  0
   29.0855    6.7586   -6.8803 H   0  0  0  0  0  0  0  0  0  0  0  0
   31.4595    7.0881   -6.4460 H   0  0  0  0  0  0  0  0  0  0  0  0
   32.3283   10.4556   -3.4300 H   0  0  0  0  0  0  0  0  0  0  0  0
   33.9769    9.9340   -3.7300 H   0  0  0  0  0  0  0  0  0  0  0  0
   32.0508    8.5288   -1.7621 H   0  0  0  0  0  0  0  0  0  0  0  0
   33.3495    9.6630   -1.3180 H   0  0  0  0  0  0  0  0  0  0  0  0
   33.7513    8.0860   -2.0400 H   0  0  0  0  0  0  0  0  0  0  0  0
   34.4679    8.6215   -5.2688 H   0  0  0  0  0  0  0  0  0  0  0  0
   33.2604    8.0224   -6.3906 H   0  0  0  0  0  0  0  0  0  0  0  0
   34.2638    6.5447   -3.8642 H   0  0  0  0  0  0  0  0  0  0  0  0
   34.6419    6.1395   -5.5567 H   0  0  0  0  0  0  0  0  0  0  0  0
   32.9849    5.9303   -4.9358 H   0  0  0  0  0  0  0  0  0  0  0  0
   30.4354    9.7434   -3.1366 H   0  0  0  0  0  0  0  0  0  0  0  0
   23.9996   10.2640   -4.0883 H   0  0  0  0  0  0  0  0  0  0  0  0
   21.6065    9.9131   -4.4661 H   0  0  0  0  0  0  0  0  0  0  0  0
   19.8953    9.7959   -5.8679 H   0  0  0  0  0  0  0  0  0  0  0  0
   17.4938    9.4558   -6.0800 H   0  0  0  0  0  0  0  0  0  0  0  0
   15.6304    9.0509   -6.6999 H   0  0  0  0  0  0  0  0  0  0  0  0
   13.2120    8.6507   -6.8708 H   0  0  0  0  0  0  0  0  0  0  0  0
   12.2781    6.3929   -6.3006 H   0  0  0  0  0  0  0  0  0  0  0  0
   13.7666    4.6149   -5.5050 H   0  0  0  0  0  0  0  0  0  0  0  0
   14.3663    4.5175   -3.4589 H   0  0  0  0  0  0  0  0  0  0  0  0
   12.4964    4.4066   -2.7722 H   0  0  0  0  0  0  0  0  0  0  0  0
   10.5428    4.5278   -1.3469 H   0  0  0  0  0  0  0  0  0  0  0  0
    5.7125    3.7727    2.9316 H   0  0  0  0  0  0  0  0  0  0  0  0
  1  2  1  0
  1 71  1  0
  1 72  1  0
  1 73  1  0
  2  3  1  0
  2 74  1  0
  2 75  1  0
  3  4  1  0
  3  6  1  0
  4  5  1  0
  4 76  1  0
  4 77  1  0
  5 78  1  0
  5 79  1  0
  5 80  1  0
  6  7  2  0
  6 70  1  0
  7  8  1  0
  7 81  1  0
  8  9  2  0
  8 82  1  0
  9 10  1  0
  9 69  1  0
 10 11  2  0
 10 83  1  0
 11 12  1  0
 11 66  1  0
 12 13  2  0
 12 65  1  0
 13 14  1  0
 13 84  1  0
 14 15  2  0
 14 85  1  0
 15 16  1  0
 15 64  1  0
 16 17  2  0
 16 63  1  0
 17 18  1  0
 17 86  1  0
 18 19  2  0
 18 87  1  0
 19 20  1  0
 19 62  1  0
 20 21  2  0
 20 25  1  0
 21 22  1  0
 21 88  1  0
 22 23  2  0
 22 89  1  0
 23 24  1  0
 23 90  1  0
 24 25  2  0
 24 91  1  0
 25 26  1  0
 26 27  1  0
 26 61  2  0
 27 28  2  0
 27 54  1  0
 28 29  1  0
 28 92  1  0
 29 30  1  0
 29 52  2  0
 30 31  2  0
 30 51  1  0
 31 32  1  0
 31 93  1  0
 32 33  2  0
 32 94  1  0
 33 34  1  0
 33 50  1  0
 34 35  2  0
 34 48  1  0
 35 36  1  0
 35 95  1  0
 36 37  2  0
 36 46  1  0
 37 38  1  0
 37 96  1  0
 38 39  2  0
 38 97  1  0
 39 40  1  0
 39 45  1  0
 40 41  1  0
 40 43  1  0
 41 42  1  0
 41 98  1  0
 41 99  1  0
 42100  1  0
 42101  1  0
 42102  1  0
 43 44  1  0
 43103  1  0
 43104  1  0
 44105  1  0
 44106  1  0
 44107  1  0
 45 46  2  0
 45108  1  0
 46 47  1  0
 47 48  1  0
 48 49  2  0
 50 51  2  0
 50109  1  0
 51110  1  0
 52 53  1  0
 52111  1  0
 53 54  2  0
 53112  1  0
 54 55  1  0
 55 56  1  0
 55 60  2  0
 56 57  2  0
 56113  1  0
 57 58  1  0
 57114  1  0
 58 59  2  0
 58115  1  0
 59 60  1  0
 59116  1  0
 60 61  1  0
 61 62  1  0
 62 63  2  0
 63117  1  0
 64 65  2  0
 64118  1  0
 65119  1  0
 66 67  2  0
 66 68  1  0
 68 69  1  0
 69 70  2  0
 70120  1  0
M  END

