
     RDKit          3D

 32 33  0  0  0  0  0  0  0  0999 V2000
    2.3768    1.3020    0.0851 C   0  0  0  0  0  0  0  0  0  0  0  0
    2.3386   -0.1085    0.0590 O   0  0  0  0  0  0  0  0  0  0  0  0
    2.9441   -0.7999   -0.9566 C   0  0  0  0  0  0  0  0  0  0  0  0
    3.6421   -0.1623   -1.9898 C   0  0  0  0  0  0  0  0  0  0  0  0
    4.2451   -0.8962   -3.0117 C   0  0  0  0  0  0  0  0  0  0  0  0
    4.1676   -2.2991   -3.0355 C   0  0  0  0  0  0  0  0  0  0  0  0
    4.8094   -3.0452   -4.0194 N   0  0  0  0  0  0  0  0  0  0  0  0
    3.4626   -2.9252   -1.9964 C   0  0  0  0  0  0  0  0  0  0  0  0
    2.8504   -2.2145   -0.9557 C   0  0  0  0  0  0  0  0  0  0  0  0
    2.1344   -3.0827    0.0607 C   0  0  0  0  0  0  0  0  0  0  0  0
    2.0699   -4.2928   -0.1068 O   0  0  0  0  0  0  0  0  0  0  0  0
    1.5910   -2.4412    1.1500 N   0  0  0  0  0  0  0  0  0  0  0  0
    0.8875   -3.0047    2.2182 C   0  0  0  0  0  0  0  0  0  0  0  0
    0.5915   -4.3802    2.3262 C   0  0  0  0  0  0  0  0  0  0  0  0
   -0.1214   -4.8746    3.4184 C   0  0  0  0  0  0  0  0  0  0  0  0
   -0.5621   -4.0252    4.4357 C   0  0  0  0  0  0  0  0  0  0  0  0
   -0.2793   -2.6608    4.3528 C   0  0  0  0  0  0  0  0  0  0  0  0
    0.4339   -2.1639    3.2630 C   0  0  0  0  0  0  0  0  0  0  0  0
    0.7716   -0.4354    3.2146 Cl  0  0  0  0  0  0  0  0  0  0  0  0
    1.8069    1.6080    0.9718 H   0  0  0  0  0  0  0  0  0  0  0  0
    1.9066    1.7373   -0.8141 H   0  0  0  0  0  0  0  0  0  0  0  0
    3.4106    1.6808    0.1703 H   0  0  0  0  0  0  0  0  0  0  0  0
    3.7241    0.9242   -2.0093 H   0  0  0  0  0  0  0  0  0  0  0  0
    4.7876   -0.3668   -3.8001 H   0  0  0  0  0  0  0  0  0  0  0  0
    4.9814   -2.5701   -4.8982 H   0  0  0  0  0  0  0  0  0  0  0  0
    4.4660   -3.9900   -4.1501 H   0  0  0  0  0  0  0  0  0  0  0  0
    3.3661   -4.0123   -1.9655 H   0  0  0  0  0  0  0  0  0  0  0  0
    1.7073   -1.4285    1.1695 H   0  0  0  0  0  0  0  0  0  0  0  0
    0.9370   -5.0392    1.5343 H   0  0  0  0  0  0  0  0  0  0  0  0
   -0.3332   -5.9455    3.4690 H   0  0  0  0  0  0  0  0  0  0  0  0
   -1.1205   -4.4149    5.2897 H   0  0  0  0  0  0  0  0  0  0  0  0
   -0.6058   -1.9680    5.1301 H   0  0  0  0  0  0  0  0  0  0  0  0
  1  2  1  0
  1 20  1  0
  1 21  1  0
  1 22  1  0
  2  3  1  0
  3  4  2  0
  3  9  1  0
  4  5  1  0
  4 23  1  0
  5  6  2  0
  5 24  1  0
  6  7  1  0
  6  8  1  0
  7 25  1  0
  7 26  1  0
  8  9  2  0
  8 27  1  0
  9 10  1  0
 10 11  2  0
 10 12  1  0
 12 13  1  0
 12 28  1  0
 13 14  2  0
 13 18  1  0
 14 15  1  0
 14 29  1  0
 15 16  2  0
 15 30  1  0
 16 17  1  0
 16 31  1  0
 17 18  2  0
 17 32  1  0
 18 19  1  0
M  END

