
     RDKit          3D

 41 41  0  0  0  0  0  0  0  0999 V2000
    1.0956   -0.0773    0.0883 C   0  0  0  0  0  0  0  0  0  0  0  0
    2.6051    0.1651   -0.0940 C   0  0  1  0  0  0  0  0  0  0  0  0
    3.4281   -0.9363    0.5993 C   0  0  0  0  0  0  0  0  0  0  0  0
    2.9879    0.3348   -1.5563 C   0  0  0  0  0  0  0  0  0  0  0  0
    3.5436    1.5401   -2.0311 C   0  0  0  0  0  0  0  0  0  0  0  0
    3.8962    1.7085   -3.3625 C   0  0  0  0  0  0  0  0  0  0  0  0
    3.7148    0.6700   -4.3246 C   0  0  0  0  0  0  0  0  0  0  0  0
    4.0867    0.8753   -5.6820 C   0  0  0  0  0  0  0  0  0  0  0  0
    3.9599   -0.0501   -6.7434 C   0  0  0  0  0  0  0  0  0  0  0  0
    4.3608    0.2236   -8.0508 C   0  0  0  0  0  0  0  0  0  0  0  0
    4.9092    1.3663   -8.4144 O   0  0  0  0  0  0  0  0  0  0  0  0
    4.2379   -0.6572   -9.0700 N   0  0  0  0  0  0  0  0  0  0  0  0
    4.7905   -0.4782  -10.4022 C   0  0  0  0  0  0  0  0  0  0  0  0
    6.2701   -0.8871  -10.5394 C   0  0  0  0  0  0  0  0  0  0  0  0
    6.6394   -2.2367   -9.8840 C   0  0  0  0  0  0  0  0  0  0  0  0
    5.7039   -3.3778  -10.2622 C   0  0  0  0  0  0  0  0  0  0  0  0
    4.5469   -3.4142   -9.9182 O   0  0  0  0  0  0  0  0  0  0  0  0
    6.2048   -4.3632  -11.0278 O   0  0  0  0  0  0  0  0  0  0  0  0
    3.1522   -0.5484   -3.8331 C   0  0  0  0  0  0  0  0  0  0  0  0
    2.8060   -0.6998   -2.4981 C   0  0  0  0  0  0  0  0  0  0  0  0
    0.8311   -0.1372    1.1575 H   0  0  0  0  0  0  0  0  0  0  0  0
    0.7817   -1.0227   -0.3846 H   0  0  0  0  0  0  0  0  0  0  0  0
    0.5041    0.7334   -0.3655 H   0  0  0  0  0  0  0  0  0  0  0  0
    2.8458    1.1180    0.4097 H   0  0  0  0  0  0  0  0  0  0  0  0
    3.2310   -1.9249    0.1523 H   0  0  0  0  0  0  0  0  0  0  0  0
    3.1775   -1.0011    1.6716 H   0  0  0  0  0  0  0  0  0  0  0  0
    4.5084   -0.7415    0.5115 H   0  0  0  0  0  0  0  0  0  0  0  0
    3.7006    2.3657   -1.3294 H   0  0  0  0  0  0  0  0  0  0  0  0
    4.3240    2.6605   -3.6907 H   0  0  0  0  0  0  0  0  0  0  0  0
    4.5153    1.8553   -5.9080 H   0  0  0  0  0  0  0  0  0  0  0  0
    3.5180   -1.0361   -6.5949 H   0  0  0  0  0  0  0  0  0  0  0  0
    3.9694   -1.6106   -8.8353 H   0  0  0  0  0  0  0  0  0  0  0  0
    4.6783    0.5754  -10.6998 H   0  0  0  0  0  0  0  0  0  0  0  0
    4.1689   -1.0742  -11.0851 H   0  0  0  0  0  0  0  0  0  0  0  0
    6.9080   -0.1137  -10.0830 H   0  0  0  0  0  0  0  0  0  0  0  0
    6.5188   -0.9076  -11.6143 H   0  0  0  0  0  0  0  0  0  0  0  0
    6.5707   -2.1342   -8.7893 H   0  0  0  0  0  0  0  0  0  0  0  0
    7.6899   -2.4787  -10.1135 H   0  0  0  0  0  0  0  0  0  0  0  0
    7.1419   -4.2110  -11.2141 H   0  0  0  0  0  0  0  0  0  0  0  0
    2.9899   -1.3842   -4.5172 H   0  0  0  0  0  0  0  0  0  0  0  0
    2.3797   -1.6544   -2.1747 H   0  0  0  0  0  0  0  0  0  0  0  0
  1  2  1  0
  1 21  1  0
  1 22  1  0
  1 23  1  0
  2  3  1  0
  2  4  1  0
  2 24  1  1
  3 25  1  0
  3 26  1  0
  3 27  1  0
  4  5  2  0
  4 20  1  0
  5  6  1  0
  5 28  1  0
  6  7  2  0
  6 29  1  0
  7  8  1  0
  7 19  1  0
  8  9  2  0
  8 30  1  0
  9 10  1  0
  9 31  1  0
 10 11  2  0
 10 12  1  0
 12 13  1  0
 12 32  1  0
 13 14  1  0
 13 33  1  0
 13 34  1  0
 14 15  1  0
 14 35  1  0
 14 36  1  0
 15 16  1  0
 15 37  1  0
 15 38  1  0
 16 17  2  0
 16 18  1  0
 18 39  1  0
 19 20  2  0
 19 40  1  0
 20 41  1  0
M  END

