
     RDKit          3D

 79 81  0  0  0  0  0  0  0  0999 V2000
   12.6942    8.7266    4.1736 C   0  0  0  0  0  0  0  0  0  0  0  0
   11.5858    8.0183    3.3948 C   0  0  0  0  0  0  0  0  0  0  0  0
   11.1643    6.6965    4.0467 C   0  0  0  0  0  0  0  0  0  0  0  0
   10.0984    6.0137    3.3319 N   0  0  0  0  0  0  0  0  0  0  0  0
   10.2970    4.8909    2.6080 C   0  0  0  0  0  0  0  0  0  0  0  0
   11.3610    4.3097    2.4728 O   0  0  0  0  0  0  0  0  0  0  0  0
    9.0459    4.3467    1.8744 C   0  0  1  0  0  0  0  0  0  0  0  0
    7.9299    5.0893    2.2181 F   0  0  0  0  0  0  0  0  0  0  0  0
    9.2443    4.5430    0.5481 F   0  0  0  0  0  0  0  0  0  0  0  0
    8.7723    2.8781    2.2316 C   0  0  1  0  0  0  0  0  0  0  0  0
    8.5030    2.8399    3.6182 O   0  0  0  0  0  0  0  0  0  0  0  0
    7.6615    2.2151    1.3773 C   0  0  1  0  0  0  0  0  0  0  0  0
    8.1352    2.0415    0.0172 N   0  0  0  0  0  0  0  0  0  0  0  0
    7.4943    2.5523   -1.0646 C   0  0  0  0  0  0  0  0  0  0  0  0
    6.4053    3.1086   -1.0233 O   0  0  0  0  0  0  0  0  0  0  0  0
    8.2405    2.3438   -2.3934 C   0  0  0  0  0  0  0  0  0  0  0  0
    7.9331    1.0008   -3.0192 C   0  0  0  0  0  0  0  0  0  0  0  0
    6.5548    0.7156   -3.2935 C   0  0  0  0  0  0  0  0  0  0  0  0
    6.1765   -0.4266   -3.9525 C   0  0  0  0  0  0  0  0  0  0  0  0
    4.7532   -0.7696   -4.2020 C   0  0  0  0  0  0  0  0  0  0  0  0
    3.8223   -0.5425   -3.1664 C   0  0  0  0  0  0  0  0  0  0  0  0
    2.4650   -0.8159   -3.3212 C   0  0  0  0  0  0  0  0  0  0  0  0
    1.9942   -1.3371   -4.5291 C   0  0  0  0  0  0  0  0  0  0  0  0
    2.8871   -1.5743   -5.5741 C   0  0  0  0  0  0  0  0  0  0  0  0
    4.2465   -1.2918   -5.4125 C   0  0  0  0  0  0  0  0  0  0  0  0
    5.2864   -1.5758   -6.8012 Cl  0  0  0  0  0  0  0  0  0  0  0  0
    7.1608   -1.2972   -4.3544 N   0  0  0  0  0  0  0  0  0  0  0  0
    6.9184   -2.1218   -4.8967 H   0  0  0  0  0  0  0  0  0  0  0  0
    8.5204   -1.1302   -4.1419 C   0  0  0  0  0  0  0  0  0  0  0  0
    9.3419   -1.9302   -4.5829 O   0  0  0  0  0  0  0  0  0  0  0  0
    8.8872    0.0720   -3.3822 C   0  0  0  0  0  0  0  0  0  0  0  0
   10.2807    0.1538   -3.2022 N   0  0  0  0  0  0  0  0  0  0  0  0
   10.9598    0.3643   -2.0318 C   0  0  0  0  0  0  0  0  0  0  0  0
   10.4870    0.7585   -0.9797 O   0  0  0  0  0  0  0  0  0  0  0  0
   12.2586    0.0692   -2.2044 O   0  0  0  0  0  0  0  0  0  0  0  0
   13.1516    0.3084   -1.0916 C   0  0  0  0  0  0  0  0  0  0  0  0
   13.6521    1.7318   -1.0524 C   0  0  0  0  0  0  0  0  0  0  0  0
   13.1721    2.6391   -0.0971 C   0  0  0  0  0  0  0  0  0  0  0  0
   13.6394    3.9566   -0.0692 C   0  0  0  0  0  0  0  0  0  0  0  0
   14.5849    4.3824   -1.0057 C   0  0  0  0  0  0  0  0  0  0  0  0
   15.0655    3.4867   -1.9684 C   0  0  0  0  0  0  0  0  0  0  0  0
   14.6033    2.1695   -1.9889 C   0  0  0  0  0  0  0  0  0  0  0  0
    7.1499    0.8897    2.0064 C   0  0  1  0  0  0  0  0  0  0  0  0
    5.9605    0.3412    1.2089 C   0  0  0  0  0  0  0  0  0  0  0  0
    8.2546   -0.1636    2.1608 C   0  0  0  0  0  0  0  0  0  0  0  0
   12.9821    9.6715    3.6878 H   0  0  0  0  0  0  0  0  0  0  0  0
   13.5980    8.0990    4.2442 H   0  0  0  0  0  0  0  0  0  0  0  0
   12.3760    8.9653    5.2024 H   0  0  0  0  0  0  0  0  0  0  0  0
   11.9165    7.8134    2.3623 H   0  0  0  0  0  0  0  0  0  0  0  0
   10.7044    8.6797    3.3111 H   0  0  0  0  0  0  0  0  0  0  0  0
   10.8388    6.8756    5.0868 H   0  0  0  0  0  0  0  0  0  0  0  0
   12.0150    6.0004    4.0833 H   0  0  0  0  0  0  0  0  0  0  0  0
    9.1655    6.4102    3.3329 H   0  0  0  0  0  0  0  0  0  0  0  0
    9.7222    2.3419    2.0896 H   0  0  0  0  0  0  0  0  0  0  0  0
    7.6872    3.3379    3.7734 H   0  0  0  0  0  0  0  0  0  0  0  0
    6.8074    2.9082    1.3109 H   0  0  0  0  0  0  0  0  0  0  0  0
    9.0297    1.5789   -0.1536 H   0  0  0  0  0  0  0  0  0  0  0  0
    9.3178    2.4849   -2.2571 H   0  0  0  0  0  0  0  0  0  0  0  0
    7.8649    3.1299   -3.0656 H   0  0  0  0  0  0  0  0  0  0  0  0
    5.8037    1.4418   -2.9843 H   0  0  0  0  0  0  0  0  0  0  0  0
    4.1911   -0.1570   -2.2141 H   0  0  0  0  0  0  0  0  0  0  0  0
    1.7772   -0.6293   -2.4935 H   0  0  0  0  0  0  0  0  0  0  0  0
    0.9332   -1.5609   -4.6629 H   0  0  0  0  0  0  0  0  0  0  0  0
    2.5402   -1.9713   -6.5294 H   0  0  0  0  0  0  0  0  0  0  0  0
   10.7800   -0.4339   -3.8716 H   0  0  0  0  0  0  0  0  0  0  0  0
   13.9774   -0.3953   -1.2647 H   0  0  0  0  0  0  0  0  0  0  0  0
   12.6382    0.0443   -0.1576 H   0  0  0  0  0  0  0  0  0  0  0  0
   12.4253    2.3264    0.6352 H   0  0  0  0  0  0  0  0  0  0  0  0
   13.2500    4.6353    0.6926 H   0  0  0  0  0  0  0  0  0  0  0  0
   14.9515    5.4123   -0.9870 H   0  0  0  0  0  0  0  0  0  0  0  0
   15.8071    3.8151   -2.7014 H   0  0  0  0  0  0  0  0  0  0  0  0
   14.9847    1.4703   -2.7389 H   0  0  0  0  0  0  0  0  0  0  0  0
    6.7922    1.1487    3.0168 H   0  0  0  0  0  0  0  0  0  0  0  0
    6.2728    0.0326    0.1982 H   0  0  0  0  0  0  0  0  0  0  0  0
    5.1664    1.0955    1.0935 H   0  0  0  0  0  0  0  0  0  0  0  0
    5.5299   -0.5401    1.7110 H   0  0  0  0  0  0  0  0  0  0  0  0
    8.7158   -0.4097    1.1899 H   0  0  0  0  0  0  0  0  0  0  0  0
    7.8414   -1.0970    2.5754 H   0  0  0  0  0  0  0  0  0  0  0  0
    9.0483    0.1739    2.8446 H   0  0  0  0  0  0  0  0  0  0  0  0
  1  2  1  0
  1 46  1  0
  1 47  1  0
  1 48  1  0
  2  3  1  0
  2 49  1  0
  2 50  1  0
  3  4  1  0
  3 51  1  0
  3 52  1  0
  4  5  1  0
  4 53  1  0
  5  6  2  0
  5  7  1  0
  7  8  1  1
  7  9  1  0
  7 10  1  0
 10 11  1  0
 10 12  1  0
 10 54  1  1
 11 55  1  0
 12 13  1  0
 12 43  1  0
 12 56  1  6
 13 14  1  0
 13 57  1  0
 14 15  2  0
 14 16  1  0
 16 17  1  0
 16 58  1  0
 16 59  1  0
 17 18  1  0
 17 31  2  0
 18 19  2  0
 18 60  1  0
 19 20  1  0
 19 27  1  0
 20 21  2  0
 20 25  1  0
 21 22  1  0
 21 61  1  0
 22 23  2  0
 22 62  1  0
 23 24  1  0
 23 63  1  0
 24 25  2  0
 24 64  1  0
 25 26  1  0
 27 28  1  0
 27 29  1  0
 29 30  2  0
 29 31  1  0
 31 32  1  0
 32 33  1  0
 32 65  1  0
 33 34  2  0
 33 35  1  0
 35 36  1  0
 36 37  1  0
 36 66  1  0
 36 67  1  0
 37 38  2  0
 37 42  1  0
 38 39  1  0
 38 68  1  0
 39 40  2  0
 39 69  1  0
 40 41  1  0
 40 70  1  0
 41 42  2  0
 41 71  1  0
 42 72  1  0
 43 44  1  0
 43 45  1  0
 43 73  1  1
 44 74  1  0
 44 75  1  0
 44 76  1  0
 45 77  1  0
 45 78  1  0
 45 79  1  0
M  END

