
     RDKit          3D

 21 22  0  0  0  0  0  0  0  0999 V2000
    0.8721    0.2188   -0.6443 C   0  0  0  0  0  0  0  0  0  0  0  0
    2.3300    0.6329   -0.6805 C   0  0  0  0  0  0  0  0  0  0  0  0
    2.6873    1.7956   -0.6139 O   0  0  0  0  0  0  0  0  0  0  0  0
    3.2242   -0.4251   -0.8238 N   0  0  0  0  0  0  0  0  0  0  0  0
    4.5968   -0.4090   -0.9318 C   0  0  0  0  0  0  0  0  0  0  0  0
    5.4846   -1.8789   -0.4660 S   0  0  0  0  0  0  0  0  0  0  0  0
    6.9832   -1.3069   -1.0348 N   0  0  0  0  0  0  0  0  0  0  0  0
    6.8346   -0.0879   -1.5425 C   0  0  0  0  0  0  0  0  0  0  0  0
    7.8905    0.6602   -2.1513 C   0  0  0  0  0  0  0  0  0  0  0  0
    9.4328   -0.0791   -2.3619 Cl  0  0  0  0  0  0  0  0  0  0  0  0
    7.6972    1.9799   -2.6121 C   0  0  0  0  0  0  0  0  0  0  0  0
    6.4353    2.5521   -2.4895 C   0  0  0  0  0  0  0  0  0  0  0  0
    6.1582    4.1725   -3.0450 Cl  0  0  0  0  0  0  0  0  0  0  0  0
    5.3421    1.8539   -1.9019 C   0  0  0  0  0  0  0  0  0  0  0  0
    5.5203    0.5312   -1.4658 C   0  0  0  0  0  0  0  0  0  0  0  0
    0.3538    0.8424    0.0978 H   0  0  0  0  0  0  0  0  0  0  0  0
    0.7175   -0.8440   -0.4039 H   0  0  0  0  0  0  0  0  0  0  0  0
    0.4085    0.4242   -1.6239 H   0  0  0  0  0  0  0  0  0  0  0  0
    2.8117   -1.3571   -0.7972 H   0  0  0  0  0  0  0  0  0  0  0  0
    8.5254    2.5274   -3.0595 H   0  0  0  0  0  0  0  0  0  0  0  0
    4.3868    2.3541   -1.7496 H   0  0  0  0  0  0  0  0  0  0  0  0
  1  2  1  0
  1 16  1  0
  1 17  1  0
  1 18  1  0
  2  3  2  0
  2  4  1  0
  4  5  1  0
  4 19  1  0
  5  6  1  0
  5 15  2  0
  6  7  1  0
  7  8  2  0
  8  9  1  0
  8 15  1  0
  9 10  1  0
  9 11  2  0
 11 12  1  0
 11 20  1  0
 12 13  1  0
 12 14  2  0
 14 15  1  0
 14 21  1  0
M  END

