
     RDKit          3D

 48 49  0  0  0  0  0  0  0  0999 V2000
    2.3053    1.1700   -0.3461 C   0  0  0  0  0  0  0  0  0  0  0  0
    2.6740   -0.0176    0.5445 C   0  0  0  0  0  0  0  0  0  0  0  0
    2.9913   -1.2220   -0.2148 N   0  0  0  0  0  0  0  0  0  0  0  0
    4.2652   -1.4990   -0.6697 C   0  0  0  0  0  0  0  0  0  0  0  0
    5.2819   -0.8161   -0.5118 O   0  0  0  0  0  0  0  0  0  0  0  0
    4.1753   -2.6854   -1.4075 N   0  0  0  0  0  0  0  0  0  0  0  0
    5.3135   -3.2425   -2.1104 C   0  0  0  0  0  0  0  0  0  0  0  0
    5.5889   -2.4343   -3.4048 C   0  0  0  0  0  0  0  0  0  0  0  0
    5.1149   -2.7816   -4.4715 O   0  0  0  0  0  0  0  0  0  0  0  0
    6.3334   -1.3158   -3.2005 N   0  0  0  0  0  0  0  0  0  0  0  0
    6.3526   -0.1871   -4.1341 C   0  0  1  0  0  0  0  0  0  0  0  0
    5.3203    0.8642   -3.6741 C   0  0  0  0  0  0  0  0  0  0  0  0
    5.5898    1.4127   -2.4023 O   0  0  0  0  0  0  0  0  0  0  0  0
    7.7618    0.4014   -4.2757 C   0  0  0  0  0  0  0  0  0  0  0  0
    8.8676   -0.5800   -4.7028 C   0  0  1  0  0  0  0  0  0  0  0  0
    8.5727   -1.2543   -6.0496 C   0  0  0  0  0  0  0  0  0  0  0  0
   10.2261    0.1324   -4.7276 C   0  0  0  0  0  0  0  0  0  0  0  0
    2.8552   -3.1018   -1.4649 C   0  0  0  0  0  0  0  0  0  0  0  0
    2.2790   -4.2671   -2.0662 C   0  0  0  0  0  0  0  0  0  0  0  0
    0.8984   -4.4363   -1.7841 C   0  0  0  0  0  0  0  0  0  0  0  0
    0.1472   -3.5139   -1.0079 C   0  0  0  0  0  0  0  0  0  0  0  0
    0.7004   -2.3318   -0.4493 C   0  0  0  0  0  0  0  0  0  0  0  0
    2.1029   -2.1735   -0.6951 C   0  0  0  0  0  0  0  0  0  0  0  0
    2.0602    2.0432    0.2787 H   0  0  0  0  0  0  0  0  0  0  0  0
    1.4292    0.9380   -0.9715 H   0  0  0  0  0  0  0  0  0  0  0  0
    3.1462    1.4467   -1.0009 H   0  0  0  0  0  0  0  0  0  0  0  0
    1.8542   -0.2728    1.2328 H   0  0  0  0  0  0  0  0  0  0  0  0
    3.5598    0.2182    1.1520 H   0  0  0  0  0  0  0  0  0  0  0  0
    5.0869   -4.2783   -2.3859 H   0  0  0  0  0  0  0  0  0  0  0  0
    6.1875   -3.2221   -1.4419 H   0  0  0  0  0  0  0  0  0  0  0  0
    6.5654   -1.1005   -2.2333 H   0  0  0  0  0  0  0  0  0  0  0  0
    6.0057   -0.5875   -5.0980 H   0  0  0  0  0  0  0  0  0  0  0  0
    4.3122    0.4054   -3.7162 H   0  0  0  0  0  0  0  0  0  0  0  0
    5.3232    1.7035   -4.3889 H   0  0  0  0  0  0  0  0  0  0  0  0
    5.4790    0.7293   -1.7169 H   0  0  0  0  0  0  0  0  0  0  0  0
    8.0352    0.8755   -3.3170 H   0  0  0  0  0  0  0  0  0  0  0  0
    7.7050    1.2255   -5.0101 H   0  0  0  0  0  0  0  0  0  0  0  0
    8.9194   -1.3744   -3.9357 H   0  0  0  0  0  0  0  0  0  0  0  0
    8.4591   -0.5034   -6.8515 H   0  0  0  0  0  0  0  0  0  0  0  0
    7.6536   -1.8598   -6.0212 H   0  0  0  0  0  0  0  0  0  0  0  0
    9.3975   -1.9246   -6.3413 H   0  0  0  0  0  0  0  0  0  0  0  0
   10.2400    0.9329   -5.4876 H   0  0  0  0  0  0  0  0  0  0  0  0
   11.0416   -0.5682   -4.9696 H   0  0  0  0  0  0  0  0  0  0  0  0
   10.4578    0.5956   -3.7546 H   0  0  0  0  0  0  0  0  0  0  0  0
    2.8226   -4.9013   -2.7632 H   0  0  0  0  0  0  0  0  0  0  0  0
    0.3816   -5.3149   -2.1785 H   0  0  0  0  0  0  0  0  0  0  0  0
   -0.9099   -3.7326   -0.8344 H   0  0  0  0  0  0  0  0  0  0  0  0
    0.1064   -1.6013    0.0949 H   0  0  0  0  0  0  0  0  0  0  0  0
  1  2  1  0
  1 24  1  0
  1 25  1  0
  1 26  1  0
  2  3  1  0
  2 27  1  0
  2 28  1  0
  3  4  1  0
  3 23  1  0
  4  5  2  0
  4  6  1  0
  6  7  1  0
  6 18  1  0
  7  8  1  0
  7 29  1  0
  7 30  1  0
  8  9  2  0
  8 10  1  0
 10 11  1  0
 10 31  1  0
 11 12  1  0
 11 14  1  0
 11 32  1  6
 12 13  1  0
 12 33  1  0
 12 34  1  0
 13 35  1  0
 14 15  1  0
 14 36  1  0
 14 37  1  0
 15 16  1  0
 15 17  1  0
 15 38  1  1
 16 39  1  0
 16 40  1  0
 16 41  1  0
 17 42  1  0
 17 43  1  0
 17 44  1  0
 18 19  1  0
 18 23  2  0
 19 20  2  0
 19 45  1  0
 20 21  1  0
 20 46  1  0
 21 22  2  0
 21 47  1  0
 22 23  1  0
 22 48  1  0
M  END

