
     RDKit          3D

106113  0  0  0  0  0  0  0  0999 V2000
    1.3663   -0.4223    0.2087 C   0  0  0  0  0  0  0  0  0  0  0  0
    2.7627   -0.3022    0.0724 O   0  0  0  0  0  0  0  0  0  0  0  0
    3.3140   -0.3156   -1.1702 C   0  0  0  0  0  0  0  0  0  0  0  0
    4.7093   -0.1885   -1.2276 C   0  0  0  0  0  0  0  0  0  0  0  0
    5.3836   -0.1897   -2.4497 C   0  0  0  0  0  0  0  0  0  0  0  0
    6.8876   -0.0475   -2.4745 C   0  0  0  0  0  0  0  0  0  0  0  0
    4.6472   -0.3210   -3.6540 C   0  0  0  0  0  0  0  0  0  0  0  0
    5.3590   -0.3464   -4.9741 C   0  0  0  0  0  0  0  0  0  0  0  0
    5.7903   -1.5714   -5.4994 C   0  0  0  0  0  0  0  0  0  0  0  0
    6.4583   -1.6832   -6.7258 C   0  0  0  0  0  0  0  0  0  0  0  0
    6.8835   -3.0370   -7.2123 C   0  0  0  0  0  0  0  0  0  0  0  0
    6.0187   -3.8048   -8.0325 C   0  0  0  0  0  0  0  0  0  0  0  0
    4.6695   -3.2675   -8.4496 C   0  0  0  0  0  0  0  0  0  0  0  0
    6.4204   -5.0713   -8.4599 C   0  0  0  0  0  0  0  0  0  0  0  0
    7.6661   -5.5988   -8.0910 C   0  0  0  0  0  0  0  0  0  0  0  0
    7.9535   -6.8407   -8.5635 O   0  0  0  0  0  0  0  0  0  0  0  0
    9.1856   -7.4369   -8.2328 C   0  0  0  0  0  0  0  0  0  0  0  0
    8.5203   -4.8412   -7.2822 C   0  0  0  0  0  0  0  0  0  0  0  0
    8.1371   -3.5637   -6.8395 C   0  0  0  0  0  0  0  0  0  0  0  0
    9.0827   -2.7699   -5.9669 C   0  0  0  0  0  0  0  0  0  0  0  0
    6.7148   -0.5078   -7.4755 C   0  0  0  0  0  0  0  0  0  0  0  0
    7.3961   -0.5460   -8.7419 C   0  0  0  0  0  0  0  0  0  0  0  0
    7.6377    0.5899   -9.4571 C   0  0  0  0  0  0  0  0  0  0  0  0
    7.2246    1.8826   -8.9799 C   0  0  0  0  0  0  0  0  0  0  0  0
    7.4729    3.0688   -9.7151 C   0  0  0  0  0  0  0  0  0  0  0  0
    8.1847    3.0435  -11.0353 C   0  0  0  0  0  0  0  0  0  0  0  0
    7.4481    2.9129  -12.2397 C   0  0  0  0  0  0  0  0  0  0  0  0
    5.9440    2.7712  -12.2148 C   0  0  0  0  0  0  0  0  0  0  0  0
    8.1223    2.9121  -13.4617 C   0  0  0  0  0  0  0  0  0  0  0  0
    9.5177    3.0388  -13.5192 C   0  0  0  0  0  0  0  0  0  0  0  0
   10.0688    3.0258  -14.7619 O   0  0  0  0  0  0  0  0  0  0  0  0
   11.4651    3.1455  -14.8984 C   0  0  0  0  0  0  0  0  0  0  0  0
   10.2454    3.1654  -12.3308 C   0  0  0  0  0  0  0  0  0  0  0  0
    9.5880    3.1691  -11.0887 C   0  0  0  0  0  0  0  0  0  0  0  0
   10.4021    3.3047   -9.8222 C   0  0  0  0  0  0  0  0  0  0  0  0
    7.0421    4.2938   -9.1896 C   0  0  0  0  0  0  0  0  0  0  0  0
    6.3741    4.4056   -7.9632 C   0  0  0  0  0  0  0  0  0  0  0  0
    5.9481    5.7591   -7.4764 C   0  0  0  0  0  0  0  0  0  0  0  0
    4.6885    6.2873   -7.8559 C   0  0  0  0  0  0  0  0  0  0  0  0
    3.7484    5.4937   -8.7334 C   0  0  0  0  0  0  0  0  0  0  0  0
    4.3116    7.5552   -7.4104 C   0  0  0  0  0  0  0  0  0  0  0  0
    5.1590    8.3177   -6.5938 C   0  0  0  0  0  0  0  0  0  0  0  0
    4.6906    9.5376   -6.2186 O   0  0  0  0  0  0  0  0  0  0  0  0
    5.4842   10.3562   -5.3922 C   0  0  0  0  0  0  0  0  0  0  0  0
    6.4026    7.7970   -6.2192 C   0  0  0  0  0  0  0  0  0  0  0  0
    6.8033    6.5227   -6.6554 C   0  0  0  0  0  0  0  0  0  0  0  0
    8.1523    5.9870   -6.2333 C   0  0  0  0  0  0  0  0  0  0  0  0
    6.1168    3.2300   -7.2140 C   0  0  0  0  0  0  0  0  0  0  0  0
    5.4344    3.2681   -5.9481 C   0  0  0  0  0  0  0  0  0  0  0  0
    5.1929    2.1322   -5.2329 C   0  0  0  0  0  0  0  0  0  0  0  0
    5.6070    0.8397   -5.7096 C   0  0  0  0  0  0  0  0  0  0  0  0
    6.2881    0.7627   -6.9683 C   0  0  0  0  0  0  0  0  0  0  0  0
    6.5435    1.9595   -7.7211 C   0  0  0  0  0  0  0  0  0  0  0  0
    3.2438   -0.4472   -3.6007 C   0  0  0  0  0  0  0  0  0  0  0  0
    2.4299   -0.5836   -4.8672 C   0  0  0  0  0  0  0  0  0  0  0  0
    2.5865   -0.4431   -2.3587 C   0  0  0  0  0  0  0  0  0  0  0  0
    1.1515   -0.3856    1.2855 H   0  0  0  0  0  0  0  0  0  0  0  0
    0.9917   -1.3800   -0.1967 H   0  0  0  0  0  0  0  0  0  0  0  0
    0.8291    0.4051   -0.2900 H   0  0  0  0  0  0  0  0  0  0  0  0
    5.2556   -0.0877   -0.2873 H   0  0  0  0  0  0  0  0  0  0  0  0
    7.2928    0.0666   -1.4587 H   0  0  0  0  0  0  0  0  0  0  0  0
    7.1991    0.8269   -3.0683 H   0  0  0  0  0  0  0  0  0  0  0  0
    7.3685   -0.9245   -2.9372 H   0  0  0  0  0  0  0  0  0  0  0  0
    5.5955   -2.4821   -4.9264 H   0  0  0  0  0  0  0  0  0  0  0  0
    4.7673   -2.3224   -9.0076 H   0  0  0  0  0  0  0  0  0  0  0  0
    4.0354   -3.0488   -7.5753 H   0  0  0  0  0  0  0  0  0  0  0  0
    4.1353   -3.9868   -9.0870 H   0  0  0  0  0  0  0  0  0  0  0  0
    5.7707   -5.6804   -9.0923 H   0  0  0  0  0  0  0  0  0  0  0  0
    9.1971   -8.4232   -8.7165 H   0  0  0  0  0  0  0  0  0  0  0  0
    9.2994   -7.5738   -7.1418 H   0  0  0  0  0  0  0  0  0  0  0  0
   10.0438   -6.8479   -8.6051 H   0  0  0  0  0  0  0  0  0  0  0  0
    9.4950   -5.2277   -6.9831 H   0  0  0  0  0  0  0  0  0  0  0  0
   10.0309   -3.3060   -5.8150 H   0  0  0  0  0  0  0  0  0  0  0  0
    8.6449   -2.5689   -4.9755 H   0  0  0  0  0  0  0  0  0  0  0  0
    9.3129   -1.7877   -6.4096 H   0  0  0  0  0  0  0  0  0  0  0  0
    7.7210   -1.5147   -9.1263 H   0  0  0  0  0  0  0  0  0  0  0  0
    8.1561    0.5328  -10.4162 H   0  0  0  0  0  0  0  0  0  0  0  0
    5.4634    3.6482  -11.7517 H   0  0  0  0  0  0  0  0  0  0  0  0
    5.6323    1.8966  -11.6215 H   0  0  0  0  0  0  0  0  0  0  0  0
    5.5387    2.6576  -13.2306 H   0  0  0  0  0  0  0  0  0  0  0  0
    7.5758    2.8118  -14.4020 H   0  0  0  0  0  0  0  0  0  0  0  0
   11.6797    3.1092  -15.9752 H   0  0  0  0  0  0  0  0  0  0  0  0
   12.0021    2.3175  -14.4002 H   0  0  0  0  0  0  0  0  0  0  0  0
   11.8403    4.1028  -14.4926 H   0  0  0  0  0  0  0  0  0  0  0  0
   11.3313    3.2623  -12.3475 H   0  0  0  0  0  0  0  0  0  0  0  0
   11.4781    3.3607  -10.0430 H   0  0  0  0  0  0  0  0  0  0  0  0
   10.2366    2.4525   -9.1438 H   0  0  0  0  0  0  0  0  0  0  0  0
   10.1238    4.2096   -9.2581 H   0  0  0  0  0  0  0  0  0  0  0  0
    7.2370    5.2046   -9.7626 H   0  0  0  0  0  0  0  0  0  0  0  0
    3.5132    4.5131   -8.2895 H   0  0  0  0  0  0  0  0  0  0  0  0
    4.1939    5.2893   -9.7206 H   0  0  0  0  0  0  0  0  0  0  0  0
    2.8036    6.0331   -8.8926 H   0  0  0  0  0  0  0  0  0  0  0  0
    3.3452    7.9814   -7.6885 H   0  0  0  0  0  0  0  0  0  0  0  0
    4.9115   11.2777   -5.2197 H   0  0  0  0  0  0  0  0  0  0  0  0
    6.4457   10.6186   -5.8703 H   0  0  0  0  0  0  0  0  0  0  0  0
    5.6943    9.8794   -4.4173 H   0  0  0  0  0  0  0  0  0  0  0  0
    7.0802    8.3690   -5.5847 H   0  0  0  0  0  0  0  0  0  0  0  0
    8.6847    6.7054   -5.5929 H   0  0  0  0  0  0  0  0  0  0  0  0
    8.7907    5.7701   -7.1050 H   0  0  0  0  0  0  0  0  0  0  0  0
    8.0547    5.0414   -5.6763 H   0  0  0  0  0  0  0  0  0  0  0  0
    5.1079    4.2366   -5.5646 H   0  0  0  0  0  0  0  0  0  0  0  0
    4.6731    2.1891   -4.2745 H   0  0  0  0  0  0  0  0  0  0  0  0
    2.5949    0.2684   -5.5458 H   0  0  0  0  0  0  0  0  0  0  0  0
    1.3539   -0.6402   -4.6465 H   0  0  0  0  0  0  0  0  0  0  0  0
    2.7088   -1.4886   -5.4310 H   0  0  0  0  0  0  0  0  0  0  0  0
    1.5006   -0.5404   -2.3420 H   0  0  0  0  0  0  0  0  0  0  0  0
  1  2  1  0
  1 57  1  0
  1 58  1  0
  1 59  1  0
  2  3  1  0
  3  4  2  0
  3 56  1  0
  4  5  1  0
  4 60  1  0
  5  6  1  0
  5  7  2  0
  6 61  1  0
  6 62  1  0
  6 63  1  0
  7  8  1  0
  7 54  1  0
  8  9  2  0
  8 51  1  0
  9 10  1  0
  9 64  1  0
 10 11  1  0
 10 21  2  0
 11 12  2  0
 11 19  1  0
 12 13  1  0
 12 14  1  0
 13 65  1  0
 13 66  1  0
 13 67  1  0
 14 15  2  0
 14 68  1  0
 15 16  1  0
 15 18  1  0
 16 17  1  0
 17 69  1  0
 17 70  1  0
 17 71  1  0
 18 19  2  0
 18 72  1  0
 19 20  1  0
 20 73  1  0
 20 74  1  0
 20 75  1  0
 21 22  1  0
 21 52  1  0
 22 23  2  0
 22 76  1  0
 23 24  1  0
 23 77  1  0
 24 25  2  0
 24 53  1  0
 25 26  1  0
 25 36  1  0
 26 27  2  0
 26 34  1  0
 27 28  1  0
 27 29  1  0
 28 78  1  0
 28 79  1  0
 28 80  1  0
 29 30  2  0
 29 81  1  0
 30 31  1  0
 30 33  1  0
 31 32  1  0
 32 82  1  0
 32 83  1  0
 32 84  1  0
 33 34  2  0
 33 85  1  0
 34 35  1  0
 35 86  1  0
 35 87  1  0
 35 88  1  0
 36 37  2  0
 36 89  1  0
 37 38  1  0
 37 48  1  0
 38 39  2  0
 38 46  1  0
 39 40  1  0
 39 41  1  0
 40 90  1  0
 40 91  1  0
 40 92  1  0
 41 42  2  0
 41 93  1  0
 42 43  1  0
 42 45  1  0
 43 44  1  0
 44 94  1  0
 44 95  1  0
 44 96  1  0
 45 46  2  0
 45 97  1  0
 46 47  1  0
 47 98  1  0
 47 99  1  0
 47100  1  0
 48 49  2  0
 48 53  1  0
 49 50  1  0
 49101  1  0
 50 51  2  0
 50102  1  0
 51 52  1  0
 52 53  2  0
 54 55  1  0
 54 56  2  0
 55103  1  0
 55104  1  0
 55105  1  0
 56106  1  0
M  END

