
     RDKit          3D

 32 33  0  0  0  0  0  0  0  0999 V2000
    2.3138    1.2660   -1.2092 N   0  0  0  0  0  0  0  0  0  0  0  0
    2.0430    0.6053   -0.0387 C   0  0  0  0  0  0  0  0  0  0  0  0
    1.0045   -0.0090    0.1327 O   0  0  0  0  0  0  0  0  0  0  0  0
    3.1132    0.6679    1.0216 C   0  0  0  0  0  0  0  0  0  0  0  0
    2.7399    0.3673    2.3423 C   0  0  0  0  0  0  0  0  0  0  0  0
    3.6762    0.4047    3.3716 C   0  0  0  0  0  0  0  0  0  0  0  0
    5.0193    0.7206    3.0993 C   0  0  0  0  0  0  0  0  0  0  0  0
    6.0243    0.7692    4.2222 C   0  0  0  0  0  0  0  0  0  0  0  0
    6.1228   -0.4956    4.8979 O   0  0  0  0  0  0  0  0  0  0  0  0
    5.6472   -0.5710    6.2804 C   0  0  0  0  0  0  0  0  0  0  0  0
    4.7655    0.2151    6.5984 O   0  0  0  0  0  0  0  0  0  0  0  0
    6.2861   -1.5970    7.0191 C   0  0  0  0  0  0  0  0  0  0  0  0
    5.8693   -1.8594    8.3753 C   0  0  0  0  0  0  0  0  0  0  0  0
    6.4443   -2.8607    9.1333 C   0  0  0  0  0  0  0  0  0  0  0  0
    7.4739   -3.6804    8.6241 C   0  0  0  0  0  0  0  0  0  0  0  0
    7.9222   -3.4544    7.3004 C   0  0  0  0  0  0  0  0  0  0  0  0
    7.3339   -2.4564    6.5646 C   0  0  0  0  0  0  0  0  0  0  0  0
    8.0447   -2.1078    4.5575 I   0  0  0  0  0  0  0  0  0  0  0  0
    5.3971    0.9967    1.7790 C   0  0  0  0  0  0  0  0  0  0  0  0
    4.4537    0.9763    0.7484 C   0  0  0  0  0  0  0  0  0  0  0  0
    1.5637    1.2998   -1.8904 H   0  0  0  0  0  0  0  0  0  0  0  0
    3.0206    1.9876   -1.2549 H   0  0  0  0  0  0  0  0  0  0  0  0
    1.6971    0.1096    2.5369 H   0  0  0  0  0  0  0  0  0  0  0  0
    3.3819    0.1933    4.4026 H   0  0  0  0  0  0  0  0  0  0  0  0
    5.7221    1.5118    4.9756 H   0  0  0  0  0  0  0  0  0  0  0  0
    7.0256    1.0328    3.8452 H   0  0  0  0  0  0  0  0  0  0  0  0
    5.0734   -1.2291    8.7760 H   0  0  0  0  0  0  0  0  0  0  0  0
    6.0890   -3.0198   10.1551 H   0  0  0  0  0  0  0  0  0  0  0  0
    7.9199   -4.4756    9.2219 H   0  0  0  0  0  0  0  0  0  0  0  0
    8.7218   -4.0732    6.8878 H   0  0  0  0  0  0  0  0  0  0  0  0
    6.4416    1.2283    1.5494 H   0  0  0  0  0  0  0  0  0  0  0  0
    4.7807    1.1691   -0.2763 H   0  0  0  0  0  0  0  0  0  0  0  0
  1  2  1  0
  1 21  1  0
  1 22  1  0
  2  3  2  0
  2  4  1  0
  4  5  2  0
  4 20  1  0
  5  6  1  0
  5 23  1  0
  6  7  2  0
  6 24  1  0
  7  8  1  0
  7 19  1  0
  8  9  1  0
  8 25  1  0
  8 26  1  0
  9 10  1  0
 10 11  2  0
 10 12  1  0
 12 13  2  0
 12 17  1  0
 13 14  1  0
 13 27  1  0
 14 15  2  0
 14 28  1  0
 15 16  1  0
 15 29  1  0
 16 17  2  0
 16 30  1  0
 17 18  1  0
 19 20  2  0
 19 31  1  0
 20 32  1  0
M  END

