
     RDKit          3D

 45 48  0  0  0  0  0  0  0  0999 V2000
    4.5192  -12.2102    6.6108 N   0  0  0  0  0  0  0  0  0  0  0  0
    4.6972  -11.1293    6.2252 C   0  0  0  0  0  0  0  0  0  0  0  0
    4.9176   -9.7939    5.7419 C   0  0  0  0  0  0  0  0  0  0  0  0
    5.8631   -8.9617    6.3661 C   0  0  0  0  0  0  0  0  0  0  0  0
    6.0624   -7.6673    5.8830 C   0  0  0  0  0  0  0  0  0  0  0  0
    5.3314   -7.1981    4.7897 C   0  0  0  0  0  0  0  0  0  0  0  0
    4.3835   -8.0213    4.1553 C   0  0  0  0  0  0  0  0  0  0  0  0
    3.6003   -7.5059    2.9589 C   0  0  0  0  0  0  0  0  0  0  0  0
    4.3869   -7.3783    1.7416 N   0  0  0  0  0  0  0  0  0  0  0  0
    5.0221   -6.2250    1.4181 C   0  0  0  0  0  0  0  0  0  0  0  0
    4.9793   -5.2059    2.0901 O   0  0  0  0  0  0  0  0  0  0  0  0
    5.7649   -6.2215    0.0664 C   0  0  0  0  0  0  0  0  0  0  0  0
    6.4287   -7.4952   -0.3727 C   0  0  0  0  0  0  0  0  0  0  0  0
    5.8990   -8.6763   -0.2951 N   0  0  0  0  0  0  0  0  0  0  0  0
    6.7291   -9.6544   -0.8096 C   0  0  0  0  0  0  0  0  0  0  0  0
    6.4490  -11.0291   -0.8767 C   0  0  0  0  0  0  0  0  0  0  0  0
    7.3890  -11.8866   -1.4332 C   0  0  0  0  0  0  0  0  0  0  0  0
    8.6290  -11.4178   -1.9377 C   0  0  0  0  0  0  0  0  0  0  0  0
    9.6129  -12.3640   -2.5293 C   0  0  0  0  0  0  0  0  0  0  0  0
    9.1884  -13.4483   -3.3207 C   0  0  0  0  0  0  0  0  0  0  0  0
   10.1113  -14.3338   -3.8810 C   0  0  0  0  0  0  0  0  0  0  0  0
   11.4807  -14.1567   -3.6619 C   0  0  0  0  0  0  0  0  0  0  0  0
   11.9182  -13.0859   -2.8768 C   0  0  0  0  0  0  0  0  0  0  0  0
   10.9951  -12.2004   -2.3170 C   0  0  0  0  0  0  0  0  0  0  0  0
    8.9129  -10.0450   -1.8702 C   0  0  0  0  0  0  0  0  0  0  0  0
    7.9681   -9.1809   -1.3107 C   0  0  0  0  0  0  0  0  0  0  0  0
    8.0407   -7.4448   -1.1010 S   0  0  0  0  0  0  0  0  0  0  0  0
    4.1829   -9.3168    4.6387 C   0  0  0  0  0  0  0  0  0  0  0  0
    6.4299   -9.3330    7.2219 H   0  0  0  0  0  0  0  0  0  0  0  0
    6.7932   -7.0159    6.3682 H   0  0  0  0  0  0  0  0  0  0  0  0
    5.4866   -6.1848    4.4110 H   0  0  0  0  0  0  0  0  0  0  0  0
    3.1980   -6.5081    3.1881 H   0  0  0  0  0  0  0  0  0  0  0  0
    2.7514   -8.1761    2.7546 H   0  0  0  0  0  0  0  0  0  0  0  0
    4.5812   -8.1979    1.1625 H   0  0  0  0  0  0  0  0  0  0  0  0
    6.4900   -5.3991    0.1178 H   0  0  0  0  0  0  0  0  0  0  0  0
    5.0191   -5.9339   -0.6978 H   0  0  0  0  0  0  0  0  0  0  0  0
    5.5020  -11.4051   -0.4845 H   0  0  0  0  0  0  0  0  0  0  0  0
    7.1787  -12.9576   -1.4615 H   0  0  0  0  0  0  0  0  0  0  0  0
    8.1232  -13.5856   -3.5211 H   0  0  0  0  0  0  0  0  0  0  0  0
    9.7580  -15.1632   -4.4991 H   0  0  0  0  0  0  0  0  0  0  0  0
   12.2030  -14.8502   -4.0997 H   0  0  0  0  0  0  0  0  0  0  0  0
   12.9858  -12.9435   -2.6902 H   0  0  0  0  0  0  0  0  0  0  0  0
   11.3502  -11.3843   -1.6832 H   0  0  0  0  0  0  0  0  0  0  0  0
    9.8500   -9.6577   -2.2738 H   0  0  0  0  0  0  0  0  0  0  0  0
    3.4488   -9.9728    4.1645 H   0  0  0  0  0  0  0  0  0  0  0  0
  1  2  3  0
  2  3  1  0
  3  4  2  0
  3 28  1  0
  4  5  1  0
  4 29  1  0
  5  6  2  0
  5 30  1  0
  6  7  1  0
  6 31  1  0
  7  8  1  0
  7 28  2  0
  8  9  1  0
  8 32  1  0
  8 33  1  0
  9 10  1  0
  9 34  1  0
 10 11  2  0
 10 12  1  0
 12 13  1  0
 12 35  1  0
 12 36  1  0
 13 14  2  0
 13 27  1  0
 14 15  1  0
 15 16  2  0
 15 26  1  0
 16 17  1  0
 16 37  1  0
 17 18  2  0
 17 38  1  0
 18 19  1  0
 18 25  1  0
 19 20  2  0
 19 24  1  0
 20 21  1  0
 20 39  1  0
 21 22  2  0
 21 40  1  0
 22 23  1  0
 22 41  1  0
 23 24  2  0
 23 42  1  0
 24 43  1  0
 25 26  2  0
 25 44  1  0
 26 27  1  0
 28 45  1  0
M  END

