
     RDKit          3D

 50 52  0  0  0  0  0  0  0  0999 V2000
    4.1263   -0.3689   -0.7919 C   0  0  0  0  0  0  0  0  0  0  0  0
    2.8088    0.0936   -0.1571 C   0  0  1  0  0  0  0  0  0  0  0  0
    1.8260   -1.0285    0.1323 C   0  0  0  0  0  0  0  0  0  0  0  0
    2.0762   -2.3766   -0.1182 C   0  0  0  0  0  0  0  0  0  0  0  0
    1.1349   -3.4738    0.2104 C   0  0  0  0  0  0  0  0  0  0  0  0
   -0.3106   -3.0360    0.4661 C   0  0  0  0  0  0  0  0  0  0  0  0
   -0.4464   -1.6165    0.8692 C   0  0  0  0  0  0  0  0  0  0  0  0
    0.5610   -0.6895    0.7120 C   0  0  0  0  0  0  0  0  0  0  0  0
    2.9967    0.9817    1.0764 C   0  0  0  0  0  0  0  0  0  0  0  0
    2.4915    2.2674    1.0606 C   0  0  0  0  0  0  0  0  0  0  0  0
    2.6340    3.1675    2.1758 C   0  0  0  0  0  0  0  0  0  0  0  0
    2.0298    4.4857    2.0422 C   0  0  0  0  0  0  0  0  0  0  0  0
    1.3981    4.8344    1.0465 O   0  0  0  0  0  0  0  0  0  0  0  0
    2.1674    5.3790    3.0721 O   0  0  0  0  0  0  0  0  0  0  0  0
    3.3574    2.6411    3.3046 C   0  0  0  0  0  0  0  0  0  0  0  0
    3.4822    3.4891    4.3957 O   0  0  0  0  0  0  0  0  0  0  0  0
    3.8784    1.3532    3.3381 C   0  0  0  0  0  0  0  0  0  0  0  0
    4.5684    0.8252    4.5989 C   0  0  1  0  0  0  0  0  0  0  0  0
    3.5364    0.3021    5.6143 C   0  0  0  0  0  0  0  0  0  0  0  0
    5.7001   -0.1568    4.2895 C   0  0  0  0  0  0  0  0  0  0  0  0
    6.7681    0.2684    3.4771 C   0  0  0  0  0  0  0  0  0  0  0  0
    7.8386   -0.5772    3.1865 C   0  0  0  0  0  0  0  0  0  0  0  0
    7.8661   -1.8809    3.6973 C   0  0  0  0  0  0  0  0  0  0  0  0
    6.8121   -2.3204    4.4987 C   0  0  0  0  0  0  0  0  0  0  0  0
    5.7408   -1.4649    4.7916 C   0  0  0  0  0  0  0  0  0  0  0  0
    3.6839    0.4856    2.2127 C   0  0  0  0  0  0  0  0  0  0  0  0
    3.9750   -0.9205   -1.7356 H   0  0  0  0  0  0  0  0  0  0  0  0
    4.7184   -0.9950   -0.1066 H   0  0  0  0  0  0  0  0  0  0  0  0
    4.7334    0.5171   -1.0201 H   0  0  0  0  0  0  0  0  0  0  0  0
    2.2823    0.7148   -0.9047 H   0  0  0  0  0  0  0  0  0  0  0  0
    3.0522   -2.6635   -0.5128 H   0  0  0  0  0  0  0  0  0  0  0  0
    1.5459   -3.9647    1.1196 H   0  0  0  0  0  0  0  0  0  0  0  0
    1.1928   -4.2629   -0.5578 H   0  0  0  0  0  0  0  0  0  0  0  0
   -0.8144   -3.6890    1.1978 H   0  0  0  0  0  0  0  0  0  0  0  0
   -0.9166   -3.1569   -0.4576 H   0  0  0  0  0  0  0  0  0  0  0  0
   -1.4091   -1.2863    1.2691 H   0  0  0  0  0  0  0  0  0  0  0  0
    0.4054    0.3460    1.0159 H   0  0  0  0  0  0  0  0  0  0  0  0
    1.9670    2.6719    0.1925 H   0  0  0  0  0  0  0  0  0  0  0  0
    2.6877    4.9637    3.7788 H   0  0  0  0  0  0  0  0  0  0  0  0
    4.1409    3.1453    5.0111 H   0  0  0  0  0  0  0  0  0  0  0  0
    5.0912    1.6715    5.0918 H   0  0  0  0  0  0  0  0  0  0  0  0
    2.9678   -0.5421    5.1942 H   0  0  0  0  0  0  0  0  0  0  0  0
    2.8145    1.0979    5.8500 H   0  0  0  0  0  0  0  0  0  0  0  0
    4.0048   -0.0268    6.5566 H   0  0  0  0  0  0  0  0  0  0  0  0
    6.7479    1.2808    3.0650 H   0  0  0  0  0  0  0  0  0  0  0  0
    8.6577   -0.2182    2.5572 H   0  0  0  0  0  0  0  0  0  0  0  0
    8.7051   -2.5449    3.4728 H   0  0  0  0  0  0  0  0  0  0  0  0
    6.8205   -3.3346    4.9081 H   0  0  0  0  0  0  0  0  0  0  0  0
    4.9324   -1.8329    5.4256 H   0  0  0  0  0  0  0  0  0  0  0  0
    4.1180   -0.5129    2.2314 H   0  0  0  0  0  0  0  0  0  0  0  0
  1  2  1  0
  1 27  1  0
  1 28  1  0
  1 29  1  0
  2  3  1  0
  2  9  1  0
  2 30  1  6
  3  4  2  0
  3  8  1  0
  4  5  1  0
  4 31  1  0
  5  6  1  0
  5 32  1  0
  5 33  1  0
  6  7  1  0
  6 34  1  0
  6 35  1  0
  7  8  2  0
  7 36  1  0
  8 37  1  0
  9 10  2  0
  9 26  1  0
 10 11  1  0
 10 38  1  0
 11 12  1  0
 11 15  2  0
 12 13  2  0
 12 14  1  0
 14 39  1  0
 15 16  1  0
 15 17  1  0
 16 40  1  0
 17 18  1  0
 17 26  2  0
 18 19  1  0
 18 20  1  0
 18 41  1  1
 19 42  1  0
 19 43  1  0
 19 44  1  0
 20 21  2  0
 20 25  1  0
 21 22  1  0
 21 45  1  0
 22 23  2  0
 22 46  1  0
 23 24  1  0
 23 47  1  0
 24 25  2  0
 24 48  1  0
 25 49  1  0
 26 50  1  0
M  END

