
     RDKit          3D

 84 86  0  0  0  0  0  0  0  0999 V2000
    1.3648    0.2882    0.6289 C   0  0  0  0  0  0  0  0  0  0  0  0
    2.8872    0.4339    0.6362 C   0  0  0  0  0  0  0  0  0  0  0  0
    3.4514    1.0525   -0.6467 C   0  0  0  0  0  0  0  0  0  0  0  0
    4.9757    1.1994   -0.6474 C   0  0  0  0  0  0  0  0  0  0  0  0
    5.5401    1.8192   -1.9293 C   0  0  0  0  0  0  0  0  0  0  0  0
    7.0652    1.9592   -1.9316 C   0  0  0  0  0  0  0  0  0  0  0  0
    7.6279    2.5843   -3.2112 C   0  0  0  0  0  0  0  0  0  0  0  0
    9.1612    2.7079   -3.2149 C   0  0  0  0  0  0  0  0  0  0  0  0
    9.7068    3.3705   -4.4493 C   0  0  0  0  0  0  0  0  0  0  0  0
   10.5251    2.8015   -5.3434 C   0  0  0  0  0  0  0  0  0  0  0  0
   11.0677    3.4614   -6.5805 C   0  0  0  0  0  0  0  0  0  0  0  0
   12.6034    3.5432   -6.6101 C   0  0  0  0  0  0  0  0  0  0  0  0
   13.1599    4.1720   -7.8906 C   0  0  0  0  0  0  0  0  0  0  0  0
   14.6894    4.2407   -7.9332 C   0  0  0  0  0  0  0  0  0  0  0  0
   15.2452    4.8762   -9.2111 C   0  0  0  0  0  0  0  0  0  0  0  0
   16.7752    4.9185   -9.2695 C   0  0  0  0  0  0  0  0  0  0  0  0
   17.3241    5.5706  -10.5414 C   0  0  0  0  0  0  0  0  0  0  0  0
   18.8623    5.5694  -10.6167 C   0  0  0  0  0  0  0  0  0  0  0  0
   19.4197    6.2061  -11.8743 C   0  0  0  0  0  0  0  0  0  0  0  0
   19.8037    5.3713  -12.9327 C   0  0  0  0  0  0  0  0  0  0  0  0
   20.2737    5.8839  -14.1361 C   0  0  0  0  0  0  0  0  0  0  0  0
   20.3809    7.2687  -14.2834 C   0  0  0  0  0  0  0  0  0  0  0  0
   20.0111    8.1555  -13.2586 C   0  0  0  0  0  0  0  0  0  0  0  0
   19.5053    7.6160  -12.0433 C   0  0  0  0  0  0  0  0  0  0  0  0
   19.1149    8.4796  -10.9101 C   0  0  0  0  0  0  0  0  0  0  0  0
   18.4265    9.6406  -10.9523 C   0  0  0  0  0  0  0  0  0  0  0  0
   18.0453   10.4804   -9.8068 C   0  0  0  0  0  0  0  0  0  0  0  0
   18.5344   10.2787   -8.4986 C   0  0  0  0  0  0  0  0  0  0  0  0
   18.1320   11.1008   -7.4476 C   0  0  0  0  0  0  0  0  0  0  0  0
   17.2343   12.1519   -7.6721 C   0  0  0  0  0  0  0  0  0  0  0  0
   16.7459   12.3729   -8.9625 C   0  0  0  0  0  0  0  0  0  0  0  0
   17.1491   11.5485  -10.0146 C   0  0  0  0  0  0  0  0  0  0  0  0
   20.2192    9.6376  -13.5004 C   0  0  0  0  0  0  0  0  0  0  0  0
   21.1281    9.8532  -14.7045 C   0  0  0  0  0  0  0  0  0  0  0  0
   20.6726    9.0510  -15.7837 O   0  0  0  0  0  0  0  0  0  0  0  0
   20.9643    7.6783  -15.4603 O   0  0  0  0  0  0  0  0  0  0  0  0
    0.9955   -0.1610    1.5648 H   0  0  0  0  0  0  0  0  0  0  0  0
    1.0272   -0.3526   -0.2031 H   0  0  0  0  0  0  0  0  0  0  0  0
    0.8687    1.2664    0.5114 H   0  0  0  0  0  0  0  0  0  0  0  0
    3.3519   -0.5565    0.7954 H   0  0  0  0  0  0  0  0  0  0  0  0
    3.1947    1.0497    1.5012 H   0  0  0  0  0  0  0  0  0  0  0  0
    2.9887    2.0445   -0.8067 H   0  0  0  0  0  0  0  0  0  0  0  0
    3.1436    0.4374   -1.5132 H   0  0  0  0  0  0  0  0  0  0  0  0
    5.4375    0.2069   -0.4886 H   0  0  0  0  0  0  0  0  0  0  0  0
    5.2833    1.8129    0.2201 H   0  0  0  0  0  0  0  0  0  0  0  0
    5.0822    2.8138   -2.0859 H   0  0  0  0  0  0  0  0  0  0  0  0
    5.2293    1.2085   -2.7974 H   0  0  0  0  0  0  0  0  0  0  0  0
    7.5228    0.9637   -1.7800 H   0  0  0  0  0  0  0  0  0  0  0  0
    7.3778    2.5661   -1.0612 H   0  0  0  0  0  0  0  0  0  0  0  0
    7.1809    3.5853   -3.3568 H   0  0  0  0  0  0  0  0  0  0  0  0
    7.3142    1.9864   -4.0858 H   0  0  0  0  0  0  0  0  0  0  0  0
    9.6130    1.7071   -3.0993 H   0  0  0  0  0  0  0  0  0  0  0  0
    9.4665    3.2894   -2.3235 H   0  0  0  0  0  0  0  0  0  0  0  0
    9.3789    4.4057   -4.6233 H   0  0  0  0  0  0  0  0  0  0  0  0
   10.8520    1.7659   -5.1697 H   0  0  0  0  0  0  0  0  0  0  0  0
   10.6400    4.4743   -6.6803 H   0  0  0  0  0  0  0  0  0  0  0  0
   10.7325    2.8959   -7.4716 H   0  0  0  0  0  0  0  0  0  0  0  0
   13.0241    2.5277   -6.4886 H   0  0  0  0  0  0  0  0  0  0  0  0
   12.9503    4.1181   -5.7326 H   0  0  0  0  0  0  0  0  0  0  0  0
   12.7451    5.1906   -8.0076 H   0  0  0  0  0  0  0  0  0  0  0  0
   12.7966    3.6004   -8.7651 H   0  0  0  0  0  0  0  0  0  0  0  0
   15.1026    3.2206   -7.8231 H   0  0  0  0  0  0  0  0  0  0  0  0
   15.0543    4.8063   -7.0557 H   0  0  0  0  0  0  0  0  0  0  0  0
   14.8479    5.9033   -9.3109 H   0  0  0  0  0  0  0  0  0  0  0  0
   14.8639    4.3226  -10.0893 H   0  0  0  0  0  0  0  0  0  0  0  0
   17.1717    3.8893   -9.1835 H   0  0  0  0  0  0  0  0  0  0  0  0
   17.1598    5.4609   -8.3855 H   0  0  0  0  0  0  0  0  0  0  0  0
   16.9562    6.6088  -10.6127 H   0  0  0  0  0  0  0  0  0  0  0  0
   16.9251    5.0473  -11.4287 H   0  0  0  0  0  0  0  0  0  0  0  0
   19.2176    4.5266  -10.5657 H   0  0  0  0  0  0  0  0  0  0  0  0
   19.2637    6.0624   -9.7149 H   0  0  0  0  0  0  0  0  0  0  0  0
   19.7242    4.2875  -12.8108 H   0  0  0  0  0  0  0  0  0  0  0  0
   20.5737    5.2374  -14.9629 H   0  0  0  0  0  0  0  0  0  0  0  0
   19.3931    8.0929   -9.9244 H   0  0  0  0  0  0  0  0  0  0  0  0
   18.0637   10.0034  -11.9177 H   0  0  0  0  0  0  0  0  0  0  0  0
   19.2484    9.4760   -8.3020 H   0  0  0  0  0  0  0  0  0  0  0  0
   18.5265   10.9252   -6.4432 H   0  0  0  0  0  0  0  0  0  0  0  0
   16.9232   12.7964   -6.8462 H   0  0  0  0  0  0  0  0  0  0  0  0
   16.0475   13.1922   -9.1520 H   0  0  0  0  0  0  0  0  0  0  0  0
   16.7607   11.7276  -11.0213 H   0  0  0  0  0  0  0  0  0  0  0  0
   20.6334   10.1249  -12.6031 H   0  0  0  0  0  0  0  0  0  0  0  0
   19.2569   10.1332  -13.7093 H   0  0  0  0  0  0  0  0  0  0  0  0
   22.1854    9.6187  -14.4852 H   0  0  0  0  0  0  0  0  0  0  0  0
   21.0691   10.8838  -15.0874 H   0  0  0  0  0  0  0  0  0  0  0  0
  1  2  1  0
  1 37  1  0
  1 38  1  0
  1 39  1  0
  2  3  1  0
  2 40  1  0
  2 41  1  0
  3  4  1  0
  3 42  1  0
  3 43  1  0
  4  5  1  0
  4 44  1  0
  4 45  1  0
  5  6  1  0
  5 46  1  0
  5 47  1  0
  6  7  1  0
  6 48  1  0
  6 49  1  0
  7  8  1  0
  7 50  1  0
  7 51  1  0
  8  9  1  0
  8 52  1  0
  8 53  1  0
  9 10  2  0
  9 54  1  0
 10 11  1  0
 10 55  1  0
 11 12  1  0
 11 56  1  0
 11 57  1  0
 12 13  1  0
 12 58  1  0
 12 59  1  0
 13 14  1  0
 13 60  1  0
 13 61  1  0
 14 15  1  0
 14 62  1  0
 14 63  1  0
 15 16  1  0
 15 64  1  0
 15 65  1  0
 16 17  1  0
 16 66  1  0
 16 67  1  0
 17 18  1  0
 17 68  1  0
 17 69  1  0
 18 19  1  0
 18 70  1  0
 18 71  1  0
 19 20  2  0
 19 24  1  0
 20 21  1  0
 20 72  1  0
 21 22  2  0
 21 73  1  0
 22 23  1  0
 22 36  1  0
 23 24  2  0
 23 33  1  0
 24 25  1  0
 25 26  2  0
 25 74  1  0
 26 27  1  0
 26 75  1  0
 27 28  2  0
 27 32  1  0
 28 29  1  0
 28 76  1  0
 29 30  2  0
 29 77  1  0
 30 31  1  0
 30 78  1  0
 31 32  2  0
 31 79  1  0
 32 80  1  0
 33 34  1  0
 33 81  1  0
 33 82  1  0
 34 35  1  0
 34 83  1  0
 34 84  1  0
 35 36  1  0
M  END

