
     RDKit          3D

 33 35  0  0  0  0  0  0  0  0999 V2000
    1.3301   -0.5126    0.7905 N   0  0  0  0  0  0  0  0  0  0  0  0
    2.6407   -0.0123    0.3706 C   0  0  1  0  0  0  0  0  0  0  0  0
    3.3995    0.3088    1.6327 C   0  0  0  0  0  0  0  0  0  0  0  0
    3.3020   -0.2888    2.7830 N   0  0  0  0  0  0  0  0  0  0  0  0
    4.2662    0.3403    3.5350 C   0  0  0  0  0  0  0  0  0  0  0  0
    4.5491    0.0062    4.9717 C   0  0  0  0  0  0  0  0  0  0  0  0
    3.4190    0.3348    5.9141 C   0  0  0  0  0  0  0  0  0  0  0  0
    3.3633    1.3598    6.8291 C   0  0  0  0  0  0  0  0  0  0  0  0
    2.1414    1.3923    7.5683 C   0  0  0  0  0  0  0  0  0  0  0  0
    1.2810    0.3888    7.2038 C   0  0  0  0  0  0  0  0  0  0  0  0
    1.9492   -0.6020    5.9526 S   0  0  0  0  0  0  0  0  0  0  0  0
    4.9276    1.2655    2.8885 N   0  0  0  0  0  0  0  0  0  0  0  0
    4.3516    1.2472    1.6175 O   0  0  0  0  0  0  0  0  0  0  0  0
    3.4859   -1.0488   -0.4395 C   0  0  0  0  0  0  0  0  0  0  0  0
    2.8877   -1.2758   -1.8294 C   0  0  0  0  0  0  0  0  0  0  0  0
    2.7539   -0.0719   -2.5503 O   0  0  0  0  0  0  0  0  0  0  0  0
    1.9228    0.8666   -1.8926 C   0  0  0  0  0  0  0  0  0  0  0  0
    2.4694    1.2451   -0.5168 C   0  0  0  0  0  0  0  0  0  0  0  0
    1.4347   -1.1135    1.6084 H   0  0  0  0  0  0  0  0  0  0  0  0
    0.8947   -1.0657    0.0556 H   0  0  0  0  0  0  0  0  0  0  0  0
    5.4426    0.5666    5.2798 H   0  0  0  0  0  0  0  0  0  0  0  0
    4.7964   -1.0676    5.0276 H   0  0  0  0  0  0  0  0  0  0  0  0
    4.1805    2.0701    6.9695 H   0  0  0  0  0  0  0  0  0  0  0  0
    1.9134    2.1308    8.3386 H   0  0  0  0  0  0  0  0  0  0  0  0
    0.2871    0.1767    7.5958 H   0  0  0  0  0  0  0  0  0  0  0  0
    3.5344   -1.9974    0.1204 H   0  0  0  0  0  0  0  0  0  0  0  0
    4.5158   -0.6727   -0.5561 H   0  0  0  0  0  0  0  0  0  0  0  0
    1.9024   -1.7854   -1.7445 H   0  0  0  0  0  0  0  0  0  0  0  0
    3.5383   -1.9350   -2.4242 H   0  0  0  0  0  0  0  0  0  0  0  0
    0.8913    0.4665   -1.7981 H   0  0  0  0  0  0  0  0  0  0  0  0
    1.8717    1.7516   -2.5442 H   0  0  0  0  0  0  0  0  0  0  0  0
    1.7865    1.9480   -0.0157 H   0  0  0  0  0  0  0  0  0  0  0  0
    3.4435    1.7406   -0.6472 H   0  0  0  0  0  0  0  0  0  0  0  0
  2  1  1  1
  1 19  1  0
  1 20  1  0
  2  3  1  0
  2 14  1  0
  2 18  1  0
  3  4  2  0
  3 13  1  0
  4  5  1  0
  5  6  1  0
  5 12  2  0
  6  7  1  0
  6 21  1  0
  6 22  1  0
  7  8  2  0
  7 11  1  0
  8  9  1  0
  8 23  1  0
  9 10  2  0
  9 24  1  0
 10 11  1  0
 10 25  1  0
 12 13  1  0
 14 15  1  0
 14 26  1  0
 14 27  1  0
 15 16  1  0
 15 28  1  0
 15 29  1  0
 16 17  1  0
 17 18  1  0
 17 30  1  0
 17 31  1  0
 18 32  1  0
 18 33  1  0
M  END

