
     RDKit          3D

 49 50  0  0  0  0  0  0  0  0999 V2000
    7.3137   -6.2215   -0.1700 C   0  0  0  0  0  0  0  0  0  0  0  0
    7.5157   -4.7488   -0.4588 C   0  0  0  0  0  0  0  0  0  0  0  0
    6.2191   -4.1304   -0.5443 O   0  0  0  0  0  0  0  0  0  0  0  0
    6.1238   -2.7847   -0.5356 C   0  0  0  0  0  0  0  0  0  0  0  0
    7.2463   -2.0653   -0.3355 N   0  0  0  0  0  0  0  0  0  0  0  0
    7.0917   -0.7287   -0.5171 C   0  0  0  0  0  0  0  0  0  0  0  0
    5.8654   -0.0899   -0.8119 C   0  0  0  0  0  0  0  0  0  0  0  0
    4.6689   -0.8076   -0.9120 C   0  0  0  0  0  0  0  0  0  0  0  0
    4.8345   -2.2563   -0.8147 C   0  0  0  0  0  0  0  0  0  0  0  0
    3.8468   -3.1426   -1.1867 N   0  0  0  0  0  0  0  0  0  0  0  0
    2.4822   -2.8781   -1.3770 C   0  0  0  0  0  0  0  0  0  0  0  0
    1.9146   -1.8665   -0.9943 O   0  0  0  0  0  0  0  0  0  0  0  0
    1.8323   -3.9293   -2.0019 N   0  0  0  0  0  0  0  0  0  0  0  0
    0.4179   -3.8287   -2.3295 C   0  0  1  0  0  0  0  0  0  0  0  0
    0.2048   -2.9724   -3.6086 C   0  0  0  0  0  0  0  0  0  0  0  0
    0.8426   -3.4493   -4.8274 N   0  0  0  0  0  0  0  0  0  0  0  0
    2.1876   -3.3859   -5.1384 C   0  0  0  0  0  0  0  0  0  0  0  0
    2.3136   -3.9882   -6.3728 C   0  0  0  0  0  0  0  0  0  0  0  0
    1.0911   -4.4098   -6.8267 N   0  0  0  0  0  0  0  0  0  0  0  0
    0.2369   -4.0709   -5.8878 C   0  0  0  0  0  0  0  0  0  0  0  0
   -0.2833   -5.2260   -2.2368 C   0  0  1  0  0  0  0  0  0  0  0  0
   -0.2426   -5.6709   -0.7597 C   0  0  0  0  0  0  0  0  0  0  0  0
   -1.7580   -5.1007   -2.6642 C   0  0  0  0  0  0  0  0  0  0  0  0
    0.4070   -6.3043   -3.0976 C   0  0  0  0  0  0  0  0  0  0  0  0
    8.2912   -6.7245   -0.1091 H   0  0  0  0  0  0  0  0  0  0  0  0
    6.7279   -6.7106   -0.9643 H   0  0  0  0  0  0  0  0  0  0  0  0
    6.7912   -6.3686    0.7878 H   0  0  0  0  0  0  0  0  0  0  0  0
    8.0443   -4.5855   -1.4135 H   0  0  0  0  0  0  0  0  0  0  0  0
    8.0975   -4.2359    0.3201 H   0  0  0  0  0  0  0  0  0  0  0  0
    7.9954   -0.1216   -0.3932 H   0  0  0  0  0  0  0  0  0  0  0  0
    5.8674    0.9976   -0.9282 H   0  0  0  0  0  0  0  0  0  0  0  0
    3.6808   -0.3601   -0.9664 H   0  0  0  0  0  0  0  0  0  0  0  0
    4.1455   -4.1162   -1.2344 H   0  0  0  0  0  0  0  0  0  0  0  0
    2.3853   -4.5729   -2.5573 H   0  0  0  0  0  0  0  0  0  0  0  0
   -0.0187   -3.2059   -1.5331 H   0  0  0  0  0  0  0  0  0  0  0  0
    0.5983   -1.9705   -3.3806 H   0  0  0  0  0  0  0  0  0  0  0  0
   -0.8680   -2.8569   -3.8128 H   0  0  0  0  0  0  0  0  0  0  0  0
    2.9077   -2.8926   -4.4899 H   0  0  0  0  0  0  0  0  0  0  0  0
    3.2229   -4.1243   -6.9581 H   0  0  0  0  0  0  0  0  0  0  0  0
   -0.8408   -4.2373   -5.9151 H   0  0  0  0  0  0  0  0  0  0  0  0
   -0.7929   -4.9666   -0.1149 H   0  0  0  0  0  0  0  0  0  0  0  0
    0.7912   -5.7277   -0.3876 H   0  0  0  0  0  0  0  0  0  0  0  0
   -0.7022   -6.6652   -0.6421 H   0  0  0  0  0  0  0  0  0  0  0  0
   -2.2676   -4.2848   -2.1250 H   0  0  0  0  0  0  0  0  0  0  0  0
   -2.2973   -6.0337   -2.4367 H   0  0  0  0  0  0  0  0  0  0  0  0
   -1.8708   -4.9202   -3.7438 H   0  0  0  0  0  0  0  0  0  0  0  0
    1.4426   -6.4916   -2.7690 H   0  0  0  0  0  0  0  0  0  0  0  0
    0.4264   -6.0492   -4.1668 H   0  0  0  0  0  0  0  0  0  0  0  0
   -0.1288   -7.2617   -2.9962 H   0  0  0  0  0  0  0  0  0  0  0  0
  1  2  1  0
  1 25  1  0
  1 26  1  0
  1 27  1  0
  2  3  1  0
  2 28  1  0
  2 29  1  0
  3  4  1  0
  4  5  2  0
  4  9  1  0
  5  6  1  0
  6  7  2  0
  6 30  1  0
  7  8  1  0
  7 31  1  0
  8  9  2  0
  8 32  1  0
  9 10  1  0
 10 11  1  0
 10 33  1  0
 11 12  2  0
 11 13  1  0
 13 14  1  0
 13 34  1  0
 14 15  1  0
 14 21  1  0
 14 35  1  1
 15 16  1  0
 15 36  1  0
 15 37  1  0
 16 17  1  0
 16 20  1  0
 17 18  2  0
 17 38  1  0
 18 19  1  0
 18 39  1  0
 19 20  2  0
 20 40  1  0
 21 22  1  1
 21 23  1  0
 21 24  1  0
 22 41  1  0
 22 42  1  0
 22 43  1  0
 23 44  1  0
 23 45  1  0
 23 46  1  0
 24 47  1  0
 24 48  1  0
 24 49  1  0
M  END

