
     RDKit          3D

 59 60  0  0  0  0  0  0  0  0999 V2000
    5.7354   -2.3245    1.1059 C   0  0  0  0  0  0  0  0  0  0  0  0
    5.9094   -0.8728    0.6521 C   0  0  1  0  0  0  0  0  0  0  0  0
    5.1708    0.1147    1.5597 C   0  0  0  0  0  0  0  0  0  0  0  0
    7.3902   -0.5094    0.5422 C   0  0  0  0  0  0  0  0  0  0  0  0
    5.4320   -0.7161   -0.7398 O   0  0  0  0  0  0  0  0  0  0  0  0
    4.1739   -0.9551   -1.1115 C   0  0  0  0  0  0  0  0  0  0  0  0
    3.2861   -1.3073   -0.3615 O   0  0  0  0  0  0  0  0  0  0  0  0
    3.9760   -0.6925   -2.6134 C   0  0  1  0  0  0  0  0  0  0  0  0
    5.0599   -1.3538   -3.4926 C   0  0  0  0  0  0  0  0  0  0  0  0
    4.8715   -2.8706   -3.6316 C   0  0  0  0  0  0  0  0  0  0  0  0
    3.5012   -3.1846   -4.0555 N   0  0  0  0  0  0  0  0  0  0  0  0
    3.2961   -4.4588   -4.6784 C   0  0  0  0  0  0  0  0  0  0  0  0
    3.6283   -5.6946   -4.0752 C   0  0  0  0  0  0  0  0  0  0  0  0
    4.0240   -5.8509   -2.6231 C   0  0  0  0  0  0  0  0  0  0  0  0
    5.0354   -6.4550   -2.3051 O   0  0  0  0  0  0  0  0  0  0  0  0
    3.1142   -5.3331   -1.7343 N   0  0  0  0  0  0  0  0  0  0  0  0
    3.2663   -5.2959   -0.3205 C   0  0  0  0  0  0  0  0  0  0  0  0
    4.1283   -5.9312    0.3655 N   0  0  0  0  0  0  0  0  0  0  0  0
    2.3066   -4.4752    0.2724 N   0  0  0  0  0  0  0  0  0  0  0  0
    3.5887   -6.8857   -4.8167 C   0  0  0  0  0  0  0  0  0  0  0  0
    3.1452   -6.8983   -6.1363 C   0  0  0  0  0  0  0  0  0  0  0  0
    2.7467   -5.7030   -6.7343 C   0  0  0  0  0  0  0  0  0  0  0  0
    2.8393   -4.5083   -6.0158 C   0  0  0  0  0  0  0  0  0  0  0  0
    2.2600   -3.0354   -6.9115 S   0  0  1  0  0  0  0  0  0  0  0  0
    3.7193   -2.0245   -7.2034 C   0  0  0  0  0  0  0  0  0  0  0  0
    1.7930   -3.4917   -8.2289 O   0  0  0  0  0  0  0  0  0  0  0  0
    1.3334   -2.2657   -6.0564 O   0  0  0  0  0  0  0  0  0  0  0  0
    2.5157   -2.6710   -3.0791 C   0  0  2  0  0  0  0  0  0  0  0  0
    1.2287   -3.2956   -3.2966 N   0  0  0  0  0  0  0  0  0  0  0  0
    2.5773   -1.1372   -3.0696 C   0  0  0  0  0  0  0  0  0  0  0  0
    6.2108   -2.4594    2.0898 H   0  0  0  0  0  0  0  0  0  0  0  0
    6.2190   -3.0187    0.4019 H   0  0  0  0  0  0  0  0  0  0  0  0
    4.6780   -2.6009    1.1922 H   0  0  0  0  0  0  0  0  0  0  0  0
    5.6039    0.0773    2.5713 H   0  0  0  0  0  0  0  0  0  0  0  0
    4.1029   -0.1283    1.6278 H   0  0  0  0  0  0  0  0  0  0  0  0
    5.2796    1.1432    1.1811 H   0  0  0  0  0  0  0  0  0  0  0  0
    7.8692   -0.5699    1.5311 H   0  0  0  0  0  0  0  0  0  0  0  0
    7.5122    0.5146    0.1578 H   0  0  0  0  0  0  0  0  0  0  0  0
    7.9117   -1.2000   -0.1376 H   0  0  0  0  0  0  0  0  0  0  0  0
    4.0788    0.4024   -2.7183 H   0  0  0  0  0  0  0  0  0  0  0  0
    6.0593   -1.1434   -3.0856 H   0  0  0  0  0  0  0  0  0  0  0  0
    5.0138   -0.8899   -4.4915 H   0  0  0  0  0  0  0  0  0  0  0  0
    5.1283   -3.3604   -2.6677 H   0  0  0  0  0  0  0  0  0  0  0  0
    5.5765   -3.2643   -4.3795 H   0  0  0  0  0  0  0  0  0  0  0  0
    2.2502   -4.9514   -2.1304 H   0  0  0  0  0  0  0  0  0  0  0  0
    4.6905   -6.5362   -0.2359 H   0  0  0  0  0  0  0  0  0  0  0  0
    2.2502   -3.5301   -0.1077 H   0  0  0  0  0  0  0  0  0  0  0  0
    2.4475   -4.4490    1.2792 H   0  0  0  0  0  0  0  0  0  0  0  0
    3.8990   -7.8106   -4.3255 H   0  0  0  0  0  0  0  0  0  0  0  0
    3.1007   -7.8347   -6.6967 H   0  0  0  0  0  0  0  0  0  0  0  0
    2.3740   -5.6718   -7.7592 H   0  0  0  0  0  0  0  0  0  0  0  0
    4.4260   -2.6046   -7.8103 H   0  0  0  0  0  0  0  0  0  0  0  0
    4.1442   -1.7254   -6.2401 H   0  0  0  0  0  0  0  0  0  0  0  0
    3.3496   -1.1548   -7.7647 H   0  0  0  0  0  0  0  0  0  0  0  0
    2.8444   -2.9795   -2.0725 H   0  0  0  0  0  0  0  0  0  0  0  0
    0.8699   -3.0340   -4.2203 H   0  0  0  0  0  0  0  0  0  0  0  0
    0.5626   -2.9623   -2.6000 H   0  0  0  0  0  0  0  0  0  0  0  0
    1.8173   -0.7518   -2.3735 H   0  0  0  0  0  0  0  0  0  0  0  0
    2.3534   -0.7564   -4.0773 H   0  0  0  0  0  0  0  0  0  0  0  0
  1  2  1  0
  1 31  1  0
  1 32  1  0
  1 33  1  0
  2  3  1  0
  2  4  1  0
  2  5  1  6
  3 34  1  0
  3 35  1  0
  3 36  1  0
  4 37  1  0
  4 38  1  0
  4 39  1  0
  5  6  1  0
  6  7  2  0
  6  8  1  0
  8  9  1  0
  8 30  1  0
  8 40  1  1
  9 10  1  0
  9 41  1  0
  9 42  1  0
 10 11  1  0
 10 43  1  0
 10 44  1  0
 11 12  1  0
 11 28  1  0
 12 13  2  0
 12 23  1  0
 13 14  1  0
 13 20  1  0
 14 15  2  0
 14 16  1  0
 16 17  1  0
 16 45  1  0
 17 18  2  0
 17 19  1  0
 18 46  1  0
 19 47  1  0
 19 48  1  0
 20 21  2  0
 20 49  1  0
 21 22  1  0
 21 50  1  0
 22 23  2  0
 22 51  1  0
 23 24  1  0
 24 25  1  6
 24 26  2  0
 24 27  2  0
 25 52  1  0
 25 53  1  0
 25 54  1  0
 28 29  1  0
 28 30  1  0
 28 55  1  1
 29 56  1  0
 29 57  1  0
 30 58  1  0
 30 59  1  0
M  END

