
     RDKit          3D

 30 32  0  0  0  0  0  0  0  0999 V2000
    3.8295    3.9672   -0.4891 Br  0  0  0  0  0  0  0  0  0  0  0  0
    4.3212    2.2016    0.0987 C   0  0  0  0  0  0  0  0  0  0  0  0
    3.3288    1.3936    0.6705 C   0  0  0  0  0  0  0  0  0  0  0  0
    3.6857    0.0992    1.1084 C   0  0  0  0  0  0  0  0  0  0  0  0
    4.9940   -0.3378    0.9633 C   0  0  0  0  0  0  0  0  0  0  0  0
    5.7026   -1.8865    1.4315 S   0  0  0  0  0  0  0  0  0  0  0  0
    7.3191   -1.2675    0.8950 C   0  0  0  0  0  0  0  0  0  0  0  0
    8.3569   -2.2779    0.4718 C   0  0  0  0  0  0  0  0  0  0  0  0
    9.6240   -1.6139   -0.0803 C   0  0  1  0  0  0  0  0  0  0  0  0
   10.1724   -0.3900    0.7719 C   0  0  0  0  0  0  0  0  0  0  0  0
   10.6833   -0.9322    1.9879 N   0  0  0  0  0  0  0  0  0  0  0  0
   11.7566   -1.8599    1.8682 C   0  0  0  0  0  0  0  0  0  0  0  0
   11.2641   -3.0327    0.9091 C   0  0  0  0  0  0  0  0  0  0  0  0
   10.7292   -2.4912   -0.2466 O   0  0  0  0  0  0  0  0  0  0  0  0
    7.2430   -0.0531    0.2866 N   0  0  0  0  0  0  0  0  0  0  0  0
    6.0153    0.4889    0.3708 C   0  0  0  0  0  0  0  0  0  0  0  0
    5.6401    1.7957   -0.0620 C   0  0  0  0  0  0  0  0  0  0  0  0
    2.3071    1.7568    0.7763 H   0  0  0  0  0  0  0  0  0  0  0  0
    2.9270   -0.5463    1.5576 H   0  0  0  0  0  0  0  0  0  0  0  0
    8.0062   -2.9629   -0.3316 H   0  0  0  0  0  0  0  0  0  0  0  0
    8.6006   -2.9453    1.3193 H   0  0  0  0  0  0  0  0  0  0  0  0
    9.4228   -1.1872   -1.0688 H   0  0  0  0  0  0  0  0  0  0  0  0
    9.3300    0.2938    0.9198 H   0  0  0  0  0  0  0  0  0  0  0  0
   10.9920    0.0700    0.2046 H   0  0  0  0  0  0  0  0  0  0  0  0
    9.9976   -1.0932    2.7249 H   0  0  0  0  0  0  0  0  0  0  0  0
   12.0501   -2.2686    2.8435 H   0  0  0  0  0  0  0  0  0  0  0  0
   12.6138   -1.3714    1.3845 H   0  0  0  0  0  0  0  0  0  0  0  0
   10.5512   -3.6562    1.4703 H   0  0  0  0  0  0  0  0  0  0  0  0
   12.1426   -3.6336    0.6377 H   0  0  0  0  0  0  0  0  0  0  0  0
    6.3863    2.4507   -0.5108 H   0  0  0  0  0  0  0  0  0  0  0  0
  1  2  1  0
  2  3  2  0
  2 17  1  0
  3  4  1  0
  3 18  1  0
  4  5  2  0
  4 19  1  0
  5  6  1  0
  5 16  1  0
  6  7  1  0
  7  8  1  0
  7 15  2  0
  8  9  1  0
  8 20  1  0
  8 21  1  0
  9 10  1  0
  9 14  1  0
  9 22  1  6
 10 11  1  0
 10 23  1  0
 10 24  1  0
 11 12  1  0
 11 25  1  0
 12 13  1  0
 12 26  1  0
 12 27  1  0
 13 14  1  0
 13 28  1  0
 13 29  1  0
 15 16  1  0
 16 17  2  0
 17 30  1  0
M  END

