
     RDKit          3D

 55 58  0  0  0  0  0  0  0  0999 V2000
    2.5493   -1.4111    6.4804 C   0  0  0  0  0  0  0  0  0  0  0  0
    2.8021   -1.2106    5.0176 C   0  0  0  0  0  0  0  0  0  0  0  0
    2.1173   -0.3548    4.1109 C   0  0  0  0  0  0  0  0  0  0  0  0
    2.7350   -0.5392    2.8855 C   0  0  0  0  0  0  0  0  0  0  0  0
    2.4595    0.0890    1.5560 C   0  0  0  0  0  0  0  0  0  0  0  0
    3.7226   -1.4669    3.1035 N   0  0  0  0  0  0  0  0  0  0  0  0
    4.6910   -1.9647    2.1630 C   0  0  1  0  0  0  0  0  0  0  0  0
    6.2028   -1.6406    2.3779 C   0  0  0  0  0  0  0  0  0  0  0  0
    6.4725   -3.0612    2.1702 N   0  0  0  0  0  0  0  0  0  0  0  0
    7.6569   -3.7044    2.0974 C   0  0  0  0  0  0  0  0  0  0  0  0
    8.7287   -3.1136    2.0852 O   0  0  0  0  0  0  0  0  0  0  0  0
    7.5708   -5.2318    1.9840 C   0  0  0  0  0  0  0  0  0  0  0  0
    8.9746   -5.8394    1.9004 C   0  0  1  0  0  0  0  0  0  0  0  0
    9.7092   -5.8829    3.2846 C   0  0  0  0  0  0  0  0  0  0  0  0
    9.2641   -6.9983    4.0608 N   0  0  0  0  0  0  0  0  0  0  0  0
    8.6722   -6.8645    5.4649 C   0  0  0  0  0  0  0  0  0  0  0  0
    8.3628   -5.5136    5.9451 C   0  0  0  0  0  0  0  0  0  0  0  0
    7.0608   -4.9088    5.6896 C   0  0  0  0  0  0  0  0  0  0  0  0
    6.7957   -3.6125    6.0945 C   0  0  0  0  0  0  0  0  0  0  0  0
    7.7663   -2.8297    6.7694 C   0  0  0  0  0  0  0  0  0  0  0  0
    9.0313   -3.4383    7.0815 C   0  0  0  0  0  0  0  0  0  0  0  0
    9.3148   -4.7260    6.6856 C   0  0  0  0  0  0  0  0  0  0  0  0
    9.3037   -8.2716    3.4103 C   0  0  0  0  0  0  0  0  0  0  0  0
    8.4925   -8.1641    2.0864 C   0  0  0  0  0  0  0  0  0  0  0  0
    9.0019   -7.1258    1.3024 O   0  0  0  0  0  0  0  0  0  0  0  0
    5.0692   -3.4723    2.2393 C   0  0  0  0  0  0  0  0  0  0  0  0
    3.7696   -1.8707    4.3909 N   0  0  0  0  0  0  0  0  0  0  0  0
    1.5173   -1.7516    6.6668 H   0  0  0  0  0  0  0  0  0  0  0  0
    2.6896   -0.4731    7.0425 H   0  0  0  0  0  0  0  0  0  0  0  0
    3.2427   -2.1611    6.8849 H   0  0  0  0  0  0  0  0  0  0  0  0
    1.2809    0.3088    4.3210 H   0  0  0  0  0  0  0  0  0  0  0  0
    1.6220    0.7940    1.6480 H   0  0  0  0  0  0  0  0  0  0  0  0
    2.1819   -0.6560    0.7908 H   0  0  0  0  0  0  0  0  0  0  0  0
    3.3265    0.6522    1.1713 H   0  0  0  0  0  0  0  0  0  0  0  0
    4.3605   -1.6809    1.1562 H   0  0  0  0  0  0  0  0  0  0  0  0
    6.4385   -1.3114    3.4023 H   0  0  0  0  0  0  0  0  0  0  0  0
    6.6780   -0.9690    1.6456 H   0  0  0  0  0  0  0  0  0  0  0  0
    7.0287   -5.4978    1.0601 H   0  0  0  0  0  0  0  0  0  0  0  0
    6.9853   -5.6168    2.8329 H   0  0  0  0  0  0  0  0  0  0  0  0
    9.5808   -5.1947    1.2533 H   0  0  0  0  0  0  0  0  0  0  0  0
    9.5464   -4.9582    3.8488 H   0  0  0  0  0  0  0  0  0  0  0  0
   10.7857   -6.0100    3.0703 H   0  0  0  0  0  0  0  0  0  0  0  0
    9.4313   -7.3918    6.0768 H   0  0  0  0  0  0  0  0  0  0  0  0
    7.7934   -7.5408    5.4211 H   0  0  0  0  0  0  0  0  0  0  0  0
    6.2638   -5.5073    5.2320 H   0  0  0  0  0  0  0  0  0  0  0  0
    5.8085   -3.1853    5.8912 H   0  0  0  0  0  0  0  0  0  0  0  0
    7.5492   -1.8042    7.0704 H   0  0  0  0  0  0  0  0  0  0  0  0
    9.7764   -2.8763    7.6530 H   0  0  0  0  0  0  0  0  0  0  0  0
   10.2839   -5.1672    6.9497 H   0  0  0  0  0  0  0  0  0  0  0  0
    8.8872   -9.0448    4.0729 H   0  0  0  0  0  0  0  0  0  0  0  0
   10.3430   -8.5330    3.1457 H   0  0  0  0  0  0  0  0  0  0  0  0
    7.4239   -8.0244    2.3309 H   0  0  0  0  0  0  0  0  0  0  0  0
    8.6026   -9.0983    1.5175 H   0  0  0  0  0  0  0  0  0  0  0  0
    4.7938   -3.9241    3.2053 H   0  0  0  0  0  0  0  0  0  0  0  0
    4.7199   -4.1037    1.4049 H   0  0  0  0  0  0  0  0  0  0  0  0
  1  2  1  0
  1 28  1  0
  1 29  1  0
  1 30  1  0
  2  3  1  0
  2 27  2  0
  3  4  2  0
  3 31  1  0
  4  5  1  0
  4  6  1  0
  5 32  1  0
  5 33  1  0
  5 34  1  0
  6  7  1  0
  6 27  1  0
  7  8  1  0
  7 26  1  0
  7 35  1  6
  8  9  1  0
  8 36  1  0
  8 37  1  0
  9 10  1  0
  9 26  1  0
 10 11  2  0
 10 12  1  0
 12 13  1  0
 12 38  1  0
 12 39  1  0
 13 14  1  0
 13 25  1  0
 13 40  1  6
 14 15  1  0
 14 41  1  0
 14 42  1  0
 15 16  1  0
 15 23  1  0
 16 17  1  0
 16 43  1  0
 16 44  1  0
 17 18  2  0
 17 22  1  0
 18 19  1  0
 18 45  1  0
 19 20  2  0
 19 46  1  0
 20 21  1  0
 20 47  1  0
 21 22  2  0
 21 48  1  0
 22 49  1  0
 23 24  1  0
 23 50  1  0
 23 51  1  0
 24 25  1  0
 24 52  1  0
 24 53  1  0
 26 54  1  0
 26 55  1  0
M  END

