
     RDKit          3D

 26 27  0  0  0  0  0  0  0  0999 V2000
    2.9075    1.0666   -1.6535 C   0  0  0  0  0  0  0  0  0  0  0  0
    2.5333    0.3326   -0.3685 C   0  0  0  0  0  0  0  0  0  0  0  0
    3.0972    1.0120    0.9055 C   0  0  1  0  0  0  0  0  0  0  0  0
    2.5656    0.3903    2.1342 C   0  0  0  0  0  0  0  0  0  0  0  0
    2.1063   -0.0932    3.0807 N   0  0  0  0  0  0  0  0  0  0  0  0
    4.5558    1.0585    0.9245 N   0  0  0  0  0  0  0  0  0  0  0  0
    5.2683    2.2072    0.7720 C   0  0  0  0  0  0  0  0  0  0  0  0
    6.6464    1.8469    0.7091 C   0  0  0  0  0  0  0  0  0  0  0  0
    6.7346    0.4301    0.8177 C   0  0  0  0  0  0  0  0  0  0  0  0
    7.8308   -0.4885    0.8294 C   0  0  0  0  0  0  0  0  0  0  0  0
    9.4491    0.0731    0.5178 Cl  0  0  0  0  0  0  0  0  0  0  0  0
    7.5535   -1.8791    1.0073 C   0  0  0  0  0  0  0  0  0  0  0  0
    6.2559   -2.3258    1.1670 C   0  0  0  0  0  0  0  0  0  0  0  0
    5.1184   -1.4241    1.1608 C   0  0  0  0  0  0  0  0  0  0  0  0
    5.4211   -0.0658    0.9713 C   0  0  0  0  0  0  0  0  0  0  0  0
    2.4607    0.5590   -2.5219 H   0  0  0  0  0  0  0  0  0  0  0  0
    3.9970    1.0886   -1.8079 H   0  0  0  0  0  0  0  0  0  0  0  0
    2.5423    2.1069   -1.6507 H   0  0  0  0  0  0  0  0  0  0  0  0
    2.8941   -0.7072   -0.3974 H   0  0  0  0  0  0  0  0  0  0  0  0
    1.4384    0.2911   -0.2501 H   0  0  0  0  0  0  0  0  0  0  0  0
    2.7580    2.0608    0.9154 H   0  0  0  0  0  0  0  0  0  0  0  0
    4.7858    3.1782    0.7034 H   0  0  0  0  0  0  0  0  0  0  0  0
    7.4785    2.5413    0.6103 H   0  0  0  0  0  0  0  0  0  0  0  0
    8.3877   -2.5829    1.0180 H   0  0  0  0  0  0  0  0  0  0  0  0
    6.0726   -3.3924    1.3152 H   0  0  0  0  0  0  0  0  0  0  0  0
    4.1158   -1.7894    1.3722 H   0  0  0  0  0  0  0  0  0  0  0  0
  1  2  1  0
  1 16  1  0
  1 17  1  0
  1 18  1  0
  2  3  1  0
  2 19  1  0
  2 20  1  0
  3  4  1  0
  3  6  1  0
  3 21  1  1
  4  5  3  0
  6  7  1  0
  6 15  1  0
  7  8  2  0
  7 22  1  0
  8  9  1  0
  8 23  1  0
  9 10  1  0
  9 15  2  0
 10 11  1  0
 10 12  2  0
 12 13  1  0
 12 24  1  0
 13 14  2  0
 13 25  1  0
 14 15  1  0
 14 26  1  0
M  END

