
     RDKit          3D

 25 25  0  0  0  0  0  0  0  0999 V2000
    1.6800    0.3361    0.6782 C   0  0  0  0  0  0  0  0  0  0  0  0
    3.0085    0.1083   -0.0015 C   0  0  1  0  0  0  0  0  0  0  0  0
    3.1122   -0.5842   -1.3318 C   0  0  0  0  0  0  0  0  0  0  0  0
    3.3742    0.9035   -1.2695 C   0  0  2  0  0  0  0  0  0  0  0  0
    4.7193    1.4841   -1.4862 C   0  0  0  0  0  0  0  0  0  0  0  0
    5.7600    0.7349   -1.0810 O   0  0  0  0  0  0  0  0  0  0  0  0
    4.9628    2.8572   -1.4171 N   0  0  0  0  0  0  0  0  0  0  0  0
    5.7139    3.4854   -0.3249 C   0  0  1  0  0  0  0  0  0  0  0  0
    6.4567    4.7263   -0.8178 C   0  0  0  0  0  0  0  0  0  0  0  0
    4.7981    3.8229    0.8552 C   0  0  1  0  0  0  0  0  0  0  0  0
    4.2040    2.7272    1.3565 F   0  0  0  0  0  0  0  0  0  0  0  0
    5.4710    4.4097    1.8612 F   0  0  0  0  0  0  0  0  0  0  0  0
    3.8171    4.6710    0.4784 F   0  0  0  0  0  0  0  0  0  0  0  0
    1.3801   -0.5400    1.2791 H   0  0  0  0  0  0  0  0  0  0  0  0
    0.8787    0.5214   -0.0566 H   0  0  0  0  0  0  0  0  0  0  0  0
    1.7274    1.2065    1.3527 H   0  0  0  0  0  0  0  0  0  0  0  0
    3.8546   -0.0487    0.6748 H   0  0  0  0  0  0  0  0  0  0  0  0
    2.1877   -0.9077   -1.8204 H   0  0  0  0  0  0  0  0  0  0  0  0
    3.9659   -1.2447   -1.5084 H   0  0  0  0  0  0  0  0  0  0  0  0
    2.5824    1.5559   -1.6577 H   0  0  0  0  0  0  0  0  0  0  0  0
    4.1852    3.4161   -1.7556 H   0  0  0  0  0  0  0  0  0  0  0  0
    6.4295    2.7417    0.0561 H   0  0  0  0  0  0  0  0  0  0  0  0
    5.7481    5.4812   -1.1941 H   0  0  0  0  0  0  0  0  0  0  0  0
    7.1290    4.4432   -1.6390 H   0  0  0  0  0  0  0  0  0  0  0  0
    7.0463    5.1838   -0.0106 H   0  0  0  0  0  0  0  0  0  0  0  0
  1  2  1  0
  1 14  1  0
  1 15  1  0
  1 16  1  0
  2  3  1  0
  2  4  1  0
  2 17  1  1
  3  4  1  0
  3 18  1  0
  3 19  1  0
  4  5  1  0
  4 20  1  6
  5  6  2  0
  5  7  1  0
  7  8  1  0
  7 21  1  0
  8  9  1  0
  8 10  1  0
  8 22  1  1
  9 23  1  0
  9 24  1  0
  9 25  1  0
 10 11  1  1
 10 12  1  0
 10 13  1  0
M  END

