
     RDKit          3D

 31 32  0  0  0  0  0  0  0  0999 V2000
    1.0779   -0.1147   -0.3236 C   0  0  0  0  0  0  0  0  0  0  0  0
    2.5700   -0.1092   -0.1661 C   0  0  0  0  0  0  0  0  0  0  0  0
    3.3057    1.0875   -0.3362 C   0  0  0  0  0  0  0  0  0  0  0  0
    4.7053    1.1475   -0.2143 C   0  0  0  0  0  0  0  0  0  0  0  0
    5.4402   -0.0644   -0.0352 C   0  0  0  0  0  0  0  0  0  0  0  0
    4.7122   -1.2895    0.1079 C   0  0  0  0  0  0  0  0  0  0  0  0
    3.2694   -1.3233    0.2025 C   0  0  0  0  0  0  0  0  0  0  0  0
    2.5306   -2.3856    0.9762 C   0  0  0  0  0  0  0  0  0  0  0  0
    5.4547   -2.4814    0.0508 N   0  0  0  0  0  0  0  0  0  0  0  0
    4.8832   -3.7307   -0.4568 C   0  0  0  0  0  0  0  0  0  0  0  0
    6.8317   -2.5312    0.3318 C   0  0  0  0  0  0  0  0  0  0  0  0
    7.4451   -3.5768    0.2096 O   0  0  0  0  0  0  0  0  0  0  0  0
    7.4880   -1.2197    0.7643 C   0  0  1  0  0  0  0  0  0  0  0  0
    8.9337   -1.2669    0.7581 N   0  0  0  0  0  0  0  0  0  0  0  0
    6.9324   -0.0960   -0.1203 C   0  0  0  0  0  0  0  0  0  0  0  0
    0.6991    0.8826   -0.5928 H   0  0  0  0  0  0  0  0  0  0  0  0
    0.5520   -0.4311    0.5968 H   0  0  0  0  0  0  0  0  0  0  0  0
    0.7498   -0.8216   -1.1124 H   0  0  0  0  0  0  0  0  0  0  0  0
    2.7535    2.0087   -0.5496 H   0  0  0  0  0  0  0  0  0  0  0  0
    5.2354    2.0975   -0.2966 H   0  0  0  0  0  0  0  0  0  0  0  0
    1.7634   -2.9145    0.3791 H   0  0  0  0  0  0  0  0  0  0  0  0
    1.9854   -1.9368    1.8320 H   0  0  0  0  0  0  0  0  0  0  0  0
    3.1968   -3.1467    1.4031 H   0  0  0  0  0  0  0  0  0  0  0  0
    4.7630   -4.4727    0.3476 H   0  0  0  0  0  0  0  0  0  0  0  0
    5.5824   -4.1592   -1.1886 H   0  0  0  0  0  0  0  0  0  0  0  0
    3.9198   -3.5185   -0.9283 H   0  0  0  0  0  0  0  0  0  0  0  0
    7.1463   -1.0195    1.7979 H   0  0  0  0  0  0  0  0  0  0  0  0
    9.2629   -1.5136   -0.1772 H   0  0  0  0  0  0  0  0  0  0  0  0
    9.2534   -2.0281    1.3578 H   0  0  0  0  0  0  0  0  0  0  0  0
    7.2890   -0.2545   -1.1637 H   0  0  0  0  0  0  0  0  0  0  0  0
    7.3592    0.8673    0.1984 H   0  0  0  0  0  0  0  0  0  0  0  0
  1  2  1  0
  1 16  1  0
  1 17  1  0
  1 18  1  0
  2  3  2  0
  2  7  1  0
  3  4  1  0
  3 19  1  0
  4  5  2  0
  4 20  1  0
  5  6  1  0
  5 15  1  0
  6  7  2  0
  6  9  1  0
  7  8  1  0
  8 21  1  0
  8 22  1  0
  8 23  1  0
  9 10  1  0
  9 11  1  0
 10 24  1  0
 10 25  1  0
 10 26  1  0
 11 12  2  0
 11 13  1  0
 13 14  1  0
 13 15  1  0
 13 27  1  1
 14 28  1  0
 14 29  1  0
 15 30  1  0
 15 31  1  0
M  END

