
     RDKit          3D

 59 63  0  0  0  0  0  0  0  0999 V2000
    1.4384   -0.0663    1.3002 C   0  0  0  0  0  0  0  0  0  0  0  0
    2.2129    0.3736    0.1482 N   0  0  0  0  0  0  0  0  0  0  0  0
    3.0466    1.4172    0.1057 C   0  0  0  0  0  0  0  0  0  0  0  0
    3.6362    1.5433   -1.1919 C   0  0  0  0  0  0  0  0  0  0  0  0
    4.6238    2.5793   -1.6095 C   0  0  0  0  0  0  0  0  0  0  0  0
    4.9065    3.6541   -0.5571 C   0  0  0  0  0  0  0  0  0  0  0  0
    5.9313    4.6963   -0.9970 C   0  0  0  0  0  0  0  0  0  0  0  0
    6.1223    5.7444    0.1187 C   0  0  0  0  0  0  0  0  0  0  0  0
    5.3764    5.7028    1.0939 O   0  0  0  0  0  0  0  0  0  0  0  0
    7.1184    6.6519   -0.0309 N   0  0  0  0  0  0  0  0  0  0  0  0
    7.9567    6.8229   -1.2194 C   0  0  0  0  0  0  0  0  0  0  0  0
    7.7922    8.2366   -1.7944 C   0  0  0  0  0  0  0  0  0  0  0  0
    8.0887    9.2977   -0.7278 C   0  0  0  0  0  0  0  0  0  0  0  0
    7.2592    9.0461    0.5381 C   0  0  0  0  0  0  0  0  0  0  0  0
    7.4135    7.6096    1.0750 C   0  0  2  0  0  0  0  0  0  0  0  0
    8.7472    7.3266    1.6985 C   0  0  0  0  0  0  0  0  0  0  0  0
    9.9291    7.6879    1.3046 N   0  0  0  0  0  0  0  0  0  0  0  0
   10.8542    7.1259    2.1374 N   0  0  0  0  0  0  0  0  0  0  0  0
   10.1676    6.4075    3.0428 C   0  0  0  0  0  0  0  0  0  0  0  0
   10.6232    5.6345    4.1303 C   0  0  0  0  0  0  0  0  0  0  0  0
    9.7436    4.9314    5.0289 C   0  0  0  0  0  0  0  0  0  0  0  0
   10.2964    4.1989    6.0652 C   0  0  0  0  0  0  0  0  0  0  0  0
   11.6929    4.1456    6.2296 C   0  0  0  0  0  0  0  0  0  0  0  0
   12.5407    4.8046    5.3938 N   0  0  0  0  0  0  0  0  0  0  0  0
   12.0315    5.5075    4.4061 C   0  0  0  0  0  0  0  0  0  0  0  0
    8.7956    6.5032    2.7887 O   0  0  0  0  0  0  0  0  0  0  0  0
    3.0847    0.4715   -1.9635 C   0  0  0  0  0  0  0  0  0  0  0  0
    3.2607    0.0568   -3.2964 C   0  0  0  0  0  0  0  0  0  0  0  0
    2.5535   -1.0637   -3.7485 C   0  0  0  0  0  0  0  0  0  0  0  0
    1.6896   -1.7569   -2.8942 C   0  0  0  0  0  0  0  0  0  0  0  0
    1.4958   -1.3588   -1.5511 C   0  0  0  0  0  0  0  0  0  0  0  0
    2.2003   -0.2516   -1.1197 C   0  0  0  0  0  0  0  0  0  0  0  0
    1.6436    0.5971    2.1480 H   0  0  0  0  0  0  0  0  0  0  0  0
    1.7193   -1.0949    1.5682 H   0  0  0  0  0  0  0  0  0  0  0  0
    0.3651   -0.0331    1.0637 H   0  0  0  0  0  0  0  0  0  0  0  0
    3.2119    2.0479    0.9760 H   0  0  0  0  0  0  0  0  0  0  0  0
    4.2652    3.0298   -2.5532 H   0  0  0  0  0  0  0  0  0  0  0  0
    5.5548    2.0513   -1.8913 H   0  0  0  0  0  0  0  0  0  0  0  0
    5.2693    3.1861    0.3716 H   0  0  0  0  0  0  0  0  0  0  0  0
    3.9764    4.1736   -0.2803 H   0  0  0  0  0  0  0  0  0  0  0  0
    5.6014    5.1939   -1.9260 H   0  0  0  0  0  0  0  0  0  0  0  0
    6.8940    4.2127   -1.2310 H   0  0  0  0  0  0  0  0  0  0  0  0
    7.7038    6.0689   -1.9740 H   0  0  0  0  0  0  0  0  0  0  0  0
    9.0093    6.6685   -0.9297 H   0  0  0  0  0  0  0  0  0  0  0  0
    6.7588    8.3528   -2.1721 H   0  0  0  0  0  0  0  0  0  0  0  0
    8.4680    8.3540   -2.6585 H   0  0  0  0  0  0  0  0  0  0  0  0
    7.8777   10.3050   -1.1247 H   0  0  0  0  0  0  0  0  0  0  0  0
    9.1555    9.2563   -0.4608 H   0  0  0  0  0  0  0  0  0  0  0  0
    6.1884    9.2104    0.3195 H   0  0  0  0  0  0  0  0  0  0  0  0
    7.5427    9.7540    1.3317 H   0  0  0  0  0  0  0  0  0  0  0  0
    6.6486    7.4179    1.8354 H   0  0  0  0  0  0  0  0  0  0  0  0
    8.6631    4.9906    4.8884 H   0  0  0  0  0  0  0  0  0  0  0  0
    9.6491    3.6602    6.7649 H   0  0  0  0  0  0  0  0  0  0  0  0
   12.1457    3.5715    7.0438 H   0  0  0  0  0  0  0  0  0  0  0  0
   12.7311    6.0342    3.7458 H   0  0  0  0  0  0  0  0  0  0  0  0
    3.9345    0.5961   -3.9639 H   0  0  0  0  0  0  0  0  0  0  0  0
    2.6771   -1.4015   -4.7781 H   0  0  0  0  0  0  0  0  0  0  0  0
    1.1487   -2.6280   -3.2676 H   0  0  0  0  0  0  0  0  0  0  0  0
    0.8183   -1.9126   -0.9003 H   0  0  0  0  0  0  0  0  0  0  0  0
  1  2  1  0
  1 33  1  0
  1 34  1  0
  1 35  1  0
  2  3  1  0
  2 32  1  0
  3  4  2  0
  3 36  1  0
  4  5  1  0
  4 27  1  0
  5  6  1  0
  5 37  1  0
  5 38  1  0
  6  7  1  0
  6 39  1  0
  6 40  1  0
  7  8  1  0
  7 41  1  0
  7 42  1  0
  8  9  2  0
  8 10  1  0
 10 11  1  0
 10 15  1  0
 11 12  1  0
 11 43  1  0
 11 44  1  0
 12 13  1  0
 12 45  1  0
 12 46  1  0
 13 14  1  0
 13 47  1  0
 13 48  1  0
 14 15  1  0
 14 49  1  0
 14 50  1  0
 15 16  1  0
 15 51  1  1
 16 17  2  0
 16 26  1  0
 17 18  1  0
 18 19  2  0
 19 20  1  0
 19 26  1  0
 20 21  2  0
 20 25  1  0
 21 22  1  0
 21 52  1  0
 22 23  2  0
 22 53  1  0
 23 24  1  0
 23 54  1  0
 24 25  2  0
 25 55  1  0
 27 28  1  0
 27 32  2  0
 28 29  2  0
 28 56  1  0
 29 30  1  0
 29 57  1  0
 30 31  2  0
 30 58  1  0
 31 32  1  0
 31 59  1  0
M  END

