
     RDKit          3D

 89 92  0  0  0  0  0  0  0  0999 V2000
    1.3525   -7.0055   -3.1634 C   0  0  0  0  0  0  0  0  0  0  0  0
    2.8135   -7.3715   -3.4478 C   0  0  1  0  0  0  0  0  0  0  0  0
    3.6507   -7.4353   -2.1656 C   0  0  0  0  0  0  0  0  0  0  0  0
    2.8989   -8.6931   -4.2149 C   0  0  0  0  0  0  0  0  0  0  0  0
    3.4007   -6.4138   -4.3840 O   0  0  0  0  0  0  0  0  0  0  0  0
    3.5189   -5.0992   -4.0883 C   0  0  0  0  0  0  0  0  0  0  0  0
    3.1645   -4.5679   -3.0531 O   0  0  0  0  0  0  0  0  0  0  0  0
    4.1096   -4.4524   -5.1359 N   0  0  0  0  0  0  0  0  0  0  0  0
    4.3715   -3.0325   -5.1342 C   0  0  0  0  0  0  0  0  0  0  0  0
    3.2661   -2.2081   -5.8496 C   0  0  2  0  0  0  0  0  0  0  0  0
    2.3794   -2.2116   -5.2008 H   0  0  0  0  0  0  0  0  0  0  0  0
    2.9110   -2.7004   -7.2639 C   0  0  0  0  0  0  0  0  0  0  0  0
    3.8124   -1.8999   -8.2181 C   0  0  2  0  0  0  0  0  0  0  0  0
    3.3671   -1.8506   -9.2266 H   0  0  0  0  0  0  0  0  0  0  0  0
    5.1987   -2.3581   -8.3277 N   0  0  0  0  0  0  0  0  0  0  0  0
    5.6944   -3.6147   -8.2269 C   0  0  0  0  0  0  0  0  0  0  0  0
    5.0331   -4.6299   -8.0283 O   0  0  0  0  0  0  0  0  0  0  0  0
    7.2467   -3.6612   -8.3462 C   0  0  2  0  0  0  0  0  0  0  0  0
    7.5293   -3.0609   -9.2277 H   0  0  0  0  0  0  0  0  0  0  0  0
    7.7648   -5.0914   -8.5052 C   0  0  0  0  0  0  0  0  0  0  0  0
    7.4019   -5.7379   -9.8538 C   0  0  0  0  0  0  0  0  0  0  0  0
    7.8936   -7.1651   -9.9648 C   0  0  0  0  0  0  0  0  0  0  0  0
    7.1352   -8.2219   -9.4340 C   0  0  0  0  0  0  0  0  0  0  0  0
    7.5964   -9.5392   -9.4987 C   0  0  0  0  0  0  0  0  0  0  0  0
    8.8278   -9.8243  -10.0976 C   0  0  0  0  0  0  0  0  0  0  0  0
    9.5918   -8.7826  -10.6312 C   0  0  0  0  0  0  0  0  0  0  0  0
    9.1267   -7.4657  -10.5638 C   0  0  0  0  0  0  0  0  0  0  0  0
    7.8644   -3.0255   -7.1839 N   0  0  0  0  0  0  0  0  0  0  0  0
    8.0525   -1.6774   -7.0882 C   0  0  0  0  0  0  0  0  0  0  0  0
    7.6152   -0.8797   -7.9106 O   0  0  0  0  0  0  0  0  0  0  0  0
    8.7596   -1.3781   -5.9952 O   0  0  0  0  0  0  0  0  0  0  0  0
    9.0353    0.0090   -5.5740 C   0  0  1  0  0  0  0  0  0  0  0  0
    7.7201    0.7272   -5.2640 C   0  0  0  0  0  0  0  0  0  0  0  0
    9.8606   -0.1887   -4.3022 C   0  0  0  0  0  0  0  0  0  0  0  0
    9.8540    0.7264   -6.6507 C   0  0  0  0  0  0  0  0  0  0  0  0
    3.7840   -0.5174   -7.5552 C   0  0  0  0  0  0  0  0  0  0  0  0
    3.6942   -0.8136   -6.1158 N   0  0  0  0  0  0  0  0  0  0  0  0
    3.7702    0.2074   -5.2204 C   0  0  0  0  0  0  0  0  0  0  0  0
    4.1460    1.3582   -5.7994 O   0  0  0  0  0  0  0  0  0  0  0  0
    3.5115    0.1945   -3.8523 C   0  0  0  0  0  0  0  0  0  0  0  0
    3.5963    1.2308   -2.8921 C   0  0  0  0  0  0  0  0  0  0  0  0
    3.2367    0.6515   -1.6477 C   0  0  0  0  0  0  0  0  0  0  0  0
    3.1156    1.1056   -0.3123 C   0  0  0  0  0  0  0  0  0  0  0  0
    2.7374    0.1919    0.6728 C   0  0  0  0  0  0  0  0  0  0  0  0
    2.4816   -1.1591    0.3713 C   0  0  0  0  0  0  0  0  0  0  0  0
    2.5926   -1.6406   -0.9450 C   0  0  0  0  0  0  0  0  0  0  0  0
    2.9577   -0.7184   -1.9122 C   0  0  0  0  0  0  0  0  0  0  0  0
    3.1138   -0.9895   -3.2409 O   0  0  0  0  0  0  0  0  0  0  0  0
    0.8844   -7.7913   -2.5499 H   0  0  0  0  0  0  0  0  0  0  0  0
    0.7874   -6.9270   -4.1056 H   0  0  0  0  0  0  0  0  0  0  0  0
    1.2822   -6.0504   -2.6279 H   0  0  0  0  0  0  0  0  0  0  0  0
    3.2692   -8.2336   -1.5097 H   0  0  0  0  0  0  0  0  0  0  0  0
    3.6123   -6.4824   -1.6231 H   0  0  0  0  0  0  0  0  0  0  0  0
    4.7008   -7.6644   -2.4064 H   0  0  0  0  0  0  0  0  0  0  0  0
    2.4813   -9.5135   -3.6116 H   0  0  0  0  0  0  0  0  0  0  0  0
    3.9456   -8.9336   -4.4558 H   0  0  0  0  0  0  0  0  0  0  0  0
    2.3350   -8.6305   -5.1581 H   0  0  0  0  0  0  0  0  0  0  0  0
    4.3445   -4.9893   -5.9667 H   0  0  0  0  0  0  0  0  0  0  0  0
    5.3421   -2.8427   -5.6150 H   0  0  0  0  0  0  0  0  0  0  0  0
    4.4319   -2.6954   -4.0928 H   0  0  0  0  0  0  0  0  0  0  0  0
    1.8685   -2.4312   -7.4952 H   0  0  0  0  0  0  0  0  0  0  0  0
    3.0180   -3.7821   -7.3810 H   0  0  0  0  0  0  0  0  0  0  0  0
    5.9062   -1.6261   -8.4429 H   0  0  0  0  0  0  0  0  0  0  0  0
    7.3579   -5.7092   -7.6883 H   0  0  0  0  0  0  0  0  0  0  0  0
    8.8614   -5.0734   -8.3927 H   0  0  0  0  0  0  0  0  0  0  0  0
    7.8314   -5.1336  -10.6712 H   0  0  0  0  0  0  0  0  0  0  0  0
    6.3082   -5.7177   -9.9725 H   0  0  0  0  0  0  0  0  0  0  0  0
    6.1691   -8.0054   -8.9682 H   0  0  0  0  0  0  0  0  0  0  0  0
    6.9893  -10.3481   -9.0835 H   0  0  0  0  0  0  0  0  0  0  0  0
    9.1881  -10.8548  -10.1518 H   0  0  0  0  0  0  0  0  0  0  0  0
   10.5532   -8.9958  -11.1062 H   0  0  0  0  0  0  0  0  0  0  0  0
    9.7293   -6.6574  -10.9896 H   0  0  0  0  0  0  0  0  0  0  0  0
    8.2273   -3.6067   -6.4366 H   0  0  0  0  0  0  0  0  0  0  0  0
    7.1391    0.1689   -4.5140 H   0  0  0  0  0  0  0  0  0  0  0  0
    7.1039    0.8591   -6.1618 H   0  0  0  0  0  0  0  0  0  0  0  0
    7.9349    1.7235   -4.8478 H   0  0  0  0  0  0  0  0  0  0  0  0
    9.2855   -0.7481   -3.5493 H   0  0  0  0  0  0  0  0  0  0  0  0
   10.1361    0.7868   -3.8745 H   0  0  0  0  0  0  0  0  0  0  0  0
   10.7833   -0.7476   -4.5201 H   0  0  0  0  0  0  0  0  0  0  0  0
    9.2721    0.8568   -7.5715 H   0  0  0  0  0  0  0  0  0  0  0  0
   10.7667    0.1559   -6.8843 H   0  0  0  0  0  0  0  0  0  0  0  0
   10.1582    1.7177   -6.2804 H   0  0  0  0  0  0  0  0  0  0  0  0
    2.8985    0.0494   -7.8962 H   0  0  0  0  0  0  0  0  0  0  0  0
    4.6756    0.0890   -7.7803 H   0  0  0  0  0  0  0  0  0  0  0  0
    3.8785    2.2621   -3.0878 H   0  0  0  0  0  0  0  0  0  0  0  0
    3.3165    2.1492   -0.0595 H   0  0  0  0  0  0  0  0  0  0  0  0
    2.6408    0.5324    1.7074 H   0  0  0  0  0  0  0  0  0  0  0  0
    2.1959   -1.8461    1.1713 H   0  0  0  0  0  0  0  0  0  0  0  0
    2.4227   -2.6843   -1.2145 H   0  0  0  0  0  0  0  0  0  0  0  0
  1  2  1  0
  1 49  1  0
  1 50  1  0
  1 51  1  0
  2  3  1  0
  2  4  1  0
  2  5  1  6
  3 52  1  0
  3 53  1  0
  3 54  1  0
  4 55  1  0
  4 56  1  0
  4 57  1  0
  5  6  1  0
  6  7  2  0
  6  8  1  0
  8  9  1  0
  8 58  1  0
  9 10  1  0
  9 59  1  0
  9 60  1  0
 10 11  1  1
 10 12  1  0
 10 37  1  0
 12 13  1  0
 12 61  1  0
 12 62  1  0
 13 14  1  6
 13 15  1  0
 13 36  1  0
 15 16  1  0
 15 63  1  0
 16 17  2  0
 16 18  1  0
 18 19  1  6
 18 20  1  0
 18 28  1  0
 20 21  1  0
 20 64  1  0
 20 65  1  0
 21 22  1  0
 21 66  1  0
 21 67  1  0
 22 23  2  0
 22 27  1  0
 23 24  1  0
 23 68  1  0
 24 25  2  0
 24 69  1  0
 25 26  1  0
 25 70  1  0
 26 27  2  0
 26 71  1  0
 27 72  1  0
 28 29  1  0
 28 73  1  0
 29 30  2  0
 29 31  1  0
 32 31  1  6
 32 33  1  0
 32 34  1  0
 32 35  1  0
 33 74  1  0
 33 75  1  0
 33 76  1  0
 34 77  1  0
 34 78  1  0
 34 79  1  0
 35 80  1  0
 35 81  1  0
 35 82  1  0
 36 37  1  0
 36 83  1  0
 36 84  1  0
 37 38  1  0
 38 39  2  0
 38 40  1  0
 40 41  2  0
 40 48  1  0
 41 42  1  0
 41 85  1  0
 42 43  2  0
 42 47  1  0
 43 44  1  0
 43 86  1  0
 44 45  2  0
 44 87  1  0
 45 46  1  0
 45 88  1  0
 46 47  2  0
 46 89  1  0
 47 48  1  0
M  END

