
     RDKit          3D

103108  0  0  0  0  0  0  0  0999 V2000
    7.2329   -0.1911   -5.2512 C   0  0  0  0  0  0  0  0  0  0  0  0
    6.3256    0.6236   -4.3616 C   0  0  0  0  0  0  0  0  0  0  0  0
    5.4317    1.3361   -4.7455 O   0  0  0  0  0  0  0  0  0  0  0  0
    6.6553    0.4518   -3.0609 O   0  0  0  0  0  0  0  0  0  0  0  0
    5.9459    1.2002   -2.0534 C   0  0  1  0  0  0  0  0  0  0  0  0
    4.9640    0.3105   -1.2787 C   0  0  1  0  0  0  0  0  0  0  0  0
    4.1440   -0.6325   -2.1723 C   0  0  0  0  0  0  0  0  0  0  0  0
    3.1472   -1.5218   -1.3785 C   0  0  2  0  0  0  0  0  0  0  0  0
    1.9269   -0.7139   -0.9071 C   0  0  0  0  0  0  0  0  0  0  0  0
    4.0073   -2.2186   -0.2972 C   0  0  1  0  0  0  0  0  0  0  0  0
    4.7961   -1.2012    0.5108 C   0  0  2  0  0  0  0  0  0  0  0  0
    5.6707   -0.4236   -0.2681 O   0  0  0  0  0  0  0  0  0  0  0  0
    5.5127   -2.0417    1.5588 C   0  0  0  0  0  0  0  0  0  0  0  0
    6.4602   -1.6621    2.2036 O   0  0  0  0  0  0  0  0  0  0  0  0
    4.8289   -3.4277    1.6679 C   0  0  2  0  0  0  0  0  0  0  0  0
    4.5901   -3.7122    3.1621 C   0  0  0  0  0  0  0  0  0  0  0  0
    5.8404   -4.4648    1.0213 C   0  0  1  0  0  0  0  0  0  0  0  0
    7.0896   -4.7107    1.8814 C   0  0  0  0  0  0  0  0  0  0  0  0
    8.0250   -5.7193    1.2164 C   0  0  0  0  0  0  0  0  0  0  0  0
    7.4353   -7.1422    1.1496 C   0  0  1  0  0  0  0  0  0  0  0  0
    7.5961   -8.0350    2.4672 C   0  0  1  0  0  0  0  0  0  0  0  0
    8.1860   -9.4086    2.0602 C   0  0  0  0  0  0  0  0  0  0  0  0
    8.5683   -7.4358    3.5015 C   0  0  0  0  0  0  0  0  0  0  0  0
    6.2406   -8.3162    3.1680 C   0  0  1  0  0  0  0  0  0  0  0  0
    5.7337   -7.1106    3.7767 O   0  0  0  0  0  0  0  0  0  0  0  0
    5.3501   -7.1382    5.1192 C   0  0  1  0  0  0  0  0  0  0  0  0
    6.2361   -6.1871    5.9296 C   0  0  0  0  0  0  0  0  0  0  0  0
    6.7693   -6.5094    6.9588 O   0  0  0  0  0  0  0  0  0  0  0  0
    4.0436   -6.6497    5.2945 O   0  0  0  0  0  0  0  0  0  0  0  0
    2.9929   -7.5902    5.2305 C   0  0  0  0  0  0  0  0  0  0  0  0
    2.7007   -8.3036    6.5467 C   0  0  0  0  0  0  0  0  0  0  0  0
    2.0155   -9.3054    6.5597 O   0  0  0  0  0  0  0  0  0  0  0  0
    3.2062   -7.7134    7.8507 C   0  0  0  0  0  0  0  0  0  0  0  0
    2.7478   -8.4425    8.9413 O   0  0  0  0  0  0  0  0  0  0  0  0
    5.1806   -8.9253    2.2341 C   0  0  0  0  0  0  0  0  0  0  0  0
    5.2928   -8.4576    0.7738 C   0  0  0  0  0  0  0  0  0  0  0  0
    5.9896   -7.1130    0.6057 C   0  0  2  0  0  0  0  0  0  0  0  0
    5.7382   -6.4106   -0.7057 C   0  0  0  0  0  0  0  0  0  0  0  0
    5.1807   -5.8044    0.5680 C   0  0  2  0  0  0  0  0  0  0  0  0
    3.6673   -5.8271    0.7218 C   0  0  0  0  0  0  0  0  0  0  0  0
    3.0726   -4.5785    0.0726 C   0  0  0  0  0  0  0  0  0  0  0  0
    3.5112   -3.2566    0.7620 C   0  0  2  0  0  0  0  0  0  0  0  0
    2.3290   -2.7505    1.6126 C   0  0  0  0  0  0  0  0  0  0  0  0
    6.9910    1.9495   -1.1528 C   0  0  1  0  0  0  0  0  0  0  0  0
    8.2593    1.1164   -0.9084 C   0  0  0  0  0  0  0  0  0  0  0  0
    7.3474    3.2868   -1.8056 C   0  0  0  0  0  0  0  0  0  0  0  0
    6.3695    2.2724    0.0861 O   0  0  0  0  0  0  0  0  0  0  0  0
    6.8990   -0.1089   -6.2924 H   0  0  0  0  0  0  0  0  0  0  0  0
    7.2360   -1.2438   -4.9314 H   0  0  0  0  0  0  0  0  0  0  0  0
    8.2668    0.1773   -5.1616 H   0  0  0  0  0  0  0  0  0  0  0  0
    5.3271    1.9439   -2.5751 H   0  0  0  0  0  0  0  0  0  0  0  0
    4.2834    1.0138   -0.7631 H   0  0  0  0  0  0  0  0  0  0  0  0
    4.8517   -1.2814   -2.7123 H   0  0  0  0  0  0  0  0  0  0  0  0
    3.6112   -0.0354   -2.9288 H   0  0  0  0  0  0  0  0  0  0  0  0
    2.7777   -2.2913   -2.0787 H   0  0  0  0  0  0  0  0  0  0  0  0
    2.1555   -0.0297   -0.0754 H   0  0  0  0  0  0  0  0  0  0  0  0
    1.1026   -1.3628   -0.5823 H   0  0  0  0  0  0  0  0  0  0  0  0
    1.5437   -0.0986   -1.7370 H   0  0  0  0  0  0  0  0  0  0  0  0
    4.7726   -2.7631   -0.8773 H   0  0  0  0  0  0  0  0  0  0  0  0
    4.1038   -0.5344    1.0712 H   0  0  0  0  0  0  0  0  0  0  0  0
    5.5335   -3.5739    3.7070 H   0  0  0  0  0  0  0  0  0  0  0  0
    4.2331   -4.7313    3.3578 H   0  0  0  0  0  0  0  0  0  0  0  0
    3.8739   -3.0056    3.6021 H   0  0  0  0  0  0  0  0  0  0  0  0
    6.2051   -3.9832    0.0972 H   0  0  0  0  0  0  0  0  0  0  0  0
    6.7886   -5.1027    2.8613 H   0  0  0  0  0  0  0  0  0  0  0  0
    7.6125   -3.7598    2.0554 H   0  0  0  0  0  0  0  0  0  0  0  0
    8.9992   -5.7300    1.7231 H   0  0  0  0  0  0  0  0  0  0  0  0
    8.2471   -5.3843    0.1881 H   0  0  0  0  0  0  0  0  0  0  0  0
    8.0223   -7.6774    0.3828 H   0  0  0  0  0  0  0  0  0  0  0  0
    9.1866   -9.2715    1.6215 H   0  0  0  0  0  0  0  0  0  0  0  0
    7.5735   -9.9359    1.3150 H   0  0  0  0  0  0  0  0  0  0  0  0
    8.2973  -10.0706    2.9350 H   0  0  0  0  0  0  0  0  0  0  0  0
    9.5851   -7.3512    3.0899 H   0  0  0  0  0  0  0  0  0  0  0  0
    8.6318   -8.0930    4.3846 H   0  0  0  0  0  0  0  0  0  0  0  0
    8.2641   -6.4409    3.8496 H   0  0  0  0  0  0  0  0  0  0  0  0
    6.4440   -9.0309    3.9851 H   0  0  0  0  0  0  0  0  0  0  0  0
    5.4602   -8.1570    5.5397 H   0  0  0  0  0  0  0  0  0  0  0  0
    6.3438   -5.1662    5.4859 H   0  0  0  0  0  0  0  0  0  0  0  0
    3.1444   -8.3504    4.4456 H   0  0  0  0  0  0  0  0  0  0  0  0
    2.0779   -7.0341    4.9627 H   0  0  0  0  0  0  0  0  0  0  0  0
    2.8798   -6.6519    7.8856 H   0  0  0  0  0  0  0  0  0  0  0  0
    4.3147   -7.6729    7.8184 H   0  0  0  0  0  0  0  0  0  0  0  0
    2.2126   -9.1668    8.5700 H   0  0  0  0  0  0  0  0  0  0  0  0
    4.1926   -8.6672    2.6434 H   0  0  0  0  0  0  0  0  0  0  0  0
    5.2497  -10.0241    2.2777 H   0  0  0  0  0  0  0  0  0  0  0  0
    4.2986   -8.4530    0.3075 H   0  0  0  0  0  0  0  0  0  0  0  0
    5.8780   -9.1921    0.1935 H   0  0  0  0  0  0  0  0  0  0  0  0
    5.0394   -6.8861   -1.4028 H   0  0  0  0  0  0  0  0  0  0  0  0
    6.5706   -5.9007   -1.2005 H   0  0  0  0  0  0  0  0  0  0  0  0
    3.3818   -5.8827    1.7851 H   0  0  0  0  0  0  0  0  0  0  0  0
    3.2425   -6.7186    0.2389 H   0  0  0  0  0  0  0  0  0  0  0  0
    1.9726   -4.6441    0.0656 H   0  0  0  0  0  0  0  0  0  0  0  0
    3.3818   -4.5720   -0.9865 H   0  0  0  0  0  0  0  0  0  0  0  0
    1.4423   -2.5925    0.9860 H   0  0  0  0  0  0  0  0  0  0  0  0
    2.5347   -1.8078    2.1427 H   0  0  0  0  0  0  0  0  0  0  0  0
    2.0537   -3.4986    2.3706 H   0  0  0  0  0  0  0  0  0  0  0  0
    8.8077    0.9295   -1.8420 H   0  0  0  0  0  0  0  0  0  0  0  0
    8.0129    0.1474   -0.4530 H   0  0  0  0  0  0  0  0  0  0  0  0
    8.9140    1.6734   -0.2204 H   0  0  0  0  0  0  0  0  0  0  0  0
    7.7378    3.1404   -2.8244 H   0  0  0  0  0  0  0  0  0  0  0  0
    8.1107    3.8078   -1.2083 H   0  0  0  0  0  0  0  0  0  0  0  0
    6.4563    3.9308   -1.8605 H   0  0  0  0  0  0  0  0  0  0  0  0
    6.3051    1.4400    0.5806 H   0  0  0  0  0  0  0  0  0  0  0  0
  1  2  1  0
  1 48  1  0
  1 49  1  0
  1 50  1  0
  2  3  2  0
  2  4  1  0
  4  5  1  0
  5  6  1  0
  5 44  1  0
  5 51  1  6
  6  7  1  0
  6 12  1  0
  6 52  1  1
  7  8  1  0
  7 53  1  0
  7 54  1  0
  8  9  1  0
  8 10  1  0
  8 55  1  6
  9 56  1  0
  9 57  1  0
  9 58  1  0
 10 11  1  0
 10 42  1  0
 10 59  1  6
 11 12  1  0
 11 13  1  0
 11 60  1  1
 13 14  2  0
 13 15  1  0
 15 16  1  1
 15 17  1  0
 15 42  1  0
 16 61  1  0
 16 62  1  0
 16 63  1  0
 17 18  1  0
 17 39  1  0
 17 64  1  6
 18 19  1  0
 18 65  1  0
 18 66  1  0
 19 20  1  0
 19 67  1  0
 19 68  1  0
 20 21  1  0
 20 37  1  0
 20 69  1  6
 21 22  1  6
 21 23  1  0
 21 24  1  0
 22 70  1  0
 22 71  1  0
 22 72  1  0
 23 73  1  0
 23 74  1  0
 23 75  1  0
 24 25  1  0
 24 35  1  0
 24 76  1  1
 25 26  1  0
 26 27  1  0
 26 29  1  0
 26 77  1  1
 27 28  2  0
 27 78  1  0
 29 30  1  0
 30 31  1  0
 30 79  1  0
 30 80  1  0
 31 32  2  0
 31 33  1  0
 33 34  1  0
 33 81  1  0
 33 82  1  0
 34 83  1  0
 35 36  1  0
 35 84  1  0
 35 85  1  0
 37 36  1  6
 36 86  1  0
 36 87  1  0
 37 38  1  0
 37 39  1  0
 39 38  1  6
 38 88  1  0
 38 89  1  0
 39 40  1  0
 40 41  1  0
 40 90  1  0
 40 91  1  0
 41 42  1  0
 41 92  1  0
 41 93  1  0
 42 43  1  1
 43 94  1  0
 43 95  1  0
 43 96  1  0
 44 45  1  0
 44 46  1  0
 44 47  1  1
 45 97  1  0
 45 98  1  0
 45 99  1  0
 46100  1  0
 46101  1  0
 46102  1  0
 47103  1  0
M  END

