
     RDKit          3D

 50 52  0  0  0  0  0  0  0  0999 V2000
    8.0509   -3.9218    3.8959 C   0  0  0  0  0  0  0  0  0  0  0  0
    8.2764   -3.3726    2.4878 C   0  0  0  0  0  0  0  0  0  0  0  0
    8.2495   -1.8352    2.4390 C   0  0  0  0  0  0  0  0  0  0  0  0
    8.4313   -1.2962    1.0576 C   0  0  0  0  0  0  0  0  0  0  0  0
    9.4600   -0.5584    0.7136 N   0  0  0  0  0  0  0  0  0  0  0  0
    9.2481   -0.3050   -0.6407 O   0  0  0  0  0  0  0  0  0  0  0  0
    8.1183   -0.9281   -0.9693 C   0  0  0  0  0  0  0  0  0  0  0  0
    7.5720   -0.7823   -2.3690 C   0  0  1  0  0  0  0  0  0  0  0  0
    6.6495   -0.1831   -2.2894 H   0  0  0  0  0  0  0  0  0  0  0  0
    8.5464   -0.0640   -3.3289 C   0  0  0  0  0  0  0  0  0  0  0  0
    7.1617   -2.0702   -2.8752 N   0  0  0  0  0  0  0  0  0  0  0  0
    7.9584   -3.2516   -2.8975 C   0  0  0  0  0  0  0  0  0  0  0  0
    9.1908   -3.0918   -2.4873 N   0  0  0  0  0  0  0  0  0  0  0  0
    9.9632   -4.2546   -2.5463 C   0  0  0  0  0  0  0  0  0  0  0  0
    9.3756   -5.4633   -2.9366 C   0  0  0  0  0  0  0  0  0  0  0  0
    8.0213   -5.4809   -3.3194 C   0  0  0  0  0  0  0  0  0  0  0  0
    7.3250   -6.6407   -3.6910 N   0  0  0  0  0  0  0  0  0  0  0  0
    7.6833   -7.9377   -3.3553 C   0  0  0  0  0  0  0  0  0  0  0  0
    8.7097   -8.3285   -2.8590 O   0  0  0  0  0  0  0  0  0  0  0  0
    6.6512   -8.7679   -3.6960 O   0  0  0  0  0  0  0  0  0  0  0  0
    5.4967   -7.9810   -3.9884 C   0  0  0  0  0  0  0  0  0  0  0  0
    6.0637   -6.6261   -4.4423 C   0  0  2  0  0  0  0  0  0  0  0  0
    6.2322   -6.5436   -5.9840 C   0  0  1  0  0  0  0  0  0  0  0  0
    4.8609   -6.3338   -6.6415 C   0  0  0  0  0  0  0  0  0  0  0  0
    7.2208   -5.4653   -6.4400 C   0  0  0  0  0  0  0  0  0  0  0  0
    7.2798   -4.2994   -3.3379 N   0  0  0  0  0  0  0  0  0  0  0  0
    7.5506   -1.5368    0.0255 N   0  0  0  0  0  0  0  0  0  0  0  0
    8.0759   -5.0226    3.9018 H   0  0  0  0  0  0  0  0  0  0  0  0
    7.0728   -3.6082    4.2978 H   0  0  0  0  0  0  0  0  0  0  0  0
    8.8253   -3.5669    4.5963 H   0  0  0  0  0  0  0  0  0  0  0  0
    7.5072   -3.7621    1.8003 H   0  0  0  0  0  0  0  0  0  0  0  0
    9.2450   -3.7260    2.0952 H   0  0  0  0  0  0  0  0  0  0  0  0
    9.0378   -1.4108    3.0796 H   0  0  0  0  0  0  0  0  0  0  0  0
    7.2807   -1.4731    2.8254 H   0  0  0  0  0  0  0  0  0  0  0  0
    8.7596    0.9406   -2.9374 H   0  0  0  0  0  0  0  0  0  0  0  0
    8.0921    0.0300   -4.3254 H   0  0  0  0  0  0  0  0  0  0  0  0
    9.4755   -0.6430   -3.3962 H   0  0  0  0  0  0  0  0  0  0  0  0
    6.2382   -2.1844   -3.2894 H   0  0  0  0  0  0  0  0  0  0  0  0
   11.0038   -4.1822   -2.2332 H   0  0  0  0  0  0  0  0  0  0  0  0
    9.9429   -6.3933   -2.9313 H   0  0  0  0  0  0  0  0  0  0  0  0
    4.8809   -7.8848   -3.0769 H   0  0  0  0  0  0  0  0  0  0  0  0
    4.9117   -8.4958   -4.7620 H   0  0  0  0  0  0  0  0  0  0  0  0
    5.4515   -5.7818   -4.0952 H   0  0  0  0  0  0  0  0  0  0  0  0
    6.6280   -7.5234   -6.3112 H   0  0  0  0  0  0  0  0  0  0  0  0
    4.4447   -5.3482   -6.3708 H   0  0  0  0  0  0  0  0  0  0  0  0
    4.1261   -7.0985   -6.3421 H   0  0  0  0  0  0  0  0  0  0  0  0
    4.9420   -6.3701   -7.7392 H   0  0  0  0  0  0  0  0  0  0  0  0
    6.9141   -4.4691   -6.0848 H   0  0  0  0  0  0  0  0  0  0  0  0
    7.2736   -5.4397   -7.5405 H   0  0  0  0  0  0  0  0  0  0  0  0
    8.2351   -5.6540   -6.0602 H   0  0  0  0  0  0  0  0  0  0  0  0
  1  2  1  0
  1 28  1  0
  1 29  1  0
  1 30  1  0
  2  3  1  0
  2 31  1  0
  2 32  1  0
  3  4  1  0
  3 33  1  0
  3 34  1  0
  4  5  2  0
  4 27  1  0
  5  6  1  0
  6  7  1  0
  7  8  1  0
  7 27  2  0
  8  9  1  1
  8 10  1  0
  8 11  1  0
 10 35  1  0
 10 36  1  0
 10 37  1  0
 11 12  1  0
 11 38  1  0
 12 13  2  0
 12 26  1  0
 13 14  1  0
 14 15  2  0
 14 39  1  0
 15 16  1  0
 15 40  1  0
 16 17  1  0
 16 26  2  0
 17 18  1  0
 17 22  1  0
 18 19  2  0
 18 20  1  0
 20 21  1  0
 21 22  1  0
 21 41  1  0
 21 42  1  0
 22 23  1  0
 22 43  1  1
 23 24  1  0
 23 25  1  0
 23 44  1  6
 24 45  1  0
 24 46  1  0
 24 47  1  0
 25 48  1  0
 25 49  1  0
 25 50  1  0
M  END

