
     RDKit          3D

 46 49  0  0  0  0  0  0  0  0999 V2000
    1.1503    0.1901    1.2986 F   0  0  0  0  0  0  0  0  0  0  0  0
    2.3911    0.1394    0.7908 C   0  0  0  0  0  0  0  0  0  0  0  0
    2.9045   -1.0818    0.3665 C   0  0  0  0  0  0  0  0  0  0  0  0
    4.1985   -1.1271   -0.1628 C   0  0  0  0  0  0  0  0  0  0  0  0
    4.9815    0.0310   -0.2642 C   0  0  0  0  0  0  0  0  0  0  0  0
    6.4198    0.0509   -0.7851 C   0  0  1  0  0  0  0  0  0  0  0  0
    6.9432   -1.2548   -1.3962 C   0  0  0  0  0  0  0  0  0  0  0  0
    6.3162   -1.5035   -2.6893 N   0  0  0  0  0  0  0  0  0  0  0  0
    6.5566   -2.8209   -3.2523 C   0  0  0  0  0  0  0  0  0  0  0  0
    7.9930   -3.1158   -3.6061 C   0  0  0  0  0  0  0  0  0  0  0  0
    8.9320   -3.6061   -2.8538 N   0  0  0  0  0  0  0  0  0  0  0  0
   10.0366   -3.5744   -3.6786 C   0  0  0  0  0  0  0  0  0  0  0  0
   11.3687   -4.0395   -3.2614 C   0  0  0  0  0  0  0  0  0  0  0  0
   12.4639   -3.9753   -4.1401 C   0  0  0  0  0  0  0  0  0  0  0  0
   13.7170   -4.4258   -3.7276 C   0  0  0  0  0  0  0  0  0  0  0  0
   13.8936   -4.9414   -2.4404 C   0  0  0  0  0  0  0  0  0  0  0  0
   12.8047   -5.0031   -1.5632 C   0  0  0  0  0  0  0  0  0  0  0  0
   13.0003   -5.5072   -0.1535 C   0  0  1  0  0  0  0  0  0  0  0  0
   13.9839   -6.4216   -0.0832 F   0  0  0  0  0  0  0  0  0  0  0  0
   13.3342   -4.5081    0.6863 F   0  0  0  0  0  0  0  0  0  0  0  0
   11.8842   -6.0734    0.3357 F   0  0  0  0  0  0  0  0  0  0  0  0
   11.5446   -4.5570   -1.9705 C   0  0  0  0  0  0  0  0  0  0  0  0
    9.7877   -3.0900   -4.8745 N   0  0  0  0  0  0  0  0  0  0  0  0
    8.4374   -2.7835   -4.8298 O   0  0  0  0  0  0  0  0  0  0  0  0
    6.5080   -0.3847   -3.6072 C   0  0  0  0  0  0  0  0  0  0  0  0
    5.9963    0.8973   -2.9573 C   0  0  0  0  0  0  0  0  0  0  0  0
    6.6218    1.1225   -1.7058 O   0  0  0  0  0  0  0  0  0  0  0  0
    4.4266    1.2483    0.1684 C   0  0  0  0  0  0  0  0  0  0  0  0
    3.1373    1.3130    0.6961 C   0  0  0  0  0  0  0  0  0  0  0  0
    2.2887   -1.9797    0.4475 H   0  0  0  0  0  0  0  0  0  0  0  0
    4.5850   -2.0861   -0.5087 H   0  0  0  0  0  0  0  0  0  0  0  0
    7.0777    0.2979    0.0650 H   0  0  0  0  0  0  0  0  0  0  0  0
    6.7491   -2.1040   -0.7235 H   0  0  0  0  0  0  0  0  0  0  0  0
    8.0465   -1.1620   -1.4790 H   0  0  0  0  0  0  0  0  0  0  0  0
    5.9448   -2.9365   -4.1607 H   0  0  0  0  0  0  0  0  0  0  0  0
    6.2404   -3.5854   -2.5260 H   0  0  0  0  0  0  0  0  0  0  0  0
   12.3194   -3.5731   -5.1446 H   0  0  0  0  0  0  0  0  0  0  0  0
   14.5650   -4.3789   -4.4145 H   0  0  0  0  0  0  0  0  0  0  0  0
   14.8725   -5.3011   -2.1181 H   0  0  0  0  0  0  0  0  0  0  0  0
   10.6888   -4.6119   -1.2971 H   0  0  0  0  0  0  0  0  0  0  0  0
    5.9482   -0.5774   -4.5376 H   0  0  0  0  0  0  0  0  0  0  0  0
    7.5762   -0.2487   -3.8855 H   0  0  0  0  0  0  0  0  0  0  0  0
    4.8977    0.8384   -2.8397 H   0  0  0  0  0  0  0  0  0  0  0  0
    6.2333    1.7671   -3.5882 H   0  0  0  0  0  0  0  0  0  0  0  0
    5.0198    2.1614    0.0787 H   0  0  0  0  0  0  0  0  0  0  0  0
    2.7019    2.2550    1.0357 H   0  0  0  0  0  0  0  0  0  0  0  0
  1  2  1  0
  2  3  2  0
  2 29  1  0
  3  4  1  0
  3 30  1  0
  4  5  2  0
  4 31  1  0
  5  6  1  0
  5 28  1  0
  6  7  1  0
  6 27  1  0
  6 32  1  1
  7  8  1  0
  7 33  1  0
  7 34  1  0
  8  9  1  0
  8 25  1  0
  9 10  1  0
  9 35  1  0
  9 36  1  0
 10 11  2  0
 10 24  1  0
 11 12  1  0
 12 13  1  0
 12 23  2  0
 13 14  2  0
 13 22  1  0
 14 15  1  0
 14 37  1  0
 15 16  2  0
 15 38  1  0
 16 17  1  0
 16 39  1  0
 17 18  1  0
 17 22  2  0
 18 19  1  6
 18 20  1  0
 18 21  1  0
 22 40  1  0
 23 24  1  0
 25 26  1  0
 25 41  1  0
 25 42  1  0
 26 27  1  0
 26 43  1  0
 26 44  1  0
 28 29  2  0
 28 45  1  0
 29 46  1  0
M  END

