
     RDKit          3D

 79 84  0  0  0  0  0  0  0  0999 V2000
    4.4085    1.7601   -2.9515 C   0  0  0  0  0  0  0  0  0  0  0  0
    3.3721    1.3220   -1.9309 C   0  0  0  0  0  0  0  0  0  0  0  0
    3.5374    2.0054   -0.6723 O   0  0  0  0  0  0  0  0  0  0  0  0
    4.4069    1.4768    0.2190 C   0  0  0  0  0  0  0  0  0  0  0  0
    5.0482    0.4774   -0.0058 O   0  0  0  0  0  0  0  0  0  0  0  0
    4.4711    2.3198    1.4487 C   0  0  0  0  0  0  0  0  0  0  0  0
    5.2835    2.0382    2.5265 C   0  0  0  0  0  0  0  0  0  0  0  0
    5.9954    0.7646    2.8086 C   0  0  0  0  0  0  0  0  0  0  0  0
    7.2973    0.8128    3.3403 C   0  0  0  0  0  0  0  0  0  0  0  0
    7.9758   -0.3616    3.6669 C   0  0  0  0  0  0  0  0  0  0  0  0
    7.3498   -1.6005    3.5013 C   0  0  0  0  0  0  0  0  0  0  0  0
    6.0435   -1.6579    3.0043 C   0  0  0  0  0  0  0  0  0  0  0  0
    5.3735   -0.4867    2.6541 C   0  0  0  0  0  0  0  0  0  0  0  0
    5.5292    3.0124    3.5065 N   0  0  0  0  0  0  0  0  0  0  0  0
    5.0285    4.1769    3.3504 C   0  0  0  0  0  0  0  0  0  0  0  0
    5.4464    5.5374    4.4200 S   0  0  0  0  0  0  0  0  0  0  0  0
    4.5045    6.6318    3.4542 C   0  0  0  0  0  0  0  0  0  0  0  0
    4.3270    7.9976    3.6223 C   0  0  0  0  0  0  0  0  0  0  0  0
    4.8435    8.8499    4.6061 C   0  0  0  0  0  0  0  0  0  0  0  0
    5.6947    8.5915    5.7284 C   0  0  0  0  0  0  0  0  0  0  0  0
    5.9023    9.7852    6.3736 C   0  0  0  0  0  0  0  0  0  0  0  0
    6.6971   10.1016    7.5858 C   0  0  0  0  0  0  0  0  0  0  0  0
    5.1993   10.8051    5.6841 N   0  0  0  0  0  0  0  0  0  0  0  0
    5.1888   12.2066    6.0621 C   0  0  0  0  0  0  0  0  0  0  0  0
    6.1777   13.0889    5.5450 C   0  0  0  0  0  0  0  0  0  0  0  0
    6.1660   14.4193    5.9005 C   0  0  0  0  0  0  0  0  0  0  0  0
    5.1694   14.9502    6.7930 C   0  0  0  0  0  0  0  0  0  0  0  0
    5.2052   16.3495    7.1221 C   0  0  0  0  0  0  0  0  0  0  0  0
    6.0230   17.1749    6.7096 O   0  0  0  0  0  0  0  0  0  0  0  0
    4.1847   16.7232    7.9895 O   0  0  0  0  0  0  0  0  0  0  0  0
    4.1492   18.0888    8.3732 C   0  0  0  0  0  0  0  0  0  0  0  0
    5.0779   18.3871    9.5442 C   0  0  0  0  0  0  0  0  0  0  0  0
    4.1855   14.0326    7.3065 C   0  0  0  0  0  0  0  0  0  0  0  0
    4.1972   12.6998    6.9513 C   0  0  0  0  0  0  0  0  0  0  0  0
    4.5645   10.2836    4.6376 C   0  0  0  0  0  0  0  0  0  0  0  0
    3.7388   11.1011    3.7132 C   0  0  0  0  0  0  0  0  0  0  0  0
    3.8482    5.9291    2.3148 C   0  0  0  0  0  0  0  0  0  0  0  0
    3.1412    6.4367    1.4721 O   0  0  0  0  0  0  0  0  0  0  0  0
    4.1762    4.5725    2.3597 N   0  0  0  0  0  0  0  0  0  0  0  0
    3.5961    3.5717    1.4383 C   0  0  2  0  0  0  0  0  0  0  0  0
    3.6114    4.0294    0.4422 H   0  0  0  0  0  0  0  0  0  0  0  0
    2.1356    3.2828    1.7929 C   0  0  0  0  0  0  0  0  0  0  0  0
    1.1053    3.8519    1.0317 C   0  0  0  0  0  0  0  0  0  0  0  0
   -0.2335    3.6185    1.3485 C   0  0  0  0  0  0  0  0  0  0  0  0
   -0.5477    2.8087    2.4442 C   0  0  0  0  0  0  0  0  0  0  0  0
   -2.2193    2.5115    2.8483 Cl  0  0  0  0  0  0  0  0  0  0  0  0
    0.4639    2.2328    3.2189 C   0  0  0  0  0  0  0  0  0  0  0  0
    1.7985    2.4708    2.8860 C   0  0  0  0  0  0  0  0  0  0  0  0
    4.2064    1.2721   -3.9183 H   0  0  0  0  0  0  0  0  0  0  0  0
    5.4206    1.4734   -2.6302 H   0  0  0  0  0  0  0  0  0  0  0  0
    4.3776    2.8501   -3.1056 H   0  0  0  0  0  0  0  0  0  0  0  0
    3.4271    0.2383   -1.7532 H   0  0  0  0  0  0  0  0  0  0  0  0
    2.3542    1.5839   -2.2534 H   0  0  0  0  0  0  0  0  0  0  0  0
    7.7745    1.7820    3.4937 H   0  0  0  0  0  0  0  0  0  0  0  0
    8.9936   -0.3088    4.0612 H   0  0  0  0  0  0  0  0  0  0  0  0
    7.8757   -2.5210    3.7673 H   0  0  0  0  0  0  0  0  0  0  0  0
    5.5432   -2.6221    2.8877 H   0  0  0  0  0  0  0  0  0  0  0  0
    4.3551   -0.5442    2.2696 H   0  0  0  0  0  0  0  0  0  0  0  0
    3.6840    8.4327    2.8510 H   0  0  0  0  0  0  0  0  0  0  0  0
    6.1148    7.6385    6.0381 H   0  0  0  0  0  0  0  0  0  0  0  0
    7.1726    9.1948    7.9821 H   0  0  0  0  0  0  0  0  0  0  0  0
    6.0583   10.5493    8.3630 H   0  0  0  0  0  0  0  0  0  0  0  0
    7.4707   10.8513    7.3581 H   0  0  0  0  0  0  0  0  0  0  0  0
    6.9460   12.7096    4.8648 H   0  0  0  0  0  0  0  0  0  0  0  0
    6.9164   15.1089    5.5111 H   0  0  0  0  0  0  0  0  0  0  0  0
    3.1011   18.2912    8.6495 H   0  0  0  0  0  0  0  0  0  0  0  0
    4.4170   18.7233    7.5133 H   0  0  0  0  0  0  0  0  0  0  0  0
    4.8517   17.7315   10.4008 H   0  0  0  0  0  0  0  0  0  0  0  0
    4.9655   19.4348    9.8704 H   0  0  0  0  0  0  0  0  0  0  0  0
    6.1243   18.2279    9.2451 H   0  0  0  0  0  0  0  0  0  0  0  0
    3.4234   14.4099    7.9881 H   0  0  0  0  0  0  0  0  0  0  0  0
    3.4403   12.0209    7.3551 H   0  0  0  0  0  0  0  0  0  0  0  0
    2.9338   11.6021    4.2718 H   0  0  0  0  0  0  0  0  0  0  0  0
    3.3012   10.4990    2.9082 H   0  0  0  0  0  0  0  0  0  0  0  0
    4.3490   11.9060    3.2765 H   0  0  0  0  0  0  0  0  0  0  0  0
    1.3529    4.4956    0.1850 H   0  0  0  0  0  0  0  0  0  0  0  0
   -1.0338    4.0621    0.7540 H   0  0  0  0  0  0  0  0  0  0  0  0
    0.2041    1.6003    4.0691 H   0  0  0  0  0  0  0  0  0  0  0  0
    2.5821    2.0047    3.4885 H   0  0  0  0  0  0  0  0  0  0  0  0
  1  2  1  0
  1 49  1  0
  1 50  1  0
  1 51  1  0
  2  3  1  0
  2 52  1  0
  2 53  1  0
  3  4  1  0
  4  5  2  0
  4  6  1  0
  6  7  2  0
  6 40  1  0
  7  8  1  0
  7 14  1  0
  8  9  2  0
  8 13  1  0
  9 10  1  0
  9 54  1  0
 10 11  2  0
 10 55  1  0
 11 12  1  0
 11 56  1  0
 12 13  2  0
 12 57  1  0
 13 58  1  0
 14 15  2  0
 15 16  1  0
 15 39  1  0
 16 17  1  0
 17 18  2  0
 17 37  1  0
 18 19  1  0
 18 59  1  0
 19 20  1  0
 19 35  2  0
 20 21  2  0
 20 60  1  0
 21 22  1  0
 21 23  1  0
 22 61  1  0
 22 62  1  0
 22 63  1  0
 23 24  1  0
 23 35  1  0
 24 25  2  0
 24 34  1  0
 25 26  1  0
 25 64  1  0
 26 27  2  0
 26 65  1  0
 27 28  1  0
 27 33  1  0
 28 29  2  0
 28 30  1  0
 30 31  1  0
 31 32  1  0
 31 66  1  0
 31 67  1  0
 32 68  1  0
 32 69  1  0
 32 70  1  0
 33 34  2  0
 33 71  1  0
 34 72  1  0
 35 36  1  0
 36 73  1  0
 36 74  1  0
 36 75  1  0
 37 38  2  0
 37 39  1  0
 39 40  1  0
 40 41  1  6
 40 42  1  0
 42 43  2  0
 42 48  1  0
 43 44  1  0
 43 76  1  0
 44 45  2  0
 44 77  1  0
 45 46  1  0
 45 47  1  0
 47 48  2  0
 47 78  1  0
 48 79  1  0
M  END

