
     RDKit          3D

 65 70  0  0  0  0  0  0  0  0999 V2000
    0.7020   -0.0983   -0.4101 C   0  0  0  0  0  0  0  0  0  0  0  0
    2.1615    0.0121   -0.1755 C   0  0  0  0  0  0  0  0  0  0  0  0
    2.6620   -0.1075    1.0204 N   0  0  0  0  0  0  0  0  0  0  0  0
    3.9916    0.0668    0.9752 N   0  0  0  0  0  0  0  0  0  0  0  0
    4.6998    0.0767    2.1437 C   0  0  0  0  0  0  0  0  0  0  0  0
    3.9923    0.0169    3.3828 C   0  0  0  0  0  0  0  0  0  0  0  0
    4.6851    0.0472    4.5793 C   0  0  0  0  0  0  0  0  0  0  0  0
    6.0850    0.1289    4.5605 C   0  0  0  0  0  0  0  0  0  0  0  0
    6.9766    0.1718    6.1163 S   0  0  1  0  0  0  0  0  0  0  0  0
    6.0290   -0.0816    7.1969 O   0  0  0  0  0  0  0  0  0  0  0  0
    8.2098   -0.5701    5.9472 O   0  0  0  0  0  0  0  0  0  0  0  0
    7.4062    1.7478    6.1945 O   0  0  0  0  0  0  0  0  0  0  0  0
    6.8029    0.1622    3.3537 C   0  0  0  0  0  0  0  0  0  0  0  0
    6.1244    0.1441    2.1481 C   0  0  0  0  0  0  0  0  0  0  0  0
    4.5296    0.2830   -0.4908 C   0  0  2  0  0  0  0  0  0  0  0  0
    3.1740    0.2659   -1.2366 C   0  0  0  0  0  0  0  0  0  0  0  0
    5.5884   -1.1311   -0.9954 S   0  0  0  0  0  0  0  0  0  0  0  0
    7.0365   -0.0794   -1.2156 C   0  0  0  0  0  0  0  0  0  0  0  0
    8.3075   -0.5275   -1.6193 C   0  0  0  0  0  0  0  0  0  0  0  0
    8.8343   -1.8244   -1.8841 C   0  0  0  0  0  0  0  0  0  0  0  0
    8.1429   -3.0627   -1.7370 C   0  0  0  0  0  0  0  0  0  0  0  0
    8.7312   -4.2867   -2.0282 C   0  0  0  0  0  0  0  0  0  0  0  0
   10.0672   -4.3816   -2.4921 C   0  0  0  0  0  0  0  0  0  0  0  0
   10.6551   -5.6059   -2.7887 N   0  0  0  0  0  0  0  0  0  0  0  0
   12.0215   -5.6572   -3.2554 C   0  0  0  0  0  0  0  0  0  0  0  0
    9.9030   -6.8269   -2.6189 C   0  0  0  0  0  0  0  0  0  0  0  0
   10.7749   -3.1583   -2.6364 C   0  0  0  0  0  0  0  0  0  0  0  0
   10.1808   -1.9428   -2.3443 C   0  0  0  0  0  0  0  0  0  0  0  0
    6.7272    1.2838   -1.0225 C   0  0  0  0  0  0  0  0  0  0  0  0
    7.4334    2.2913   -1.1186 O   0  0  0  0  0  0  0  0  0  0  0  0
    5.3166    1.4591   -0.5974 N   0  0  0  0  0  0  0  0  0  0  0  0
    4.7794    2.6930   -0.3047 C   0  0  0  0  0  0  0  0  0  0  0  0
    3.5473    2.8283    0.1096 N   0  0  0  0  0  0  0  0  0  0  0  0
    3.2418    4.1567    0.3429 C   0  0  0  0  0  0  0  0  0  0  0  0
    2.0064    4.6484    0.7967 C   0  0  0  0  0  0  0  0  0  0  0  0
    1.8489    6.0207    0.9863 C   0  0  0  0  0  0  0  0  0  0  0  0
    2.9068    6.9106    0.7306 C   0  0  0  0  0  0  0  0  0  0  0  0
    4.1420    6.4379    0.2806 C   0  0  0  0  0  0  0  0  0  0  0  0
    4.3007    5.0619    0.0892 C   0  0  0  0  0  0  0  0  0  0  0  0
    5.7293    4.1866   -0.4599 S   0  0  0  0  0  0  0  0  0  0  0  0
    0.1737   -0.3662    0.5137 H   0  0  0  0  0  0  0  0  0  0  0  0
    0.4903   -0.8440   -1.1940 H   0  0  0  0  0  0  0  0  0  0  0  0
    0.3199    0.8688   -0.7805 H   0  0  0  0  0  0  0  0  0  0  0  0
    2.9064   -0.0401    3.3625 H   0  0  0  0  0  0  0  0  0  0  0  0
    4.1586    0.0032    5.5338 H   0  0  0  0  0  0  0  0  0  0  0  0
    6.7665    2.2129    6.7617 H   0  0  0  0  0  0  0  0  0  0  0  0
    7.8932    0.1921    3.3660 H   0  0  0  0  0  0  0  0  0  0  0  0
    6.6897    0.1582    1.2197 H   0  0  0  0  0  0  0  0  0  0  0  0
    3.1595   -0.5238   -2.0034 H   0  0  0  0  0  0  0  0  0  0  0  0
    2.9794    1.2281   -1.7304 H   0  0  0  0  0  0  0  0  0  0  0  0
    8.9990    0.3084   -1.7631 H   0  0  0  0  0  0  0  0  0  0  0  0
    7.1139   -3.0781   -1.3731 H   0  0  0  0  0  0  0  0  0  0  0  0
    8.1346   -5.1883   -1.8884 H   0  0  0  0  0  0  0  0  0  0  0  0
   12.1657   -5.0961   -4.1986 H   0  0  0  0  0  0  0  0  0  0  0  0
   12.3049   -6.7011   -3.4442 H   0  0  0  0  0  0  0  0  0  0  0  0
   12.7366   -5.2442   -2.5178 H   0  0  0  0  0  0  0  0  0  0  0  0
    9.5779   -6.9809   -1.5716 H   0  0  0  0  0  0  0  0  0  0  0  0
   10.5269   -7.6848   -2.9025 H   0  0  0  0  0  0  0  0  0  0  0  0
    8.9929   -6.8521   -3.2492 H   0  0  0  0  0  0  0  0  0  0  0  0
   11.8080   -3.1583   -2.9843 H   0  0  0  0  0  0  0  0  0  0  0  0
   10.7664   -1.0282   -2.4745 H   0  0  0  0  0  0  0  0  0  0  0  0
    1.1898    3.9507    0.9964 H   0  0  0  0  0  0  0  0  0  0  0  0
    0.8904    6.4106    1.3387 H   0  0  0  0  0  0  0  0  0  0  0  0
    2.7634    7.9829    0.8845 H   0  0  0  0  0  0  0  0  0  0  0  0
    4.9639    7.1302    0.0823 H   0  0  0  0  0  0  0  0  0  0  0  0
  1  2  1  0
  1 41  1  0
  1 42  1  0
  1 43  1  0
  2  3  2  0
  2 16  1  0
  3  4  1  0
  4  5  1  0
  4 15  1  0
  5  6  2  0
  5 14  1  0
  6  7  1  0
  6 44  1  0
  7  8  2  0
  7 45  1  0
  8  9  1  0
  8 13  1  0
  9 10  2  0
  9 11  2  0
  9 12  1  1
 12 46  1  0
 13 14  2  0
 13 47  1  0
 14 48  1  0
 15 16  1  0
 15 17  1  6
 15 31  1  0
 16 49  1  0
 16 50  1  0
 17 18  1  0
 18 19  2  0
 18 29  1  0
 19 20  1  0
 19 51  1  0
 20 21  2  0
 20 28  1  0
 21 22  1  0
 21 52  1  0
 22 23  2  0
 22 53  1  0
 23 24  1  0
 23 27  1  0
 24 25  1  0
 24 26  1  0
 25 54  1  0
 25 55  1  0
 25 56  1  0
 26 57  1  0
 26 58  1  0
 26 59  1  0
 27 28  2  0
 27 60  1  0
 28 61  1  0
 29 30  2  0
 29 31  1  0
 31 32  1  0
 32 33  2  0
 32 40  1  0
 33 34  1  0
 34 35  2  0
 34 39  1  0
 35 36  1  0
 35 62  1  0
 36 37  2  0
 36 63  1  0
 37 38  1  0
 37 64  1  0
 38 39  2  0
 38 65  1  0
 39 40  1  0
M  END

