
     RDKit          3D

 54 57  0  0  0  0  0  0  0  0999 V2000
    1.0737    0.2659   -1.0235 C   0  0  0  0  0  0  0  0  0  0  0  0
    2.4244    0.0563   -0.3526 C   0  0  0  0  0  0  0  0  0  0  0  0
    2.9220   -1.0546   -0.2725 O   0  0  0  0  0  0  0  0  0  0  0  0
    3.0607    1.1713    0.1544 N   0  0  0  0  0  0  0  0  0  0  0  0
    4.3367    1.0266    0.8401 C   0  0  0  0  0  0  0  0  0  0  0  0
    5.3620    2.0055    0.2751 C   0  0  0  0  0  0  0  0  0  0  0  0
    4.8561    3.3802    0.2975 N   0  0  0  0  0  0  0  0  0  0  0  0
    5.7650    4.4468    0.2764 C   0  0  0  0  0  0  0  0  0  0  0  0
    5.5535    5.6062   -0.5003 C   0  0  0  0  0  0  0  0  0  0  0  0
    6.4551    6.6685   -0.4655 C   0  0  0  0  0  0  0  0  0  0  0  0
    7.6185    6.6414    0.3249 C   0  0  0  0  0  0  0  0  0  0  0  0
    8.5259    7.7875    0.3122 C   0  0  0  0  0  0  0  0  0  0  0  0
    9.6715    7.9388    1.0150 C   0  0  0  0  0  0  0  0  0  0  0  0
   10.5698    9.0974    0.9912 C   0  0  0  0  0  0  0  0  0  0  0  0
   10.3535   10.2240    0.1707 C   0  0  0  0  0  0  0  0  0  0  0  0
   11.2597   11.2738    0.2023 C   0  0  0  0  0  0  0  0  0  0  0  0
   11.0381   12.3423   -0.5794 F   0  0  0  0  0  0  0  0  0  0  0  0
   12.3891   11.2684    1.0179 C   0  0  0  0  0  0  0  0  0  0  0  0
   12.6218   10.1585    1.8472 C   0  0  0  0  0  0  0  0  0  0  0  0
   13.8141   10.1181    2.7349 C   0  0  0  0  0  0  0  0  0  0  0  0
   13.7675    9.5283    4.0099 C   0  0  0  0  0  0  0  0  0  0  0  0
   14.9168    9.5176    4.8038 C   0  0  0  0  0  0  0  0  0  0  0  0
   16.0855   10.0413    4.4253 N   0  0  0  0  0  0  0  0  0  0  0  0
   16.1359   10.6035    3.2150 C   0  0  0  0  0  0  0  0  0  0  0  0
   15.0465   10.6685    2.3431 C   0  0  0  0  0  0  0  0  0  0  0  0
   11.7090    9.0912    1.8206 C   0  0  0  0  0  0  0  0  0  0  0  0
    7.8292    5.4753    1.0945 C   0  0  0  0  0  0  0  0  0  0  0  0
    6.9358    4.4154    1.0750 C   0  0  0  0  0  0  0  0  0  0  0  0
    3.5799    3.5195   -0.3853 C   0  0  0  0  0  0  0  0  0  0  0  0
    2.5485    2.5295    0.1696 C   0  0  0  0  0  0  0  0  0  0  0  0
    0.7239   -0.7155   -1.3647 H   0  0  0  0  0  0  0  0  0  0  0  0
    1.1455    0.9406   -1.8913 H   0  0  0  0  0  0  0  0  0  0  0  0
    0.3314    0.6882   -0.3276 H   0  0  0  0  0  0  0  0  0  0  0  0
    4.6711   -0.0102    0.7112 H   0  0  0  0  0  0  0  0  0  0  0  0
    4.2015    1.2210    1.9214 H   0  0  0  0  0  0  0  0  0  0  0  0
    5.6131    1.7084   -0.7654 H   0  0  0  0  0  0  0  0  0  0  0  0
    6.2843    1.9354    0.8637 H   0  0  0  0  0  0  0  0  0  0  0  0
    4.6874    5.6835   -1.1568 H   0  0  0  0  0  0  0  0  0  0  0  0
    6.2556    7.5470   -1.0862 H   0  0  0  0  0  0  0  0  0  0  0  0
    8.2103    8.6000   -0.3511 H   0  0  0  0  0  0  0  0  0  0  0  0
    9.9912    7.1338    1.6842 H   0  0  0  0  0  0  0  0  0  0  0  0
    9.4938   10.2999   -0.4959 H   0  0  0  0  0  0  0  0  0  0  0  0
   13.0507   12.1356    1.0141 H   0  0  0  0  0  0  0  0  0  0  0  0
   12.8385    9.1025    4.3947 H   0  0  0  0  0  0  0  0  0  0  0  0
   14.8839    9.0649    5.8023 H   0  0  0  0  0  0  0  0  0  0  0  0
   17.1015   11.0258    2.9114 H   0  0  0  0  0  0  0  0  0  0  0  0
   15.1669   11.1240    1.3578 H   0  0  0  0  0  0  0  0  0  0  0  0
   11.8964    8.2135    2.4428 H   0  0  0  0  0  0  0  0  0  0  0  0
    8.7095    5.3975    1.7365 H   0  0  0  0  0  0  0  0  0  0  0  0
    7.1341    3.5544    1.7148 H   0  0  0  0  0  0  0  0  0  0  0  0
    3.6827    3.3630   -1.4817 H   0  0  0  0  0  0  0  0  0  0  0  0
    3.1943    4.5366   -0.2288 H   0  0  0  0  0  0  0  0  0  0  0  0
    1.6290    2.6024   -0.4229 H   0  0  0  0  0  0  0  0  0  0  0  0
    2.3018    2.8235    1.2087 H   0  0  0  0  0  0  0  0  0  0  0  0
  1  2  1  0
  1 31  1  0
  1 32  1  0
  1 33  1  0
  2  3  2  0
  2  4  1  0
  4  5  1  0
  4 30  1  0
  5  6  1  0
  5 34  1  0
  5 35  1  0
  6  7  1  0
  6 36  1  0
  6 37  1  0
  7  8  1  0
  7 29  1  0
  8  9  2  0
  8 28  1  0
  9 10  1  0
  9 38  1  0
 10 11  2  0
 10 39  1  0
 11 12  1  0
 11 27  1  0
 12 13  2  0
 12 40  1  0
 13 14  1  0
 13 41  1  0
 14 15  2  0
 14 26  1  0
 15 16  1  0
 15 42  1  0
 16 17  1  0
 16 18  2  0
 18 19  1  0
 18 43  1  0
 19 20  1  0
 19 26  2  0
 20 21  2  0
 20 25  1  0
 21 22  1  0
 21 44  1  0
 22 23  2  0
 22 45  1  0
 23 24  1  0
 24 25  2  0
 24 46  1  0
 25 47  1  0
 26 48  1  0
 27 28  2  0
 27 49  1  0
 28 50  1  0
 29 30  1  0
 29 51  1  0
 29 52  1  0
 30 53  1  0
 30 54  1  0
M  END

