
     RDKit          3D

 71 75  0  0  0  0  0  0  0  0999 V2000
    1.2851    2.4640   -1.4479 C   0  0  0  0  0  0  0  0  0  0  0  0
    1.8063    1.6659   -2.6353 C   0  0  0  0  0  0  0  0  0  0  0  0
    2.7121    0.6335   -2.2566 O   0  0  0  0  0  0  0  0  0  0  0  0
    4.0048    0.9120   -1.9454 C   0  0  0  0  0  0  0  0  0  0  0  0
    4.6130    2.1624   -2.1013 C   0  0  0  0  0  0  0  0  0  0  0  0
    5.9550    2.3710   -1.7387 C   0  0  0  0  0  0  0  0  0  0  0  0
    6.5806    3.7606   -1.8816 C   0  0  1  0  0  0  0  0  0  0  0  0
    6.2020    4.4817   -3.1663 C   0  0  0  0  0  0  0  0  0  0  0  0
    6.4724    4.1891   -4.5767 C   0  0  0  0  0  0  0  0  0  0  0  0
    5.8647    4.8737   -5.4311 O   0  0  0  0  0  0  0  0  0  0  0  0
    7.4294    3.1829   -5.0423 C   0  0  0  0  0  0  0  0  0  0  0  0
    8.6042    2.3624   -4.0406 S   0  0  0  0  0  0  0  0  0  0  0  0
    9.2144    1.5448   -5.4475 C   0  0  0  0  0  0  0  0  0  0  0  0
   10.3498    0.5735   -5.3612 C   0  0  0  0  0  0  0  0  0  0  0  0
    8.5930    1.8518   -6.5557 N   0  0  0  0  0  0  0  0  0  0  0  0
    7.6000    2.7680   -6.3683 C   0  0  0  0  0  0  0  0  0  0  0  0
    6.8136    3.2308   -7.5564 C   0  0  0  0  0  0  0  0  0  0  0  0
    5.4146    5.5649   -2.8668 C   0  0  0  0  0  0  0  0  0  0  0  0
    4.8196    6.3906   -3.6875 O   0  0  0  0  0  0  0  0  0  0  0  0
    5.3198    5.7465   -1.3859 C   0  0  0  0  0  0  0  0  0  0  0  0
    4.7471    6.6100   -0.7599 O   0  0  0  0  0  0  0  0  0  0  0  0
    6.0719    4.7053   -0.8530 N   0  0  0  0  0  0  0  0  0  0  0  0
    6.3959    4.5856    0.4837 C   0  0  0  0  0  0  0  0  0  0  0  0
    7.2619    3.7239    0.9154 N   0  0  0  0  0  0  0  0  0  0  0  0
    7.4030    3.8100    2.2846 C   0  0  0  0  0  0  0  0  0  0  0  0
    8.2586    3.0216    3.0724 C   0  0  0  0  0  0  0  0  0  0  0  0
    8.3042    3.2229    4.4479 C   0  0  0  0  0  0  0  0  0  0  0  0
    7.4986    4.2108    5.0444 C   0  0  0  0  0  0  0  0  0  0  0  0
    7.5773    4.4393    6.7780 Cl  0  0  0  0  0  0  0  0  0  0  0  0
    6.6392    5.0115    4.2919 C   0  0  0  0  0  0  0  0  0  0  0  0
    6.6000    4.7974    2.9107 C   0  0  0  0  0  0  0  0  0  0  0  0
    5.6404    5.6391    1.7056 S   0  0  0  0  0  0  0  0  0  0  0  0
    6.6930    1.3094   -1.2129 C   0  0  0  0  0  0  0  0  0  0  0  0
    6.1010    0.0504   -1.0763 C   0  0  0  0  0  0  0  0  0  0  0  0
    4.7710   -0.1693   -1.4352 C   0  0  0  0  0  0  0  0  0  0  0  0
    4.2263   -1.3988   -1.2221 O   0  0  0  0  0  0  0  0  0  0  0  0
    3.7935   -2.1557   -2.3569 C   0  0  0  0  0  0  0  0  0  0  0  0
    3.3505   -3.5214   -1.8550 C   0  0  0  0  0  0  0  0  0  0  0  0
    2.7319   -4.4362   -2.9266 C   0  0  1  0  0  0  0  0  0  0  0  0
    3.7192   -4.7892   -4.0485 C   0  0  0  0  0  0  0  0  0  0  0  0
    2.1660   -5.7076   -2.2809 C   0  0  0  0  0  0  0  0  0  0  0  0
    0.5323    3.1934   -1.7874 H   0  0  0  0  0  0  0  0  0  0  0  0
    2.0869    3.0175   -0.9367 H   0  0  0  0  0  0  0  0  0  0  0  0
    0.8117    1.7936   -0.7144 H   0  0  0  0  0  0  0  0  0  0  0  0
    2.2659    2.3225   -3.3954 H   0  0  0  0  0  0  0  0  0  0  0  0
    0.9777    1.1364   -3.1291 H   0  0  0  0  0  0  0  0  0  0  0  0
    4.0355    2.9954   -2.5012 H   0  0  0  0  0  0  0  0  0  0  0  0
    7.6681    3.6743   -1.7399 H   0  0  0  0  0  0  0  0  0  0  0  0
   10.7424    0.4865   -4.3390 H   0  0  0  0  0  0  0  0  0  0  0  0
   11.1649    0.8908   -6.0308 H   0  0  0  0  0  0  0  0  0  0  0  0
   10.0175   -0.4215   -5.6984 H   0  0  0  0  0  0  0  0  0  0  0  0
    7.0680    2.6013   -8.4192 H   0  0  0  0  0  0  0  0  0  0  0  0
    7.0447    4.2818   -7.7910 H   0  0  0  0  0  0  0  0  0  0  0  0
    5.7318    3.1971   -7.3650 H   0  0  0  0  0  0  0  0  0  0  0  0
    5.0452    6.0256   -4.5978 H   0  0  0  0  0  0  0  0  0  0  0  0
    8.8779    2.2599    2.5951 H   0  0  0  0  0  0  0  0  0  0  0  0
    8.9610    2.6207    5.0772 H   0  0  0  0  0  0  0  0  0  0  0  0
    6.0253    5.7710    4.7776 H   0  0  0  0  0  0  0  0  0  0  0  0
    7.7237    1.4674   -0.8934 H   0  0  0  0  0  0  0  0  0  0  0  0
    6.6590   -0.7947   -0.6679 H   0  0  0  0  0  0  0  0  0  0  0  0
    4.6315   -2.2378   -3.0731 H   0  0  0  0  0  0  0  0  0  0  0  0
    2.9620   -1.6391   -2.8645 H   0  0  0  0  0  0  0  0  0  0  0  0
    2.6147   -3.3518   -1.0505 H   0  0  0  0  0  0  0  0  0  0  0  0
    4.2124   -4.0268   -1.3828 H   0  0  0  0  0  0  0  0  0  0  0  0
    1.8851   -3.8886   -3.3838 H   0  0  0  0  0  0  0  0  0  0  0  0
    4.6063   -5.3066   -3.6433 H   0  0  0  0  0  0  0  0  0  0  0  0
    4.0720   -3.8985   -4.5919 H   0  0  0  0  0  0  0  0  0  0  0  0
    3.2533   -5.4604   -4.7880 H   0  0  0  0  0  0  0  0  0  0  0  0
    2.9679   -6.2990   -1.8064 H   0  0  0  0  0  0  0  0  0  0  0  0
    1.6750   -6.3522   -3.0278 H   0  0  0  0  0  0  0  0  0  0  0  0
    1.4243   -5.4686   -1.5017 H   0  0  0  0  0  0  0  0  0  0  0  0
  1  2  1  0
  1 42  1  0
  1 43  1  0
  1 44  1  0
  2  3  1  0
  2 45  1  0
  2 46  1  0
  3  4  1  0
  4  5  2  0
  4 35  1  0
  5  6  1  0
  5 47  1  0
  6  7  1  0
  6 33  2  0
  7  8  1  0
  7 22  1  0
  7 48  1  1
  8  9  1  0
  8 18  2  0
  9 10  2  0
  9 11  1  0
 11 12  1  0
 11 16  2  0
 12 13  1  0
 13 14  1  0
 13 15  2  0
 14 49  1  0
 14 50  1  0
 14 51  1  0
 15 16  1  0
 16 17  1  0
 17 52  1  0
 17 53  1  0
 17 54  1  0
 18 19  1  0
 18 20  1  0
 19 55  1  0
 20 21  2  0
 20 22  1  0
 22 23  1  0
 23 24  2  0
 23 32  1  0
 24 25  1  0
 25 26  2  0
 25 31  1  0
 26 27  1  0
 26 56  1  0
 27 28  2  0
 27 57  1  0
 28 29  1  0
 28 30  1  0
 30 31  2  0
 30 58  1  0
 31 32  1  0
 33 34  1  0
 33 59  1  0
 34 35  2  0
 34 60  1  0
 35 36  1  0
 36 37  1  0
 37 38  1  0
 37 61  1  0
 37 62  1  0
 38 39  1  0
 38 63  1  0
 38 64  1  0
 39 40  1  0
 39 41  1  0
 39 65  1  6
 40 66  1  0
 40 67  1  0
 40 68  1  0
 41 69  1  0
 41 70  1  0
 41 71  1  0
M  END

