
     RDKit          3D

 35 35  0  0  0  0  0  0  0  0999 V2000
    0.9540   -2.2785    1.3195 C   0  0  0  0  0  0  0  0  0  0  0  0
    2.4795   -2.1588    1.3032 C   0  0  0  0  0  0  0  0  0  0  0  0
    3.0700   -1.5390    0.0233 C   0  0  1  0  0  0  0  0  0  0  0  0
    2.5824   -0.1035   -0.2712 C   0  0  0  0  0  0  0  0  0  0  0  0
    2.8797    0.9514    0.8005 C   0  0  0  0  0  0  0  0  0  0  0  0
    4.6137   -1.6069    0.0205 C   0  0  0  0  0  0  0  0  0  0  0  0
    5.1545   -2.9502    0.0532 N   0  0  0  0  0  0  0  0  0  0  0  0
    5.3999   -3.6712   -1.0679 C   0  0  0  0  0  0  0  0  0  0  0  0
    5.2070   -3.2713   -2.2094 O   0  0  0  0  0  0  0  0  0  0  0  0
    5.9583   -5.0534   -0.7858 C   0  0  0  0  0  0  0  0  0  0  0  0
    6.2706   -5.8711   -1.8670 C   0  0  0  0  0  0  0  0  0  0  0  0
    6.7885   -7.1602   -1.6262 C   0  0  0  0  0  0  0  0  0  0  0  0
    7.1406   -7.9917   -2.6545 N   0  0  0  0  0  0  0  0  0  0  0  0
    6.9533   -7.5352   -0.2750 C   0  0  0  0  0  0  0  0  0  0  0  0
    6.6061   -6.6329    0.7281 C   0  0  0  0  0  0  0  0  0  0  0  0
    6.1173   -5.4122    0.4981 N   0  0  0  0  0  0  0  0  0  0  0  0
    0.6078   -2.8085    2.2215 H   0  0  0  0  0  0  0  0  0  0  0  0
    0.5894   -2.8419    0.4440 H   0  0  0  0  0  0  0  0  0  0  0  0
    0.4574   -1.2949    1.3082 H   0  0  0  0  0  0  0  0  0  0  0  0
    2.9133   -3.1660    1.4235 H   0  0  0  0  0  0  0  0  0  0  0  0
    2.8148   -1.5815    2.1848 H   0  0  0  0  0  0  0  0  0  0  0  0
    2.7415   -2.1607   -0.8294 H   0  0  0  0  0  0  0  0  0  0  0  0
    1.4949   -0.1291   -0.4550 H   0  0  0  0  0  0  0  0  0  0  0  0
    3.0312    0.2187   -1.2274 H   0  0  0  0  0  0  0  0  0  0  0  0
    2.3927    0.7162    1.7607 H   0  0  0  0  0  0  0  0  0  0  0  0
    2.5116    1.9404    0.4838 H   0  0  0  0  0  0  0  0  0  0  0  0
    3.9595    1.0562    0.9956 H   0  0  0  0  0  0  0  0  0  0  0  0
    5.0239   -1.0524    0.8807 H   0  0  0  0  0  0  0  0  0  0  0  0
    4.9857   -1.1259   -0.8975 H   0  0  0  0  0  0  0  0  0  0  0  0
    5.3629   -3.4269    0.9268 H   0  0  0  0  0  0  0  0  0  0  0  0
    6.1049   -5.4872   -2.8755 H   0  0  0  0  0  0  0  0  0  0  0  0
    6.8458   -7.7645   -3.5947 H   0  0  0  0  0  0  0  0  0  0  0  0
    7.3277   -8.9671   -2.4654 H   0  0  0  0  0  0  0  0  0  0  0  0
    7.3499   -8.5197   -0.0134 H   0  0  0  0  0  0  0  0  0  0  0  0
    6.7323   -6.9209    1.7785 H   0  0  0  0  0  0  0  0  0  0  0  0
  1  2  1  0
  1 17  1  0
  1 18  1  0
  1 19  1  0
  2  3  1  0
  2 20  1  0
  2 21  1  0
  3  4  1  0
  3  6  1  0
  3 22  1  6
  4  5  1  0
  4 23  1  0
  4 24  1  0
  5 25  1  0
  5 26  1  0
  5 27  1  0
  6  7  1  0
  6 28  1  0
  6 29  1  0
  7  8  1  0
  7 30  1  0
  8  9  2  0
  8 10  1  0
 10 11  2  0
 10 16  1  0
 11 12  1  0
 11 31  1  0
 12 13  1  0
 12 14  2  0
 13 32  1  0
 13 33  1  0
 14 15  1  0
 14 34  1  0
 15 16  2  0
 15 35  1  0
M  END

