
     RDKit          3D

 58 60  0  0  0  0  0  0  0  0999 V2000
    0.9720   13.0053    7.3502 C   0  0  0  0  0  0  0  0  0  0  0  0
    1.4292   12.2317    6.2661 O   0  0  0  0  0  0  0  0  0  0  0  0
    2.7569   11.9649    6.1533 C   0  0  0  0  0  0  0  0  0  0  0  0
    3.7378   12.4058    7.0527 C   0  0  0  0  0  0  0  0  0  0  0  0
    5.0801   12.0710    6.8330 C   0  0  0  0  0  0  0  0  0  0  0  0
    5.4814   11.3057    5.7322 C   0  0  0  0  0  0  0  0  0  0  0  0
    6.9268   10.9152    5.5239 C   0  0  0  0  0  0  0  0  0  0  0  0
    7.2393    9.4931    6.0356 C   0  0  0  0  0  0  0  0  0  0  0  0
    8.6200    9.0940    5.8271 N   0  0  0  0  0  0  0  0  0  0  0  0
    9.0317    8.5108    4.6707 C   0  0  0  0  0  0  0  0  0  0  0  0
    8.2984    8.2708    3.7256 O   0  0  0  0  0  0  0  0  0  0  0  0
   10.5307    8.1714    4.6054 C   0  0  0  0  0  0  0  0  0  0  0  0
   10.9353    7.1627    5.5538 O   0  0  0  0  0  0  0  0  0  0  0  0
   11.2656    7.5446    6.7871 C   0  0  0  0  0  0  0  0  0  0  0  0
   11.1536    8.6794    7.1946 O   0  0  0  0  0  0  0  0  0  0  0  0
   11.7700    6.3925    7.6760 C   0  0  1  0  0  0  0  0  0  0  0  0
   12.2330    5.0999    6.9436 C   0  0  1  0  0  0  0  0  0  0  0  0
   13.1330    4.2391    7.8400 C   0  0  0  0  0  0  0  0  0  0  0  0
   11.0211    4.2787    6.4774 C   0  0  0  0  0  0  0  0  0  0  0  0
   12.7506    6.9588    8.5851 N   0  0  0  0  0  0  0  0  0  0  0  0
   13.9160    7.6180    8.1649 C   0  0  0  0  0  0  0  0  0  0  0  0
   14.2722    7.7266    7.0144 O   0  0  0  0  0  0  0  0  0  0  0  0
   14.5652    8.1212    9.4136 C   0  0  0  0  0  0  0  0  0  0  0  0
   15.7510    8.8243    9.5897 C   0  0  0  0  0  0  0  0  0  0  0  0
   16.1084    9.1708   10.9017 C   0  0  0  0  0  0  0  0  0  0  0  0
   15.2964    8.8188   11.9901 C   0  0  0  0  0  0  0  0  0  0  0  0
   14.1005    8.1092   11.8019 C   0  0  0  0  0  0  0  0  0  0  0  0
   13.7553    7.7706   10.4990 C   0  0  0  0  0  0  0  0  0  0  0  0
   12.5632    7.0347    9.9763 C   0  0  0  0  0  0  0  0  0  0  0  0
   11.6196    6.5795   10.5782 O   0  0  0  0  0  0  0  0  0  0  0  0
    4.4805   10.8730    4.8411 C   0  0  0  0  0  0  0  0  0  0  0  0
    3.1425   11.1937    5.0424 C   0  0  0  0  0  0  0  0  0  0  0  0
   -0.1174   13.0914    7.2376 H   0  0  0  0  0  0  0  0  0  0  0  0
    1.4115   14.0197    7.3487 H   0  0  0  0  0  0  0  0  0  0  0  0
    1.1926   12.5270    8.3221 H   0  0  0  0  0  0  0  0  0  0  0  0
    3.4747   13.0102    7.9210 H   0  0  0  0  0  0  0  0  0  0  0  0
    5.8330   12.4273    7.5428 H   0  0  0  0  0  0  0  0  0  0  0  0
    7.5898   11.6328    6.0356 H   0  0  0  0  0  0  0  0  0  0  0  0
    7.1787   10.9504    4.4515 H   0  0  0  0  0  0  0  0  0  0  0  0
    6.5974    8.7705    5.5106 H   0  0  0  0  0  0  0  0  0  0  0  0
    7.0123    9.4225    7.1113 H   0  0  0  0  0  0  0  0  0  0  0  0
    9.3281    9.3209    6.5222 H   0  0  0  0  0  0  0  0  0  0  0  0
   11.1441    9.0725    4.7587 H   0  0  0  0  0  0  0  0  0  0  0  0
   10.7214    7.7379    3.6184 H   0  0  0  0  0  0  0  0  0  0  0  0
   10.9164    6.1319    8.3281 H   0  0  0  0  0  0  0  0  0  0  0  0
   12.8161    5.4081    6.0614 H   0  0  0  0  0  0  0  0  0  0  0  0
   12.6248    3.9713    8.7817 H   0  0  0  0  0  0  0  0  0  0  0  0
   14.0782    4.7407    8.0934 H   0  0  0  0  0  0  0  0  0  0  0  0
   13.3882    3.3017    7.3216 H   0  0  0  0  0  0  0  0  0  0  0  0
   10.4455    3.9090    7.3436 H   0  0  0  0  0  0  0  0  0  0  0  0
   11.3542    3.4000    5.9031 H   0  0  0  0  0  0  0  0  0  0  0  0
   10.3458    4.8611    5.8375 H   0  0  0  0  0  0  0  0  0  0  0  0
   16.3745    9.0942    8.7347 H   0  0  0  0  0  0  0  0  0  0  0  0
   17.0333    9.7246   11.0807 H   0  0  0  0  0  0  0  0  0  0  0  0
   15.6016    9.1039   12.9999 H   0  0  0  0  0  0  0  0  0  0  0  0
   13.4596    7.8313   12.6414 H   0  0  0  0  0  0  0  0  0  0  0  0
    4.7606   10.2766    3.9676 H   0  0  0  0  0  0  0  0  0  0  0  0
    2.3676   10.8624    4.3480 H   0  0  0  0  0  0  0  0  0  0  0  0
  1  2  1  0
  1 33  1  0
  1 34  1  0
  1 35  1  0
  2  3  1  0
  3  4  2  0
  3 32  1  0
  4  5  1  0
  4 36  1  0
  5  6  2  0
  5 37  1  0
  6  7  1  0
  6 31  1  0
  7  8  1  0
  7 38  1  0
  7 39  1  0
  8  9  1  0
  8 40  1  0
  8 41  1  0
  9 10  1  0
  9 42  1  0
 10 11  2  0
 10 12  1  0
 12 13  1  0
 12 43  1  0
 12 44  1  0
 13 14  1  0
 14 15  2  0
 14 16  1  0
 16 17  1  0
 16 20  1  0
 16 45  1  1
 17 18  1  0
 17 19  1  0
 17 46  1  6
 18 47  1  0
 18 48  1  0
 18 49  1  0
 19 50  1  0
 19 51  1  0
 19 52  1  0
 20 21  1  0
 20 29  1  0
 21 22  2  0
 21 23  1  0
 23 24  1  0
 23 28  2  0
 24 25  2  0
 24 53  1  0
 25 26  1  0
 25 54  1  0
 26 27  2  0
 26 55  1  0
 27 28  1  0
 27 56  1  0
 28 29  1  0
 29 30  2  0
 31 32  2  0
 31 57  1  0
 32 58  1  0
M  END

