
     RDKit          3D

 74 78  0  0  0  0  0  0  0  0999 V2000
    5.2624    3.8393    5.3712 C   0  0  0  0  0  0  0  0  0  0  0  0
    5.1511    4.7217    4.1522 C   0  0  0  0  0  0  0  0  0  0  0  0
    5.3878    4.2218    2.8663 C   0  0  0  0  0  0  0  0  0  0  0  0
    5.2743    5.0375    1.7269 C   0  0  0  0  0  0  0  0  0  0  0  0
    5.5711    4.4695    0.3511 C   0  0  0  0  0  0  0  0  0  0  0  0
    6.9992    4.3458    0.0643 N   0  0  0  0  0  0  0  0  0  0  0  0
    7.6985    3.2099    0.3173 C   0  0  0  0  0  0  0  0  0  0  0  0
    7.1895    2.1679    0.7044 O   0  0  0  0  0  0  0  0  0  0  0  0
    9.2372    3.3272    0.1023 C   0  0  1  0  0  0  0  0  0  0  0  0
    9.8328    3.9801    1.3483 C   0  0  1  0  0  0  0  0  0  0  0  0
   11.1988    4.6148    1.3293 C   0  0  0  0  0  0  0  0  0  0  0  0
    9.9699    5.4730    1.4963 C   0  0  0  0  0  0  0  0  0  0  0  0
    9.8522    1.9387   -0.1269 C   0  0  0  0  0  0  0  0  0  0  0  0
    9.4737    1.3469   -1.4870 C   0  0  0  0  0  0  0  0  0  0  0  0
    9.8321    2.3559   -2.5889 C   0  0  1  0  0  0  0  0  0  0  0  0
   10.9158    2.5438   -2.5684 H   0  0  0  0  0  0  0  0  0  0  0  0
    9.5061    1.9407   -3.9354 N   0  0  0  0  0  0  0  0  0  0  0  0
    8.2737    1.2082   -4.2060 C   0  0  0  0  0  0  0  0  0  0  0  0
    7.8244    1.2492   -5.6627 C   0  0  0  0  0  0  0  0  0  0  0  0
    8.9727    1.0083   -6.6581 C   0  0  1  0  0  0  0  0  0  0  0  0
    9.4361    0.0363   -6.4058 H   0  0  0  0  0  0  0  0  0  0  0  0
    8.4983    0.9391   -8.1035 C   0  0  0  0  0  0  0  0  0  0  0  0
    8.3884    2.1717   -8.8764 C   0  0  0  0  0  0  0  0  0  0  0  0
    7.8448    2.0365  -10.2256 C   0  0  0  0  0  0  0  0  0  0  0  0
    7.6268    0.7884  -10.7560 C   0  0  0  0  0  0  0  0  0  0  0  0
    7.1760    0.6891  -12.0307 F   0  0  0  0  0  0  0  0  0  0  0  0
    7.8404   -0.4105  -10.0466 C   0  0  0  0  0  0  0  0  0  0  0  0
    8.2873   -0.2859   -8.6949 C   0  0  0  0  0  0  0  0  0  0  0  0
   10.0343    2.1081   -6.4032 C   0  0  2  0  0  0  0  0  0  0  0  0
    9.5632    3.0808   -6.6160 H   0  0  0  0  0  0  0  0  0  0  0  0
   11.2929    2.0090   -7.3058 C   0  0  0  0  0  0  0  0  0  0  0  0
   12.3702    1.7490   -6.7979 O   0  0  0  0  0  0  0  0  0  0  0  0
   11.1162    2.2461   -8.5714 O   0  0  0  0  0  0  0  0  0  0  0  0
   10.5273    2.1105   -4.9582 C   0  0  0  0  0  0  0  0  0  0  0  0
    9.1414    3.7231   -2.2733 C   0  0  0  0  0  0  0  0  0  0  0  0
    9.5295    4.1872   -1.0122 O   0  0  0  0  0  0  0  0  0  0  0  0
    4.9130    6.3777    1.8828 C   0  0  0  0  0  0  0  0  0  0  0  0
    4.6716    6.8926    3.1634 C   0  0  0  0  0  0  0  0  0  0  0  0
    4.2293    8.3286    3.3102 C   0  0  1  0  0  0  0  0  0  0  0  0
    4.8605    9.1329    2.4341 F   0  0  0  0  0  0  0  0  0  0  0  0
    2.9095    8.4638    3.0807 F   0  0  0  0  0  0  0  0  0  0  0  0
    4.4674    8.8072    4.5425 F   0  0  0  0  0  0  0  0  0  0  0  0
    4.7926    6.0741    4.2864 C   0  0  0  0  0  0  0  0  0  0  0  0
    5.6331    2.8370    5.1129 H   0  0  0  0  0  0  0  0  0  0  0  0
    4.2831    3.7191    5.8640 H   0  0  0  0  0  0  0  0  0  0  0  0
    5.9457    4.2743    6.1187 H   0  0  0  0  0  0  0  0  0  0  0  0
    5.6704    3.1734    2.7367 H   0  0  0  0  0  0  0  0  0  0  0  0
    5.1169    5.1037   -0.4252 H   0  0  0  0  0  0  0  0  0  0  0  0
    5.1458    3.4607    0.2589 H   0  0  0  0  0  0  0  0  0  0  0  0
    7.5299    5.1861   -0.1385 H   0  0  0  0  0  0  0  0  0  0  0  0
    9.5643    3.4246    2.2526 H   0  0  0  0  0  0  0  0  0  0  0  0
   11.7144    4.6772    0.3678 H   0  0  0  0  0  0  0  0  0  0  0  0
   11.8529    4.4515    2.1898 H   0  0  0  0  0  0  0  0  0  0  0  0
    9.6994    6.1036    0.6458 H   0  0  0  0  0  0  0  0  0  0  0  0
    9.7557    5.9109    2.4746 H   0  0  0  0  0  0  0  0  0  0  0  0
    9.5054    1.2682    0.6700 H   0  0  0  0  0  0  0  0  0  0  0  0
   10.9457    2.0352   -0.0434 H   0  0  0  0  0  0  0  0  0  0  0  0
    8.3974    1.1207   -1.4935 H   0  0  0  0  0  0  0  0  0  0  0  0
   10.0134    0.4021   -1.6587 H   0  0  0  0  0  0  0  0  0  0  0  0
    7.4991    1.5822   -3.5192 H   0  0  0  0  0  0  0  0  0  0  0  0
    8.4772    0.1678   -3.8842 H   0  0  0  0  0  0  0  0  0  0  0  0
    7.3472    2.2188   -5.8782 H   0  0  0  0  0  0  0  0  0  0  0  0
    7.0437    0.4863   -5.7921 H   0  0  0  0  0  0  0  0  0  0  0  0
    8.1261    3.1004   -8.3451 H   0  0  0  0  0  0  0  0  0  0  0  0
    7.6448    2.9146  -10.8422 H   0  0  0  0  0  0  0  0  0  0  0  0
    7.6579   -1.3737  -10.5185 H   0  0  0  0  0  0  0  0  0  0  0  0
    8.4828   -1.2002   -8.1241 H   0  0  0  0  0  0  0  0  0  0  0  0
   10.0869    2.3114   -8.8244 H   0  0  0  0  0  0  0  0  0  0  0  0
   11.0895    3.0258   -4.7179 H   0  0  0  0  0  0  0  0  0  0  0  0
   11.2675    1.2962   -4.8232 H   0  0  0  0  0  0  0  0  0  0  0  0
    8.0445    3.5975   -2.3434 H   0  0  0  0  0  0  0  0  0  0  0  0
    9.4543    4.4835   -3.0032 H   0  0  0  0  0  0  0  0  0  0  0  0
    4.8175    7.0298    1.0112 H   0  0  0  0  0  0  0  0  0  0  0  0
    4.6065    6.4923    5.2781 H   0  0  0  0  0  0  0  0  0  0  0  0
  1  2  1  0
  1 44  1  0
  1 45  1  0
  1 46  1  0
  2  3  2  0
  2 43  1  0
  3  4  1  0
  3 47  1  0
  4  5  1  0
  4 37  2  0
  5  6  1  0
  5 48  1  0
  5 49  1  0
  6  7  1  0
  6 50  1  0
  7  8  2  0
  9  7  1  1
  9 10  1  0
  9 13  1  0
  9 36  1  0
 10 11  1  0
 10 12  1  0
 10 51  1  1
 11 12  1  0
 11 52  1  0
 11 53  1  0
 12 54  1  0
 12 55  1  0
 13 14  1  0
 13 56  1  0
 13 57  1  0
 14 15  1  0
 14 58  1  0
 14 59  1  0
 15 16  1  6
 15 17  1  0
 15 35  1  0
 17 18  1  0
 17 34  1  0
 18 19  1  0
 18 60  1  0
 18 61  1  0
 19 20  1  0
 19 62  1  0
 19 63  1  0
 20 21  1  6
 20 22  1  0
 20 29  1  0
 22 23  2  0
 22 28  1  0
 23 24  1  0
 23 64  1  0
 24 25  2  0
 24 65  1  0
 25 26  1  0
 25 27  1  0
 27 28  2  0
 27 66  1  0
 28 67  1  0
 29 30  1  1
 29 31  1  0
 29 34  1  0
 31 32  2  0
 31 33  1  0
 33 68  1  0
 34 69  1  0
 34 70  1  0
 35 36  1  0
 35 71  1  0
 35 72  1  0
 37 38  1  0
 37 73  1  0
 38 39  1  0
 38 43  2  0
 39 40  1  6
 39 41  1  0
 39 42  1  0
 43 74  1  0
M  END

