
     RDKit          3D

 30 32  0  0  0  0  0  0  0  0999 V2000
    2.6859    1.1817   -0.4288 O   0  0  0  0  0  0  0  0  0  0  0  0
    2.2256    0.1225   -0.1457 C   0  0  0  0  0  0  0  0  0  0  0  0
    0.4505    0.0030    0.1904 Cl  0  0  0  0  0  0  0  0  0  0  0  0
    2.9738   -1.1746   -0.0252 C   0  0  0  0  0  0  0  0  0  0  0  0
    2.3101   -2.3479   -0.2084 C   0  0  0  0  0  0  0  0  0  0  0  0
    2.9652   -3.6558   -0.1911 C   0  0  0  0  0  0  0  0  0  0  0  0
    2.3706   -4.7041   -0.3683 O   0  0  0  0  0  0  0  0  0  0  0  0
    4.3514   -3.6225    0.0488 N   0  0  0  0  0  0  0  0  0  0  0  0
    5.0190   -4.9024    0.0661 C   0  0  0  0  0  0  0  0  0  0  0  0
    5.5590   -5.4186   -1.1155 C   0  0  0  0  0  0  0  0  0  0  0  0
    6.2002   -6.6597   -1.0990 C   0  0  0  0  0  0  0  0  0  0  0  0
    6.2976   -7.3834    0.0934 C   0  0  0  0  0  0  0  0  0  0  0  0
    5.7501   -6.8654    1.2711 C   0  0  0  0  0  0  0  0  0  0  0  0
    5.1081   -5.6247    1.2598 C   0  0  0  0  0  0  0  0  0  0  0  0
    5.0723   -2.4439    0.2646 C   0  0  0  0  0  0  0  0  0  0  0  0
    6.4576   -2.4962    0.5282 C   0  0  0  0  0  0  0  0  0  0  0  0
    7.1791   -1.3310    0.7490 C   0  0  0  0  0  0  0  0  0  0  0  0
    6.5430   -0.0822    0.7129 C   0  0  0  0  0  0  0  0  0  0  0  0
    5.1820   -0.0126    0.4525 C   0  0  0  0  0  0  0  0  0  0  0  0
    4.4139   -1.1775    0.2236 C   0  0  0  0  0  0  0  0  0  0  0  0
    1.2371   -2.3767   -0.3896 H   0  0  0  0  0  0  0  0  0  0  0  0
    5.4709   -4.8472   -2.0419 H   0  0  0  0  0  0  0  0  0  0  0  0
    6.6209   -7.0640   -2.0228 H   0  0  0  0  0  0  0  0  0  0  0  0
    6.7975   -8.3550    0.1042 H   0  0  0  0  0  0  0  0  0  0  0  0
    5.8184   -7.4310    2.2034 H   0  0  0  0  0  0  0  0  0  0  0  0
    4.6709   -5.2132    2.1719 H   0  0  0  0  0  0  0  0  0  0  0  0
    6.9605   -3.4613    0.5608 H   0  0  0  0  0  0  0  0  0  0  0  0
    8.2507   -1.3969    0.9527 H   0  0  0  0  0  0  0  0  0  0  0  0
    7.1113    0.8339    0.8862 H   0  0  0  0  0  0  0  0  0  0  0  0
    4.6920    0.9573    0.4114 H   0  0  0  0  0  0  0  0  0  0  0  0
  1  2  2  0
  2  3  1  0
  2  4  1  0
  4  5  2  0
  4 20  1  0
  5  6  1  0
  5 21  1  0
  6  7  2  0
  6  8  1  0
  8  9  1  0
  8 15  1  0
  9 10  2  0
  9 14  1  0
 10 11  1  0
 10 22  1  0
 11 12  2  0
 11 23  1  0
 12 13  1  0
 12 24  1  0
 13 14  2  0
 13 25  1  0
 14 26  1  0
 15 16  1  0
 15 20  2  0
 16 17  2  0
 16 27  1  0
 17 18  1  0
 17 28  1  0
 18 19  2  0
 18 29  1  0
 19 20  1  0
 19 30  1  0
M  END

