
     RDKit          3D

 80 85  0  0  0  0  0  0  0  0999 V2000
    3.9424   -1.1100    0.7308 C   0  0  0  0  0  0  0  0  0  0  0  0
    3.9929   -0.2809   -0.4232 O   0  0  0  0  0  0  0  0  0  0  0  0
    4.5380    0.9636   -0.2561 C   0  0  0  0  0  0  0  0  0  0  0  0
    3.7123    2.0863   -0.3103 C   0  0  0  0  0  0  0  0  0  0  0  0
    4.2304    3.3889   -0.2212 C   0  0  0  0  0  0  0  0  0  0  0  0
    3.2783    4.5934   -0.2661 C   0  0  2  0  0  0  0  0  0  0  0  0
    3.8773    5.8504   -0.9134 C   0  0  0  0  0  0  0  0  0  0  0  0
    4.0404    5.8644   -2.3106 C   0  0  0  0  0  0  0  0  0  0  0  0
    4.5362    6.6792   -3.1076 O   0  0  0  0  0  0  0  0  0  0  0  0
    3.6315    4.5607   -3.0130 N   0  0  0  0  0  0  0  0  0  0  0  0
    2.5626    4.3921   -3.7770 C   0  0  0  0  0  0  0  0  0  0  0  0
    1.5527    5.4177   -3.8504 C   0  0  0  0  0  0  0  0  0  0  0  0
    0.4278    5.2304   -4.6118 C   0  0  0  0  0  0  0  0  0  0  0  0
    0.2264    4.0326   -5.3507 C   0  0  0  0  0  0  0  0  0  0  0  0
   -1.0274    3.8394   -6.1474 C   0  0  0  0  0  0  0  0  0  0  0  0
    1.2252    3.0341   -5.2943 C   0  0  0  0  0  0  0  0  0  0  0  0
    2.3813    3.1690   -4.5455 C   0  0  0  0  0  0  0  0  0  0  0  0
    3.4213    2.0865   -4.5007 C   0  0  0  0  0  0  0  0  0  0  0  0
    4.3385    6.9146   -0.0896 C   0  0  0  0  0  0  0  0  0  0  0  0
    5.0893    8.1257   -0.5412 C   0  0  0  0  0  0  0  0  0  0  0  0
    4.0180    6.9121    1.2817 N   0  0  0  0  0  0  0  0  0  0  0  0
    3.2148    5.9686    1.8267 C   0  0  0  0  0  0  0  0  0  0  0  0
    2.7176    5.8890    3.0557 N   0  0  0  0  0  0  0  0  0  0  0  0
    1.9934    4.7371    2.9866 C   0  0  0  0  0  0  0  0  0  0  0  0
    1.0955    4.1735    4.3974 S   0  0  0  0  0  0  0  0  0  0  0  0
    0.4020    2.6123    3.7007 C   0  0  0  0  0  0  0  0  0  0  0  0
   -0.4371    1.9238    4.7420 C   0  0  0  0  0  0  0  0  0  0  0  0
    0.1652    1.0521    5.6664 C   0  0  0  0  0  0  0  0  0  0  0  0
   -0.5727    0.4033    6.6564 C   0  0  0  0  0  0  0  0  0  0  0  0
   -1.9510    0.6189    6.7460 C   0  0  0  0  0  0  0  0  0  0  0  0
   -2.5789    1.4816    5.8469 C   0  0  0  0  0  0  0  0  0  0  0  0
   -1.8245    2.1279    4.8619 C   0  0  0  0  0  0  0  0  0  0  0  0
   -2.6644    3.2047    3.7612 Cl  0  0  0  0  0  0  0  0  0  0  0  0
    2.0066    4.1047    1.8228 N   0  0  0  0  0  0  0  0  0  0  0  0
    2.8008    4.9304    1.0663 N   0  0  0  0  0  0  0  0  0  0  0  0
    5.6098    3.5402   -0.0570 C   0  0  0  0  0  0  0  0  0  0  0  0
    6.4558    2.4266    0.0136 C   0  0  0  0  0  0  0  0  0  0  0  0
    5.9344    1.1301   -0.0895 C   0  0  0  0  0  0  0  0  0  0  0  0
    6.6730   -0.0108   -0.0601 O   0  0  0  0  0  0  0  0  0  0  0  0
    8.0826    0.0659    0.0166 C   0  0  0  0  0  0  0  0  0  0  0  0
    8.6718   -1.3217   -0.0935 C   0  0  0  0  0  0  0  0  0  0  0  0
    7.9948   -2.3452   -0.7715 C   0  0  0  0  0  0  0  0  0  0  0  0
    8.5764   -3.6096   -0.9023 C   0  0  0  0  0  0  0  0  0  0  0  0
    9.8408   -3.8647   -0.3632 C   0  0  0  0  0  0  0  0  0  0  0  0
   10.5204   -2.8481    0.3147 C   0  0  0  0  0  0  0  0  0  0  0  0
    9.9364   -1.5862    0.4519 C   0  0  0  0  0  0  0  0  0  0  0  0
    3.4440   -2.0424    0.4297 H   0  0  0  0  0  0  0  0  0  0  0  0
    3.3540   -0.6340    1.5359 H   0  0  0  0  0  0  0  0  0  0  0  0
    4.9505   -1.3458    1.1080 H   0  0  0  0  0  0  0  0  0  0  0  0
    2.6377    1.9206   -0.4186 H   0  0  0  0  0  0  0  0  0  0  0  0
    2.3844    4.2725   -0.8223 H   0  0  0  0  0  0  0  0  0  0  0  0
    4.3499    3.8403   -3.0562 H   0  0  0  0  0  0  0  0  0  0  0  0
    1.7191    6.3441   -3.3056 H   0  0  0  0  0  0  0  0  0  0  0  0
   -0.3259    6.0198   -4.6608 H   0  0  0  0  0  0  0  0  0  0  0  0
   -1.2421    4.7212   -6.7724 H   0  0  0  0  0  0  0  0  0  0  0  0
   -1.8941    3.7202   -5.4717 H   0  0  0  0  0  0  0  0  0  0  0  0
   -0.9780    2.9515   -6.7917 H   0  0  0  0  0  0  0  0  0  0  0  0
    1.0784    2.1156   -5.8680 H   0  0  0  0  0  0  0  0  0  0  0  0
    3.1447    1.2494   -5.1552 H   0  0  0  0  0  0  0  0  0  0  0  0
    3.5484    1.6879   -3.4799 H   0  0  0  0  0  0  0  0  0  0  0  0
    4.4057    2.4593   -4.8330 H   0  0  0  0  0  0  0  0  0  0  0  0
    4.5117    9.0561   -0.3621 H   0  0  0  0  0  0  0  0  0  0  0  0
    5.3062    8.0626   -1.6126 H   0  0  0  0  0  0  0  0  0  0  0  0
    6.0444    8.2415    0.0097 H   0  0  0  0  0  0  0  0  0  0  0  0
    4.2865    7.6934    1.8647 H   0  0  0  0  0  0  0  0  0  0  0  0
    1.2437    1.9781    3.3895 H   0  0  0  0  0  0  0  0  0  0  0  0
   -0.1796    2.8683    2.8070 H   0  0  0  0  0  0  0  0  0  0  0  0
    1.2442    0.8896    5.5974 H   0  0  0  0  0  0  0  0  0  0  0  0
   -0.0727   -0.2692    7.3575 H   0  0  0  0  0  0  0  0  0  0  0  0
   -2.5422    0.1167    7.5158 H   0  0  0  0  0  0  0  0  0  0  0  0
   -3.6534    1.6639    5.8999 H   0  0  0  0  0  0  0  0  0  0  0  0
    6.0357    4.5437    0.0101 H   0  0  0  0  0  0  0  0  0  0  0  0
    7.5273    2.5822    0.1424 H   0  0  0  0  0  0  0  0  0  0  0  0
    8.3957    0.5392    0.9661 H   0  0  0  0  0  0  0  0  0  0  0  0
    8.4664    0.7042   -0.8044 H   0  0  0  0  0  0  0  0  0  0  0  0
    7.0049   -2.1431   -1.1844 H   0  0  0  0  0  0  0  0  0  0  0  0
    8.0367   -4.4012   -1.4289 H   0  0  0  0  0  0  0  0  0  0  0  0
   10.2937   -4.8541   -0.4662 H   0  0  0  0  0  0  0  0  0  0  0  0
   11.5062   -3.0401    0.7463 H   0  0  0  0  0  0  0  0  0  0  0  0
   10.4696   -0.7989    0.9938 H   0  0  0  0  0  0  0  0  0  0  0  0
  1  2  1  0
  1 47  1  0
  1 48  1  0
  1 49  1  0
  2  3  1  0
  3  4  2  0
  3 38  1  0
  4  5  1  0
  4 50  1  0
  5  6  1  0
  5 36  2  0
  6  7  1  0
  6 35  1  0
  6 51  1  6
  7  8  1  0
  7 19  2  0
  8  9  2  0
  8 10  1  0
 10 11  1  0
 10 52  1  0
 11 12  2  0
 11 17  1  0
 12 13  1  0
 12 53  1  0
 13 14  2  0
 13 54  1  0
 14 15  1  0
 14 16  1  0
 15 55  1  0
 15 56  1  0
 15 57  1  0
 16 17  2  0
 16 58  1  0
 17 18  1  0
 18 59  1  0
 18 60  1  0
 18 61  1  0
 19 20  1  0
 19 21  1  0
 20 62  1  0
 20 63  1  0
 20 64  1  0
 21 22  1  0
 21 65  1  0
 22 23  2  0
 22 35  1  0
 23 24  1  0
 24 25  1  0
 24 34  2  0
 25 26  1  0
 26 27  1  0
 26 66  1  0
 26 67  1  0
 27 28  2  0
 27 32  1  0
 28 29  1  0
 28 68  1  0
 29 30  2  0
 29 69  1  0
 30 31  1  0
 30 70  1  0
 31 32  2  0
 31 71  1  0
 32 33  1  0
 34 35  1  0
 36 37  1  0
 36 72  1  0
 37 38  2  0
 37 73  1  0
 38 39  1  0
 39 40  1  0
 40 41  1  0
 40 74  1  0
 40 75  1  0
 41 42  2  0
 41 46  1  0
 42 43  1  0
 42 76  1  0
 43 44  2  0
 43 77  1  0
 44 45  1  0
 44 78  1  0
 45 46  2  0
 45 79  1  0
 46 80  1  0
M  END

