
     RDKit          3D

 42 44  0  0  0  0  0  0  0  0999 V2000
    4.7029    0.9199   -1.4576 C   0  0  0  0  0  0  0  0  0  0  0  0
    4.0381    0.6084   -0.1525 C   0  0  0  0  0  0  0  0  0  0  0  0
    3.1876    1.3563    0.6656 C   0  0  0  0  0  0  0  0  0  0  0  0
    2.6460    2.7474    0.4512 C   0  0  2  0  0  0  0  0  0  0  0  0
    2.0872    3.0350    1.3593 H   0  0  0  0  0  0  0  0  0  0  0  0
    1.6597    2.8370   -0.7272 C   0  0  0  0  0  0  0  0  0  0  0  0
    3.7557    3.6949    0.3018 N   0  0  0  0  0  0  0  0  0  0  0  0
    3.6049    5.0424    0.4097 C   0  0  0  0  0  0  0  0  0  0  0  0
    2.5301    5.6087    0.5582 O   0  0  0  0  0  0  0  0  0  0  0  0
    4.8853    5.8103    0.3141 C   0  0  0  0  0  0  0  0  0  0  0  0
    5.0258    7.2218    0.3327 C   0  0  0  0  0  0  0  0  0  0  0  0
    6.3833    7.4304    0.2171 C   0  0  0  0  0  0  0  0  0  0  0  0
    6.9699    6.1913    0.1357 N   0  0  0  0  0  0  0  0  0  0  0  0
    8.3606    5.9124    0.0463 C   0  0  0  0  0  0  0  0  0  0  0  0
    9.2234    6.4387    1.0174 C   0  0  0  0  0  0  0  0  0  0  0  0
   10.5971    6.2036    0.9568 C   0  0  0  0  0  0  0  0  0  0  0  0
   11.1203    5.4196   -0.0746 C   0  0  0  0  0  0  0  0  0  0  0  0
   10.2730    4.8874   -1.0480 C   0  0  0  0  0  0  0  0  0  0  0  0
    8.8976    5.1370   -0.9998 C   0  0  0  0  0  0  0  0  0  0  0  0
    7.8896    4.5117   -2.2748 Cl  0  0  0  0  0  0  0  0  0  0  0  0
    6.0640    5.2029    0.1983 N   0  0  0  0  0  0  0  0  0  0  0  0
    2.9099    0.4932    1.7552 C   0  0  0  0  0  0  0  0  0  0  0  0
    3.5213   -0.6783    1.6322 N   0  0  0  0  0  0  0  0  0  0  0  0
    4.2010   -0.5959    0.4755 N   0  0  0  0  0  0  0  0  0  0  0  0
    5.0043   -1.7155    0.0326 C   0  0  0  0  0  0  0  0  0  0  0  0
    4.5571    1.9744   -1.7245 H   0  0  0  0  0  0  0  0  0  0  0  0
    4.2991    0.3060   -2.2817 H   0  0  0  0  0  0  0  0  0  0  0  0
    5.7902    0.7381   -1.4176 H   0  0  0  0  0  0  0  0  0  0  0  0
    1.2779    3.8636   -0.8162 H   0  0  0  0  0  0  0  0  0  0  0  0
    0.8110    2.1567   -0.5572 H   0  0  0  0  0  0  0  0  0  0  0  0
    2.1428    2.5531   -1.6752 H   0  0  0  0  0  0  0  0  0  0  0  0
    4.7071    3.3419    0.3028 H   0  0  0  0  0  0  0  0  0  0  0  0
    4.2289    7.9557    0.4107 H   0  0  0  0  0  0  0  0  0  0  0  0
    6.9789    8.3388    0.1637 H   0  0  0  0  0  0  0  0  0  0  0  0
    8.7945    7.0243    1.8332 H   0  0  0  0  0  0  0  0  0  0  0  0
   11.2539    6.6207    1.7232 H   0  0  0  0  0  0  0  0  0  0  0  0
   12.1932    5.2204   -0.1275 H   0  0  0  0  0  0  0  0  0  0  0  0
   10.6687    4.2836   -1.8662 H   0  0  0  0  0  0  0  0  0  0  0  0
    2.2806    0.6941    2.6231 H   0  0  0  0  0  0  0  0  0  0  0  0
    4.8680   -2.5209    0.7637 H   0  0  0  0  0  0  0  0  0  0  0  0
    6.0731   -1.4495   -0.0165 H   0  0  0  0  0  0  0  0  0  0  0  0
    4.6839   -2.0694   -0.9605 H   0  0  0  0  0  0  0  0  0  0  0  0
  1  2  1  0
  1 26  1  0
  1 27  1  0
  1 28  1  0
  2  3  2  0
  2 24  1  0
  3  4  1  0
  3 22  1  0
  4  5  1  1
  4  6  1  0
  4  7  1  0
  6 29  1  0
  6 30  1  0
  6 31  1  0
  7  8  1  0
  7 32  1  0
  8  9  2  0
  8 10  1  0
 10 11  1  0
 10 21  2  0
 11 12  2  0
 11 33  1  0
 12 13  1  0
 12 34  1  0
 13 14  1  0
 13 21  1  0
 14 15  2  0
 14 19  1  0
 15 16  1  0
 15 35  1  0
 16 17  2  0
 16 36  1  0
 17 18  1  0
 17 37  1  0
 18 19  2  0
 18 38  1  0
 19 20  1  0
 22 23  2  0
 22 39  1  0
 23 24  1  0
 24 25  1  0
 25 40  1  0
 25 41  1  0
 25 42  1  0
M  END

