
     RDKit          3D

 75 77  0  0  0  0  0  0  0  0999 V2000
    2.7797   -0.0349    1.6326 C   0  0  0  0  0  0  0  0  0  0  0  0
    2.5304    0.4265    0.1963 C   0  0  0  0  0  0  0  0  0  0  0  0
    3.1266   -0.5101   -0.8997 C   0  0  1  0  0  0  0  0  0  0  0  0
    2.4132   -1.9103   -0.8574 C   0  0  0  0  0  0  0  0  0  0  0  0
    0.8898   -1.9318   -0.9976 C   0  0  0  0  0  0  0  0  0  0  0  0
    2.8620    0.0376   -2.3038 C   0  0  0  0  0  0  0  0  0  0  0  0
    3.6223   -0.4986   -3.4008 C   0  0  0  0  0  0  0  0  0  0  0  0
    3.4395   -0.0729   -4.6921 C   0  0  0  0  0  0  0  0  0  0  0  0
    2.4843    0.9449   -4.9648 C   0  0  0  0  0  0  0  0  0  0  0  0
    2.2622    1.4616   -6.1567 O   0  0  0  0  0  0  0  0  0  0  0  0
    2.9400    1.0180   -7.3766 C   0  0  1  0  0  0  0  0  0  0  0  0
    2.2107   -0.2060   -7.9164 C   0  0  0  0  0  0  0  0  0  0  0  0
    2.8997    2.2024   -8.3667 C   0  0  1  0  0  0  0  0  0  0  0  0
    1.5624    2.6037   -8.5760 O   0  0  0  0  0  0  0  0  0  0  0  0
    3.8648    3.4051   -8.1025 C   0  0  1  0  0  0  0  0  0  0  0  0
    5.3114    2.9026   -7.9400 C   0  0  0  0  0  0  0  0  0  0  0  0
    3.7879    4.3148   -9.3466 C   0  0  0  0  0  0  0  0  0  0  0  0
    3.4625    4.2259   -6.8619 C   0  0  0  0  0  0  0  0  0  0  0  0
    1.6838    1.4977   -3.8915 C   0  0  0  0  0  0  0  0  0  0  0  0
    0.6768    2.5629   -4.1981 C   0  0  0  0  0  0  0  0  0  0  0  0
    1.8937    1.0198   -2.6053 C   0  0  0  0  0  0  0  0  0  0  0  0
    4.6487   -0.6582   -0.7178 C   0  0  0  0  0  0  0  0  0  0  0  0
    5.3220   -1.8623   -0.4436 C   0  0  0  0  0  0  0  0  0  0  0  0
    6.7072   -1.9115   -0.3479 C   0  0  0  0  0  0  0  0  0  0  0  0
    7.5414   -0.7503   -0.5270 C   0  0  0  0  0  0  0  0  0  0  0  0
    8.9828   -0.8161   -0.4370 C   0  0  0  0  0  0  0  0  0  0  0  0
    9.7954    0.0614   -0.7606 O   0  0  0  0  0  0  0  0  0  0  0  0
    9.4790   -2.0663    0.1070 N   0  0  0  0  0  0  0  0  0  0  0  0
   10.8031   -2.4107    0.1102 C   0  0  0  0  0  0  0  0  0  0  0  0
   11.6551   -2.2769   -0.9533 N   0  0  0  0  0  0  0  0  0  0  0  0
   12.7920   -2.7844   -0.5788 N   0  0  0  0  0  0  0  0  0  0  0  0
   12.6161   -3.2178    0.6559 N   0  0  0  0  0  0  0  0  0  0  0  0
   13.3561   -3.6646    1.1855 H   0  0  0  0  0  0  0  0  0  0  0  0
   11.3986   -3.0031    1.1509 N   0  0  0  0  0  0  0  0  0  0  0  0
    6.8534    0.4925   -0.8098 C   0  0  0  0  0  0  0  0  0  0  0  0
    7.6016    1.7888   -1.0035 C   0  0  0  0  0  0  0  0  0  0  0  0
    5.4693    0.4992   -0.8875 C   0  0  0  0  0  0  0  0  0  0  0  0
    2.4037    0.7173    2.3440 H   0  0  0  0  0  0  0  0  0  0  0  0
    3.8529   -0.1795    1.8205 H   0  0  0  0  0  0  0  0  0  0  0  0
    2.2662   -0.9828    1.8607 H   0  0  0  0  0  0  0  0  0  0  0  0
    2.9742    1.4272    0.0665 H   0  0  0  0  0  0  0  0  0  0  0  0
    1.4435    0.5521    0.0538 H   0  0  0  0  0  0  0  0  0  0  0  0
    2.6922   -2.3700    0.1008 H   0  0  0  0  0  0  0  0  0  0  0  0
    2.8601   -2.5556   -1.6303 H   0  0  0  0  0  0  0  0  0  0  0  0
    0.3859   -1.3893   -0.1827 H   0  0  0  0  0  0  0  0  0  0  0  0
    0.5272   -2.9713   -0.9636 H   0  0  0  0  0  0  0  0  0  0  0  0
    0.5400   -1.5011   -1.9504 H   0  0  0  0  0  0  0  0  0  0  0  0
    4.3823   -1.2454   -3.1763 H   0  0  0  0  0  0  0  0  0  0  0  0
    4.0403   -0.4995   -5.4932 H   0  0  0  0  0  0  0  0  0  0  0  0
    3.9802    0.7797   -7.1206 H   0  0  0  0  0  0  0  0  0  0  0  0
    1.1951    0.0742   -8.2286 H   0  0  0  0  0  0  0  0  0  0  0  0
    2.1541   -1.0102   -7.1682 H   0  0  0  0  0  0  0  0  0  0  0  0
    2.7494   -0.5946   -8.7931 H   0  0  0  0  0  0  0  0  0  0  0  0
    3.2238    1.7641   -9.3259 H   0  0  0  0  0  0  0  0  0  0  0  0
    1.2361    3.0023   -7.7578 H   0  0  0  0  0  0  0  0  0  0  0  0
    5.6108    2.2490   -8.7765 H   0  0  0  0  0  0  0  0  0  0  0  0
    5.4684    2.3502   -6.9996 H   0  0  0  0  0  0  0  0  0  0  0  0
    6.0095    3.7537   -7.9258 H   0  0  0  0  0  0  0  0  0  0  0  0
    4.1345    3.7846  -10.2487 H   0  0  0  0  0  0  0  0  0  0  0  0
    4.4239    5.2036   -9.2148 H   0  0  0  0  0  0  0  0  0  0  0  0
    2.7562    4.6469   -9.5303 H   0  0  0  0  0  0  0  0  0  0  0  0
    3.5854    3.6639   -5.9245 H   0  0  0  0  0  0  0  0  0  0  0  0
    2.4197    4.5799   -6.9241 H   0  0  0  0  0  0  0  0  0  0  0  0
    4.0954    5.1235   -6.7862 H   0  0  0  0  0  0  0  0  0  0  0  0
   -0.0391    2.2224   -4.9639 H   0  0  0  0  0  0  0  0  0  0  0  0
    1.1682    3.4624   -4.6049 H   0  0  0  0  0  0  0  0  0  0  0  0
    0.1198    2.8493   -3.2971 H   0  0  0  0  0  0  0  0  0  0  0  0
    1.2948    1.4429   -1.8011 H   0  0  0  0  0  0  0  0  0  0  0  0
    4.7763   -2.7991   -0.3114 H   0  0  0  0  0  0  0  0  0  0  0  0
    7.1784   -2.8817   -0.1853 H   0  0  0  0  0  0  0  0  0  0  0  0
    8.9680   -2.4368    0.9021 H   0  0  0  0  0  0  0  0  0  0  0  0
    8.2218    2.0291   -0.1255 H   0  0  0  0  0  0  0  0  0  0  0  0
    6.8991    2.6203   -1.1796 H   0  0  0  0  0  0  0  0  0  0  0  0
    8.3167    1.7245   -1.8363 H   0  0  0  0  0  0  0  0  0  0  0  0
    4.9916    1.4649   -1.0884 H   0  0  0  0  0  0  0  0  0  0  0  0
  1  2  1  0
  1 38  1  0
  1 39  1  0
  1 40  1  0
  3  2  1  1
  2 41  1  0
  2 42  1  0
  3  4  1  0
  3  6  1  0
  3 22  1  0
  4  5  1  0
  4 43  1  0
  4 44  1  0
  5 45  1  0
  5 46  1  0
  5 47  1  0
  6  7  2  0
  6 21  1  0
  7  8  1  0
  7 48  1  0
  8  9  2  0
  8 49  1  0
  9 10  1  0
  9 19  1  0
 10 11  1  0
 11 12  1  0
 11 13  1  0
 11 50  1  1
 12 51  1  0
 12 52  1  0
 12 53  1  0
 13 14  1  0
 13 15  1  0
 13 54  1  6
 14 55  1  0
 15 16  1  6
 15 17  1  0
 15 18  1  0
 16 56  1  0
 16 57  1  0
 16 58  1  0
 17 59  1  0
 17 60  1  0
 17 61  1  0
 18 62  1  0
 18 63  1  0
 18 64  1  0
 19 20  1  0
 19 21  2  0
 20 65  1  0
 20 66  1  0
 20 67  1  0
 21 68  1  0
 22 23  2  0
 22 37  1  0
 23 24  1  0
 23 69  1  0
 24 25  2  0
 24 70  1  0
 25 26  1  0
 25 35  1  0
 26 27  2  0
 26 28  1  0
 28 29  1  0
 28 71  1  0
 29 30  1  0
 29 34  2  0
 30 31  2  0
 31 32  1  0
 32 33  1  0
 32 34  1  0
 35 36  1  0
 35 37  2  0
 36 72  1  0
 36 73  1  0
 36 74  1  0
 37 75  1  0
M  END

