
     RDKit          3D

 43 44  0  0  0  0  0  0  0  0999 V2000
    4.0886    0.6597    2.4127 C   0  0  0  0  0  0  0  0  0  0  0  0
    5.3450   -0.0699    2.0923 C   0  0  0  0  0  0  0  0  0  0  0  0
    6.6260    0.0016    2.5702 C   0  0  0  0  0  0  0  0  0  0  0  0
    7.3911   -0.9667    1.8392 C   0  0  0  0  0  0  0  0  0  0  0  0
    6.5261   -1.5616    0.9632 C   0  0  0  0  0  0  0  0  0  0  0  0
    6.6832   -2.6491   -0.0461 C   0  0  0  0  0  0  0  0  0  0  0  0
    6.2268   -3.9742    0.4165 N   0  0  0  0  0  0  0  0  0  0  0  0
    4.7816   -4.2388    0.4163 C   0  0  0  0  0  0  0  0  0  0  0  0
    7.1719   -4.8644    0.7741 C   0  0  0  0  0  0  0  0  0  0  0  0
    8.3755   -4.6422    0.7828 O   0  0  0  0  0  0  0  0  0  0  0  0
    6.6569   -6.2693    1.2643 C   0  0  0  0  0  0  0  0  0  0  0  0
    7.4763   -7.3133    0.7468 N   0  0  0  0  0  0  0  0  0  0  0  0
    8.7567   -7.5340    1.3429 C   0  0  0  0  0  0  0  0  0  0  0  0
    7.1158   -7.9995   -0.5526 C   0  0  0  0  0  0  0  0  0  0  0  0
    5.8354   -7.6098   -1.1779 C   0  0  0  0  0  0  0  0  0  0  0  0
    5.7858   -6.6661   -2.2573 C   0  0  0  0  0  0  0  0  0  0  0  0
    4.5902   -6.2190   -2.7792 C   0  0  0  0  0  0  0  0  0  0  0  0
    3.3335   -6.6802   -2.2386 C   0  0  0  0  0  0  0  0  0  0  0  0
    3.3706   -7.6613   -1.2157 C   0  0  0  0  0  0  0  0  0  0  0  0
    4.5610   -8.1269   -0.6868 C   0  0  0  0  0  0  0  0  0  0  0  0
    5.2797   -1.0188    1.1153 O   0  0  0  0  0  0  0  0  0  0  0  0
    4.2719    1.3929    3.2101 H   0  0  0  0  0  0  0  0  0  0  0  0
    3.2970   -0.0297    2.7516 H   0  0  0  0  0  0  0  0  0  0  0  0
    3.6997    1.1968    1.5312 H   0  0  0  0  0  0  0  0  0  0  0  0
    6.9820    0.6726    3.3492 H   0  0  0  0  0  0  0  0  0  0  0  0
    8.4491   -1.1972    1.9463 H   0  0  0  0  0  0  0  0  0  0  0  0
    7.7435   -2.7393   -0.3062 H   0  0  0  0  0  0  0  0  0  0  0  0
    6.1193   -2.4039   -0.9595 H   0  0  0  0  0  0  0  0  0  0  0  0
    4.2670   -3.2856    0.2493 H   0  0  0  0  0  0  0  0  0  0  0  0
    4.4417   -4.6163    1.3922 H   0  0  0  0  0  0  0  0  0  0  0  0
    4.4966   -4.9440   -0.3786 H   0  0  0  0  0  0  0  0  0  0  0  0
    5.6301   -6.4560    0.9445 H   0  0  0  0  0  0  0  0  0  0  0  0
    6.7347   -6.2438    2.3631 H   0  0  0  0  0  0  0  0  0  0  0  0
    9.3235   -6.5826    1.2488 H   0  0  0  0  0  0  0  0  0  0  0  0
    9.2809   -8.3541    0.8365 H   0  0  0  0  0  0  0  0  0  0  0  0
    8.6624   -7.7477    2.4208 H   0  0  0  0  0  0  0  0  0  0  0  0
    7.1770   -9.0712   -0.2746 H   0  0  0  0  0  0  0  0  0  0  0  0
    7.9891   -7.8038   -1.2021 H   0  0  0  0  0  0  0  0  0  0  0  0
    6.7262   -6.3040   -2.6909 H   0  0  0  0  0  0  0  0  0  0  0  0
    4.5966   -5.5229   -3.6232 H   0  0  0  0  0  0  0  0  0  0  0  0
    2.3847   -6.3307   -2.6473 H   0  0  0  0  0  0  0  0  0  0  0  0
    2.4281   -8.0764   -0.8409 H   0  0  0  0  0  0  0  0  0  0  0  0
    4.5471   -8.9146    0.0741 H   0  0  0  0  0  0  0  0  0  0  0  0
  1  2  1  0
  1 22  1  0
  1 23  1  0
  1 24  1  0
  2  3  2  0
  2 21  1  0
  3  4  1  0
  3 25  1  0
  4  5  2  0
  4 26  1  0
  5  6  1  0
  5 21  1  0
  6  7  1  0
  6 27  1  0
  6 28  1  0
  7  8  1  0
  7  9  1  0
  8 29  1  0
  8 30  1  0
  8 31  1  0
  9 10  2  0
  9 11  1  0
 11 12  1  0
 11 32  1  0
 11 33  1  0
 12 13  1  0
 12 14  1  0
 13 34  1  0
 13 35  1  0
 13 36  1  0
 14 15  1  0
 14 37  1  0
 14 38  1  0
 15 16  2  0
 15 20  1  0
 16 17  1  0
 16 39  1  0
 17 18  2  0
 17 40  1  0
 18 19  1  0
 18 41  1  0
 19 20  2  0
 19 42  1  0
 20 43  1  0
M  END

