
     RDKit          3D

 40 41  0  0  0  0  0  0  0  0999 V2000
    6.7575   -2.0861    2.7874 C   0  0  0  0  0  0  0  0  0  0  0  0
    6.1527   -3.0600    1.7635 C   0  0  1  0  0  0  0  0  0  0  0  0
    6.2710   -4.4663    2.1615 N   0  0  0  0  0  0  0  0  0  0  0  0
    4.7005   -2.7435    1.3924 C   0  0  0  0  0  0  0  0  0  0  0  0
    4.1541   -1.4552    1.5116 C   0  0  0  0  0  0  0  0  0  0  0  0
    2.8372   -1.2121    1.1125 C   0  0  0  0  0  0  0  0  0  0  0  0
    2.0301   -2.2247    0.5921 C   0  0  0  0  0  0  0  0  0  0  0  0
    2.5661   -3.5186    0.4706 C   0  0  0  0  0  0  0  0  0  0  0  0
    1.8433   -4.6151   -0.0428 N   0  0  0  0  0  0  0  0  0  0  0  0
    0.5512   -4.6669   -0.5098 C   0  0  0  0  0  0  0  0  0  0  0  0
   -0.1970   -3.7021   -0.5382 O   0  0  0  0  0  0  0  0  0  0  0  0
    0.0671   -6.0393   -0.9780 C   0  0  1  0  0  0  0  0  0  0  0  0
    1.0842   -7.1640   -1.2241 C   0  0  0  0  0  0  0  0  0  0  0  0
    0.1943   -8.4052   -1.3976 C   0  0  0  0  0  0  0  0  0  0  0  0
   -0.9935   -8.1858   -0.4253 C   0  0  0  0  0  0  0  0  0  0  0  0
   -0.9509   -6.6895    0.0069 C   0  0  2  0  0  0  0  0  0  0  0  0
   -2.3181   -6.0117    0.0579 C   0  0  0  0  0  0  0  0  0  0  0  0
    3.8903   -3.7608    0.8734 C   0  0  0  0  0  0  0  0  0  0  0  0
    7.7879   -2.3933    3.0288 H   0  0  0  0  0  0  0  0  0  0  0  0
    6.1737   -2.0805    3.7232 H   0  0  0  0  0  0  0  0  0  0  0  0
    6.8067   -1.0521    2.4124 H   0  0  0  0  0  0  0  0  0  0  0  0
    6.7426   -2.9616    0.8314 H   0  0  0  0  0  0  0  0  0  0  0  0
    5.8057   -4.6133    3.0598 H   0  0  0  0  0  0  0  0  0  0  0  0
    7.2519   -4.7089    2.3000 H   0  0  0  0  0  0  0  0  0  0  0  0
    4.7483   -0.6330    1.9119 H   0  0  0  0  0  0  0  0  0  0  0  0
    2.4235   -0.2047    1.2105 H   0  0  0  0  0  0  0  0  0  0  0  0
    1.0053   -2.0365    0.2825 H   0  0  0  0  0  0  0  0  0  0  0  0
    2.3709   -5.4778   -0.0891 H   0  0  0  0  0  0  0  0  0  0  0  0
   -0.4660   -5.8353   -1.9237 H   0  0  0  0  0  0  0  0  0  0  0  0
    1.7240   -7.3035   -0.3327 H   0  0  0  0  0  0  0  0  0  0  0  0
    1.7467   -6.9783   -2.0844 H   0  0  0  0  0  0  0  0  0  0  0  0
    0.7376   -9.3444   -1.2123 H   0  0  0  0  0  0  0  0  0  0  0  0
   -0.1685   -8.4483   -2.4374 H   0  0  0  0  0  0  0  0  0  0  0  0
   -0.9261   -8.8452    0.4542 H   0  0  0  0  0  0  0  0  0  0  0  0
   -1.9516   -8.4199   -0.9163 H   0  0  0  0  0  0  0  0  0  0  0  0
   -0.4970   -6.6325    1.0135 H   0  0  0  0  0  0  0  0  0  0  0  0
   -2.8165   -6.0663   -0.9251 H   0  0  0  0  0  0  0  0  0  0  0  0
   -2.2263   -4.9494    0.3248 H   0  0  0  0  0  0  0  0  0  0  0  0
   -2.9739   -6.5049    0.7942 H   0  0  0  0  0  0  0  0  0  0  0  0
    4.3159   -4.7641    0.7932 H   0  0  0  0  0  0  0  0  0  0  0  0
  1  2  1  0
  1 19  1  0
  1 20  1  0
  1 21  1  0
  2  3  1  0
  2  4  1  0
  2 22  1  6
  3 23  1  0
  3 24  1  0
  4  5  2  0
  4 18  1  0
  5  6  1  0
  5 25  1  0
  6  7  2  0
  6 26  1  0
  7  8  1  0
  7 27  1  0
  8  9  1  0
  8 18  2  0
  9 10  1  0
  9 28  1  0
 10 11  2  0
 10 12  1  0
 12 13  1  0
 12 16  1  0
 12 29  1  6
 13 14  1  0
 13 30  1  0
 13 31  1  0
 14 15  1  0
 14 32  1  0
 14 33  1  0
 15 16  1  0
 15 34  1  0
 15 35  1  0
 16 17  1  0
 16 36  1  1
 17 37  1  0
 17 38  1  0
 17 39  1  0
 18 40  1  0
M  END

