
     RDKit          3D

 30 32  0  0  0  0  0  0  0  0999 V2000
    1.3764   -0.1885   -1.0159 C   0  0  0  0  0  0  0  0  0  0  0  0
    2.7238   -0.1614   -0.5998 O   0  0  0  0  0  0  0  0  0  0  0  0
    3.2630   -1.3001   -0.1117 C   0  0  0  0  0  0  0  0  0  0  0  0
    4.5493   -1.1576    0.2602 N   0  0  0  0  0  0  0  0  0  0  0  0
    5.1263   -2.2768    0.7485 C   0  0  0  0  0  0  0  0  0  0  0  0
    4.4833   -3.5045    0.8734 C   0  0  0  0  0  0  0  0  0  0  0  0
    5.1612   -4.6629    1.4599 C   0  0  0  0  0  0  0  0  0  0  0  0
    4.6354   -5.7199    2.2551 C   0  0  0  0  0  0  0  0  0  0  0  0
    5.6261   -6.5371    2.6070 N   0  0  0  0  0  0  0  0  0  0  0  0
    6.6856   -5.9854    2.0442 N   0  0  0  0  0  0  0  0  0  0  0  0
    7.6114   -6.3869    2.1425 H   0  0  0  0  0  0  0  0  0  0  0  0
    6.4819   -4.8783    1.3441 N   0  0  0  0  0  0  0  0  0  0  0  0
    3.0920   -3.5023    0.5087 C   0  0  0  0  0  0  0  0  0  0  0  0
    2.5170   -4.7380   -0.0862 N   0  0  0  0  0  0  0  0  0  0  0  0
    2.9669   -5.4240   -1.1359 C   0  0  0  0  0  0  0  0  0  0  0  0
    1.9708   -6.4368   -1.4186 C   0  0  0  0  0  0  0  0  0  0  0  0
    0.9579   -6.3137   -0.5792 N   0  0  0  0  0  0  0  0  0  0  0  0
    1.2818   -5.2713    0.2290 C   0  0  0  0  0  0  0  0  0  0  0  0
    0.4233   -4.7152    1.2839 C   0  0  0  0  0  0  0  0  0  0  0  0
    2.5162   -2.3814   -0.0610 N   0  0  0  0  0  0  0  0  0  0  0  0
    1.1443    0.8242   -1.3745 H   0  0  0  0  0  0  0  0  0  0  0  0
    0.6985   -0.4531   -0.1868 H   0  0  0  0  0  0  0  0  0  0  0  0
    1.2130   -0.9167   -1.8279 H   0  0  0  0  0  0  0  0  0  0  0  0
    6.1631   -2.1870    1.0894 H   0  0  0  0  0  0  0  0  0  0  0  0
    3.6183   -5.8928    2.5989 H   0  0  0  0  0  0  0  0  0  0  0  0
    3.9163   -5.1999   -1.6167 H   0  0  0  0  0  0  0  0  0  0  0  0
    2.0233   -7.2120   -2.1836 H   0  0  0  0  0  0  0  0  0  0  0  0
   -0.4493   -5.3583    1.4436 H   0  0  0  0  0  0  0  0  0  0  0  0
    0.1087   -3.7018    0.9810 H   0  0  0  0  0  0  0  0  0  0  0  0
    1.0023   -4.5739    2.2095 H   0  0  0  0  0  0  0  0  0  0  0  0
  1  2  1  0
  1 21  1  0
  1 22  1  0
  1 23  1  0
  2  3  1  0
  3  4  2  0
  3 20  1  0
  4  5  1  0
  5  6  2  0
  5 24  1  0
  6  7  1  0
  6 13  1  0
  7  8  1  0
  7 12  2  0
  8  9  2  0
  8 25  1  0
  9 10  1  0
 10 11  1  0
 10 12  1  0
 13 14  1  0
 13 20  2  0
 14 15  1  0
 14 18  1  0
 15 16  2  0
 15 26  1  0
 16 17  1  0
 16 27  1  0
 17 18  2  0
 18 19  1  0
 19 28  1  0
 19 29  1  0
 19 30  1  0
M  END

