
     RDKit          3D

 70 74  0  0  0  0  0  0  0  0999 V2000
    4.6350   -3.7300    1.8642 C   0  0  0  0  0  0  0  0  0  0  0  0
    3.7903   -3.2022    0.8636 O   0  0  0  0  0  0  0  0  0  0  0  0
    3.1305   -4.0457    0.0188 C   0  0  0  0  0  0  0  0  0  0  0  0
    3.2187   -5.4324    0.0741 C   0  0  0  0  0  0  0  0  0  0  0  0
    2.5030   -6.2455   -0.8314 C   0  0  0  0  0  0  0  0  0  0  0  0
    2.6024   -7.6266   -0.7255 N   0  0  0  0  0  0  0  0  0  0  0  0
    1.6776   -5.6204   -1.7985 C   0  0  0  0  0  0  0  0  0  0  0  0
    0.8621   -6.4300   -2.7295 C   0  0  0  0  0  0  0  0  0  0  0  0
    0.2713   -6.0762   -3.8045 N   0  0  0  0  0  0  0  0  0  0  0  0
    1.6128   -4.2134   -1.8445 C   0  0  0  0  0  0  0  0  0  0  0  0
    2.3211   -3.4042   -0.9606 C   0  0  0  0  0  0  0  0  0  0  0  0
    2.3152   -1.9998   -0.9238 N   0  0  0  0  0  0  0  0  0  0  0  0
    1.6642   -1.0798   -1.6984 C   0  0  0  0  0  0  0  0  0  0  0  0
    0.8515   -1.4926   -2.6783 N   0  0  0  0  0  0  0  0  0  0  0  0
    0.1923   -0.5780   -3.3994 C   0  0  0  0  0  0  0  0  0  0  0  0
    0.2308    0.7390   -3.2539 N   0  0  0  0  0  0  0  0  0  0  0  0
    1.0512    1.1529   -2.2846 C   0  0  0  0  0  0  0  0  0  0  0  0
    1.2721    2.8444   -1.8838 S   0  0  0  0  0  0  0  0  0  0  0  0
    2.4261    2.4289   -0.6290 C   0  0  0  0  0  0  0  0  0  0  0  0
    2.6457    1.0789   -0.5214 C   0  0  0  0  0  0  0  0  0  0  0  0
    1.8385    0.3231   -1.4582 C   0  0  0  0  0  0  0  0  0  0  0  0
    3.6280    0.5269    0.4875 C   0  0  0  0  0  0  0  0  0  0  0  0
    4.5231    1.6220    1.0901 C   0  0  0  0  0  0  0  0  0  0  0  0
    3.7359    2.8877    1.4699 C   0  0  2  0  0  0  0  0  0  0  0  0
    2.6910    2.6216    2.5565 C   0  0  0  0  0  0  0  0  0  0  0  0
    3.3323    2.1037    3.7064 O   0  0  0  0  0  0  0  0  0  0  0  0
    2.4567    1.5883    4.6842 C   0  0  0  0  0  0  0  0  0  0  0  0
    1.8175    0.3648    4.2663 N   0  0  0  0  0  0  0  0  0  0  0  0
    2.6256   -0.8447    4.3798 C   0  0  0  0  0  0  0  0  0  0  0  0
    2.4589   -1.5273    5.7458 C   0  0  2  0  0  0  0  0  0  0  0  0
    3.1677   -2.8681    5.8390 C   0  0  0  0  0  0  0  0  0  0  0  0
    1.0786   -1.7534    6.0051 O   0  0  0  0  0  0  0  0  0  0  0  0
    0.2851   -0.5718    5.9959 C   0  0  2  0  0  0  0  0  0  0  0  0
   -1.1441   -0.9743    6.3162 C   0  0  0  0  0  0  0  0  0  0  0  0
    0.4280    0.1305    4.6365 C   0  0  0  0  0  0  0  0  0  0  0  0
    3.0856    3.4911    0.2087 C   0  0  0  0  0  0  0  0  0  0  0  0
    5.0508   -2.8714    2.4075 H   0  0  0  0  0  0  0  0  0  0  0  0
    5.4627   -4.3162    1.4279 H   0  0  0  0  0  0  0  0  0  0  0  0
    4.0767   -4.3668    2.5722 H   0  0  0  0  0  0  0  0  0  0  0  0
    3.8536   -5.9118    0.8199 H   0  0  0  0  0  0  0  0  0  0  0  0
    3.3644   -7.9751   -0.1565 H   0  0  0  0  0  0  0  0  0  0  0  0
    2.4692   -8.1671   -1.5707 H   0  0  0  0  0  0  0  0  0  0  0  0
    0.7294   -7.4865   -2.4371 H   0  0  0  0  0  0  0  0  0  0  0  0
    0.4472   -5.0833   -4.0079 H   0  0  0  0  0  0  0  0  0  0  0  0
    0.9752   -3.7191   -2.5738 H   0  0  0  0  0  0  0  0  0  0  0  0
    2.8844   -1.6283   -0.1743 H   0  0  0  0  0  0  0  0  0  0  0  0
   -0.4562   -0.9686   -4.1930 H   0  0  0  0  0  0  0  0  0  0  0  0
    4.2711   -0.2350    0.0149 H   0  0  0  0  0  0  0  0  0  0  0  0
    3.0801    0.0084    1.2966 H   0  0  0  0  0  0  0  0  0  0  0  0
    5.2979    1.9019    0.3558 H   0  0  0  0  0  0  0  0  0  0  0  0
    5.0439    1.2316    1.9762 H   0  0  0  0  0  0  0  0  0  0  0  0
    4.4466    3.6250    1.8799 H   0  0  0  0  0  0  0  0  0  0  0  0
    1.9222    1.9146    2.1974 H   0  0  0  0  0  0  0  0  0  0  0  0
    2.1717    3.5691    2.8116 H   0  0  0  0  0  0  0  0  0  0  0  0
    1.6652    2.3240    4.9270 H   0  0  0  0  0  0  0  0  0  0  0  0
    3.0961    1.4700    5.5804 H   0  0  0  0  0  0  0  0  0  0  0  0
    3.6801   -0.5868    4.1961 H   0  0  0  0  0  0  0  0  0  0  0  0
    2.3207   -1.5608    3.5934 H   0  0  0  0  0  0  0  0  0  0  0  0
    2.8607   -0.8454    6.5272 H   0  0  0  0  0  0  0  0  0  0  0  0
    2.7845   -3.5566    5.0686 H   0  0  0  0  0  0  0  0  0  0  0  0
    2.9885   -3.3269    6.8227 H   0  0  0  0  0  0  0  0  0  0  0  0
    4.2540   -2.7495    5.7003 H   0  0  0  0  0  0  0  0  0  0  0  0
    0.6611    0.1162    6.7856 H   0  0  0  0  0  0  0  0  0  0  0  0
   -1.5378   -1.6459    5.5368 H   0  0  0  0  0  0  0  0  0  0  0  0
   -1.7968   -0.0896    6.3798 H   0  0  0  0  0  0  0  0  0  0  0  0
   -1.1827   -1.5081    7.2774 H   0  0  0  0  0  0  0  0  0  0  0  0
   -0.1185    1.0872    4.6384 H   0  0  0  0  0  0  0  0  0  0  0  0
   -0.0404   -0.5152    3.8695 H   0  0  0  0  0  0  0  0  0  0  0  0
    3.8580    4.0098   -0.3882 H   0  0  0  0  0  0  0  0  0  0  0  0
    2.3526    4.2687    0.4859 H   0  0  0  0  0  0  0  0  0  0  0  0
  1  2  1  0
  1 37  1  0
  1 38  1  0
  1 39  1  0
  2  3  1  0
  3  4  2  0
  3 11  1  0
  4  5  1  0
  4 40  1  0
  5  6  1  0
  5  7  2  0
  6 41  1  0
  6 42  1  0
  7  8  1  0
  7 10  1  0
  8  9  2  0
  8 43  1  0
  9 44  1  0
 10 11  2  0
 10 45  1  0
 11 12  1  0
 12 13  1  0
 12 46  1  0
 13 14  2  0
 13 21  1  0
 14 15  1  0
 15 16  2  0
 15 47  1  0
 16 17  1  0
 17 18  1  0
 17 21  2  0
 18 19  1  0
 19 20  2  0
 19 36  1  0
 20 21  1  0
 20 22  1  0
 22 23  1  0
 22 48  1  0
 22 49  1  0
 23 24  1  0
 23 50  1  0
 23 51  1  0
 24 25  1  0
 24 36  1  0
 24 52  1  1
 25 26  1  0
 25 53  1  0
 25 54  1  0
 26 27  1  0
 27 28  1  0
 27 55  1  0
 27 56  1  0
 28 29  1  0
 28 35  1  0
 29 30  1  0
 29 57  1  0
 29 58  1  0
 30 31  1  0
 30 32  1  0
 30 59  1  1
 31 60  1  0
 31 61  1  0
 31 62  1  0
 32 33  1  0
 33 34  1  0
 33 35  1  0
 33 63  1  1
 34 64  1  0
 34 65  1  0
 34 66  1  0
 35 67  1  0
 35 68  1  0
 36 69  1  0
 36 70  1  0
M  END

