
     RDKit          3D

 35 37  0  0  0  0  0  0  0  0999 V2000
    4.3781   -1.6134    2.6916 O   0  0  0  0  0  0  0  0  0  0  0  0
    4.2662   -1.2287    1.5507 C   0  0  0  0  0  0  0  0  0  0  0  0
    3.0983   -0.4578    0.9305 C   0  0  0  0  0  0  0  0  0  0  0  0
    3.3803   -0.4693   -0.5764 C   0  0  0  0  0  0  0  0  0  0  0  0
    4.9206   -0.6555   -0.6719 C   0  0  2  0  0  0  0  0  0  0  0  0
    5.4247    0.3274   -0.7036 H   0  0  0  0  0  0  0  0  0  0  0  0
    5.3319   -1.3653   -1.9683 C   0  0  0  0  0  0  0  0  0  0  0  0
    5.5029   -0.7238   -2.9918 O   0  0  0  0  0  0  0  0  0  0  0  0
    5.4302   -2.7221   -1.8840 N   0  0  0  0  0  0  0  0  0  0  0  0
    5.7231   -3.5790   -3.0232 C   0  0  1  0  0  0  0  0  0  0  0  0
    7.1138   -4.2767   -2.9479 C   0  0  0  0  0  0  0  0  0  0  0  0
    6.9549   -5.5980   -3.7389 C   0  0  0  0  0  0  0  0  0  0  0  0
    5.5007   -5.9169   -3.5545 C   0  0  0  0  0  0  0  0  0  0  0  0
    4.7720   -7.1132   -3.8141 C   0  0  0  0  0  0  0  0  0  0  0  0
    5.3977   -8.2546   -4.1681 O   0  0  0  0  0  0  0  0  0  0  0  0
    3.3499   -7.1630   -3.7034 C   0  0  0  0  0  0  0  0  0  0  0  0
    2.6443   -5.9706   -3.3596 C   0  0  0  0  0  0  0  0  0  0  0  0
    3.3578   -4.7649   -3.1111 C   0  0  0  0  0  0  0  0  0  0  0  0
    4.7740   -4.7358   -3.1849 C   0  0  0  0  0  0  0  0  0  0  0  0
    5.2135   -1.3812    0.5539 N   0  0  0  0  0  0  0  0  0  0  0  0
    3.1246    0.5618    1.3523 H   0  0  0  0  0  0  0  0  0  0  0  0
    2.1384   -0.9054    1.2243 H   0  0  0  0  0  0  0  0  0  0  0  0
    3.0517    0.4324   -1.1092 H   0  0  0  0  0  0  0  0  0  0  0  0
    2.8855   -1.3343   -1.0462 H   0  0  0  0  0  0  0  0  0  0  0  0
    5.2323   -3.1598   -0.9887 H   0  0  0  0  0  0  0  0  0  0  0  0
    5.6946   -2.8980   -3.8959 H   0  0  0  0  0  0  0  0  0  0  0  0
    7.3310   -4.5051   -1.8911 H   0  0  0  0  0  0  0  0  0  0  0  0
    7.9255   -3.6374   -3.3252 H   0  0  0  0  0  0  0  0  0  0  0  0
    7.6522   -6.3806   -3.3835 H   0  0  0  0  0  0  0  0  0  0  0  0
    7.2071   -5.4279   -4.8103 H   0  0  0  0  0  0  0  0  0  0  0  0
    6.3560   -8.1097   -4.1816 H   0  0  0  0  0  0  0  0  0  0  0  0
    2.8427   -8.1136   -3.8673 H   0  0  0  0  0  0  0  0  0  0  0  0
    1.5563   -5.9836   -3.2839 H   0  0  0  0  0  0  0  0  0  0  0  0
    2.8069   -3.8531   -2.8659 H   0  0  0  0  0  0  0  0  0  0  0  0
    6.1610   -1.6311    0.8208 H   0  0  0  0  0  0  0  0  0  0  0  0
  1  2  2  0
  2  3  1  0
  2 20  1  0
  3  4  1  0
  3 21  1  0
  3 22  1  0
  4  5  1  0
  4 23  1  0
  4 24  1  0
  5  6  1  1
  5  7  1  0
  5 20  1  0
  7  8  2  0
  7  9  1  0
  9 10  1  0
  9 25  1  0
 10 11  1  0
 10 19  1  0
 10 26  1  6
 11 12  1  0
 11 27  1  0
 11 28  1  0
 12 13  1  0
 12 29  1  0
 12 30  1  0
 13 14  1  0
 13 19  2  0
 14 15  1  0
 14 16  2  0
 15 31  1  0
 16 17  1  0
 16 32  1  0
 17 18  2  0
 17 33  1  0
 18 19  1  0
 18 34  1  0
 20 35  1  0
M  END

