
     RDKit          3D

 38 40  0  0  0  0  0  0  0  0999 V2000
    2.7688    0.7837   -0.7496 F   0  0  0  0  0  0  0  0  0  0  0  0
    2.2746    1.7603    0.0251 C   0  0  1  0  0  0  0  0  0  0  0  0
    2.6878    2.9204   -0.5148 F   0  0  0  0  0  0  0  0  0  0  0  0
    0.9401    1.7217   -0.0570 F   0  0  0  0  0  0  0  0  0  0  0  0
    2.7441    1.5886    1.7680 S   0  0  0  0  0  0  0  0  0  0  0  0
    4.5750    1.6542    1.5698 C   0  0  0  0  0  0  0  0  0  0  0  0
    5.2284    1.8908    2.9394 C   0  0  0  0  0  0  0  0  0  0  0  0
    6.6617    1.9218    2.8504 N   0  0  0  0  0  0  0  0  0  0  0  0
    7.4360    3.0930    2.7977 C   0  0  0  0  0  0  0  0  0  0  0  0
    8.7826    2.6586    2.6597 C   0  0  0  0  0  0  0  0  0  0  0  0
    9.9616    3.5570    2.5839 C   0  0  0  0  0  0  0  0  0  0  0  0
   10.5997    3.7587    3.9124 N   0  0  0  0  0  0  0  0  0  0  0  0
   11.5844    4.6642    4.2025 C   0  0  1  0  0  0  0  0  0  0  0  0
   11.6329    5.3222    5.6147 C   0  0  0  0  0  0  0  0  0  0  0  0
   12.6536    4.3194    5.2762 C   0  0  0  0  0  0  0  0  0  0  0  0
    8.8289    1.2388    2.7151 C   0  0  0  0  0  0  0  0  0  0  0  0
    9.8746    0.2591    2.7279 C   0  0  0  0  0  0  0  0  0  0  0  0
    9.5133   -1.1021    2.8406 C   0  0  0  0  0  0  0  0  0  0  0  0
    8.1880   -1.5119    2.9473 C   0  0  0  0  0  0  0  0  0  0  0  0
    7.1214   -0.5573    2.9387 C   0  0  0  0  0  0  0  0  0  0  0  0
    7.4721    0.7948    2.8303 C   0  0  0  0  0  0  0  0  0  0  0  0
    4.8214    2.4803    0.8873 H   0  0  0  0  0  0  0  0  0  0  0  0
    4.9276    0.7081    1.1349 H   0  0  0  0  0  0  0  0  0  0  0  0
    4.9228    1.0943    3.6417 H   0  0  0  0  0  0  0  0  0  0  0  0
    4.8776    2.8464    3.3616 H   0  0  0  0  0  0  0  0  0  0  0  0
    6.9816    4.0246    2.4517 H   0  0  0  0  0  0  0  0  0  0  0  0
    9.7174    4.5664    2.2139 H   0  0  0  0  0  0  0  0  0  0  0  0
   10.7671    3.1612    1.9401 H   0  0  0  0  0  0  0  0  0  0  0  0
   10.2593    3.1343    4.6439 H   0  0  0  0  0  0  0  0  0  0  0  0
   11.8964    5.2762    3.3542 H   0  0  0  0  0  0  0  0  0  0  0  0
   10.8209    5.0483    6.2917 H   0  0  0  0  0  0  0  0  0  0  0  0
   11.8884    6.3840    5.5963 H   0  0  0  0  0  0  0  0  0  0  0  0
   12.5829    3.3198    5.7109 H   0  0  0  0  0  0  0  0  0  0  0  0
   13.6631    4.6424    5.0121 H   0  0  0  0  0  0  0  0  0  0  0  0
   10.9252    0.5406    2.6210 H   0  0  0  0  0  0  0  0  0  0  0  0
   10.3041   -1.8595    2.8426 H   0  0  0  0  0  0  0  0  0  0  0  0
    7.9524   -2.5754    3.0357 H   0  0  0  0  0  0  0  0  0  0  0  0
    6.0812   -0.8799    3.0094 H   0  0  0  0  0  0  0  0  0  0  0  0
  2  1  1  6
  2  3  1  0
  2  4  1  0
  2  5  1  0
  5  6  1  0
  6  7  1  0
  6 22  1  0
  6 23  1  0
  7  8  1  0
  7 24  1  0
  7 25  1  0
  8  9  1  0
  8 21  1  0
  9 10  2  0
  9 26  1  0
 10 11  1  0
 10 16  1  0
 11 12  1  0
 11 27  1  0
 11 28  1  0
 12 13  1  0
 12 29  1  0
 13 14  1  0
 13 15  1  0
 13 30  1  6
 14 15  1  0
 14 31  1  0
 14 32  1  0
 15 33  1  0
 15 34  1  0
 16 17  1  0
 16 21  2  0
 17 18  2  0
 17 35  1  0
 18 19  1  0
 18 36  1  0
 19 20  2  0
 19 37  1  0
 20 21  1  0
 20 38  1  0
M  END

