
     RDKit          3D

 49 51  0  0  0  0  0  0  0  0999 V2000
    4.7770   -0.7616   -2.9293 C   0  0  0  0  0  0  0  0  0  0  0  0
    4.6467   -0.3084   -1.5998 O   0  0  0  0  0  0  0  0  0  0  0  0
    4.0482   -1.1022   -0.6787 C   0  0  0  0  0  0  0  0  0  0  0  0
    3.9490   -0.5761    0.6221 C   0  0  0  0  0  0  0  0  0  0  0  0
    3.3523   -1.3274    1.6285 C   0  0  0  0  0  0  0  0  0  0  0  0
    2.8406   -2.6051    1.3660 C   0  0  0  0  0  0  0  0  0  0  0  0
    2.9395   -3.1326    0.0762 C   0  0  0  0  0  0  0  0  0  0  0  0
    2.3581   -4.4822   -0.2723 C   0  0  0  0  0  0  0  0  0  0  0  0
    2.3488   -5.3211    0.8790 O   0  0  0  0  0  0  0  0  0  0  0  0
    1.8697   -6.5737    0.7828 C   0  0  0  0  0  0  0  0  0  0  0  0
    1.8886   -7.3271    1.9856 C   0  0  0  0  0  0  0  0  0  0  0  0
    1.4218   -8.6421    2.0126 C   0  0  0  0  0  0  0  0  0  0  0  0
    0.9305   -9.2348    0.8547 C   0  0  0  0  0  0  0  0  0  0  0  0
    0.9065   -8.4948   -0.3592 C   0  0  0  0  0  0  0  0  0  0  0  0
    0.4144   -9.1206   -1.5394 C   0  0  0  0  0  0  0  0  0  0  0  0
    0.3826   -8.4613   -2.7023 N   0  0  0  0  0  0  0  0  0  0  0  0
   -0.0610   -9.0409   -3.7383 N   0  0  0  0  0  0  0  0  0  0  0  0
    0.1494   -8.4831   -5.1576 C   0  0  0  0  0  0  0  0  0  0  0  0
    1.2585   -8.8113   -5.6056 O   0  0  0  0  0  0  0  0  0  0  0  0
   -0.9575   -7.8010   -5.7032 C   0  0  0  0  0  0  0  0  0  0  0  0
   -0.8512   -7.3210   -7.0526 C   0  0  0  0  0  0  0  0  0  0  0  0
   -1.9048   -6.6486   -7.6515 C   0  0  0  0  0  0  0  0  0  0  0  0
   -3.1028   -6.4210   -6.9595 C   0  0  0  0  0  0  0  0  0  0  0  0
   -4.2040   -5.7600   -7.4741 O   0  0  0  0  0  0  0  0  0  0  0  0
   -3.2361   -6.8825   -5.6297 C   0  0  0  0  0  0  0  0  0  0  0  0
   -4.4055   -6.6555   -4.9644 O   0  0  0  0  0  0  0  0  0  0  0  0
   -2.1948   -7.5512   -5.0105 C   0  0  0  0  0  0  0  0  0  0  0  0
    1.3798   -7.1530   -0.3827 C   0  0  0  0  0  0  0  0  0  0  0  0
    3.5472   -2.3844   -0.9460 C   0  0  0  0  0  0  0  0  0  0  0  0
    5.2784    0.0415   -3.4856 H   0  0  0  0  0  0  0  0  0  0  0  0
    3.7946   -0.9591   -3.3948 H   0  0  0  0  0  0  0  0  0  0  0  0
    5.3917   -1.6776   -2.9939 H   0  0  0  0  0  0  0  0  0  0  0  0
    4.3514    0.4210    0.8107 H   0  0  0  0  0  0  0  0  0  0  0  0
    3.2815   -0.9129    2.6375 H   0  0  0  0  0  0  0  0  0  0  0  0
    2.3757   -3.1907    2.1597 H   0  0  0  0  0  0  0  0  0  0  0  0
    2.9475   -4.9570   -1.0768 H   0  0  0  0  0  0  0  0  0  0  0  0
    1.3221   -4.3701   -0.6462 H   0  0  0  0  0  0  0  0  0  0  0  0
    2.2805   -6.8462    2.8836 H   0  0  0  0  0  0  0  0  0  0  0  0
    1.4458   -9.2027    2.9491 H   0  0  0  0  0  0  0  0  0  0  0  0
    0.5651  -10.2635    0.8671 H   0  0  0  0  0  0  0  0  0  0  0  0
    0.0610  -10.1630   -1.4897 H   0  0  0  0  0  0  0  0  0  0  0  0
   -0.3472  -10.0320   -3.6573 H   0  0  0  0  0  0  0  0  0  0  0  0
    0.0759   -7.5018   -7.5969 H   0  0  0  0  0  0  0  0  0  0  0  0
   -1.8068   -6.2900   -8.6824 H   0  0  0  0  0  0  0  0  0  0  0  0
   -4.0354   -5.5235   -8.3934 H   0  0  0  0  0  0  0  0  0  0  0  0
   -4.9870   -6.1829   -5.5791 H   0  0  0  0  0  0  0  0  0  0  0  0
   -2.3556   -7.8722   -3.9815 H   0  0  0  0  0  0  0  0  0  0  0  0
    1.3463   -6.6185   -1.3294 H   0  0  0  0  0  0  0  0  0  0  0  0
    3.6265   -2.8133   -1.9460 H   0  0  0  0  0  0  0  0  0  0  0  0
  1  2  1  0
  1 30  1  0
  1 31  1  0
  1 32  1  0
  2  3  1  0
  3  4  2  0
  3 29  1  0
  4  5  1  0
  4 33  1  0
  5  6  2  0
  5 34  1  0
  6  7  1  0
  6 35  1  0
  7  8  1  0
  7 29  2  0
  8  9  1  0
  8 36  1  0
  8 37  1  0
  9 10  1  0
 10 11  2  0
 10 28  1  0
 11 12  1  0
 11 38  1  0
 12 13  2  0
 12 39  1  0
 13 14  1  0
 13 40  1  0
 14 15  1  0
 14 28  2  0
 15 16  2  0
 15 41  1  0
 16 17  1  0
 17 18  1  0
 17 42  1  0
 18 19  2  0
 18 20  1  0
 20 21  2  0
 20 27  1  0
 21 22  1  0
 21 43  1  0
 22 23  2  0
 22 44  1  0
 23 24  1  0
 23 25  1  0
 24 45  1  0
 25 26  1  0
 25 27  2  0
 26 46  1  0
 27 47  1  0
 28 48  1  0
 29 49  1  0
M  END

