
     RDKit          3D

 36 36  0  0  0  0  0  0  0  0999 V2000
    3.1780   -2.2127   -1.3229 C   0  0  0  0  0  0  0  0  0  0  0  0
    3.7036   -0.8802   -0.8218 C   0  0  0  0  0  0  0  0  0  0  0  0
    4.1121   -1.0288    0.5233 O   0  0  0  0  0  0  0  0  0  0  0  0
    4.6236    0.1345    1.1459 C   0  0  1  0  0  0  0  0  0  0  0  0
    3.4904    0.9983    1.7456 C   0  0  0  0  0  0  0  0  0  0  0  0
    3.9007    2.4169    2.1392 C   0  0  0  0  0  0  0  0  0  0  0  0
    5.6296   -0.2756    2.2326 C   0  0  0  0  0  0  0  0  0  0  0  0
    6.3521    0.5660    2.7257 O   0  0  0  0  0  0  0  0  0  0  0  0
    5.6616   -1.7337    2.6487 C   0  0  0  0  0  0  0  0  0  0  0  0
    6.5732   -2.0389    3.8326 C   0  0  1  0  0  0  0  0  0  0  0  0
    6.0888   -1.5020    5.1956 C   0  0  0  0  0  0  0  0  0  0  0  0
    6.8334   -2.3470    6.2628 C   0  0  0  0  0  0  0  0  0  0  0  0
    7.4269   -3.5669    5.5021 C   0  0  0  0  0  0  0  0  0  0  0  0
    6.7650   -3.5385    4.1143 C   0  0  0  0  0  0  0  0  0  0  0  0
    2.8572   -2.1302   -2.3732 H   0  0  0  0  0  0  0  0  0  0  0  0
    2.3170   -2.5406   -0.7202 H   0  0  0  0  0  0  0  0  0  0  0  0
    3.9572   -2.9877   -1.2564 H   0  0  0  0  0  0  0  0  0  0  0  0
    2.9175   -0.1038   -0.9126 H   0  0  0  0  0  0  0  0  0  0  0  0
    4.5595   -0.5411   -1.4418 H   0  0  0  0  0  0  0  0  0  0  0  0
    5.1914    0.7446    0.4145 H   0  0  0  0  0  0  0  0  0  0  0  0
    3.0638    0.4614    2.6111 H   0  0  0  0  0  0  0  0  0  0  0  0
    2.6859    1.0406    0.9922 H   0  0  0  0  0  0  0  0  0  0  0  0
    4.7071    2.4125    2.8860 H   0  0  0  0  0  0  0  0  0  0  0  0
    3.0427    2.9678    2.5560 H   0  0  0  0  0  0  0  0  0  0  0  0
    4.2667    2.9804    1.2647 H   0  0  0  0  0  0  0  0  0  0  0  0
    5.9622   -2.3037    1.7508 H   0  0  0  0  0  0  0  0  0  0  0  0
    4.6239   -2.0665    2.8333 H   0  0  0  0  0  0  0  0  0  0  0  0
    7.5633   -1.5953    3.6236 H   0  0  0  0  0  0  0  0  0  0  0  0
    4.9989   -1.6648    5.2767 H   0  0  0  0  0  0  0  0  0  0  0  0
    6.2622   -0.4217    5.2996 H   0  0  0  0  0  0  0  0  0  0  0  0
    6.1476   -2.6643    7.0641 H   0  0  0  0  0  0  0  0  0  0  0  0
    7.6304   -1.7647    6.7510 H   0  0  0  0  0  0  0  0  0  0  0  0
    7.2680   -4.5198    6.0307 H   0  0  0  0  0  0  0  0  0  0  0  0
    8.5171   -3.4465    5.3891 H   0  0  0  0  0  0  0  0  0  0  0  0
    5.7770   -4.0339    4.1478 H   0  0  0  0  0  0  0  0  0  0  0  0
    7.3580   -4.0528    3.3400 H   0  0  0  0  0  0  0  0  0  0  0  0
  1  2  1  0
  1 15  1  0
  1 16  1  0
  1 17  1  0
  2  3  1  0
  2 18  1  0
  2 19  1  0
  3  4  1  0
  4  5  1  0
  4  7  1  0
  4 20  1  6
  5  6  1  0
  5 21  1  0
  5 22  1  0
  6 23  1  0
  6 24  1  0
  6 25  1  0
  7  8  2  0
  7  9  1  0
  9 10  1  0
  9 26  1  0
  9 27  1  0
 10 11  1  0
 10 14  1  0
 10 28  1  6
 11 12  1  0
 11 29  1  0
 11 30  1  0
 12 13  1  0
 12 31  1  0
 12 32  1  0
 13 14  1  0
 13 33  1  0
 13 34  1  0
 14 35  1  0
 14 36  1  0
M  END

