
     RDKit          3D

 37 39  0  0  0  0  0  0  0  0999 V2000
    1.0347   -0.6094   -0.7526 C   0  0  0  0  0  0  0  0  0  0  0  0
    2.5545   -0.6083   -0.8645 C   0  0  0  0  0  0  0  0  0  0  0  0
    3.1665    1.0896   -1.1896 S   0  0  1  0  0  0  0  0  0  0  0  0
    2.6541    1.4512   -2.5282 O   0  0  0  0  0  0  0  0  0  0  0  0
    2.8145    1.8759    0.0112 O   0  0  0  0  0  0  0  0  0  0  0  0
    4.9144    1.0029   -1.2920 C   0  0  0  0  0  0  0  0  0  0  0  0
    5.7178    1.0848   -0.0958 C   0  0  0  0  0  0  0  0  0  0  0  0
    7.0923    0.9464   -0.1355 C   0  0  0  0  0  0  0  0  0  0  0  0
    7.7419    0.7160   -1.3842 C   0  0  0  0  0  0  0  0  0  0  0  0
    6.9443    0.7217   -2.5829 C   0  0  0  0  0  0  0  0  0  0  0  0
    5.5433    0.8509   -2.5565 C   0  0  0  0  0  0  0  0  0  0  0  0
    7.6175    0.5912   -3.7754 N   0  0  0  0  0  0  0  0  0  0  0  0
    8.9918    0.4079   -3.8986 C   0  0  0  0  0  0  0  0  0  0  0  0
    9.5127    0.3323   -4.9886 O   0  0  0  0  0  0  0  0  0  0  0  0
    9.7463    0.2295   -2.5552 C   0  0  1  0  0  0  0  0  0  0  0  0
   11.1858    0.6829   -2.6378 C   0  0  0  0  0  0  0  0  0  0  0  0
   11.5917    1.8889   -2.0507 C   0  0  0  0  0  0  0  0  0  0  0  0
   12.9246    2.2982   -2.1423 C   0  0  0  0  0  0  0  0  0  0  0  0
   13.8578    1.5118   -2.8241 C   0  0  0  0  0  0  0  0  0  0  0  0
   13.4543    0.3091   -3.4133 C   0  0  0  0  0  0  0  0  0  0  0  0
   12.1246   -0.1048   -3.3198 C   0  0  0  0  0  0  0  0  0  0  0  0
    9.0992    0.8682   -1.4756 O   0  0  0  0  0  0  0  0  0  0  0  0
    0.6654   -1.6283   -0.5521 H   0  0  0  0  0  0  0  0  0  0  0  0
    0.5796   -0.2496   -1.6870 H   0  0  0  0  0  0  0  0  0  0  0  0
    0.7100    0.0484    0.0669 H   0  0  0  0  0  0  0  0  0  0  0  0
    2.9159   -1.2260   -1.7009 H   0  0  0  0  0  0  0  0  0  0  0  0
    3.0440   -0.9354    0.0657 H   0  0  0  0  0  0  0  0  0  0  0  0
    5.2062    1.2782    0.8496 H   0  0  0  0  0  0  0  0  0  0  0  0
    7.6984    1.0300    0.7678 H   0  0  0  0  0  0  0  0  0  0  0  0
    4.9475    0.7826   -3.4682 H   0  0  0  0  0  0  0  0  0  0  0  0
    7.1177    0.7305   -4.6543 H   0  0  0  0  0  0  0  0  0  0  0  0
    9.7089   -0.8700   -2.3871 H   0  0  0  0  0  0  0  0  0  0  0  0
   10.8617    2.4980   -1.5157 H   0  0  0  0  0  0  0  0  0  0  0  0
   13.2341    3.2384   -1.6791 H   0  0  0  0  0  0  0  0  0  0  0  0
   14.8992    1.8351   -2.8965 H   0  0  0  0  0  0  0  0  0  0  0  0
   14.1787   -0.3112   -3.9466 H   0  0  0  0  0  0  0  0  0  0  0  0
   11.8144   -1.0436   -3.7850 H   0  0  0  0  0  0  0  0  0  0  0  0
  1  2  1  0
  1 23  1  0
  1 24  1  0
  1 25  1  0
  3  2  1  1
  2 26  1  0
  2 27  1  0
  3  4  2  0
  3  5  2  0
  3  6  1  0
  6  7  2  0
  6 11  1  0
  7  8  1  0
  7 28  1  0
  8  9  2  0
  8 29  1  0
  9 10  1  0
  9 22  1  0
 10 11  2  0
 10 12  1  0
 11 30  1  0
 12 13  1  0
 12 31  1  0
 13 14  2  0
 13 15  1  0
 15 16  1  0
 15 22  1  0
 15 32  1  1
 16 17  2  0
 16 21  1  0
 17 18  1  0
 17 33  1  0
 18 19  2  0
 18 34  1  0
 19 20  1  0
 19 35  1  0
 20 21  2  0
 20 36  1  0
 21 37  1  0
M  END

