
     RDKit          3D

 70 75  0  0  0  0  0  0  0  0999 V2000
    3.4353    0.7582   -5.5400 O   0  0  0  0  0  0  0  0  0  0  0  0
    3.7981    0.3016   -4.4708 C   0  0  0  0  0  0  0  0  0  0  0  0
    5.0285   -0.3834   -4.3665 N   0  0  0  0  0  0  0  0  0  0  0  0
    5.5610   -0.4222   -5.2316 H   0  0  0  0  0  0  0  0  0  0  0  0
    5.5722   -0.9819   -3.2374 C   0  0  0  0  0  0  0  0  0  0  0  0
    6.2886   -2.6343   -3.5781 S   0  0  0  0  0  0  0  0  0  0  0  0
    4.8645   -0.8050   -2.0500 N   0  0  0  0  0  0  0  0  0  0  0  0
    5.5047   -1.2204   -0.7867 C   0  0  0  0  0  0  0  0  0  0  0  0
    6.2895   -0.1355   -0.1055 C   0  0  0  0  0  0  0  0  0  0  0  0
    5.7676    0.7010    0.7719 N   0  0  0  0  0  0  0  0  0  0  0  0
    6.7736    1.5595    1.1141 C   0  0  0  0  0  0  0  0  0  0  0  0
    7.9367    1.2433    0.4398 C   0  0  0  0  0  0  0  0  0  0  0  0
    9.2966    1.8704    0.4944 C   0  0  0  0  0  0  0  0  0  0  0  0
    9.7605    2.3785   -0.7869 N   0  0  0  0  0  0  0  0  0  0  0  0
    8.9814    3.4717   -1.3640 C   0  0  0  0  0  0  0  0  0  0  0  0
    9.8436    3.9464   -2.5465 C   0  0  0  0  0  0  0  0  0  0  0  0
   11.2933    3.5421   -2.1570 C   0  0  0  0  0  0  0  0  0  0  0  0
   11.1427    2.8489   -0.7911 C   0  0  0  0  0  0  0  0  0  0  0  0
    7.6125    0.1496   -0.3480 N   0  0  0  0  0  0  0  0  0  0  0  0
    8.5306   -0.5865   -1.2124 C   0  0  0  0  0  0  0  0  0  0  0  0
    9.1444   -1.8237   -0.5798 C   0  0  0  0  0  0  0  0  0  0  0  0
    9.6571   -2.8321   -1.4116 C   0  0  0  0  0  0  0  0  0  0  0  0
   10.2746   -3.9601   -0.8739 C   0  0  0  0  0  0  0  0  0  0  0  0
   10.3945   -4.1312    0.5185 C   0  0  0  0  0  0  0  0  0  0  0  0
   11.0494   -5.3358    1.0923 C   0  0  0  0  0  0  0  0  0  0  0  0
   12.1662   -5.9225    0.4668 C   0  0  0  0  0  0  0  0  0  0  0  0
   12.7827   -7.0522    1.0019 C   0  0  0  0  0  0  0  0  0  0  0  0
   12.2953   -7.6251    2.1823 C   0  0  0  0  0  0  0  0  0  0  0  0
   12.9946   -8.8138    2.7911 C   0  0  1  0  0  0  0  0  0  0  0  0
   13.5512   -9.6012    1.8532 F   0  0  0  0  0  0  0  0  0  0  0  0
   13.9875   -8.4352    3.6208 F   0  0  0  0  0  0  0  0  0  0  0  0
   12.1532   -9.5754    3.5128 F   0  0  0  0  0  0  0  0  0  0  0  0
   11.1839   -7.0586    2.8164 C   0  0  0  0  0  0  0  0  0  0  0  0
   10.5712   -5.9290    2.2762 C   0  0  0  0  0  0  0  0  0  0  0  0
    9.8657   -3.1249    1.3460 C   0  0  0  0  0  0  0  0  0  0  0  0
    9.2531   -1.9914    0.8076 C   0  0  0  0  0  0  0  0  0  0  0  0
    3.6825   -0.1101   -2.0541 C   0  0  0  0  0  0  0  0  0  0  0  0
    3.1196    0.4011   -3.1923 C   0  0  0  0  0  0  0  0  0  0  0  0
    1.7932    1.0521   -2.9117 C   0  0  0  0  0  0  0  0  0  0  0  0
    1.8138    1.2073   -1.3687 C   0  0  0  0  0  0  0  0  0  0  0  0
    2.8244    0.1578   -0.8400 C   0  0  0  0  0  0  0  0  0  0  0  0
    6.1355   -2.0934   -1.0059 H   0  0  0  0  0  0  0  0  0  0  0  0
    4.7214   -1.5510   -0.0947 H   0  0  0  0  0  0  0  0  0  0  0  0
    6.6256    2.3688    1.8288 H   0  0  0  0  0  0  0  0  0  0  0  0
   10.0406    1.1335    0.8467 H   0  0  0  0  0  0  0  0  0  0  0  0
    9.2603    2.6685    1.2708 H   0  0  0  0  0  0  0  0  0  0  0  0
    8.8454    4.2965   -0.6263 H   0  0  0  0  0  0  0  0  0  0  0  0
    7.9774    3.1327   -1.6604 H   0  0  0  0  0  0  0  0  0  0  0  0
    9.7341    5.0277   -2.7159 H   0  0  0  0  0  0  0  0  0  0  0  0
    9.5371    3.4397   -3.4737 H   0  0  0  0  0  0  0  0  0  0  0  0
   11.9738    4.4043   -2.0963 H   0  0  0  0  0  0  0  0  0  0  0  0
   11.7147    2.8474   -2.8988 H   0  0  0  0  0  0  0  0  0  0  0  0
   11.3206    3.5774    0.0340 H   0  0  0  0  0  0  0  0  0  0  0  0
   11.8439    2.0116   -0.6418 H   0  0  0  0  0  0  0  0  0  0  0  0
    9.3142    0.1300   -1.5078 H   0  0  0  0  0  0  0  0  0  0  0  0
    8.0012   -0.8643   -2.1357 H   0  0  0  0  0  0  0  0  0  0  0  0
    9.5485   -2.7418   -2.4957 H   0  0  0  0  0  0  0  0  0  0  0  0
   10.6395   -4.7388   -1.5477 H   0  0  0  0  0  0  0  0  0  0  0  0
   12.5722   -5.4749   -0.4428 H   0  0  0  0  0  0  0  0  0  0  0  0
   13.6482   -7.4907    0.5014 H   0  0  0  0  0  0  0  0  0  0  0  0
   10.7879   -7.5130    3.7265 H   0  0  0  0  0  0  0  0  0  0  0  0
    9.6881   -5.5167    2.7687 H   0  0  0  0  0  0  0  0  0  0  0  0
    9.9546   -3.2149    2.4310 H   0  0  0  0  0  0  0  0  0  0  0  0
    8.8562   -1.2291    1.4822 H   0  0  0  0  0  0  0  0  0  0  0  0
    0.9578    0.4095   -3.2491 H   0  0  0  0  0  0  0  0  0  0  0  0
    1.6750    2.0115   -3.4398 H   0  0  0  0  0  0  0  0  0  0  0  0
    0.8196    1.0971   -0.9115 H   0  0  0  0  0  0  0  0  0  0  0  0
    2.1808    2.2132   -1.1096 H   0  0  0  0  0  0  0  0  0  0  0  0
    2.3233   -0.7802   -0.5326 H   0  0  0  0  0  0  0  0  0  0  0  0
    3.4102    0.5122    0.0214 H   0  0  0  0  0  0  0  0  0  0  0  0
  1  2  2  0
  2  3  1  0
  2 38  1  0
  3  4  1  0
  3  5  1  0
  5  6  2  0
  5  7  1  0
  7  8  1  0
  7 37  1  0
  8  9  1  0
  8 42  1  0
  8 43  1  0
  9 10  2  0
  9 19  1  0
 10 11  1  0
 11 12  2  0
 11 44  1  0
 12 13  1  0
 12 19  1  0
 13 14  1  0
 13 45  1  0
 13 46  1  0
 14 15  1  0
 14 18  1  0
 15 16  1  0
 15 47  1  0
 15 48  1  0
 16 17  1  0
 16 49  1  0
 16 50  1  0
 17 18  1  0
 17 51  1  0
 17 52  1  0
 18 53  1  0
 18 54  1  0
 19 20  1  0
 20 21  1  0
 20 55  1  0
 20 56  1  0
 21 22  2  0
 21 36  1  0
 22 23  1  0
 22 57  1  0
 23 24  2  0
 23 58  1  0
 24 25  1  0
 24 35  1  0
 25 26  2  0
 25 34  1  0
 26 27  1  0
 26 59  1  0
 27 28  2  0
 27 60  1  0
 28 29  1  0
 28 33  1  0
 29 30  1  6
 29 31  1  0
 29 32  1  0
 33 34  2  0
 33 61  1  0
 34 62  1  0
 35 36  2  0
 35 63  1  0
 36 64  1  0
 37 38  2  0
 37 41  1  0
 38 39  1  0
 39 40  1  0
 39 65  1  0
 39 66  1  0
 40 41  1  0
 40 67  1  0
 40 68  1  0
 41 69  1  0
 41 70  1  0
M  END

