
     RDKit          3D

 38 40  0  0  0  0  0  0  0  0999 V2000
    1.2608    0.1577   -1.7384 O   0  0  0  0  0  0  0  0  0  0  0  0
    2.4660    0.2200   -1.5013 C   0  0  0  0  0  0  0  0  0  0  0  0
    3.1826    1.4566   -1.3234 C   0  0  0  0  0  0  0  0  0  0  0  0
    4.5228    1.4683   -1.0231 C   0  0  0  0  0  0  0  0  0  0  0  0
    5.3453    2.5193   -0.8158 N   0  0  0  0  0  0  0  0  0  0  0  0
    5.1711    3.9000   -0.9132 C   0  0  0  0  0  0  0  0  0  0  0  0
    4.1447    4.5442   -1.6209 C   0  0  0  0  0  0  0  0  0  0  0  0
    4.0779    5.9404   -1.6727 C   0  0  0  0  0  0  0  0  0  0  0  0
    5.0390    6.7162   -1.0252 C   0  0  0  0  0  0  0  0  0  0  0  0
    6.0800    6.0909   -0.3290 C   0  0  0  0  0  0  0  0  0  0  0  0
    6.1530    4.7000   -0.2709 C   0  0  0  0  0  0  0  0  0  0  0  0
    7.1413    4.0280    0.3791 O   0  0  0  0  0  0  0  0  0  0  0  0
    5.2816    0.1518   -0.8337 C   0  0  0  0  0  0  0  0  0  0  0  0
    6.4638    0.2120   -0.4999 O   0  0  0  0  0  0  0  0  0  0  0  0
    4.5752   -1.0839   -1.0549 C   0  0  0  0  0  0  0  0  0  0  0  0
    3.2431   -1.0948   -1.3895 C   0  0  0  0  0  0  0  0  0  0  0  0
    2.4261   -2.1444   -1.6241 N   0  0  0  0  0  0  0  0  0  0  0  0
    2.6377   -3.5211   -1.6984 C   0  0  0  0  0  0  0  0  0  0  0  0
    3.8796   -4.1467   -1.8869 C   0  0  0  0  0  0  0  0  0  0  0  0
    3.9736   -5.5398   -1.9716 C   0  0  0  0  0  0  0  0  0  0  0  0
    2.8285   -6.3303   -1.8772 C   0  0  0  0  0  0  0  0  0  0  0  0
    1.5793   -5.7228   -1.7062 C   0  0  0  0  0  0  0  0  0  0  0  0
    1.4769   -4.3353   -1.6188 C   0  0  0  0  0  0  0  0  0  0  0  0
    0.2951   -3.6795   -1.4623 O   0  0  0  0  0  0  0  0  0  0  0  0
    2.5800    2.3570   -1.4116 H   0  0  0  0  0  0  0  0  0  0  0  0
    6.2683    2.2044   -0.4953 H   0  0  0  0  0  0  0  0  0  0  0  0
    3.4081    3.9557   -2.1626 H   0  0  0  0  0  0  0  0  0  0  0  0
    3.2690    6.4168   -2.2309 H   0  0  0  0  0  0  0  0  0  0  0  0
    4.9894    7.8067   -1.0602 H   0  0  0  0  0  0  0  0  0  0  0  0
    6.8445    6.6868    0.1792 H   0  0  0  0  0  0  0  0  0  0  0  0
    7.7868    4.6491    0.7398 H   0  0  0  0  0  0  0  0  0  0  0  0
    5.1632   -1.9857   -0.9043 H   0  0  0  0  0  0  0  0  0  0  0  0
    1.4549   -1.8324   -1.7402 H   0  0  0  0  0  0  0  0  0  0  0  0
    4.7782   -3.5446   -1.9989 H   0  0  0  0  0  0  0  0  0  0  0  0
    4.9521   -6.0019   -2.1191 H   0  0  0  0  0  0  0  0  0  0  0  0
    2.8974   -7.4185   -1.9398 H   0  0  0  0  0  0  0  0  0  0  0  0
    0.6713   -6.3301   -1.6360 H   0  0  0  0  0  0  0  0  0  0  0  0
   -0.4389   -4.3070   -1.4688 H   0  0  0  0  0  0  0  0  0  0  0  0
  1  2  2  0
  2  3  1  0
  2 16  1  0
  3  4  2  0
  3 25  1  0
  4  5  1  0
  4 13  1  0
  5  6  1  0
  5 26  1  0
  6  7  2  0
  6 11  1  0
  7  8  1  0
  7 27  1  0
  8  9  2  0
  8 28  1  0
  9 10  1  0
  9 29  1  0
 10 11  2  0
 10 30  1  0
 11 12  1  0
 12 31  1  0
 13 14  2  0
 13 15  1  0
 15 16  2  0
 15 32  1  0
 16 17  1  0
 17 18  1  0
 17 33  1  0
 18 19  2  0
 18 23  1  0
 19 20  1  0
 19 34  1  0
 20 21  2  0
 20 35  1  0
 21 22  1  0
 21 36  1  0
 22 23  2  0
 22 37  1  0
 23 24  1  0
 24 38  1  0
M  END

