
     RDKit          3D

 32 32  0  0  0  0  0  0  0  0999 V2000
    0.4698    0.6070    0.4426 O   0  0  0  0  0  0  0  0  0  0  0  0
    1.7342    0.4518    0.3934 C   0  0  0  0  0  0  0  0  0  0  0  0
    2.1858   -0.5469    1.4735 C   0  0  0  0  0  0  0  0  0  0  0  0
    2.2882   -1.9841    0.9416 C   0  0  0  0  0  0  0  0  0  0  0  0
    2.7200   -2.9720    2.0333 C   0  0  0  0  0  0  0  0  0  0  0  0
    2.8241   -4.4135    1.5150 C   0  0  0  0  0  0  0  0  0  0  0  0
    3.2611   -5.3795    2.6059 C   0  0  0  0  0  0  0  0  0  0  0  0
    3.3838   -7.2324    1.9491 Br  0  0  0  0  0  0  0  0  0  0  0  0
    2.5845    1.0666   -0.5416 C   0  0  0  0  0  0  0  0  0  0  0  0
    2.0425    1.9496   -1.5369 C   0  0  0  0  0  0  0  0  0  0  0  0
    2.8936    2.5491   -2.4431 C   0  0  0  0  0  0  0  0  0  0  0  0
    2.3757    3.3726   -3.3642 F   0  0  0  0  0  0  0  0  0  0  0  0
    4.2755    2.3415   -2.4455 C   0  0  0  0  0  0  0  0  0  0  0  0
    4.8069    1.4717   -1.4691 C   0  0  0  0  0  0  0  0  0  0  0  0
    6.2907    1.2009   -1.4858 C   0  0  1  0  0  0  0  0  0  0  0  0
    6.6394    0.4231   -2.5253 F   0  0  0  0  0  0  0  0  0  0  0  0
    7.0006    2.3343   -1.5984 F   0  0  0  0  0  0  0  0  0  0  0  0
    6.7105    0.5762   -0.3727 F   0  0  0  0  0  0  0  0  0  0  0  0
    3.9995    0.8458   -0.5378 C   0  0  0  0  0  0  0  0  0  0  0  0
    1.4673   -0.5010    2.3067 H   0  0  0  0  0  0  0  0  0  0  0  0
    3.1503   -0.1803    1.8588 H   0  0  0  0  0  0  0  0  0  0  0  0
    3.0024   -2.0184    0.1028 H   0  0  0  0  0  0  0  0  0  0  0  0
    1.3104   -2.2861    0.5314 H   0  0  0  0  0  0  0  0  0  0  0  0
    2.0013   -2.9290    2.8715 H   0  0  0  0  0  0  0  0  0  0  0  0
    3.6941   -2.6565    2.4493 H   0  0  0  0  0  0  0  0  0  0  0  0
    3.5405   -4.4596    0.6778 H   0  0  0  0  0  0  0  0  0  0  0  0
    1.8501   -4.7356    1.1101 H   0  0  0  0  0  0  0  0  0  0  0  0
    2.5501   -5.4089    3.4424 H   0  0  0  0  0  0  0  0  0  0  0  0
    4.2583   -5.1378    2.9975 H   0  0  0  0  0  0  0  0  0  0  0  0
    0.9744    2.1583   -1.5928 H   0  0  0  0  0  0  0  0  0  0  0  0
    4.9044    2.8459   -3.1781 H   0  0  0  0  0  0  0  0  0  0  0  0
    4.4601    0.1873    0.1964 H   0  0  0  0  0  0  0  0  0  0  0  0
  1  2  2  0
  2  3  1  0
  2  9  1  0
  3  4  1  0
  3 20  1  0
  3 21  1  0
  4  5  1  0
  4 22  1  0
  4 23  1  0
  5  6  1  0
  5 24  1  0
  5 25  1  0
  6  7  1  0
  6 26  1  0
  6 27  1  0
  7  8  1  0
  7 28  1  0
  7 29  1  0
  9 10  2  0
  9 19  1  0
 10 11  1  0
 10 30  1  0
 11 12  1  0
 11 13  2  0
 13 14  1  0
 13 31  1  0
 14 15  1  0
 14 19  2  0
 15 16  1  6
 15 17  1  0
 15 18  1  0
 19 32  1  0
M  END

