
     RDKit          3D

 31 32  0  0  0  0  0  0  0  0999 V2000
    1.2028    0.1627   -0.6790 C   0  0  0  0  0  0  0  0  0  0  0  0
    2.4881   -0.0190   -0.0909 O   0  0  0  0  0  0  0  0  0  0  0  0
    2.9453   -1.1884    0.3514 C   0  0  0  0  0  0  0  0  0  0  0  0
    2.5262   -2.4504   -0.0033 C   0  0  0  0  0  0  0  0  0  0  0  0
    1.7599   -2.7644   -1.2387 C   0  0  0  0  0  0  0  0  0  0  0  0
    1.8112   -2.1170   -2.2575 O   0  0  0  0  0  0  0  0  0  0  0  0
    1.0213   -3.9019   -1.2103 O   0  0  0  0  0  0  0  0  0  0  0  0
    3.0970   -3.6095    0.7985 C   0  0  2  0  0  0  0  0  0  0  0  0
    2.2466   -3.9930    2.0295 C   0  0  1  0  0  0  0  0  0  0  0  0
    0.9840   -4.3107    1.6191 F   0  0  0  0  0  0  0  0  0  0  0  0
    2.7385   -5.0642    2.6514 F   0  0  0  0  0  0  0  0  0  0  0  0
    2.1346   -3.0058    2.9204 F   0  0  0  0  0  0  0  0  0  0  0  0
    4.4328   -3.4195    1.2255 O   0  0  0  0  0  0  0  0  0  0  0  0
    4.7843   -2.1792    1.6734 C   0  0  0  0  0  0  0  0  0  0  0  0
    5.9179   -2.0659    2.4759 C   0  0  0  0  0  0  0  0  0  0  0  0
    6.3064   -0.8089    2.9427 C   0  0  0  0  0  0  0  0  0  0  0  0
    5.5826    0.3525    2.6229 C   0  0  0  0  0  0  0  0  0  0  0  0
    6.0023    1.7102    3.1342 C   0  0  0  0  0  0  0  0  0  0  0  0
    4.4579    0.2156    1.8013 C   0  0  0  0  0  0  0  0  0  0  0  0
    4.0494   -1.0344    1.3102 C   0  0  0  0  0  0  0  0  0  0  0  0
    0.9501    1.2192   -0.5176 H   0  0  0  0  0  0  0  0  0  0  0  0
    0.4573   -0.4774   -0.1788 H   0  0  0  0  0  0  0  0  0  0  0  0
    1.2222   -0.0776   -1.7492 H   0  0  0  0  0  0  0  0  0  0  0  0
    0.8553   -4.1864   -0.2984 H   0  0  0  0  0  0  0  0  0  0  0  0
    3.1162   -4.5178    0.1772 H   0  0  0  0  0  0  0  0  0  0  0  0
    6.4739   -2.9690    2.7337 H   0  0  0  0  0  0  0  0  0  0  0  0
    7.1910   -0.7315    3.5809 H   0  0  0  0  0  0  0  0  0  0  0  0
    6.8699    1.6375    3.8063 H   0  0  0  0  0  0  0  0  0  0  0  0
    5.1868    2.2009    3.6907 H   0  0  0  0  0  0  0  0  0  0  0  0
    6.2775    2.3840    2.3054 H   0  0  0  0  0  0  0  0  0  0  0  0
    3.8789    1.0945    1.5127 H   0  0  0  0  0  0  0  0  0  0  0  0
  1  2  1  0
  1 21  1  0
  1 22  1  0
  1 23  1  0
  2  3  1  0
  3  4  2  0
  3 20  1  0
  4  5  1  0
  4  8  1  0
  5  6  2  0
  5  7  1  0
  7 24  1  0
  8  9  1  0
  8 13  1  0
  8 25  1  6
  9 10  1  6
  9 11  1  0
  9 12  1  0
 13 14  1  0
 14 15  1  0
 14 20  2  0
 15 16  2  0
 15 26  1  0
 16 17  1  0
 16 27  1  0
 17 18  1  0
 17 19  2  0
 18 28  1  0
 18 29  1  0
 18 30  1  0
 19 20  1  0
 19 31  1  0
M  END

