
     RDKit          3D

 64 68  0  0  0  0  0  0  0  0999 V2000
    3.1103    2.2954    3.2570 C   0  0  0  0  0  0  0  0  0  0  0  0
    2.7287    1.1969    2.2694 C   0  0  1  0  0  0  0  0  0  0  0  0
    1.2302    0.8926    2.2758 C   0  0  0  0  0  0  0  0  0  0  0  0
    3.1792    1.6311    0.5125 S   0  0  0  0  0  0  0  0  0  0  0  0
    4.9715    1.6041    0.5631 C   0  0  0  0  0  0  0  0  0  0  0  0
    5.6922    2.8205    0.6758 C   0  0  0  0  0  0  0  0  0  0  0  0
    7.0806    2.8347    0.6803 C   0  0  0  0  0  0  0  0  0  0  0  0
    7.7684    1.6139    0.5663 C   0  0  0  0  0  0  0  0  0  0  0  0
    9.1598    1.2581    0.5329 C   0  0  0  0  0  0  0  0  0  0  0  0
   10.2447    2.1634    0.6718 C   0  0  0  0  0  0  0  0  0  0  0  0
   11.1133    2.9296    0.7820 N   0  0  0  0  0  0  0  0  0  0  0  0
    9.2382   -0.1348    0.4071 C   0  0  0  0  0  0  0  0  0  0  0  0
   10.5022   -0.9026    0.4071 C   0  0  0  0  0  0  0  0  0  0  0  0
   11.6014   -0.4373   -0.3416 C   0  0  0  0  0  0  0  0  0  0  0  0
   12.8148   -1.1148   -0.2553 C   0  0  0  0  0  0  0  0  0  0  0  0
   12.8926   -2.2326    0.5780 C   0  0  0  0  0  0  0  0  0  0  0  0
   14.4432   -3.1335    0.7683 S   0  0  1  0  0  0  0  0  0  0  0  0
   14.0737   -4.4975    1.1499 O   0  0  0  0  0  0  0  0  0  0  0  0
   15.2314   -2.8342   -0.4280 O   0  0  0  0  0  0  0  0  0  0  0  0
   15.2388   -2.4630    2.0611 N   0  0  0  0  0  0  0  0  0  0  0  0
   16.1034   -1.2895    1.9088 C   0  0  0  0  0  0  0  0  0  0  0  0
   15.6031   -0.1178    2.7612 C   0  0  0  0  0  0  0  0  0  0  0  0
   15.3962   -0.5460    4.2205 C   0  0  0  0  0  0  0  0  0  0  0  0
   14.4788   -1.7733    4.3118 C   0  0  0  0  0  0  0  0  0  0  0  0
   14.9977   -2.9168    3.4330 C   0  0  0  0  0  0  0  0  0  0  0  0
   11.7395   -2.6561    1.2511 C   0  0  0  0  0  0  0  0  0  0  0  0
   10.5822   -2.0046    1.1720 N   0  0  0  0  0  0  0  0  0  0  0  0
    7.9567   -0.6552    0.3450 N   0  0  0  0  0  0  0  0  0  0  0  0
    7.5082   -2.0278    0.1105 C   0  0  1  0  0  0  0  0  0  0  0  0
    8.2342   -2.9890   -0.8638 C   0  0  0  0  0  0  0  0  0  0  0  0
    7.8590   -4.1491    0.1003 C   0  0  0  0  0  0  0  0  0  0  0  0
    7.5717   -3.1097    1.2178 C   0  0  0  0  0  0  0  0  0  0  0  0
    7.0485    0.3983    0.4480 C   0  0  0  0  0  0  0  0  0  0  0  0
    5.6455    0.3862    0.4376 C   0  0  0  0  0  0  0  0  0  0  0  0
    2.8579    1.9867    4.2864 H   0  0  0  0  0  0  0  0  0  0  0  0
    2.5673    3.2283    3.0352 H   0  0  0  0  0  0  0  0  0  0  0  0
    4.1888    2.5117    3.2277 H   0  0  0  0  0  0  0  0  0  0  0  0
    3.2866    0.2761    2.5068 H   0  0  0  0  0  0  0  0  0  0  0  0
    0.6448    1.7780    1.9773 H   0  0  0  0  0  0  0  0  0  0  0  0
    0.9074    0.6043    3.2896 H   0  0  0  0  0  0  0  0  0  0  0  0
    0.9815    0.0705    1.5876 H   0  0  0  0  0  0  0  0  0  0  0  0
    5.1313    3.7532    0.7580 H   0  0  0  0  0  0  0  0  0  0  0  0
    7.6324    3.7734    0.7680 H   0  0  0  0  0  0  0  0  0  0  0  0
   11.5016    0.4329   -0.9903 H   0  0  0  0  0  0  0  0  0  0  0  0
   13.6826   -0.8009   -0.8386 H   0  0  0  0  0  0  0  0  0  0  0  0
   16.1676   -1.0323    0.8438 H   0  0  0  0  0  0  0  0  0  0  0  0
   17.1250   -1.5748    2.2259 H   0  0  0  0  0  0  0  0  0  0  0  0
   14.6508    0.2549    2.3446 H   0  0  0  0  0  0  0  0  0  0  0  0
   16.3258    0.7126    2.6974 H   0  0  0  0  0  0  0  0  0  0  0  0
   14.9830    0.2878    4.8106 H   0  0  0  0  0  0  0  0  0  0  0  0
   16.3765   -0.7913    4.6703 H   0  0  0  0  0  0  0  0  0  0  0  0
   13.4598   -1.4995    3.9858 H   0  0  0  0  0  0  0  0  0  0  0  0
   14.3983   -2.1237    5.3543 H   0  0  0  0  0  0  0  0  0  0  0  0
   14.3069   -3.7693    3.4070 H   0  0  0  0  0  0  0  0  0  0  0  0
   15.9541   -3.2983    3.8399 H   0  0  0  0  0  0  0  0  0  0  0  0
   11.7643   -3.5640    1.8619 H   0  0  0  0  0  0  0  0  0  0  0  0
    6.4707   -1.9296   -0.2327 H   0  0  0  0  0  0  0  0  0  0  0  0
    9.3173   -2.8309   -0.9087 H   0  0  0  0  0  0  0  0  0  0  0  0
    7.8408   -3.0218   -1.8911 H   0  0  0  0  0  0  0  0  0  0  0  0
    8.6474   -4.8868    0.3063 H   0  0  0  0  0  0  0  0  0  0  0  0
    6.9547   -4.6867   -0.2238 H   0  0  0  0  0  0  0  0  0  0  0  0
    8.4443   -2.9570    1.8632 H   0  0  0  0  0  0  0  0  0  0  0  0
    6.6660   -3.2418    1.8293 H   0  0  0  0  0  0  0  0  0  0  0  0
    5.0700   -0.5347    0.3384 H   0  0  0  0  0  0  0  0  0  0  0  0
  1  2  1  0
  1 35  1  0
  1 36  1  0
  1 37  1  0
  2  3  1  0
  2  4  1  0
  2 38  1  1
  3 39  1  0
  3 40  1  0
  3 41  1  0
  4  5  1  0
  5  6  2  0
  5 34  1  0
  6  7  1  0
  6 42  1  0
  7  8  2  0
  7 43  1  0
  8  9  1  0
  8 33  1  0
  9 10  1  0
  9 12  2  0
 10 11  3  0
 12 13  1  0
 12 28  1  0
 13 14  2  0
 13 27  1  0
 14 15  1  0
 14 44  1  0
 15 16  2  0
 15 45  1  0
 17 16  1  6
 16 26  1  0
 17 18  2  0
 17 19  2  0
 17 20  1  0
 20 21  1  0
 20 25  1  0
 21 22  1  0
 21 46  1  0
 21 47  1  0
 22 23  1  0
 22 48  1  0
 22 49  1  0
 23 24  1  0
 23 50  1  0
 23 51  1  0
 24 25  1  0
 24 52  1  0
 24 53  1  0
 25 54  1  0
 25 55  1  0
 26 27  2  0
 26 56  1  0
 28 29  1  0
 28 33  1  0
 29 30  1  0
 29 32  1  0
 29 57  1  6
 30 31  1  0
 30 58  1  0
 30 59  1  0
 31 32  1  0
 31 60  1  0
 31 61  1  0
 32 62  1  0
 32 63  1  0
 33 34  2  0
 34 64  1  0
M  END

