
     RDKit          3D

 44 48  0  0  0  0  0  0  0  0999 V2000
    1.0646    0.1083    0.0024 N   0  0  0  0  0  0  0  0  0  0  0  0
    2.4354    0.0456    0.0041 C   0  0  0  0  0  0  0  0  0  0  0  0
    3.0251   -1.1159    0.0117 N   0  0  0  0  0  0  0  0  0  0  0  0
    4.3996   -1.1861   -0.0393 C   0  0  0  0  0  0  0  0  0  0  0  0
    5.0422   -2.4507   -0.0472 C   0  0  0  0  0  0  0  0  0  0  0  0
    4.2197   -3.6948   -0.0097 C   0  0  0  0  0  0  0  0  0  0  0  0
    4.1411   -4.4543    1.1663 C   0  0  0  0  0  0  0  0  0  0  0  0
    4.8102   -4.0262    2.2482 F   0  0  0  0  0  0  0  0  0  0  0  0
    3.3984   -5.6273    1.2717 C   0  0  0  0  0  0  0  0  0  0  0  0
    2.6992   -6.0790    0.1516 C   0  0  0  0  0  0  0  0  0  0  0  0
    2.7506   -5.3646   -1.0466 C   0  0  0  0  0  0  0  0  0  0  0  0
    3.5048   -4.1891   -1.1165 C   0  0  0  0  0  0  0  0  0  0  0  0
    3.5648   -3.3326   -2.6379 Cl  0  0  0  0  0  0  0  0  0  0  0  0
    6.4318   -2.5465   -0.0591 C   0  0  0  0  0  0  0  0  0  0  0  0
    7.2554   -1.3958   -0.0854 C   0  0  0  0  0  0  0  0  0  0  0  0
    8.6339   -1.4832   -0.1342 N   0  0  0  0  0  0  0  0  0  0  0  0
    9.3735   -2.7109    0.0786 C   0  0  0  0  0  0  0  0  0  0  0  0
   10.8566   -2.4766   -0.0969 C   0  0  1  0  0  0  0  0  0  0  0  0
   11.6756   -1.9067    1.0406 C   0  0  0  0  0  0  0  0  0  0  0  0
   11.8528   -3.3446    0.6232 C   0  0  0  0  0  0  0  0  0  0  0  0
    6.6310   -0.1356   -0.0868 C   0  0  0  0  0  0  0  0  0  0  0  0
    5.2392   -0.0397   -0.0643 C   0  0  0  0  0  0  0  0  0  0  0  0
    4.5749    1.1975   -0.0619 N   0  0  0  0  0  0  0  0  0  0  0  0
    5.0390    2.4859   -0.0966 C   0  0  0  0  0  0  0  0  0  0  0  0
    4.0546    3.3634   -0.1030 N   0  0  0  0  0  0  0  0  0  0  0  0
    2.9004    2.6422   -0.0736 C   0  0  0  0  0  0  0  0  0  0  0  0
    3.1844    1.2825   -0.0442 C   0  0  0  0  0  0  0  0  0  0  0  0
    0.5953   -0.7693    0.1972 H   0  0  0  0  0  0  0  0  0  0  0  0
    0.6146    0.9436    0.3538 H   0  0  0  0  0  0  0  0  0  0  0  0
    3.3805   -6.1607    2.2236 H   0  0  0  0  0  0  0  0  0  0  0  0
    2.1105   -6.9975    0.2107 H   0  0  0  0  0  0  0  0  0  0  0  0
    2.2147   -5.7088   -1.9319 H   0  0  0  0  0  0  0  0  0  0  0  0
    6.8814   -3.5388   -0.0486 H   0  0  0  0  0  0  0  0  0  0  0  0
    9.1360   -0.6384    0.1129 H   0  0  0  0  0  0  0  0  0  0  0  0
    9.0372   -3.4693   -0.6504 H   0  0  0  0  0  0  0  0  0  0  0  0
    9.1839   -3.1413    1.0854 H   0  0  0  0  0  0  0  0  0  0  0  0
   11.1349   -2.1478   -1.1047 H   0  0  0  0  0  0  0  0  0  0  0  0
   11.1680   -1.7131    1.9912 H   0  0  0  0  0  0  0  0  0  0  0  0
   12.4702   -1.1934    0.8042 H   0  0  0  0  0  0  0  0  0  0  0  0
   11.4677   -4.1217    1.2906 H   0  0  0  0  0  0  0  0  0  0  0  0
   12.7679   -3.6255    0.0949 H   0  0  0  0  0  0  0  0  0  0  0  0
    7.2449    0.7667   -0.1116 H   0  0  0  0  0  0  0  0  0  0  0  0
    6.0999    2.7263   -0.1190 H   0  0  0  0  0  0  0  0  0  0  0  0
    1.9226    3.1231   -0.0845 H   0  0  0  0  0  0  0  0  0  0  0  0
  1  2  1  0
  1 28  1  0
  1 29  1  0
  2  3  2  0
  2 27  1  0
  3  4  1  0
  4  5  2  0
  4 22  1  0
  5  6  1  0
  5 14  1  0
  6  7  2  0
  6 12  1  0
  7  8  1  0
  7  9  1  0
  9 10  2  0
  9 30  1  0
 10 11  1  0
 10 31  1  0
 11 12  2  0
 11 32  1  0
 12 13  1  0
 14 15  2  0
 14 33  1  0
 15 16  1  0
 15 21  1  0
 16 17  1  0
 16 34  1  0
 17 18  1  0
 17 35  1  0
 17 36  1  0
 18 19  1  0
 18 20  1  0
 18 37  1  6
 19 20  1  0
 19 38  1  0
 19 39  1  0
 20 40  1  0
 20 41  1  0
 21 22  2  0
 21 42  1  0
 22 23  1  0
 23 24  1  0
 23 27  1  0
 24 25  2  0
 24 43  1  0
 25 26  1  0
 26 27  2  0
 26 44  1  0
M  END

