
     RDKit          3D

 48 51  0  0  0  0  0  0  0  0999 V2000
    1.6114   -0.3925   -0.9056 C   0  0  0  0  0  0  0  0  0  0  0  0
    2.5004    0.1367    0.1241 N   0  0  0  0  0  0  0  0  0  0  0  0
    2.5198    1.4385    0.4059 C   0  0  0  0  0  0  0  0  0  0  0  0
    3.5085    1.8871    1.2288 N   0  0  0  0  0  0  0  0  0  0  0  0
    3.6078    3.1594    1.5180 C   0  0  0  0  0  0  0  0  0  0  0  0
    2.7958    4.1717    1.0920 N   0  0  0  0  0  0  0  0  0  0  0  0
    1.8324    3.7591    0.3151 C   0  0  0  0  0  0  0  0  0  0  0  0
    0.8496    4.5668   -0.2371 N   0  0  0  0  0  0  0  0  0  0  0  0
    0.7951    5.5703   -0.0928 H   0  0  0  0  0  0  0  0  0  0  0  0
    0.0034    3.8031   -0.9599 C   0  0  0  0  0  0  0  0  0  0  0  0
    0.4141    2.4556   -0.9097 C   0  0  0  0  0  0  0  0  0  0  0  0
    1.5734    2.4084   -0.1125 C   0  0  0  0  0  0  0  0  0  0  0  0
    3.4397   -0.8227    0.7805 C   0  0  1  0  0  0  0  0  0  0  0  0
    3.6038   -0.8442    2.3172 C   0  0  0  0  0  0  0  0  0  0  0  0
    3.6655   -2.3960    2.2358 C   0  0  2  0  0  0  0  0  0  0  0  0
    5.0653   -3.0035    2.2792 C   0  0  0  0  0  0  0  0  0  0  0  0
    5.0749   -4.7263    1.5915 S   0  0  1  0  0  0  0  0  0  0  0  0
    3.8881   -5.3398    2.2369 O   0  0  0  0  0  0  0  0  0  0  0  0
    5.0651   -4.5024    0.1182 O   0  0  0  0  0  0  0  0  0  0  0  0
    6.5152   -5.5104    2.0615 C   0  0  0  0  0  0  0  0  0  0  0  0
    6.6046   -6.1318    3.3598 C   0  0  0  0  0  0  0  0  0  0  0  0
    7.8119   -6.6066    3.8113 C   0  0  0  0  0  0  0  0  0  0  0  0
    8.9987   -6.4996    3.0201 C   0  0  0  0  0  0  0  0  0  0  0  0
   10.3075   -6.9132    3.5513 C   0  0  1  0  0  0  0  0  0  0  0  0
   10.2127   -7.8700    4.5082 F   0  0  0  0  0  0  0  0  0  0  0  0
   11.1415   -7.3957    2.5919 F   0  0  0  0  0  0  0  0  0  0  0  0
   11.0272   -5.9006    4.1436 F   0  0  0  0  0  0  0  0  0  0  0  0
    8.9003   -5.8834    1.7292 C   0  0  0  0  0  0  0  0  0  0  0  0
    7.7052   -5.3987    1.2588 C   0  0  0  0  0  0  0  0  0  0  0  0
    3.0174   -2.3051    0.8208 C   0  0  0  0  0  0  0  0  0  0  0  0
    1.6273    0.2551   -1.7929 H   0  0  0  0  0  0  0  0  0  0  0  0
    0.5781   -0.4784   -0.5318 H   0  0  0  0  0  0  0  0  0  0  0  0
    1.9568   -1.3891   -1.1928 H   0  0  0  0  0  0  0  0  0  0  0  0
    4.4322    3.4587    2.1725 H   0  0  0  0  0  0  0  0  0  0  0  0
   -0.8511    4.2313   -1.4793 H   0  0  0  0  0  0  0  0  0  0  0  0
   -0.1127    1.6488   -1.4066 H   0  0  0  0  0  0  0  0  0  0  0  0
    4.4113   -0.6931    0.2804 H   0  0  0  0  0  0  0  0  0  0  0  0
    2.6939   -0.4928    2.8273 H   0  0  0  0  0  0  0  0  0  0  0  0
    4.4698   -0.3056    2.7238 H   0  0  0  0  0  0  0  0  0  0  0  0
    3.0359   -2.9260    2.9613 H   0  0  0  0  0  0  0  0  0  0  0  0
    5.4228   -3.0680    3.3180 H   0  0  0  0  0  0  0  0  0  0  0  0
    5.8074   -2.4406    1.6923 H   0  0  0  0  0  0  0  0  0  0  0  0
    5.6995   -6.2500    3.9567 H   0  0  0  0  0  0  0  0  0  0  0  0
    7.8662   -7.0983    4.7846 H   0  0  0  0  0  0  0  0  0  0  0  0
    9.7911   -5.8212    1.1008 H   0  0  0  0  0  0  0  0  0  0  0  0
    7.6331   -4.9569    0.2646 H   0  0  0  0  0  0  0  0  0  0  0  0
    1.9265   -2.4260    0.8992 H   0  0  0  0  0  0  0  0  0  0  0  0
    3.4212   -2.9789    0.0541 H   0  0  0  0  0  0  0  0  0  0  0  0
  1  2  1  0
  1 31  1  0
  1 32  1  0
  1 33  1  0
  2  3  1  0
  2 13  1  0
  3  4  2  0
  3 12  1  0
  4  5  1  0
  5  6  2  0
  5 34  1  0
  6  7  1  0
  7  8  1  0
  7 12  2  0
  8  9  1  0
  8 10  1  0
 10 11  2  0
 10 35  1  0
 11 12  1  0
 11 36  1  0
 13 14  1  0
 13 30  1  0
 13 37  1  6
 14 15  1  0
 14 38  1  0
 14 39  1  0
 15 16  1  0
 15 30  1  0
 15 40  1  1
 17 16  1  6
 16 41  1  0
 16 42  1  0
 17 18  2  0
 17 19  2  0
 17 20  1  0
 20 21  2  0
 20 29  1  0
 21 22  1  0
 21 43  1  0
 22 23  2  0
 22 44  1  0
 23 24  1  0
 23 28  1  0
 24 25  1  1
 24 26  1  0
 24 27  1  0
 28 29  2  0
 28 45  1  0
 29 46  1  0
 30 47  1  0
 30 48  1  0
M  END

