
     RDKit          3D

 64 67  0  0  0  0  0  0  0  0999 V2000
    2.9078    5.1606   -1.2630 C   0  0  0  0  0  0  0  0  0  0  0  0
    3.6874    3.9655   -1.7472 C   0  0  0  0  0  0  0  0  0  0  0  0
    3.7809    3.6517   -3.0501 C   0  0  0  0  0  0  0  0  0  0  0  0
    4.6028    2.5181   -3.6190 C   0  0  1  0  0  0  0  0  0  0  0  0
    3.8871    1.8011   -4.0654 H   0  0  0  0  0  0  0  0  0  0  0  0
    5.4916    3.0043   -4.7804 C   0  0  0  0  0  0  0  0  0  0  0  0
    5.3957    1.7433   -2.5258 C   0  0  2  0  0  0  0  0  0  0  0  0
    6.3153    1.3307   -2.9772 H   0  0  0  0  0  0  0  0  0  0  0  0
    4.5802    0.5585   -1.9867 C   0  0  0  0  0  0  0  0  0  0  0  0
    3.4000    0.9871   -1.3376 O   0  0  0  0  0  0  0  0  0  0  0  0
    3.6250    1.8721   -0.2545 C   0  0  2  0  0  0  0  0  0  0  0  0
    4.2540    1.3579    0.5047 H   0  0  0  0  0  0  0  0  0  0  0  0
    2.2619    2.1732    0.3805 C   0  0  0  0  0  0  0  0  0  0  0  0
    1.6190    0.9802    1.0543 C   0  0  0  0  0  0  0  0  0  0  0  0
    1.6484    0.8372    2.4494 C   0  0  0  0  0  0  0  0  0  0  0  0
    1.0654   -0.2657    3.0775 C   0  0  0  0  0  0  0  0  0  0  0  0
    0.4451   -1.2511    2.3077 C   0  0  0  0  0  0  0  0  0  0  0  0
   -0.0512   -2.3488    2.9945 O   0  0  0  0  0  0  0  0  0  0  0  0
   -1.2648   -2.9049    2.6757 C   0  0  0  0  0  0  0  0  0  0  0  0
   -2.0122   -2.4875    1.8229 O   0  0  0  0  0  0  0  0  0  0  0  0
   -1.5021   -3.9969    3.4547 N   0  0  0  0  0  0  0  0  0  0  0  0
   -0.6713   -4.5125    4.5457 C   0  0  1  0  0  0  0  0  0  0  0  0
   -0.8996   -3.7566    5.8721 C   0  0  0  0  0  0  0  0  0  0  0  0
   -2.2808   -4.0390    6.4765 C   0  0  0  0  0  0  0  0  0  0  0  0
   -2.5148   -5.5444    6.6640 C   0  0  0  0  0  0  0  0  0  0  0  0
   -2.3101   -6.3128    5.3510 C   0  0  0  0  0  0  0  0  0  0  0  0
   -0.9351   -6.0178    4.7312 C   0  0  0  0  0  0  0  0  0  0  0  0
    0.4059   -1.1381    0.9143 C   0  0  0  0  0  0  0  0  0  0  0  0
    0.9896   -0.0270    0.3039 C   0  0  0  0  0  0  0  0  0  0  0  0
    4.4279    3.1244   -0.7188 C   0  0  1  0  0  0  0  0  0  0  0  0
    4.6265    3.7335    0.1810 H   0  0  0  0  0  0  0  0  0  0  0  0
    5.7674    2.6281   -1.3140 C   0  0  2  0  0  0  0  0  0  0  0  0
    6.2360    1.9627   -0.5651 H   0  0  0  0  0  0  0  0  0  0  0  0
    6.7718    3.7496   -1.5930 C   0  0  0  0  0  0  0  0  0  0  0  0
    2.4137    5.6870   -2.0937 H   0  0  0  0  0  0  0  0  0  0  0  0
    3.5731    5.8803   -0.7521 H   0  0  0  0  0  0  0  0  0  0  0  0
    2.1335    4.8818   -0.5292 H   0  0  0  0  0  0  0  0  0  0  0  0
    3.2467    4.2677   -3.7843 H   0  0  0  0  0  0  0  0  0  0  0  0
    6.2613    3.7141   -4.4413 H   0  0  0  0  0  0  0  0  0  0  0  0
    4.8877    3.5118   -5.5503 H   0  0  0  0  0  0  0  0  0  0  0  0
    6.0038    2.1573   -5.2651 H   0  0  0  0  0  0  0  0  0  0  0  0
    5.2055   -0.0377   -1.2891 H   0  0  0  0  0  0  0  0  0  0  0  0
    4.2585   -0.1077   -2.8024 H   0  0  0  0  0  0  0  0  0  0  0  0
    2.3968    2.9798    1.1187 H   0  0  0  0  0  0  0  0  0  0  0  0
    1.5999    2.5593   -0.4110 H   0  0  0  0  0  0  0  0  0  0  0  0
    2.1283    1.6059    3.0624 H   0  0  0  0  0  0  0  0  0  0  0  0
    1.0855   -0.3737    4.1638 H   0  0  0  0  0  0  0  0  0  0  0  0
   -2.4100   -4.4132    3.2847 H   0  0  0  0  0  0  0  0  0  0  0  0
    0.3744   -4.3700    4.2382 H   0  0  0  0  0  0  0  0  0  0  0  0
   -0.7546   -2.6781    5.7029 H   0  0  0  0  0  0  0  0  0  0  0  0
   -0.1152   -4.0723    6.5838 H   0  0  0  0  0  0  0  0  0  0  0  0
   -3.0611   -3.6258    5.8117 H   0  0  0  0  0  0  0  0  0  0  0  0
   -2.3877   -3.5104    7.4382 H   0  0  0  0  0  0  0  0  0  0  0  0
   -3.5258   -5.7317    7.0627 H   0  0  0  0  0  0  0  0  0  0  0  0
   -1.8060   -5.9298    7.4204 H   0  0  0  0  0  0  0  0  0  0  0  0
   -3.1143   -6.0415    4.6409 H   0  0  0  0  0  0  0  0  0  0  0  0
   -2.4180   -7.3976    5.5160 H   0  0  0  0  0  0  0  0  0  0  0  0
   -0.8193   -6.5355    3.7646 H   0  0  0  0  0  0  0  0  0  0  0  0
   -0.1509   -6.4151    5.3984 H   0  0  0  0  0  0  0  0  0  0  0  0
   -0.0893   -1.9020    0.3168 H   0  0  0  0  0  0  0  0  0  0  0  0
    0.9671    0.0586   -0.7840 H   0  0  0  0  0  0  0  0  0  0  0  0
    7.0525    4.2563   -0.6546 H   0  0  0  0  0  0  0  0  0  0  0  0
    6.3690    4.5136   -2.2735 H   0  0  0  0  0  0  0  0  0  0  0  0
    7.6955    3.3483   -2.0415 H   0  0  0  0  0  0  0  0  0  0  0  0
  1  2  1  0
  1 35  1  0
  1 36  1  0
  1 37  1  0
  2  3  2  0
  2 30  1  0
  3  4  1  0
  3 38  1  0
  4  5  1  6
  4  6  1  0
  4  7  1  0
  6 39  1  0
  6 40  1  0
  6 41  1  0
  7  8  1  6
  7  9  1  0
  7 32  1  0
  9 10  1  0
  9 42  1  0
  9 43  1  0
 10 11  1  0
 11 12  1  1
 11 13  1  0
 11 30  1  0
 13 14  1  0
 13 44  1  0
 13 45  1  0
 14 15  2  0
 14 29  1  0
 15 16  1  0
 15 46  1  0
 16 17  2  0
 16 47  1  0
 17 18  1  0
 17 28  1  0
 18 19  1  0
 19 20  2  0
 19 21  1  0
 21 22  1  0
 21 48  1  0
 22 23  1  0
 22 27  1  0
 22 49  1  6
 23 24  1  0
 23 50  1  0
 23 51  1  0
 24 25  1  0
 24 52  1  0
 24 53  1  0
 25 26  1  0
 25 54  1  0
 25 55  1  0
 26 27  1  0
 26 56  1  0
 26 57  1  0
 27 58  1  0
 27 59  1  0
 28 29  2  0
 28 60  1  0
 29 61  1  0
 30 31  1  1
 30 32  1  0
 32 33  1  1
 32 34  1  0
 34 62  1  0
 34 63  1  0
 34 64  1  0
M  END

