
     RDKit          3D

 40 42  0  0  0  0  0  0  0  0999 V2000
   10.0245   -0.9571   -4.0421 C   0  0  0  0  0  0  0  0  0  0  0  0
    9.1921    0.1171   -3.3375 C   0  0  0  0  0  0  0  0  0  0  0  0
    7.7178   -0.1470   -3.3940 C   0  0  0  0  0  0  0  0  0  0  0  0
    7.0339   -0.6492   -4.4068 N   0  0  0  0  0  0  0  0  0  0  0  0
    5.7375   -0.6374   -3.9685 C   0  0  0  0  0  0  0  0  0  0  0  0
    4.5171   -0.9973   -4.7773 C   0  0  0  0  0  0  0  0  0  0  0  0
    3.4876   -0.3632   -4.6040 O   0  0  0  0  0  0  0  0  0  0  0  0
    4.6162   -2.0109   -5.6993 N   0  0  0  0  0  0  0  0  0  0  0  0
    5.7209   -2.9500   -5.8745 C   0  0  0  0  0  0  0  0  0  0  0  0
    5.2133   -4.3937   -5.7029 C   0  0  0  0  0  0  0  0  0  0  0  0
    4.0713   -4.7270   -6.5444 N   0  0  0  0  0  0  0  0  0  0  0  0
    4.3889   -5.0610   -7.9293 C   0  0  0  0  0  0  0  0  0  0  0  0
    3.2747   -5.8198   -8.6107 C   0  0  0  0  0  0  0  0  0  0  0  0
    2.6111   -6.9507   -8.0264 C   0  0  0  0  0  0  0  0  0  0  0  0
    1.6629   -7.4990   -8.8490 C   0  0  0  0  0  0  0  0  0  0  0  0
    1.5544   -6.6486  -10.3542 S   0  0  0  0  0  0  0  0  0  0  0  0
    2.7944   -5.5425   -9.8688 C   0  0  0  0  0  0  0  0  0  0  0  0
    2.9973   -3.7503   -6.3632 C   0  0  0  0  0  0  0  0  0  0  0  0
    3.4585   -2.2964   -6.5474 C   0  0  0  0  0  0  0  0  0  0  0  0
    5.5872   -0.1575   -2.7409 N   0  0  0  0  0  0  0  0  0  0  0  0
    6.8481    0.1392   -2.3910 N   0  0  0  0  0  0  0  0  0  0  0  0
    7.0418    0.5306   -1.4754 H   0  0  0  0  0  0  0  0  0  0  0  0
   11.0929   -0.6941   -4.0234 H   0  0  0  0  0  0  0  0  0  0  0  0
    9.7087   -1.0607   -5.0903 H   0  0  0  0  0  0  0  0  0  0  0  0
    9.9031   -1.9383   -3.5571 H   0  0  0  0  0  0  0  0  0  0  0  0
    9.3864    1.0990   -3.8061 H   0  0  0  0  0  0  0  0  0  0  0  0
    9.4980    0.2189   -2.2824 H   0  0  0  0  0  0  0  0  0  0  0  0
    6.5211   -2.7313   -5.1611 H   0  0  0  0  0  0  0  0  0  0  0  0
    6.1522   -2.8153   -6.8849 H   0  0  0  0  0  0  0  0  0  0  0  0
    4.9150   -4.5287   -4.6467 H   0  0  0  0  0  0  0  0  0  0  0  0
    6.0343   -5.1012   -5.9045 H   0  0  0  0  0  0  0  0  0  0  0  0
    5.2883   -5.7018   -7.9048 H   0  0  0  0  0  0  0  0  0  0  0  0
    4.6596   -4.1865   -8.5603 H   0  0  0  0  0  0  0  0  0  0  0  0
    2.8376   -7.3184   -7.0248 H   0  0  0  0  0  0  0  0  0  0  0  0
    1.0177   -8.3555   -8.6573 H   0  0  0  0  0  0  0  0  0  0  0  0
    3.1079   -4.7430  -10.5398 H   0  0  0  0  0  0  0  0  0  0  0  0
    2.5964   -3.8631   -5.3402 H   0  0  0  0  0  0  0  0  0  0  0  0
    2.1776   -3.9771   -7.0618 H   0  0  0  0  0  0  0  0  0  0  0  0
    2.6623   -1.5931   -6.2748 H   0  0  0  0  0  0  0  0  0  0  0  0
    3.7355   -2.1108   -7.6026 H   0  0  0  0  0  0  0  0  0  0  0  0
  1  2  1  0
  1 23  1  0
  1 24  1  0
  1 25  1  0
  2  3  1  0
  2 26  1  0
  2 27  1  0
  3  4  2  0
  3 21  1  0
  4  5  1  0
  5  6  1  0
  5 20  2  0
  6  7  2  0
  6  8  1  0
  8  9  1  0
  8 19  1  0
  9 10  1  0
  9 28  1  0
  9 29  1  0
 10 11  1  0
 10 30  1  0
 10 31  1  0
 11 12  1  0
 11 18  1  0
 12 13  1  0
 12 32  1  0
 12 33  1  0
 13 14  1  0
 13 17  2  0
 14 15  2  0
 14 34  1  0
 15 16  1  0
 15 35  1  0
 16 17  1  0
 17 36  1  0
 18 19  1  0
 18 37  1  0
 18 38  1  0
 19 39  1  0
 19 40  1  0
 20 21  1  0
 21 22  1  0
M  END

