
     RDKit          3D

 59 62  0  0  0  0  0  0  0  0999 V2000
    3.1741   -5.9300   -1.0574 C   0  0  0  0  0  0  0  0  0  0  0  0
    3.0235   -4.8535   -0.1389 O   0  0  0  0  0  0  0  0  0  0  0  0
    3.6806   -3.6986   -0.4265 C   0  0  0  0  0  0  0  0  0  0  0  0
    4.8552   -3.3898    0.2685 C   0  0  0  0  0  0  0  0  0  0  0  0
    5.5321   -2.1745    0.0663 C   0  0  0  0  0  0  0  0  0  0  0  0
    6.7950   -1.9139    0.8075 C   0  0  0  0  0  0  0  0  0  0  0  0
    7.7019   -2.9104    0.7665 O   0  0  0  0  0  0  0  0  0  0  0  0
    7.0687   -0.7901    1.5270 C   0  0  0  0  0  0  0  0  0  0  0  0
    8.3594   -0.5092    2.1785 C   0  0  0  0  0  0  0  0  0  0  0  0
    9.3686   -1.1742    2.2379 O   0  0  0  0  0  0  0  0  0  0  0  0
    8.2277    0.8911    2.8124 C   0  0  0  0  0  0  0  0  0  0  0  0
    9.0796    1.4791    3.4377 O   0  0  0  0  0  0  0  0  0  0  0  0
    6.9566    1.3374    2.5104 N   0  0  0  0  0  0  0  0  0  0  0  0
    6.4587    2.5992    2.9527 C   0  0  0  0  0  0  0  0  0  0  0  0
    6.3174    2.8289    4.3286 C   0  0  0  0  0  0  0  0  0  0  0  0
    5.8434    4.0524    4.7991 C   0  0  0  0  0  0  0  0  0  0  0  0
    5.5022    5.0562    3.8890 C   0  0  0  0  0  0  0  0  0  0  0  0
    5.6550    4.8321    2.5201 C   0  0  0  0  0  0  0  0  0  0  0  0
    6.1416    3.6126    2.0225 C   0  0  0  0  0  0  0  0  0  0  0  0
    6.3345    3.4236    0.5375 C   0  0  0  0  0  0  0  0  0  0  0  0
    6.0939    0.3449    1.8267 C   0  0  2  0  0  0  0  0  0  0  0  0
    4.8910   -0.0576    2.6706 C   0  0  0  0  0  0  0  0  0  0  0  0
    3.5922    0.3017    2.2955 C   0  0  0  0  0  0  0  0  0  0  0  0
    2.4800   -0.0395    3.0648 C   0  0  0  0  0  0  0  0  0  0  0  0
    2.6256   -0.7651    4.2719 C   0  0  0  0  0  0  0  0  0  0  0  0
    1.5335   -1.1095    5.0465 N   0  0  0  0  0  0  0  0  0  0  0  0
    0.2011   -0.7285    4.6279 C   0  0  0  0  0  0  0  0  0  0  0  0
    1.7203   -1.8431    6.2806 C   0  0  0  0  0  0  0  0  0  0  0  0
    3.9456   -1.1248    4.6520 C   0  0  0  0  0  0  0  0  0  0  0  0
    5.0392   -0.7768    3.8662 C   0  0  0  0  0  0  0  0  0  0  0  0
    5.0271   -1.2687   -0.8808 C   0  0  0  0  0  0  0  0  0  0  0  0
    3.8624   -1.5642   -1.5880 C   0  0  0  0  0  0  0  0  0  0  0  0
    3.1867   -2.7661   -1.3609 C   0  0  0  0  0  0  0  0  0  0  0  0
    1.7040   -3.0955   -2.2174 Cl  0  0  0  0  0  0  0  0  0  0  0  0
    2.5835   -6.7667   -0.6606 H   0  0  0  0  0  0  0  0  0  0  0  0
    4.2315   -6.2407   -1.1355 H   0  0  0  0  0  0  0  0  0  0  0  0
    2.7977   -5.6675   -2.0597 H   0  0  0  0  0  0  0  0  0  0  0  0
    5.2051   -4.1122    1.0098 H   0  0  0  0  0  0  0  0  0  0  0  0
    7.4329   -3.5572    0.0990 H   0  0  0  0  0  0  0  0  0  0  0  0
    6.5876    2.0338    5.0248 H   0  0  0  0  0  0  0  0  0  0  0  0
    5.7397    4.2201    5.8739 H   0  0  0  0  0  0  0  0  0  0  0  0
    5.1282    6.0196    4.2448 H   0  0  0  0  0  0  0  0  0  0  0  0
    5.4077    5.6283    1.8120 H   0  0  0  0  0  0  0  0  0  0  0  0
    6.4736    4.3923    0.0355 H   0  0  0  0  0  0  0  0  0  0  0  0
    5.4591    2.9407    0.0676 H   0  0  0  0  0  0  0  0  0  0  0  0
    7.2119    2.7962    0.3214 H   0  0  0  0  0  0  0  0  0  0  0  0
    5.7090    0.7985    0.9008 H   0  0  0  0  0  0  0  0  0  0  0  0
    3.4350    0.8673    1.3721 H   0  0  0  0  0  0  0  0  0  0  0  0
    1.4935    0.2665    2.7189 H   0  0  0  0  0  0  0  0  0  0  0  0
   -0.0676   -1.1599    3.6454 H   0  0  0  0  0  0  0  0  0  0  0  0
    0.0833    0.3689    4.5503 H   0  0  0  0  0  0  0  0  0  0  0  0
   -0.5300   -1.0909    5.3620 H   0  0  0  0  0  0  0  0  0  0  0  0
    2.1956   -2.8282    6.1155 H   0  0  0  0  0  0  0  0  0  0  0  0
    0.7444   -2.0204    6.7506 H   0  0  0  0  0  0  0  0  0  0  0  0
    2.3467   -1.2912    7.0063 H   0  0  0  0  0  0  0  0  0  0  0  0
    4.1218   -1.6841    5.5700 H   0  0  0  0  0  0  0  0  0  0  0  0
    6.0366   -1.0801    4.1978 H   0  0  0  0  0  0  0  0  0  0  0  0
    5.5587   -0.3375   -1.0825 H   0  0  0  0  0  0  0  0  0  0  0  0
    3.4659   -0.8646   -2.3258 H   0  0  0  0  0  0  0  0  0  0  0  0
  1  2  1  0
  1 35  1  0
  1 36  1  0
  1 37  1  0
  2  3  1  0
  3  4  2  0
  3 33  1  0
  4  5  1  0
  4 38  1  0
  5  6  1  0
  5 31  2  0
  6  7  1  0
  6  8  2  0
  7 39  1  0
  8  9  1  0
  8 21  1  0
  9 10  2  0
  9 11  1  0
 11 12  2  0
 11 13  1  0
 13 14  1  0
 13 21  1  0
 14 15  2  0
 14 19  1  0
 15 16  1  0
 15 40  1  0
 16 17  2  0
 16 41  1  0
 17 18  1  0
 17 42  1  0
 18 19  2  0
 18 43  1  0
 19 20  1  0
 20 44  1  0
 20 45  1  0
 20 46  1  0
 21 22  1  0
 21 47  1  6
 22 23  2  0
 22 30  1  0
 23 24  1  0
 23 48  1  0
 24 25  2  0
 24 49  1  0
 25 26  1  0
 25 29  1  0
 26 27  1  0
 26 28  1  0
 27 50  1  0
 27 51  1  0
 27 52  1  0
 28 53  1  0
 28 54  1  0
 28 55  1  0
 29 30  2  0
 29 56  1  0
 30 57  1  0
 31 32  1  0
 31 58  1  0
 32 33  2  0
 32 59  1  0
 33 34  1  0
M  END

