
     RDKit          3D

 28 29  0  0  0  0  0  0  0  0999 V2000
    2.9218   -0.3775   -1.0877 C   0  0  0  0  0  0  0  0  0  0  0  0
    2.4612    0.7529   -0.1616 C   0  0  1  0  0  0  0  0  0  0  0  0
    0.9316    0.8357   -0.0899 C   0  0  0  0  0  0  0  0  0  0  0  0
    3.0154    0.5950    1.2766 C   0  0  0  0  0  0  0  0  0  0  0  0
    4.4685    0.6112    1.3716 N   0  0  0  0  0  0  0  0  0  0  0  0
    5.3042   -0.5103    1.4652 C   0  0  0  0  0  0  0  0  0  0  0  0
    4.8238   -1.8766    1.4917 C   0  0  0  0  0  0  0  0  0  0  0  0
    3.6506   -2.2352    1.6348 O   0  0  0  0  0  0  0  0  0  0  0  0
    5.8125   -2.8329    1.3682 O   0  0  0  0  0  0  0  0  0  0  0  0
    6.6670   -0.0429    1.5169 C   0  0  0  0  0  0  0  0  0  0  0  0
    6.6039    1.3530    1.4217 C   0  0  0  0  0  0  0  0  0  0  0  0
    7.6648    2.7438    1.4750 S   0  0  0  0  0  0  0  0  0  0  0  0
    6.3534    3.8543    1.4237 C   0  0  0  0  0  0  0  0  0  0  0  0
    5.1157    3.1665    1.3585 C   0  0  0  0  0  0  0  0  0  0  0  0
    3.5261    4.1440    1.3075 Br  0  0  0  0  0  0  0  0  0  0  0  0
    5.2618    1.7543    1.3415 C   0  0  0  0  0  0  0  0  0  0  0  0
    2.4956   -0.2472   -2.0958 H   0  0  0  0  0  0  0  0  0  0  0  0
    2.6094   -1.3578   -0.6959 H   0  0  0  0  0  0  0  0  0  0  0  0
    4.0178   -0.3976   -1.1912 H   0  0  0  0  0  0  0  0  0  0  0  0
    2.8358    1.7116   -0.5661 H   0  0  0  0  0  0  0  0  0  0  0  0
    0.5057   -0.0954    0.3200 H   0  0  0  0  0  0  0  0  0  0  0  0
    0.5005    0.9868   -1.0923 H   0  0  0  0  0  0  0  0  0  0  0  0
    0.5952    1.6690    0.5488 H   0  0  0  0  0  0  0  0  0  0  0  0
    2.6892   -0.3674    1.6916 H   0  0  0  0  0  0  0  0  0  0  0  0
    2.6303    1.4151    1.9047 H   0  0  0  0  0  0  0  0  0  0  0  0
    6.5768   -2.4516    0.9130 H   0  0  0  0  0  0  0  0  0  0  0  0
    7.5427   -0.6627    1.6903 H   0  0  0  0  0  0  0  0  0  0  0  0
    6.5139    4.9289    1.4032 H   0  0  0  0  0  0  0  0  0  0  0  0
  1  2  1  0
  1 17  1  0
  1 18  1  0
  1 19  1  0
  2  3  1  0
  2  4  1  0
  2 20  1  6
  3 21  1  0
  3 22  1  0
  3 23  1  0
  4  5  1  0
  4 24  1  0
  4 25  1  0
  5  6  1  0
  5 16  1  0
  6  7  1  0
  6 10  2  0
  7  8  2  0
  7  9  1  0
  9 26  1  0
 10 11  1  0
 10 27  1  0
 11 12  1  0
 11 16  2  0
 12 13  1  0
 13 14  2  0
 13 28  1  0
 14 15  1  0
 14 16  1  0
M  END

