
     RDKit          3D

 52 53  0  0  0  0  0  0  0  0999 V2000
    3.5990   -1.2281    0.8528 C   0  0  0  0  0  0  0  0  0  0  0  0
    3.8925    0.0959    0.4734 O   0  0  0  0  0  0  0  0  0  0  0  0
    3.9609    0.4076   -0.8478 C   0  0  0  0  0  0  0  0  0  0  0  0
    3.7610   -0.5034   -1.8954 C   0  0  0  0  0  0  0  0  0  0  0  0
    3.8543   -0.0687   -3.2212 C   0  0  0  0  0  0  0  0  0  0  0  0
    4.1447    1.2631   -3.5595 C   0  0  0  0  0  0  0  0  0  0  0  0
    4.2465    1.6815   -5.0382 C   0  0  1  0  0  0  0  0  0  0  0  0
    2.9397    1.3196   -5.7777 C   0  0  0  0  0  0  0  0  0  0  0  0
    4.4956    3.1909   -5.1990 C   0  0  0  0  0  0  0  0  0  0  0  0
    5.4498    0.8994   -5.6531 C   0  0  0  0  0  0  0  0  0  0  0  0
    5.7039    1.1305   -7.0623 N   0  0  0  0  0  0  0  0  0  0  0  0
    5.3883    0.2204   -8.0281 C   0  0  0  0  0  0  0  0  0  0  0  0
    4.8031   -0.8287   -7.8009 O   0  0  0  0  0  0  0  0  0  0  0  0
    5.8820    0.5525   -9.4425 C   0  0  0  0  0  0  0  0  0  0  0  0
    5.7028    1.9955   -9.9680 C   0  0  1  0  0  0  0  0  0  0  0  0
    6.4757    2.8991   -9.1530 O   0  0  0  0  0  0  0  0  0  0  0  0
    6.1867    2.1055  -11.4295 C   0  0  0  0  0  0  0  0  0  0  0  0
    5.2603    1.4195  -12.4433 C   0  0  0  0  0  0  0  0  0  0  0  0
    3.8163    1.9179  -12.3090 C   0  0  0  0  0  0  0  0  0  0  0  0
    3.3093    1.7911  -10.8665 C   0  0  0  0  0  0  0  0  0  0  0  0
    4.2493    2.4923   -9.8772 C   0  0  0  0  0  0  0  0  0  0  0  0
    4.3424    2.1556   -2.4895 C   0  0  0  0  0  0  0  0  0  0  0  0
    4.2529    1.7431   -1.1615 C   0  0  0  0  0  0  0  0  0  0  0  0
    3.5953   -1.2469    1.9513 H   0  0  0  0  0  0  0  0  0  0  0  0
    4.3597   -1.9421    0.4872 H   0  0  0  0  0  0  0  0  0  0  0  0
    2.6073   -1.5528    0.4879 H   0  0  0  0  0  0  0  0  0  0  0  0
    3.5312   -1.5504   -1.6960 H   0  0  0  0  0  0  0  0  0  0  0  0
    3.6894   -0.8065   -4.0102 H   0  0  0  0  0  0  0  0  0  0  0  0
    2.0801    1.8266   -5.3116 H   0  0  0  0  0  0  0  0  0  0  0  0
    2.7488    0.2374   -5.7741 H   0  0  0  0  0  0  0  0  0  0  0  0
    2.9904    1.6345   -6.8312 H   0  0  0  0  0  0  0  0  0  0  0  0
    3.6771    3.7844   -4.7626 H   0  0  0  0  0  0  0  0  0  0  0  0
    4.5577    3.4553   -6.2659 H   0  0  0  0  0  0  0  0  0  0  0  0
    5.4366    3.5089   -4.7220 H   0  0  0  0  0  0  0  0  0  0  0  0
    5.2802   -0.1793   -5.5403 H   0  0  0  0  0  0  0  0  0  0  0  0
    6.3571    1.1576   -5.0800 H   0  0  0  0  0  0  0  0  0  0  0  0
    6.1438    1.9920   -7.3782 H   0  0  0  0  0  0  0  0  0  0  0  0
    5.3862   -0.1722  -10.1006 H   0  0  0  0  0  0  0  0  0  0  0  0
    6.9608    0.3108   -9.4774 H   0  0  0  0  0  0  0  0  0  0  0  0
    7.4109    2.7647   -9.3643 H   0  0  0  0  0  0  0  0  0  0  0  0
    7.2120    1.6995  -11.5099 H   0  0  0  0  0  0  0  0  0  0  0  0
    6.2518    3.1826  -11.6625 H   0  0  0  0  0  0  0  0  0  0  0  0
    5.2875    0.3254  -12.2984 H   0  0  0  0  0  0  0  0  0  0  0  0
    5.6360    1.5993  -13.4642 H   0  0  0  0  0  0  0  0  0  0  0  0
    3.1569    1.3655  -12.9988 H   0  0  0  0  0  0  0  0  0  0  0  0
    3.7693    2.9792  -12.6158 H   0  0  0  0  0  0  0  0  0  0  0  0
    3.2076    0.7251  -10.5972 H   0  0  0  0  0  0  0  0  0  0  0  0
    2.2991    2.2235  -10.7781 H   0  0  0  0  0  0  0  0  0  0  0  0
    3.8862    2.3791   -8.8443 H   0  0  0  0  0  0  0  0  0  0  0  0
    4.2701    3.5756  -10.0849 H   0  0  0  0  0  0  0  0  0  0  0  0
    4.5705    3.2044   -2.6821 H   0  0  0  0  0  0  0  0  0  0  0  0
    4.4065    2.4472   -0.3408 H   0  0  0  0  0  0  0  0  0  0  0  0
  1  2  1  0
  1 24  1  0
  1 25  1  0
  1 26  1  0
  2  3  1  0
  3  4  2  0
  3 23  1  0
  4  5  1  0
  4 27  1  0
  5  6  2  0
  5 28  1  0
  6  7  1  0
  6 22  1  0
  7  8  1  6
  7  9  1  0
  7 10  1  0
  8 29  1  0
  8 30  1  0
  8 31  1  0
  9 32  1  0
  9 33  1  0
  9 34  1  0
 10 11  1  0
 10 35  1  0
 10 36  1  0
 11 12  1  0
 11 37  1  0
 12 13  2  0
 12 14  1  0
 14 15  1  0
 14 38  1  0
 14 39  1  0
 15 16  1  1
 15 17  1  0
 15 21  1  0
 16 40  1  0
 17 18  1  0
 17 41  1  0
 17 42  1  0
 18 19  1  0
 18 43  1  0
 18 44  1  0
 19 20  1  0
 19 45  1  0
 19 46  1  0
 20 21  1  0
 20 47  1  0
 20 48  1  0
 21 49  1  0
 21 50  1  0
 22 23  2  0
 22 51  1  0
 23 52  1  0
M  END

