
     RDKit          3D

 49 52  0  0  0  0  0  0  0  0999 V2000
    1.6817   -1.4234    3.4698 C   0  0  0  0  0  0  0  0  0  0  0  0
    2.5339   -0.7193    2.4431 C   0  0  0  0  0  0  0  0  0  0  0  0
    2.9260    0.6033    2.6381 C   0  0  0  0  0  0  0  0  0  0  0  0
    3.7247    1.2932    1.7081 C   0  0  0  0  0  0  0  0  0  0  0  0
    4.1427    0.6470    0.5554 C   0  0  0  0  0  0  0  0  0  0  0  0
    3.7621   -0.6862    0.3240 C   0  0  0  0  0  0  0  0  0  0  0  0
    4.2350   -1.3478   -0.9053 C   0  0  0  0  0  0  0  0  0  0  0  0
    4.9555   -0.8441   -1.7540 O   0  0  0  0  0  0  0  0  0  0  0  0
    3.8141   -2.6715   -1.0462 N   0  0  0  0  0  0  0  0  0  0  0  0
    4.2314   -3.1532   -1.8357 H   0  0  0  0  0  0  0  0  0  0  0  0
    3.0129   -3.3781   -0.1676 C   0  0  0  0  0  0  0  0  0  0  0  0
    2.7556   -4.7019   -0.5226 N   0  0  0  0  0  0  0  0  0  0  0  0
    2.2320   -4.9679   -1.8712 C   0  0  0  0  0  0  0  0  0  0  0  0
    2.4225   -6.4356   -2.2542 C   0  0  0  0  0  0  0  0  0  0  0  0
    1.7865   -7.4047   -1.2421 C   0  0  2  0  0  0  0  0  0  0  0  0
    0.3149   -7.3177   -1.1912 N   0  0  0  0  0  0  0  0  0  0  0  0
   -0.4345   -7.1536   -2.4405 C   0  0  0  0  0  0  0  0  0  0  0  0
   -0.6119   -8.4636   -3.2122 C   0  0  0  0  0  0  0  0  0  0  0  0
   -1.2333   -9.4437   -2.4019 O   0  0  0  0  0  0  0  0  0  0  0  0
   -0.5186   -9.6736   -1.2024 C   0  0  0  0  0  0  0  0  0  0  0  0
   -0.3332   -8.3760   -0.4073 C   0  0  0  0  0  0  0  0  0  0  0  0
    2.3915   -7.0496    0.1336 C   0  0  0  0  0  0  0  0  0  0  0  0
    2.1865   -5.5789    0.4990 C   0  0  0  0  0  0  0  0  0  0  0  0
    2.5735   -2.7549    0.9736 C   0  0  0  0  0  0  0  0  0  0  0  0
    2.9560   -1.3941    1.2571 C   0  0  0  0  0  0  0  0  0  0  0  0
    1.4693   -0.7656    4.3250 H   0  0  0  0  0  0  0  0  0  0  0  0
    2.1768   -2.3291    3.8598 H   0  0  0  0  0  0  0  0  0  0  0  0
    0.7133   -1.7456    3.0494 H   0  0  0  0  0  0  0  0  0  0  0  0
    2.6015    1.1182    3.5474 H   0  0  0  0  0  0  0  0  0  0  0  0
    4.0113    2.3301    1.8991 H   0  0  0  0  0  0  0  0  0  0  0  0
    4.7662    1.1399   -0.1929 H   0  0  0  0  0  0  0  0  0  0  0  0
    2.7497   -4.3317   -2.6024 H   0  0  0  0  0  0  0  0  0  0  0  0
    1.1590   -4.6923   -1.9198 H   0  0  0  0  0  0  0  0  0  0  0  0
    3.5024   -6.6532   -2.2796 H   0  0  0  0  0  0  0  0  0  0  0  0
    2.0522   -6.6036   -3.2763 H   0  0  0  0  0  0  0  0  0  0  0  0
    2.1286   -8.4272   -1.5104 H   0  0  0  0  0  0  0  0  0  0  0  0
    0.0214   -6.3869   -3.0814 H   0  0  0  0  0  0  0  0  0  0  0  0
   -1.4400   -6.7809   -2.1735 H   0  0  0  0  0  0  0  0  0  0  0  0
    0.3701   -8.8333   -3.5786 H   0  0  0  0  0  0  0  0  0  0  0  0
   -1.2622   -8.3161   -4.0892 H   0  0  0  0  0  0  0  0  0  0  0  0
    0.4674  -10.1328   -1.4279 H   0  0  0  0  0  0  0  0  0  0  0  0
   -1.0992  -10.4058   -0.6192 H   0  0  0  0  0  0  0  0  0  0  0  0
    0.2333   -8.5789    0.5132 H   0  0  0  0  0  0  0  0  0  0  0  0
   -1.3302   -8.0142   -0.0979 H   0  0  0  0  0  0  0  0  0  0  0  0
    3.4713   -7.2707    0.1051 H   0  0  0  0  0  0  0  0  0  0  0  0
    1.9673   -7.6745    0.9336 H   0  0  0  0  0  0  0  0  0  0  0  0
    2.6901   -5.3644    1.4523 H   0  0  0  0  0  0  0  0  0  0  0  0
    1.1045   -5.3831    0.6366 H   0  0  0  0  0  0  0  0  0  0  0  0
    1.9068   -3.2825    1.6486 H   0  0  0  0  0  0  0  0  0  0  0  0
  1  2  1  0
  1 26  1  0
  1 27  1  0
  1 28  1  0
  2  3  2  0
  2 25  1  0
  3  4  1  0
  3 29  1  0
  4  5  2  0
  4 30  1  0
  5  6  1  0
  5 31  1  0
  6  7  1  0
  6 25  2  0
  7  8  2  0
  7  9  1  0
  9 10  1  0
  9 11  1  0
 11 12  1  0
 11 24  2  0
 12 13  1  0
 12 23  1  0
 13 14  1  0
 13 32  1  0
 13 33  1  0
 14 15  1  0
 14 34  1  0
 14 35  1  0
 15 16  1  0
 15 22  1  0
 15 36  1  6
 16 17  1  0
 16 21  1  0
 17 18  1  0
 17 37  1  0
 17 38  1  0
 18 19  1  0
 18 39  1  0
 18 40  1  0
 19 20  1  0
 20 21  1  0
 20 41  1  0
 20 42  1  0
 21 43  1  0
 21 44  1  0
 22 23  1  0
 22 45  1  0
 22 46  1  0
 23 47  1  0
 23 48  1  0
 24 25  1  0
 24 49  1  0
M  END

