
     RDKit          3D

 56 58  0  0  0  0  0  0  0  0999 V2000
   -2.7236    1.1194   -6.6296 C   0  0  0  0  0  0  0  0  0  0  0  0
   -2.3864    0.7343   -5.3101 O   0  0  0  0  0  0  0  0  0  0  0  0
   -3.3824    0.5293   -4.3822 C   0  0  0  0  0  0  0  0  0  0  0  0
   -4.7658    0.3864   -4.7888 C   0  0  0  0  0  0  0  0  0  0  0  0
   -5.6586   -0.2012   -3.8815 C   0  0  0  0  0  0  0  0  0  0  0  0
   -5.2686   -0.4975   -2.5631 C   0  0  0  0  0  0  0  0  0  0  0  0
   -6.4167   -1.3068   -1.4975 Cl  0  0  0  0  0  0  0  0  0  0  0  0
   -3.9713   -0.2209   -2.0868 C   0  0  0  0  0  0  0  0  0  0  0  0
   -3.0054    0.2478   -3.0555 C   0  0  0  0  0  0  0  0  0  0  0  0
   -1.7075    0.2735   -2.5580 N   0  0  0  0  0  0  0  0  0  0  0  0
   -0.4491    0.6381   -3.1560 C   0  0  0  0  0  0  0  0  0  0  0  0
    0.6417   -0.4514   -2.9738 C   0  0  0  0  0  0  0  0  0  0  0  0
    1.6365   -0.1997   -2.3154 O   0  0  0  0  0  0  0  0  0  0  0  0
    0.4505   -1.6665   -3.5606 N   0  0  0  0  0  0  0  0  0  0  0  0
   -0.6455   -2.1609   -4.4000 C   0  0  1  0  0  0  0  0  0  0  0  0
   -0.0816   -2.9021   -5.6311 C   0  0  0  0  0  0  0  0  0  0  0  0
    0.4854   -4.2848   -5.2553 C   0  0  0  0  0  0  0  0  0  0  0  0
   -0.4617   -5.1497   -4.5580 N   0  0  0  0  0  0  0  0  0  0  0  0
   -1.5136   -5.8227   -5.3470 C   0  0  1  0  0  0  0  0  0  0  0  0
   -1.0088   -6.3410   -6.7095 C   0  0  0  0  0  0  0  0  0  0  0  0
    0.0200   -7.4746   -6.5853 C   0  0  0  0  0  0  0  0  0  0  0  0
   -0.5292   -8.6401   -5.7520 C   0  0  0  0  0  0  0  0  0  0  0  0
   -1.0648   -8.1586   -4.3977 C   0  0  0  0  0  0  0  0  0  0  0  0
   -2.0896   -7.0310   -4.5705 C   0  0  0  0  0  0  0  0  0  0  0  0
   -0.9395   -4.4686   -3.3516 C   0  0  0  0  0  0  0  0  0  0  0  0
   -1.5931   -3.1018   -3.6266 C   0  0  0  0  0  0  0  0  0  0  0  0
   -1.7742    1.2457   -7.1676 H   0  0  0  0  0  0  0  0  0  0  0  0
   -3.2726    2.0768   -6.6400 H   0  0  0  0  0  0  0  0  0  0  0  0
   -3.3298    0.3515   -7.1376 H   0  0  0  0  0  0  0  0  0  0  0  0
   -5.1288    0.8010   -5.7290 H   0  0  0  0  0  0  0  0  0  0  0  0
   -6.6859   -0.4236   -4.1874 H   0  0  0  0  0  0  0  0  0  0  0  0
   -3.7783   -0.1014   -1.0130 H   0  0  0  0  0  0  0  0  0  0  0  0
   -1.6564    0.0063   -1.5786 H   0  0  0  0  0  0  0  0  0  0  0  0
   -0.0297    1.5186   -2.6414 H   0  0  0  0  0  0  0  0  0  0  0  0
   -0.6066    0.8808   -4.2110 H   0  0  0  0  0  0  0  0  0  0  0  0
    1.2139   -2.3071   -3.3597 H   0  0  0  0  0  0  0  0  0  0  0  0
   -1.2065   -1.2858   -4.7503 H   0  0  0  0  0  0  0  0  0  0  0  0
    0.6933   -2.2860   -6.1178 H   0  0  0  0  0  0  0  0  0  0  0  0
   -0.8981   -3.0307   -6.3615 H   0  0  0  0  0  0  0  0  0  0  0  0
    1.3603   -4.1518   -4.5892 H   0  0  0  0  0  0  0  0  0  0  0  0
    0.8832   -4.7845   -6.1475 H   0  0  0  0  0  0  0  0  0  0  0  0
   -2.3572   -5.1291   -5.5579 H   0  0  0  0  0  0  0  0  0  0  0  0
   -0.6173   -5.5207   -7.3319 H   0  0  0  0  0  0  0  0  0  0  0  0
   -1.8935   -6.7196   -7.2502 H   0  0  0  0  0  0  0  0  0  0  0  0
    0.9409   -7.0932   -6.1118 H   0  0  0  0  0  0  0  0  0  0  0  0
    0.3087   -7.8262   -7.5906 H   0  0  0  0  0  0  0  0  0  0  0  0
    0.2492   -9.4084   -5.6081 H   0  0  0  0  0  0  0  0  0  0  0  0
   -1.3480   -9.1300   -6.3121 H   0  0  0  0  0  0  0  0  0  0  0  0
   -0.2279   -7.7871   -3.7828 H   0  0  0  0  0  0  0  0  0  0  0  0
   -1.5193   -8.9988   -3.8460 H   0  0  0  0  0  0  0  0  0  0  0  0
   -2.4867   -6.7207   -3.5917 H   0  0  0  0  0  0  0  0  0  0  0  0
   -2.9608   -7.4048   -5.1375 H   0  0  0  0  0  0  0  0  0  0  0  0
   -0.0764   -4.3298   -2.6737 H   0  0  0  0  0  0  0  0  0  0  0  0
   -1.6418   -5.1146   -2.8075 H   0  0  0  0  0  0  0  0  0  0  0  0
   -1.9126   -2.6260   -2.6851 H   0  0  0  0  0  0  0  0  0  0  0  0
   -2.5083   -3.2395   -4.2259 H   0  0  0  0  0  0  0  0  0  0  0  0
  1  2  1  0
  1 27  1  0
  1 28  1  0
  1 29  1  0
  2  3  1  0
  3  4  2  0
  3  9  1  0
  4  5  1  0
  4 30  1  0
  5  6  2  0
  5 31  1  0
  6  7  1  0
  6  8  1  0
  8  9  2  0
  8 32  1  0
  9 10  1  0
 10 11  1  0
 10 33  1  0
 11 12  1  0
 11 34  1  0
 11 35  1  0
 12 13  2  0
 12 14  1  0
 14 15  1  0
 14 36  1  0
 15 16  1  0
 15 26  1  0
 15 37  1  6
 16 17  1  0
 16 38  1  0
 16 39  1  0
 17 18  1  0
 17 40  1  0
 17 41  1  0
 18 19  1  0
 18 25  1  0
 19 20  1  0
 19 24  1  0
 19 42  1  6
 20 21  1  0
 20 43  1  0
 20 44  1  0
 21 22  1  0
 21 45  1  0
 21 46  1  0
 22 23  1  0
 22 47  1  0
 22 48  1  0
 23 24  1  0
 23 49  1  0
 23 50  1  0
 24 51  1  0
 24 52  1  0
 25 26  1  0
 25 53  1  0
 25 54  1  0
 26 55  1  0
 26 56  1  0
M  END

