
     RDKit          3D

 40 41  0  0  0  0  0  0  0  0999 V2000
    1.9123    0.1165   -0.4953 C   0  0  0  0  0  0  0  0  0  0  0  0
    3.3338   -0.3270   -0.0664 C   0  0  1  0  0  0  0  0  0  0  0  0
    3.7193    0.3529    1.1397 N   0  0  0  0  0  0  0  0  0  0  0  0
    4.3812    1.6590    1.2018 C   0  0  0  0  0  0  0  0  0  0  0  0
    4.4058    2.3017    2.5375 C   0  0  0  0  0  0  0  0  0  0  0  0
    3.2803    3.0862    3.0543 C   0  0  0  0  0  0  0  0  0  0  0  0
    3.4404    3.8208    4.2243 C   0  0  0  0  0  0  0  0  0  0  0  0
    4.6489    3.8509    4.9356 C   0  0  0  0  0  0  0  0  0  0  0  0
    5.7833    3.1045    4.4224 C   0  0  0  0  0  0  0  0  0  0  0  0
    5.6149    2.3894    3.2632 C   0  0  0  0  0  0  0  0  0  0  0  0
    6.6847    1.7020    2.7482 F   0  0  0  0  0  0  0  0  0  0  0  0
    3.3515   -1.8440    0.2581 C   0  0  0  0  0  0  0  0  0  0  0  0
    3.1864   -2.1667    1.4271 O   0  0  0  0  0  0  0  0  0  0  0  0
    3.5104   -2.7282   -0.7584 N   0  0  0  0  0  0  0  0  0  0  0  0
    3.5223   -4.1668   -0.4504 C   0  0  0  0  0  0  0  0  0  0  0  0
    2.5021   -4.9216   -1.3062 C   0  0  0  0  0  0  0  0  0  0  0  0
    2.7137   -4.6403   -2.7982 C   0  0  0  0  0  0  0  0  0  0  0  0
    2.7243   -3.1313   -3.0693 C   0  0  0  0  0  0  0  0  0  0  0  0
    3.7367   -2.4099   -2.1702 C   0  0  0  0  0  0  0  0  0  0  0  0
    1.8756    1.2040   -0.6467 H   0  0  0  0  0  0  0  0  0  0  0  0
    1.1814   -0.1629    0.2766 H   0  0  0  0  0  0  0  0  0  0  0  0
    1.6388   -0.3817   -1.4345 H   0  0  0  0  0  0  0  0  0  0  0  0
    4.0551   -0.0386   -0.8450 H   0  0  0  0  0  0  0  0  0  0  0  0
    3.5580   -0.1793    2.0049 H   0  0  0  0  0  0  0  0  0  0  0  0
    3.9129    2.2591    0.3925 H   0  0  0  0  0  0  0  0  0  0  0  0
    5.4079    1.4366    0.8435 H   0  0  0  0  0  0  0  0  0  0  0  0
    2.3256    3.0963    2.5231 H   0  0  0  0  0  0  0  0  0  0  0  0
    2.5885    4.3967    4.6026 H   0  0  0  0  0  0  0  0  0  0  0  0
    4.7476    4.4365    5.8503 H   0  0  0  0  0  0  0  0  0  0  0  0
    6.7478    3.0847    4.9306 H   0  0  0  0  0  0  0  0  0  0  0  0
    3.3231   -4.2781    0.6214 H   0  0  0  0  0  0  0  0  0  0  0  0
    4.5400   -4.5518   -0.6488 H   0  0  0  0  0  0  0  0  0  0  0  0
    1.4846   -4.6157   -1.0059 H   0  0  0  0  0  0  0  0  0  0  0  0
    2.5854   -5.9999   -1.0953 H   0  0  0  0  0  0  0  0  0  0  0  0
    1.9338   -5.1312   -3.4018 H   0  0  0  0  0  0  0  0  0  0  0  0
    3.6778   -5.0747   -3.1202 H   0  0  0  0  0  0  0  0  0  0  0  0
    1.7186   -2.7144   -2.8837 H   0  0  0  0  0  0  0  0  0  0  0  0
    2.9696   -2.9217   -4.1231 H   0  0  0  0  0  0  0  0  0  0  0  0
    3.6874   -1.3273   -2.3343 H   0  0  0  0  0  0  0  0  0  0  0  0
    4.7621   -2.7262   -2.4403 H   0  0  0  0  0  0  0  0  0  0  0  0
  1  2  1  0
  1 20  1  0
  1 21  1  0
  1 22  1  0
  2  3  1  0
  2 12  1  0
  2 23  1  6
  3  4  1  0
  3 24  1  0
  4  5  1  0
  4 25  1  0
  4 26  1  0
  5  6  2  0
  5 10  1  0
  6  7  1  0
  6 27  1  0
  7  8  2  0
  7 28  1  0
  8  9  1  0
  8 29  1  0
  9 10  2  0
  9 30  1  0
 10 11  1  0
 12 13  2  0
 12 14  1  0
 14 15  1  0
 14 19  1  0
 15 16  1  0
 15 31  1  0
 15 32  1  0
 16 17  1  0
 16 33  1  0
 16 34  1  0
 17 18  1  0
 17 35  1  0
 17 36  1  0
 18 19  1  0
 18 37  1  0
 18 38  1  0
 19 39  1  0
 19 40  1  0
M  END

