
     RDKit          3D

 36 40  0  0  0  0  0  0  0  0999 V2000
    1.7548   -0.1380    2.0342 C   0  0  0  0  0  0  0  0  0  0  0  0
    3.0697    0.2199    1.6110 O   0  0  0  0  0  0  0  0  0  0  0  0
    3.1468    1.0113    0.5113 C   0  0  0  0  0  0  0  0  0  0  0  0
    2.1799    1.4041   -0.0980 O   0  0  0  0  0  0  0  0  0  0  0  0
    4.5441    1.3075    0.1715 C   0  0  0  0  0  0  0  0  0  0  0  0
    5.0229    2.0701   -0.8790 C   0  0  0  0  0  0  0  0  0  0  0  0
    6.4472    2.0585   -0.7895 C   0  0  0  0  0  0  0  0  0  0  0  0
    6.7839    1.2625    0.3486 C   0  0  0  0  0  0  0  0  0  0  0  0
    8.1073    1.0290    0.7392 C   0  0  0  0  0  0  0  0  0  0  0  0
    9.1386    1.5969   -0.0173 C   0  0  0  0  0  0  0  0  0  0  0  0
   10.5228    1.3914    0.3313 C   0  0  0  0  0  0  0  0  0  0  0  0
   11.5339    1.9366   -0.4002 C   0  0  0  0  0  0  0  0  0  0  0  0
   11.2674    2.7479   -1.5618 C   0  0  0  0  0  0  0  0  0  0  0  0
   12.2964    3.3162   -2.3284 C   0  0  0  0  0  0  0  0  0  0  0  0
   12.0076    4.1003   -3.4511 C   0  0  0  0  0  0  0  0  0  0  0  0
   10.6878    4.3313   -3.8271 C   0  0  0  0  0  0  0  0  0  0  0  0
    9.6189    3.7808   -3.0879 C   0  0  0  0  0  0  0  0  0  0  0  0
    8.2485    3.9989   -3.4491 C   0  0  0  0  0  0  0  0  0  0  0  0
    7.2268    3.4543   -2.7207 C   0  0  0  0  0  0  0  0  0  0  0  0
    7.4847    2.6453   -1.5681 C   0  0  0  0  0  0  0  0  0  0  0  0
    8.8353    2.4076   -1.1758 C   0  0  0  0  0  0  0  0  0  0  0  0
    9.9045    2.9770   -1.9386 C   0  0  0  0  0  0  0  0  0  0  0  0
    5.6104    0.8253    0.9087 N   0  0  0  0  0  0  0  0  0  0  0  0
    5.5076    0.2346    1.7231 H   0  0  0  0  0  0  0  0  0  0  0  0
    1.8785   -0.7680    2.9237 H   0  0  0  0  0  0  0  0  0  0  0  0
    1.2269   -0.6933    1.2439 H   0  0  0  0  0  0  0  0  0  0  0  0
    1.1652    0.7582    2.2801 H   0  0  0  0  0  0  0  0  0  0  0  0
    4.3937    2.5675   -1.6127 H   0  0  0  0  0  0  0  0  0  0  0  0
    8.3410    0.4163    1.6133 H   0  0  0  0  0  0  0  0  0  0  0  0
   10.7466    0.7785    1.2088 H   0  0  0  0  0  0  0  0  0  0  0  0
   12.5756    1.7659   -0.1148 H   0  0  0  0  0  0  0  0  0  0  0  0
   13.3354    3.1390   -2.0373 H   0  0  0  0  0  0  0  0  0  0  0  0
   12.8239    4.5336   -4.0346 H   0  0  0  0  0  0  0  0  0  0  0  0
   10.4645    4.9445   -4.7044 H   0  0  0  0  0  0  0  0  0  0  0  0
    8.0317    4.6137   -4.3269 H   0  0  0  0  0  0  0  0  0  0  0  0
    6.1906    3.6339   -3.0159 H   0  0  0  0  0  0  0  0  0  0  0  0
  1  2  1  0
  1 25  1  0
  1 26  1  0
  1 27  1  0
  2  3  1  0
  3  4  2  0
  3  5  1  0
  5  6  2  0
  5 23  1  0
  6  7  1  0
  6 28  1  0
  7  8  2  0
  7 20  1  0
  8  9  1  0
  8 23  1  0
  9 10  2  0
  9 29  1  0
 10 11  1  0
 10 21  1  0
 11 12  2  0
 11 30  1  0
 12 13  1  0
 12 31  1  0
 13 14  2  0
 13 22  1  0
 14 15  1  0
 14 32  1  0
 15 16  2  0
 15 33  1  0
 16 17  1  0
 16 34  1  0
 17 18  2  0
 17 22  1  0
 18 19  1  0
 18 35  1  0
 19 20  2  0
 19 36  1  0
 20 21  1  0
 21 22  2  0
 23 24  1  0
M  END

