
     RDKit          3D

 35 36  0  0  0  0  0  0  0  0999 V2000
    3.1142   -1.1324   -1.8164 C   0  0  0  0  0  0  0  0  0  0  0  0
    3.6612   -0.5236   -0.6498 N   0  0  0  0  0  0  0  0  0  0  0  0
    3.0683   -0.5445    0.6951 C   0  0  1  0  0  0  0  0  0  0  0  0
    2.4092   -1.8966    0.9606 C   0  0  0  0  0  0  0  0  0  0  0  0
    3.1659   -3.0724    1.1104 C   0  0  0  0  0  0  0  0  0  0  0  0
    2.5537   -4.2757    1.4516 C   0  0  0  0  0  0  0  0  0  0  0  0
    1.1694   -4.3439    1.6478 C   0  0  0  0  0  0  0  0  0  0  0  0
    0.5871   -5.5180    2.0202 O   0  0  0  0  0  0  0  0  0  0  0  0
    0.0925   -6.3420    0.9749 C   0  0  0  0  0  0  0  0  0  0  0  0
    0.4025   -3.1732    1.4931 C   0  0  0  0  0  0  0  0  0  0  0  0
   -1.3341   -3.2742    1.6599 Cl  0  0  0  0  0  0  0  0  0  0  0  0
    1.0118   -1.9468    1.1667 C   0  0  0  0  0  0  0  0  0  0  0  0
    0.2739   -0.8138    0.9734 O   0  0  0  0  0  0  0  0  0  0  0  0
   -0.2608   -0.1719    2.1408 C   0  0  0  0  0  0  0  0  0  0  0  0
    4.0643    0.0036    1.6929 C   0  0  0  0  0  0  0  0  0  0  0  0
    3.4079    0.8569    3.1277 S   0  0  0  0  0  0  0  0  0  0  0  0
    4.7065    0.2685    4.1688 C   0  0  0  0  0  0  0  0  0  0  0  0
    5.6044   -0.5164    3.4587 C   0  0  0  0  0  0  0  0  0  0  0  0
    5.2286   -0.7064    2.1268 C   0  0  0  0  0  0  0  0  0  0  0  0
    6.3524   -1.4295    0.9210 Cl  0  0  0  0  0  0  0  0  0  0  0  0
    3.5848   -2.1242   -1.9611 H   0  0  0  0  0  0  0  0  0  0  0  0
    3.3439   -0.5216   -2.7022 H   0  0  0  0  0  0  0  0  0  0  0  0
    2.0346   -1.2843   -1.6984 H   0  0  0  0  0  0  0  0  0  0  0  0
    4.5848   -0.0901   -0.7018 H   0  0  0  0  0  0  0  0  0  0  0  0
    2.2243    0.1648    0.5918 H   0  0  0  0  0  0  0  0  0  0  0  0
    4.2480   -3.0386    0.9759 H   0  0  0  0  0  0  0  0  0  0  0  0
    3.1405   -5.1861    1.5895 H   0  0  0  0  0  0  0  0  0  0  0  0
   -0.3153   -7.2459    1.4482 H   0  0  0  0  0  0  0  0  0  0  0  0
    0.8982   -6.6341    0.2768 H   0  0  0  0  0  0  0  0  0  0  0  0
   -0.7109   -5.8407    0.4083 H   0  0  0  0  0  0  0  0  0  0  0  0
   -0.9934   -0.8165    2.6486 H   0  0  0  0  0  0  0  0  0  0  0  0
   -0.7652    0.7370    1.7857 H   0  0  0  0  0  0  0  0  0  0  0  0
    0.5490    0.0995    2.8372 H   0  0  0  0  0  0  0  0  0  0  0  0
    4.7270    0.5343    5.2234 H   0  0  0  0  0  0  0  0  0  0  0  0
    6.5246   -0.9161    3.8887 H   0  0  0  0  0  0  0  0  0  0  0  0
  1  2  1  0
  1 21  1  0
  1 22  1  0
  1 23  1  0
  2  3  1  0
  2 24  1  0
  3  4  1  0
  3 15  1  0
  3 25  1  6
  4  5  2  0
  4 12  1  0
  5  6  1  0
  5 26  1  0
  6  7  2  0
  6 27  1  0
  7  8  1  0
  7 10  1  0
  8  9  1  0
  9 28  1  0
  9 29  1  0
  9 30  1  0
 10 11  1  0
 10 12  2  0
 12 13  1  0
 13 14  1  0
 14 31  1  0
 14 32  1  0
 14 33  1  0
 15 16  1  0
 15 19  2  0
 16 17  1  0
 17 18  2  0
 17 34  1  0
 18 19  1  0
 18 35  1  0
 19 20  1  0
M  END

