
     RDKit          3D

 30 32  0  0  0  0  0  0  0  0999 V2000
    2.0229   -0.3590   -1.7215 C   0  0  0  0  0  0  0  0  0  0  0  0
    2.9997   -0.1238   -0.5958 C   0  0  0  0  0  0  0  0  0  0  0  0
    3.6429    1.1102   -0.4621 C   0  0  0  0  0  0  0  0  0  0  0  0
    4.5862    1.3438    0.5490 C   0  0  0  0  0  0  0  0  0  0  0  0
    4.9018    0.3429    1.4631 C   0  0  0  0  0  0  0  0  0  0  0  0
    4.2594   -0.8873    1.3440 C   0  0  0  0  0  0  0  0  0  0  0  0
    4.4906   -1.8241    2.2686 F   0  0  0  0  0  0  0  0  0  0  0  0
    3.3153   -1.1627    0.3268 C   0  0  0  0  0  0  0  0  0  0  0  0
    2.6728   -2.4881    0.2918 C   0  0  0  0  0  0  0  0  0  0  0  0
    1.3174   -2.5630    0.4968 N   0  0  0  0  0  0  0  0  0  0  0  0
    0.7887   -1.7114    0.6614 H   0  0  0  0  0  0  0  0  0  0  0  0
    0.5621   -3.7313    0.5662 C   0  0  0  0  0  0  0  0  0  0  0  0
   -1.0814   -3.6155    0.7839 S   0  0  0  0  0  0  0  0  0  0  0  0
    1.2440   -4.9155    0.4586 N   0  0  0  0  0  0  0  0  0  0  0  0
    2.5327   -4.9038    0.2581 C   0  0  0  0  0  0  0  0  0  0  0  0
    3.1663   -6.1262    0.1520 N   0  0  0  0  0  0  0  0  0  0  0  0
    2.5833   -6.9515    0.2705 H   0  0  0  0  0  0  0  0  0  0  0  0
    4.4938   -6.3336   -0.1296 C   0  0  0  0  0  0  0  0  0  0  0  0
    5.1977   -7.8288   -0.2437 S   0  0  0  0  0  0  0  0  0  0  0  0
    5.2038   -5.1657   -0.3214 N   0  0  0  0  0  0  0  0  0  0  0  0
    6.1836   -5.3072   -0.5495 H   0  0  0  0  0  0  0  0  0  0  0  0
    4.7050   -3.8862   -0.2303 C   0  0  0  0  0  0  0  0  0  0  0  0
    5.8086   -2.5907   -0.6146 S   0  0  0  0  0  0  0  0  0  0  0  0
    3.3549   -3.7220    0.1181 C   0  0  0  0  0  0  0  0  0  0  0  0
    2.0605    0.4634   -2.4492 H   0  0  0  0  0  0  0  0  0  0  0  0
    0.9817   -0.4363   -1.3668 H   0  0  0  0  0  0  0  0  0  0  0  0
    2.2460   -1.2990   -2.2507 H   0  0  0  0  0  0  0  0  0  0  0  0
    3.4144    1.9052   -1.1759 H   0  0  0  0  0  0  0  0  0  0  0  0
    5.0760    2.3177    0.6208 H   0  0  0  0  0  0  0  0  0  0  0  0
    5.6147    0.4938    2.2754 H   0  0  0  0  0  0  0  0  0  0  0  0
  1  2  1  0
  1 25  1  0
  1 26  1  0
  1 27  1  0
  2  3  2  0
  2  8  1  0
  3  4  1  0
  3 28  1  0
  4  5  2  0
  4 29  1  0
  5  6  1  0
  5 30  1  0
  6  7  1  0
  6  8  2  0
  8  9  1  0
  9 10  1  0
  9 24  2  0
 10 11  1  0
 10 12  1  0
 12 13  2  0
 12 14  1  0
 14 15  2  0
 15 16  1  0
 15 24  1  0
 16 17  1  0
 16 18  1  0
 18 19  2  0
 18 20  1  0
 20 21  1  0
 20 22  1  0
 22 23  2  0
 22 24  1  0
M  END

