
     RDKit          3D

 42 43  0  0  0  0  0  0  0  0999 V2000
    9.1618    1.5468   -2.5840 C   0  0  0  0  0  0  0  0  0  0  0  0
    8.5395    0.4870   -1.8947 O   0  0  0  0  0  0  0  0  0  0  0  0
    7.2102    0.2888   -2.0666 C   0  0  0  0  0  0  0  0  0  0  0  0
    6.3846    1.0655   -2.8798 C   0  0  0  0  0  0  0  0  0  0  0  0
    5.0074    0.7846   -3.0042 C   0  0  0  0  0  0  0  0  0  0  0  0
    4.1458    1.6604   -3.8922 C   0  0  0  0  0  0  0  0  0  0  0  0
    3.8986    3.0063   -3.3548 N   0  0  0  0  0  0  0  0  0  0  0  0
    2.8697    3.0979   -2.3349 C   0  0  0  0  0  0  0  0  0  0  0  0
    4.6836    4.0384   -3.8010 C   0  0  0  0  0  0  0  0  0  0  0  0
    5.6300    3.8360   -4.5582 O   0  0  0  0  0  0  0  0  0  0  0  0
    4.3722    5.4595   -3.3249 C   0  0  1  0  0  0  0  0  0  0  0  0
    5.2431    5.8605   -2.1060 C   0  0  0  0  0  0  0  0  0  0  0  0
    5.4673    7.3645   -2.3373 C   0  0  0  0  0  0  0  0  0  0  0  0
    5.6260    7.5157   -3.7813 N   0  0  0  0  0  0  0  0  0  0  0  0
    4.7195    6.5379   -4.4158 C   0  0  2  0  0  0  0  0  0  0  0  0
    3.4676    7.2179   -4.9738 C   0  0  0  0  0  0  0  0  0  0  0  0
    4.4734   -0.2945   -2.3004 C   0  0  0  0  0  0  0  0  0  0  0  0
    5.2960   -1.0834   -1.4814 C   0  0  0  0  0  0  0  0  0  0  0  0
    6.6549   -0.8072   -1.3524 C   0  0  0  0  0  0  0  0  0  0  0  0
    7.4979   -1.5345   -0.5764 O   0  0  0  0  0  0  0  0  0  0  0  0
   10.2232    1.5221   -2.3023 H   0  0  0  0  0  0  0  0  0  0  0  0
    8.7370    2.5273   -2.3020 H   0  0  0  0  0  0  0  0  0  0  0  0
    9.0771    1.4320   -3.6797 H   0  0  0  0  0  0  0  0  0  0  0  0
    6.7902    1.9062   -3.4433 H   0  0  0  0  0  0  0  0  0  0  0  0
    3.1671    1.1782   -4.0511 H   0  0  0  0  0  0  0  0  0  0  0  0
    4.6262    1.7942   -4.8701 H   0  0  0  0  0  0  0  0  0  0  0  0
    1.8542    3.0231   -2.7669 H   0  0  0  0  0  0  0  0  0  0  0  0
    2.9400    4.0353   -1.7729 H   0  0  0  0  0  0  0  0  0  0  0  0
    2.9932    2.2738   -1.6130 H   0  0  0  0  0  0  0  0  0  0  0  0
    3.3095    5.5578   -3.0605 H   0  0  0  0  0  0  0  0  0  0  0  0
    6.2091    5.3301   -2.1500 H   0  0  0  0  0  0  0  0  0  0  0  0
    4.7731    5.6225   -1.1379 H   0  0  0  0  0  0  0  0  0  0  0  0
    6.3386    7.7684   -1.7984 H   0  0  0  0  0  0  0  0  0  0  0  0
    4.5842    7.9347   -1.9943 H   0  0  0  0  0  0  0  0  0  0  0  0
    6.5854    7.2803   -4.0293 H   0  0  0  0  0  0  0  0  0  0  0  0
    5.2572    6.0434   -5.2366 H   0  0  0  0  0  0  0  0  0  0  0  0
    2.9177    7.7569   -4.1841 H   0  0  0  0  0  0  0  0  0  0  0  0
    2.7820    6.4811   -5.4250 H   0  0  0  0  0  0  0  0  0  0  0  0
    3.7443    7.9515   -5.7461 H   0  0  0  0  0  0  0  0  0  0  0  0
    3.4118   -0.5407   -2.3906 H   0  0  0  0  0  0  0  0  0  0  0  0
    4.8730   -1.9314   -0.9328 H   0  0  0  0  0  0  0  0  0  0  0  0
    6.9994   -2.2475   -0.1565 H   0  0  0  0  0  0  0  0  0  0  0  0
  1  2  1  0
  1 21  1  0
  1 22  1  0
  1 23  1  0
  2  3  1  0
  3  4  2  0
  3 19  1  0
  4  5  1  0
  4 24  1  0
  5  6  1  0
  5 17  2  0
  6  7  1  0
  6 25  1  0
  6 26  1  0
  7  8  1  0
  7  9  1  0
  8 27  1  0
  8 28  1  0
  8 29  1  0
  9 10  2  0
  9 11  1  0
 11 12  1  0
 11 15  1  0
 11 30  1  1
 12 13  1  0
 12 31  1  0
 12 32  1  0
 13 14  1  0
 13 33  1  0
 13 34  1  0
 14 15  1  0
 14 35  1  0
 15 16  1  0
 15 36  1  6
 16 37  1  0
 16 38  1  0
 16 39  1  0
 17 18  1  0
 17 40  1  0
 18 19  2  0
 18 41  1  0
 19 20  1  0
 20 42  1  0
M  END

