
     RDKit          3D

 28 29  0  0  0  0  0  0  0  0999 V2000
    1.9758    2.5368    1.8158 O   0  0  0  0  0  0  0  0  0  0  0  0
    2.1023    1.3083    1.1180 C   0  0  0  0  0  0  0  0  0  0  0  0
    3.0566    1.4842   -0.0599 C   0  0  0  0  0  0  0  0  0  0  0  0
    4.4758    1.5778    0.2745 N   0  0  0  0  0  0  0  0  0  0  0  0
    5.2274    0.3433    0.3719 C   0  0  0  0  0  0  0  0  0  0  0  0
    5.5546   -0.3294   -0.9613 C   0  0  1  0  0  0  0  0  0  0  0  0
    6.0951    0.5049   -1.8482 F   0  0  0  0  0  0  0  0  0  0  0  0
    6.4086   -1.3436   -0.7534 F   0  0  0  0  0  0  0  0  0  0  0  0
    4.4473   -0.8614   -1.5387 F   0  0  0  0  0  0  0  0  0  0  0  0
    5.1743    2.7774    0.2816 C   0  0  0  0  0  0  0  0  0  0  0  0
    6.5066    2.7139    0.2147 N   0  0  0  0  0  0  0  0  0  0  0  0
    7.2227    3.8381    0.1560 C   0  0  0  0  0  0  0  0  0  0  0  0
    8.9597    3.5993    0.0912 Cl  0  0  0  0  0  0  0  0  0  0  0  0
    6.7996    5.0796    0.1313 N   0  0  0  0  0  0  0  0  0  0  0  0
    5.4661    5.1869    0.2513 C   0  0  0  0  0  0  0  0  0  0  0  0
    4.7459    6.3532    0.3403 N   0  0  0  0  0  0  0  0  0  0  0  0
    3.5086    5.9646    0.5302 C   0  0  0  0  0  0  0  0  0  0  0  0
    3.3393    4.6069    0.5373 N   0  0  0  0  0  0  0  0  0  0  0  0
    2.5382    4.0873    0.9014 H   0  0  0  0  0  0  0  0  0  0  0  0
    4.6007    4.0673    0.3614 C   0  0  0  0  0  0  0  0  0  0  0  0
    1.4870    2.4036    2.6375 H   0  0  0  0  0  0  0  0  0  0  0  0
    1.1233    0.9771    0.7202 H   0  0  0  0  0  0  0  0  0  0  0  0
    2.4761    0.5109    1.7873 H   0  0  0  0  0  0  0  0  0  0  0  0
    2.7607    2.3711   -0.6399 H   0  0  0  0  0  0  0  0  0  0  0  0
    2.9159    0.6273   -0.7342 H   0  0  0  0  0  0  0  0  0  0  0  0
    4.6756   -0.3978    0.9728 H   0  0  0  0  0  0  0  0  0  0  0  0
    6.1873    0.5515    0.8588 H   0  0  0  0  0  0  0  0  0  0  0  0
    2.6608    6.6367    0.6760 H   0  0  0  0  0  0  0  0  0  0  0  0
  1  2  1  0
  1 21  1  0
  2  3  1  0
  2 22  1  0
  2 23  1  0
  3  4  1  0
  3 24  1  0
  3 25  1  0
  4  5  1  0
  4 10  1  0
  5  6  1  0
  5 26  1  0
  5 27  1  0
  6  7  1  6
  6  8  1  0
  6  9  1  0
 10 11  2  0
 10 20  1  0
 11 12  1  0
 12 13  1  0
 12 14  2  0
 14 15  1  0
 15 16  1  0
 15 20  2  0
 16 17  2  0
 17 18  1  0
 17 28  1  0
 18 19  1  0
 18 20  1  0
M  END

