
     RDKit          3D

 41 41  0  0  0  0  0  0  0  0999 V2000
    9.8887   -0.0842    2.6725 C   0  0  0  0  0  0  0  0  0  0  0  0
    8.4611    0.0483    2.2525 C   0  0  0  0  0  0  0  0  0  0  0  0
    7.9465    0.3297    0.9576 C   0  0  0  0  0  0  0  0  0  0  0  0
    6.6877    0.8929    1.1373 C   0  0  0  0  0  0  0  0  0  0  0  0
    5.6142    1.2035    0.1347 C   0  0  1  0  0  0  0  0  0  0  0  0
    4.4640    0.3769    0.3457 O   0  0  0  0  0  0  0  0  0  0  0  0
    5.1217    2.6818    0.1657 C   0  0  1  0  0  0  0  0  0  0  0  0
    4.4350    3.0360    1.4058 N   0  0  0  0  0  0  0  0  0  0  0  0
    6.2337    3.7219   -0.0518 C   0  0  0  0  0  0  0  0  0  0  0  0
    7.0671    3.6035   -1.3319 C   0  0  0  0  0  0  0  0  0  0  0  0
    6.1981    3.7416   -2.5959 C   0  0  0  0  0  0  0  0  0  0  0  0
    6.9915    3.6515   -3.8209 N   0  0  0  0  0  0  0  0  0  0  0  0
    7.5357    2.3855   -4.2484 C   0  0  0  0  0  0  0  0  0  0  0  0
    7.3152    4.8521   -4.5478 C   0  0  0  0  0  0  0  0  0  0  0  0
    6.3487    1.0213    2.4535 N   0  0  0  0  0  0  0  0  0  0  0  0
    7.5053    0.6260    3.1568 N   0  0  0  0  0  0  0  0  0  0  0  0
    7.2275    0.0042    4.4262 C   0  0  0  0  0  0  0  0  0  0  0  0
   10.4930   -0.4866    1.8434 H   0  0  0  0  0  0  0  0  0  0  0  0
   10.0324   -0.7721    3.5276 H   0  0  0  0  0  0  0  0  0  0  0  0
   10.3547    0.8846    2.9808 H   0  0  0  0  0  0  0  0  0  0  0  0
    8.4242    0.0744    0.0115 H   0  0  0  0  0  0  0  0  0  0  0  0
    6.0007    0.9635   -0.8772 H   0  0  0  0  0  0  0  0  0  0  0  0
    4.5813    0.0631    1.2580 H   0  0  0  0  0  0  0  0  0  0  0  0
    4.3714    2.7763   -0.6464 H   0  0  0  0  0  0  0  0  0  0  0  0
    5.0376    2.6957    2.1694 H   0  0  0  0  0  0  0  0  0  0  0  0
    3.6124    2.4341    1.4665 H   0  0  0  0  0  0  0  0  0  0  0  0
    6.9370    3.6505    0.7908 H   0  0  0  0  0  0  0  0  0  0  0  0
    5.7716    4.7218    0.0095 H   0  0  0  0  0  0  0  0  0  0  0  0
    7.6037    2.6438   -1.3468 H   0  0  0  0  0  0  0  0  0  0  0  0
    7.8333    4.3980   -1.3481 H   0  0  0  0  0  0  0  0  0  0  0  0
    5.6713    4.7048   -2.6079 H   0  0  0  0  0  0  0  0  0  0  0  0
    5.4525    2.9376   -2.6431 H   0  0  0  0  0  0  0  0  0  0  0  0
    7.1965    1.5789   -3.5938 H   0  0  0  0  0  0  0  0  0  0  0  0
    8.6350    2.4441   -4.2393 H   0  0  0  0  0  0  0  0  0  0  0  0
    7.2185    2.1953   -5.2859 H   0  0  0  0  0  0  0  0  0  0  0  0
    7.7606    5.5818   -3.8543 H   0  0  0  0  0  0  0  0  0  0  0  0
    6.3847    5.2940   -4.9391 H   0  0  0  0  0  0  0  0  0  0  0  0
    8.0046    4.6411   -5.3726 H   0  0  0  0  0  0  0  0  0  0  0  0
    6.5681    0.6590    5.0164 H   0  0  0  0  0  0  0  0  0  0  0  0
    8.1635   -0.1446    4.9877 H   0  0  0  0  0  0  0  0  0  0  0  0
    6.7260   -0.9863    4.3210 H   0  0  0  0  0  0  0  0  0  0  0  0
  1  2  1  0
  1 18  1  0
  1 19  1  0
  1 20  1  0
  2  3  2  0
  2 16  1  0
  3  4  1  0
  3 21  1  0
  4  5  1  0
  4 15  2  0
  5  6  1  0
  5  7  1  0
  5 22  1  6
  6 23  1  0
  7  8  1  0
  7  9  1  0
  7 24  1  6
  8 25  1  0
  8 26  1  0
  9 10  1  0
  9 27  1  0
  9 28  1  0
 10 11  1  0
 10 29  1  0
 10 30  1  0
 11 12  1  0
 11 31  1  0
 11 32  1  0
 12 13  1  0
 12 14  1  0
 13 33  1  0
 13 34  1  0
 13 35  1  0
 14 36  1  0
 14 37  1  0
 14 38  1  0
 15 16  1  0
 16 17  1  0
 17 39  1  0
 17 40  1  0
 17 41  1  0
M  END

