
     RDKit          3D

 66 68  0  0  0  0  0  0  0  0999 V2000
    9.2248   -2.7430    0.3005 C   0  0  0  0  0  0  0  0  0  0  0  0
   10.2381   -1.7083   -0.1573 C   0  0  0  0  0  0  0  0  0  0  0  0
    9.6119   -0.4419   -0.4518 O   0  0  0  0  0  0  0  0  0  0  0  0
    9.1112   -0.2685   -1.6888 C   0  0  0  0  0  0  0  0  0  0  0  0
    9.1534   -1.0834   -2.5694 O   0  0  0  0  0  0  0  0  0  0  0  0
    8.4842    1.1266   -1.7869 C   0  0  2  0  0  0  0  0  0  0  0  0
    9.2699    1.8436   -1.4907 H   0  0  0  0  0  0  0  0  0  0  0  0
    7.2733    1.2635   -0.8595 C   0  0  0  0  0  0  0  0  0  0  0  0
    8.1268    1.3138   -3.1439 O   0  0  0  0  0  0  0  0  0  0  0  0
    8.0360    2.5457   -3.6887 C   0  0  0  0  0  0  0  0  0  0  0  0
    7.6786    2.5771   -5.0590 C   0  0  0  0  0  0  0  0  0  0  0  0
    7.5714    3.7798   -5.7292 C   0  0  0  0  0  0  0  0  0  0  0  0
    7.8074    5.0233   -5.0788 C   0  0  0  0  0  0  0  0  0  0  0  0
    7.6770    6.2991   -5.7595 C   0  0  0  0  0  0  0  0  0  0  0  0
    8.1592    7.4964   -5.1391 C   0  0  0  0  0  0  0  0  0  0  0  0
    7.7625    8.8148   -5.6400 C   0  0  0  0  0  0  0  0  0  0  0  0
    7.7368    8.8810   -7.2480 C   0  0  1  0  0  0  0  0  0  0  0  0
    6.9207    9.9565   -7.7143 O   0  0  0  0  0  0  0  0  0  0  0  0
    6.9348   11.2311   -7.1094 C   0  0  1  0  0  0  0  0  0  0  0  0
    6.5695   11.1649   -6.0683 H   0  0  0  0  0  0  0  0  0  0  0  0
    8.2719   11.9896   -7.1085 C   0  0  0  0  0  0  0  0  0  0  0  0
    5.9088   12.0610   -7.8859 C   0  0  0  0  0  0  0  0  0  0  0  0
    5.6593   11.9461   -9.0567 O   0  0  0  0  0  0  0  0  0  0  0  0
    5.3544   12.9854   -7.0749 O   0  0  0  0  0  0  0  0  0  0  0  0
    4.4202   13.9096   -7.6637 C   0  0  0  0  0  0  0  0  0  0  0  0
    5.1237   15.1140   -8.2667 C   0  0  0  0  0  0  0  0  0  0  0  0
    9.1432    8.9617   -7.8678 C   0  0  0  0  0  0  0  0  0  0  0  0
   10.2803    8.3855   -7.2752 C   0  0  0  0  0  0  0  0  0  0  0  0
   11.5249    8.4376   -7.9078 C   0  0  0  0  0  0  0  0  0  0  0  0
   11.6601    9.0433   -9.1606 C   0  0  0  0  0  0  0  0  0  0  0  0
   10.5291    9.6060   -9.7689 C   0  0  0  0  0  0  0  0  0  0  0  0
    9.2890    9.5695   -9.1344 C   0  0  0  0  0  0  0  0  0  0  0  0
    7.0785    7.6377   -7.7374 C   0  0  0  0  0  0  0  0  0  0  0  0
    7.0968    6.4277   -7.0576 C   0  0  0  0  0  0  0  0  0  0  0  0
    8.1729    4.9632   -3.7053 C   0  0  0  0  0  0  0  0  0  0  0  0
    8.2803    3.7561   -3.0180 C   0  0  0  0  0  0  0  0  0  0  0  0
    9.7438   -3.6719    0.5861 H   0  0  0  0  0  0  0  0  0  0  0  0
    8.5177   -2.9836   -0.5072 H   0  0  0  0  0  0  0  0  0  0  0  0
    8.6592   -2.3837    1.1743 H   0  0  0  0  0  0  0  0  0  0  0  0
   10.7766   -2.0519   -1.0527 H   0  0  0  0  0  0  0  0  0  0  0  0
   10.9654   -1.4802    0.6350 H   0  0  0  0  0  0  0  0  0  0  0  0
    6.8332    2.2677   -0.9441 H   0  0  0  0  0  0  0  0  0  0  0  0
    7.5745    1.0953    0.1838 H   0  0  0  0  0  0  0  0  0  0  0  0
    6.5045    0.5254   -1.1342 H   0  0  0  0  0  0  0  0  0  0  0  0
    7.5066    1.6251   -5.5645 H   0  0  0  0  0  0  0  0  0  0  0  0
    7.3184    3.7665   -6.7899 H   0  0  0  0  0  0  0  0  0  0  0  0
    8.9270    7.4334   -4.3633 H   0  0  0  0  0  0  0  0  0  0  0  0
    8.3856    9.6152   -5.2174 H   0  0  0  0  0  0  0  0  0  0  0  0
    6.7032    9.0391   -5.3980 H   0  0  0  0  0  0  0  0  0  0  0  0
    9.0489   11.4400   -6.5605 H   0  0  0  0  0  0  0  0  0  0  0  0
    8.1260   12.9652   -6.6192 H   0  0  0  0  0  0  0  0  0  0  0  0
    8.6324   12.1558   -8.1330 H   0  0  0  0  0  0  0  0  0  0  0  0
    3.7596   14.2056   -6.8357 H   0  0  0  0  0  0  0  0  0  0  0  0
    3.8282   13.3790   -8.4240 H   0  0  0  0  0  0  0  0  0  0  0  0
    5.7443   15.6271   -7.5153 H   0  0  0  0  0  0  0  0  0  0  0  0
    4.3789   15.8325   -8.6453 H   0  0  0  0  0  0  0  0  0  0  0  0
    5.7633   14.8114   -9.1090 H   0  0  0  0  0  0  0  0  0  0  0  0
   10.1895    7.8851   -6.3060 H   0  0  0  0  0  0  0  0  0  0  0  0
   12.3955    7.9926   -7.4176 H   0  0  0  0  0  0  0  0  0  0  0  0
   12.6310    9.0700   -9.6616 H   0  0  0  0  0  0  0  0  0  0  0  0
   10.6148   10.0796  -10.7511 H   0  0  0  0  0  0  0  0  0  0  0  0
    8.4127   10.0139   -9.6093 H   0  0  0  0  0  0  0  0  0  0  0  0
    6.5600    7.7316   -8.6947 H   0  0  0  0  0  0  0  0  0  0  0  0
    6.6196    5.5662   -7.5260 H   0  0  0  0  0  0  0  0  0  0  0  0
    8.3370    5.8933   -3.1591 H   0  0  0  0  0  0  0  0  0  0  0  0
    8.5551    3.7717   -1.9630 H   0  0  0  0  0  0  0  0  0  0  0  0
  1  2  1  0
  1 37  1  0
  1 38  1  0
  1 39  1  0
  2  3  1  0
  2 40  1  0
  2 41  1  0
  3  4  1  0
  4  5  2  0
  4  6  1  0
  6  7  1  6
  6  8  1  0
  6  9  1  0
  8 42  1  0
  8 43  1  0
  8 44  1  0
  9 10  1  0
 10 11  2  0
 10 36  1  0
 11 12  1  0
 11 45  1  0
 12 13  2  0
 12 46  1  0
 13 14  1  0
 13 35  1  0
 14 15  2  0
 14 34  1  0
 15 16  1  0
 15 47  1  0
 16 17  1  0
 16 48  1  0
 16 49  1  0
 17 18  1  6
 17 27  1  0
 17 33  1  0
 18 19  1  0
 19 20  1  1
 19 21  1  0
 19 22  1  0
 21 50  1  0
 21 51  1  0
 21 52  1  0
 22 23  2  0
 22 24  1  0
 24 25  1  0
 25 26  1  0
 25 53  1  0
 25 54  1  0
 26 55  1  0
 26 56  1  0
 26 57  1  0
 27 28  2  0
 27 32  1  0
 28 29  1  0
 28 58  1  0
 29 30  2  0
 29 59  1  0
 30 31  1  0
 30 60  1  0
 31 32  2  0
 31 61  1  0
 32 62  1  0
 33 34  2  0
 33 63  1  0
 34 64  1  0
 35 36  2  0
 35 65  1  0
 36 66  1  0
M  END

