
     RDKit          3D

 51 52  0  0  0  0  0  0  0  0999 V2000
    2.7618   -0.3633   -1.5755 C   0  0  0  0  0  0  0  0  0  0  0  0
    2.6503    0.9854   -1.1638 O   0  0  0  0  0  0  0  0  0  0  0  0
    2.5344    1.9879   -2.1819 C   0  0  1  0  0  0  0  0  0  0  0  0
    1.5311    1.6296   -3.2804 C   0  0  0  0  0  0  0  0  0  0  0  0
    2.0938    3.2569   -1.4380 C   0  0  0  0  0  0  0  0  0  0  0  0
    3.9268    2.2689   -2.8190 C   0  0  0  0  0  0  0  0  0  0  0  0
    4.0435    2.7379   -3.9350 O   0  0  0  0  0  0  0  0  0  0  0  0
    4.9710    1.9894   -1.9540 N   0  0  0  0  0  0  0  0  0  0  0  0
    6.3407    2.1514   -2.0869 C   0  0  0  0  0  0  0  0  0  0  0  0
    6.9323    2.6973   -3.2610 C   0  0  0  0  0  0  0  0  0  0  0  0
    8.3554    2.8273   -3.3086 C   0  0  0  0  0  0  0  0  0  0  0  0
    9.1241    2.4123   -2.1931 C   0  0  0  0  0  0  0  0  0  0  0  0
   10.4682    2.5064   -2.1531 O   0  0  0  0  0  0  0  0  0  0  0  0
   11.2121    3.0026   -3.2585 C   0  0  0  0  0  0  0  0  0  0  0  0
   12.6945    2.8947   -2.9083 C   0  0  0  0  0  0  0  0  0  0  0  0
   13.5142    3.4229   -3.9868 N   0  0  0  0  0  0  0  0  0  0  0  0
   13.7716    4.8613   -3.9309 C   0  0  0  0  0  0  0  0  0  0  0  0
   14.9255    5.2401   -2.9849 C   0  0  0  0  0  0  0  0  0  0  0  0
   16.1974    4.4574   -3.3400 C   0  0  0  0  0  0  0  0  0  0  0  0
   15.9112    2.9503   -3.4018 C   0  0  0  0  0  0  0  0  0  0  0  0
   14.7164    2.6685   -4.3295 C   0  0  0  0  0  0  0  0  0  0  0  0
    8.5361    1.8649   -1.0165 C   0  0  0  0  0  0  0  0  0  0  0  0
    7.1200    1.7344   -0.9666 C   0  0  0  0  0  0  0  0  0  0  0  0
    2.9804   -0.9518   -0.6726 H   0  0  0  0  0  0  0  0  0  0  0  0
    3.5821   -0.5200   -2.3016 H   0  0  0  0  0  0  0  0  0  0  0  0
    1.8254   -0.7440   -2.0183 H   0  0  0  0  0  0  0  0  0  0  0  0
    0.5439    1.4297   -2.8366 H   0  0  0  0  0  0  0  0  0  0  0  0
    1.8461    0.7531   -3.8645 H   0  0  0  0  0  0  0  0  0  0  0  0
    1.4463    2.4690   -3.9823 H   0  0  0  0  0  0  0  0  0  0  0  0
    1.0953    3.1003   -1.0027 H   0  0  0  0  0  0  0  0  0  0  0  0
    2.0585    4.1137   -2.1261 H   0  0  0  0  0  0  0  0  0  0  0  0
    2.7926    3.4897   -0.6206 H   0  0  0  0  0  0  0  0  0  0  0  0
    4.6498    1.5884   -1.0735 H   0  0  0  0  0  0  0  0  0  0  0  0
    6.3056    3.0054   -4.0918 H   0  0  0  0  0  0  0  0  0  0  0  0
    8.8273    3.2461   -4.1951 H   0  0  0  0  0  0  0  0  0  0  0  0
   10.9281    4.0512   -3.4561 H   0  0  0  0  0  0  0  0  0  0  0  0
   10.9911    2.4173   -4.1670 H   0  0  0  0  0  0  0  0  0  0  0  0
   12.9326    1.8307   -2.7529 H   0  0  0  0  0  0  0  0  0  0  0  0
   12.8614    3.3920   -1.9305 H   0  0  0  0  0  0  0  0  0  0  0  0
   12.8459    5.3842   -3.6418 H   0  0  0  0  0  0  0  0  0  0  0  0
   14.0161    5.2077   -4.9528 H   0  0  0  0  0  0  0  0  0  0  0  0
   14.6350    5.0182   -1.9422 H   0  0  0  0  0  0  0  0  0  0  0  0
   15.1069    6.3274   -3.0335 H   0  0  0  0  0  0  0  0  0  0  0  0
   17.0023    4.6735   -2.6177 H   0  0  0  0  0  0  0  0  0  0  0  0
   16.5666    4.7950   -4.3269 H   0  0  0  0  0  0  0  0  0  0  0  0
   15.6876    2.5714   -2.3877 H   0  0  0  0  0  0  0  0  0  0  0  0
   16.7988    2.3976   -3.7549 H   0  0  0  0  0  0  0  0  0  0  0  0
   14.4722    1.5944   -4.3427 H   0  0  0  0  0  0  0  0  0  0  0  0
   15.0017    2.9368   -5.3648 H   0  0  0  0  0  0  0  0  0  0  0  0
    9.1823    1.5642   -0.1932 H   0  0  0  0  0  0  0  0  0  0  0  0
    6.6259    1.3216   -0.0847 H   0  0  0  0  0  0  0  0  0  0  0  0
  1  2  1  0
  1 24  1  0
  1 25  1  0
  1 26  1  0
  3  2  1  1
  3  4  1  0
  3  5  1  0
  3  6  1  0
  4 27  1  0
  4 28  1  0
  4 29  1  0
  5 30  1  0
  5 31  1  0
  5 32  1  0
  6  7  2  0
  6  8  1  0
  8  9  1  0
  8 33  1  0
  9 10  2  0
  9 23  1  0
 10 11  1  0
 10 34  1  0
 11 12  2  0
 11 35  1  0
 12 13  1  0
 12 22  1  0
 13 14  1  0
 14 15  1  0
 14 36  1  0
 14 37  1  0
 15 16  1  0
 15 38  1  0
 15 39  1  0
 16 17  1  0
 16 21  1  0
 17 18  1  0
 17 40  1  0
 17 41  1  0
 18 19  1  0
 18 42  1  0
 18 43  1  0
 19 20  1  0
 19 44  1  0
 19 45  1  0
 20 21  1  0
 20 46  1  0
 20 47  1  0
 21 48  1  0
 21 49  1  0
 22 23  2  0
 22 50  1  0
 23 51  1  0
M  END

