
     RDKit          3D

 44 45  0  0  0  0  0  0  0  0999 V2000
    1.4389   -0.8056    0.5183 C   0  0  0  0  0  0  0  0  0  0  0  0
    3.1944   -0.9065    0.9863 S   0  0  0  0  0  0  0  0  0  0  0  0
    3.5263    0.8639    1.3255 C   0  0  0  0  0  0  0  0  0  0  0  0
    4.9870    1.0543    1.7370 C   0  0  0  0  0  0  0  0  0  0  0  0
    5.3729    2.5214    2.0462 C   0  0  1  0  0  0  0  0  0  0  0  0
    4.8032    2.9272    3.4099 C   0  0  0  0  0  0  0  0  0  0  0  0
    6.8378    2.6777    1.9446 N   0  0  0  0  0  0  0  0  0  0  0  0
    7.2792    2.7024    0.5583 C   0  0  0  0  0  0  0  0  0  0  0  0
    7.4243    3.7938    2.6985 C   0  0  0  0  0  0  0  0  0  0  0  0
    8.9262    3.7210    2.7718 C   0  0  0  0  0  0  0  0  0  0  0  0
    9.8293    4.7321    2.5746 C   0  0  0  0  0  0  0  0  0  0  0  0
    9.7139    6.1774    2.1845 C   0  0  0  0  0  0  0  0  0  0  0  0
    8.7153    6.3906    1.1428 N   0  0  0  0  0  0  0  0  0  0  0  0
   11.1174    4.3178    2.8305 O   0  0  0  0  0  0  0  0  0  0  0  0
   11.0511    3.0090    3.1971 C   0  0  0  0  0  0  0  0  0  0  0  0
   12.1251    2.1936    3.5466 C   0  0  0  0  0  0  0  0  0  0  0  0
   11.8213    0.8742    3.8890 C   0  0  0  0  0  0  0  0  0  0  0  0
   10.4924    0.4029    3.8734 C   0  0  0  0  0  0  0  0  0  0  0  0
    9.4309    1.2341    3.5166 C   0  0  0  0  0  0  0  0  0  0  0  0
    9.7131    2.5693    3.1757 C   0  0  0  0  0  0  0  0  0  0  0  0
    1.1090   -1.8286    0.2864 H   0  0  0  0  0  0  0  0  0  0  0  0
    1.2933   -0.1778   -0.3751 H   0  0  0  0  0  0  0  0  0  0  0  0
    0.8221   -0.4159    1.3437 H   0  0  0  0  0  0  0  0  0  0  0  0
    2.8352    1.2031    2.1149 H   0  0  0  0  0  0  0  0  0  0  0  0
    3.3046    1.4489    0.4159 H   0  0  0  0  0  0  0  0  0  0  0  0
    5.6226    0.6640    0.9288 H   0  0  0  0  0  0  0  0  0  0  0  0
    5.2110    0.4384    2.6249 H   0  0  0  0  0  0  0  0  0  0  0  0
    4.8824    3.1711    1.2823 H   0  0  0  0  0  0  0  0  0  0  0  0
    5.2979    2.3764    4.2265 H   0  0  0  0  0  0  0  0  0  0  0  0
    3.7308    2.6860    3.4493 H   0  0  0  0  0  0  0  0  0  0  0  0
    4.8957    4.0047    3.6073 H   0  0  0  0  0  0  0  0  0  0  0  0
    6.9252    1.8157    0.0144 H   0  0  0  0  0  0  0  0  0  0  0  0
    8.3773    2.6977    0.5098 H   0  0  0  0  0  0  0  0  0  0  0  0
    6.9171    3.6024    0.0104 H   0  0  0  0  0  0  0  0  0  0  0  0
    7.0507    3.7447    3.7311 H   0  0  0  0  0  0  0  0  0  0  0  0
    7.1362    4.7818    2.2858 H   0  0  0  0  0  0  0  0  0  0  0  0
   10.7389    6.5176    1.9301 H   0  0  0  0  0  0  0  0  0  0  0  0
    9.4115    6.7710    3.0673 H   0  0  0  0  0  0  0  0  0  0  0  0
    9.0110    5.9564    0.2683 H   0  0  0  0  0  0  0  0  0  0  0  0
    8.6007    7.3866    0.9590 H   0  0  0  0  0  0  0  0  0  0  0  0
   13.1479    2.5751    3.5501 H   0  0  0  0  0  0  0  0  0  0  0  0
   12.6293    0.1943    4.1709 H   0  0  0  0  0  0  0  0  0  0  0  0
   10.2942   -0.6378    4.1422 H   0  0  0  0  0  0  0  0  0  0  0  0
    8.4042    0.8673    3.4822 H   0  0  0  0  0  0  0  0  0  0  0  0
  1  2  1  0
  1 21  1  0
  1 22  1  0
  1 23  1  0
  2  3  1  0
  3  4  1  0
  3 24  1  0
  3 25  1  0
  4  5  1  0
  4 26  1  0
  4 27  1  0
  5  6  1  0
  5  7  1  0
  5 28  1  6
  6 29  1  0
  6 30  1  0
  6 31  1  0
  7  8  1  0
  7  9  1  0
  8 32  1  0
  8 33  1  0
  8 34  1  0
  9 10  1  0
  9 35  1  0
  9 36  1  0
 10 11  2  0
 10 20  1  0
 11 12  1  0
 11 14  1  0
 12 13  1  0
 12 37  1  0
 12 38  1  0
 13 39  1  0
 13 40  1  0
 14 15  1  0
 15 16  1  0
 15 20  2  0
 16 17  2  0
 16 41  1  0
 17 18  1  0
 17 42  1  0
 18 19  2  0
 18 43  1  0
 19 20  1  0
 19 44  1  0
M  END

