
     RDKit          3D

 30 31  0  0  0  0  0  0  0  0999 V2000
    0.9886   -0.1859   -0.1282 C   0  0  0  0  0  0  0  0  0  0  0  0
    2.3359   -0.0125   -0.4587 O   0  0  0  0  0  0  0  0  0  0  0  0
    3.1658   -1.1097   -0.4783 C   0  0  0  0  0  0  0  0  0  0  0  0
    4.4964   -0.8378   -0.8661 C   0  0  0  0  0  0  0  0  0  0  0  0
    5.4250   -1.9249   -0.9324 C   0  0  0  0  0  0  0  0  0  0  0  0
    4.9989   -3.1879   -0.6102 C   0  0  0  0  0  0  0  0  0  0  0  0
    5.8778   -4.2401   -0.7053 F   0  0  0  0  0  0  0  0  0  0  0  0
    3.6957   -3.5028   -0.1405 C   0  0  0  0  0  0  0  0  0  0  0  0
    3.2045   -4.9326   -0.2957 C   0  0  0  0  0  0  0  0  0  0  0  0
    3.7150   -5.8367    0.7687 C   0  0  0  0  0  0  0  0  0  0  0  0
    4.4628   -5.0977    2.1289 S   0  0  0  0  0  0  0  0  0  0  0  0
    4.6563   -6.7641    2.7902 C   0  0  0  0  0  0  0  0  0  0  0  0
    5.2241   -6.9877    3.9727 N   0  0  0  0  0  0  0  0  0  0  0  0
    4.1996   -7.7539    2.0265 N   0  0  0  0  0  0  0  0  0  0  0  0
    3.6712   -7.2606    0.8962 C   0  0  0  0  0  0  0  0  0  0  0  0
    3.0988   -8.1663   -0.1430 C   0  0  0  0  0  0  0  0  0  0  0  0
    2.7469   -2.3934   -0.1423 C   0  0  0  0  0  0  0  0  0  0  0  0
    0.5105    0.8028   -0.1956 H   0  0  0  0  0  0  0  0  0  0  0  0
    0.8527   -0.5732    0.9007 H   0  0  0  0  0  0  0  0  0  0  0  0
    0.4714   -0.8771   -0.8221 H   0  0  0  0  0  0  0  0  0  0  0  0
    4.7770    0.1780   -1.1406 H   0  0  0  0  0  0  0  0  0  0  0  0
    6.4681   -1.7671   -1.2133 H   0  0  0  0  0  0  0  0  0  0  0  0
    3.4320   -5.3960   -1.2790 H   0  0  0  0  0  0  0  0  0  0  0  0
    2.1001   -4.9613   -0.2256 H   0  0  0  0  0  0  0  0  0  0  0  0
    5.5875   -6.2282    4.5376 H   0  0  0  0  0  0  0  0  0  0  0  0
    5.3200   -7.9445    4.3011 H   0  0  0  0  0  0  0  0  0  0  0  0
    3.1519   -9.2081    0.1983 H   0  0  0  0  0  0  0  0  0  0  0  0
    3.6519   -8.0661   -1.0912 H   0  0  0  0  0  0  0  0  0  0  0  0
    2.0496   -7.9072   -0.3586 H   0  0  0  0  0  0  0  0  0  0  0  0
    1.7218   -2.5814    0.1779 H   0  0  0  0  0  0  0  0  0  0  0  0
  1  2  1  0
  1 18  1  0
  1 19  1  0
  1 20  1  0
  2  3  1  0
  3  4  2  0
  3 17  1  0
  4  5  1  0
  4 21  1  0
  5  6  2  0
  5 22  1  0
  6  7  1  0
  6  8  1  0
  8  9  1  0
  8 17  2  0
  9 10  1  0
  9 23  1  0
  9 24  1  0
 10 11  1  0
 10 15  2  0
 11 12  1  0
 12 13  1  0
 12 14  2  0
 13 25  1  0
 13 26  1  0
 14 15  1  0
 15 16  1  0
 16 27  1  0
 16 28  1  0
 16 29  1  0
 17 30  1  0
M  END

