
     RDKit          3D

 66 70  0  0  0  0  0  0  0  0999 V2000
   10.0263   -3.4307   -1.2821 C   0  0  0  0  0  0  0  0  0  0  0  0
    9.2749   -4.3533   -2.0402 O   0  0  0  0  0  0  0  0  0  0  0  0
    8.1055   -3.9568   -2.6050 C   0  0  0  0  0  0  0  0  0  0  0  0
    7.5587   -2.6724   -2.4754 C   0  0  0  0  0  0  0  0  0  0  0  0
    6.3264   -2.3607   -3.0545 C   0  0  0  0  0  0  0  0  0  0  0  0
    5.6002   -3.3114   -3.7866 C   0  0  0  0  0  0  0  0  0  0  0  0
    4.2545   -2.9211   -4.3815 C   0  0  1  0  0  0  0  0  0  0  0  0
    3.7209   -2.3685   -3.5877 H   0  0  0  0  0  0  0  0  0  0  0  0
    4.3700   -1.9120   -5.5449 C   0  0  0  0  0  0  0  0  0  0  0  0
    4.6986   -2.6122   -6.8733 C   0  0  0  0  0  0  0  0  0  0  0  0
    5.2509   -1.7854   -7.6910 O   0  0  0  0  0  0  0  0  0  0  0  0
    4.3665   -3.9347   -7.1269 C   0  0  0  0  0  0  0  0  0  0  0  0
    3.7475   -4.7212   -6.1157 C   0  0  0  0  0  0  0  0  0  0  0  0
    3.3512   -4.0886   -4.8075 C   0  0  0  0  0  0  0  0  0  0  0  0
    3.3724   -6.0487   -6.2323 N   0  0  0  0  0  0  0  0  0  0  0  0
    3.3945   -6.9746   -7.2620 C   0  0  0  0  0  0  0  0  0  0  0  0
    3.3336   -8.3493   -6.9278 C   0  0  0  0  0  0  0  0  0  0  0  0
    3.3585   -9.3311   -7.9087 C   0  0  0  0  0  0  0  0  0  0  0  0
    3.4679   -8.9809   -9.2626 C   0  0  0  0  0  0  0  0  0  0  0  0
    3.5249   -7.6301   -9.6074 C   0  0  0  0  0  0  0  0  0  0  0  0
    3.4551   -6.6273   -8.6363 C   0  0  0  0  0  0  0  0  0  0  0  0
    3.4731   -5.2482   -9.0062 N   0  0  0  0  0  0  0  0  0  0  0  0
    2.4462   -4.5753   -9.6157 C   0  0  0  0  0  0  0  0  0  0  0  0
    2.4892   -3.4047   -9.9335 O   0  0  0  0  0  0  0  0  0  0  0  0
    1.1287   -5.3582   -9.9066 C   0  0  1  0  0  0  0  0  0  0  0  0
    0.6881   -6.0272   -8.8293 F   0  0  0  0  0  0  0  0  0  0  0  0
    0.1796   -4.4995  -10.2650 F   0  0  0  0  0  0  0  0  0  0  0  0
    1.2818   -6.2377  -10.9129 F   0  0  0  0  0  0  0  0  0  0  0  0
    4.6209   -4.4209   -8.5483 C   0  0  2  0  0  0  0  0  0  0  0  0
    4.5851   -3.5284   -9.1878 H   0  0  0  0  0  0  0  0  0  0  0  0
    5.9460   -5.1234   -8.8220 C   0  0  0  0  0  0  0  0  0  0  0  0
    6.4097   -5.1949  -10.1440 C   0  0  0  0  0  0  0  0  0  0  0  0
    7.6137   -5.8305  -10.4513 C   0  0  0  0  0  0  0  0  0  0  0  0
    8.4008   -6.4160   -9.4477 C   0  0  0  0  0  0  0  0  0  0  0  0
    9.6986   -7.1160   -9.7712 C   0  0  0  0  0  0  0  0  0  0  0  0
    7.9368   -6.3337   -8.1260 C   0  0  0  0  0  0  0  0  0  0  0  0
    6.7324   -5.6978   -7.8159 C   0  0  0  0  0  0  0  0  0  0  0  0
    6.1609   -4.5901   -3.9186 C   0  0  0  0  0  0  0  0  0  0  0  0
    7.3913   -4.9280   -3.3509 C   0  0  0  0  0  0  0  0  0  0  0  0
    7.8164   -6.2142   -3.4958 O   0  0  0  0  0  0  0  0  0  0  0  0
    9.1107   -6.4615   -4.0294 C   0  0  0  0  0  0  0  0  0  0  0  0
   10.9214   -3.9657   -0.9378 H   0  0  0  0  0  0  0  0  0  0  0  0
    9.4645   -3.0706   -0.4018 H   0  0  0  0  0  0  0  0  0  0  0  0
   10.3390   -2.5603   -1.8865 H   0  0  0  0  0  0  0  0  0  0  0  0
    8.0835   -1.9086   -1.9015 H   0  0  0  0  0  0  0  0  0  0  0  0
    5.9227   -1.3535   -2.9164 H   0  0  0  0  0  0  0  0  0  0  0  0
    5.1385   -1.1534   -5.3407 H   0  0  0  0  0  0  0  0  0  0  0  0
    3.4176   -1.3743   -5.6958 H   0  0  0  0  0  0  0  0  0  0  0  0
    3.3322   -4.8484   -4.0054 H   0  0  0  0  0  0  0  0  0  0  0  0
    2.3113   -3.7066   -4.8762 H   0  0  0  0  0  0  0  0  0  0  0  0
    3.1120   -6.4621   -5.3426 H   0  0  0  0  0  0  0  0  0  0  0  0
    3.2738   -8.6325   -5.8724 H   0  0  0  0  0  0  0  0  0  0  0  0
    3.3082  -10.3826   -7.6148 H   0  0  0  0  0  0  0  0  0  0  0  0
    3.5119   -9.7489  -10.0369 H   0  0  0  0  0  0  0  0  0  0  0  0
    3.6080   -7.3290  -10.6522 H   0  0  0  0  0  0  0  0  0  0  0  0
    5.8210   -4.7406  -10.9465 H   0  0  0  0  0  0  0  0  0  0  0  0
    7.9525   -5.8663  -11.4907 H   0  0  0  0  0  0  0  0  0  0  0  0
    9.9856   -6.9717  -10.8233 H   0  0  0  0  0  0  0  0  0  0  0  0
    9.6217   -8.2025   -9.5931 H   0  0  0  0  0  0  0  0  0  0  0  0
   10.5244   -6.7454   -9.1418 H   0  0  0  0  0  0  0  0  0  0  0  0
    8.5294   -6.7761   -7.3196 H   0  0  0  0  0  0  0  0  0  0  0  0
    6.4087   -5.6383   -6.7758 H   0  0  0  0  0  0  0  0  0  0  0  0
    5.6534   -5.3782   -4.4746 H   0  0  0  0  0  0  0  0  0  0  0  0
    9.1355   -7.5277   -4.2966 H   0  0  0  0  0  0  0  0  0  0  0  0
    9.9060   -6.2482   -3.3004 H   0  0  0  0  0  0  0  0  0  0  0  0
    9.2871   -5.8617   -4.9401 H   0  0  0  0  0  0  0  0  0  0  0  0
  1  2  1  0
  1 42  1  0
  1 43  1  0
  1 44  1  0
  2  3  1  0
  3  4  2  0
  3 39  1  0
  4  5  1  0
  4 45  1  0
  5  6  2  0
  5 46  1  0
  6  7  1  0
  6 38  1  0
  7  8  1  1
  7  9  1  0
  7 14  1  0
  9 10  1  0
  9 47  1  0
  9 48  1  0
 10 11  2  0
 10 12  1  0
 12 13  2  0
 12 29  1  0
 13 14  1  0
 13 15  1  0
 14 49  1  0
 14 50  1  0
 15 16  1  0
 15 51  1  0
 16 17  1  0
 16 21  2  0
 17 18  2  0
 17 52  1  0
 18 19  1  0
 18 53  1  0
 19 20  2  0
 19 54  1  0
 20 21  1  0
 20 55  1  0
 21 22  1  0
 22 23  1  0
 22 29  1  0
 23 24  2  0
 23 25  1  0
 25 26  1  1
 25 27  1  0
 25 28  1  0
 29 30  1  6
 29 31  1  0
 31 32  2  0
 31 37  1  0
 32 33  1  0
 32 56  1  0
 33 34  2  0
 33 57  1  0
 34 35  1  0
 34 36  1  0
 35 58  1  0
 35 59  1  0
 35 60  1  0
 36 37  2  0
 36 61  1  0
 37 62  1  0
 38 39  2  0
 38 63  1  0
 39 40  1  0
 40 41  1  0
 41 64  1  0
 41 65  1  0
 41 66  1  0
M  END

