
     RDKit          3D

 35 36  0  0  0  0  0  0  0  0999 V2000
    1.5210    0.1778   -0.4570 O   0  0  0  0  0  0  0  0  0  0  0  0
    2.2453   -0.6399    0.0684 C   0  0  0  0  0  0  0  0  0  0  0  0
    2.4070   -0.6821    1.4168 O   0  0  0  0  0  0  0  0  0  0  0  0
    3.0211   -1.6657   -0.6387 C   0  0  0  0  0  0  0  0  0  0  0  0
    3.1155   -1.9465   -2.0286 C   0  0  0  0  0  0  0  0  0  0  0  0
    3.9205   -3.1409   -2.0289 N   0  0  0  0  0  0  0  0  0  0  0  0
    4.9378   -3.3433   -3.0196 C   0  0  0  0  0  0  0  0  0  0  0  0
    6.0481   -2.2850   -2.9432 C   0  0  0  0  0  0  0  0  0  0  0  0
    7.1685   -2.5253   -3.8264 N   0  0  0  0  0  0  0  0  0  0  0  0
    8.2576   -1.6136   -4.0302 C   0  0  0  0  0  0  0  0  0  0  0  0
    9.6228   -2.2998   -4.1506 C   0  0  1  0  0  0  0  0  0  0  0  0
   10.7470   -1.3052   -4.5244 C   0  0  0  0  0  0  0  0  0  0  0  0
   12.0550   -1.9210   -3.9539 C   0  0  0  0  0  0  0  0  0  0  0  0
   11.6263   -3.1835   -3.1653 C   0  0  0  0  0  0  0  0  0  0  0  0
   10.1367   -2.9700   -2.8637 C   0  0  0  0  0  0  0  0  0  0  0  0
    4.4329   -3.3423   -0.6978 N   0  0  0  0  0  0  0  0  0  0  0  0
    3.8289   -2.4824    0.0661 N   0  0  0  0  0  0  0  0  0  0  0  0
    3.0283   -1.4193    1.5826 H   0  0  0  0  0  0  0  0  0  0  0  0
    2.2914   -1.8548   -2.7415 H   0  0  0  0  0  0  0  0  0  0  0  0
    4.4774   -3.3315   -4.0220 H   0  0  0  0  0  0  0  0  0  0  0  0
    5.3752   -4.3441   -2.8603 H   0  0  0  0  0  0  0  0  0  0  0  0
    6.4637   -2.2502   -1.9205 H   0  0  0  0  0  0  0  0  0  0  0  0
    5.6733   -1.2694   -3.1455 H   0  0  0  0  0  0  0  0  0  0  0  0
    7.1998   -3.4030   -4.3480 H   0  0  0  0  0  0  0  0  0  0  0  0
    8.2339   -0.8635   -3.2265 H   0  0  0  0  0  0  0  0  0  0  0  0
    8.0323   -1.0740   -4.9753 H   0  0  0  0  0  0  0  0  0  0  0  0
    9.5523   -3.0677   -4.9442 H   0  0  0  0  0  0  0  0  0  0  0  0
   10.5467   -0.3273   -4.0555 H   0  0  0  0  0  0  0  0  0  0  0  0
   10.7911   -1.1300   -5.6102 H   0  0  0  0  0  0  0  0  0  0  0  0
   12.5584   -1.1985   -3.2943 H   0  0  0  0  0  0  0  0  0  0  0  0
   12.7716   -2.1683   -4.7505 H   0  0  0  0  0  0  0  0  0  0  0  0
   12.2235   -3.3462   -2.2565 H   0  0  0  0  0  0  0  0  0  0  0  0
   11.7459   -4.0831   -3.7914 H   0  0  0  0  0  0  0  0  0  0  0  0
   10.0104   -2.2783   -2.0114 H   0  0  0  0  0  0  0  0  0  0  0  0
    9.6084   -3.9027   -2.6071 H   0  0  0  0  0  0  0  0  0  0  0  0
  1  2  2  0
  2  3  1  0
  2  4  1  0
  3 18  1  0
  4  5  2  0
  4 17  1  0
  5  6  1  0
  5 19  1  0
  6  7  1  0
  6 16  1  0
  7  8  1  0
  7 20  1  0
  7 21  1  0
  8  9  1  0
  8 22  1  0
  8 23  1  0
  9 10  1  0
  9 24  1  0
 10 11  1  0
 10 25  1  0
 10 26  1  0
 11 12  1  0
 11 15  1  0
 11 27  1  6
 12 13  1  0
 12 28  1  0
 12 29  1  0
 13 14  1  0
 13 30  1  0
 13 31  1  0
 14 15  1  0
 14 32  1  0
 14 33  1  0
 15 34  1  0
 15 35  1  0
 16 17  2  0
M  END

