
     RDKit          3D

 28 29  0  0  0  0  0  0  0  0999 V2000
    1.3346    0.2778    0.2838 N   0  0  0  0  0  0  0  0  0  0  0  0
    2.4781    0.1045    0.1895 C   0  0  0  0  0  0  0  0  0  0  0  0
    3.9196   -0.1380    0.0306 C   0  0  1  0  0  0  0  0  0  0  0  0
    4.1797   -1.5912   -0.3262 C   0  0  0  0  0  0  0  0  0  0  0  0
    4.4180   -2.5036    0.4570 O   0  0  0  0  0  0  0  0  0  0  0  0
    4.0589   -1.8473   -1.7252 N   0  0  0  0  0  0  0  0  0  0  0  0
    3.9976   -0.9269   -2.6971 C   0  0  0  0  0  0  0  0  0  0  0  0
    3.8346   -1.3876   -4.3973 S   0  0  0  0  0  0  0  0  0  0  0  0
    4.0450    0.3764   -2.3610 N   0  0  0  0  0  0  0  0  0  0  0  0
    4.5043    0.8465   -1.0450 C   0  0  2  0  0  0  0  0  0  0  0  0
    6.0016    1.0318   -0.9563 C   0  0  0  0  0  0  0  0  0  0  0  0
    6.5145    2.2999   -0.6354 C   0  0  0  0  0  0  0  0  0  0  0  0
    7.8908    2.4975   -0.5351 C   0  0  0  0  0  0  0  0  0  0  0  0
    8.5612    4.2194   -0.0773 Br  0  0  0  0  0  0  0  0  0  0  0  0
    8.7881    1.4459   -0.7607 C   0  0  0  0  0  0  0  0  0  0  0  0
    8.2762    0.1880   -1.0873 C   0  0  0  0  0  0  0  0  0  0  0  0
    9.2277   -0.9439   -1.4034 C   0  0  1  0  0  0  0  0  0  0  0  0
   10.4169   -0.7820   -0.8023 F   0  0  0  0  0  0  0  0  0  0  0  0
    8.7322   -2.1312   -1.0184 F   0  0  0  0  0  0  0  0  0  0  0  0
    9.4611   -1.0266   -2.7276 F   0  0  0  0  0  0  0  0  0  0  0  0
    6.8974   -0.0313   -1.1835 C   0  0  0  0  0  0  0  0  0  0  0  0
    4.4119    0.0474    0.9977 H   0  0  0  0  0  0  0  0  0  0  0  0
    4.1091   -2.8327   -1.9710 H   0  0  0  0  0  0  0  0  0  0  0  0
    3.9876    1.0618   -3.1046 H   0  0  0  0  0  0  0  0  0  0  0  0
    4.0308    1.8269   -0.8939 H   0  0  0  0  0  0  0  0  0  0  0  0
    5.8357    3.1368   -0.4555 H   0  0  0  0  0  0  0  0  0  0  0  0
    9.8634    1.6046   -0.6824 H   0  0  0  0  0  0  0  0  0  0  0  0
    6.5366   -1.0301   -1.4248 H   0  0  0  0  0  0  0  0  0  0  0  0
  1  2  3  0
  2  3  1  0
  3  4  1  0
  3 10  1  0
  3 22  1  1
  4  5  2  0
  4  6  1  0
  6  7  1  0
  6 23  1  0
  7  8  2  0
  7  9  1  0
  9 10  1  0
  9 24  1  0
 10 11  1  0
 10 25  1  6
 11 12  2  0
 11 21  1  0
 12 13  1  0
 12 26  1  0
 13 14  1  0
 13 15  2  0
 15 16  1  0
 15 27  1  0
 16 17  1  0
 16 21  2  0
 17 18  1  1
 17 19  1  0
 17 20  1  0
 21 28  1  0
M  END

