
     RDKit          3D

 32 34  0  0  0  0  0  0  0  0999 V2000
    1.2205   -0.3836    0.5164 C   0  0  0  0  0  0  0  0  0  0  0  0
    2.6802   -0.1991    0.2508 C   0  0  0  0  0  0  0  0  0  0  0  0
    3.4320    0.7713    0.6933 N   0  0  0  0  0  0  0  0  0  0  0  0
    4.6863    0.5107    0.1508 C   0  0  0  0  0  0  0  0  0  0  0  0
    5.7954    1.3681    0.3811 C   0  0  0  0  0  0  0  0  0  0  0  0
    5.7467    2.4250    1.0908 O   0  0  0  0  0  0  0  0  0  0  0  0
    7.0689    1.0388   -0.2624 N   0  0  0  0  0  0  0  0  0  0  0  0
    7.5363   -0.3267   -0.1054 C   0  0  0  0  0  0  0  0  0  0  0  0
    8.2657   -0.4501    1.1904 C   0  0  0  0  0  0  0  0  0  0  0  0
    8.5824   -1.5098    1.9469 N   0  0  0  0  0  0  0  0  0  0  0  0
    8.3187   -2.4749    1.7704 H   0  0  0  0  0  0  0  0  0  0  0  0
    9.3444   -1.0418    3.0194 C   0  0  0  0  0  0  0  0  0  0  0  0
    9.5215    0.2617    2.9761 N   0  0  0  0  0  0  0  0  0  0  0  0
    8.8632    0.6861    1.8755 C   0  0  0  0  0  0  0  0  0  0  0  0
    8.6874    2.0551    1.3621 C   0  0  0  0  0  0  0  0  0  0  0  0
    8.1788    1.9892   -0.1165 C   0  0  2  0  0  0  0  0  0  0  0  0
    7.9900    3.4201   -0.6989 C   0  0  0  0  0  0  0  0  0  0  0  0
    8.8209    3.8397   -1.4731 O   0  0  0  0  0  0  0  0  0  0  0  0
    6.9732    4.1229   -0.2619 O   0  0  0  0  0  0  0  0  0  0  0  0
    4.7141   -0.6352   -0.6035 N   0  0  0  0  0  0  0  0  0  0  0  0
    3.4181   -1.0604   -0.5115 N   0  0  0  0  0  0  0  0  0  0  0  0
    3.1060   -1.8589   -1.0472 H   0  0  0  0  0  0  0  0  0  0  0  0
    0.8679    0.4498    1.1365 H   0  0  0  0  0  0  0  0  0  0  0  0
    1.0183   -1.3286    1.0478 H   0  0  0  0  0  0  0  0  0  0  0  0
    0.6373   -0.3955   -0.4194 H   0  0  0  0  0  0  0  0  0  0  0  0
    8.2468   -0.5979   -0.9122 H   0  0  0  0  0  0  0  0  0  0  0  0
    6.6871   -1.0265   -0.1885 H   0  0  0  0  0  0  0  0  0  0  0  0
    9.7304   -1.7146    3.7850 H   0  0  0  0  0  0  0  0  0  0  0  0
    9.6063    2.6466    1.4974 H   0  0  0  0  0  0  0  0  0  0  0  0
    7.8863    2.5306    1.9597 H   0  0  0  0  0  0  0  0  0  0  0  0
    8.9981    1.6007   -0.7387 H   0  0  0  0  0  0  0  0  0  0  0  0
    6.3882    3.5386    0.3504 H   0  0  0  0  0  0  0  0  0  0  0  0
  1  2  1  0
  1 23  1  0
  1 24  1  0
  1 25  1  0
  2  3  2  0
  2 21  1  0
  3  4  1  0
  4  5  1  0
  4 20  2  0
  5  6  2  0
  5  7  1  0
  7  8  1  0
  7 16  1  0
  8  9  1  0
  8 26  1  0
  8 27  1  0
  9 10  1  0
  9 14  2  0
 10 11  1  0
 10 12  1  0
 12 13  2  0
 12 28  1  0
 13 14  1  0
 14 15  1  0
 15 16  1  0
 15 29  1  0
 15 30  1  0
 16 17  1  0
 16 31  1  6
 17 18  2  0
 17 19  1  0
 19 32  1  0
 20 21  1  0
 21 22  1  0
M  END

