
     RDKit          3D

 37 36  0  0  0  0  0  0  0  0999 V2000
    6.7958   -5.6227   -2.2232 C   0  0  0  0  0  0  0  0  0  0  0  0
    6.5918   -4.4316   -2.1315 C   0  0  0  0  0  0  0  0  0  0  0  0
    6.3478   -2.9962   -2.0004 C   0  0  0  0  0  0  0  0  0  0  0  0
    4.8772   -2.5881   -2.1965 C   0  0  1  0  0  0  0  0  0  0  0  0
    4.0326   -3.3429   -1.2853 N   0  0  0  0  0  0  0  0  0  0  0  0
    2.6690   -3.4142   -1.4038 C   0  0  0  0  0  0  0  0  0  0  0  0
    2.0321   -2.6569   -2.1493 O   0  0  0  0  0  0  0  0  0  0  0  0
    2.0491   -4.3579   -0.6390 N   0  0  0  0  0  0  0  0  0  0  0  0
    0.6053   -4.5270   -0.6630 C   0  0  0  0  0  0  0  0  0  0  0  0
    0.1149   -5.3655   -1.8578 C   0  0  0  0  0  0  0  0  0  0  0  0
   -1.3198   -5.5712   -1.8609 N   0  0  0  0  0  0  0  0  0  0  0  0
   -1.8843   -6.4687   -0.9718 C   0  0  0  0  0  0  0  0  0  0  0  0
   -1.1871   -7.1225   -0.2029 O   0  0  0  0  0  0  0  0  0  0  0  0
   -3.2601   -6.5940   -1.0298 N   0  0  0  0  0  0  0  0  0  0  0  0
   -4.0859   -5.8900   -1.9884 C   0  0  0  0  0  0  0  0  0  0  0  0
   -3.9302   -7.3831   -0.0130 C   0  0  0  0  0  0  0  0  0  0  0  0
    4.7119   -1.0612   -2.0302 C   0  0  0  0  0  0  0  0  0  0  0  0
    5.7746   -0.3791   -2.4526 O   0  0  0  0  0  0  0  0  0  0  0  0
    3.5422   -0.5291   -2.4368 O   0  0  0  0  0  0  0  0  0  0  0  0
    6.9860   -6.6753   -2.3178 H   0  0  0  0  0  0  0  0  0  0  0  0
    6.9474   -2.4402   -2.7399 H   0  0  0  0  0  0  0  0  0  0  0  0
    6.6870   -2.6495   -1.0072 H   0  0  0  0  0  0  0  0  0  0  0  0
    4.5723   -2.8358   -3.2362 H   0  0  0  0  0  0  0  0  0  0  0  0
    4.4918   -3.8658   -0.5484 H   0  0  0  0  0  0  0  0  0  0  0  0
    2.6064   -5.0929   -0.2194 H   0  0  0  0  0  0  0  0  0  0  0  0
    0.1462   -3.5279   -0.6987 H   0  0  0  0  0  0  0  0  0  0  0  0
    0.2980   -5.0234    0.2683 H   0  0  0  0  0  0  0  0  0  0  0  0
    0.6057   -6.3500   -1.8292 H   0  0  0  0  0  0  0  0  0  0  0  0
    0.4003   -4.8641   -2.7947 H   0  0  0  0  0  0  0  0  0  0  0  0
   -1.8920   -4.8529   -2.2840 H   0  0  0  0  0  0  0  0  0  0  0  0
   -3.5908   -5.8342   -2.9700 H   0  0  0  0  0  0  0  0  0  0  0  0
   -4.3551   -4.8628   -1.6686 H   0  0  0  0  0  0  0  0  0  0  0  0
   -5.0258   -6.4440   -2.1342 H   0  0  0  0  0  0  0  0  0  0  0  0
   -3.1674   -7.8575    0.6147 H   0  0  0  0  0  0  0  0  0  0  0  0
   -4.5551   -8.1693   -0.4724 H   0  0  0  0  0  0  0  0  0  0  0  0
   -4.5819   -6.7557    0.6235 H   0  0  0  0  0  0  0  0  0  0  0  0
    2.8462   -1.2416   -2.3702 H   0  0  0  0  0  0  0  0  0  0  0  0
  1  2  3  0
  1 20  1  0
  2  3  1  0
  3  4  1  0
  3 21  1  0
  3 22  1  0
  4  5  1  0
  4 17  1  0
  4 23  1  6
  5  6  1  0
  5 24  1  0
  6  7  2  0
  6  8  1  0
  8  9  1  0
  8 25  1  0
  9 10  1  0
  9 26  1  0
  9 27  1  0
 10 11  1  0
 10 28  1  0
 10 29  1  0
 11 12  1  0
 11 30  1  0
 12 13  2  0
 12 14  1  0
 14 15  1  0
 14 16  1  0
 15 31  1  0
 15 32  1  0
 15 33  1  0
 16 34  1  0
 16 35  1  0
 16 36  1  0
 17 18  2  0
 17 19  1  0
 19 37  1  0
M  END

