
     RDKit          3D

 49 52  0  0  0  0  0  0  0  0999 V2000
   -1.6498    2.5514    1.1649 C   0  0  0  0  0  0  0  0  0  0  0  0
   -0.2306    2.0311    0.8760 C   0  0  1  0  0  0  0  0  0  0  0  0
   -0.1179    1.4793   -0.5562 C   0  0  0  0  0  0  0  0  0  0  0  0
    0.8310    3.0832    1.1628 C   0  0  0  0  0  0  0  0  0  0  0  0
    1.7955    2.8810    2.1631 C   0  0  0  0  0  0  0  0  0  0  0  0
    2.7787    3.8282    2.4447 C   0  0  0  0  0  0  0  0  0  0  0  0
    2.8400    5.0365    1.7163 C   0  0  0  0  0  0  0  0  0  0  0  0
    3.8176    6.1065    1.9016 C   0  0  0  0  0  0  0  0  0  0  0  0
    5.0769    6.1608    2.4272 C   0  0  0  0  0  0  0  0  0  0  0  0
    5.8435    5.0050    3.0265 C   0  0  0  0  0  0  0  0  0  0  0  0
    5.3717    4.3043    3.8986 O   0  0  0  0  0  0  0  0  0  0  0  0
    7.2054    4.7220    2.4454 C   0  0  0  0  0  0  0  0  0  0  0  0
    7.4000    4.8917    1.0626 C   0  0  0  0  0  0  0  0  0  0  0  0
    8.6060    4.5592    0.4463 C   0  0  0  0  0  0  0  0  0  0  0  0
    9.6591    4.0653    1.2198 C   0  0  0  0  0  0  0  0  0  0  0  0
    9.5001    3.9052    2.5975 C   0  0  0  0  0  0  0  0  0  0  0  0
    8.2821    4.2217    3.2077 C   0  0  0  0  0  0  0  0  0  0  0  0
    8.1818    4.0290    4.9389 Cl  0  0  0  0  0  0  0  0  0  0  0  0
    5.7624    7.4551    2.3805 C   0  0  0  0  0  0  0  0  0  0  0  0
    5.4187    8.5313    1.7365 N   0  0  0  0  0  0  0  0  0  0  0  0
    6.3768    9.4734    2.0743 C   0  0  0  0  0  0  0  0  0  0  0  0
    6.5434   10.8131    1.6968 C   0  0  0  0  0  0  0  0  0  0  0  0
    7.6408   11.4971    2.2228 C   0  0  0  0  0  0  0  0  0  0  0  0
    8.5522   10.8731    3.0997 C   0  0  0  0  0  0  0  0  0  0  0  0
    8.4009    9.5366    3.4851 C   0  0  0  0  0  0  0  0  0  0  0  0
    7.3018    8.8755    2.9508 C   0  0  0  0  0  0  0  0  0  0  0  0
    6.8987    7.5857    3.1429 O   0  0  0  0  0  0  0  0  0  0  0  0
    1.8475    5.2519    0.7301 C   0  0  0  0  0  0  0  0  0  0  0  0
    0.8762    4.2962    0.4525 C   0  0  0  0  0  0  0  0  0  0  0  0
   -2.3943    1.7529    1.0136 H   0  0  0  0  0  0  0  0  0  0  0  0
   -1.9177    3.3857    0.4960 H   0  0  0  0  0  0  0  0  0  0  0  0
   -1.7417    2.9112    2.2015 H   0  0  0  0  0  0  0  0  0  0  0  0
   -0.0407    1.1925    1.5680 H   0  0  0  0  0  0  0  0  0  0  0  0
   -0.3174    2.2620   -1.3066 H   0  0  0  0  0  0  0  0  0  0  0  0
   -0.8482    0.6699   -0.7190 H   0  0  0  0  0  0  0  0  0  0  0  0
    0.8875    1.0757   -0.7528 H   0  0  0  0  0  0  0  0  0  0  0  0
    1.7695    1.9574    2.7489 H   0  0  0  0  0  0  0  0  0  0  0  0
    3.4863    3.6511    3.2523 H   0  0  0  0  0  0  0  0  0  0  0  0
    3.5009    7.0612    1.4660 H   0  0  0  0  0  0  0  0  0  0  0  0
    6.5742    5.2781    0.4608 H   0  0  0  0  0  0  0  0  0  0  0  0
    8.7229    4.6881   -0.6320 H   0  0  0  0  0  0  0  0  0  0  0  0
   10.6135    3.8068    0.7544 H   0  0  0  0  0  0  0  0  0  0  0  0
   10.3189    3.5341    3.2160 H   0  0  0  0  0  0  0  0  0  0  0  0
    5.8358   11.2929    1.0182 H   0  0  0  0  0  0  0  0  0  0  0  0
    7.8009   12.5433    1.9509 H   0  0  0  0  0  0  0  0  0  0  0  0
    9.3967   11.4472    3.4882 H   0  0  0  0  0  0  0  0  0  0  0  0
    9.0983    9.0416    4.1627 H   0  0  0  0  0  0  0  0  0  0  0  0
    1.8554    6.1885    0.1656 H   0  0  0  0  0  0  0  0  0  0  0  0
    0.1373    4.5025   -0.3262 H   0  0  0  0  0  0  0  0  0  0  0  0
  1  2  1  0
  1 30  1  0
  1 31  1  0
  1 32  1  0
  2  3  1  0
  2  4  1  0
  2 33  1  1
  3 34  1  0
  3 35  1  0
  3 36  1  0
  4  5  2  0
  4 29  1  0
  5  6  1  0
  5 37  1  0
  6  7  2  0
  6 38  1  0
  7  8  1  0
  7 28  1  0
  8  9  2  0
  8 39  1  0
  9 10  1  0
  9 19  1  0
 10 11  2  0
 10 12  1  0
 12 13  2  0
 12 17  1  0
 13 14  1  0
 13 40  1  0
 14 15  2  0
 14 41  1  0
 15 16  1  0
 15 42  1  0
 16 17  2  0
 16 43  1  0
 17 18  1  0
 19 20  2  0
 19 27  1  0
 20 21  1  0
 21 22  2  0
 21 26  1  0
 22 23  1  0
 22 44  1  0
 23 24  2  0
 23 45  1  0
 24 25  1  0
 24 46  1  0
 25 26  2  0
 25 47  1  0
 26 27  1  0
 28 29  2  0
 28 48  1  0
 29 49  1  0
M  END

