
     RDKit          3D

 63 68  0  0  0  0  0  0  0  0999 V2000
    1.9938   -1.9008   -0.5023 C   0  0  0  0  0  0  0  0  0  0  0  0
    1.7342   -0.4980   -1.0669 C   0  0  1  0  0  0  0  0  0  0  0  0
    0.1993   -0.2818   -1.0658 C   0  0  0  0  0  0  0  0  0  0  0  0
   -0.5051   -0.7904   -1.9187 O   0  0  0  0  0  0  0  0  0  0  0  0
   -0.2379    0.4620   -0.0002 N   0  0  0  0  0  0  0  0  0  0  0  0
   -1.5361    0.8335    0.3623 C   0  0  0  0  0  0  0  0  0  0  0  0
   -2.6747    0.4294   -0.3663 C   0  0  0  0  0  0  0  0  0  0  0  0
   -3.9474    0.8406    0.0454 C   0  0  0  0  0  0  0  0  0  0  0  0
   -4.0787    1.6447    1.1716 C   0  0  0  0  0  0  0  0  0  0  0  0
   -2.9430    2.0499    1.9071 C   0  0  0  0  0  0  0  0  0  0  0  0
   -1.6755    1.6506    1.5114 C   0  0  0  0  0  0  0  0  0  0  0  0
   -3.3935    2.8945    3.0426 C   0  0  0  0  0  0  0  0  0  0  0  0
   -2.6882    3.5385    4.0564 C   0  0  0  0  0  0  0  0  0  0  0  0
   -3.4079    4.2832    5.0065 C   0  0  0  0  0  0  0  0  0  0  0  0
   -4.8029    4.3822    4.9451 C   0  0  0  0  0  0  0  0  0  0  0  0
   -5.5148    3.7328    3.9242 C   0  0  0  0  0  0  0  0  0  0  0  0
   -4.8000    2.9980    2.9875 C   0  0  0  0  0  0  0  0  0  0  0  0
   -5.3067    2.2146    1.8053 C   0  0  0  0  0  0  0  0  0  0  0  0
   -6.4602    2.0832    1.4532 O   0  0  0  0  0  0  0  0  0  0  0  0
    2.4154    0.5865   -0.3473 N   0  0  0  0  0  0  0  0  0  0  0  0
    3.7159    0.3250    0.2830 C   0  0  0  0  0  0  0  0  0  0  0  0
    4.8999    0.3295   -0.6969 C   0  0  0  0  0  0  0  0  0  0  0  0
    4.9834    1.5982   -1.5699 C   0  0  2  0  0  0  0  0  0  0  0  0
    5.4722    2.8587   -0.9307 N   0  0  0  0  0  0  0  0  0  0  0  0
    5.9123    2.9329    0.3982 C   0  0  0  0  0  0  0  0  0  0  0  0
    6.1336    1.9886    1.1145 O   0  0  0  0  0  0  0  0  0  0  0  0
    6.1099    4.1821    0.8788 O   0  0  0  0  0  0  0  0  0  0  0  0
    5.4743    5.2847    0.2316 C   0  0  0  0  0  0  0  0  0  0  0  0
    5.7797    5.2443   -1.2309 C   0  0  0  0  0  0  0  0  0  0  0  0
    6.0768    6.3622   -2.0095 C   0  0  0  0  0  0  0  0  0  0  0  0
    6.3251    6.2230   -3.3779 C   0  0  0  0  0  0  0  0  0  0  0  0
    6.2866    4.9495   -3.9488 C   0  0  0  0  0  0  0  0  0  0  0  0
    6.0064    3.8204   -3.1730 C   0  0  0  0  0  0  0  0  0  0  0  0
    5.7478    3.9580   -1.7990 C   0  0  0  0  0  0  0  0  0  0  0  0
    3.5868    1.8404   -2.1888 C   0  0  0  0  0  0  0  0  0  0  0  0
    2.4797    1.8319   -1.1236 C   0  0  0  0  0  0  0  0  0  0  0  0
    1.3507   -2.6154   -1.0350 H   0  0  0  0  0  0  0  0  0  0  0  0
    1.7527   -1.9539    0.5712 H   0  0  0  0  0  0  0  0  0  0  0  0
    3.0375   -2.2166   -0.6438 H   0  0  0  0  0  0  0  0  0  0  0  0
    1.9960   -0.5240   -2.1430 H   0  0  0  0  0  0  0  0  0  0  0  0
    0.5420    0.8094    0.5620 H   0  0  0  0  0  0  0  0  0  0  0  0
   -2.5391   -0.1984   -1.2441 H   0  0  0  0  0  0  0  0  0  0  0  0
   -4.8359    0.5342   -0.5125 H   0  0  0  0  0  0  0  0  0  0  0  0
   -0.7854    1.9551    2.0693 H   0  0  0  0  0  0  0  0  0  0  0  0
   -1.5992    3.4729    4.1215 H   0  0  0  0  0  0  0  0  0  0  0  0
   -2.8675    4.7937    5.8080 H   0  0  0  0  0  0  0  0  0  0  0  0
   -5.3374    4.9682    5.6970 H   0  0  0  0  0  0  0  0  0  0  0  0
   -6.6038    3.7947    3.8554 H   0  0  0  0  0  0  0  0  0  0  0  0
    3.6839   -0.6291    0.8239 H   0  0  0  0  0  0  0  0  0  0  0  0
    3.8792    1.0961    1.0514 H   0  0  0  0  0  0  0  0  0  0  0  0
    4.7706   -0.4986   -1.4162 H   0  0  0  0  0  0  0  0  0  0  0  0
    5.8356    0.1518   -0.1573 H   0  0  0  0  0  0  0  0  0  0  0  0
    5.6979    1.3666   -2.3748 H   0  0  0  0  0  0  0  0  0  0  0  0
    5.8571    6.1912    0.7192 H   0  0  0  0  0  0  0  0  0  0  0  0
    4.3833    5.2299    0.4168 H   0  0  0  0  0  0  0  0  0  0  0  0
    6.1076    7.3493   -1.5399 H   0  0  0  0  0  0  0  0  0  0  0  0
    6.5495    7.0987   -3.9906 H   0  0  0  0  0  0  0  0  0  0  0  0
    6.4850    4.8224   -5.0159 H   0  0  0  0  0  0  0  0  0  0  0  0
    5.9963    2.8434   -3.6535 H   0  0  0  0  0  0  0  0  0  0  0  0
    3.3999    1.0436   -2.9284 H   0  0  0  0  0  0  0  0  0  0  0  0
    3.5569    2.7883   -2.7463 H   0  0  0  0  0  0  0  0  0  0  0  0
    1.5026    2.0188   -1.5955 H   0  0  0  0  0  0  0  0  0  0  0  0
    2.6501    2.6659   -0.4196 H   0  0  0  0  0  0  0  0  0  0  0  0
  1  2  1  0
  1 37  1  0
  1 38  1  0
  1 39  1  0
  2  3  1  0
  2 20  1  0
  2 40  1  6
  3  4  2  0
  3  5  1  0
  5  6  1  0
  5 41  1  0
  6  7  2  0
  6 11  1  0
  7  8  1  0
  7 42  1  0
  8  9  2  0
  8 43  1  0
  9 10  1  0
  9 18  1  0
 10 11  2  0
 10 12  1  0
 11 44  1  0
 12 13  2  0
 12 17  1  0
 13 14  1  0
 13 45  1  0
 14 15  2  0
 14 46  1  0
 15 16  1  0
 15 47  1  0
 16 17  2  0
 16 48  1  0
 17 18  1  0
 18 19  2  0
 20 21  1  0
 20 36  1  0
 21 22  1  0
 21 49  1  0
 21 50  1  0
 22 23  1  0
 22 51  1  0
 22 52  1  0
 23 24  1  0
 23 35  1  0
 23 53  1  6
 24 25  1  0
 24 34  1  0
 25 26  2  0
 25 27  1  0
 27 28  1  0
 28 29  1  0
 28 54  1  0
 28 55  1  0
 29 30  2  0
 29 34  1  0
 30 31  1  0
 30 56  1  0
 31 32  2  0
 31 57  1  0
 32 33  1  0
 32 58  1  0
 33 34  2  0
 33 59  1  0
 35 36  1  0
 35 60  1  0
 35 61  1  0
 36 62  1  0
 36 63  1  0
M  END

