
     RDKit          3D

 51 55  0  0  0  0  0  0  0  0999 V2000
    0.3386    0.6567    1.3109 O   0  0  0  0  0  0  0  0  0  0  0  0
    1.6714    0.2041    1.2652 C   0  0  0  0  0  0  0  0  0  0  0  0
    2.5380    1.2328    0.5804 C   0  0  0  0  0  0  0  0  0  0  0  0
    2.0226    2.4267    0.0942 C   0  0  0  0  0  0  0  0  0  0  0  0
    2.8578    3.3695   -0.5437 C   0  0  0  0  0  0  0  0  0  0  0  0
    2.4251    4.6015   -1.0682 N   0  0  0  0  0  0  0  0  0  0  0  0
    1.2006    4.8482   -0.9344 N   0  0  0  0  0  0  0  0  0  0  0  0
    0.7328    6.0696   -1.4508 C   0  0  0  0  0  0  0  0  0  0  0  0
   -0.6431    6.3080   -1.2640 C   0  0  0  0  0  0  0  0  0  0  0  0
   -1.2637    7.4675   -1.7182 C   0  0  0  0  0  0  0  0  0  0  0  0
   -0.5201    8.4521   -2.3926 C   0  0  0  0  0  0  0  0  0  0  0  0
   -1.1688    9.7038   -2.8962 C   0  0  0  0  0  0  0  0  0  0  0  0
   -1.4144   10.7783   -2.0058 C   0  0  0  0  0  0  0  0  0  0  0  0
   -1.0529   10.7304   -0.6179 C   0  0  0  0  0  0  0  0  0  0  0  0
   -1.3028   11.7884    0.2208 C   0  0  0  0  0  0  0  0  0  0  0  0
   -1.9305   12.9721   -0.2675 C   0  0  0  0  0  0  0  0  0  0  0  0
   -2.2872   13.0644   -1.5886 C   0  0  0  0  0  0  0  0  0  0  0  0
   -2.0438   11.9853   -2.4986 C   0  0  0  0  0  0  0  0  0  0  0  0
   -2.3960   12.0744   -3.8512 C   0  0  0  0  0  0  0  0  0  0  0  0
   -2.1580   11.0217   -4.7439 C   0  0  0  0  0  0  0  0  0  0  0  0
   -2.5212   11.1153   -6.1264 C   0  0  0  0  0  0  0  0  0  0  0  0
   -2.2929   10.0759   -6.9915 C   0  0  0  0  0  0  0  0  0  0  0  0
   -1.6875    8.8744   -6.5188 C   0  0  0  0  0  0  0  0  0  0  0  0
   -1.3224    8.7446   -5.2016 C   0  0  0  0  0  0  0  0  0  0  0  0
   -1.5344    9.8077   -4.2613 C   0  0  0  0  0  0  0  0  0  0  0  0
    0.8528    8.2333   -2.5888 C   0  0  0  0  0  0  0  0  0  0  0  0
    1.4673    7.0716   -2.1293 C   0  0  0  0  0  0  0  0  0  0  0  0
    2.7743    6.9412   -2.3549 F   0  0  0  0  0  0  0  0  0  0  0  0
    4.2261    3.0945   -0.6867 C   0  0  0  0  0  0  0  0  0  0  0  0
    4.7567    1.9005   -0.2026 C   0  0  0  0  0  0  0  0  0  0  0  0
    3.9200    0.9722    0.4280 C   0  0  0  0  0  0  0  0  0  0  0  0
    4.3754   -0.2097    0.9203 O   0  0  0  0  0  0  0  0  0  0  0  0
   -0.1948   -0.0151    1.7509 H   0  0  0  0  0  0  0  0  0  0  0  0
    1.7654   -0.7574    0.7186 H   0  0  0  0  0  0  0  0  0  0  0  0
    2.0812    0.0148    2.2792 H   0  0  0  0  0  0  0  0  0  0  0  0
    0.9606    2.6392    0.2048 H   0  0  0  0  0  0  0  0  0  0  0  0
   -1.2054    5.5310   -0.7422 H   0  0  0  0  0  0  0  0  0  0  0  0
   -2.3334    7.6158   -1.5561 H   0  0  0  0  0  0  0  0  0  0  0  0
   -0.5685    9.8332   -0.2301 H   0  0  0  0  0  0  0  0  0  0  0  0
   -1.0164   11.7265    1.2738 H   0  0  0  0  0  0  0  0  0  0  0  0
   -2.1220   13.8038    0.4151 H   0  0  0  0  0  0  0  0  0  0  0  0
   -2.7655   13.9693   -1.9736 H   0  0  0  0  0  0  0  0  0  0  0  0
   -2.8691   12.9892   -4.2198 H   0  0  0  0  0  0  0  0  0  0  0  0
   -2.9889   12.0391   -6.4781 H   0  0  0  0  0  0  0  0  0  0  0  0
   -2.5757   10.1615   -8.0437 H   0  0  0  0  0  0  0  0  0  0  0  0
   -1.5154    8.0489   -7.2142 H   0  0  0  0  0  0  0  0  0  0  0  0
   -0.8639    7.8175   -4.8548 H   0  0  0  0  0  0  0  0  0  0  0  0
    1.4711    8.9702   -3.1055 H   0  0  0  0  0  0  0  0  0  0  0  0
    4.8538    3.8368   -1.1834 H   0  0  0  0  0  0  0  0  0  0  0  0
    5.8237    1.6817   -0.3115 H   0  0  0  0  0  0  0  0  0  0  0  0
    5.3260   -0.2854    0.7632 H   0  0  0  0  0  0  0  0  0  0  0  0
  1  2  1  0
  1 33  1  0
  2  3  1  0
  2 34  1  0
  2 35  1  0
  3  4  2  0
  3 31  1  0
  4  5  1  0
  4 36  1  0
  5  6  1  0
  5 29  2  0
  6  7  2  0
  7  8  1  0
  8  9  2  0
  8 27  1  0
  9 10  1  0
  9 37  1  0
 10 11  2  0
 10 38  1  0
 11 12  1  0
 11 26  1  0
 12 13  1  0
 12 25  2  0
 13 14  2  0
 13 18  1  0
 14 15  1  0
 14 39  1  0
 15 16  2  0
 15 40  1  0
 16 17  1  0
 16 41  1  0
 17 18  2  0
 17 42  1  0
 18 19  1  0
 19 20  2  0
 19 43  1  0
 20 21  1  0
 20 25  1  0
 21 22  2  0
 21 44  1  0
 22 23  1  0
 22 45  1  0
 23 24  2  0
 23 46  1  0
 24 25  1  0
 24 47  1  0
 26 27  2  0
 26 48  1  0
 27 28  1  0
 29 30  1  0
 29 49  1  0
 30 31  2  0
 30 50  1  0
 31 32  1  0
 32 51  1  0
M  END

