
     RDKit          3D

 34 35  0  0  0  0  0  0  0  0999 V2000
    0.8056    1.0607    0.0755 C   0  0  0  0  0  0  0  0  0  0  0  0
    2.1433    0.7466   -0.1027 C   0  0  0  0  0  0  0  0  0  0  0  0
    3.2391    1.3362    0.5858 C   0  0  0  0  0  0  0  0  0  0  0  0
    4.6189    1.0557    0.5108 C   0  0  0  0  0  0  0  0  0  0  0  0
    5.2100   -0.0146   -0.3077 C   0  0  0  0  0  0  0  0  0  0  0  0
    4.8062   -1.3903   -0.0493 C   0  0  0  0  0  0  0  0  0  0  0  0
    3.9118   -1.5628    0.9384 N   0  0  0  0  0  0  0  0  0  0  0  0
    5.3353   -2.4944   -0.7647 C   0  0  0  0  0  0  0  0  0  0  0  0
    6.3079   -2.2698   -1.7304 C   0  0  0  0  0  0  0  0  0  0  0  0
    6.7338   -0.9585   -1.9748 C   0  0  0  0  0  0  0  0  0  0  0  0
    6.1843    0.1702   -1.2949 C   0  0  0  0  0  0  0  0  0  0  0  0
    6.6348    1.5380   -1.6863 C   0  0  0  0  0  0  0  0  0  0  0  0
    5.6899    2.4690   -2.1490 C   0  0  0  0  0  0  0  0  0  0  0  0
    6.1108    3.7234   -2.5801 C   0  0  0  0  0  0  0  0  0  0  0  0
    7.4779    4.0120   -2.5230 C   0  0  0  0  0  0  0  0  0  0  0  0
    8.3841    3.1534   -2.0619 N   0  0  0  0  0  0  0  0  0  0  0  0
    7.9928    1.9399   -1.6441 C   0  0  0  0  0  0  0  0  0  0  0  0
    9.0911    1.0511   -1.1075 C   0  0  0  0  0  0  0  0  0  0  0  0
    0.0257    0.5672   -0.5068 H   0  0  0  0  0  0  0  0  0  0  0  0
    0.4903    1.8247    0.7920 H   0  0  0  0  0  0  0  0  0  0  0  0
    2.3730   -0.0142   -0.8603 H   0  0  0  0  0  0  0  0  0  0  0  0
    2.9767    2.1676    1.2535 H   0  0  0  0  0  0  0  0  0  0  0  0
    5.3197    1.7904    0.9133 H   0  0  0  0  0  0  0  0  0  0  0  0
    3.5551   -0.7125    1.3901 H   0  0  0  0  0  0  0  0  0  0  0  0
    3.5046   -2.4690    1.1412 H   0  0  0  0  0  0  0  0  0  0  0  0
    4.9998   -3.5059   -0.5217 H   0  0  0  0  0  0  0  0  0  0  0  0
    6.7394   -3.1020   -2.2892 H   0  0  0  0  0  0  0  0  0  0  0  0
    7.5020   -0.7848   -2.7308 H   0  0  0  0  0  0  0  0  0  0  0  0
    4.6321    2.1984   -2.1691 H   0  0  0  0  0  0  0  0  0  0  0  0
    5.3974    4.4626   -2.9510 H   0  0  0  0  0  0  0  0  0  0  0  0
    7.8541    4.9859   -2.8599 H   0  0  0  0  0  0  0  0  0  0  0  0
    9.9136    1.6850   -0.7493 H   0  0  0  0  0  0  0  0  0  0  0  0
    9.5069    0.3994   -1.8960 H   0  0  0  0  0  0  0  0  0  0  0  0
    8.7461    0.4024   -0.2891 H   0  0  0  0  0  0  0  0  0  0  0  0
  1  2  2  0
  1 19  1  0
  1 20  1  0
  2  3  1  0
  2 21  1  0
  3  4  2  0
  3 22  1  0
  4  5  1  0
  4 23  1  0
  5  6  2  0
  5 11  1  0
  6  7  1  0
  6  8  1  0
  7 24  1  0
  7 25  1  0
  8  9  2  0
  8 26  1  0
  9 10  1  0
  9 27  1  0
 10 11  2  0
 10 28  1  0
 11 12  1  0
 12 13  2  0
 12 17  1  0
 13 14  1  0
 13 29  1  0
 14 15  2  0
 14 30  1  0
 15 16  1  0
 15 31  1  0
 16 17  2  0
 17 18  1  0
 18 32  1  0
 18 33  1  0
 18 34  1  0
M  END

