
     RDKit          3D

 54 57  0  0  0  0  0  0  0  0999 V2000
    1.9772   -0.5758   -1.4357 C   0  0  0  0  0  0  0  0  0  0  0  0
    3.0473   -0.4595   -0.4582 N   0  0  0  0  0  0  0  0  0  0  0  0
    3.6259    0.6729    0.0501 C   0  0  0  0  0  0  0  0  0  0  0  0
    3.3891    2.0137   -0.1704 C   0  0  0  0  0  0  0  0  0  0  0  0
    2.4573    2.7712   -0.9864 C   0  0  0  0  0  0  0  0  0  0  0  0
    1.5796    2.3508   -1.7339 O   0  0  0  0  0  0  0  0  0  0  0  0
    2.6465    4.2934   -0.8352 C   0  0  0  0  0  0  0  0  0  0  0  0
    1.7485    5.0337   -1.6381 O   0  0  0  0  0  0  0  0  0  0  0  0
    2.1117    5.2428   -2.9296 C   0  0  0  0  0  0  0  0  0  0  0  0
    3.1651    4.8760   -3.3839 O   0  0  0  0  0  0  0  0  0  0  0  0
    1.0416    5.9995   -3.6858 C   0  0  0  0  0  0  0  0  0  0  0  0
    0.2205    5.1220   -4.6120 C   0  0  0  0  0  0  0  0  0  0  0  0
   -0.1254    3.8233   -4.2797 C   0  0  0  0  0  0  0  0  0  0  0  0
   -0.9232    3.0304   -5.1424 C   0  0  0  0  0  0  0  0  0  0  0  0
   -1.3837    3.5340   -6.3389 C   0  0  0  0  0  0  0  0  0  0  0  0
   -1.0550    4.8623   -6.7212 C   0  0  0  0  0  0  0  0  0  0  0  0
   -1.4942    5.4467   -7.9389 C   0  0  0  0  0  0  0  0  0  0  0  0
   -1.1371    6.7419   -8.2416 C   0  0  0  0  0  0  0  0  0  0  0  0
   -0.3305    7.4530   -7.3159 C   0  0  0  0  0  0  0  0  0  0  0  0
    0.0956    6.9483   -6.1797 N   0  0  0  0  0  0  0  0  0  0  0  0
   -0.2440    5.6709   -5.8539 C   0  0  0  0  0  0  0  0  0  0  0  0
    4.7417    0.2423    1.0406 C   0  0  1  0  0  0  0  0  0  0  0  0
    6.1234    0.7406    0.5657 C   0  0  0  0  0  0  0  0  0  0  0  0
    4.4407    0.7528    2.4659 C   0  0  0  0  0  0  0  0  0  0  0  0
    4.6551   -1.2708    0.9740 C   0  0  0  0  0  0  0  0  0  0  0  0
    5.3808   -2.2617    1.6229 C   0  0  0  0  0  0  0  0  0  0  0  0
    5.0791   -3.6092    1.3627 C   0  0  0  0  0  0  0  0  0  0  0  0
    4.0631   -3.9428    0.4623 C   0  0  0  0  0  0  0  0  0  0  0  0
    3.3245   -2.9507   -0.1994 C   0  0  0  0  0  0  0  0  0  0  0  0
    3.6404   -1.6191    0.0752 C   0  0  0  0  0  0  0  0  0  0  0  0
    1.6374    0.4227   -1.7321 H   0  0  0  0  0  0  0  0  0  0  0  0
    1.1352   -1.1404   -1.0015 H   0  0  0  0  0  0  0  0  0  0  0  0
    2.3394   -1.1236   -2.3218 H   0  0  0  0  0  0  0  0  0  0  0  0
    4.0614    2.6555    0.4053 H   0  0  0  0  0  0  0  0  0  0  0  0
    3.6891    4.5513   -1.0807 H   0  0  0  0  0  0  0  0  0  0  0  0
    2.4432    4.5820    0.2081 H   0  0  0  0  0  0  0  0  0  0  0  0
    1.5294    6.7766   -4.2889 H   0  0  0  0  0  0  0  0  0  0  0  0
    0.3778    6.5019   -2.9642 H   0  0  0  0  0  0  0  0  0  0  0  0
    0.2323    3.3898   -3.3418 H   0  0  0  0  0  0  0  0  0  0  0  0
   -1.1704    2.0081   -4.8449 H   0  0  0  0  0  0  0  0  0  0  0  0
   -2.0012    2.9259   -7.0060 H   0  0  0  0  0  0  0  0  0  0  0  0
   -2.1125    4.8570   -8.6222 H   0  0  0  0  0  0  0  0  0  0  0  0
   -1.4575    7.2214   -9.1693 H   0  0  0  0  0  0  0  0  0  0  0  0
   -0.0311    8.4848   -7.5413 H   0  0  0  0  0  0  0  0  0  0  0  0
    6.1752    1.8400    0.5765 H   0  0  0  0  0  0  0  0  0  0  0  0
    6.3406    0.3964   -0.4564 H   0  0  0  0  0  0  0  0  0  0  0  0
    6.9121    0.3561    1.2315 H   0  0  0  0  0  0  0  0  0  0  0  0
    4.4603    1.8526    2.5069 H   0  0  0  0  0  0  0  0  0  0  0  0
    5.1970    0.3728    3.1708 H   0  0  0  0  0  0  0  0  0  0  0  0
    3.4522    0.4133    2.8101 H   0  0  0  0  0  0  0  0  0  0  0  0
    6.1774   -2.0038    2.3261 H   0  0  0  0  0  0  0  0  0  0  0  0
    5.6415   -4.3991    1.8656 H   0  0  0  0  0  0  0  0  0  0  0  0
    3.8370   -4.9941    0.2666 H   0  0  0  0  0  0  0  0  0  0  0  0
    2.5345   -3.2205   -0.9012 H   0  0  0  0  0  0  0  0  0  0  0  0
  1  2  1  0
  1 31  1  0
  1 32  1  0
  1 33  1  0
  2  3  1  0
  2 30  1  0
  3  4  2  0
  3 22  1  0
  4  5  1  0
  4 34  1  0
  5  6  2  0
  5  7  1  0
  7  8  1  0
  7 35  1  0
  7 36  1  0
  8  9  1  0
  9 10  2  0
  9 11  1  0
 11 12  1  0
 11 37  1  0
 11 38  1  0
 12 13  2  0
 12 21  1  0
 13 14  1  0
 13 39  1  0
 14 15  2  0
 14 40  1  0
 15 16  1  0
 15 41  1  0
 16 17  1  0
 16 21  2  0
 17 18  2  0
 17 42  1  0
 18 19  1  0
 18 43  1  0
 19 20  2  0
 19 44  1  0
 20 21  1  0
 22 23  1  6
 22 24  1  0
 22 25  1  0
 23 45  1  0
 23 46  1  0
 23 47  1  0
 24 48  1  0
 24 49  1  0
 24 50  1  0
 25 26  2  0
 25 30  1  0
 26 27  1  0
 26 51  1  0
 27 28  2  0
 27 52  1  0
 28 29  1  0
 28 53  1  0
 29 30  2  0
 29 54  1  0
M  END

