
     RDKit          3D

 27 27  0  0  0  0  0  0  0  0999 V2000
    1.0069   -0.3520    0.2178 C   0  0  0  0  0  0  0  0  0  0  0  0
    2.5098   -0.0912    0.1083 C   0  0  0  0  0  0  0  0  0  0  0  0
    2.8784    0.9125   -0.9892 C   0  0  0  0  0  0  0  0  0  0  0  0
    4.3831    1.1689   -1.1110 C   0  0  0  0  0  0  0  0  0  0  0  0
    4.7710    2.1382   -2.2405 C   0  0  1  0  0  0  0  0  0  0  0  0
    4.3073    3.6052   -1.9985 C   0  0  0  0  0  0  0  0  0  0  0  0
    5.5777    4.4611   -2.1927 C   0  0  2  0  0  0  0  0  0  0  0  0
    5.7780    4.8263   -3.5428 O   0  0  0  0  0  0  0  0  0  0  0  0
    6.6672    3.4882   -1.7296 C   0  0  0  0  0  0  0  0  0  0  0  0
    6.2300    2.2798   -2.4254 N   0  0  0  0  0  0  0  0  0  0  0  0
    0.7784   -1.0772    1.0152 H   0  0  0  0  0  0  0  0  0  0  0  0
    0.6004   -0.7553   -0.7249 H   0  0  0  0  0  0  0  0  0  0  0  0
    0.4542    0.5754    0.4434 H   0  0  0  0  0  0  0  0  0  0  0  0
    3.0371   -1.0443   -0.0801 H   0  0  0  0  0  0  0  0  0  0  0  0
    2.8931    0.2750    1.0782 H   0  0  0  0  0  0  0  0  0  0  0  0
    2.3511    1.8650   -0.7988 H   0  0  0  0  0  0  0  0  0  0  0  0
    2.4940    0.5475   -1.9602 H   0  0  0  0  0  0  0  0  0  0  0  0
    4.8932    0.2035   -1.2896 H   0  0  0  0  0  0  0  0  0  0  0  0
    4.7767    1.5514   -0.1505 H   0  0  0  0  0  0  0  0  0  0  0  0
    4.3325    1.7462   -3.1770 H   0  0  0  0  0  0  0  0  0  0  0  0
    3.9272    3.7238   -0.9705 H   0  0  0  0  0  0  0  0  0  0  0  0
    3.5165    3.9314   -2.6884 H   0  0  0  0  0  0  0  0  0  0  0  0
    5.5496    5.3945   -1.6098 H   0  0  0  0  0  0  0  0  0  0  0  0
    6.0076    4.0011   -3.9999 H   0  0  0  0  0  0  0  0  0  0  0  0
    6.6776    3.4104   -0.6202 H   0  0  0  0  0  0  0  0  0  0  0  0
    7.6689    3.8051   -2.0608 H   0  0  0  0  0  0  0  0  0  0  0  0
    6.7543    1.4410   -2.1902 H   0  0  0  0  0  0  0  0  0  0  0  0
  1  2  1  0
  1 11  1  0
  1 12  1  0
  1 13  1  0
  2  3  1  0
  2 14  1  0
  2 15  1  0
  3  4  1  0
  3 16  1  0
  3 17  1  0
  4  5  1  0
  4 18  1  0
  4 19  1  0
  5  6  1  0
  5 10  1  0
  5 20  1  6
  6  7  1  0
  6 21  1  0
  6 22  1  0
  7  8  1  0
  7  9  1  0
  7 23  1  1
  8 24  1  0
  9 10  1  0
  9 25  1  0
  9 26  1  0
 10 27  1  0
M  END

