
     RDKit          3D

 30 32  0  0  0  0  0  0  0  0999 V2000
    0.9312   -0.0591    0.0676 C   0  0  0  0  0  0  0  0  0  0  0  0
    2.4127    0.0430    0.0670 C   0  0  0  0  0  0  0  0  0  0  0  0
    3.1252    1.2596    0.1322 C   0  0  0  0  0  0  0  0  0  0  0  0
    4.5169    1.3037    0.1275 C   0  0  0  0  0  0  0  0  0  0  0  0
    5.3036    0.1028    0.0557 C   0  0  0  0  0  0  0  0  0  0  0  0
    4.6111   -1.0825   -0.0082 C   0  0  0  0  0  0  0  0  0  0  0  0
    5.0860   -2.3598   -0.0841 O   0  0  0  0  0  0  0  0  0  0  0  0
    3.9575   -3.1611   -0.1260 C   0  0  0  0  0  0  0  0  0  0  0  0
    4.1139   -4.5627   -0.2134 C   0  0  0  0  0  0  0  0  0  0  0  0
    5.4017   -5.1943   -0.2617 C   0  0  0  0  0  0  0  0  0  0  0  0
    5.5015   -6.5678   -0.3511 C   0  0  0  0  0  0  0  0  0  0  0  0
    4.3389   -7.3775   -0.3966 C   0  0  0  0  0  0  0  0  0  0  0  0
    4.4278   -8.8661   -0.4929 C   0  0  1  0  0  0  0  0  0  0  0  0
    5.6988   -9.3087   -0.5464 F   0  0  0  0  0  0  0  0  0  0  0  0
    3.8407   -9.4868    0.5590 F   0  0  0  0  0  0  0  0  0  0  0  0
    3.7972   -9.3486   -1.5908 F   0  0  0  0  0  0  0  0  0  0  0  0
    3.0614   -6.7645   -0.3487 C   0  0  0  0  0  0  0  0  0  0  0  0
    2.9412   -5.3936   -0.2591 C   0  0  0  0  0  0  0  0  0  0  0  0
    2.8006   -2.4495   -0.0774 N   0  0  0  0  0  0  0  0  0  0  0  0
    3.1984   -1.1641   -0.0056 C   0  0  0  0  0  0  0  0  0  0  0  0
    0.4409    0.9215    0.1344 H   0  0  0  0  0  0  0  0  0  0  0  0
    0.5913   -0.6991    0.9033 H   0  0  0  0  0  0  0  0  0  0  0  0
    0.5831   -0.5827   -0.8428 H   0  0  0  0  0  0  0  0  0  0  0  0
    2.5645    2.1956    0.1883 H   0  0  0  0  0  0  0  0  0  0  0  0
    5.0296    2.2663    0.1796 H   0  0  0  0  0  0  0  0  0  0  0  0
    6.3943    0.1391    0.0522 H   0  0  0  0  0  0  0  0  0  0  0  0
    6.3026   -4.5794   -0.2281 H   0  0  0  0  0  0  0  0  0  0  0  0
    6.4832   -7.0421   -0.3882 H   0  0  0  0  0  0  0  0  0  0  0  0
    2.1641   -7.3871   -0.3840 H   0  0  0  0  0  0  0  0  0  0  0  0
    1.9614   -4.9147   -0.2225 H   0  0  0  0  0  0  0  0  0  0  0  0
  1  2  1  0
  1 21  1  0
  1 22  1  0
  1 23  1  0
  2  3  2  0
  2 20  1  0
  3  4  1  0
  3 24  1  0
  4  5  2  0
  4 25  1  0
  5  6  1  0
  5 26  1  0
  6  7  1  0
  6 20  2  0
  7  8  1  0
  8  9  1  0
  8 19  2  0
  9 10  2  0
  9 18  1  0
 10 11  1  0
 10 27  1  0
 11 12  2  0
 11 28  1  0
 12 13  1  0
 12 17  1  0
 13 14  1  6
 13 15  1  0
 13 16  1  0
 17 18  2  0
 17 29  1  0
 18 30  1  0
 19 20  1  0
M  END

