
     RDKit          3D

 89 94  0  0  0  0  0  0  0  0999 V2000
    8.0311   -0.5313   -0.3713 C   0  0  0  0  0  0  0  0  0  0  0  0
    6.9299    0.3284   -0.5641 O   0  0  0  0  0  0  0  0  0  0  0  0
    6.5901    1.1518    0.5357 C   0  0  1  0  0  0  0  0  0  0  0  0
    7.6051    2.2867    0.7352 C   0  0  0  0  0  0  0  0  0  0  0  0
    7.5280    3.2541   -0.4401 C   0  0  2  0  0  0  0  0  0  0  0  0
    7.8633    2.7428   -1.3537 H   0  0  0  0  0  0  0  0  0  0  0  0
    8.3856    4.3969   -0.2334 O   0  0  0  0  0  0  0  0  0  0  0  0
    9.6938    4.2547   -0.5166 C   0  0  0  0  0  0  0  0  0  0  0  0
   10.1863    3.2255   -0.9216 O   0  0  0  0  0  0  0  0  0  0  0  0
   10.4696    5.5068   -0.2726 C   0  0  0  0  0  0  0  0  0  0  0  0
   11.8481    5.5045   -0.5276 C   0  0  0  0  0  0  0  0  0  0  0  0
   12.5719    6.6718   -0.2993 C   0  0  0  0  0  0  0  0  0  0  0  0
   11.8869    7.7966    0.1764 C   0  0  0  0  0  0  0  0  0  0  0  0
   10.5742    7.8120    0.4234 N   0  0  0  0  0  0  0  0  0  0  0  0
    9.8840    6.6925    0.2029 C   0  0  0  0  0  0  0  0  0  0  0  0
    6.1033    3.7749   -0.5772 C   0  0  0  0  0  0  0  0  0  0  0  0
    5.0803    2.6279   -0.6721 C   0  0  1  0  0  0  0  0  0  0  0  0
    4.0924    3.0406   -0.4088 H   0  0  0  0  0  0  0  0  0  0  0  0
    4.9541    2.0274   -2.0810 C   0  0  0  0  0  0  0  0  0  0  0  0
    3.9588    0.8600   -2.1260 C   0  0  0  0  0  0  0  0  0  0  0  0
    3.5385    0.4970   -3.4816 N   0  0  0  0  0  0  0  0  0  0  0  0
    4.0841   -0.5510   -4.2137 C   0  0  0  0  0  0  0  0  0  0  0  0
    5.0754   -1.5108   -3.6746 C   0  0  0  0  0  0  0  0  0  0  0  0
    4.7582   -2.3739   -2.6074 C   0  0  0  0  0  0  0  0  0  0  0  0
    5.6748   -3.3171   -2.1402 C   0  0  0  0  0  0  0  0  0  0  0  0
    6.9203   -3.4076   -2.7578 C   0  0  0  0  0  0  0  0  0  0  0  0
    7.8072   -4.3113   -2.3132 F   0  0  0  0  0  0  0  0  0  0  0  0
    7.2684   -2.5781   -3.8210 C   0  0  0  0  0  0  0  0  0  0  0  0
    6.3447   -1.6321   -4.2698 C   0  0  0  0  0  0  0  0  0  0  0  0
    3.5366   -0.5170   -5.4901 C   0  0  0  0  0  0  0  0  0  0  0  0
    3.8895   -1.4487   -6.5910 C   0  0  0  0  0  0  0  0  0  0  0  0
    3.7639   -2.8426   -6.4336 C   0  0  0  0  0  0  0  0  0  0  0  0
    4.1038   -3.7171   -7.4702 C   0  0  0  0  0  0  0  0  0  0  0  0
    4.5708   -3.2167   -8.6887 C   0  0  0  0  0  0  0  0  0  0  0  0
    4.6970   -1.8341   -8.8624 C   0  0  0  0  0  0  0  0  0  0  0  0
    4.3625   -0.9610   -7.8258 C   0  0  0  0  0  0  0  0  0  0  0  0
    2.6173    0.5936   -5.5250 C   0  0  0  0  0  0  0  0  0  0  0  0
    1.7140    0.9886   -6.6439 C   0  0  0  0  0  0  0  0  0  0  0  0
    1.3475    2.1437   -6.8332 O   0  0  0  0  0  0  0  0  0  0  0  0
    1.2936   -0.0572   -7.4392 N   0  0  0  0  0  0  0  0  0  0  0  0
    0.5041   -0.0334   -8.6020 C   0  0  0  0  0  0  0  0  0  0  0  0
   -0.0838    1.1332   -9.1270 C   0  0  0  0  0  0  0  0  0  0  0  0
   -0.8538    1.0535  -10.2903 C   0  0  0  0  0  0  0  0  0  0  0  0
   -1.0567   -0.1633  -10.9467 C   0  0  0  0  0  0  0  0  0  0  0  0
   -0.4724   -1.3217  -10.4240 C   0  0  0  0  0  0  0  0  0  0  0  0
    0.3006   -1.2596   -9.2661 C   0  0  0  0  0  0  0  0  0  0  0  0
    2.6509    1.2096   -4.2660 C   0  0  0  0  0  0  0  0  0  0  0  0
    1.8759    2.3906   -3.7093 C   0  0  1  0  0  0  0  0  0  0  0  0
    2.2987    3.7378   -4.3299 C   0  0  0  0  0  0  0  0  0  0  0  0
    0.3497    2.1914   -3.7884 C   0  0  0  0  0  0  0  0  0  0  0  0
    5.2966    1.6367    0.3432 O   0  0  0  0  0  0  0  0  0  0  0  0
    8.0510   -1.2305   -1.2175 H   0  0  0  0  0  0  0  0  0  0  0  0
    7.9311   -1.1146    0.5654 H   0  0  0  0  0  0  0  0  0  0  0  0
    8.9936    0.0125   -0.3454 H   0  0  0  0  0  0  0  0  0  0  0  0
    6.5370    0.5299    1.4510 H   0  0  0  0  0  0  0  0  0  0  0  0
    8.6198    1.8775    0.8385 H   0  0  0  0  0  0  0  0  0  0  0  0
    7.3596    2.8200    1.6680 H   0  0  0  0  0  0  0  0  0  0  0  0
   12.3187    4.5911   -0.8978 H   0  0  0  0  0  0  0  0  0  0  0  0
   13.6475    6.7170   -0.4841 H   0  0  0  0  0  0  0  0  0  0  0  0
   12.4293    8.7307    0.3662 H   0  0  0  0  0  0  0  0  0  0  0  0
    8.8102    6.7220    0.4103 H   0  0  0  0  0  0  0  0  0  0  0  0
    6.0132    4.4315   -1.4565 H   0  0  0  0  0  0  0  0  0  0  0  0
    5.8783    4.3857    0.3122 H   0  0  0  0  0  0  0  0  0  0  0  0
    4.6101    2.8339   -2.7472 H   0  0  0  0  0  0  0  0  0  0  0  0
    5.9287    1.6844   -2.4577 H   0  0  0  0  0  0  0  0  0  0  0  0
    3.0644    1.0947   -1.5294 H   0  0  0  0  0  0  0  0  0  0  0  0
    4.4215   -0.0163   -1.6617 H   0  0  0  0  0  0  0  0  0  0  0  0
    3.7693   -2.3199   -2.1458 H   0  0  0  0  0  0  0  0  0  0  0  0
    5.4340   -3.9907   -1.3154 H   0  0  0  0  0  0  0  0  0  0  0  0
    8.2529   -2.6796   -4.2820 H   0  0  0  0  0  0  0  0  0  0  0  0
    6.6079   -0.9773   -5.1026 H   0  0  0  0  0  0  0  0  0  0  0  0
    3.3924   -3.2408   -5.4868 H   0  0  0  0  0  0  0  0  0  0  0  0
    3.9993   -4.7954   -7.3242 H   0  0  0  0  0  0  0  0  0  0  0  0
    4.8339   -3.8997   -9.5004 H   0  0  0  0  0  0  0  0  0  0  0  0
    5.0612   -1.4323   -9.8115 H   0  0  0  0  0  0  0  0  0  0  0  0
    4.4702    0.1171   -7.9675 H   0  0  0  0  0  0  0  0  0  0  0  0
    1.6387   -0.9744   -7.1818 H   0  0  0  0  0  0  0  0  0  0  0  0
    0.0721    2.0802   -8.6172 H   0  0  0  0  0  0  0  0  0  0  0  0
   -1.3041    1.9676  -10.6870 H   0  0  0  0  0  0  0  0  0  0  0  0
   -1.6628   -0.2102  -11.8546 H   0  0  0  0  0  0  0  0  0  0  0  0
   -0.6163   -2.2843  -10.9219 H   0  0  0  0  0  0  0  0  0  0  0  0
    0.7600   -2.1691   -8.8677 H   0  0  0  0  0  0  0  0  0  0  0  0
    2.1194    2.4440   -2.6374 H   0  0  0  0  0  0  0  0  0  0  0  0
    2.0490    3.7558   -5.3982 H   0  0  0  0  0  0  0  0  0  0  0  0
    3.3822    3.9093   -4.2272 H   0  0  0  0  0  0  0  0  0  0  0  0
    1.7764    4.5671   -3.8247 H   0  0  0  0  0  0  0  0  0  0  0  0
    0.0017    2.1984   -4.8300 H   0  0  0  0  0  0  0  0  0  0  0  0
   -0.1630    3.0101   -3.2573 H   0  0  0  0  0  0  0  0  0  0  0  0
    0.0452    1.2416   -3.3208 H   0  0  0  0  0  0  0  0  0  0  0  0
  1  2  1  0
  1 52  1  0
  1 53  1  0
  1 54  1  0
  2  3  1  0
  3  4  1  0
  3 51  1  0
  3 55  1  1
  4  5  1  0
  4 56  1  0
  4 57  1  0
  5  6  1  6
  5  7  1  0
  5 16  1  0
  7  8  1  0
  8  9  2  0
  8 10  1  0
 10 11  2  0
 10 15  1  0
 11 12  1  0
 11 58  1  0
 12 13  2  0
 12 59  1  0
 13 14  1  0
 13 60  1  0
 14 15  2  0
 15 61  1  0
 16 17  1  0
 16 62  1  0
 16 63  1  0
 17 18  1  1
 17 19  1  0
 17 51  1  0
 19 20  1  0
 19 64  1  0
 19 65  1  0
 20 21  1  0
 20 66  1  0
 20 67  1  0
 21 22  1  0
 21 47  1  0
 22 23  1  0
 22 30  2  0
 23 24  2  0
 23 29  1  0
 24 25  1  0
 24 68  1  0
 25 26  2  0
 25 69  1  0
 26 27  1  0
 26 28  1  0
 28 29  2  0
 28 70  1  0
 29 71  1  0
 30 31  1  0
 30 37  1  0
 31 32  2  0
 31 36  1  0
 32 33  1  0
 32 72  1  0
 33 34  2  0
 33 73  1  0
 34 35  1  0
 34 74  1  0
 35 36  2  0
 35 75  1  0
 36 76  1  0
 37 38  1  0
 37 47  2  0
 38 39  2  0
 38 40  1  0
 40 41  1  0
 40 77  1  0
 41 42  2  0
 41 46  1  0
 42 43  1  0
 42 78  1  0
 43 44  2  0
 43 79  1  0
 44 45  1  0
 44 80  1  0
 45 46  2  0
 45 81  1  0
 46 82  1  0
 47 48  1  0
 48 49  1  0
 48 50  1  0
 48 83  1  1
 49 84  1  0
 49 85  1  0
 49 86  1  0
 50 87  1  0
 50 88  1  0
 50 89  1  0
M  END

