
     RDKit          3D

 61 62  0  0  0  0  0  0  0  0999 V2000
    5.5939    6.1070   -1.1343 C   0  0  0  0  0  0  0  0  0  0  0  0
    6.0995    4.7108   -0.7457 C   0  0  1  0  0  0  0  0  0  0  0  0
    5.5758    3.9822   -1.3882 H   0  0  0  0  0  0  0  0  0  0  0  0
    7.6152    4.5399   -0.9805 C   0  0  0  0  0  0  0  0  0  0  0  0
    8.4710    5.3127    0.0331 C   0  0  0  0  0  0  0  0  0  0  0  0
    8.1062    4.9307    1.4733 C   0  0  0  0  0  0  0  0  0  0  0  0
    6.6041    5.0907    1.7441 C   0  0  0  0  0  0  0  0  0  0  0  0
    5.7649    4.3132    0.7185 C   0  0  1  0  0  0  0  0  0  0  0  0
    6.0046    3.2421    0.8143 H   0  0  0  0  0  0  0  0  0  0  0  0
    4.3435    4.4233    1.0205 N   0  0  0  0  0  0  0  0  0  0  0  0
    3.4869    3.3752    0.9037 C   0  0  0  0  0  0  0  0  0  0  0  0
    3.8093    2.2658    0.5102 O   0  0  0  0  0  0  0  0  0  0  0  0
    2.0233    3.6952    1.3024 C   0  0  1  0  0  0  0  0  0  0  0  0
    1.7261    4.6413    0.8232 H   0  0  0  0  0  0  0  0  0  0  0  0
    1.0802    2.5673    0.9414 C   0  0  0  0  0  0  0  0  0  0  0  0
    1.9330    3.8901    2.7385 O   0  0  0  0  0  0  0  0  0  0  0  0
    2.1242    5.1162    3.2449 C   0  0  0  0  0  0  0  0  0  0  0  0
    2.4819    6.0685    2.5754 O   0  0  0  0  0  0  0  0  0  0  0  0
    1.8544    5.1854    4.7100 C   0  0  0  0  0  0  0  0  0  0  0  0
    1.4496    4.0663    5.4541 C   0  0  0  0  0  0  0  0  0  0  0  0
    1.2120    4.2160    6.8205 C   0  0  0  0  0  0  0  0  0  0  0  0
    1.3651    5.4501    7.4571 C   0  0  0  0  0  0  0  0  0  0  0  0
    1.7702    6.5743    6.7112 C   0  0  0  0  0  0  0  0  0  0  0  0
    1.9488    7.8498    7.2680 N   0  0  0  0  0  0  0  0  0  0  0  0
    1.7417    8.2570    8.5681 C   0  0  0  0  0  0  0  0  0  0  0  0
    1.3635    7.5508    9.4779 O   0  0  0  0  0  0  0  0  0  0  0  0
    2.0324    9.5709    8.6482 O   0  0  0  0  0  0  0  0  0  0  0  0
    1.8993   10.3238    9.9025 C   0  0  1  0  0  0  0  0  0  0  0  0
    2.8440    9.7477   10.9621 C   0  0  0  0  0  0  0  0  0  0  0  0
    2.3332   11.7334    9.4970 C   0  0  0  0  0  0  0  0  0  0  0  0
    0.4384   10.3149   10.3631 C   0  0  0  0  0  0  0  0  0  0  0  0
    2.0133    6.4267    5.3373 C   0  0  0  0  0  0  0  0  0  0  0  0
    5.8084    6.3121   -2.1956 H   0  0  0  0  0  0  0  0  0  0  0  0
    6.0621    6.9123   -0.5458 H   0  0  0  0  0  0  0  0  0  0  0  0
    4.5042    6.1878   -0.9981 H   0  0  0  0  0  0  0  0  0  0  0  0
    7.8686    4.8449   -2.0101 H   0  0  0  0  0  0  0  0  0  0  0  0
    7.8644    3.4658   -0.9073 H   0  0  0  0  0  0  0  0  0  0  0  0
    8.3318    6.3996   -0.1059 H   0  0  0  0  0  0  0  0  0  0  0  0
    9.5406    5.1174   -0.1518 H   0  0  0  0  0  0  0  0  0  0  0  0
    8.6863    5.5324    2.1928 H   0  0  0  0  0  0  0  0  0  0  0  0
    8.3904    3.8771    1.6500 H   0  0  0  0  0  0  0  0  0  0  0  0
    6.3335    6.1622    1.7145 H   0  0  0  0  0  0  0  0  0  0  0  0
    6.3546    4.7351    2.7574 H   0  0  0  0  0  0  0  0  0  0  0  0
    3.9646    5.3074    1.3559 H   0  0  0  0  0  0  0  0  0  0  0  0
    1.0842    2.4125   -0.1470 H   0  0  0  0  0  0  0  0  0  0  0  0
    0.0574    2.8086    1.2657 H   0  0  0  0  0  0  0  0  0  0  0  0
    1.4064    1.6296    1.4115 H   0  0  0  0  0  0  0  0  0  0  0  0
    1.3281    3.1013    4.9626 H   0  0  0  0  0  0  0  0  0  0  0  0
    0.8977    3.3530    7.4129 H   0  0  0  0  0  0  0  0  0  0  0  0
    1.1746    5.5592    8.5225 H   0  0  0  0  0  0  0  0  0  0  0  0
    2.2585    8.5806    6.6376 H   0  0  0  0  0  0  0  0  0  0  0  0
    3.8770    9.7207   10.5812 H   0  0  0  0  0  0  0  0  0  0  0  0
    2.5461    8.7318   11.2503 H   0  0  0  0  0  0  0  0  0  0  0  0
    2.8283   10.3880   11.8578 H   0  0  0  0  0  0  0  0  0  0  0  0
    3.3691   11.7287    9.1254 H   0  0  0  0  0  0  0  0  0  0  0  0
    2.2757   12.4126   10.3609 H   0  0  0  0  0  0  0  0  0  0  0  0
    1.6823   12.1258    8.7010 H   0  0  0  0  0  0  0  0  0  0  0  0
    0.1141    9.3020   10.6335 H   0  0  0  0  0  0  0  0  0  0  0  0
   -0.2181   10.6985    9.5664 H   0  0  0  0  0  0  0  0  0  0  0  0
    0.3242   10.9678   11.2424 H   0  0  0  0  0  0  0  0  0  0  0  0
    2.3286    7.2778    4.7290 H   0  0  0  0  0  0  0  0  0  0  0  0
  1  2  1  0
  1 33  1  0
  1 34  1  0
  1 35  1  0
  2  3  1  6
  2  4  1  0
  2  8  1  0
  4  5  1  0
  4 36  1  0
  4 37  1  0
  5  6  1  0
  5 38  1  0
  5 39  1  0
  6  7  1  0
  6 40  1  0
  6 41  1  0
  7  8  1  0
  7 42  1  0
  7 43  1  0
  8  9  1  6
  8 10  1  0
 10 11  1  0
 10 44  1  0
 11 12  2  0
 11 13  1  0
 13 14  1  6
 13 15  1  0
 13 16  1  0
 15 45  1  0
 15 46  1  0
 15 47  1  0
 16 17  1  0
 17 18  2  0
 17 19  1  0
 19 20  2  0
 19 32  1  0
 20 21  1  0
 20 48  1  0
 21 22  2  0
 21 49  1  0
 22 23  1  0
 22 50  1  0
 23 24  1  0
 23 32  2  0
 24 25  1  0
 24 51  1  0
 25 26  2  0
 25 27  1  0
 28 27  1  6
 28 29  1  0
 28 30  1  0
 28 31  1  0
 29 52  1  0
 29 53  1  0
 29 54  1  0
 30 55  1  0
 30 56  1  0
 30 57  1  0
 31 58  1  0
 31 59  1  0
 31 60  1  0
 32 61  1  0
M  END

