
     RDKit          3D

104113  0  0  0  0  0  0  0  0999 V2000
    3.2256   -1.0624    2.7269 C   0  0  0  0  0  0  0  0  0  0  0  0
    3.6223   -0.4169    1.4210 C   0  0  0  0  0  0  0  0  0  0  0  0
    4.3516    0.7824    1.4109 C   0  0  0  0  0  0  0  0  0  0  0  0
    4.7272    1.4013    0.2160 C   0  0  0  0  0  0  0  0  0  0  0  0
    4.3724    0.8228   -1.0041 C   0  0  0  0  0  0  0  0  0  0  0  0
    3.6446   -0.3698   -1.0141 C   0  0  0  0  0  0  0  0  0  0  0  0
    3.2646   -1.0018    0.1818 C   0  0  0  0  0  0  0  0  0  0  0  0
    2.4848   -2.2773    0.1257 C   0  0  0  0  0  0  0  0  0  0  0  0
    1.0575   -2.2299    0.0510 C   0  0  0  0  0  0  0  0  0  0  0  0
    0.3553   -0.9996    0.0643 C   0  0  0  0  0  0  0  0  0  0  0  0
   -1.0450   -0.9657    0.0191 C   0  0  0  0  0  0  0  0  0  0  0  0
   -1.7796   -2.1374   -0.0713 C   0  0  0  0  0  0  0  0  0  0  0  0
   -1.1301   -3.4082   -0.1298 C   0  0  0  0  0  0  0  0  0  0  0  0
   -1.8633   -4.6417   -0.2441 C   0  0  0  0  0  0  0  0  0  0  0  0
   -3.3368   -4.6765   -0.4492 C   0  0  0  0  0  0  0  0  0  0  0  0
   -3.9606   -3.9717   -1.4929 C   0  0  0  0  0  0  0  0  0  0  0  0
   -5.3394   -4.0559   -1.7053 C   0  0  0  0  0  0  0  0  0  0  0  0
   -6.1649   -4.8443   -0.8873 C   0  0  0  0  0  0  0  0  0  0  0  0
   -7.6880   -4.9572   -1.0893 C   0  0  1  0  0  0  0  0  0  0  0  0
   -8.1823   -4.1064   -2.2731 C   0  0  0  0  0  0  0  0  0  0  0  0
   -8.0614   -6.4322   -1.3654 C   0  0  0  0  0  0  0  0  0  0  0  0
   -8.4128   -4.4739    0.1887 C   0  0  0  0  0  0  0  0  0  0  0  0
   -5.5339   -5.5526    0.1530 C   0  0  0  0  0  0  0  0  0  0  0  0
   -4.1590   -5.4768    0.3665 C   0  0  0  0  0  0  0  0  0  0  0  0
   -1.1784   -5.8481   -0.1742 C   0  0  0  0  0  0  0  0  0  0  0  0
    0.2388   -5.9286   -0.0435 C   0  0  0  0  0  0  0  0  0  0  0  0
    0.9145   -7.1789    0.0173 C   0  0  0  0  0  0  0  0  0  0  0  0
    0.1296   -8.4523   -0.0003 C   0  0  0  0  0  0  0  0  0  0  0  0
   -0.3654   -8.9752    1.2062 C   0  0  0  0  0  0  0  0  0  0  0  0
   -1.1012  -10.1627    1.2337 C   0  0  0  0  0  0  0  0  0  0  0  0
   -1.3515  -10.8440    0.0411 C   0  0  0  0  0  0  0  0  0  0  0  0
   -0.8651  -10.3314   -1.1643 C   0  0  0  0  0  0  0  0  0  0  0  0
   -0.1242   -9.1403   -1.2119 C   0  0  0  0  0  0  0  0  0  0  0  0
    0.3837   -8.6044   -2.5287 C   0  0  0  0  0  0  0  0  0  0  0  0
    2.3405   -7.2265    0.1139 C   0  0  0  0  0  0  0  0  0  0  0  0
    3.0361   -8.4575    0.2010 C   0  0  0  0  0  0  0  0  0  0  0  0
    4.4323   -8.4919    0.3195 C   0  0  0  0  0  0  0  0  0  0  0  0
    5.1721   -7.3201    0.3268 C   0  0  0  0  0  0  0  0  0  0  0  0
    4.5338   -6.0482    0.2028 C   0  0  0  0  0  0  0  0  0  0  0  0
    5.2748   -4.8143    0.1885 C   0  0  0  0  0  0  0  0  0  0  0  0
    6.7624   -4.7789    0.1633 C   0  0  0  0  0  0  0  0  0  0  0  0
    7.5070   -5.4683   -0.8089 C   0  0  0  0  0  0  0  0  0  0  0  0
    8.9010   -5.3794   -0.8561 C   0  0  0  0  0  0  0  0  0  0  0  0
    9.6221   -4.6028    0.0651 C   0  0  0  0  0  0  0  0  0  0  0  0
   11.1582   -4.4846    0.0474 C   0  0  1  0  0  0  0  0  0  0  0  0
   11.7919   -5.2967   -1.0966 C   0  0  0  0  0  0  0  0  0  0  0  0
   11.5583   -3.0019   -0.1341 C   0  0  0  0  0  0  0  0  0  0  0  0
   11.7277   -5.0092    1.3862 C   0  0  0  0  0  0  0  0  0  0  0  0
    8.8711   -3.9127    1.0354 C   0  0  0  0  0  0  0  0  0  0  0  0
    7.4808   -3.9922    1.0835 C   0  0  0  0  0  0  0  0  0  0  0  0
    4.5864   -3.6077    0.1820 C   0  0  0  0  0  0  0  0  0  0  0  0
    3.1639   -3.5271    0.1384 C   0  0  0  0  0  0  0  0  0  0  0  0
    2.4166   -4.7504    0.0891 C   0  0  0  0  0  0  0  0  0  0  0  0
    3.0983   -5.9993    0.1304 C   0  0  0  0  0  0  0  0  0  0  0  0
    0.9861   -4.7054    0.0034 C   0  0  0  0  0  0  0  0  0  0  0  0
    0.3036   -3.4569   -0.0293 C   0  0  0  0  0  0  0  0  0  0  0  0
    3.5686   -0.4663    3.5854 H   0  0  0  0  0  0  0  0  0  0  0  0
    3.6518   -2.0745    2.8227 H   0  0  0  0  0  0  0  0  0  0  0  0
    2.1318   -1.1740    2.8037 H   0  0  0  0  0  0  0  0  0  0  0  0
    4.6289    1.2398    2.3652 H   0  0  0  0  0  0  0  0  0  0  0  0
    5.2960    2.3346    0.2403 H   0  0  0  0  0  0  0  0  0  0  0  0
    4.6598    1.2959   -1.9466 H   0  0  0  0  0  0  0  0  0  0  0  0
    3.3629   -0.8288   -1.9654 H   0  0  0  0  0  0  0  0  0  0  0  0
    0.9182   -0.0677    0.1280 H   0  0  0  0  0  0  0  0  0  0  0  0
   -1.5620   -0.0038    0.0647 H   0  0  0  0  0  0  0  0  0  0  0  0
   -2.8685   -2.0957   -0.0780 H   0  0  0  0  0  0  0  0  0  0  0  0
   -3.3547   -3.3634   -2.1686 H   0  0  0  0  0  0  0  0  0  0  0  0
   -5.7645   -3.4944   -2.5377 H   0  0  0  0  0  0  0  0  0  0  0  0
   -7.7239   -4.4200   -3.2241 H   0  0  0  0  0  0  0  0  0  0  0  0
   -7.9698   -3.0357   -2.1271 H   0  0  0  0  0  0  0  0  0  0  0  0
   -9.2730   -4.2149   -2.3809 H   0  0  0  0  0  0  0  0  0  0  0  0
   -7.5648   -6.8009   -2.2771 H   0  0  0  0  0  0  0  0  0  0  0  0
   -9.1503   -6.5346   -1.5049 H   0  0  0  0  0  0  0  0  0  0  0  0
   -7.7685   -7.0927   -0.5352 H   0  0  0  0  0  0  0  0  0  0  0  0
   -8.1644   -3.4238    0.4105 H   0  0  0  0  0  0  0  0  0  0  0  0
   -8.1396   -5.0752    1.0692 H   0  0  0  0  0  0  0  0  0  0  0  0
   -9.5058   -4.5459    0.0624 H   0  0  0  0  0  0  0  0  0  0  0  0
   -6.1269   -6.1811    0.8218 H   0  0  0  0  0  0  0  0  0  0  0  0
   -3.7113   -6.0364    1.1916 H   0  0  0  0  0  0  0  0  0  0  0  0
   -1.7432   -6.7769   -0.2598 H   0  0  0  0  0  0  0  0  0  0  0  0
   -0.1634   -8.4372    2.1362 H   0  0  0  0  0  0  0  0  0  0  0  0
   -1.4751  -10.5524    2.1840 H   0  0  0  0  0  0  0  0  0  0  0  0
   -1.9260  -11.7740    0.0460 H   0  0  0  0  0  0  0  0  0  0  0  0
   -1.0651  -10.8664   -2.0973 H   0  0  0  0  0  0  0  0  0  0  0  0
    0.0898   -9.2573   -3.3637 H   0  0  0  0  0  0  0  0  0  0  0  0
    1.4826   -8.5198   -2.5317 H   0  0  0  0  0  0  0  0  0  0  0  0
   -0.0107   -7.5950   -2.7298 H   0  0  0  0  0  0  0  0  0  0  0  0
    2.4689   -9.3890    0.1998 H   0  0  0  0  0  0  0  0  0  0  0  0
    4.9406   -9.4545    0.4185 H   0  0  0  0  0  0  0  0  0  0  0  0
    6.2543   -7.3626    0.4478 H   0  0  0  0  0  0  0  0  0  0  0  0
    6.9865   -6.0670   -1.5601 H   0  0  0  0  0  0  0  0  0  0  0  0
    9.4226   -5.9270   -1.6415 H   0  0  0  0  0  0  0  0  0  0  0  0
   11.4452   -4.9549   -2.0844 H   0  0  0  0  0  0  0  0  0  0  0  0
   11.5711   -6.3722   -1.0098 H   0  0  0  0  0  0  0  0  0  0  0  0
   12.8872   -5.1819   -1.0731 H   0  0  0  0  0  0  0  0  0  0  0  0
   11.1686   -2.6007   -1.0831 H   0  0  0  0  0  0  0  0  0  0  0  0
   12.6560   -2.8982   -0.1452 H   0  0  0  0  0  0  0  0  0  0  0  0
   11.1728   -2.3692    0.6798 H   0  0  0  0  0  0  0  0  0  0  0  0
   11.4621   -6.0672    1.5409 H   0  0  0  0  0  0  0  0  0  0  0  0
   11.3452   -4.4394    2.2468 H   0  0  0  0  0  0  0  0  0  0  0  0
   12.8273   -4.9291    1.3950 H   0  0  0  0  0  0  0  0  0  0  0  0
    9.3801   -3.2963    1.7801 H   0  0  0  0  0  0  0  0  0  0  0  0
    6.9377   -3.4462    1.8589 H   0  0  0  0  0  0  0  0  0  0  0  0
    5.1576   -2.6791    0.1652 H   0  0  0  0  0  0  0  0  0  0  0  0
  1  2  1  0
  1 57  1  0
  1 58  1  0
  1 59  1  0
  2  3  2  0
  2  7  1  0
  3  4  1  0
  3 60  1  0
  4  5  2  0
  4 61  1  0
  5  6  1  0
  5 62  1  0
  6  7  2  0
  6 63  1  0
  7  8  1  0
  8  9  1  0
  8 52  2  0
  9 10  2  0
  9 56  1  0
 10 11  1  0
 10 64  1  0
 11 12  2  0
 11 65  1  0
 12 13  1  0
 12 66  1  0
 13 14  1  0
 13 56  2  0
 14 15  1  0
 14 25  2  0
 15 16  2  0
 15 24  1  0
 16 17  1  0
 16 67  1  0
 17 18  2  0
 17 68  1  0
 18 19  1  0
 18 23  1  0
 19 20  1  6
 19 21  1  0
 19 22  1  0
 20 69  1  0
 20 70  1  0
 20 71  1  0
 21 72  1  0
 21 73  1  0
 21 74  1  0
 22 75  1  0
 22 76  1  0
 22 77  1  0
 23 24  2  0
 23 78  1  0
 24 79  1  0
 25 26  1  0
 25 80  1  0
 26 27  1  0
 26 55  2  0
 27 28  1  0
 27 35  2  0
 28 29  2  0
 28 33  1  0
 29 30  1  0
 29 81  1  0
 30 31  2  0
 30 82  1  0
 31 32  1  0
 31 83  1  0
 32 33  2  0
 32 84  1  0
 33 34  1  0
 34 85  1  0
 34 86  1  0
 34 87  1  0
 35 36  1  0
 35 54  1  0
 36 37  2  0
 36 88  1  0
 37 38  1  0
 37 89  1  0
 38 39  2  0
 38 90  1  0
 39 40  1  0
 39 54  1  0
 40 41  1  0
 40 51  2  0
 41 42  2  0
 41 50  1  0
 42 43  1  0
 42 91  1  0
 43 44  2  0
 43 92  1  0
 44 45  1  0
 44 49  1  0
 45 46  1  6
 45 47  1  0
 45 48  1  0
 46 93  1  0
 46 94  1  0
 46 95  1  0
 47 96  1  0
 47 97  1  0
 47 98  1  0
 48 99  1  0
 48100  1  0
 48101  1  0
 49 50  2  0
 49102  1  0
 50103  1  0
 51 52  1  0
 51104  1  0
 52 53  1  0
 53 54  2  0
 53 55  1  0
 55 56  1  0
M  END

