
     RDKit          3D

 38 39  0  0  0  0  0  0  0  0999 V2000
    2.8296   -0.0388   -2.0491 O   0  0  0  0  0  0  0  0  0  0  0  0
    2.6855   -0.4905   -0.9355 C   0  0  0  0  0  0  0  0  0  0  0  0
    2.1604   -1.6943   -0.6107 N   0  0  0  0  0  0  0  0  0  0  0  0
    1.6621   -2.6397   -1.5964 C   0  0  1  0  0  0  0  0  0  0  0  0
    2.4137   -4.0011   -1.5453 C   0  0  0  0  0  0  0  0  0  0  0  0
    1.4558   -4.9577   -0.7968 C   0  0  0  0  0  0  0  0  0  0  0  0
    0.4151   -4.0802   -0.2588 N   0  0  0  0  0  0  0  0  0  0  0  0
   -0.7877   -4.7431    0.2098 C   0  0  0  0  0  0  0  0  0  0  0  0
   -0.5664   -5.5978    1.4445 C   0  0  0  0  0  0  0  0  0  0  0  0
    0.1556   -5.0949    2.5389 C   0  0  0  0  0  0  0  0  0  0  0  0
    0.3306   -5.8627    3.6919 C   0  0  0  0  0  0  0  0  0  0  0  0
   -0.2169   -7.1483    3.7715 C   0  0  0  0  0  0  0  0  0  0  0  0
   -0.9358   -7.6592    2.6883 C   0  0  0  0  0  0  0  0  0  0  0  0
   -1.1050   -6.8886    1.5328 C   0  0  0  0  0  0  0  0  0  0  0  0
    0.2190   -3.0520   -1.2723 C   0  0  0  0  0  0  0  0  0  0  0  0
    3.0636    0.1672    0.2132 O   0  0  0  0  0  0  0  0  0  0  0  0
    3.5047    1.4983    0.0658 C   0  0  0  0  0  0  0  0  0  0  0  0
    2.4532    2.4554    0.6028 C   0  0  1  0  0  0  0  0  0  0  0  0
    1.2817    2.3032   -0.0315 F   0  0  0  0  0  0  0  0  0  0  0  0
    2.2316    2.2745    1.9132 F   0  0  0  0  0  0  0  0  0  0  0  0
    2.8628    3.7231    0.4277 F   0  0  0  0  0  0  0  0  0  0  0  0
    2.0663   -1.9296    0.3715 H   0  0  0  0  0  0  0  0  0  0  0  0
    1.7530   -2.1443   -2.5710 H   0  0  0  0  0  0  0  0  0  0  0  0
    3.3780   -3.8811   -1.0316 H   0  0  0  0  0  0  0  0  0  0  0  0
    2.6280   -4.3685   -2.5595 H   0  0  0  0  0  0  0  0  0  0  0  0
    1.9438   -5.5276    0.0083 H   0  0  0  0  0  0  0  0  0  0  0  0
    1.0221   -5.7001   -1.5042 H   0  0  0  0  0  0  0  0  0  0  0  0
   -1.2474   -5.3695   -0.5892 H   0  0  0  0  0  0  0  0  0  0  0  0
   -1.5276   -3.9575    0.4471 H   0  0  0  0  0  0  0  0  0  0  0  0
    0.5865   -4.0930    2.4719 H   0  0  0  0  0  0  0  0  0  0  0  0
    0.8955   -5.4562    4.5351 H   0  0  0  0  0  0  0  0  0  0  0  0
   -0.0806   -7.7493    4.6743 H   0  0  0  0  0  0  0  0  0  0  0  0
   -1.3632   -8.6641    2.7383 H   0  0  0  0  0  0  0  0  0  0  0  0
   -1.6635   -7.2977    0.6856 H   0  0  0  0  0  0  0  0  0  0  0  0
   -0.3873   -2.2154   -0.8922 H   0  0  0  0  0  0  0  0  0  0  0  0
   -0.2783   -3.4480   -2.1890 H   0  0  0  0  0  0  0  0  0  0  0  0
    3.6883    1.7324   -0.9926 H   0  0  0  0  0  0  0  0  0  0  0  0
    4.4276    1.6349    0.6488 H   0  0  0  0  0  0  0  0  0  0  0  0
  1  2  2  0
  2  3  1  0
  2 16  1  0
  3  4  1  0
  3 22  1  0
  4  5  1  0
  4 15  1  0
  4 23  1  6
  5  6  1  0
  5 24  1  0
  5 25  1  0
  6  7  1  0
  6 26  1  0
  6 27  1  0
  7  8  1  0
  7 15  1  0
  8  9  1  0
  8 28  1  0
  8 29  1  0
  9 10  2  0
  9 14  1  0
 10 11  1  0
 10 30  1  0
 11 12  2  0
 11 31  1  0
 12 13  1  0
 12 32  1  0
 13 14  2  0
 13 33  1  0
 14 34  1  0
 15 35  1  0
 15 36  1  0
 16 17  1  0
 17 18  1  0
 17 37  1  0
 17 38  1  0
 18 19  1  6
 18 20  1  0
 18 21  1  0
M  END

