
     RDKit          3D

 45 47  0  0  0  0  0  0  0  0999 V2000
    0.6701   -0.0316   -1.8108 N   0  0  0  0  0  0  0  0  0  0  0  0
    1.7834    0.2556   -0.9095 C   0  0  0  0  0  0  0  0  0  0  0  0
    2.3889    1.6400   -1.2026 C   0  0  1  0  0  0  0  0  0  0  0  0
    1.3822    2.7921   -1.0191 C   0  0  0  0  0  0  0  0  0  0  0  0
    1.0813    3.0952    0.4563 C   0  0  0  0  0  0  0  0  0  0  0  0
    2.3652    3.3566    1.2553 C   0  0  0  0  0  0  0  0  0  0  0  0
    3.3707    2.2062    1.0949 C   0  0  0  0  0  0  0  0  0  0  0  0
    3.6809    1.8867   -0.3785 C   0  0  2  0  0  0  0  0  0  0  0  0
    4.5013    2.9446   -0.9606 N   0  0  0  0  0  0  0  0  0  0  0  0
    5.4238    2.7021   -1.9424 C   0  0  0  0  0  0  0  0  0  0  0  0
    5.6283    1.5784   -2.3784 O   0  0  0  0  0  0  0  0  0  0  0  0
    6.1556    3.9343   -2.4597 C   0  0  0  0  0  0  0  0  0  0  0  0
    7.6338    3.6705   -2.7565 C   0  0  0  0  0  0  0  0  0  0  0  0
    8.2922    4.8619   -3.3752 C   0  0  0  0  0  0  0  0  0  0  0  0
    7.8272    5.4921   -4.5060 N   0  0  0  0  0  0  0  0  0  0  0  0
    8.9501    5.8510   -5.1024 C   0  0  0  0  0  0  0  0  0  0  0  0
    9.0632    6.6053   -6.3472 C   0  0  0  0  0  0  0  0  0  0  0  0
   10.2252    7.0294   -7.0486 C   0  0  0  0  0  0  0  0  0  0  0  0
    9.7697    7.7022   -8.1830 C   0  0  0  0  0  0  0  0  0  0  0  0
    8.3772    7.6606   -8.1226 C   0  0  0  0  0  0  0  0  0  0  0  0
    7.9683    6.9957   -7.0115 O   0  0  0  0  0  0  0  0  0  0  0  0
   10.1174    5.4969   -4.5782 N   0  0  0  0  0  0  0  0  0  0  0  0
    9.7370    4.7754   -3.4603 O   0  0  0  0  0  0  0  0  0  0  0  0
    0.2302   -0.9181   -1.5657 H   0  0  0  0  0  0  0  0  0  0  0  0
    1.0138   -0.1393   -2.7665 H   0  0  0  0  0  0  0  0  0  0  0  0
    2.6038   -0.4926   -0.9584 H   0  0  0  0  0  0  0  0  0  0  0  0
    1.3952    0.2143    0.1226 H   0  0  0  0  0  0  0  0  0  0  0  0
    2.7042    1.6165   -2.2607 H   0  0  0  0  0  0  0  0  0  0  0  0
    0.4550    2.5418   -1.5564 H   0  0  0  0  0  0  0  0  0  0  0  0
    1.7950    3.6997   -1.4953 H   0  0  0  0  0  0  0  0  0  0  0  0
    0.5396    2.2456    0.9092 H   0  0  0  0  0  0  0  0  0  0  0  0
    0.4014    3.9607    0.5319 H   0  0  0  0  0  0  0  0  0  0  0  0
    2.1357    3.5077    2.3236 H   0  0  0  0  0  0  0  0  0  0  0  0
    2.8189    4.3070    0.9144 H   0  0  0  0  0  0  0  0  0  0  0  0
    2.9570    1.3003    1.5695 H   0  0  0  0  0  0  0  0  0  0  0  0
    4.3123    2.4297    1.6236 H   0  0  0  0  0  0  0  0  0  0  0  0
    4.2980    0.9771   -0.4367 H   0  0  0  0  0  0  0  0  0  0  0  0
    4.3642    3.8995   -0.6549 H   0  0  0  0  0  0  0  0  0  0  0  0
    6.0542    4.7812   -1.7609 H   0  0  0  0  0  0  0  0  0  0  0  0
    5.6619    4.2462   -3.3966 H   0  0  0  0  0  0  0  0  0  0  0  0
    7.7015    2.7789   -3.4156 H   0  0  0  0  0  0  0  0  0  0  0  0
    8.1670    3.4037   -1.8288 H   0  0  0  0  0  0  0  0  0  0  0  0
   11.2381    6.8316   -6.7109 H   0  0  0  0  0  0  0  0  0  0  0  0
   10.3584    8.1715   -8.9679 H   0  0  0  0  0  0  0  0  0  0  0  0
    7.5918    8.0446   -8.7688 H   0  0  0  0  0  0  0  0  0  0  0  0
  1  2  1  0
  1 24  1  0
  1 25  1  0
  2  3  1  0
  2 26  1  0
  2 27  1  0
  3  4  1  0
  3  8  1  0
  3 28  1  6
  4  5  1  0
  4 29  1  0
  4 30  1  0
  5  6  1  0
  5 31  1  0
  5 32  1  0
  6  7  1  0
  6 33  1  0
  6 34  1  0
  7  8  1  0
  7 35  1  0
  7 36  1  0
  8  9  1  0
  8 37  1  1
  9 10  1  0
  9 38  1  0
 10 11  2  0
 10 12  1  0
 12 13  1  0
 12 39  1  0
 12 40  1  0
 13 14  1  0
 13 41  1  0
 13 42  1  0
 14 15  2  0
 14 23  1  0
 15 16  1  0
 16 17  1  0
 16 22  2  0
 17 18  2  0
 17 21  1  0
 18 19  1  0
 18 43  1  0
 19 20  2  0
 19 44  1  0
 20 21  1  0
 20 45  1  0
 22 23  1  0
M  END

