
     RDKit          3D

 54 55  0  0  0  0  0  0  0  0999 V2000
    5.2600    5.5277   -5.1634 C   0  0  0  0  0  0  0  0  0  0  0  0
    4.1458    4.8529   -5.7533 O   0  0  0  0  0  0  0  0  0  0  0  0
    3.9538    3.5565   -5.5821 C   0  0  0  0  0  0  0  0  0  0  0  0
    4.7926    2.7135   -4.8012 C   0  0  0  0  0  0  0  0  0  0  0  0
    4.5042    1.3714   -4.7153 C   0  0  0  0  0  0  0  0  0  0  0  0
    3.3789    0.8129   -5.4084 C   0  0  0  0  0  0  0  0  0  0  0  0
    3.1231   -0.6750   -5.3061 C   0  0  1  0  0  0  0  0  0  0  0  0
    2.9917   -0.8410   -4.2148 H   0  0  0  0  0  0  0  0  0  0  0  0
    1.8771   -0.9467   -5.9635 O   0  0  0  0  0  0  0  0  0  0  0  0
    4.2545   -1.5339   -5.7665 C   0  0  0  0  0  0  0  0  0  0  0  0
    4.7054   -1.4247   -7.1599 C   0  0  0  0  0  0  0  0  0  0  0  0
    5.7624   -2.2178   -7.6028 C   0  0  0  0  0  0  0  0  0  0  0  0
    6.2381   -2.1834   -8.8936 O   0  0  0  0  0  0  0  0  0  0  0  0
    5.6183   -1.3450   -9.8241 C   0  0  0  0  0  0  0  0  0  0  0  0
    6.4212   -3.1197   -6.7499 C   0  0  0  0  0  0  0  0  0  0  0  0
    5.9770   -3.2361   -5.3819 C   0  0  0  0  0  0  0  0  0  0  0  0
    4.9272   -2.4565   -4.9350 C   0  0  0  0  0  0  0  0  0  0  0  0
    4.4594   -2.6120   -3.5980 O   0  0  0  0  0  0  0  0  0  0  0  0
    5.1213   -1.8833   -2.3095 P   0  0  1  0  0  0  0  0  0  0  0  0
    5.5444   -0.4574   -2.4978 O   0  0  0  0  0  0  0  0  0  0  0  0
    3.8967   -1.9765   -1.1480 N   0  0  0  0  0  0  0  0  0  0  0  0
    2.9781   -0.8579   -1.0051 C   0  0  0  0  0  0  0  0  0  0  0  0
    3.3511   -3.2591   -0.7396 C   0  0  0  0  0  0  0  0  0  0  0  0
    6.3676   -2.8899   -1.8271 N   0  0  0  0  0  0  0  0  0  0  0  0
    7.4004   -2.3429   -0.9614 C   0  0  0  0  0  0  0  0  0  0  0  0
    6.4371   -4.3220   -2.0546 C   0  0  0  0  0  0  0  0  0  0  0  0
    2.5199    1.6739   -6.1396 C   0  0  0  0  0  0  0  0  0  0  0  0
    2.8039    3.0158   -6.2462 C   0  0  0  0  0  0  0  0  0  0  0  0
    5.1794    6.5727   -5.4821 H   0  0  0  0  0  0  0  0  0  0  0  0
    6.2060    5.0975   -5.5237 H   0  0  0  0  0  0  0  0  0  0  0  0
    5.2114    5.4666   -4.0660 H   0  0  0  0  0  0  0  0  0  0  0  0
    5.6550    3.1168   -4.2717 H   0  0  0  0  0  0  0  0  0  0  0  0
    5.1162    0.7090   -4.0918 H   0  0  0  0  0  0  0  0  0  0  0  0
    1.9964   -1.8241   -6.3527 H   0  0  0  0  0  0  0  0  0  0  0  0
    4.1670   -0.7682   -7.8399 H   0  0  0  0  0  0  0  0  0  0  0  0
    6.1461   -1.4781  -10.7804 H   0  0  0  0  0  0  0  0  0  0  0  0
    5.6774   -0.2775   -9.5344 H   0  0  0  0  0  0  0  0  0  0  0  0
    4.5502   -1.5967   -9.9724 H   0  0  0  0  0  0  0  0  0  0  0  0
    7.2438   -3.7188   -7.1370 H   0  0  0  0  0  0  0  0  0  0  0  0
    6.4574   -3.9453   -4.7126 H   0  0  0  0  0  0  0  0  0  0  0  0
    3.4849    0.0679   -1.3050 H   0  0  0  0  0  0  0  0  0  0  0  0
    2.6690   -0.7596    0.0511 H   0  0  0  0  0  0  0  0  0  0  0  0
    2.0571   -0.9768   -1.6127 H   0  0  0  0  0  0  0  0  0  0  0  0
    4.1287   -4.0341   -0.7453 H   0  0  0  0  0  0  0  0  0  0  0  0
    2.5232   -3.6005   -1.3927 H   0  0  0  0  0  0  0  0  0  0  0  0
    2.9635   -3.1889    0.2920 H   0  0  0  0  0  0  0  0  0  0  0  0
    7.3084   -1.2499   -0.9191 H   0  0  0  0  0  0  0  0  0  0  0  0
    8.4019   -2.5851   -1.3611 H   0  0  0  0  0  0  0  0  0  0  0  0
    7.3371   -2.7492    0.0673 H   0  0  0  0  0  0  0  0  0  0  0  0
    5.6328   -4.6460   -2.7258 H   0  0  0  0  0  0  0  0  0  0  0  0
    6.3590   -4.8894   -1.1059 H   0  0  0  0  0  0  0  0  0  0  0  0
    7.3995   -4.5927   -2.5257 H   0  0  0  0  0  0  0  0  0  0  0  0
    1.6567    1.2293   -6.6322 H   0  0  0  0  0  0  0  0  0  0  0  0
    2.1886    3.6997   -6.8331 H   0  0  0  0  0  0  0  0  0  0  0  0
  1  2  1  0
  1 29  1  0
  1 30  1  0
  1 31  1  0
  2  3  1  0
  3  4  2  0
  3 28  1  0
  4  5  1  0
  4 32  1  0
  5  6  2  0
  5 33  1  0
  6  7  1  0
  6 27  1  0
  7  8  1  1
  7  9  1  0
  7 10  1  0
  9 34  1  0
 10 11  2  0
 10 17  1  0
 11 12  1  0
 11 35  1  0
 12 13  1  0
 12 15  2  0
 13 14  1  0
 14 36  1  0
 14 37  1  0
 14 38  1  0
 15 16  1  0
 15 39  1  0
 16 17  2  0
 16 40  1  0
 17 18  1  0
 19 18  1  6
 19 20  2  0
 19 21  1  0
 19 24  1  0
 21 22  1  0
 21 23  1  0
 22 41  1  0
 22 42  1  0
 22 43  1  0
 23 44  1  0
 23 45  1  0
 23 46  1  0
 24 25  1  0
 24 26  1  0
 25 47  1  0
 25 48  1  0
 25 49  1  0
 26 50  1  0
 26 51  1  0
 26 52  1  0
 27 28  2  0
 27 53  1  0
 28 54  1  0
M  END

