
     RDKit          3D

 44 46  0  0  0  0  0  0  0  0999 V2000
    3.1948    0.2682   -2.2342 C   0  0  0  0  0  0  0  0  0  0  0  0
    3.9272    0.2468   -1.0224 O   0  0  0  0  0  0  0  0  0  0  0  0
    3.8699    1.2981   -0.1863 C   0  0  0  0  0  0  0  0  0  0  0  0
    3.2010    2.5039   -0.4454 C   0  0  0  0  0  0  0  0  0  0  0  0
    3.2257    3.5340    0.5002 C   0  0  0  0  0  0  0  0  0  0  0  0
    3.9109    3.3901    1.7086 C   0  0  0  0  0  0  0  0  0  0  0  0
    4.5740    2.1902    1.9775 C   0  0  0  0  0  0  0  0  0  0  0  0
    4.5588    1.1533    1.0424 C   0  0  0  0  0  0  0  0  0  0  0  0
    5.2345   -0.0896    1.3068 N   0  0  0  0  0  0  0  0  0  0  0  0
    6.5458   -0.2431    0.8697 C   0  0  0  0  0  0  0  0  0  0  0  0
    7.1139    0.8318    0.3159 O   0  0  0  0  0  0  0  0  0  0  0  0
    7.2533   -1.4210    0.9914 C   0  0  0  0  0  0  0  0  0  0  0  0
    8.6270   -1.4729    0.5078 C   0  0  0  0  0  0  0  0  0  0  0  0
    9.3583   -2.5282    0.5090 N   0  0  0  0  0  0  0  0  0  0  0  0
   10.6111   -2.3898    0.0315 N   0  0  0  0  0  0  0  0  0  0  0  0
   11.4623   -3.4765   -0.1214 C   0  0  0  0  0  0  0  0  0  0  0  0
   11.1357   -4.6213    0.1027 O   0  0  0  0  0  0  0  0  0  0  0  0
   12.8417   -3.1134   -0.6144 C   0  0  0  0  0  0  0  0  0  0  0  0
   13.4419   -1.8586   -0.4168 C   0  0  0  0  0  0  0  0  0  0  0  0
   14.7347   -1.6099   -0.8864 C   0  0  0  0  0  0  0  0  0  0  0  0
   15.4413   -2.6124   -1.5566 C   0  0  0  0  0  0  0  0  0  0  0  0
   14.8559   -3.8699   -1.7439 C   0  0  0  0  0  0  0  0  0  0  0  0
   13.5689   -4.1208   -1.2686 C   0  0  0  0  0  0  0  0  0  0  0  0
    6.5794   -2.5672    1.6099 C   0  0  0  0  0  0  0  0  0  0  0  0
    7.0292   -3.6703    1.8140 O   0  0  0  0  0  0  0  0  0  0  0  0
    5.2422   -2.2901    2.0033 N   0  0  0  0  0  0  0  0  0  0  0  0
    4.7563   -3.0747    2.4312 H   0  0  0  0  0  0  0  0  0  0  0  0
    4.5194   -1.1442    1.8838 C   0  0  0  0  0  0  0  0  0  0  0  0
    2.9428   -1.0092    2.3858 S   0  0  0  0  0  0  0  0  0  0  0  0
    3.3705   -0.7016   -2.7163 H   0  0  0  0  0  0  0  0  0  0  0  0
    3.5425    1.0732   -2.9049 H   0  0  0  0  0  0  0  0  0  0  0  0
    2.1144    0.3893   -2.0470 H   0  0  0  0  0  0  0  0  0  0  0  0
    2.6564    2.6426   -1.3792 H   0  0  0  0  0  0  0  0  0  0  0  0
    2.6971    4.4652    0.2818 H   0  0  0  0  0  0  0  0  0  0  0  0
    3.9203    4.1983    2.4421 H   0  0  0  0  0  0  0  0  0  0  0  0
    5.0972    2.0356    2.9234 H   0  0  0  0  0  0  0  0  0  0  0  0
    6.4877    1.5774    0.3243 H   0  0  0  0  0  0  0  0  0  0  0  0
    9.0235   -0.5176    0.1177 H   0  0  0  0  0  0  0  0  0  0  0  0
   10.9088   -1.4806   -0.3289 H   0  0  0  0  0  0  0  0  0  0  0  0
   12.9191   -1.0741    0.1366 H   0  0  0  0  0  0  0  0  0  0  0  0
   15.1949   -0.6330   -0.7178 H   0  0  0  0  0  0  0  0  0  0  0  0
   16.4517   -2.4169   -1.9249 H   0  0  0  0  0  0  0  0  0  0  0  0
   15.4090   -4.6592   -2.2595 H   0  0  0  0  0  0  0  0  0  0  0  0
   13.0998   -5.0992   -1.3884 H   0  0  0  0  0  0  0  0  0  0  0  0
  1  2  1  0
  1 30  1  0
  1 31  1  0
  1 32  1  0
  2  3  1  0
  3  4  2  0
  3  8  1  0
  4  5  1  0
  4 33  1  0
  5  6  2  0
  5 34  1  0
  6  7  1  0
  6 35  1  0
  7  8  2  0
  7 36  1  0
  8  9  1  0
  9 10  1  0
  9 28  1  0
 10 11  1  0
 10 12  2  0
 11 37  1  0
 12 13  1  0
 12 24  1  0
 13 14  2  0
 13 38  1  0
 14 15  1  0
 15 16  1  0
 15 39  1  0
 16 17  2  0
 16 18  1  0
 18 19  2  0
 18 23  1  0
 19 20  1  0
 19 40  1  0
 20 21  2  0
 20 41  1  0
 21 22  1  0
 21 42  1  0
 22 23  2  0
 22 43  1  0
 23 44  1  0
 24 25  2  0
 24 26  1  0
 26 27  1  0
 26 28  1  0
 28 29  2  0
M  END

