
     RDKit          3D

 40 41  0  0  0  0  0  0  0  0999 V2000
    2.2784    5.4306    0.4162 C   0  0  0  0  0  0  0  0  0  0  0  0
    2.2017    4.0236    0.2232 O   0  0  0  0  0  0  0  0  0  0  0  0
    2.7192    3.3228    1.3107 N   0  0  0  0  0  0  0  0  0  0  0  0
    1.7101    2.4660    1.8969 C   0  0  0  0  0  0  0  0  0  0  0  0
    4.0858    3.1038    1.2835 C   0  0  0  0  0  0  0  0  0  0  0  0
    4.8135    3.7126    0.5217 O   0  0  0  0  0  0  0  0  0  0  0  0
    4.6314    2.1070    2.3079 C   0  0  0  0  0  0  0  0  0  0  0  0
    6.1525    2.0941    2.3455 C   0  0  1  0  0  0  0  0  0  0  0  0
    6.8448    1.0550    3.2708 C   0  0  0  0  0  0  0  0  0  0  0  0
    7.8702    0.7665    2.1353 C   0  0  2  0  0  0  0  0  0  0  0  0
    9.0849    1.4750    2.2646 O   0  0  0  0  0  0  0  0  0  0  0  0
   10.0098    0.9042    3.1430 C   0  0  0  0  0  0  0  0  0  0  0  0
   11.2453    1.7232    3.2969 C   0  0  0  0  0  0  0  0  0  0  0  0
   12.3271    1.1835    4.0660 C   0  0  0  0  0  0  0  0  0  0  0  0
   13.5109    1.9597    4.2672 C   0  0  0  0  0  0  0  0  0  0  0  0
   13.6102    3.2621    3.6959 C   0  0  0  0  0  0  0  0  0  0  0  0
   12.5411    3.8012    2.9278 C   0  0  0  0  0  0  0  0  0  0  0  0
   11.3541    3.0317    2.7263 C   0  0  0  0  0  0  0  0  0  0  0  0
    6.9373    1.4959    1.1480 C   0  0  0  0  0  0  0  0  0  0  0  0
    1.7674    5.8725   -0.4513 H   0  0  0  0  0  0  0  0  0  0  0  0
    3.3258    5.7688    0.4371 H   0  0  0  0  0  0  0  0  0  0  0  0
    1.7609    5.7405    1.3421 H   0  0  0  0  0  0  0  0  0  0  0  0
    0.8454    3.0775    2.1958 H   0  0  0  0  0  0  0  0  0  0  0  0
    2.1042    1.9705    2.7922 H   0  0  0  0  0  0  0  0  0  0  0  0
    1.3617    1.6969    1.1833 H   0  0  0  0  0  0  0  0  0  0  0  0
    4.2491    1.0980    2.0636 H   0  0  0  0  0  0  0  0  0  0  0  0
    4.2329    2.3480    3.3093 H   0  0  0  0  0  0  0  0  0  0  0  0
    6.5186    3.1092    2.5589 H   0  0  0  0  0  0  0  0  0  0  0  0
    6.2059    0.1807    3.4774 H   0  0  0  0  0  0  0  0  0  0  0  0
    7.2591    1.4210    4.2232 H   0  0  0  0  0  0  0  0  0  0  0  0
    8.0805   -0.3016    1.9317 H   0  0  0  0  0  0  0  0  0  0  0  0
   10.2898   -0.1246    2.8050 H   0  0  0  0  0  0  0  0  0  0  0  0
    9.5558    0.7422    4.1532 H   0  0  0  0  0  0  0  0  0  0  0  0
   12.2460    0.1815    4.4932 H   0  0  0  0  0  0  0  0  0  0  0  0
   14.3373    1.5567    4.8550 H   0  0  0  0  0  0  0  0  0  0  0  0
   14.5171    3.8509    3.8515 H   0  0  0  0  0  0  0  0  0  0  0  0
   12.6251    4.7991    2.4946 H   0  0  0  0  0  0  0  0  0  0  0  0
   10.5223    3.4214    2.1413 H   0  0  0  0  0  0  0  0  0  0  0  0
    6.3322    0.7919    0.5552 H   0  0  0  0  0  0  0  0  0  0  0  0
    7.4289    2.2034    0.4674 H   0  0  0  0  0  0  0  0  0  0  0  0
  1  2  1  0
  1 20  1  0
  1 21  1  0
  1 22  1  0
  2  3  1  0
  3  4  1  0
  3  5  1  0
  4 23  1  0
  4 24  1  0
  4 25  1  0
  5  6  2  0
  5  7  1  0
  7  8  1  0
  7 26  1  0
  7 27  1  0
  8  9  1  0
  8 19  1  0
  8 28  1  1
  9 10  1  0
  9 29  1  0
  9 30  1  0
 10 11  1  0
 10 19  1  0
 10 31  1  6
 11 12  1  0
 12 13  1  0
 12 32  1  0
 12 33  1  0
 13 14  2  0
 13 18  1  0
 14 15  1  0
 14 34  1  0
 15 16  2  0
 15 35  1  0
 16 17  1  0
 16 36  1  0
 17 18  2  0
 17 37  1  0
 18 38  1  0
 19 39  1  0
 19 40  1  0
M  END

