
     RDKit          3D

 90 96  0  0  0  0  0  0  0  0999 V2000
    3.1763    4.2609   -3.9440 C   0  0  0  0  0  0  0  0  0  0  0  0
    3.7639    4.2198   -2.5329 C   0  0  0  0  0  0  0  0  0  0  0  0
    4.9566    5.1615   -2.3392 C   0  0  0  0  0  0  0  0  0  0  0  0
    5.5491    5.1230   -0.9280 C   0  0  0  0  0  0  0  0  0  0  0  0
    6.7408    6.0673   -0.7435 C   0  0  0  0  0  0  0  0  0  0  0  0
    7.3443    6.0455    0.6579 C   0  0  0  0  0  0  0  0  0  0  0  0
    7.8299    4.7499    1.0326 O   0  0  0  0  0  0  0  0  0  0  0  0
    9.0458    4.3014    0.6959 C   0  0  0  0  0  0  0  0  0  0  0  0
    9.9927    5.0749   -0.0485 C   0  0  0  0  0  0  0  0  0  0  0  0
   11.2369    4.5478   -0.3530 C   0  0  0  0  0  0  0  0  0  0  0  0
   11.5312    3.2487    0.0882 C   0  0  0  0  0  0  0  0  0  0  0  0
   12.6789    2.6172   -0.1248 O   0  0  0  0  0  0  0  0  0  0  0  0
   12.5333    1.3621    0.4861 C   0  0  0  0  0  0  0  0  0  0  0  0
   11.2846    1.2120    1.0842 C   0  0  0  0  0  0  0  0  0  0  0  0
   10.5803    2.4379    0.8488 C   0  0  0  0  0  0  0  0  0  0  0  0
    9.3432    2.9901    1.1392 C   0  0  0  0  0  0  0  0  0  0  0  0
   11.3530   -0.1094    1.6334 C   0  0  0  0  0  0  0  0  0  0  0  0
   12.6384   -0.5953    1.2888 C   0  0  0  0  0  0  0  0  0  0  0  0
   13.1763   -1.8955    1.6696 C   0  0  0  0  0  0  0  0  0  0  0  0
   12.2181   -2.9194    2.1576 C   0  0  0  0  0  0  0  0  0  0  0  0
   12.3639   -3.4073    3.4753 C   0  0  0  0  0  0  0  0  0  0  0  0
   11.4769   -4.3382    4.0166 C   0  0  0  0  0  0  0  0  0  0  0  0
   10.4137   -4.8060    3.2407 C   0  0  0  0  0  0  0  0  0  0  0  0
   10.2638   -4.3426    1.9308 C   0  0  0  0  0  0  0  0  0  0  0  0
   11.1447   -3.4106    1.3638 C   0  0  0  0  0  0  0  0  0  0  0  0
   10.9764   -3.0136   -0.0828 C   0  0  0  0  0  0  0  0  0  0  0  0
   14.5677   -2.1122    1.7412 C   0  0  0  0  0  0  0  0  0  0  0  0
   15.6221   -1.1619    1.7771 C   0  0  0  0  0  0  0  0  0  0  0  0
   16.8178   -1.8542    2.0921 C   0  0  0  0  0  0  0  0  0  0  0  0
   18.2528   -1.8345    2.3067 C   0  0  0  0  0  0  0  0  0  0  0  0
   19.2596   -0.8665    2.3443 C   0  0  0  0  0  0  0  0  0  0  0  0
   20.5836   -1.2678    2.5922 C   0  0  0  0  0  0  0  0  0  0  0  0
   21.5064   -0.2669    2.6132 O   0  0  0  0  0  0  0  0  0  0  0  0
   22.8702   -0.5655    2.8455 C   0  0  0  0  0  0  0  0  0  0  0  0
   23.6581    0.7355    2.8166 C   0  0  0  0  0  0  0  0  0  0  0  0
   25.1561    0.5287    3.0540 C   0  0  0  0  0  0  0  0  0  0  0  0
   25.9662    1.8282    3.0360 C   0  0  0  0  0  0  0  0  0  0  0  0
   27.4664    1.6246    3.2691 C   0  0  0  0  0  0  0  0  0  0  0  0
   28.2705    2.9254    3.2518 C   0  0  0  0  0  0  0  0  0  0  0  0
   20.9002   -2.6267    2.8019 C   0  0  0  0  0  0  0  0  0  0  0  0
   19.8991   -3.6094    2.7666 C   0  0  0  0  0  0  0  0  0  0  0  0
   18.6051   -3.1959    2.5190 C   0  0  0  0  0  0  0  0  0  0  0  0
   17.4910   -4.0322    2.4460 O   0  0  0  0  0  0  0  0  0  0  0  0
   16.4748   -3.1894    2.2094 C   0  0  0  0  0  0  0  0  0  0  0  0
   15.1468   -3.4295    1.9616 N   0  0  0  0  0  0  0  0  0  0  0  0
   14.6399   -4.7377    1.6364 B   0  0  0  0  0  0  0  0  0  0  0  0
   13.6651   -4.9319    0.7699 F   0  0  0  0  0  0  0  0  0  0  0  0
   15.2411   -5.7993    2.1477 F   0  0  0  0  0  0  0  0  0  0  0  0
   13.3676    0.3525    0.5696 N   0  0  0  0  0  0  0  0  0  0  0  0
    2.3226    3.5723   -4.0460 H   0  0  0  0  0  0  0  0  0  0  0  0
    3.9265    3.9742   -4.6998 H   0  0  0  0  0  0  0  0  0  0  0  0
    2.8198    5.2725   -4.2013 H   0  0  0  0  0  0  0  0  0  0  0  0
    4.0761    3.1874   -2.2920 H   0  0  0  0  0  0  0  0  0  0  0  0
    2.9785    4.4739   -1.7979 H   0  0  0  0  0  0  0  0  0  0  0  0
    4.6471    6.1961   -2.5796 H   0  0  0  0  0  0  0  0  0  0  0  0
    5.7442    4.9071   -3.0729 H   0  0  0  0  0  0  0  0  0  0  0  0
    5.8616    4.0923   -0.6869 H   0  0  0  0  0  0  0  0  0  0  0  0
    4.7651    5.3803   -0.1920 H   0  0  0  0  0  0  0  0  0  0  0  0
    6.4311    7.1087   -0.9450 H   0  0  0  0  0  0  0  0  0  0  0  0
    7.5238    5.8336   -1.4861 H   0  0  0  0  0  0  0  0  0  0  0  0
    6.5735    6.2697    1.4100 H   0  0  0  0  0  0  0  0  0  0  0  0
    8.1447    6.7943    0.7683 H   0  0  0  0  0  0  0  0  0  0  0  0
    9.7428    6.0796   -0.3843 H   0  0  0  0  0  0  0  0  0  0  0  0
   11.9765    5.1150   -0.9201 H   0  0  0  0  0  0  0  0  0  0  0  0
    8.5823    2.4510    1.7043 H   0  0  0  0  0  0  0  0  0  0  0  0
   10.6018   -0.6395    2.2160 H   0  0  0  0  0  0  0  0  0  0  0  0
   13.1794   -3.0186    4.0902 H   0  0  0  0  0  0  0  0  0  0  0  0
   11.6105   -4.6865    5.0441 H   0  0  0  0  0  0  0  0  0  0  0  0
    9.7087   -5.5356    3.6475 H   0  0  0  0  0  0  0  0  0  0  0  0
    9.4479   -4.7337    1.3156 H   0  0  0  0  0  0  0  0  0  0  0  0
   10.3512   -3.7456   -0.6161 H   0  0  0  0  0  0  0  0  0  0  0  0
   11.9501   -2.9520   -0.5914 H   0  0  0  0  0  0  0  0  0  0  0  0
   10.5039   -2.0237   -0.1882 H   0  0  0  0  0  0  0  0  0  0  0  0
   15.4624   -0.1006    1.6253 H   0  0  0  0  0  0  0  0  0  0  0  0
   19.0510    0.1926    2.1870 H   0  0  0  0  0  0  0  0  0  0  0  0
   23.2471   -1.2627    2.0716 H   0  0  0  0  0  0  0  0  0  0  0  0
   22.9919   -1.0679    3.8251 H   0  0  0  0  0  0  0  0  0  0  0  0
   23.2408    1.4145    3.5802 H   0  0  0  0  0  0  0  0  0  0  0  0
   23.4902    1.2253    1.8419 H   0  0  0  0  0  0  0  0  0  0  0  0
   25.5588   -0.1601    2.2881 H   0  0  0  0  0  0  0  0  0  0  0  0
   25.3087    0.0200    4.0242 H   0  0  0  0  0  0  0  0  0  0  0  0
   25.5673    2.5171    3.8038 H   0  0  0  0  0  0  0  0  0  0  0  0
   25.8135    2.3400    2.0676 H   0  0  0  0  0  0  0  0  0  0  0  0
   27.8622    0.9359    2.5004 H   0  0  0  0  0  0  0  0  0  0  0  0
   27.6165    1.1106    4.2361 H   0  0  0  0  0  0  0  0  0  0  0  0
   28.1706    3.4456    2.2843 H   0  0  0  0  0  0  0  0  0  0  0  0
   29.3435    2.7409    3.4206 H   0  0  0  0  0  0  0  0  0  0  0  0
   27.9254    3.6207    4.0355 H   0  0  0  0  0  0  0  0  0  0  0  0
   21.9275   -2.9335    2.9937 H   0  0  0  0  0  0  0  0  0  0  0  0
   20.1343   -4.6631    2.9264 H   0  0  0  0  0  0  0  0  0  0  0  0
  1  2  1  0
  1 50  1  0
  1 51  1  0
  1 52  1  0
  2  3  1  0
  2 53  1  0
  2 54  1  0
  3  4  1  0
  3 55  1  0
  3 56  1  0
  4  5  1  0
  4 57  1  0
  4 58  1  0
  5  6  1  0
  5 59  1  0
  5 60  1  0
  6  7  1  0
  6 61  1  0
  6 62  1  0
  7  8  1  0
  8  9  2  0
  8 16  1  0
  9 10  1  0
  9 63  1  0
 10 11  2  0
 10 64  1  0
 11 12  1  0
 11 15  1  0
 12 13  1  0
 13 14  1  0
 13 49  2  0
 14 15  1  0
 14 17  2  0
 15 16  2  0
 16 65  1  0
 17 18  1  0
 17 66  1  0
 18 19  2  0
 18 49  1  0
 19 20  1  0
 19 27  1  0
 20 21  2  0
 20 25  1  0
 21 22  1  0
 21 67  1  0
 22 23  2  0
 22 68  1  0
 23 24  1  0
 23 69  1  0
 24 25  2  0
 24 70  1  0
 25 26  1  0
 26 71  1  0
 26 72  1  0
 26 73  1  0
 27 28  2  0
 27 45  1  0
 28 29  1  0
 28 74  1  0
 29 30  1  0
 29 44  2  0
 30 31  2  0
 30 42  1  0
 31 32  1  0
 31 75  1  0
 32 33  1  0
 32 40  2  0
 33 34  1  0
 34 35  1  0
 34 76  1  0
 34 77  1  0
 35 36  1  0
 35 78  1  0
 35 79  1  0
 36 37  1  0
 36 80  1  0
 36 81  1  0
 37 38  1  0
 37 82  1  0
 37 83  1  0
 38 39  1  0
 38 84  1  0
 38 85  1  0
 39 86  1  0
 39 87  1  0
 39 88  1  0
 40 41  1  0
 40 89  1  0
 41 42  2  0
 41 90  1  0
 42 43  1  0
 43 44  1  0
 44 45  1  0
 45 46  1  0
 46 47  1  0
 46 48  1  0
M  END

