
     RDKit          3D

 47 49  0  0  0  0  0  0  0  0999 V2000
    1.6286    0.3290    0.8768 C   0  0  0  0  0  0  0  0  0  0  0  0
    2.9829    0.0138    0.4545 N   0  0  0  0  0  0  0  0  0  0  0  0
    3.3745   -1.3892    0.5256 C   0  0  0  0  0  0  0  0  0  0  0  0
    2.6625   -2.3432   -0.4434 C   0  0  1  0  0  0  0  0  0  0  0  0
    2.9975   -2.1920   -1.9354 C   0  0  0  0  0  0  0  0  0  0  0  0
    2.5772   -3.5573   -2.4847 C   0  0  0  0  0  0  0  0  0  0  0  0
    2.8216   -4.4933   -1.4390 O   0  0  0  0  0  0  0  0  0  0  0  0
    3.0288   -3.8194   -0.2086 C   0  0  0  0  0  0  0  0  0  0  0  0
    3.5762    0.8352   -0.5120 C   0  0  0  0  0  0  0  0  0  0  0  0
    2.8885    1.9682   -0.7476 O   0  0  0  0  0  0  0  0  0  0  0  0
    5.0712    1.0796   -0.4726 C   0  0  0  0  0  0  0  0  0  0  0  0
    5.6206    1.6452   -1.7868 C   0  0  0  0  0  0  0  0  0  0  0  0
    7.1109    1.7093   -1.7988 C   0  0  0  0  0  0  0  0  0  0  0  0
    7.9615    0.9840   -1.1350 N   0  0  0  0  0  0  0  0  0  0  0  0
    9.1796    1.4548   -1.5800 C   0  0  0  0  0  0  0  0  0  0  0  0
   10.4929    0.9352   -1.0917 C   0  0  1  0  0  0  0  0  0  0  0  0
   10.7174    1.1128    0.4252 C   0  0  0  0  0  0  0  0  0  0  0  0
   11.9123    0.1922    0.7019 C   0  0  0  0  0  0  0  0  0  0  0  0
   11.6583   -1.0534   -0.1819 C   0  0  0  0  0  0  0  0  0  0  0  0
   10.6882   -0.5898   -1.3052 C   0  0  0  0  0  0  0  0  0  0  0  0
    9.0834    2.4132   -2.4672 N   0  0  0  0  0  0  0  0  0  0  0  0
    7.7066    2.5875   -2.6151 O   0  0  0  0  0  0  0  0  0  0  0  0
    1.4073   -0.2060    1.8135 H   0  0  0  0  0  0  0  0  0  0  0  0
    0.8545    0.0505    0.1334 H   0  0  0  0  0  0  0  0  0  0  0  0
    1.5447    1.4093    1.0630 H   0  0  0  0  0  0  0  0  0  0  0  0
    3.1859   -1.7211    1.5624 H   0  0  0  0  0  0  0  0  0  0  0  0
    4.4621   -1.4637    0.3714 H   0  0  0  0  0  0  0  0  0  0  0  0
    1.5708   -2.2339   -0.3160 H   0  0  0  0  0  0  0  0  0  0  0  0
    4.0830   -2.0407   -2.0632 H   0  0  0  0  0  0  0  0  0  0  0  0
    2.4860   -1.3480   -2.4194 H   0  0  0  0  0  0  0  0  0  0  0  0
    3.1468   -3.8596   -3.3791 H   0  0  0  0  0  0  0  0  0  0  0  0
    1.5022   -3.5631   -2.7540 H   0  0  0  0  0  0  0  0  0  0  0  0
    4.0910   -3.9137    0.1000 H   0  0  0  0  0  0  0  0  0  0  0  0
    2.4138   -4.2890    0.5792 H   0  0  0  0  0  0  0  0  0  0  0  0
    5.5844    0.1350   -0.2420 H   0  0  0  0  0  0  0  0  0  0  0  0
    5.3074    1.7799    0.3587 H   0  0  0  0  0  0  0  0  0  0  0  0
    5.2209    2.6494   -1.9935 H   0  0  0  0  0  0  0  0  0  0  0  0
    5.2903    1.0058   -2.6262 H   0  0  0  0  0  0  0  0  0  0  0  0
   11.2763    1.4896   -1.6328 H   0  0  0  0  0  0  0  0  0  0  0  0
    9.8211    0.7636    0.9659 H   0  0  0  0  0  0  0  0  0  0  0  0
   10.8915    2.1624    0.7094 H   0  0  0  0  0  0  0  0  0  0  0  0
   12.0280   -0.0539    1.7688 H   0  0  0  0  0  0  0  0  0  0  0  0
   12.8411    0.6969    0.3863 H   0  0  0  0  0  0  0  0  0  0  0  0
   11.1981   -1.8612    0.4085 H   0  0  0  0  0  0  0  0  0  0  0  0
   12.5978   -1.4597   -0.5870 H   0  0  0  0  0  0  0  0  0  0  0  0
    9.7142   -1.0932   -1.2072 H   0  0  0  0  0  0  0  0  0  0  0  0
   11.0642   -0.8084   -2.3161 H   0  0  0  0  0  0  0  0  0  0  0  0
  1  2  1  0
  1 23  1  0
  1 24  1  0
  1 25  1  0
  2  3  1  0
  2  9  1  0
  3  4  1  0
  3 26  1  0
  3 27  1  0
  4  5  1  0
  4  8  1  0
  4 28  1  6
  5  6  1  0
  5 29  1  0
  5 30  1  0
  6  7  1  0
  6 31  1  0
  6 32  1  0
  7  8  1  0
  8 33  1  0
  8 34  1  0
  9 10  2  0
  9 11  1  0
 11 12  1  0
 11 35  1  0
 11 36  1  0
 12 13  1  0
 12 37  1  0
 12 38  1  0
 13 14  2  0
 13 22  1  0
 14 15  1  0
 15 16  1  0
 15 21  2  0
 16 17  1  0
 16 20  1  0
 16 39  1  6
 17 18  1  0
 17 40  1  0
 17 41  1  0
 18 19  1  0
 18 42  1  0
 18 43  1  0
 19 20  1  0
 19 44  1  0
 19 45  1  0
 20 46  1  0
 20 47  1  0
 21 22  1  0
M  END

