
     RDKit          3D

 44 45  0  0  0  0  0  0  0  0999 V2000
    9.2506    1.3853   -3.7210 C   0  0  0  0  0  0  0  0  0  0  0  0
    8.6155    1.0874   -2.4731 O   0  0  0  0  0  0  0  0  0  0  0  0
    8.3436    2.1320   -1.6780 C   0  0  0  0  0  0  0  0  0  0  0  0
    8.6169    3.2752   -1.9475 O   0  0  0  0  0  0  0  0  0  0  0  0
    7.6232    1.6857   -0.4136 C   0  0  0  0  0  0  0  0  0  0  0  0
    7.7689    2.7026    0.7077 C   0  0  0  0  0  0  0  0  0  0  0  0
    6.5039    2.4590    2.0781 S   0  0  0  0  0  0  0  0  0  0  0  0
    6.8657    3.4992    3.4061 C   0  0  0  0  0  0  0  0  0  0  0  0
    6.5854    4.9111    3.2429 C   0  0  0  0  0  0  0  0  0  0  0  0
    7.2789    5.8258    4.0039 C   0  0  0  0  0  0  0  0  0  0  0  0
    8.3062    5.4562    4.9119 C   0  0  0  0  0  0  0  0  0  0  0  0
    8.6137    4.0786    5.0488 C   0  0  0  0  0  0  0  0  0  0  0  0
    9.5860    3.6038    5.9587 N   0  0  0  0  0  0  0  0  0  0  0  0
   10.3462    4.3093    6.8728 C   0  0  0  0  0  0  0  0  0  0  0  0
   10.3164    5.5203    7.0321 O   0  0  0  0  0  0  0  0  0  0  0  0
   11.1946    3.5139    7.6301 N   0  0  0  0  0  0  0  0  0  0  0  0
   11.4505    2.0836    7.4697 C   0  0  0  0  0  0  0  0  0  0  0  0
   12.4909    1.7709    8.5550 C   0  0  0  0  0  0  0  0  0  0  0  0
   13.2179    3.1064    8.7526 C   0  0  2  0  0  0  0  0  0  0  0  0
   13.9773    3.2129   10.0682 C   0  0  0  0  0  0  0  0  0  0  0  0
   14.0863    2.3230   10.8654 O   0  0  0  0  0  0  0  0  0  0  0  0
   14.5490    4.4175   10.3023 O   0  0  0  0  0  0  0  0  0  0  0  0
   12.0880    4.1461    8.5902 C   0  0  0  0  0  0  0  0  0  0  0  0
    7.9479    3.1114    4.2994 C   0  0  0  0  0  0  0  0  0  0  0  0
    9.3933    0.4231   -4.2272 H   0  0  0  0  0  0  0  0  0  0  0  0
   10.2196    1.8792   -3.5552 H   0  0  0  0  0  0  0  0  0  0  0  0
    8.6194    2.0492   -4.3305 H   0  0  0  0  0  0  0  0  0  0  0  0
    7.9883    0.6885   -0.1258 H   0  0  0  0  0  0  0  0  0  0  0  0
    6.5605    1.5528   -0.6900 H   0  0  0  0  0  0  0  0  0  0  0  0
    7.6066    3.7347    0.3522 H   0  0  0  0  0  0  0  0  0  0  0  0
    8.7500    2.6829    1.2077 H   0  0  0  0  0  0  0  0  0  0  0  0
    5.7935    5.2442    2.5672 H   0  0  0  0  0  0  0  0  0  0  0  0
    7.0080    6.8831    3.9257 H   0  0  0  0  0  0  0  0  0  0  0  0
    8.8384    6.1933    5.5028 H   0  0  0  0  0  0  0  0  0  0  0  0
    9.6868    2.5977    5.9642 H   0  0  0  0  0  0  0  0  0  0  0  0
   11.8442    1.8596    6.4585 H   0  0  0  0  0  0  0  0  0  0  0  0
   10.5346    1.4809    7.6093 H   0  0  0  0  0  0  0  0  0  0  0  0
   13.1662    0.9502    8.2757 H   0  0  0  0  0  0  0  0  0  0  0  0
   12.0040    1.4856    9.4997 H   0  0  0  0  0  0  0  0  0  0  0  0
   13.9486    3.2552    7.9352 H   0  0  0  0  0  0  0  0  0  0  0  0
   14.3712    5.0314    9.5750 H   0  0  0  0  0  0  0  0  0  0  0  0
   12.4204    5.1233    8.2066 H   0  0  0  0  0  0  0  0  0  0  0  0
   11.5809    4.3349    9.5563 H   0  0  0  0  0  0  0  0  0  0  0  0
    8.1729    2.0529    4.4620 H   0  0  0  0  0  0  0  0  0  0  0  0
  1  2  1  0
  1 25  1  0
  1 26  1  0
  1 27  1  0
  2  3  1  0
  3  4  2  0
  3  5  1  0
  5  6  1  0
  5 28  1  0
  5 29  1  0
  6  7  1  0
  6 30  1  0
  6 31  1  0
  7  8  1  0
  8  9  2  0
  8 24  1  0
  9 10  1  0
  9 32  1  0
 10 11  2  0
 10 33  1  0
 11 12  1  0
 11 34  1  0
 12 13  1  0
 12 24  2  0
 13 14  1  0
 13 35  1  0
 14 15  2  0
 14 16  1  0
 16 17  1  0
 16 23  1  0
 17 18  1  0
 17 36  1  0
 17 37  1  0
 18 19  1  0
 18 38  1  0
 18 39  1  0
 19 20  1  0
 19 23  1  0
 19 40  1  6
 20 21  2  0
 20 22  1  0
 22 41  1  0
 23 42  1  0
 23 43  1  0
 24 44  1  0
M  END

