
     RDKit          3D

 25 27  0  0  0  0  0  0  0  0999 V2000
    2.0954    1.3750    0.1465 O   0  0  0  0  0  0  0  0  0  0  0  0
    2.2315    0.2061   -0.1898 C   0  0  0  0  0  0  0  0  0  0  0  0
    3.0647   -0.2839   -1.2947 C   0  0  0  0  0  0  0  0  0  0  0  0
    3.6786    0.5357   -2.1336 N   0  0  0  0  0  0  0  0  0  0  0  0
    4.2503    0.1428   -3.2684 C   0  0  0  0  0  0  0  0  0  0  0  0
    4.8938    1.0234   -4.1776 C   0  0  0  0  0  0  0  0  0  0  0  0
    5.4367    0.5360   -5.3583 C   0  0  0  0  0  0  0  0  0  0  0  0
    5.3744   -0.8336   -5.6786 C   0  0  0  0  0  0  0  0  0  0  0  0
    4.7701   -1.7298   -4.7969 C   0  0  0  0  0  0  0  0  0  0  0  0
    4.2074   -1.2789   -3.5930 C   0  0  0  0  0  0  0  0  0  0  0  0
    3.6662   -2.1366   -2.6812 N   0  0  0  0  0  0  0  0  0  0  0  0
    3.1248   -1.7285   -1.5674 C   0  0  0  0  0  0  0  0  0  0  0  0
    2.5677   -2.7352   -0.6478 C   0  0  0  0  0  0  0  0  0  0  0  0
    1.8477   -3.8579   -1.0080 C   0  0  0  0  0  0  0  0  0  0  0  0
    1.5471   -4.7064    0.0900 C   0  0  0  0  0  0  0  0  0  0  0  0
    2.0520   -4.2318    1.2810 C   0  0  0  0  0  0  0  0  0  0  0  0
    2.8957   -2.7466    1.0763 S   0  0  0  0  0  0  0  0  0  0  0  0
    1.6869   -0.5956    0.3591 H   0  0  0  0  0  0  0  0  0  0  0  0
    4.9293    2.0838   -3.9231 H   0  0  0  0  0  0  0  0  0  0  0  0
    5.9186    1.2299   -6.0519 H   0  0  0  0  0  0  0  0  0  0  0  0
    5.8048   -1.1962   -6.6143 H   0  0  0  0  0  0  0  0  0  0  0  0
    4.7213   -2.7988   -5.0132 H   0  0  0  0  0  0  0  0  0  0  0  0
    1.5631   -4.0556   -2.0416 H   0  0  0  0  0  0  0  0  0  0  0  0
    0.9868   -5.6388    0.0064 H   0  0  0  0  0  0  0  0  0  0  0  0
    1.9735   -4.6816    2.2702 H   0  0  0  0  0  0  0  0  0  0  0  0
  1  2  2  0
  2  3  1  0
  2 18  1  0
  3  4  2  0
  3 12  1  0
  4  5  1  0
  5  6  2  0
  5 10  1  0
  6  7  1  0
  6 19  1  0
  7  8  2  0
  7 20  1  0
  8  9  1  0
  8 21  1  0
  9 10  2  0
  9 22  1  0
 10 11  1  0
 11 12  2  0
 12 13  1  0
 13 14  2  0
 13 17  1  0
 14 15  1  0
 14 23  1  0
 15 16  2  0
 15 24  1  0
 16 17  1  0
 16 25  1  0
M  END

