
     RDKit          3D

 51 53  0  0  0  0  0  0  0  0999 V2000
    0.5241   -3.5586    0.0535 C   0  0  0  0  0  0  0  0  0  0  0  0
    0.5871   -2.5165    1.0367 O   0  0  0  0  0  0  0  0  0  0  0  0
    1.4218   -2.6003    2.0627 C   0  0  0  0  0  0  0  0  0  0  0  0
    2.2890   -3.6806    2.3017 C   0  0  0  0  0  0  0  0  0  0  0  0
    3.1320   -3.6736    3.3954 C   0  0  0  0  0  0  0  0  0  0  0  0
    3.1531   -2.5732    4.3280 C   0  0  0  0  0  0  0  0  0  0  0  0
    4.1060   -2.6355    5.4915 C   0  0  0  0  0  0  0  0  0  0  0  0
    5.6098   -2.6791    5.0677 C   0  0  0  0  0  0  0  0  0  0  0  0
    6.3687   -3.7318    5.6923 N   0  0  0  0  0  0  0  0  0  0  0  0
    7.4869   -3.5366    6.6252 C   0  0  0  0  0  0  0  0  0  0  0  0
    8.3377   -4.8218    6.4389 C   0  0  2  0  0  0  0  0  0  0  0  0
    9.5008   -4.5638    5.4593 C   0  0  0  0  0  0  0  0  0  0  0  0
   10.3017   -3.6384    5.7882 O   0  0  0  0  0  0  0  0  0  0  0  0
    9.1025   -4.7281    4.0529 N   0  0  0  0  0  0  0  0  0  0  0  0
    9.6207   -4.1086    2.9411 C   0  0  0  0  0  0  0  0  0  0  0  0
   10.3768   -2.9025    2.9895 C   0  0  0  0  0  0  0  0  0  0  0  0
   10.8372   -2.3160    1.8173 C   0  0  0  0  0  0  0  0  0  0  0  0
   10.5863   -2.8621    0.5453 C   0  0  0  0  0  0  0  0  0  0  0  0
    9.8547   -4.0517    0.5125 C   0  0  0  0  0  0  0  0  0  0  0  0
    9.4807   -4.8639   -1.1988 Br  0  0  0  0  0  0  0  0  0  0  0  0
    9.3840   -4.6809    1.6564 C   0  0  0  0  0  0  0  0  0  0  0  0
    7.2774   -5.8526    6.0123 C   0  0  0  0  0  0  0  0  0  0  0  0
    6.2283   -5.0264    5.2916 C   0  0  0  0  0  0  0  0  0  0  0  0
    5.3710   -5.4164    4.4982 O   0  0  0  0  0  0  0  0  0  0  0  0
    2.3035   -1.5109    4.1099 C   0  0  0  0  0  0  0  0  0  0  0  0
    1.4261   -1.4807    2.9966 C   0  0  0  0  0  0  0  0  0  0  0  0
    0.6724   -0.4059    2.9054 O   0  0  0  0  0  0  0  0  0  0  0  0
   -0.2804   -0.0910    1.8786 C   0  0  0  0  0  0  0  0  0  0  0  0
   -0.2266   -3.2348   -0.6752 H   0  0  0  0  0  0  0  0  0  0  0  0
    0.2124   -4.5052    0.5182 H   0  0  0  0  0  0  0  0  0  0  0  0
    1.4993   -3.6791   -0.4396 H   0  0  0  0  0  0  0  0  0  0  0  0
    2.3064   -4.5284    1.6195 H   0  0  0  0  0  0  0  0  0  0  0  0
    3.8277   -4.5010    3.5835 H   0  0  0  0  0  0  0  0  0  0  0  0
    3.8846   -3.5591    6.0480 H   0  0  0  0  0  0  0  0  0  0  0  0
    3.9125   -1.7966    6.1758 H   0  0  0  0  0  0  0  0  0  0  0  0
    6.0862   -1.7203    5.3118 H   0  0  0  0  0  0  0  0  0  0  0  0
    5.6857   -2.7929    3.9727 H   0  0  0  0  0  0  0  0  0  0  0  0
    7.1052   -3.4068    7.6566 H   0  0  0  0  0  0  0  0  0  0  0  0
    8.0922   -2.6552    6.3641 H   0  0  0  0  0  0  0  0  0  0  0  0
    8.8020   -5.0859    7.4009 H   0  0  0  0  0  0  0  0  0  0  0  0
    8.7036   -5.6346    3.8428 H   0  0  0  0  0  0  0  0  0  0  0  0
   10.6053   -2.4914    3.9708 H   0  0  0  0  0  0  0  0  0  0  0  0
   11.4243   -1.3946    1.8873 H   0  0  0  0  0  0  0  0  0  0  0  0
   10.9513   -2.3930   -0.3677 H   0  0  0  0  0  0  0  0  0  0  0  0
    8.8251   -5.6160    1.5740 H   0  0  0  0  0  0  0  0  0  0  0  0
    6.7936   -6.3339    6.8822 H   0  0  0  0  0  0  0  0  0  0  0  0
    7.6464   -6.6675    5.3725 H   0  0  0  0  0  0  0  0  0  0  0  0
    2.2751   -0.6504    4.7791 H   0  0  0  0  0  0  0  0  0  0  0  0
   -0.6776    0.8905    2.1582 H   0  0  0  0  0  0  0  0  0  0  0  0
   -1.0835   -0.8385    1.8558 H   0  0  0  0  0  0  0  0  0  0  0  0
    0.2113   -0.0420    0.8990 H   0  0  0  0  0  0  0  0  0  0  0  0
  1  2  1  0
  1 29  1  0
  1 30  1  0
  1 31  1  0
  2  3  1  0
  3  4  2  0
  3 26  1  0
  4  5  1  0
  4 32  1  0
  5  6  2  0
  5 33  1  0
  6  7  1  0
  6 25  1  0
  7  8  1  0
  7 34  1  0
  7 35  1  0
  8  9  1  0
  8 36  1  0
  8 37  1  0
  9 10  1  0
  9 23  1  0
 10 11  1  0
 10 38  1  0
 10 39  1  0
 11 12  1  0
 11 22  1  0
 11 40  1  1
 12 13  2  0
 12 14  1  0
 14 15  1  0
 14 41  1  0
 15 16  2  0
 15 21  1  0
 16 17  1  0
 16 42  1  0
 17 18  2  0
 17 43  1  0
 18 19  1  0
 18 44  1  0
 19 20  1  0
 19 21  2  0
 21 45  1  0
 22 23  1  0
 22 46  1  0
 22 47  1  0
 23 24  2  0
 25 26  2  0
 25 48  1  0
 26 27  1  0
 27 28  1  0
 28 49  1  0
 28 50  1  0
 28 51  1  0
M  END

