
     RDKit          3D

 62 66  0  0  0  0  0  0  0  0999 V2000
    2.3465    0.9058    3.4098 C   0  0  0  0  0  0  0  0  0  0  0  0
    3.5192    0.6482    2.4944 C   0  0  0  0  0  0  0  0  0  0  0  0
    3.9169    1.5885    1.5283 C   0  0  0  0  0  0  0  0  0  0  0  0
    4.9893    1.3456    0.6736 C   0  0  0  0  0  0  0  0  0  0  0  0
    5.7101    0.1386    0.7578 C   0  0  0  0  0  0  0  0  0  0  0  0
    6.8292   -0.1026   -0.1385 C   0  0  0  0  0  0  0  0  0  0  0  0
    7.3010    0.6745   -1.0736 N   0  0  0  0  0  0  0  0  0  0  0  0
    8.3548    0.0361   -1.6545 N   0  0  0  0  0  0  0  0  0  0  0  0
    8.4894   -1.1317   -1.0395 C   0  0  0  0  0  0  0  0  0  0  0  0
    9.4414   -2.1630   -1.2734 C   0  0  0  0  0  0  0  0  0  0  0  0
   10.4347   -2.0102   -2.2968 C   0  0  0  0  0  0  0  0  0  0  0  0
   11.3604   -2.9945   -2.5388 C   0  0  0  0  0  0  0  0  0  0  0  0
   11.3758   -4.2185   -1.7907 C   0  0  0  0  0  0  0  0  0  0  0  0
   12.3590   -5.2164   -2.1102 C   0  0  0  0  0  0  0  0  0  0  0  0
   13.2670   -5.0854   -2.9648 O   0  0  0  0  0  0  0  0  0  0  0  0
   12.3387   -6.4398   -1.4005 N   0  0  0  0  0  0  0  0  0  0  0  0
   13.1096   -7.5295   -1.9363 C   0  0  0  0  0  0  0  0  0  0  0  0
   14.6265   -7.3131   -1.6520 C   0  0  1  0  0  0  0  0  0  0  0  0
   15.1101   -7.9314   -0.3553 C   0  0  0  0  0  0  0  0  0  0  0  0
   15.0830   -9.3219   -0.1498 C   0  0  0  0  0  0  0  0  0  0  0  0
   15.5051   -9.8695    1.0631 C   0  0  0  0  0  0  0  0  0  0  0  0
   15.9452   -9.0321    2.0942 C   0  0  0  0  0  0  0  0  0  0  0  0
   15.9596   -7.6486    1.9063 C   0  0  0  0  0  0  0  0  0  0  0  0
   15.5461   -7.1019    0.6870 C   0  0  0  0  0  0  0  0  0  0  0  0
   15.4815   -7.6409   -2.8057 N   0  0  0  0  0  0  0  0  0  0  0  0
   15.1633   -7.1823   -4.1549 C   0  0  0  0  0  0  0  0  0  0  0  0
   16.5283   -6.9866   -4.8208 C   0  0  0  0  0  0  0  0  0  0  0  0
   17.4107   -8.0337   -4.1233 C   0  0  0  0  0  0  0  0  0  0  0  0
   16.8784   -8.0302   -2.6869 C   0  0  0  0  0  0  0  0  0  0  0  0
   10.3895   -4.3570   -0.7581 C   0  0  0  0  0  0  0  0  0  0  0  0
    9.4596   -3.3719   -0.5112 C   0  0  0  0  0  0  0  0  0  0  0  0
    7.5339   -1.2717   -0.0569 O   0  0  0  0  0  0  0  0  0  0  0  0
    5.3202   -0.8092    1.7239 C   0  0  0  0  0  0  0  0  0  0  0  0
    4.2447   -0.5521    2.5727 C   0  0  0  0  0  0  0  0  0  0  0  0
    1.9921    1.9445    3.3295 H   0  0  0  0  0  0  0  0  0  0  0  0
    2.6073    0.7193    4.4650 H   0  0  0  0  0  0  0  0  0  0  0  0
    1.4942    0.2460    3.1698 H   0  0  0  0  0  0  0  0  0  0  0  0
    3.3723    2.5340    1.4457 H   0  0  0  0  0  0  0  0  0  0  0  0
    5.2908    2.0831   -0.0725 H   0  0  0  0  0  0  0  0  0  0  0  0
   10.4346   -1.0877   -2.8802 H   0  0  0  0  0  0  0  0  0  0  0  0
   12.1096   -2.8668   -3.3217 H   0  0  0  0  0  0  0  0  0  0  0  0
   11.4739   -6.6904   -0.9400 H   0  0  0  0  0  0  0  0  0  0  0  0
   12.9447   -7.6559   -3.0197 H   0  0  0  0  0  0  0  0  0  0  0  0
   12.7911   -8.4628   -1.4507 H   0  0  0  0  0  0  0  0  0  0  0  0
   14.7413   -6.2172   -1.6038 H   0  0  0  0  0  0  0  0  0  0  0  0
   14.7217   -9.9893   -0.9385 H   0  0  0  0  0  0  0  0  0  0  0  0
   15.4808  -10.9521    1.2085 H   0  0  0  0  0  0  0  0  0  0  0  0
   16.2677   -9.4598    3.0464 H   0  0  0  0  0  0  0  0  0  0  0  0
   16.2888   -6.9880    2.7115 H   0  0  0  0  0  0  0  0  0  0  0  0
   15.5493   -6.0174    0.5504 H   0  0  0  0  0  0  0  0  0  0  0  0
   14.4996   -6.3059   -4.0721 H   0  0  0  0  0  0  0  0  0  0  0  0
   14.5897   -7.9924   -4.6446 H   0  0  0  0  0  0  0  0  0  0  0  0
   16.8952   -5.9684   -4.6159 H   0  0  0  0  0  0  0  0  0  0  0  0
   16.4787   -7.1108   -5.9099 H   0  0  0  0  0  0  0  0  0  0  0  0
   18.4834   -7.8036   -4.1633 H   0  0  0  0  0  0  0  0  0  0  0  0
   17.2663   -9.0281   -4.5753 H   0  0  0  0  0  0  0  0  0  0  0  0
   17.3744   -7.2756   -2.0486 H   0  0  0  0  0  0  0  0  0  0  0  0
   16.9582   -8.9818   -2.1427 H   0  0  0  0  0  0  0  0  0  0  0  0
   10.3691   -5.2453   -0.1194 H   0  0  0  0  0  0  0  0  0  0  0  0
    8.7258   -3.5065    0.2861 H   0  0  0  0  0  0  0  0  0  0  0  0
    5.8709   -1.7483    1.8038 H   0  0  0  0  0  0  0  0  0  0  0  0
    3.9612   -1.3030    3.3170 H   0  0  0  0  0  0  0  0  0  0  0  0
  1  2  1  0
  1 35  1  0
  1 36  1  0
  1 37  1  0
  2  3  2  0
  2 34  1  0
  3  4  1  0
  3 38  1  0
  4  5  2  0
  4 39  1  0
  5  6  1  0
  5 33  1  0
  6  7  2  0
  6 32  1  0
  7  8  1  0
  8  9  2  0
  9 10  1  0
  9 32  1  0
 10 11  2  0
 10 31  1  0
 11 12  1  0
 11 40  1  0
 12 13  2  0
 12 41  1  0
 13 14  1  0
 13 30  1  0
 14 15  2  0
 14 16  1  0
 16 17  1  0
 16 42  1  0
 17 18  1  0
 17 43  1  0
 17 44  1  0
 18 19  1  0
 18 25  1  0
 18 45  1  1
 19 20  2  0
 19 24  1  0
 20 21  1  0
 20 46  1  0
 21 22  2  0
 21 47  1  0
 22 23  1  0
 22 48  1  0
 23 24  2  0
 23 49  1  0
 24 50  1  0
 25 26  1  0
 25 29  1  0
 26 27  1  0
 26 51  1  0
 26 52  1  0
 27 28  1  0
 27 53  1  0
 27 54  1  0
 28 29  1  0
 28 55  1  0
 28 56  1  0
 29 57  1  0
 29 58  1  0
 30 31  2  0
 30 59  1  0
 31 60  1  0
 33 34  2  0
 33 61  1  0
 34 62  1  0
M  END

