
     RDKit          3D

 63 66  0  0  0  0  0  0  0  0999 V2000
    8.5545   -3.1689   -2.2727 C   0  0  0  0  0  0  0  0  0  0  0  0
    7.3405   -2.4444   -1.6908 C   0  0  0  0  0  0  0  0  0  0  0  0
    6.5367   -3.3387   -0.7401 C   0  0  0  0  0  0  0  0  0  0  0  0
    5.3973   -2.6613   -0.1285 N   0  0  0  0  0  0  0  0  0  0  0  0
    4.1314   -2.7402   -0.4934 C   0  0  0  0  0  0  0  0  0  0  0  0
    3.5555   -3.6963   -1.8534 S   0  0  0  0  0  0  0  0  0  0  0  0
    3.3344   -2.0093    0.2568 N   0  0  0  0  0  0  0  0  0  0  0  0
    4.1106   -1.1567    1.1850 C   0  0  1  0  0  0  0  0  0  0  0  0
    4.2524   -0.1825    0.6855 H   0  0  0  0  0  0  0  0  0  0  0  0
    3.4682   -0.8743    2.5213 C   0  0  0  0  0  0  0  0  0  0  0  0
    2.3602   -1.5360    2.9964 C   0  0  0  0  0  0  0  0  0  0  0  0
    1.7955   -1.1621    4.2618 C   0  0  0  0  0  0  0  0  0  0  0  0
    2.4738   -0.1047    4.9440 C   0  0  0  0  0  0  0  0  0  0  0  0
    3.5902    0.4827    4.3871 C   0  0  0  0  0  0  0  0  0  0  0  0
    4.1345    0.1452    3.1660 N   0  0  0  0  0  0  0  0  0  0  0  0
    5.5049   -1.8865    1.1610 C   0  0  1  0  0  0  0  0  0  0  0  0
    6.2853   -1.1255    1.0381 H   0  0  0  0  0  0  0  0  0  0  0  0
    5.8588   -2.7938    2.2969 C   0  0  0  0  0  0  0  0  0  0  0  0
    5.4253   -4.1380    2.5254 C   0  0  0  0  0  0  0  0  0  0  0  0
    5.9377   -4.5468    3.7394 C   0  0  0  0  0  0  0  0  0  0  0  0
    5.7897   -5.8484    4.4595 C   0  0  0  0  0  0  0  0  0  0  0  0
    6.6677   -3.4843    4.2599 N   0  0  0  0  0  0  0  0  0  0  0  0
    7.3049   -3.4925    5.5462 C   0  0  0  0  0  0  0  0  0  0  0  0
    6.5676   -3.0949    6.6783 C   0  0  0  0  0  0  0  0  0  0  0  0
    5.1382   -2.6309    6.5584 C   0  0  0  0  0  0  0  0  0  0  0  0
    7.2129   -3.1248    7.9245 C   0  0  0  0  0  0  0  0  0  0  0  0
    8.5448   -3.5305    8.0649 C   0  0  0  0  0  0  0  0  0  0  0  0
    9.2146   -3.5683    9.4175 C   0  0  0  0  0  0  0  0  0  0  0  0
    9.2477   -3.9122    6.9124 C   0  0  0  0  0  0  0  0  0  0  0  0
    8.6505   -3.9004    5.6472 C   0  0  0  0  0  0  0  0  0  0  0  0
    9.4310   -4.3007    4.4188 C   0  0  0  0  0  0  0  0  0  0  0  0
    6.6289   -2.4112    3.3873 C   0  0  0  0  0  0  0  0  0  0  0  0
    7.2694   -1.0887    3.6739 C   0  0  0  0  0  0  0  0  0  0  0  0
    9.1177   -2.5106   -2.9509 H   0  0  0  0  0  0  0  0  0  0  0  0
    8.2566   -4.0612   -2.8481 H   0  0  0  0  0  0  0  0  0  0  0  0
    9.2447   -3.4997   -1.4797 H   0  0  0  0  0  0  0  0  0  0  0  0
    6.6830   -2.0912   -2.5034 H   0  0  0  0  0  0  0  0  0  0  0  0
    7.6663   -1.5446   -1.1429 H   0  0  0  0  0  0  0  0  0  0  0  0
    7.1678   -3.6917    0.0893 H   0  0  0  0  0  0  0  0  0  0  0  0
    6.1879   -4.2437   -1.2621 H   0  0  0  0  0  0  0  0  0  0  0  0
    2.3252   -1.9709    0.1843 H   0  0  0  0  0  0  0  0  0  0  0  0
    1.9097   -2.3565    2.4309 H   0  0  0  0  0  0  0  0  0  0  0  0
    0.9158   -1.6559    4.6698 H   0  0  0  0  0  0  0  0  0  0  0  0
    2.1140    0.2515    5.9144 H   0  0  0  0  0  0  0  0  0  0  0  0
    4.1016    1.2916    4.9231 H   0  0  0  0  0  0  0  0  0  0  0  0
    4.7964   -4.7514    1.8820 H   0  0  0  0  0  0  0  0  0  0  0  0
    5.1798   -6.5367    3.8571 H   0  0  0  0  0  0  0  0  0  0  0  0
    5.2935   -5.7292    5.4374 H   0  0  0  0  0  0  0  0  0  0  0  0
    6.7600   -6.3370    4.6539 H   0  0  0  0  0  0  0  0  0  0  0  0
    4.5076   -3.3619    6.0294 H   0  0  0  0  0  0  0  0  0  0  0  0
    5.0531   -1.6951    5.9821 H   0  0  0  0  0  0  0  0  0  0  0  0
    4.6983   -2.4542    7.5500 H   0  0  0  0  0  0  0  0  0  0  0  0
    6.6509   -2.8171    8.8109 H   0  0  0  0  0  0  0  0  0  0  0  0
    8.5761   -3.1298   10.1983 H   0  0  0  0  0  0  0  0  0  0  0  0
   10.1684   -3.0156    9.4090 H   0  0  0  0  0  0  0  0  0  0  0  0
    9.4472   -4.6043    9.7181 H   0  0  0  0  0  0  0  0  0  0  0  0
   10.2919   -4.2275    7.0005 H   0  0  0  0  0  0  0  0  0  0  0  0
   10.4396   -4.6465    4.6873 H   0  0  0  0  0  0  0  0  0  0  0  0
    9.5369   -3.4555    3.7186 H   0  0  0  0  0  0  0  0  0  0  0  0
    8.9281   -5.1068    3.8611 H   0  0  0  0  0  0  0  0  0  0  0  0
    7.6002   -1.0241    4.7199 H   0  0  0  0  0  0  0  0  0  0  0  0
    6.5343   -0.2867    3.4929 H   0  0  0  0  0  0  0  0  0  0  0  0
    8.1568   -0.9115    3.0393 H   0  0  0  0  0  0  0  0  0  0  0  0
  1  2  1  0
  1 34  1  0
  1 35  1  0
  1 36  1  0
  2  3  1  0
  2 37  1  0
  2 38  1  0
  3  4  1  0
  3 39  1  0
  3 40  1  0
  4  5  1  0
  4 16  1  0
  5  6  2  0
  5  7  1  0
  7  8  1  0
  7 41  1  0
  8  9  1  6
  8 10  1  0
  8 16  1  0
 10 11  2  0
 10 15  1  0
 11 12  1  0
 11 42  1  0
 12 13  2  0
 12 43  1  0
 13 14  1  0
 13 44  1  0
 14 15  2  0
 14 45  1  0
 16 17  1  6
 16 18  1  0
 18 19  1  0
 18 32  2  0
 19 20  2  0
 19 46  1  0
 20 21  1  0
 20 22  1  0
 21 47  1  0
 21 48  1  0
 21 49  1  0
 22 23  1  0
 22 32  1  0
 23 24  2  0
 23 30  1  0
 24 25  1  0
 24 26  1  0
 25 50  1  0
 25 51  1  0
 25 52  1  0
 26 27  2  0
 26 53  1  0
 27 28  1  0
 27 29  1  0
 28 54  1  0
 28 55  1  0
 28 56  1  0
 29 30  2  0
 29 57  1  0
 30 31  1  0
 31 58  1  0
 31 59  1  0
 31 60  1  0
 32 33  1  0
 33 61  1  0
 33 62  1  0
 33 63  1  0
M  END

