
     RDKit          3D

 35 36  0  0  0  0  0  0  0  0999 V2000
    2.7532   -0.8164   -2.6437 O   0  0  0  0  0  0  0  0  0  0  0  0
    3.1090   -0.4053   -1.5555 C   0  0  0  0  0  0  0  0  0  0  0  0
    2.8128    0.8410   -1.0663 N   0  0  0  0  0  0  0  0  0  0  0  0
    2.1238    1.8330   -1.8867 C   0  0  0  0  0  0  0  0  0  0  0  0
    3.0599    2.7877   -2.6048 C   0  0  0  0  0  0  0  0  0  0  0  0
    3.2337    4.1018   -2.1528 C   0  0  0  0  0  0  0  0  0  0  0  0
    4.1150    4.9693   -2.8064 C   0  0  0  0  0  0  0  0  0  0  0  0
    4.8165    4.5033   -3.9113 C   0  0  0  0  0  0  0  0  0  0  0  0
    5.6635    5.3336   -4.5471 F   0  0  0  0  0  0  0  0  0  0  0  0
    4.6741    3.1973   -4.3978 C   0  0  0  0  0  0  0  0  0  0  0  0
    5.4450    2.7432   -5.6246 C   0  0  0  0  0  0  0  0  0  0  0  0
    5.4122    1.3530   -5.8339 O   0  0  0  0  0  0  0  0  0  0  0  0
    3.7832    2.3532   -3.7297 C   0  0  0  0  0  0  0  0  0  0  0  0
    3.8720   -1.1677   -0.6530 N   0  0  0  0  0  0  0  0  0  0  0  0
    4.3860   -2.4472   -0.7875 C   0  0  0  0  0  0  0  0  0  0  0  0
    4.3160   -3.2121   -1.9768 C   0  0  0  0  0  0  0  0  0  0  0  0
    4.8017   -4.5386   -1.9711 C   0  0  0  0  0  0  0  0  0  0  0  0
    5.2575   -5.0834   -0.7661 C   0  0  0  0  0  0  0  0  0  0  0  0
    5.2310   -4.3227    0.4352 C   0  0  0  0  0  0  0  0  0  0  0  0
    5.5118   -4.9713    1.5863 F   0  0  0  0  0  0  0  0  0  0  0  0
    4.9190   -2.9664    0.4465 C   0  0  0  0  0  0  0  0  0  0  0  0
    5.7572   -2.0117    1.1600 F   0  0  0  0  0  0  0  0  0  0  0  0
    3.2772    1.1698   -0.2269 H   0  0  0  0  0  0  0  0  0  0  0  0
    1.4346    2.3954   -1.2376 H   0  0  0  0  0  0  0  0  0  0  0  0
    1.5215    1.2683   -2.6113 H   0  0  0  0  0  0  0  0  0  0  0  0
    2.6729    4.4622   -1.2856 H   0  0  0  0  0  0  0  0  0  0  0  0
    4.2637    5.9985   -2.4740 H   0  0  0  0  0  0  0  0  0  0  0  0
    6.4786    3.1370   -5.5709 H   0  0  0  0  0  0  0  0  0  0  0  0
    4.9952    3.2011   -6.5226 H   0  0  0  0  0  0  0  0  0  0  0  0
    5.9028    0.9242   -5.1196 H   0  0  0  0  0  0  0  0  0  0  0  0
    3.6534    1.3349   -4.1035 H   0  0  0  0  0  0  0  0  0  0  0  0
    4.1158   -0.7583    0.2480 H   0  0  0  0  0  0  0  0  0  0  0  0
    3.8080   -2.7962   -2.8455 H   0  0  0  0  0  0  0  0  0  0  0  0
    4.8250   -5.1226   -2.8915 H   0  0  0  0  0  0  0  0  0  0  0  0
    5.6615   -6.1006   -0.7238 H   0  0  0  0  0  0  0  0  0  0  0  0
  1  2  2  0
  2  3  1  0
  2 14  1  0
  3  4  1  0
  3 23  1  0
  4  5  1  0
  4 24  1  0
  4 25  1  0
  5  6  2  0
  5 13  1  0
  6  7  1  0
  6 26  1  0
  7  8  2  0
  7 27  1  0
  8  9  1  0
  8 10  1  0
 10 11  1  0
 10 13  2  0
 11 12  1  0
 11 28  1  0
 11 29  1  0
 12 30  1  0
 13 31  1  0
 14 15  1  0
 14 32  1  0
 15 16  2  0
 15 21  1  0
 16 17  1  0
 16 33  1  0
 17 18  2  0
 17 34  1  0
 18 19  1  0
 18 35  1  0
 19 20  1  0
 19 21  2  0
 21 22  1  0
M  END

