
     RDKit          3D

 83 87  0  0  0  0  0  0  0  0999 V2000
    8.8275    4.6674    6.1070 C   0  0  0  0  0  0  0  0  0  0  0  0
    9.5250    4.4347    4.7732 C   0  0  0  0  0  0  0  0  0  0  0  0
    9.7344    3.0230    4.3848 N   0  0  0  0  0  0  0  0  0  0  0  0
    9.6329    1.9716    5.4052 C   0  0  0  0  0  0  0  0  0  0  0  0
   10.9551    1.6885    6.1227 C   0  0  0  0  0  0  0  0  0  0  0  0
   10.1831    2.7364    3.1282 C   0  0  0  0  0  0  0  0  0  0  0  0
   10.4173    3.7641    2.1613 C   0  0  0  0  0  0  0  0  0  0  0  0
   10.8644    3.4768    0.8919 C   0  0  0  0  0  0  0  0  0  0  0  0
   11.1447    2.1377    0.4754 C   0  0  0  0  0  0  0  0  0  0  0  0
   11.6075    1.8924   -0.7975 N   0  0  0  0  0  0  0  0  0  0  0  0
   11.6701    3.0160   -1.7407 C   0  0  0  0  0  0  0  0  0  0  0  0
   10.3159    3.6549   -2.1382 C   0  0  0  0  0  0  0  0  0  0  0  0
    9.3064    2.8021   -2.3612 N   0  0  0  0  0  0  0  0  0  0  0  0
   10.2628    4.8746   -2.2339 O   0  0  0  0  0  0  0  0  0  0  0  0
   12.0409    0.5818   -1.2227 C   0  0  0  0  0  0  0  0  0  0  0  0
   12.3547   -0.2526   -0.4179 O   0  0  0  0  0  0  0  0  0  0  0  0
   12.1946    0.3557   -2.7298 C   0  0  0  0  0  0  0  0  0  0  0  0
   12.2920   -1.0434   -3.0304 N   0  0  0  0  0  0  0  0  0  0  0  0
   13.5636   -1.5946   -3.1674 C   0  0  0  0  0  0  0  0  0  0  0  0
   14.6260   -0.9873   -3.1510 O   0  0  0  0  0  0  0  0  0  0  0  0
   13.3811   -2.9520   -3.3433 N   0  0  0  0  0  0  0  0  0  0  0  0
   14.4917   -3.8718   -3.5102 C   0  0  0  0  0  0  0  0  0  0  0  0
   14.7985   -4.2378   -4.9537 C   0  0  0  0  0  0  0  0  0  0  0  0
   15.2336   -3.2499   -5.8463 C   0  0  0  0  0  0  0  0  0  0  0  0
   15.5195   -3.5932   -7.1721 C   0  0  0  0  0  0  0  0  0  0  0  0
   15.3825   -4.9067   -7.6155 C   0  0  0  0  0  0  0  0  0  0  0  0
   14.9518   -5.9028   -6.7246 C   0  0  0  0  0  0  0  0  0  0  0  0
   14.8451   -7.1586   -7.2351 O   0  0  0  0  0  0  0  0  0  0  0  0
   14.4020   -8.2064   -6.4057 C   0  0  0  0  0  0  0  0  0  0  0  0
   14.6605   -5.5631   -5.3938 C   0  0  0  0  0  0  0  0  0  0  0  0
   12.0194   -3.2574   -3.3150 C   0  0  0  0  0  0  0  0  0  0  0  0
   11.3949   -4.4963   -3.4576 C   0  0  0  0  0  0  0  0  0  0  0  0
    9.9987   -4.5092   -3.3668 C   0  0  0  0  0  0  0  0  0  0  0  0
    9.2810   -3.3315   -3.1649 C   0  0  0  0  0  0  0  0  0  0  0  0
    9.8867   -2.0516   -3.0472 C   0  0  0  0  0  0  0  0  0  0  0  0
    9.0681   -0.8440   -2.8026 C   0  0  0  0  0  0  0  0  0  0  0  0
    9.5787    0.1194   -2.1072 O   0  0  0  0  0  0  0  0  0  0  0  0
    7.7064   -0.7194   -3.3070 C   0  0  0  0  0  0  0  0  0  0  0  0
    7.1960   -1.4122   -4.4433 C   0  0  0  0  0  0  0  0  0  0  0  0
    5.9058   -1.1875   -4.9113 C   0  0  0  0  0  0  0  0  0  0  0  0
    5.0541   -0.2696   -4.2758 C   0  0  0  0  0  0  0  0  0  0  0  0
    5.5368    0.4305   -3.1597 C   0  0  0  0  0  0  0  0  0  0  0  0
    6.8281    0.2201   -2.6900 C   0  0  0  0  0  0  0  0  0  0  0  0
   11.3056   -2.0572   -3.1037 C   0  0  0  0  0  0  0  0  0  0  0  0
   10.8861    1.1041    1.4321 C   0  0  0  0  0  0  0  0  0  0  0  0
   10.4336    1.3943    2.6951 C   0  0  0  0  0  0  0  0  0  0  0  0
    8.7101    5.7531    6.2406 H   0  0  0  0  0  0  0  0  0  0  0  0
    9.4038    4.2945    6.9660 H   0  0  0  0  0  0  0  0  0  0  0  0
    7.8209    4.2237    6.1342 H   0  0  0  0  0  0  0  0  0  0  0  0
   10.5047    4.9450    4.7751 H   0  0  0  0  0  0  0  0  0  0  0  0
    8.9258    4.9098    3.9828 H   0  0  0  0  0  0  0  0  0  0  0  0
    9.2447    1.0608    4.9325 H   0  0  0  0  0  0  0  0  0  0  0  0
    8.8677    2.2758    6.1272 H   0  0  0  0  0  0  0  0  0  0  0  0
   11.7314    1.3523    5.4188 H   0  0  0  0  0  0  0  0  0  0  0  0
   10.8089    0.8976    6.8739 H   0  0  0  0  0  0  0  0  0  0  0  0
   11.3314    2.5834    6.6421 H   0  0  0  0  0  0  0  0  0  0  0  0
   10.2468    4.8090    2.4081 H   0  0  0  0  0  0  0  0  0  0  0  0
   10.9884    4.3101    0.2040 H   0  0  0  0  0  0  0  0  0  0  0  0
   12.1740    2.6847   -2.6530 H   0  0  0  0  0  0  0  0  0  0  0  0
   12.2903    3.8230   -1.3290 H   0  0  0  0  0  0  0  0  0  0  0  0
    9.3611    1.7535   -2.2814 H   0  0  0  0  0  0  0  0  0  0  0  0
    8.4297    3.2143   -2.6649 H   0  0  0  0  0  0  0  0  0  0  0  0
   13.1629    0.7921   -3.0340 H   0  0  0  0  0  0  0  0  0  0  0  0
   11.3812    0.8267   -3.2859 H   0  0  0  0  0  0  0  0  0  0  0  0
   14.2875   -4.7787   -2.9198 H   0  0  0  0  0  0  0  0  0  0  0  0
   15.3644   -3.3690   -3.0667 H   0  0  0  0  0  0  0  0  0  0  0  0
   15.3516   -2.2218   -5.4959 H   0  0  0  0  0  0  0  0  0  0  0  0
   15.8595   -2.8242   -7.8708 H   0  0  0  0  0  0  0  0  0  0  0  0
   15.6021   -5.1911   -8.6466 H   0  0  0  0  0  0  0  0  0  0  0  0
   14.3868   -9.1130   -7.0261 H   0  0  0  0  0  0  0  0  0  0  0  0
   13.3834   -8.0239   -6.0171 H   0  0  0  0  0  0  0  0  0  0  0  0
   15.0817   -8.3728   -5.5497 H   0  0  0  0  0  0  0  0  0  0  0  0
   14.3237   -6.3232   -4.6874 H   0  0  0  0  0  0  0  0  0  0  0  0
   11.9678   -5.4064   -3.6342 H   0  0  0  0  0  0  0  0  0  0  0  0
    9.4602   -5.4569   -3.4483 H   0  0  0  0  0  0  0  0  0  0  0  0
    8.1971   -3.3912   -3.0670 H   0  0  0  0  0  0  0  0  0  0  0  0
    7.8414   -2.1061   -4.9837 H   0  0  0  0  0  0  0  0  0  0  0  0
    5.5584   -1.7278   -5.7969 H   0  0  0  0  0  0  0  0  0  0  0  0
    4.0406   -0.1004   -4.6463 H   0  0  0  0  0  0  0  0  0  0  0  0
    4.8871    1.1463   -2.6465 H   0  0  0  0  0  0  0  0  0  0  0  0
    7.1889    0.7560   -1.8110 H   0  0  0  0  0  0  0  0  0  0  0  0
   11.0479    0.0698    1.1521 H   0  0  0  0  0  0  0  0  0  0  0  0
   10.2524    0.5561    3.3637 H   0  0  0  0  0  0  0  0  0  0  0  0
  1  2  1  0
  1 47  1  0
  1 48  1  0
  1 49  1  0
  2  3  1  0
  2 50  1  0
  2 51  1  0
  3  4  1  0
  3  6  1  0
  4  5  1  0
  4 52  1  0
  4 53  1  0
  5 54  1  0
  5 55  1  0
  5 56  1  0
  6  7  2  0
  6 46  1  0
  7  8  1  0
  7 57  1  0
  8  9  2  0
  8 58  1  0
  9 10  1  0
  9 45  1  0
 10 11  1  0
 10 15  1  0
 11 12  1  0
 11 59  1  0
 11 60  1  0
 12 13  1  0
 12 14  2  0
 13 61  1  0
 13 62  1  0
 15 16  2  0
 15 17  1  0
 17 18  1  0
 17 63  1  0
 17 64  1  0
 18 19  1  0
 18 44  1  0
 19 20  2  0
 19 21  1  0
 21 22  1  0
 21 31  1  0
 22 23  1  0
 22 65  1  0
 22 66  1  0
 23 24  2  0
 23 30  1  0
 24 25  1  0
 24 67  1  0
 25 26  2  0
 25 68  1  0
 26 27  1  0
 26 69  1  0
 27 28  1  0
 27 30  2  0
 28 29  1  0
 29 70  1  0
 29 71  1  0
 29 72  1  0
 30 73  1  0
 31 32  1  0
 31 44  2  0
 32 33  2  0
 32 74  1  0
 33 34  1  0
 33 75  1  0
 34 35  2  0
 34 76  1  0
 35 36  1  0
 35 44  1  0
 36 37  2  0
 36 38  1  0
 38 39  2  0
 38 43  1  0
 39 40  1  0
 39 77  1  0
 40 41  2  0
 40 78  1  0
 41 42  1  0
 41 79  1  0
 42 43  2  0
 42 80  1  0
 43 81  1  0
 45 46  2  0
 45 82  1  0
 46 83  1  0
M  END

