
     RDKit          3D

 29 28  0  0  0  0  0  0  0  0999 V2000
    5.4107    2.7755    0.2471 O   0  0  0  0  0  0  0  0  0  0  0  0
    5.6684    1.5918    0.2287 C   0  0  0  0  0  0  0  0  0  0  0  0
    4.8900    0.8071    0.1425 H   0  0  0  0  0  0  0  0  0  0  0  0
    7.1085    1.1272    0.3310 C   0  0  2  0  0  0  0  0  0  0  0  0
    7.1621    0.3790    1.1398 H   0  0  0  0  0  0  0  0  0  0  0  0
    7.9448    2.2226    0.6245 O   0  0  0  0  0  0  0  0  0  0  0  0
    7.6450    0.4842   -0.9750 C   0  0  1  0  0  0  0  0  0  0  0  0
    7.4864    1.2351   -1.7758 H   0  0  0  0  0  0  0  0  0  0  0  0
    9.0207    0.2228   -0.8103 O   0  0  0  0  0  0  0  0  0  0  0  0
    6.9699   -0.7977   -1.4781 C   0  0  2  0  0  0  0  0  0  0  0  0
    7.5960   -1.1388   -2.3275 H   0  0  0  0  0  0  0  0  0  0  0  0
    5.6873   -0.4016   -1.9275 O   0  0  0  0  0  0  0  0  0  0  0  0
    6.8735   -1.9861   -0.5107 C   0  0  2  0  0  0  0  0  0  0  0  0
    6.3809   -2.8052   -1.0826 H   0  0  0  0  0  0  0  0  0  0  0  0
    6.0714   -1.6389    0.5990 O   0  0  0  0  0  0  0  0  0  0  0  0
    8.2216   -2.5337   -0.0549 C   0  0  0  0  0  0  0  0  0  0  0  0
    7.9097   -3.6438    0.8123 O   0  0  0  0  0  0  0  0  0  0  0  0
    9.0248   -4.5180    1.5692 P   0  0  1  0  0  0  0  0  0  0  0  0
    8.4742   -5.5395    2.4797 O   0  0  0  0  0  0  0  0  0  0  0  0
    9.9145   -5.0020    0.3126 O   0  0  0  0  0  0  0  0  0  0  0  0
   10.0086   -3.4387    2.2805 O   0  0  0  0  0  0  0  0  0  0  0  0
    7.3820    3.0126    0.5093 H   0  0  0  0  0  0  0  0  0  0  0  0
    9.3854    1.0166   -0.3855 H   0  0  0  0  0  0  0  0  0  0  0  0
    5.1601   -1.1865   -2.1241 H   0  0  0  0  0  0  0  0  0  0  0  0
    6.0967   -2.3934    1.2067 H   0  0  0  0  0  0  0  0  0  0  0  0
    8.7991   -1.7794    0.4950 H   0  0  0  0  0  0  0  0  0  0  0  0
    8.8201   -2.8837   -0.9100 H   0  0  0  0  0  0  0  0  0  0  0  0
   10.5729   -5.6684    0.5586 H   0  0  0  0  0  0  0  0  0  0  0  0
    9.8471   -3.4152    3.2358 H   0  0  0  0  0  0  0  0  0  0  0  0
  1  2  2  0
  2  3  1  0
  2  4  1  0
  4  5  1  1
  4  6  1  0
  4  7  1  0
  6 22  1  0
  7  8  1  6
  7  9  1  0
  7 10  1  0
  9 23  1  0
 10 11  1  6
 10 12  1  0
 10 13  1  0
 12 24  1  0
 13 14  1  6
 13 15  1  0
 13 16  1  0
 15 25  1  0
 16 17  1  0
 16 26  1  0
 16 27  1  0
 18 17  1  6
 18 19  2  0
 18 20  1  0
 18 21  1  0
 20 28  1  0
 21 29  1  0
M  END

