
     RDKit          3D

 96106  0  0  0  0  0  0  0  0999 V2000
    0.2676    2.8227   -2.9607 C   0  0  0  0  0  0  0  0  0  0  0  0
    1.0979    3.5800   -2.1288 C   0  0  0  0  0  0  0  0  0  0  0  0
    2.0826    2.9565   -1.3604 C   0  0  0  0  0  0  0  0  0  0  0  0
    2.2613    1.5603   -1.4050 C   0  0  0  0  0  0  0  0  0  0  0  0
    3.3110    0.8978   -0.5866 C   0  0  0  0  0  0  0  0  0  0  0  0
    3.6310    1.3599    0.7046 C   0  0  0  0  0  0  0  0  0  0  0  0
    4.6172    0.7354    1.4703 C   0  0  0  0  0  0  0  0  0  0  0  0
    5.3102   -0.3702    0.9689 C   0  0  0  0  0  0  0  0  0  0  0  0
    4.9956   -0.8447   -0.3084 C   0  0  0  0  0  0  0  0  0  0  0  0
    5.6940   -1.9891   -0.8444 N   0  0  0  0  0  0  0  0  0  0  0  0
    6.9218   -1.7463   -1.5327 C   0  0  0  0  0  0  0  0  0  0  0  0
    7.3864   -0.4302   -1.6176 C   0  0  0  0  0  0  0  0  0  0  0  0
    8.6158   -0.0988   -2.2500 C   0  0  0  0  0  0  0  0  0  0  0  0
    9.0983    1.2817   -2.3310 C   0  0  0  0  0  0  0  0  0  0  0  0
    8.5667    2.3126   -1.5094 C   0  0  0  0  0  0  0  0  0  0  0  0
    9.0283    3.6240   -1.5902 C   0  0  0  0  0  0  0  0  0  0  0  0
   10.0408    3.9751   -2.4923 C   0  0  0  0  0  0  0  0  0  0  0  0
   10.5816    2.9760   -3.3147 C   0  0  0  0  0  0  0  0  0  0  0  0
   10.1229    1.6643   -3.2379 C   0  0  0  0  0  0  0  0  0  0  0  0
    9.3598   -1.1923   -2.7688 C   0  0  0  0  0  0  0  0  0  0  0  0
    8.8947   -2.4906   -2.7008 C   0  0  0  0  0  0  0  0  0  0  0  0
    7.6390   -2.8509   -2.1145 C   0  0  0  0  0  0  0  0  0  0  0  0
    7.0394   -4.2469   -2.0463 B   0  0  0  0  0  0  0  0  0  0  0  0
    7.4960   -5.5700   -2.7208 C   0  0  0  0  0  0  0  0  0  0  0  0
    8.4909   -5.6755   -3.7239 C   0  0  0  0  0  0  0  0  0  0  0  0
    8.8978   -6.8823   -4.2769 C   0  0  0  0  0  0  0  0  0  0  0  0
    8.3203   -8.0906   -3.8351 C   0  0  0  0  0  0  0  0  0  0  0  0
    8.7387   -9.3304   -4.3765 N   0  0  0  0  0  0  0  0  0  0  0  0
   10.1182   -9.5751   -4.5997 C   0  0  0  0  0  0  0  0  0  0  0  0
   11.0839   -9.1353   -3.6740 C   0  0  0  0  0  0  0  0  0  0  0  0
   12.4404   -9.3673   -3.9056 C   0  0  0  0  0  0  0  0  0  0  0  0
   12.8606  -10.0523   -5.0504 C   0  0  0  0  0  0  0  0  0  0  0  0
   11.9039  -10.4979   -5.9690 C   0  0  0  0  0  0  0  0  0  0  0  0
   10.5466  -10.2577   -5.7547 C   0  0  0  0  0  0  0  0  0  0  0  0
    7.7828  -10.3367   -4.6777 C   0  0  0  0  0  0  0  0  0  0  0  0
    6.5834  -10.0079   -5.3371 C   0  0  0  0  0  0  0  0  0  0  0  0
    5.6457  -10.9985   -5.6307 C   0  0  0  0  0  0  0  0  0  0  0  0
    5.8879  -12.3330   -5.2863 C   0  0  0  0  0  0  0  0  0  0  0  0
    7.0806  -12.6647   -4.6352 C   0  0  0  0  0  0  0  0  0  0  0  0
    8.0182  -11.6783   -4.3251 C   0  0  0  0  0  0  0  0  0  0  0  0
    7.3049   -8.0356   -2.8702 C   0  0  0  0  0  0  0  0  0  0  0  0
    6.8697   -6.8048   -2.3426 C   0  0  0  0  0  0  0  0  0  0  0  0
    5.7977   -6.8081   -1.4192 N   0  0  0  0  0  0  0  0  0  0  0  0
    5.2440   -8.0844   -1.0349 C   0  0  0  0  0  0  0  0  0  0  0  0
    5.7353   -8.7374    0.1008 C   0  0  0  0  0  0  0  0  0  0  0  0
    5.1963   -9.9703    0.4800 C   0  0  0  0  0  0  0  0  0  0  0  0
    4.1731  -10.5513   -0.2755 C   0  0  0  0  0  0  0  0  0  0  0  0
    3.6879   -9.8976   -1.4128 C   0  0  0  0  0  0  0  0  0  0  0  0
    4.2222   -8.6643   -1.7954 C   0  0  0  0  0  0  0  0  0  0  0  0
    5.2222   -5.6547   -0.8877 C   0  0  0  0  0  0  0  0  0  0  0  0
    4.0655   -5.7772   -0.0596 C   0  0  0  0  0  0  0  0  0  0  0  0
    3.4657   -4.6320    0.4592 C   0  0  0  0  0  0  0  0  0  0  0  0
    3.9864   -3.3719    0.1946 C   0  0  0  0  0  0  0  0  0  0  0  0
    5.1618   -3.2440   -0.6144 C   0  0  0  0  0  0  0  0  0  0  0  0
    5.7771   -4.3898   -1.1687 C   0  0  0  0  0  0  0  0  0  0  0  0
    4.0178   -0.2157   -1.0813 C   0  0  0  0  0  0  0  0  0  0  0  0
    1.4179    0.8121   -2.2489 C   0  0  0  0  0  0  0  0  0  0  0  0
    0.4328    1.4355   -3.0170 C   0  0  0  0  0  0  0  0  0  0  0  0
   -0.5022    3.3110   -3.5634 H   0  0  0  0  0  0  0  0  0  0  0  0
    0.9859    4.6664   -2.0851 H   0  0  0  0  0  0  0  0  0  0  0  0
    2.7422    3.5652   -0.7378 H   0  0  0  0  0  0  0  0  0  0  0  0
    3.0830    2.2065    1.1235 H   0  0  0  0  0  0  0  0  0  0  0  0
    4.8434    1.1080    2.4724 H   0  0  0  0  0  0  0  0  0  0  0  0
    6.0869   -0.8650    1.5550 H   0  0  0  0  0  0  0  0  0  0  0  0
    6.7822    0.3741   -1.2104 H   0  0  0  0  0  0  0  0  0  0  0  0
    7.7973    2.0757   -0.7724 H   0  0  0  0  0  0  0  0  0  0  0  0
    8.5969    4.3841   -0.9321 H   0  0  0  0  0  0  0  0  0  0  0  0
   10.4005    5.0049   -2.5551 H   0  0  0  0  0  0  0  0  0  0  0  0
   11.3663    3.2271   -4.0342 H   0  0  0  0  0  0  0  0  0  0  0  0
   10.5489    0.9227   -3.9162 H   0  0  0  0  0  0  0  0  0  0  0  0
   10.3435   -1.0152   -3.2080 H   0  0  0  0  0  0  0  0  0  0  0  0
    9.5435   -3.2805   -3.0785 H   0  0  0  0  0  0  0  0  0  0  0  0
    8.9429   -4.7620   -4.1071 H   0  0  0  0  0  0  0  0  0  0  0  0
    9.6590   -6.9005   -5.0589 H   0  0  0  0  0  0  0  0  0  0  0  0
   10.7630   -8.6120   -2.7716 H   0  0  0  0  0  0  0  0  0  0  0  0
   13.1752   -9.0184   -3.1753 H   0  0  0  0  0  0  0  0  0  0  0  0
   13.9231  -10.2362   -5.2259 H   0  0  0  0  0  0  0  0  0  0  0  0
   12.2177  -11.0271   -6.8727 H   0  0  0  0  0  0  0  0  0  0  0  0
    9.8080  -10.5944   -6.4843 H   0  0  0  0  0  0  0  0  0  0  0  0
    6.3973   -8.9708   -5.6226 H   0  0  0  0  0  0  0  0  0  0  0  0
    4.7228  -10.7261   -6.1498 H   0  0  0  0  0  0  0  0  0  0  0  0
    5.1548  -13.1071   -5.5249 H   0  0  0  0  0  0  0  0  0  0  0  0
    7.2810  -13.7019   -4.3539 H   0  0  0  0  0  0  0  0  0  0  0  0
    8.9419  -11.9416   -3.8063 H   0  0  0  0  0  0  0  0  0  0  0  0
    6.8518   -8.9687   -2.5464 H   0  0  0  0  0  0  0  0  0  0  0  0
    6.5369   -8.2740    0.6799 H   0  0  0  0  0  0  0  0  0  0  0  0
    5.5787  -10.4779    1.3688 H   0  0  0  0  0  0  0  0  0  0  0  0
    3.7540  -11.5158    0.0211 H   0  0  0  0  0  0  0  0  0  0  0  0
    2.8905  -10.3496   -2.0074 H   0  0  0  0  0  0  0  0  0  0  0  0
    3.8544   -8.1456   -2.6831 H   0  0  0  0  0  0  0  0  0  0  0  0
    3.6429   -6.7535    0.1663 H   0  0  0  0  0  0  0  0  0  0  0  0
    2.5755   -4.7271    1.0845 H   0  0  0  0  0  0  0  0  0  0  0  0
    3.5027   -2.4918    0.6118 H   0  0  0  0  0  0  0  0  0  0  0  0
    3.8249   -0.5893   -2.0884 H   0  0  0  0  0  0  0  0  0  0  0  0
    1.5190   -0.2751   -2.2870 H   0  0  0  0  0  0  0  0  0  0  0  0
   -0.2143    0.8322   -3.6591 H   0  0  0  0  0  0  0  0  0  0  0  0
  1  2  2  0
  1 58  1  0
  1 59  1  0
  2  3  1  0
  2 60  1  0
  3  4  2  0
  3 61  1  0
  4  5  1  0
  4 57  1  0
  5  6  2  0
  5 56  1  0
  6  7  1  0
  6 62  1  0
  7  8  2  0
  7 63  1  0
  8  9  1  0
  8 64  1  0
  9 10  1  0
  9 56  2  0
 10 11  1  0
 10 54  1  0
 11 12  2  0
 11 22  1  0
 12 13  1  0
 12 65  1  0
 13 14  1  0
 13 20  2  0
 14 15  2  0
 14 19  1  0
 15 16  1  0
 15 66  1  0
 16 17  2  0
 16 67  1  0
 17 18  1  0
 17 68  1  0
 18 19  2  0
 18 69  1  0
 19 70  1  0
 20 21  1  0
 20 71  1  0
 21 22  2  0
 21 72  1  0
 22 23  1  0
 23 24  1  0
 23 55  1  0
 24 25  2  0
 24 42  1  0
 25 26  1  0
 25 73  1  0
 26 27  2  0
 26 74  1  0
 27 28  1  0
 27 41  1  0
 28 29  1  0
 28 35  1  0
 29 30  2  0
 29 34  1  0
 30 31  1  0
 30 75  1  0
 31 32  2  0
 31 76  1  0
 32 33  1  0
 32 77  1  0
 33 34  2  0
 33 78  1  0
 34 79  1  0
 35 36  2  0
 35 40  1  0
 36 37  1  0
 36 80  1  0
 37 38  2  0
 37 81  1  0
 38 39  1  0
 38 82  1  0
 39 40  2  0
 39 83  1  0
 40 84  1  0
 41 42  2  0
 41 85  1  0
 42 43  1  0
 43 44  1  0
 43 50  1  0
 44 45  2  0
 44 49  1  0
 45 46  1  0
 45 86  1  0
 46 47  2  0
 46 87  1  0
 47 48  1  0
 47 88  1  0
 48 49  2  0
 48 89  1  0
 49 90  1  0
 50 51  1  0
 50 55  2  0
 51 52  2  0
 51 91  1  0
 52 53  1  0
 52 92  1  0
 53 54  2  0
 53 93  1  0
 54 55  1  0
 56 94  1  0
 57 58  2  0
 57 95  1  0
 58 96  1  0
M  END

