
     RDKit          3D

 75 77  0  0  0  0  0  0  0  0999 V2000
    1.6344   -0.6811    0.3447 C   0  0  0  0  0  0  0  0  0  0  0  0
    2.7292   -0.2549   -0.3276 C   0  0  0  0  0  0  0  0  0  0  0  0
    3.3841   -1.1970   -1.2922 C   0  0  0  0  0  0  0  0  0  0  0  0
    3.3805   -2.4736   -1.2831 N   0  0  0  0  0  0  0  0  0  0  0  0
    3.2673    1.1238   -0.2361 C   0  0  0  0  0  0  0  0  0  0  0  0
    2.4370    2.2744   -0.2092 C   0  0  0  0  0  0  0  0  0  0  0  0
    1.0405    2.3642   -0.4267 C   0  0  0  0  0  0  0  0  0  0  0  0
    0.2809    3.5126   -0.3878 C   0  0  0  0  0  0  0  0  0  0  0  0
    0.8280    4.8778   -0.0740 C   0  0  0  0  0  0  0  0  0  0  0  0
    4.6914    1.2699   -0.1521 C   0  0  0  0  0  0  0  0  0  0  0  0
    5.2600    2.5132   -0.1540 N   0  0  0  0  0  0  0  0  0  0  0  0
    6.5672    2.6119    0.0134 C   0  0  0  0  0  0  0  0  0  0  0  0
    7.1216    3.9962    0.0542 C   0  0  0  0  0  0  0  0  0  0  0  0
    6.3831    5.0883   -0.1730 C   0  0  0  0  0  0  0  0  0  0  0  0
    6.8984    6.5026   -0.1205 C   0  0  0  0  0  0  0  0  0  0  0  0
    6.2571    7.3082    1.0212 C   0  0  0  0  0  0  0  0  0  0  0  0
    6.7111    8.7626    1.1302 C   0  0  0  0  0  0  0  0  0  0  0  0
    6.3452    9.6139   -0.0166 N   0  0  0  0  0  0  0  0  0  0  0  0
    4.9672    9.8210   -0.3170 C   0  0  0  0  0  0  0  0  0  0  0  0
    4.4494   11.1195    0.4624 C   0  0  0  0  0  0  0  0  0  0  0  0
    5.2836   12.2326    0.1401 N   0  0  0  0  0  0  0  0  0  0  0  0
    4.9261   13.1284   -0.9643 C   0  0  0  0  0  0  0  0  0  0  0  0
    4.9661   14.6029   -0.5669 C   0  0  0  0  0  0  0  0  0  0  0  0
    6.6667   12.0274    0.4297 C   0  0  0  0  0  0  0  0  0  0  0  0
    7.1732   10.7223   -0.3474 C   0  0  0  0  0  0  0  0  0  0  0  0
    7.4278    1.4854    0.1410 C   0  0  0  0  0  0  0  0  0  0  0  0
    9.1132    1.6542    0.7101 S   0  0  0  0  0  0  0  0  0  0  0  0
    6.7648    0.2101    0.0427 C   0  0  0  0  0  0  0  0  0  0  0  0
    7.4543   -1.0055    0.1279 N   0  0  0  0  0  0  0  0  0  0  0  0
    8.5806   -1.2771   -0.7613 C   0  0  0  0  0  0  0  0  0  0  0  0
    9.4243   -2.4141   -0.1933 C   0  0  0  0  0  0  0  0  0  0  0  0
    8.6575   -3.5788    0.0236 O   0  0  0  0  0  0  0  0  0  0  0  0
    7.5584   -3.3203    0.8800 C   0  0  0  0  0  0  0  0  0  0  0  0
    6.6553   -2.2127    0.3475 C   0  0  0  0  0  0  0  0  0  0  0  0
    5.4546    0.1377   -0.0719 N   0  0  0  0  0  0  0  0  0  0  0  0
    1.2086   -1.6726    0.1635 H   0  0  0  0  0  0  0  0  0  0  0  0
    1.1300   -0.0473    1.0759 H   0  0  0  0  0  0  0  0  0  0  0  0
    3.9001   -0.7034   -2.1320 H   0  0  0  0  0  0  0  0  0  0  0  0
    2.9005   -2.8057   -0.4345 H   0  0  0  0  0  0  0  0  0  0  0  0
    2.9759    3.2091   -0.0433 H   0  0  0  0  0  0  0  0  0  0  0  0
    0.5083    1.4364   -0.6595 H   0  0  0  0  0  0  0  0  0  0  0  0
   -0.7895    3.4346   -0.5976 H   0  0  0  0  0  0  0  0  0  0  0  0
    1.3258    4.9141    0.9154 H   0  0  0  0  0  0  0  0  0  0  0  0
    0.0333    5.6419   -0.0687 H   0  0  0  0  0  0  0  0  0  0  0  0
    1.5928    5.2048   -0.8074 H   0  0  0  0  0  0  0  0  0  0  0  0
    8.1885    4.0835    0.2779 H   0  0  0  0  0  0  0  0  0  0  0  0
    5.3196    4.9392   -0.3934 H   0  0  0  0  0  0  0  0  0  0  0  0
    6.6934    7.0063   -1.0837 H   0  0  0  0  0  0  0  0  0  0  0  0
    7.9957    6.5050    0.0057 H   0  0  0  0  0  0  0  0  0  0  0  0
    6.5032    6.8294    1.9826 H   0  0  0  0  0  0  0  0  0  0  0  0
    5.1571    7.2485    0.9537 H   0  0  0  0  0  0  0  0  0  0  0  0
    7.8068    8.8039    1.2140 H   0  0  0  0  0  0  0  0  0  0  0  0
    6.3032    9.2188    2.0559 H   0  0  0  0  0  0  0  0  0  0  0  0
    4.3581    8.9626   -0.0188 H   0  0  0  0  0  0  0  0  0  0  0  0
    4.8277   10.0043   -1.3928 H   0  0  0  0  0  0  0  0  0  0  0  0
    4.5052   10.8983    1.5388 H   0  0  0  0  0  0  0  0  0  0  0  0
    3.4061   11.3152    0.1887 H   0  0  0  0  0  0  0  0  0  0  0  0
    3.9168   12.8561   -1.3034 H   0  0  0  0  0  0  0  0  0  0  0  0
    5.6106   12.9441   -1.8137 H   0  0  0  0  0  0  0  0  0  0  0  0
    4.2555   14.8114    0.2463 H   0  0  0  0  0  0  0  0  0  0  0  0
    4.6949   15.2247   -1.4319 H   0  0  0  0  0  0  0  0  0  0  0  0
    5.9699   14.9096   -0.2354 H   0  0  0  0  0  0  0  0  0  0  0  0
    6.8165   11.8524    1.5053 H   0  0  0  0  0  0  0  0  0  0  0  0
    7.2690   12.8895    0.1178 H   0  0  0  0  0  0  0  0  0  0  0  0
    8.2191   10.5320   -0.0802 H   0  0  0  0  0  0  0  0  0  0  0  0
    7.1114   10.9450   -1.4246 H   0  0  0  0  0  0  0  0  0  0  0  0
    9.7741    1.7888   -0.4751 H   0  0  0  0  0  0  0  0  0  0  0  0
    9.2055   -0.3844   -0.8719 H   0  0  0  0  0  0  0  0  0  0  0  0
    8.2127   -1.5703   -1.7680 H   0  0  0  0  0  0  0  0  0  0  0  0
    9.8889   -2.0718    0.7553 H   0  0  0  0  0  0  0  0  0  0  0  0
   10.2269   -2.6844   -0.8982 H   0  0  0  0  0  0  0  0  0  0  0  0
    7.9259   -3.0416    1.8903 H   0  0  0  0  0  0  0  0  0  0  0  0
    6.9938   -4.2617    0.9640 H   0  0  0  0  0  0  0  0  0  0  0  0
    5.8612   -1.9902    1.0720 H   0  0  0  0  0  0  0  0  0  0  0  0
    6.1481   -2.5419   -0.5794 H   0  0  0  0  0  0  0  0  0  0  0  0
  1  2  2  0
  1 36  1  0
  1 37  1  0
  2  3  1  0
  2  5  1  0
  3  4  2  0
  3 38  1  0
  4 39  1  0
  5  6  2  0
  5 10  1  0
  6  7  1  0
  6 40  1  0
  7  8  2  0
  7 41  1  0
  8  9  1  0
  8 42  1  0
  9 43  1  0
  9 44  1  0
  9 45  1  0
 10 11  2  0
 10 35  1  0
 11 12  1  0
 12 13  1  0
 12 26  2  0
 13 14  2  0
 13 46  1  0
 14 15  1  0
 14 47  1  0
 15 16  1  0
 15 48  1  0
 15 49  1  0
 16 17  1  0
 16 50  1  0
 16 51  1  0
 17 18  1  0
 17 52  1  0
 17 53  1  0
 18 19  1  0
 18 25  1  0
 19 20  1  0
 19 54  1  0
 19 55  1  0
 20 21  1  0
 20 56  1  0
 20 57  1  0
 21 22  1  0
 21 24  1  0
 22 23  1  0
 22 58  1  0
 22 59  1  0
 23 60  1  0
 23 61  1  0
 23 62  1  0
 24 25  1  0
 24 63  1  0
 24 64  1  0
 25 65  1  0
 25 66  1  0
 26 27  1  0
 26 28  1  0
 27 67  1  0
 28 29  1  0
 28 35  2  0
 29 30  1  0
 29 34  1  0
 30 31  1  0
 30 68  1  0
 30 69  1  0
 31 32  1  0
 31 70  1  0
 31 71  1  0
 32 33  1  0
 33 34  1  0
 33 72  1  0
 33 73  1  0
 34 74  1  0
 34 75  1  0
M  END

