
     RDKit          3D

 49 51  0  0  0  0  0  0  0  0999 V2000
    1.1449   -0.0771    0.2391 O   0  0  0  0  0  0  0  0  0  0  0  0
    2.3521   -0.0334    0.0396 C   0  0  0  0  0  0  0  0  0  0  0  0
    3.0246    1.1529   -0.0773 N   0  0  0  0  0  0  0  0  0  0  0  0
    2.3399    2.4321    0.0264 C   0  0  0  0  0  0  0  0  0  0  0  0
    2.1434    2.9366    1.4628 C   0  0  0  0  0  0  0  0  0  0  0  0
    3.4449    3.2194    2.2158 C   0  0  0  0  0  0  0  0  0  0  0  0
    3.2125    3.7357    3.6477 C   0  0  0  0  0  0  0  0  0  0  0  0
    4.4874    4.0141    4.4087 C   0  0  0  0  0  0  0  0  0  0  0  0
    4.9850    3.1500    5.3957 C   0  0  0  0  0  0  0  0  0  0  0  0
    6.1782    3.4197    6.0738 C   0  0  0  0  0  0  0  0  0  0  0  0
    6.9056    4.5745    5.7731 C   0  0  0  0  0  0  0  0  0  0  0  0
    6.4372    5.4560    4.7945 C   0  0  0  0  0  0  0  0  0  0  0  0
    5.2482    5.1587    4.1360 C   0  0  0  0  0  0  0  0  0  0  0  0
    4.8037    6.0132    3.1915 F   0  0  0  0  0  0  0  0  0  0  0  0
    3.1746   -1.2867   -0.0867 C   0  0  0  0  0  0  0  0  0  0  0  0
    4.4544   -1.3451   -0.6611 C   0  0  0  0  0  0  0  0  0  0  0  0
    5.1608   -2.5416   -0.7586 C   0  0  0  0  0  0  0  0  0  0  0  0
    4.5926   -3.7400   -0.2761 C   0  0  0  0  0  0  0  0  0  0  0  0
    5.2788   -4.9704   -0.3403 N   0  0  0  0  0  0  0  0  0  0  0  0
    4.7272   -6.1876    0.2646 C   0  0  0  0  0  0  0  0  0  0  0  0
    5.8941   -7.1863    0.2333 C   0  0  0  0  0  0  0  0  0  0  0  0
    6.7245   -6.7255   -0.9640 C   0  0  0  0  0  0  0  0  0  0  0  0
    6.4449   -5.2289   -1.0623 C   0  0  0  0  0  0  0  0  0  0  0  0
    7.1084   -4.4239   -1.6796 O   0  0  0  0  0  0  0  0  0  0  0  0
    3.2972   -3.6890    0.2815 C   0  0  0  0  0  0  0  0  0  0  0  0
    2.6058   -2.4841    0.3668 C   0  0  0  0  0  0  0  0  0  0  0  0
    4.0356    1.1426   -0.0955 H   0  0  0  0  0  0  0  0  0  0  0  0
    1.3559    2.3132   -0.4497 H   0  0  0  0  0  0  0  0  0  0  0  0
    2.9110    3.1714   -0.5605 H   0  0  0  0  0  0  0  0  0  0  0  0
    1.5382    2.1941    2.0101 H   0  0  0  0  0  0  0  0  0  0  0  0
    1.5369    3.8592    1.4175 H   0  0  0  0  0  0  0  0  0  0  0  0
    4.0418    3.9643    1.6603 H   0  0  0  0  0  0  0  0  0  0  0  0
    4.0560    2.3010    2.2648 H   0  0  0  0  0  0  0  0  0  0  0  0
    2.6148    2.9977    4.2075 H   0  0  0  0  0  0  0  0  0  0  0  0
    2.6089    4.6579    3.5982 H   0  0  0  0  0  0  0  0  0  0  0  0
    4.4158    2.2478    5.6377 H   0  0  0  0  0  0  0  0  0  0  0  0
    6.5378    2.7278    6.8391 H   0  0  0  0  0  0  0  0  0  0  0  0
    7.8378    4.7942    6.2991 H   0  0  0  0  0  0  0  0  0  0  0  0
    6.9751    6.3694    4.5327 H   0  0  0  0  0  0  0  0  0  0  0  0
    4.9204   -0.4467   -1.0750 H   0  0  0  0  0  0  0  0  0  0  0  0
    6.1442   -2.5671   -1.2197 H   0  0  0  0  0  0  0  0  0  0  0  0
    3.8594   -6.5497   -0.3177 H   0  0  0  0  0  0  0  0  0  0  0  0
    4.3773   -5.9872    1.2882 H   0  0  0  0  0  0  0  0  0  0  0  0
    5.5443   -8.2258    0.1619 H   0  0  0  0  0  0  0  0  0  0  0  0
    6.4836   -7.0962    1.1595 H   0  0  0  0  0  0  0  0  0  0  0  0
    6.3886   -7.1886   -1.9089 H   0  0  0  0  0  0  0  0  0  0  0  0
    7.8056   -6.9033   -0.8815 H   0  0  0  0  0  0  0  0  0  0  0  0
    2.8116   -4.5944    0.6444 H   0  0  0  0  0  0  0  0  0  0  0  0
    1.5982   -2.4492    0.7853 H   0  0  0  0  0  0  0  0  0  0  0  0
  1  2  2  0
  2  3  1  0
  2 15  1  0
  3  4  1  0
  3 27  1  0
  4  5  1  0
  4 28  1  0
  4 29  1  0
  5  6  1  0
  5 30  1  0
  5 31  1  0
  6  7  1  0
  6 32  1  0
  6 33  1  0
  7  8  1  0
  7 34  1  0
  7 35  1  0
  8  9  2  0
  8 13  1  0
  9 10  1  0
  9 36  1  0
 10 11  2  0
 10 37  1  0
 11 12  1  0
 11 38  1  0
 12 13  2  0
 12 39  1  0
 13 14  1  0
 15 16  2  0
 15 26  1  0
 16 17  1  0
 16 40  1  0
 17 18  2  0
 17 41  1  0
 18 19  1  0
 18 25  1  0
 19 20  1  0
 19 23  1  0
 20 21  1  0
 20 42  1  0
 20 43  1  0
 21 22  1  0
 21 44  1  0
 21 45  1  0
 22 23  1  0
 22 46  1  0
 22 47  1  0
 23 24  2  0
 25 26  2  0
 25 48  1  0
 26 49  1  0
M  END

