
     RDKit          3D

 37 39  0  0  0  0  0  0  0  0999 V2000
    1.2329    0.3119    0.5478 C   0  0  0  0  0  0  0  0  0  0  0  0
    2.7220    0.3310    0.4045 C   0  0  0  0  0  0  0  0  0  0  0  0
    3.4661   -0.6918    0.8327 N   0  0  0  0  0  0  0  0  0  0  0  0
    4.7811   -0.3813    0.6022 N   0  0  0  0  0  0  0  0  0  0  0  0
    5.7913   -1.3848    0.8252 C   0  0  0  0  0  0  0  0  0  0  0  0
    4.8473    0.8272   -0.0179 C   0  0  0  0  0  0  0  0  0  0  0  0
    3.5671    1.3340   -0.1529 C   0  0  0  0  0  0  0  0  0  0  0  0
    3.6006    2.6020   -0.7192 N   0  0  0  0  0  0  0  0  0  0  0  0
    4.8733    2.8287   -0.9212 C   0  0  0  0  0  0  0  0  0  0  0  0
    5.4224    3.9200   -1.5644 N   0  0  0  0  0  0  0  0  0  0  0  0
    5.7267    1.7841   -0.4999 N   0  0  0  0  0  0  0  0  0  0  0  0
    7.1508    1.6877   -0.7519 C   0  0  0  0  0  0  0  0  0  0  0  0
    8.0680    2.4601    0.2255 C   0  0  1  0  0  0  0  0  0  0  0  0
    7.7103    2.1908    1.6866 C   0  0  0  0  0  0  0  0  0  0  0  0
    9.5553    2.1710   -0.0930 C   0  0  0  0  0  0  0  0  0  0  0  0
   10.2342    3.5316    0.0987 C   0  0  0  0  0  0  0  0  0  0  0  0
    9.1484    4.4820   -0.4005 C   0  0  0  0  0  0  0  0  0  0  0  0
    7.9143    3.8839   -0.0085 O   0  0  0  0  0  0  0  0  0  0  0  0
    0.9119   -0.6339    1.0065 H   0  0  0  0  0  0  0  0  0  0  0  0
    0.7351    0.4161   -0.4305 H   0  0  0  0  0  0  0  0  0  0  0  0
    0.8798    1.1454    1.1780 H   0  0  0  0  0  0  0  0  0  0  0  0
    5.3725   -2.1188    1.5254 H   0  0  0  0  0  0  0  0  0  0  0  0
    6.6943   -0.9419    1.2752 H   0  0  0  0  0  0  0  0  0  0  0  0
    6.0778   -1.9091   -0.1046 H   0  0  0  0  0  0  0  0  0  0  0  0
    4.7157    4.6202   -1.7670 H   0  0  0  0  0  0  0  0  0  0  0  0
    6.2430    4.2981   -1.0876 H   0  0  0  0  0  0  0  0  0  0  0  0
    7.3512    2.0565   -1.7716 H   0  0  0  0  0  0  0  0  0  0  0  0
    7.4282    0.6226   -0.7259 H   0  0  0  0  0  0  0  0  0  0  0  0
    7.7512    1.1141    1.9157 H   0  0  0  0  0  0  0  0  0  0  0  0
    6.6954    2.5528    1.9039 H   0  0  0  0  0  0  0  0  0  0  0  0
    8.4105    2.7124    2.3564 H   0  0  0  0  0  0  0  0  0  0  0  0
    9.6627    1.8424   -1.1408 H   0  0  0  0  0  0  0  0  0  0  0  0
    9.9697    1.3784    0.5470 H   0  0  0  0  0  0  0  0  0  0  0  0
   11.1790    3.6292   -0.4564 H   0  0  0  0  0  0  0  0  0  0  0  0
   10.4472    3.7165    1.1637 H   0  0  0  0  0  0  0  0  0  0  0  0
    9.1914    4.5888   -1.5027 H   0  0  0  0  0  0  0  0  0  0  0  0
    9.2030    5.4902    0.0399 H   0  0  0  0  0  0  0  0  0  0  0  0
  1  2  1  0
  1 19  1  0
  1 20  1  0
  1 21  1  0
  2  3  2  0
  2  7  1  0
  3  4  1  0
  4  5  1  0
  4  6  1  0
  5 22  1  0
  5 23  1  0
  5 24  1  0
  6  7  2  0
  6 11  1  0
  7  8  1  0
  8  9  2  0
  9 10  1  0
  9 11  1  0
 10 25  1  0
 10 26  1  0
 11 12  1  0
 13 12  1  6
 12 27  1  0
 12 28  1  0
 13 14  1  0
 13 15  1  0
 13 18  1  0
 14 29  1  0
 14 30  1  0
 14 31  1  0
 15 16  1  0
 15 32  1  0
 15 33  1  0
 16 17  1  0
 16 34  1  0
 16 35  1  0
 17 18  1  0
 17 36  1  0
 17 37  1  0
M  END

