
     RDKit          3D

 73 77  0  0  0  0  0  0  0  0999 V2000
    0.8865   -0.6391   -0.3078 C   0  0  0  0  0  0  0  0  0  0  0  0
    0.3103    0.1964    0.6710 O   0  0  0  0  0  0  0  0  0  0  0  0
    1.1138    0.9376    1.4711 C   0  0  0  0  0  0  0  0  0  0  0  0
    2.5157    0.9228    1.4258 C   0  0  0  0  0  0  0  0  0  0  0  0
    3.2462    1.7329    2.3041 C   0  0  0  0  0  0  0  0  0  0  0  0
    2.6100    2.5762    3.2226 C   0  0  0  0  0  0  0  0  0  0  0  0
    3.4251    3.4453    4.1857 C   0  0  1  0  0  0  0  0  0  0  0  0
    2.8821    4.8622    4.4126 C   0  0  0  0  0  0  0  0  0  0  0  0
    2.9129    5.7440    3.3014 C   0  0  0  0  0  0  0  0  0  0  0  0
    3.3675    5.2116    2.1154 O   0  0  0  0  0  0  0  0  0  0  0  0
    2.6253    7.1593    3.2093 C   0  0  0  0  0  0  0  0  0  0  0  0
    2.2507    7.9655    4.3083 C   0  0  0  0  0  0  0  0  0  0  0  0
    2.0308    9.3267    4.1330 C   0  0  0  0  0  0  0  0  0  0  0  0
    2.1694    9.9413    2.8782 C   0  0  0  0  0  0  0  0  0  0  0  0
    1.9612   11.2808    2.6979 O   0  0  0  0  0  0  0  0  0  0  0  0
    1.6009   12.0884    3.7931 C   0  0  0  0  0  0  0  0  0  0  0  0
    2.5330    9.1673    1.7379 C   0  0  0  0  0  0  0  0  0  0  0  0
    2.6852    9.7986    0.3344 C   0  0  1  0  0  0  0  0  0  0  0  0
    3.7977   10.8745    0.3518 C   0  0  0  0  0  0  0  0  0  0  0  0
    3.0773    8.7527   -0.7277 C   0  0  0  0  0  0  0  0  0  0  0  0
    1.3449   10.4291   -0.1151 C   0  0  0  0  0  0  0  0  0  0  0  0
    2.7470    7.8062    1.9449 C   0  0  0  0  0  0  0  0  0  0  0  0
    2.4443    5.0181    5.7670 C   0  0  0  0  0  0  0  0  0  0  0  0
    1.8833    5.9260    6.4106 O   0  0  0  0  0  0  0  0  0  0  0  0
    2.7978    3.7328    6.4859 C   0  0  0  0  0  0  0  0  0  0  0  0
    2.6432    3.4359    7.6512 O   0  0  0  0  0  0  0  0  0  0  0  0
    3.4228    2.8493    5.5390 N   0  0  0  0  0  0  0  0  0  0  0  0
    4.1476    1.7723    5.9012 C   0  0  0  0  0  0  0  0  0  0  0  0
    4.9854    1.0864    5.1024 N   0  0  0  0  0  0  0  0  0  0  0  0
    5.4799    0.1050    5.8875 C   0  0  0  0  0  0  0  0  0  0  0  0
    6.4070   -0.9215    5.5854 C   0  0  0  0  0  0  0  0  0  0  0  0
    6.7888   -1.8141    6.5749 C   0  0  0  0  0  0  0  0  0  0  0  0
    7.7782   -2.9089    6.2692 C   0  0  0  0  0  0  0  0  0  0  0  0
    6.2406   -1.6975    7.9094 C   0  0  0  0  0  0  0  0  0  0  0  0
    6.6605   -2.6655    8.9750 C   0  0  0  0  0  0  0  0  0  0  0  0
    5.3139   -0.6803    8.2252 C   0  0  0  0  0  0  0  0  0  0  0  0
    4.9431    0.1982    7.2260 C   0  0  0  0  0  0  0  0  0  0  0  0
    4.0891    1.2789    7.1790 N   0  0  0  0  0  0  0  0  0  0  0  0
    3.5305    1.7520    7.8957 H   0  0  0  0  0  0  0  0  0  0  0  0
    1.2010    2.5838    3.2520 C   0  0  0  0  0  0  0  0  0  0  0  0
    0.4632    1.7752    2.3974 C   0  0  0  0  0  0  0  0  0  0  0  0
    0.0538   -1.1217   -0.8368 H   0  0  0  0  0  0  0  0  0  0  0  0
    1.5249   -1.4212    0.1419 H   0  0  0  0  0  0  0  0  0  0  0  0
    1.4879   -0.0650   -1.0354 H   0  0  0  0  0  0  0  0  0  0  0  0
    3.0496    0.2888    0.7178 H   0  0  0  0  0  0  0  0  0  0  0  0
    4.3378    1.6983    2.2763 H   0  0  0  0  0  0  0  0  0  0  0  0
    4.4651    3.4721    3.8235 H   0  0  0  0  0  0  0  0  0  0  0  0
    3.0908    4.2866    2.0351 H   0  0  0  0  0  0  0  0  0  0  0  0
    2.1066    7.5114    5.2900 H   0  0  0  0  0  0  0  0  0  0  0  0
    1.7383    9.9160    5.0020 H   0  0  0  0  0  0  0  0  0  0  0  0
    1.4964   13.1113    3.4054 H   0  0  0  0  0  0  0  0  0  0  0  0
    2.3732   12.0827    4.5833 H   0  0  0  0  0  0  0  0  0  0  0  0
    0.6396   11.7757    4.2394 H   0  0  0  0  0  0  0  0  0  0  0  0
    4.7650   10.4266    0.6320 H   0  0  0  0  0  0  0  0  0  0  0  0
    3.5733   11.6790    1.0634 H   0  0  0  0  0  0  0  0  0  0  0  0
    3.9109   11.3215   -0.6505 H   0  0  0  0  0  0  0  0  0  0  0  0
    4.0425    8.2733   -0.5025 H   0  0  0  0  0  0  0  0  0  0  0  0
    3.1741    9.2483   -1.7071 H   0  0  0  0  0  0  0  0  0  0  0  0
    2.3190    7.9611   -0.8312 H   0  0  0  0  0  0  0  0  0  0  0  0
    1.0154   11.2164    0.5743 H   0  0  0  0  0  0  0  0  0  0  0  0
    0.5540    9.6631   -0.1660 H   0  0  0  0  0  0  0  0  0  0  0  0
    1.4509   10.8717   -1.1200 H   0  0  0  0  0  0  0  0  0  0  0  0
    3.0279    7.1811    1.1035 H   0  0  0  0  0  0  0  0  0  0  0  0
    6.8104   -0.9923    4.5739 H   0  0  0  0  0  0  0  0  0  0  0  0
    8.0963   -2.8714    5.2184 H   0  0  0  0  0  0  0  0  0  0  0  0
    7.3519   -3.9086    6.4572 H   0  0  0  0  0  0  0  0  0  0  0  0
    8.6814   -2.8283    6.8973 H   0  0  0  0  0  0  0  0  0  0  0  0
    6.4291   -3.7055    8.6864 H   0  0  0  0  0  0  0  0  0  0  0  0
    6.1637   -2.4578    9.9322 H   0  0  0  0  0  0  0  0  0  0  0  0
    7.7515   -2.6318    9.1403 H   0  0  0  0  0  0  0  0  0  0  0  0
    4.9099   -0.6000    9.2361 H   0  0  0  0  0  0  0  0  0  0  0  0
    0.6811    3.2480    3.9467 H   0  0  0  0  0  0  0  0  0  0  0  0
   -0.6284    1.7803    2.4130 H   0  0  0  0  0  0  0  0  0  0  0  0
  1  2  1  0
  1 42  1  0
  1 43  1  0
  1 44  1  0
  2  3  1  0
  3  4  2  0
  3 41  1  0
  4  5  1  0
  4 45  1  0
  5  6  2  0
  5 46  1  0
  6  7  1  0
  6 40  1  0
  7  8  1  0
  7 27  1  0
  7 47  1  6
  8  9  2  0
  8 23  1  0
  9 10  1  0
  9 11  1  0
 10 48  1  0
 11 12  2  0
 11 22  1  0
 12 13  1  0
 12 49  1  0
 13 14  2  0
 13 50  1  0
 14 15  1  0
 14 17  1  0
 15 16  1  0
 16 51  1  0
 16 52  1  0
 16 53  1  0
 17 18  1  0
 17 22  2  0
 18 19  1  6
 18 20  1  0
 18 21  1  0
 19 54  1  0
 19 55  1  0
 19 56  1  0
 20 57  1  0
 20 58  1  0
 20 59  1  0
 21 60  1  0
 21 61  1  0
 21 62  1  0
 22 63  1  0
 23 24  2  0
 23 25  1  0
 25 26  2  0
 25 27  1  0
 27 28  1  0
 28 29  2  0
 28 38  1  0
 29 30  1  0
 30 31  2  0
 30 37  1  0
 31 32  1  0
 31 64  1  0
 32 33  1  0
 32 34  2  0
 33 65  1  0
 33 66  1  0
 33 67  1  0
 34 35  1  0
 34 36  1  0
 35 68  1  0
 35 69  1  0
 35 70  1  0
 36 37  2  0
 36 71  1  0
 37 38  1  0
 38 39  1  0
 40 41  2  0
 40 72  1  0
 41 73  1  0
M  END

