
     RDKit          3D

 69 75  0  0  0  0  0  0  0  0999 V2000
    1.4608    0.3631    1.3938 C   0  0  0  0  0  0  0  0  0  0  0  0
    2.7122    0.2231    0.6734 N   0  0  0  0  0  0  0  0  0  0  0  0
    3.6129    1.2569    0.3927 C   0  0  0  0  0  0  0  0  0  0  0  0
    3.3763    2.6501    0.5097 C   0  0  0  0  0  0  0  0  0  0  0  0
    2.1951    3.4054    0.7413 C   0  0  0  0  0  0  0  0  0  0  0  0
    2.4048    4.7773    0.7565 C   0  0  0  0  0  0  0  0  0  0  0  0
    3.7586    5.1498    0.5376 C   0  0  0  0  0  0  0  0  0  0  0  0
    4.4009    6.4110    0.4509 C   0  0  0  0  0  0  0  0  0  0  0  0
    5.6648    6.5566    0.0253 N   0  0  0  0  0  0  0  0  0  0  0  0
    5.9479    7.8759    0.0364 C   0  0  0  0  0  0  0  0  0  0  0  0
    7.2534    8.3523   -0.4483 C   0  0  0  0  0  0  0  0  0  0  0  0
    7.4472    9.6288   -1.0150 C   0  0  0  0  0  0  0  0  0  0  0  0
    8.7025   10.0139   -1.4878 C   0  0  0  0  0  0  0  0  0  0  0  0
    9.7882    9.1353   -1.4097 C   0  0  0  0  0  0  0  0  0  0  0  0
    9.6044    7.8585   -0.8656 C   0  0  0  0  0  0  0  0  0  0  0  0
    8.3515    7.4674   -0.3971 C   0  0  0  0  0  0  0  0  0  0  0  0
    4.8249    8.6128    0.5039 C   0  0  0  0  0  0  0  0  0  0  0  0
    4.6246   10.0429    0.7283 C   0  0  0  0  0  0  0  0  0  0  0  0
    3.4536   10.7047    0.2842 C   0  0  0  0  0  0  0  0  0  0  0  0
    3.2733   12.0690    0.5055 C   0  0  0  0  0  0  0  0  0  0  0  0
    4.2513   12.8135    1.1772 C   0  0  0  0  0  0  0  0  0  0  0  0
    5.4154   12.1742    1.6236 C   0  0  0  0  0  0  0  0  0  0  0  0
    5.6020   10.8108    1.4070 C   0  0  0  0  0  0  0  0  0  0  0  0
    3.8502    7.6591    0.7642 N   0  0  0  0  0  0  0  0  0  0  0  0
    2.6184    7.8805    1.4975 C   0  0  0  0  0  0  0  0  0  0  0  0
    4.7671    3.7193    0.2723 S   0  0  0  0  0  0  0  0  0  0  0  0
    4.7795    0.7507   -0.0344 N   0  0  0  0  0  0  0  0  0  0  0  0
    4.6562   -0.5930   -0.0558 C   0  0  0  0  0  0  0  0  0  0  0  0
    5.7647   -1.4244   -0.5523 C   0  0  0  0  0  0  0  0  0  0  0  0
    7.0745   -0.9031   -0.4878 C   0  0  0  0  0  0  0  0  0  0  0  0
    8.1580   -1.6363   -0.9680 C   0  0  0  0  0  0  0  0  0  0  0  0
    7.9596   -2.9001   -1.5365 C   0  0  0  0  0  0  0  0  0  0  0  0
    6.6636   -3.4189   -1.6273 C   0  0  0  0  0  0  0  0  0  0  0  0
    5.5760   -2.6907   -1.1431 C   0  0  0  0  0  0  0  0  0  0  0  0
    3.3603   -0.9716    0.3913 C   0  0  0  0  0  0  0  0  0  0  0  0
    2.7387   -2.2816    0.5751 C   0  0  0  0  0  0  0  0  0  0  0  0
    3.4317   -3.3227    1.2393 C   0  0  0  0  0  0  0  0  0  0  0  0
    2.8445   -4.5737    1.4143 C   0  0  0  0  0  0  0  0  0  0  0  0
    1.5505   -4.8257    0.9398 C   0  0  0  0  0  0  0  0  0  0  0  0
    0.8494   -3.8066    0.2828 C   0  0  0  0  0  0  0  0  0  0  0  0
    1.4310   -2.5526    0.1033 C   0  0  0  0  0  0  0  0  0  0  0  0
    1.5711    1.1206    2.1825 H   0  0  0  0  0  0  0  0  0  0  0  0
    1.2005   -0.5944    1.8608 H   0  0  0  0  0  0  0  0  0  0  0  0
    0.6318    0.6620    0.7308 H   0  0  0  0  0  0  0  0  0  0  0  0
    1.2070    2.9650    0.8591 H   0  0  0  0  0  0  0  0  0  0  0  0
    1.5929    5.4902    0.8865 H   0  0  0  0  0  0  0  0  0  0  0  0
    6.6060   10.3159   -1.1089 H   0  0  0  0  0  0  0  0  0  0  0  0
    8.8309   11.0053   -1.9302 H   0  0  0  0  0  0  0  0  0  0  0  0
   10.7705    9.4402   -1.7798 H   0  0  0  0  0  0  0  0  0  0  0  0
   10.4446    7.1613   -0.8105 H   0  0  0  0  0  0  0  0  0  0  0  0
    8.1932    6.4689    0.0131 H   0  0  0  0  0  0  0  0  0  0  0  0
    2.6961   10.1449   -0.2693 H   0  0  0  0  0  0  0  0  0  0  0  0
    2.3664   12.5592    0.1415 H   0  0  0  0  0  0  0  0  0  0  0  0
    4.1075   13.8826    1.3512 H   0  0  0  0  0  0  0  0  0  0  0  0
    6.1818   12.7438    2.1558 H   0  0  0  0  0  0  0  0  0  0  0  0
    6.5042   10.3191    1.7753 H   0  0  0  0  0  0  0  0  0  0  0  0
    2.6632    8.8548    1.9990 H   0  0  0  0  0  0  0  0  0  0  0  0
    2.4970    7.0979    2.2594 H   0  0  0  0  0  0  0  0  0  0  0  0
    1.7348    7.8711    0.8375 H   0  0  0  0  0  0  0  0  0  0  0  0
    7.2159    0.0899   -0.0583 H   0  0  0  0  0  0  0  0  0  0  0  0
    9.1660   -1.2181   -0.9026 H   0  0  0  0  0  0  0  0  0  0  0  0
    8.8096   -3.4733   -1.9157 H   0  0  0  0  0  0  0  0  0  0  0  0
    6.4958   -4.3956   -2.0887 H   0  0  0  0  0  0  0  0  0  0  0  0
    4.5703   -3.0987   -1.2471 H   0  0  0  0  0  0  0  0  0  0  0  0
    4.4338   -3.1322    1.6280 H   0  0  0  0  0  0  0  0  0  0  0  0
    3.3979   -5.3592    1.9356 H   0  0  0  0  0  0  0  0  0  0  0  0
    1.0923   -5.8076    1.0810 H   0  0  0  0  0  0  0  0  0  0  0  0
   -0.1564   -3.9947   -0.1024 H   0  0  0  0  0  0  0  0  0  0  0  0
    0.8832   -1.7788   -0.4396 H   0  0  0  0  0  0  0  0  0  0  0  0
  1  2  1  0
  1 42  1  0
  1 43  1  0
  1 44  1  0
  2  3  1  0
  2 35  1  0
  3  4  1  0
  3 27  2  0
  4  5  2  0
  4 26  1  0
  5  6  1  0
  5 45  1  0
  6  7  2  0
  6 46  1  0
  7  8  1  0
  7 26  1  0
  8  9  2  0
  8 24  1  0
  9 10  1  0
 10 11  1  0
 10 17  2  0
 11 12  2  0
 11 16  1  0
 12 13  1  0
 12 47  1  0
 13 14  2  0
 13 48  1  0
 14 15  1  0
 14 49  1  0
 15 16  2  0
 15 50  1  0
 16 51  1  0
 17 18  1  0
 17 24  1  0
 18 19  2  0
 18 23  1  0
 19 20  1  0
 19 52  1  0
 20 21  2  0
 20 53  1  0
 21 22  1  0
 21 54  1  0
 22 23  2  0
 22 55  1  0
 23 56  1  0
 24 25  1  0
 25 57  1  0
 25 58  1  0
 25 59  1  0
 27 28  1  0
 28 29  1  0
 28 35  2  0
 29 30  2  0
 29 34  1  0
 30 31  1  0
 30 60  1  0
 31 32  2  0
 31 61  1  0
 32 33  1  0
 32 62  1  0
 33 34  2  0
 33 63  1  0
 34 64  1  0
 35 36  1  0
 36 37  2  0
 36 41  1  0
 37 38  1  0
 37 65  1  0
 38 39  2  0
 38 66  1  0
 39 40  1  0
 39 67  1  0
 40 41  2  0
 40 68  1  0
 41 69  1  0
M  END

