
     RDKit          3D

 91 95  0  0  0  0  0  0  0  0999 V2000
    6.7827    6.5930   -0.2085 C   0  0  0  0  0  0  0  0  0  0  0  0
    6.0717    5.6340   -0.9404 O   0  0  0  0  0  0  0  0  0  0  0  0
    6.8482    4.9538   -1.8962 C   0  0  0  0  0  0  0  0  0  0  0  0
    5.9714    3.9452   -2.6235 C   0  0  0  0  0  0  0  0  0  0  0  0
    6.7270    3.1426   -3.6856 C   0  0  0  0  0  0  0  0  0  0  0  0
    5.8318    2.1340   -4.4081 C   0  0  0  0  0  0  0  0  0  0  0  0
    6.5282    1.2734   -5.5069 C   0  0  1  0  0  0  0  0  0  0  0  0
    5.4489    0.3100   -6.0882 C   0  0  0  0  0  0  0  0  0  0  0  0
    5.9370   -0.5351   -7.1541 N   0  0  0  0  0  0  0  0  0  0  0  0
    5.3955   -0.5223   -8.4105 C   0  0  0  0  0  0  0  0  0  0  0  0
    4.4281    0.1674   -8.6937 O   0  0  0  0  0  0  0  0  0  0  0  0
    6.1012   -1.3736   -9.4854 C   0  0  1  0  0  0  0  0  0  0  0  0
    7.0735   -2.4663   -9.0100 C   0  0  0  0  0  0  0  0  0  0  0  0
    6.3395   -3.6862   -8.4288 C   0  0  2  0  0  0  0  0  0  0  0  0
    7.3244   -4.8261   -8.1507 C   0  0  0  0  0  0  0  0  0  0  0  0
    8.2730   -5.0082   -8.9033 O   0  0  0  0  0  0  0  0  0  0  0  0
    7.0844   -5.6552   -7.0692 N   0  0  0  0  0  0  0  0  0  0  0  0
    7.9206   -6.8540   -6.9180 C   0  0  0  0  0  0  0  0  0  0  0  0
    7.1972   -8.1756   -7.2117 C   0  0  0  0  0  0  0  0  0  0  0  0
    6.6781   -8.3777   -8.6478 C   0  0  1  0  0  0  0  0  0  0  0  0
    7.8044   -8.3729   -9.6905 C   0  0  0  0  0  0  0  0  0  0  0  0
    5.8529   -9.6689   -8.7335 C   0  0  0  0  0  0  0  0  0  0  0  0
    5.9417   -5.5071   -6.2008 C   0  0  1  0  0  0  0  0  0  0  0  0
    6.0878   -5.7581   -4.7201 C   0  0  0  0  0  0  0  0  0  0  0  0
    5.8498   -4.3614   -5.2187 C   0  0  0  0  0  0  0  0  0  0  0  0
    5.2711   -4.1702   -9.4328 C   0  0  0  0  0  0  0  0  0  0  0  0
    4.3636   -3.0926   -9.7823 N   0  0  0  0  0  0  0  0  0  0  0  0
    3.2065   -3.5439  -10.5270 C   0  0  0  0  0  0  0  0  0  0  0  0
    5.0493   -1.9795  -10.4230 C   0  0  0  0  0  0  0  0  0  0  0  0
    7.0722    2.1749   -6.6206 C   0  0  0  0  0  0  0  0  0  0  0  0
    6.2127    2.9633   -7.4059 C   0  0  0  0  0  0  0  0  0  0  0  0
    6.6930    3.8120   -8.4024 C   0  0  0  0  0  0  0  0  0  0  0  0
    8.0696    3.8906   -8.6432 C   0  0  0  0  0  0  0  0  0  0  0  0
    8.9455    3.1154   -7.8898 C   0  0  0  0  0  0  0  0  0  0  0  0
    8.4446    2.2675   -6.8928 C   0  0  0  0  0  0  0  0  0  0  0  0
    9.3862    1.5413   -6.2127 O   0  0  0  0  0  0  0  0  0  0  0  0
    9.0040    0.6299   -5.2747 C   0  0  0  0  0  0  0  0  0  0  0  0
   10.0422   -0.1211   -4.7020 C   0  0  0  0  0  0  0  0  0  0  0  0
    9.7582   -1.0715   -3.7273 C   0  0  0  0  0  0  0  0  0  0  0  0
    8.4331   -1.2746   -3.3218 C   0  0  0  0  0  0  0  0  0  0  0  0
    7.4127   -0.5211   -3.9024 C   0  0  0  0  0  0  0  0  0  0  0  0
    7.6655    0.4475   -4.8918 C   0  0  0  0  0  0  0  0  0  0  0  0
    6.0865    7.0608    0.5035 H   0  0  0  0  0  0  0  0  0  0  0  0
    7.2056    7.3868   -0.8589 H   0  0  0  0  0  0  0  0  0  0  0  0
    7.6219    6.1452    0.3635 H   0  0  0  0  0  0  0  0  0  0  0  0
    7.7030    4.4371   -1.4070 H   0  0  0  0  0  0  0  0  0  0  0  0
    7.2901    5.6717   -2.6216 H   0  0  0  0  0  0  0  0  0  0  0  0
    5.1268    4.4881   -3.0826 H   0  0  0  0  0  0  0  0  0  0  0  0
    5.5296    3.2668   -1.8727 H   0  0  0  0  0  0  0  0  0  0  0  0
    7.5730    2.6123   -3.2139 H   0  0  0  0  0  0  0  0  0  0  0  0
    7.1709    3.8334   -4.4236 H   0  0  0  0  0  0  0  0  0  0  0  0
    4.9868    2.6678   -4.8758 H   0  0  0  0  0  0  0  0  0  0  0  0
    5.3799    1.4537   -3.6650 H   0  0  0  0  0  0  0  0  0  0  0  0
    4.6087    0.8797   -6.5057 H   0  0  0  0  0  0  0  0  0  0  0  0
    5.0405   -0.3031   -5.2666 H   0  0  0  0  0  0  0  0  0  0  0  0
    6.7509   -1.1080   -6.9724 H   0  0  0  0  0  0  0  0  0  0  0  0
    6.6761   -0.6336  -10.0710 H   0  0  0  0  0  0  0  0  0  0  0  0
    7.8153   -2.0760   -8.2921 H   0  0  0  0  0  0  0  0  0  0  0  0
    7.6692   -2.8100   -9.8692 H   0  0  0  0  0  0  0  0  0  0  0  0
    5.8097   -3.3931   -7.5146 H   0  0  0  0  0  0  0  0  0  0  0  0
    8.3126   -6.8869   -5.8886 H   0  0  0  0  0  0  0  0  0  0  0  0
    8.7786   -6.7172   -7.5861 H   0  0  0  0  0  0  0  0  0  0  0  0
    6.3550   -8.2888   -6.5059 H   0  0  0  0  0  0  0  0  0  0  0  0
    7.9001   -8.9943   -6.9688 H   0  0  0  0  0  0  0  0  0  0  0  0
    6.0004   -7.5351   -8.8826 H   0  0  0  0  0  0  0  0  0  0  0  0
    8.5419   -9.1666   -9.4763 H   0  0  0  0  0  0  0  0  0  0  0  0
    8.3306   -7.4074   -9.7200 H   0  0  0  0  0  0  0  0  0  0  0  0
    7.4026   -8.5615  -10.6995 H   0  0  0  0  0  0  0  0  0  0  0  0
    6.4775  -10.5517   -8.5111 H   0  0  0  0  0  0  0  0  0  0  0  0
    5.4312   -9.8083   -9.7420 H   0  0  0  0  0  0  0  0  0  0  0  0
    5.0153   -9.6667   -8.0163 H   0  0  0  0  0  0  0  0  0  0  0  0
    4.9863   -5.8336   -6.6327 H   0  0  0  0  0  0  0  0  0  0  0  0
    7.0825   -5.9886   -4.3317 H   0  0  0  0  0  0  0  0  0  0  0  0
    5.2758   -6.2900   -4.2171 H   0  0  0  0  0  0  0  0  0  0  0  0
    6.6953   -3.6692   -5.1808 H   0  0  0  0  0  0  0  0  0  0  0  0
    4.8719   -3.8963   -5.0656 H   0  0  0  0  0  0  0  0  0  0  0  0
    4.6857   -4.9926   -8.9892 H   0  0  0  0  0  0  0  0  0  0  0  0
    5.7895   -4.5904  -10.3270 H   0  0  0  0  0  0  0  0  0  0  0  0
    2.6715   -4.3244   -9.9618 H   0  0  0  0  0  0  0  0  0  0  0  0
    3.4607   -3.9672  -11.5269 H   0  0  0  0  0  0  0  0  0  0  0  0
    2.5121   -2.7042  -10.6851 H   0  0  0  0  0  0  0  0  0  0  0  0
    4.3126   -1.2030  -10.6698 H   0  0  0  0  0  0  0  0  0  0  0  0
    5.5458   -2.2965  -11.3705 H   0  0  0  0  0  0  0  0  0  0  0  0
    5.1352    2.9037   -7.2423 H   0  0  0  0  0  0  0  0  0  0  0  0
    5.9927    4.4056   -8.9941 H   0  0  0  0  0  0  0  0  0  0  0  0
    8.4597    4.5511   -9.4215 H   0  0  0  0  0  0  0  0  0  0  0  0
   10.0249    3.1425   -8.0514 H   0  0  0  0  0  0  0  0  0  0  0  0
   11.0620    0.0660   -5.0436 H   0  0  0  0  0  0  0  0  0  0  0  0
   10.5694   -1.6535   -3.2830 H   0  0  0  0  0  0  0  0  0  0  0  0
    8.1959   -2.0133   -2.5529 H   0  0  0  0  0  0  0  0  0  0  0  0
    6.3849   -0.6844   -3.5698 H   0  0  0  0  0  0  0  0  0  0  0  0
  1  2  1  0
  1 43  1  0
  1 44  1  0
  1 45  1  0
  2  3  1  0
  3  4  1  0
  3 46  1  0
  3 47  1  0
  4  5  1  0
  4 48  1  0
  4 49  1  0
  5  6  1  0
  5 50  1  0
  5 51  1  0
  7  6  1  1
  6 52  1  0
  6 53  1  0
  7  8  1  0
  7 30  1  0
  7 42  1  0
  8  9  1  0
  8 54  1  0
  8 55  1  0
  9 10  1  0
  9 56  1  0
 10 11  2  0
 10 12  1  0
 12 13  1  0
 12 29  1  0
 12 57  1  6
 13 14  1  0
 13 58  1  0
 13 59  1  0
 14 15  1  0
 14 26  1  0
 14 60  1  1
 15 16  2  0
 15 17  1  0
 17 18  1  0
 17 23  1  0
 18 19  1  0
 18 61  1  0
 18 62  1  0
 19 20  1  0
 19 63  1  0
 19 64  1  0
 20 21  1  0
 20 22  1  0
 20 65  1  6
 21 66  1  0
 21 67  1  0
 21 68  1  0
 22 69  1  0
 22 70  1  0
 22 71  1  0
 23 24  1  0
 23 25  1  0
 23 72  1  6
 24 25  1  0
 24 73  1  0
 24 74  1  0
 25 75  1  0
 25 76  1  0
 26 27  1  0
 26 77  1  0
 26 78  1  0
 27 28  1  0
 27 29  1  0
 28 79  1  0
 28 80  1  0
 28 81  1  0
 29 82  1  0
 29 83  1  0
 30 31  2  0
 30 35  1  0
 31 32  1  0
 31 84  1  0
 32 33  2  0
 32 85  1  0
 33 34  1  0
 33 86  1  0
 34 35  2  0
 34 87  1  0
 35 36  1  0
 36 37  1  0
 37 38  2  0
 37 42  1  0
 38 39  1  0
 38 88  1  0
 39 40  2  0
 39 89  1  0
 40 41  1  0
 40 90  1  0
 41 42  2  0
 41 91  1  0
M  END

