
     RDKit          3D

 50 53  0  0  0  0  0  0  0  0999 V2000
    2.6730   -0.1678    3.6259 O   0  0  0  0  0  0  0  0  0  0  0  0
    3.6582   -0.1650    2.9102 C   0  0  0  0  0  0  0  0  0  0  0  0
    3.5292    0.1489    1.3751 C   0  0  0  0  0  0  0  0  0  0  0  0
    2.2103   -0.1116    0.8894 N   0  0  0  0  0  0  0  0  0  0  0  0
    1.1360    0.7806    1.2596 C   0  0  0  0  0  0  0  0  0  0  0  0
   -0.0578    0.6340    0.3043 C   0  0  0  0  0  0  0  0  0  0  0  0
   -0.3938   -0.7097    0.1428 O   0  0  0  0  0  0  0  0  0  0  0  0
    0.6371   -1.4648   -0.4959 C   0  0  2  0  0  0  0  0  0  0  0  0
    0.1980   -2.9097   -0.7110 C   0  0  0  0  0  0  0  0  0  0  0  0
    0.5193   -3.7121    0.2863 N   0  0  0  0  0  0  0  0  0  0  0  0
    0.2341   -5.0442    0.1594 C   0  0  0  0  0  0  0  0  0  0  0  0
   -0.2367   -5.5190   -1.0689 C   0  0  0  0  0  0  0  0  0  0  0  0
   -0.5330   -4.7484   -2.0966 N   0  0  0  0  0  0  0  0  0  0  0  0
   -0.4105   -3.3636   -1.9260 C   0  0  0  0  0  0  0  0  0  0  0  0
   -0.8321   -2.5426   -3.0466 C   0  0  0  0  0  0  0  0  0  0  0  0
   -0.9475   -3.1387   -4.3402 C   0  0  0  0  0  0  0  0  0  0  0  0
   -1.3138   -2.3951   -5.4532 C   0  0  0  0  0  0  0  0  0  0  0  0
   -1.6089   -1.0221   -5.3608 C   0  0  0  0  0  0  0  0  0  0  0  0
   -1.5450   -0.4535   -4.0895 C   0  0  0  0  0  0  0  0  0  0  0  0
   -1.8754    0.8553   -3.9430 F   0  0  0  0  0  0  0  0  0  0  0  0
   -1.1873   -1.1636   -2.9548 C   0  0  0  0  0  0  0  0  0  0  0  0
    1.8823   -1.4403    0.4056 C   0  0  0  0  0  0  0  0  0  0  0  0
    4.9148   -0.3726    3.3521 N   0  0  0  0  0  0  0  0  0  0  0  0
    5.1577   -0.5855    4.7931 C   0  0  0  0  0  0  0  0  0  0  0  0
    6.6671   -0.3706    4.9314 C   0  0  0  0  0  0  0  0  0  0  0  0
    7.2158   -0.8517    3.5808 C   0  0  0  0  0  0  0  0  0  0  0  0
    6.1642   -0.3682    2.5713 C   0  0  0  0  0  0  0  0  0  0  0  0
    4.2456   -0.4445    0.7954 H   0  0  0  0  0  0  0  0  0  0  0  0
    3.7669    1.2174    1.2462 H   0  0  0  0  0  0  0  0  0  0  0  0
    1.5210    1.8108    1.2993 H   0  0  0  0  0  0  0  0  0  0  0  0
    0.8538    0.4949    2.2941 H   0  0  0  0  0  0  0  0  0  0  0  0
    0.1817    1.1151   -0.6647 H   0  0  0  0  0  0  0  0  0  0  0  0
   -0.9232    1.1571    0.7357 H   0  0  0  0  0  0  0  0  0  0  0  0
    0.8760   -0.9920   -1.4639 H   0  0  0  0  0  0  0  0  0  0  0  0
    0.4730   -5.7062    0.9940 H   0  0  0  0  0  0  0  0  0  0  0  0
   -0.3503   -6.6039   -1.2145 H   0  0  0  0  0  0  0  0  0  0  0  0
   -0.7296   -4.2029   -4.4241 H   0  0  0  0  0  0  0  0  0  0  0  0
   -1.3731   -2.8871   -6.4287 H   0  0  0  0  0  0  0  0  0  0  0  0
   -1.8999   -0.4199   -6.2222 H   0  0  0  0  0  0  0  0  0  0  0  0
   -1.2813   -0.6612   -1.9955 H   0  0  0  0  0  0  0  0  0  0  0  0
    2.7617   -1.8578   -0.1010 H   0  0  0  0  0  0  0  0  0  0  0  0
    1.6492   -2.1017    1.2652 H   0  0  0  0  0  0  0  0  0  0  0  0
    4.8562   -1.6094    5.0737 H   0  0  0  0  0  0  0  0  0  0  0  0
    4.5447    0.1092    5.3840 H   0  0  0  0  0  0  0  0  0  0  0  0
    7.0905   -0.9133    5.7881 H   0  0  0  0  0  0  0  0  0  0  0  0
    6.8863    0.7007    5.0736 H   0  0  0  0  0  0  0  0  0  0  0  0
    7.2694   -1.9523    3.5628 H   0  0  0  0  0  0  0  0  0  0  0  0
    8.2188   -0.4661    3.3495 H   0  0  0  0  0  0  0  0  0  0  0  0
    6.0994   -1.0321    1.6952 H   0  0  0  0  0  0  0  0  0  0  0  0
    6.3952    0.6498    2.2088 H   0  0  0  0  0  0  0  0  0  0  0  0
  1  2  2  0
  2  3  1  0
  2 23  1  0
  3  4  1  0
  3 28  1  0
  3 29  1  0
  4  5  1  0
  4 22  1  0
  5  6  1  0
  5 30  1  0
  5 31  1  0
  6  7  1  0
  6 32  1  0
  6 33  1  0
  7  8  1  0
  8  9  1  0
  8 22  1  0
  8 34  1  6
  9 10  2  0
  9 14  1  0
 10 11  1  0
 11 12  2  0
 11 35  1  0
 12 13  1  0
 12 36  1  0
 13 14  2  0
 14 15  1  0
 15 16  2  0
 15 21  1  0
 16 17  1  0
 16 37  1  0
 17 18  2  0
 17 38  1  0
 18 19  1  0
 18 39  1  0
 19 20  1  0
 19 21  2  0
 21 40  1  0
 22 41  1  0
 22 42  1  0
 23 24  1  0
 23 27  1  0
 24 25  1  0
 24 43  1  0
 24 44  1  0
 25 26  1  0
 25 45  1  0
 25 46  1  0
 26 27  1  0
 26 47  1  0
 26 48  1  0
 27 49  1  0
 27 50  1  0
M  END

