
     RDKit          3D

 37 39  0  0  0  0  0  0  0  0999 V2000
    0.6992   -0.1519    1.8284 O   0  0  0  0  0  0  0  0  0  0  0  0
    1.6144    0.2476    0.7599 S   0  0  1  0  0  0  0  0  0  0  0  0
    2.4173    1.4710    0.8793 O   0  0  0  0  0  0  0  0  0  0  0  0
    2.7976   -0.9608    0.5462 N   0  0  0  0  0  0  0  0  0  0  0  0
    2.6230   -2.3129    0.2442 C   0  0  0  0  0  0  0  0  0  0  0  0
    1.4158   -2.9772    0.6074 C   0  0  0  0  0  0  0  0  0  0  0  0
    1.2732   -4.3670    0.3055 C   0  0  0  0  0  0  0  0  0  0  0  0
    2.3502   -4.9940   -0.3255 C   0  0  0  0  0  0  0  0  0  0  0  0
    3.5688   -4.3508   -0.6877 C   0  0  0  0  0  0  0  0  0  0  0  0
    3.7014   -2.9597   -0.4135 C   0  0  0  0  0  0  0  0  0  0  0  0
    4.4830   -5.3159   -1.3701 C   0  0  0  0  0  0  0  0  0  0  0  0
    3.7159   -6.6616   -1.2895 C   0  0  0  0  0  0  0  0  0  0  0  0
    2.4343   -6.3141   -0.6991 N   0  0  0  0  0  0  0  0  0  0  0  0
    0.6598    0.2354   -0.8154 C   0  0  1  0  0  0  0  0  0  0  0  0
   -0.6147    1.0827   -0.6652 C   0  0  0  0  0  0  0  0  0  0  0  0
   -0.3329    2.5765   -0.8458 C   0  0  0  0  0  0  0  0  0  0  0  0
    0.3337    2.8273   -2.0684 O   0  0  0  0  0  0  0  0  0  0  0  0
    1.6076    2.2133   -2.1243 C   0  0  0  0  0  0  0  0  0  0  0  0
    1.4998    0.6868   -2.0190 C   0  0  0  0  0  0  0  0  0  0  0  0
    3.7067   -0.5452    0.3591 H   0  0  0  0  0  0  0  0  0  0  0  0
    0.6804   -2.4586    1.2192 H   0  0  0  0  0  0  0  0  0  0  0  0
    0.3768   -4.9190    0.5931 H   0  0  0  0  0  0  0  0  0  0  0  0
    4.5741   -2.3866   -0.7330 H   0  0  0  0  0  0  0  0  0  0  0  0
    5.4817   -5.4041   -0.8905 H   0  0  0  0  0  0  0  0  0  0  0  0
    4.6977   -5.0537   -2.4326 H   0  0  0  0  0  0  0  0  0  0  0  0
    4.2384   -7.4057   -0.6577 H   0  0  0  0  0  0  0  0  0  0  0  0
    3.5687   -7.1358   -2.2777 H   0  0  0  0  0  0  0  0  0  0  0  0
    1.6977   -6.9904   -0.5321 H   0  0  0  0  0  0  0  0  0  0  0  0
    0.4016   -0.8336   -0.8926 H   0  0  0  0  0  0  0  0  0  0  0  0
   -1.0977    0.8824    0.3032 H   0  0  0  0  0  0  0  0  0  0  0  0
   -1.3121    0.7564   -1.4556 H   0  0  0  0  0  0  0  0  0  0  0  0
    0.2628    2.9600    0.0057 H   0  0  0  0  0  0  0  0  0  0  0  0
   -1.2772    3.1409   -0.8786 H   0  0  0  0  0  0  0  0  0  0  0  0
    2.2586    2.6010   -1.3198 H   0  0  0  0  0  0  0  0  0  0  0  0
    2.0504    2.4934   -3.0924 H   0  0  0  0  0  0  0  0  0  0  0  0
    2.4994    0.2230   -2.0021 H   0  0  0  0  0  0  0  0  0  0  0  0
    0.9917    0.3035   -2.9204 H   0  0  0  0  0  0  0  0  0  0  0  0
  1  2  2  0
  2  3  2  0
  2  4  1  6
  2 14  1  0
  4  5  1  0
  4 20  1  0
  5  6  2  0
  5 10  1  0
  6  7  1  0
  6 21  1  0
  7  8  2  0
  7 22  1  0
  8  9  1  0
  8 13  1  0
  9 10  2  0
  9 11  1  0
 10 23  1  0
 11 12  1  0
 11 24  1  0
 11 25  1  0
 12 13  1  0
 12 26  1  0
 12 27  1  0
 13 28  1  0
 14 15  1  0
 14 19  1  0
 14 29  1  6
 15 16  1  0
 15 30  1  0
 15 31  1  0
 16 17  1  0
 16 32  1  0
 16 33  1  0
 17 18  1  0
 18 19  1  0
 18 34  1  0
 18 35  1  0
 19 36  1  0
 19 37  1  0
M  END

