
     RDKit          3D

 86 91  0  0  0  0  0  0  0  0999 V2000
    1.0766   -0.0511    0.1247 C   0  0  0  0  0  0  0  0  0  0  0  0
    2.3579   -0.2045   -0.2482 C   0  0  0  0  0  0  0  0  0  0  0  0
    3.4140    0.8426   -0.2963 C   0  0  0  0  0  0  0  0  0  0  0  0
    3.2318    2.1288    0.0953 C   0  0  0  0  0  0  0  0  0  0  0  0
    4.1518    3.2544    0.0731 C   0  0  0  0  0  0  0  0  0  0  0  0
    3.9265    4.4628    0.6856 C   0  0  0  0  0  0  0  0  0  0  0  0
    2.7629    4.9017    1.5138 C   0  0  0  0  0  0  0  0  0  0  0  0
    5.0915    5.3961    0.3980 C   0  0  1  0  0  0  0  0  0  0  0  0
    5.7494    5.9902    1.6361 C   0  0  0  0  0  0  0  0  0  0  0  0
    6.3447    5.1528    2.5962 C   0  0  0  0  0  0  0  0  0  0  0  0
    6.9527    5.6843    3.7316 C   0  0  0  0  0  0  0  0  0  0  0  0
    6.9923    7.0726    3.9576 C   0  0  0  0  0  0  0  0  0  0  0  0
    7.6544    7.6341    5.1926 C   0  0  0  0  0  0  0  0  0  0  0  0
    6.3976    7.9033    3.0002 C   0  0  0  0  0  0  0  0  0  0  0  0
    5.7862    7.3713    1.8584 C   0  0  0  0  0  0  0  0  0  0  0  0
    6.0163    4.5513   -0.4643 C   0  0  0  0  0  0  0  0  0  0  0  0
    7.3089    5.0592   -1.0174 C   0  0  0  0  0  0  0  0  0  0  0  0
    5.4523    3.3367   -0.6342 C   0  0  0  0  0  0  0  0  0  0  0  0
    4.6998    0.2092   -0.8151 C   0  0  0  0  0  0  0  0  0  0  0  0
    4.4528   -1.2767   -0.7013 C   0  0  0  0  0  0  0  0  0  0  0  0
    5.3468   -2.2482   -0.4930 C   0  0  0  0  0  0  0  0  0  0  0  0
    4.9802   -3.7066   -0.3232 C   0  0  2  0  0  0  0  0  0  0  0  0
    5.9423   -4.5952   -1.1301 C   0  0  0  0  0  0  0  0  0  0  0  0
    3.5006   -3.9633   -0.6982 C   0  0  1  0  0  0  0  0  0  0  0  0
    2.9830   -5.3678   -0.4116 C   0  0  0  0  0  0  0  0  0  0  0  0
    3.3432   -6.0870    0.6606 C   0  0  0  0  0  0  0  0  0  0  0  0
    1.9885   -5.9200   -1.4154 C   0  0  0  0  0  0  0  0  0  0  0  0
    2.6335   -6.4759   -2.6987 C   0  0  0  0  0  0  0  0  0  0  0  0
    1.6083   -6.9758   -3.7176 C   0  0  0  0  0  0  0  0  0  0  0  0
    2.5299   -2.8610   -0.1218 C   0  0  1  0  0  0  0  0  0  0  0  0
    2.3827   -2.8830    1.3957 C   0  0  0  0  0  0  0  0  0  0  0  0
    3.3008   -2.2797    2.2756 C   0  0  0  0  0  0  0  0  0  0  0  0
    3.1332   -2.3426    3.6640 C   0  0  0  0  0  0  0  0  0  0  0  0
    2.0377   -3.0210    4.1979 C   0  0  0  0  0  0  0  0  0  0  0  0
    1.1104   -3.6264    3.3364 C   0  0  0  0  0  0  0  0  0  0  0  0
    1.2791   -3.5549    1.9541 C   0  0  0  0  0  0  0  0  0  0  0  0
   -0.0020   -4.2760    4.1337 C   0  0  0  0  0  0  0  0  0  0  0  0
    0.5953   -4.3674    5.5590 C   0  0  0  0  0  0  0  0  0  0  0  0
    1.6228   -3.2125    5.6413 C   0  0  0  0  0  0  0  0  0  0  0  0
    2.9587   -1.5160   -0.7539 C   0  0  1  0  0  0  0  0  0  0  0  0
    0.6754    0.9144    0.4431 H   0  0  0  0  0  0  0  0  0  0  0  0
    0.3828   -0.8944    0.1371 H   0  0  0  0  0  0  0  0  0  0  0  0
    2.2441    2.3676    0.4998 H   0  0  0  0  0  0  0  0  0  0  0  0
    1.9808    4.1329    1.5836 H   0  0  0  0  0  0  0  0  0  0  0  0
    2.3000    5.8168    1.1024 H   0  0  0  0  0  0  0  0  0  0  0  0
    3.0770    5.1518    2.5429 H   0  0  0  0  0  0  0  0  0  0  0  0
    4.7168    6.2380   -0.2182 H   0  0  0  0  0  0  0  0  0  0  0  0
    6.3283    4.0700    2.4445 H   0  0  0  0  0  0  0  0  0  0  0  0
    7.4088    5.0085    4.4617 H   0  0  0  0  0  0  0  0  0  0  0  0
    7.1685    7.2651    6.1117 H   0  0  0  0  0  0  0  0  0  0  0  0
    7.6131    8.7333    5.2101 H   0  0  0  0  0  0  0  0  0  0  0  0
    8.7150    7.3365    5.2504 H   0  0  0  0  0  0  0  0  0  0  0  0
    6.4108    8.9875    3.1452 H   0  0  0  0  0  0  0  0  0  0  0  0
    5.3317    8.0480    1.1286 H   0  0  0  0  0  0  0  0  0  0  0  0
    7.1560    5.9459   -1.6582 H   0  0  0  0  0  0  0  0  0  0  0  0
    7.8156    4.2907   -1.6204 H   0  0  0  0  0  0  0  0  0  0  0  0
    7.9968    5.3721   -0.2124 H   0  0  0  0  0  0  0  0  0  0  0  0
    5.8804    2.5399   -1.2407 H   0  0  0  0  0  0  0  0  0  0  0  0
    5.5951    0.5303   -0.2630 H   0  0  0  0  0  0  0  0  0  0  0  0
    4.8629    0.4861   -1.8759 H   0  0  0  0  0  0  0  0  0  0  0  0
    6.4117   -1.9974   -0.4138 H   0  0  0  0  0  0  0  0  0  0  0  0
    5.1215   -3.9552    0.7463 H   0  0  0  0  0  0  0  0  0  0  0  0
    5.8541   -4.3906   -2.2104 H   0  0  0  0  0  0  0  0  0  0  0  0
    5.7382   -5.6630   -0.9658 H   0  0  0  0  0  0  0  0  0  0  0  0
    6.9881   -4.4014   -0.8408 H   0  0  0  0  0  0  0  0  0  0  0  0
    3.4445   -3.8256   -1.7938 H   0  0  0  0  0  0  0  0  0  0  0  0
    4.0632   -5.7236    1.3975 H   0  0  0  0  0  0  0  0  0  0  0  0
    2.9140   -7.0768    0.8448 H   0  0  0  0  0  0  0  0  0  0  0  0
    1.2700   -5.1277   -1.6985 H   0  0  0  0  0  0  0  0  0  0  0  0
    1.3933   -6.7200   -0.9435 H   0  0  0  0  0  0  0  0  0  0  0  0
    3.3184   -7.2961   -2.4220 H   0  0  0  0  0  0  0  0  0  0  0  0
    3.2662   -5.6997   -3.1640 H   0  0  0  0  0  0  0  0  0  0  0  0
    0.9789   -7.7764   -3.2938 H   0  0  0  0  0  0  0  0  0  0  0  0
    2.0980   -7.3795   -4.6182 H   0  0  0  0  0  0  0  0  0  0  0  0
    0.9341   -6.1646   -4.0406 H   0  0  0  0  0  0  0  0  0  0  0  0
    1.5327   -3.1035   -0.5228 H   0  0  0  0  0  0  0  0  0  0  0  0
    4.1601   -1.7427    1.8736 H   0  0  0  0  0  0  0  0  0  0  0  0
    3.8640   -1.8591    4.3191 H   0  0  0  0  0  0  0  0  0  0  0  0
    0.5494   -4.0296    1.2911 H   0  0  0  0  0  0  0  0  0  0  0  0
   -0.3108   -5.2551    3.7331 H   0  0  0  0  0  0  0  0  0  0  0  0
   -0.9028   -3.6332    4.1231 H   0  0  0  0  0  0  0  0  0  0  0  0
    1.1241   -5.3291    5.6676 H   0  0  0  0  0  0  0  0  0  0  0  0
   -0.1680   -4.3239    6.3508 H   0  0  0  0  0  0  0  0  0  0  0  0
    2.4677   -3.4346    6.3131 H   0  0  0  0  0  0  0  0  0  0  0  0
    1.1496   -2.2892    6.0264 H   0  0  0  0  0  0  0  0  0  0  0  0
    2.6793   -1.5815   -1.8264 H   0  0  0  0  0  0  0  0  0  0  0  0
  1  2  2  0
  1 41  1  0
  1 42  1  0
  2  3  1  0
  2 40  1  0
  3  4  2  0
  3 19  1  0
  4  5  1  0
  4 43  1  0
  5  6  2  0
  5 18  1  0
  6  7  1  0
  6  8  1  0
  7 44  1  0
  7 45  1  0
  7 46  1  0
  8  9  1  0
  8 16  1  0
  8 47  1  6
  9 10  2  0
  9 15  1  0
 10 11  1  0
 10 48  1  0
 11 12  2  0
 11 49  1  0
 12 13  1  0
 12 14  1  0
 13 50  1  0
 13 51  1  0
 13 52  1  0
 14 15  2  0
 14 53  1  0
 15 54  1  0
 16 17  1  0
 16 18  2  0
 17 55  1  0
 17 56  1  0
 17 57  1  0
 18 58  1  0
 19 20  1  0
 19 59  1  0
 19 60  1  0
 20 21  2  0
 20 40  1  0
 21 22  1  0
 21 61  1  0
 22 23  1  0
 22 24  1  0
 22 62  1  1
 23 63  1  0
 23 64  1  0
 23 65  1  0
 24 25  1  0
 24 30  1  0
 24 66  1  6
 25 26  2  0
 25 27  1  0
 26 67  1  0
 26 68  1  0
 27 28  1  0
 27 69  1  0
 27 70  1  0
 28 29  1  0
 28 71  1  0
 28 72  1  0
 29 73  1  0
 29 74  1  0
 29 75  1  0
 30 31  1  0
 30 40  1  0
 30 76  1  6
 31 32  2  0
 31 36  1  0
 32 33  1  0
 32 77  1  0
 33 34  2  0
 33 78  1  0
 34 35  1  0
 34 39  1  0
 35 36  2  0
 35 37  1  0
 36 79  1  0
 37 38  1  0
 37 80  1  0
 37 81  1  0
 38 39  1  0
 38 82  1  0
 38 83  1  0
 39 84  1  0
 39 85  1  0
 40 86  1  6
M  END

