
     RDKit          3D

 44 44  0  0  0  0  0  0  0  0999 V2000
    1.1603    3.6173    1.6171 C   0  0  0  0  0  0  0  0  0  0  0  0
    2.5604    3.5895    1.6207 O   0  0  0  0  0  0  0  0  0  0  0  0
    3.1277    3.1119    0.4239 C   0  0  0  0  0  0  0  0  0  0  0  0
    4.6444    3.1112    0.5486 C   0  0  0  0  0  0  0  0  0  0  0  0
    5.1626    2.2069    1.6699 C   0  0  0  0  0  0  0  0  0  0  0  0
    6.6755    2.2190    1.8244 C   0  0  0  0  0  0  0  0  0  0  0  0
    7.0841    3.5342    2.1716 O   0  0  0  0  0  0  0  0  0  0  0  0
    8.3972    3.8035    2.3717 C   0  0  0  0  0  0  0  0  0  0  0  0
    8.7035    5.1340    2.7078 C   0  0  0  0  0  0  0  0  0  0  0  0
   10.0308    5.4718    2.9250 C   0  0  0  0  0  0  0  0  0  0  0  0
   10.3299    6.7431    3.2396 F   0  0  0  0  0  0  0  0  0  0  0  0
   11.0688    4.5455    2.8220 C   0  0  0  0  0  0  0  0  0  0  0  0
   10.7569    3.2215    2.4947 C   0  0  0  0  0  0  0  0  0  0  0  0
   11.8570    2.1780    2.4328 C   0  0  0  0  0  0  0  0  0  0  0  0
   11.5689    1.1071    1.4977 N   0  0  0  0  0  0  0  0  0  0  0  0
   12.5506    0.0399    1.4762 C   0  0  0  0  0  0  0  0  0  0  0  0
   12.2032   -0.9836    0.4105 C   0  0  0  0  0  0  0  0  0  0  0  0
   12.2358   -0.3443   -0.8457 O   0  0  0  0  0  0  0  0  0  0  0  0
   11.8698   -1.1687   -1.9190 C   0  0  0  0  0  0  0  0  0  0  0  0
    9.4220    2.8505    2.2662 C   0  0  0  0  0  0  0  0  0  0  0  0
    0.8263    4.0053    2.5907 H   0  0  0  0  0  0  0  0  0  0  0  0
    0.7226    2.6078    1.4716 H   0  0  0  0  0  0  0  0  0  0  0  0
    0.7582    4.2762    0.8197 H   0  0  0  0  0  0  0  0  0  0  0  0
    2.8174    3.7484   -0.4323 H   0  0  0  0  0  0  0  0  0  0  0  0
    2.7577    2.0851    0.2063 H   0  0  0  0  0  0  0  0  0  0  0  0
    4.9874    4.1429    0.7270 H   0  0  0  0  0  0  0  0  0  0  0  0
    5.0703    2.7965   -0.4212 H   0  0  0  0  0  0  0  0  0  0  0  0
    4.8531    1.1622    1.4860 H   0  0  0  0  0  0  0  0  0  0  0  0
    4.6995    2.5110    2.6217 H   0  0  0  0  0  0  0  0  0  0  0  0
    7.1689    1.9096    0.8828 H   0  0  0  0  0  0  0  0  0  0  0  0
    6.9878    1.5076    2.6112 H   0  0  0  0  0  0  0  0  0  0  0  0
    7.9126    5.8799    2.7902 H   0  0  0  0  0  0  0  0  0  0  0  0
   12.0967    4.8702    2.9951 H   0  0  0  0  0  0  0  0  0  0  0  0
   11.9678    1.7257    3.4376 H   0  0  0  0  0  0  0  0  0  0  0  0
   12.8256    2.6887    2.2326 H   0  0  0  0  0  0  0  0  0  0  0  0
   11.4686    1.4778    0.5524 H   0  0  0  0  0  0  0  0  0  0  0  0
   12.5646   -0.4647    2.4590 H   0  0  0  0  0  0  0  0  0  0  0  0
   13.5874    0.4025    1.2909 H   0  0  0  0  0  0  0  0  0  0  0  0
   11.1931   -1.3988    0.6074 H   0  0  0  0  0  0  0  0  0  0  0  0
   12.9262   -1.8254    0.4420 H   0  0  0  0  0  0  0  0  0  0  0  0
   11.9285   -0.5710   -2.8405 H   0  0  0  0  0  0  0  0  0  0  0  0
   10.8353   -1.5546   -1.8135 H   0  0  0  0  0  0  0  0  0  0  0  0
   12.5476   -2.0408   -2.0217 H   0  0  0  0  0  0  0  0  0  0  0  0
    9.2195    1.8142    2.0021 H   0  0  0  0  0  0  0  0  0  0  0  0
  1  2  1  0
  1 21  1  0
  1 22  1  0
  1 23  1  0
  2  3  1  0
  3  4  1  0
  3 24  1  0
  3 25  1  0
  4  5  1  0
  4 26  1  0
  4 27  1  0
  5  6  1  0
  5 28  1  0
  5 29  1  0
  6  7  1  0
  6 30  1  0
  6 31  1  0
  7  8  1  0
  8  9  2  0
  8 20  1  0
  9 10  1  0
  9 32  1  0
 10 11  1  0
 10 12  2  0
 12 13  1  0
 12 33  1  0
 13 14  1  0
 13 20  2  0
 14 15  1  0
 14 34  1  0
 14 35  1  0
 15 16  1  0
 15 36  1  0
 16 17  1  0
 16 37  1  0
 16 38  1  0
 17 18  1  0
 17 39  1  0
 17 40  1  0
 18 19  1  0
 19 41  1  0
 19 42  1  0
 19 43  1  0
 20 44  1  0
M  END

