
     RDKit          3D

 50 53  0  0  0  0  0  0  0  0999 V2000
    1.7550   -0.3456   -1.4928 O   0  0  0  0  0  0  0  0  0  0  0  0
    2.2729    0.0019   -0.4400 C   0  0  0  0  0  0  0  0  0  0  0  0
    2.0506    1.2234    0.1206 N   0  0  0  0  0  0  0  0  0  0  0  0
    1.1622    2.2061   -0.4884 C   0  0  1  0  0  0  0  0  0  0  0  0
   -0.3260    1.9341   -0.1761 C   0  0  0  0  0  0  0  0  0  0  0  0
   -0.6838    2.0543    1.3109 C   0  0  0  0  0  0  0  0  0  0  0  0
   -0.3494    3.4233    1.9073 C   0  0  0  0  0  0  0  0  0  0  0  0
    1.4312    3.8582    1.7614 S   0  0  0  0  0  0  0  0  0  0  0  0
    1.5856    3.6140   -0.0504 C   0  0  0  0  0  0  0  0  0  0  0  0
    3.2044   -0.9216    0.3135 C   0  0  0  0  0  0  0  0  0  0  0  0
    3.1505   -2.2875   -0.0261 C   0  0  0  0  0  0  0  0  0  0  0  0
    3.9729   -3.2326    0.5981 C   0  0  0  0  0  0  0  0  0  0  0  0
    4.8632   -2.7706    1.5612 C   0  0  0  0  0  0  0  0  0  0  0  0
    4.9351   -1.4189    1.8919 C   0  0  0  0  0  0  0  0  0  0  0  0
    4.1196   -0.4728    1.2850 C   0  0  0  0  0  0  0  0  0  0  0  0
    5.9964   -1.2550    2.9278 C   0  0  0  0  0  0  0  0  0  0  0  0
    6.3636   -0.2368    3.4662 O   0  0  0  0  0  0  0  0  0  0  0  0
    6.5151   -2.5471    3.1755 N   0  0  0  0  0  0  0  0  0  0  0  0
    7.6095   -2.7182    4.1550 C   0  0  1  0  0  0  0  0  0  0  0  0
    7.2429   -3.5839    5.3811 C   0  0  0  0  0  0  0  0  0  0  0  0
    7.4667   -5.0940    5.2146 C   0  0  0  0  0  0  0  0  0  0  0  0
    8.8743   -5.3990    4.6842 C   0  0  0  0  0  0  0  0  0  0  0  0
    9.1473   -4.6617    3.3667 C   0  0  0  0  0  0  0  0  0  0  0  0
    8.9541   -3.1471    3.5247 C   0  0  0  0  0  0  0  0  0  0  0  0
    5.8728   -3.5125    2.3821 C   0  0  0  0  0  0  0  0  0  0  0  0
    6.0918   -4.7028    2.3597 O   0  0  0  0  0  0  0  0  0  0  0  0
    2.3650    1.4265    1.0646 H   0  0  0  0  0  0  0  0  0  0  0  0
    1.2967    2.1173   -1.5780 H   0  0  0  0  0  0  0  0  0  0  0  0
   -0.5773    0.9298   -0.5498 H   0  0  0  0  0  0  0  0  0  0  0  0
   -0.9325    2.6482   -0.7621 H   0  0  0  0  0  0  0  0  0  0  0  0
   -0.1612    1.2712    1.8861 H   0  0  0  0  0  0  0  0  0  0  0  0
   -1.7638    1.8657    1.4413 H   0  0  0  0  0  0  0  0  0  0  0  0
   -0.5714    3.4587    2.9846 H   0  0  0  0  0  0  0  0  0  0  0  0
   -0.9400    4.2196    1.4225 H   0  0  0  0  0  0  0  0  0  0  0  0
    2.6422    3.8007   -0.2946 H   0  0  0  0  0  0  0  0  0  0  0  0
    0.9780    4.3689   -0.5745 H   0  0  0  0  0  0  0  0  0  0  0  0
    2.4434   -2.5825   -0.8037 H   0  0  0  0  0  0  0  0  0  0  0  0
    3.9267   -4.2924    0.3388 H   0  0  0  0  0  0  0  0  0  0  0  0
    4.2226    0.5812    1.5521 H   0  0  0  0  0  0  0  0  0  0  0  0
    7.7370   -1.6878    4.5145 H   0  0  0  0  0  0  0  0  0  0  0  0
    6.2056   -3.3666    5.6848 H   0  0  0  0  0  0  0  0  0  0  0  0
    7.8824   -3.2262    6.2082 H   0  0  0  0  0  0  0  0  0  0  0  0
    6.7228   -5.5089    4.5187 H   0  0  0  0  0  0  0  0  0  0  0  0
    7.3107   -5.5886    6.1885 H   0  0  0  0  0  0  0  0  0  0  0  0
    8.9987   -6.4857    4.5445 H   0  0  0  0  0  0  0  0  0  0  0  0
    9.6264   -5.0949    5.4375 H   0  0  0  0  0  0  0  0  0  0  0  0
    8.4706   -5.0487    2.5900 H   0  0  0  0  0  0  0  0  0  0  0  0
   10.1776   -4.8591    3.0251 H   0  0  0  0  0  0  0  0  0  0  0  0
    9.0890   -2.6248    2.5633 H   0  0  0  0  0  0  0  0  0  0  0  0
    9.7450   -2.7625    4.1937 H   0  0  0  0  0  0  0  0  0  0  0  0
  1  2  2  0
  2  3  1  0
  2 10  1  0
  3  4  1  0
  3 27  1  0
  4  5  1  0
  4  9  1  0
  4 28  1  6
  5  6  1  0
  5 29  1  0
  5 30  1  0
  6  7  1  0
  6 31  1  0
  6 32  1  0
  7  8  1  0
  7 33  1  0
  7 34  1  0
  8  9  1  0
  9 35  1  0
  9 36  1  0
 10 11  2  0
 10 15  1  0
 11 12  1  0
 11 37  1  0
 12 13  2  0
 12 38  1  0
 13 14  1  0
 13 25  1  0
 14 15  2  0
 14 16  1  0
 15 39  1  0
 16 17  2  0
 16 18  1  0
 18 19  1  0
 18 25  1  0
 19 20  1  0
 19 24  1  0
 19 40  1  1
 20 21  1  0
 20 41  1  0
 20 42  1  0
 21 22  1  0
 21 43  1  0
 21 44  1  0
 22 23  1  0
 22 45  1  0
 22 46  1  0
 23 24  1  0
 23 47  1  0
 23 48  1  0
 24 49  1  0
 24 50  1  0
 25 26  2  0
M  END

