
     RDKit          3D

 28 29  0  0  0  0  0  0  0  0999 V2000
    4.5996    0.2994    3.0434 O   0  0  0  0  0  0  0  0  0  0  0  0
    4.4351    0.6190    1.8946 C   0  0  0  0  0  0  0  0  0  0  0  0
    5.2921    1.5711    1.0577 C   0  0  0  0  0  0  0  0  0  0  0  0
    4.5245    1.6881   -0.1746 N   0  0  0  0  0  0  0  0  0  0  0  0
    5.0747    2.1701   -1.3293 N   0  0  0  0  0  0  0  0  0  0  0  0
    5.9698    1.4019   -2.0512 C   0  0  0  0  0  0  0  0  0  0  0  0
    6.4159    0.3548   -1.6292 O   0  0  0  0  0  0  0  0  0  0  0  0
    6.3915    2.0301   -3.3992 C   0  0  0  0  0  0  0  0  0  0  0  0
    7.1428    3.3059   -3.2243 C   0  0  0  0  0  0  0  0  0  0  0  0
    6.4576    4.5549   -3.0866 C   0  0  0  0  0  0  0  0  0  0  0  0
    5.1052    4.5378   -3.1764 F   0  0  0  0  0  0  0  0  0  0  0  0
    7.0962    5.7898   -2.8348 C   0  0  0  0  0  0  0  0  0  0  0  0
    8.5048    5.8262   -2.7123 C   0  0  0  0  0  0  0  0  0  0  0  0
    9.2522    4.6203   -2.8370 C   0  0  0  0  0  0  0  0  0  0  0  0
    8.5676    3.3886   -3.0712 C   0  0  0  0  0  0  0  0  0  0  0  0
    9.5198    1.9540   -3.1928 Cl  0  0  0  0  0  0  0  0  0  0  0  0
    3.4831    0.7569   -0.2322 C   0  0  0  0  0  0  0  0  0  0  0  0
    2.7758    0.5137   -1.1741 O   0  0  0  0  0  0  0  0  0  0  0  0
    3.4248    0.1938    1.0482 N   0  0  0  0  0  0  0  0  0  0  0  0
    6.2793    1.1101    0.8809 H   0  0  0  0  0  0  0  0  0  0  0  0
    5.4269    2.5334    1.5768 H   0  0  0  0  0  0  0  0  0  0  0  0
    4.6169    2.9672   -1.7644 H   0  0  0  0  0  0  0  0  0  0  0  0
    5.4756    2.2028   -3.9904 H   0  0  0  0  0  0  0  0  0  0  0  0
    7.0018    1.2682   -3.8979 H   0  0  0  0  0  0  0  0  0  0  0  0
    6.4863    6.6899   -2.7470 H   0  0  0  0  0  0  0  0  0  0  0  0
    9.0163    6.7704   -2.5241 H   0  0  0  0  0  0  0  0  0  0  0  0
   10.3391    4.6176   -2.7669 H   0  0  0  0  0  0  0  0  0  0  0  0
    2.7061   -0.4714    1.3144 H   0  0  0  0  0  0  0  0  0  0  0  0
  1  2  2  0
  2  3  1  0
  2 19  1  0
  3  4  1  0
  3 20  1  0
  3 21  1  0
  4  5  1  0
  4 17  1  0
  5  6  1  0
  5 22  1  0
  6  7  2  0
  6  8  1  0
  8  9  1  0
  8 23  1  0
  8 24  1  0
  9 10  2  0
  9 15  1  0
 10 11  1  0
 10 12  1  0
 12 13  2  0
 12 25  1  0
 13 14  1  0
 13 26  1  0
 14 15  2  0
 14 27  1  0
 15 16  1  0
 17 18  2  0
 17 19  1  0
 19 28  1  0
M  END

