
     RDKit          3D

 73 79  0  0  0  0  0  0  0  0999 V2000
    2.7787   -9.2959    0.1322 O   0  0  0  0  0  0  0  0  0  0  0  0
    3.7032   -8.5263    0.2715 C   0  0  0  0  0  0  0  0  0  0  0  0
    4.7144   -8.4490   -0.5879 O   0  0  0  0  0  0  0  0  0  0  0  0
    3.7913   -7.5816    1.4389 C   0  0  0  0  0  0  0  0  0  0  0  0
    2.7874   -7.6277    2.3736 C   0  0  0  0  0  0  0  0  0  0  0  0
    2.7184   -6.8289    3.4673 N   0  0  0  0  0  0  0  0  0  0  0  0
    1.6786   -7.0476    4.4605 C   0  0  1  0  0  0  0  0  0  0  0  0
    0.5589   -6.0512    4.6298 C   0  0  0  0  0  0  0  0  0  0  0  0
    0.2850   -7.4067    4.0344 C   0  0  0  0  0  0  0  0  0  0  0  0
    3.7467   -5.9067    3.7147 C   0  0  0  0  0  0  0  0  0  0  0  0
    3.7300   -5.0897    4.8637 C   0  0  0  0  0  0  0  0  0  0  0  0
    4.7795   -4.2074    5.1562 C   0  0  0  0  0  0  0  0  0  0  0  0
    4.7907   -3.3549    6.2638 N   0  0  0  0  0  0  0  0  0  0  0  0
    3.5586   -2.9908    6.9510 C   0  0  0  0  0  0  0  0  0  0  0  0
    3.2034   -3.9410    8.0975 C   0  0  0  0  0  0  0  0  0  0  0  0
    4.3517   -4.1360    8.9944 N   0  0  0  0  0  0  0  0  0  0  0  0
    4.0793   -4.9068   10.1621 C   0  0  0  0  0  0  0  0  0  0  0  0
    3.7750   -6.3418    9.9178 N   0  0  0  0  0  0  0  0  0  0  0  0
    2.5355   -6.6602    9.3802 N   0  0  0  0  0  0  0  0  0  0  0  0
    2.5894   -7.9796    9.0918 C   0  0  0  0  0  0  0  0  0  0  0  0
    1.5413   -8.7286    8.4977 C   0  0  0  0  0  0  0  0  0  0  0  0
    0.3179   -8.0218    8.2067 C   0  0  0  0  0  0  0  0  0  0  0  0
   -0.7515   -8.6715    7.6203 C   0  0  0  0  0  0  0  0  0  0  0  0
   -0.6935  -10.0405    7.2769 C   0  0  0  0  0  0  0  0  0  0  0  0
    0.4935  -10.7476    7.5643 C   0  0  0  0  0  0  0  0  0  0  0  0
    0.6164  -12.0773    7.2723 O   0  0  0  0  0  0  0  0  0  0  0  0
    1.5850  -10.1262    8.1563 C   0  0  0  0  0  0  0  0  0  0  0  0
    3.8951   -8.4511    9.4916 N   0  0  0  0  0  0  0  0  0  0  0  0
    4.4988   -9.7332    9.3054 C   0  0  0  0  0  0  0  0  0  0  0  0
    4.4720  -10.6827   10.3330 C   0  0  0  0  0  0  0  0  0  0  0  0
    5.0722  -11.9293   10.1691 C   0  0  0  0  0  0  0  0  0  0  0  0
    5.7025  -12.2268    8.9559 C   0  0  0  0  0  0  0  0  0  0  0  0
    6.4526  -13.7795    8.7334 Cl  0  0  0  0  0  0  0  0  0  0  0  0
    5.7446  -11.2937    7.9150 C   0  0  0  0  0  0  0  0  0  0  0  0
    5.1451  -10.0464    8.0945 C   0  0  0  0  0  0  0  0  0  0  0  0
    5.1972   -8.8845    6.8012 Cl  0  0  0  0  0  0  0  0  0  0  0  0
    4.5613   -7.3884    9.9810 C   0  0  0  0  0  0  0  0  0  0  0  0
    6.2024   -7.4679   10.6232 S   0  0  0  0  0  0  0  0  0  0  0  0
    5.6027   -4.4586    8.3077 C   0  0  0  0  0  0  0  0  0  0  0  0
    5.9031   -3.4313    7.2110 C   0  0  0  0  0  0  0  0  0  0  0  0
    5.8624   -4.1648    4.2324 C   0  0  0  0  0  0  0  0  0  0  0  0
    6.8759   -3.3137    4.4753 F   0  0  0  0  0  0  0  0  0  0  0  0
    5.8935   -4.9440    3.1021 C   0  0  0  0  0  0  0  0  0  0  0  0
    4.8384   -5.8329    2.8165 C   0  0  0  0  0  0  0  0  0  0  0  0
    4.9021   -6.6655    1.6082 C   0  0  0  0  0  0  0  0  0  0  0  0
    5.8529   -6.5898    0.8054 O   0  0  0  0  0  0  0  0  0  0  0  0
    5.3507   -7.7491   -0.2645 H   0  0  0  0  0  0  0  0  0  0  0  0
    1.9842   -8.3537    2.2410 H   0  0  0  0  0  0  0  0  0  0  0  0
    2.0546   -7.5305    5.3697 H   0  0  0  0  0  0  0  0  0  0  0  0
    0.5432   -5.1942    3.9506 H   0  0  0  0  0  0  0  0  0  0  0  0
    0.2215   -5.8482    5.6495 H   0  0  0  0  0  0  0  0  0  0  0  0
    0.0565   -7.4491    2.9666 H   0  0  0  0  0  0  0  0  0  0  0  0
   -0.2289   -8.1531    4.6450 H   0  0  0  0  0  0  0  0  0  0  0  0
    2.8980   -5.1701    5.5561 H   0  0  0  0  0  0  0  0  0  0  0  0
    2.7298   -2.9436    6.2307 H   0  0  0  0  0  0  0  0  0  0  0  0
    3.7012   -1.9729    7.3561 H   0  0  0  0  0  0  0  0  0  0  0  0
    2.8436   -4.9068    7.7021 H   0  0  0  0  0  0  0  0  0  0  0  0
    2.3719   -3.5185    8.6848 H   0  0  0  0  0  0  0  0  0  0  0  0
    3.1885   -4.5153   10.6732 H   0  0  0  0  0  0  0  0  0  0  0  0
    4.9365   -4.8712   10.8511 H   0  0  0  0  0  0  0  0  0  0  0  0
    0.2398   -6.9701    8.4828 H   0  0  0  0  0  0  0  0  0  0  0  0
   -1.6726   -8.1140    7.4260 H   0  0  0  0  0  0  0  0  0  0  0  0
   -1.5481  -10.5482    6.8224 H   0  0  0  0  0  0  0  0  0  0  0  0
   -0.2039  -12.3813    6.8643 H   0  0  0  0  0  0  0  0  0  0  0  0
    2.4534  -10.7508    8.3426 H   0  0  0  0  0  0  0  0  0  0  0  0
    3.9589  -10.4365   11.2645 H   0  0  0  0  0  0  0  0  0  0  0  0
    5.0466  -12.6712   10.9677 H   0  0  0  0  0  0  0  0  0  0  0  0
    6.2371  -11.5333    6.9729 H   0  0  0  0  0  0  0  0  0  0  0  0
    5.5803   -5.4710    7.8487 H   0  0  0  0  0  0  0  0  0  0  0  0
    6.4211   -4.4555    9.0474 H   0  0  0  0  0  0  0  0  0  0  0  0
    6.8318   -3.6920    6.6908 H   0  0  0  0  0  0  0  0  0  0  0  0
    6.0426   -2.4372    7.6697 H   0  0  0  0  0  0  0  0  0  0  0  0
    6.7274   -4.8774    2.4017 H   0  0  0  0  0  0  0  0  0  0  0  0
  1  2  2  0
  2  3  1  0
  2  4  1  0
  3 47  1  0
  4  5  2  0
  4 45  1  0
  5  6  1  0
  5 48  1  0
  6  7  1  0
  6 10  1  0
  7  8  1  0
  7  9  1  0
  7 49  1  1
  8  9  1  0
  8 50  1  0
  8 51  1  0
  9 52  1  0
  9 53  1  0
 10 11  1  0
 10 44  2  0
 11 12  2  0
 11 54  1  0
 12 13  1  0
 12 41  1  0
 13 14  1  0
 13 40  1  0
 14 15  1  0
 14 55  1  0
 14 56  1  0
 15 16  1  0
 15 57  1  0
 15 58  1  0
 16 17  1  0
 16 39  1  0
 17 18  1  0
 17 59  1  0
 17 60  1  0
 18 19  1  0
 18 37  1  0
 19 20  2  0
 20 21  1  0
 20 28  1  0
 21 22  2  0
 21 27  1  0
 22 23  1  0
 22 61  1  0
 23 24  2  0
 23 62  1  0
 24 25  1  0
 24 63  1  0
 25 26  1  0
 25 27  2  0
 26 64  1  0
 27 65  1  0
 28 29  1  0
 28 37  1  0
 29 30  2  0
 29 35  1  0
 30 31  1  0
 30 66  1  0
 31 32  2  0
 31 67  1  0
 32 33  1  0
 32 34  1  0
 34 35  2  0
 34 68  1  0
 35 36  1  0
 37 38  2  0
 39 40  1  0
 39 69  1  0
 39 70  1  0
 40 71  1  0
 40 72  1  0
 41 42  1  0
 41 43  2  0
 43 44  1  0
 43 73  1  0
 44 45  1  0
 45 46  2  0
M  END

