
     RDKit          3D

 34 34  0  0  0  0  0  0  0  0999 V2000
    6.2408    2.8154    0.0448 C   0  0  0  0  0  0  0  0  0  0  0  0
    5.6660    1.7656    0.8354 O   0  0  0  0  0  0  0  0  0  0  0  0
    5.3267    0.6439    0.2087 C   0  0  0  0  0  0  0  0  0  0  0  0
    5.4202    0.4543   -0.9744 O   0  0  0  0  0  0  0  0  0  0  0  0
    4.6876   -0.3796    1.1769 C   0  0  1  0  0  0  0  0  0  0  0  0
    4.7577   -1.7999    0.6003 C   0  0  0  0  0  0  0  0  0  0  0  0
    5.1507   -0.2377    2.5545 N   0  0  0  0  0  0  0  0  0  0  0  0
    4.2064   -0.0809    3.6284 C   0  0  0  0  0  0  0  0  0  0  0  0
    2.8723   -0.4620    3.4556 C   0  0  0  0  0  0  0  0  0  0  0  0
    2.0018   -0.3024    4.6109 C   0  0  0  0  0  0  0  0  0  0  0  0
    2.5950    0.1657    5.7877 C   0  0  0  0  0  0  0  0  0  0  0  0
    3.9615    0.4889    5.8392 C   0  0  0  0  0  0  0  0  0  0  0  0
    4.7752    0.3920    4.7309 N   0  0  0  0  0  0  0  0  0  0  0  0
    6.5681   -0.3544    2.8616 C   0  0  1  0  0  0  0  0  0  0  0  0
    7.2052   -0.5125    1.6580 F   0  0  0  0  0  0  0  0  0  0  0  0
    7.2656    0.9226    3.5480 C   0  0  1  0  0  0  0  0  0  0  0  0
    6.5555    2.0294    3.4228 F   0  0  0  0  0  0  0  0  0  0  0  0
    7.5541    0.7037    4.8231 F   0  0  0  0  0  0  0  0  0  0  0  0
    8.4285    1.1156    2.9071 F   0  0  0  0  0  0  0  0  0  0  0  0
    6.9401   -1.6888    3.6294 C   0  0  1  0  0  0  0  0  0  0  0  0
    6.5079   -2.7241    2.8962 F   0  0  0  0  0  0  0  0  0  0  0  0
    8.2712   -1.7603    3.7063 F   0  0  0  0  0  0  0  0  0  0  0  0
    6.4309   -1.7953    4.8383 F   0  0  0  0  0  0  0  0  0  0  0  0
    6.4822    3.6177    0.7509 H   0  0  0  0  0  0  0  0  0  0  0  0
    5.5214    3.1653   -0.7095 H   0  0  0  0  0  0  0  0  0  0  0  0
    7.1497    2.4588   -0.4608 H   0  0  0  0  0  0  0  0  0  0  0  0
    3.6356   -0.0634    1.2256 H   0  0  0  0  0  0  0  0  0  0  0  0
    5.7919   -2.1449    0.4867 H   0  0  0  0  0  0  0  0  0  0  0  0
    4.2888   -1.7784   -0.3933 H   0  0  0  0  0  0  0  0  0  0  0  0
    4.2120   -2.4971    1.2495 H   0  0  0  0  0  0  0  0  0  0  0  0
    2.5171   -0.9794    2.5660 H   0  0  0  0  0  0  0  0  0  0  0  0
    0.9458   -0.5618    4.5570 H   0  0  0  0  0  0  0  0  0  0  0  0
    1.9925    0.2940    6.6922 H   0  0  0  0  0  0  0  0  0  0  0  0
    4.4224    0.8766    6.7496 H   0  0  0  0  0  0  0  0  0  0  0  0
  1  2  1  0
  1 24  1  0
  1 25  1  0
  1 26  1  0
  2  3  1  0
  3  4  2  0
  3  5  1  0
  5  6  1  0
  5  7  1  0
  5 27  1  1
  6 28  1  0
  6 29  1  0
  6 30  1  0
  7  8  1  0
  7 14  1  0
  8  9  2  0
  8 13  1  0
  9 10  1  0
  9 31  1  0
 10 11  2  0
 10 32  1  0
 11 12  1  0
 11 33  1  0
 12 13  2  0
 12 34  1  0
 14 15  1  6
 14 16  1  0
 14 20  1  0
 16 17  1  1
 16 18  1  0
 16 19  1  0
 20 21  1  6
 20 22  1  0
 20 23  1  0
M  END

