
     RDKit          3D

 44 44  0  0  0  0  0  0  0  0999 V2000
    2.2177   -1.4969   -2.9114 C   0  0  0  0  0  0  0  0  0  0  0  0
    1.8734   -0.0363   -3.2222 C   0  0  1  0  0  0  0  0  0  0  0  0
    1.9083    0.2559   -4.7264 C   0  0  0  0  0  0  0  0  0  0  0  0
    0.5125    0.3369   -2.6305 C   0  0  0  0  0  0  0  0  0  0  0  0
    2.7929    0.8576   -2.5152 O   0  0  0  0  0  0  0  0  0  0  0  0
    4.1242    0.8418   -2.7470 C   0  0  0  0  0  0  0  0  0  0  0  0
    4.7040    0.1347   -3.5490 O   0  0  0  0  0  0  0  0  0  0  0  0
    4.7437    1.7441   -1.9292 N   0  0  0  0  0  0  0  0  0  0  0  0
    6.1646    2.0145   -2.0255 C   0  0  0  0  0  0  0  0  0  0  0  0
    6.5139    3.1467   -3.0024 C   0  0  0  0  0  0  0  0  0  0  0  0
    8.0092    3.4805   -3.0798 C   0  0  0  0  0  0  0  0  0  0  0  0
    8.8946    2.3535   -3.6711 C   0  0  0  0  0  0  0  0  0  0  0  0
   10.3518    2.7009   -3.7928 C   0  0  0  0  0  0  0  0  0  0  0  0
   11.2459    2.5228   -2.6990 C   0  0  0  0  0  0  0  0  0  0  0  0
   12.5826    2.9004   -2.7577 C   0  0  0  0  0  0  0  0  0  0  0  0
   13.1677    3.5099   -3.9259 C   0  0  0  0  0  0  0  0  0  0  0  0
   14.5206    3.8928   -3.9572 C   0  0  0  0  0  0  0  0  0  0  0  0
   15.6518    4.2123   -3.9891 N   0  0  0  0  0  0  0  0  0  0  0  0
   12.2909    3.6907   -5.0466 C   0  0  0  0  0  0  0  0  0  0  0  0
   10.9367    3.2930   -4.9574 C   0  0  0  0  0  0  0  0  0  0  0  0
   10.1521    3.4837   -6.0687 N   0  0  0  0  0  0  0  0  0  0  0  0
    1.4621   -2.1610   -3.3596 H   0  0  0  0  0  0  0  0  0  0  0  0
    2.2182   -1.6665   -1.8231 H   0  0  0  0  0  0  0  0  0  0  0  0
    3.2042   -1.7624   -3.3118 H   0  0  0  0  0  0  0  0  0  0  0  0
    1.1386   -0.3414   -5.2398 H   0  0  0  0  0  0  0  0  0  0  0  0
    2.8894    0.0095   -5.1515 H   0  0  0  0  0  0  0  0  0  0  0  0
    1.6951    1.3201   -4.9143 H   0  0  0  0  0  0  0  0  0  0  0  0
   -0.2818   -0.2750   -3.0840 H   0  0  0  0  0  0  0  0  0  0  0  0
    0.2861    1.3977   -2.8180 H   0  0  0  0  0  0  0  0  0  0  0  0
    0.5041    0.1698   -1.5427 H   0  0  0  0  0  0  0  0  0  0  0  0
    4.1509    2.3371   -1.3609 H   0  0  0  0  0  0  0  0  0  0  0  0
    6.6442    1.0775   -2.3426 H   0  0  0  0  0  0  0  0  0  0  0  0
    6.5458    2.2548   -1.0179 H   0  0  0  0  0  0  0  0  0  0  0  0
    5.9588    4.0541   -2.7050 H   0  0  0  0  0  0  0  0  0  0  0  0
    6.1379    2.8666   -4.0026 H   0  0  0  0  0  0  0  0  0  0  0  0
    8.3921    3.7402   -2.0769 H   0  0  0  0  0  0  0  0  0  0  0  0
    8.1444    4.3890   -3.6917 H   0  0  0  0  0  0  0  0  0  0  0  0
    8.4614    2.0454   -4.6428 H   0  0  0  0  0  0  0  0  0  0  0  0
    8.8074    1.4564   -3.0342 H   0  0  0  0  0  0  0  0  0  0  0  0
   10.8706    2.0638   -1.7806 H   0  0  0  0  0  0  0  0  0  0  0  0
   13.2247    2.7302   -1.8901 H   0  0  0  0  0  0  0  0  0  0  0  0
   12.6683    4.1195   -5.9769 H   0  0  0  0  0  0  0  0  0  0  0  0
   10.5400    3.8941   -6.9108 H   0  0  0  0  0  0  0  0  0  0  0  0
    9.1890    3.1690   -6.0901 H   0  0  0  0  0  0  0  0  0  0  0  0
  1  2  1  0
  1 22  1  0
  1 23  1  0
  1 24  1  0
  2  3  1  0
  2  4  1  0
  2  5  1  1
  3 25  1  0
  3 26  1  0
  3 27  1  0
  4 28  1  0
  4 29  1  0
  4 30  1  0
  5  6  1  0
  6  7  2  0
  6  8  1  0
  8  9  1  0
  8 31  1  0
  9 10  1  0
  9 32  1  0
  9 33  1  0
 10 11  1  0
 10 34  1  0
 10 35  1  0
 11 12  1  0
 11 36  1  0
 11 37  1  0
 12 13  1  0
 12 38  1  0
 12 39  1  0
 13 14  2  0
 13 20  1  0
 14 15  1  0
 14 40  1  0
 15 16  2  0
 15 41  1  0
 16 17  1  0
 16 19  1  0
 17 18  3  0
 19 20  2  0
 19 42  1  0
 20 21  1  0
 21 43  1  0
 21 44  1  0
M  END

