
     RDKit          3D

 41 44  0  0  0  0  0  0  0  0999 V2000
    2.6073    1.7077   -0.7547 O   0  0  0  0  0  0  0  0  0  0  0  0
    2.2821    0.9157    0.1179 C   0  0  0  0  0  0  0  0  0  0  0  0
    0.8731    0.6137    0.4677 C   0  0  0  0  0  0  0  0  0  0  0  0
   -0.1337    1.2191   -0.1988 C   0  0  0  0  0  0  0  0  0  0  0  0
   -1.5726    1.0538   -0.0055 C   0  0  0  0  0  0  0  0  0  0  0  0
   -2.1346    0.2036    0.9716 C   0  0  0  0  0  0  0  0  0  0  0  0
   -3.5126    0.0781    1.1157 C   0  0  0  0  0  0  0  0  0  0  0  0
   -4.3644    0.8085    0.2764 C   0  0  0  0  0  0  0  0  0  0  0  0
   -6.0935    0.6518    0.4557 Cl  0  0  0  0  0  0  0  0  0  0  0  0
   -3.8408    1.6599   -0.7004 C   0  0  0  0  0  0  0  0  0  0  0  0
   -2.4580    1.7754   -0.8326 C   0  0  0  0  0  0  0  0  0  0  0  0
    3.2007    0.2062    0.8833 N   0  0  0  0  0  0  0  0  0  0  0  0
    4.5923    0.2262    0.8331 C   0  0  0  0  0  0  0  0  0  0  0  0
    5.3288    1.0329   -0.0662 C   0  0  0  0  0  0  0  0  0  0  0  0
    6.7138    0.9953   -0.0579 C   0  0  0  0  0  0  0  0  0  0  0  0
    7.4315    0.1594    0.8400 C   0  0  0  0  0  0  0  0  0  0  0  0
    8.8511    0.0748    0.8953 C   0  0  0  0  0  0  0  0  0  0  0  0
    9.5890    0.7907    0.0879 O   0  0  0  0  0  0  0  0  0  0  0  0
    9.4736   -0.8020    1.8403 C   0  0  0  0  0  0  0  0  0  0  0  0
   10.8812   -0.9438    1.9579 C   0  0  0  0  0  0  0  0  0  0  0  0
   11.4174   -1.8137    2.9002 C   0  0  0  0  0  0  0  0  0  0  0  0
   10.5856   -2.5594    3.7432 C   0  0  0  0  0  0  0  0  0  0  0  0
    9.1920   -2.4303    3.6384 C   0  0  0  0  0  0  0  0  0  0  0  0
    8.1478   -3.3544    4.6831 Cl  0  0  0  0  0  0  0  0  0  0  0  0
    8.6307   -1.5624    2.6982 C   0  0  0  0  0  0  0  0  0  0  0  0
    7.2783   -1.4708    2.6318 O   0  0  0  0  0  0  0  0  0  0  0  0
    6.6721   -0.6418    1.7366 C   0  0  0  0  0  0  0  0  0  0  0  0
    5.2894   -0.6117    1.7358 C   0  0  0  0  0  0  0  0  0  0  0  0
    0.6763   -0.1064    1.2683 H   0  0  0  0  0  0  0  0  0  0  0  0
    0.1733    1.9197   -0.9832 H   0  0  0  0  0  0  0  0  0  0  0  0
   -1.4852   -0.3719    1.6346 H   0  0  0  0  0  0  0  0  0  0  0  0
   -3.9370   -0.5817    1.8741 H   0  0  0  0  0  0  0  0  0  0  0  0
   -4.5143    2.2242   -1.3475 H   0  0  0  0  0  0  0  0  0  0  0  0
   -2.0484    2.4414   -1.5965 H   0  0  0  0  0  0  0  0  0  0  0  0
    2.8061   -0.4203    1.5751 H   0  0  0  0  0  0  0  0  0  0  0  0
    4.7893    1.6756   -0.7572 H   0  0  0  0  0  0  0  0  0  0  0  0
    7.2700    1.6214   -0.7568 H   0  0  0  0  0  0  0  0  0  0  0  0
   11.5322   -0.3643    1.3028 H   0  0  0  0  0  0  0  0  0  0  0  0
   12.5012   -1.9188    2.9864 H   0  0  0  0  0  0  0  0  0  0  0  0
   10.9975   -3.2441    4.4852 H   0  0  0  0  0  0  0  0  0  0  0  0
    4.7605   -1.2496    2.4472 H   0  0  0  0  0  0  0  0  0  0  0  0
  1  2  2  0
  2  3  1  0
  2 12  1  0
  3  4  2  0
  3 29  1  0
  4  5  1  0
  4 30  1  0
  5  6  2  0
  5 11  1  0
  6  7  1  0
  6 31  1  0
  7  8  2  0
  7 32  1  0
  8  9  1  0
  8 10  1  0
 10 11  2  0
 10 33  1  0
 11 34  1  0
 12 13  1  0
 12 35  1  0
 13 14  2  0
 13 28  1  0
 14 15  1  0
 14 36  1  0
 15 16  2  0
 15 37  1  0
 16 17  1  0
 16 27  1  0
 17 18  2  0
 17 19  1  0
 19 20  2  0
 19 25  1  0
 20 21  1  0
 20 38  1  0
 21 22  2  0
 21 39  1  0
 22 23  1  0
 22 40  1  0
 23 24  1  0
 23 25  2  0
 25 26  1  0
 26 27  1  0
 27 28  2  0
 28 41  1  0
M  END

