
     RDKit          3D

 29 32  0  0  0  0  0  0  0  0999 V2000
    1.1720   -0.1502    1.2294 Br  0  0  0  0  0  0  0  0  0  0  0  0
    2.9617   -0.2004    0.6858 C   0  0  0  0  0  0  0  0  0  0  0  0
    3.6258   -1.4490    0.6402 C   0  0  0  0  0  0  0  0  0  0  0  0
    4.9461   -1.5146    0.2326 C   0  0  0  0  0  0  0  0  0  0  0  0
    5.6207   -0.3123   -0.1186 C   0  0  0  0  0  0  0  0  0  0  0  0
    6.9151   -0.0229   -0.5699 C   0  0  0  0  0  0  0  0  0  0  0  0
    6.9688    1.3903   -0.7408 C   0  0  0  0  0  0  0  0  0  0  0  0
    5.8030    1.9547   -0.4313 N   0  0  0  0  0  0  0  0  0  0  0  0
    5.5328    3.4281   -0.3972 C   0  0  0  0  0  0  0  0  0  0  0  0
    4.4476    3.9148   -1.2960 C   0  0  0  0  0  0  0  0  0  0  0  0
    4.5778    4.5919   -2.4988 C   0  0  0  0  0  0  0  0  0  0  0  0
    3.2944    4.8630   -2.9013 N   0  0  0  0  0  0  0  0  0  0  0  0
    2.6976    5.5639   -3.9987 C   0  0  0  0  0  0  0  0  0  0  0  0
    1.3203    5.2654   -4.0028 C   0  0  0  0  0  0  0  0  0  0  0  0
    0.7635    4.6148   -2.2805 S   0  0  0  0  0  0  0  0  0  0  0  0
    2.4584    4.3428   -1.9547 C   0  0  0  0  0  0  0  0  0  0  0  0
    3.1271    3.7527   -0.9623 N   0  0  0  0  0  0  0  0  0  0  0  0
    4.9145    0.9343   -0.0440 C   0  0  0  0  0  0  0  0  0  0  0  0
    3.5900    1.0240    0.3307 C   0  0  0  0  0  0  0  0  0  0  0  0
    3.0839   -2.3526    0.9193 H   0  0  0  0  0  0  0  0  0  0  0  0
    5.4640   -2.4743    0.1828 H   0  0  0  0  0  0  0  0  0  0  0  0
    7.7319   -0.7137   -0.7652 H   0  0  0  0  0  0  0  0  0  0  0  0
    7.8136    1.9944   -1.0675 H   0  0  0  0  0  0  0  0  0  0  0  0
    6.4917    3.9042   -0.6403 H   0  0  0  0  0  0  0  0  0  0  0  0
    5.2991    3.6587    0.6538 H   0  0  0  0  0  0  0  0  0  0  0  0
    5.4451    4.8990   -3.0778 H   0  0  0  0  0  0  0  0  0  0  0  0
    3.1444    6.5545   -4.1891 H   0  0  0  0  0  0  0  0  0  0  0  0
    0.5899    5.9219   -4.4828 H   0  0  0  0  0  0  0  0  0  0  0  0
    3.0554    1.9814    0.2787 H   0  0  0  0  0  0  0  0  0  0  0  0
  1  2  1  0
  2  3  2  0
  2 19  1  0
  3  4  1  0
  3 20  1  0
  4  5  2  0
  4 21  1  0
  5  6  1  0
  5 18  1  0
  6  7  2  0
  6 22  1  0
  7  8  1  0
  7 23  1  0
  8  9  1  0
  8 18  1  0
  9 10  1  0
  9 24  1  0
  9 25  1  0
 10 11  2  0
 10 17  1  0
 11 12  1  0
 11 26  1  0
 12 13  1  0
 12 16  1  0
 13 14  2  0
 13 27  1  0
 14 15  1  0
 14 28  1  0
 15 16  1  0
 16 17  2  0
 18 19  2  0
 19 29  1  0
M  END

