
     RDKit          3D

 47 50  0  0  0  0  0  0  0  0999 V2000
    1.5180   -0.4211   -0.8898 C   0  0  0  0  0  0  0  0  0  0  0  0
    2.5699    0.1162   -0.0263 N   0  0  0  0  0  0  0  0  0  0  0  0
    3.2764    1.2645   -0.5908 C   0  0  0  0  0  0  0  0  0  0  0  0
    2.9932   -0.5557    1.0752 C   0  0  0  0  0  0  0  0  0  0  0  0
    2.6678   -1.9435    1.1960 C   0  0  0  0  0  0  0  0  0  0  0  0
    3.3634   -2.7696    2.0691 C   0  0  0  0  0  0  0  0  0  0  0  0
    4.4103   -2.2575    2.8324 C   0  0  0  0  0  0  0  0  0  0  0  0
    4.6816   -0.8644    2.8486 C   0  0  0  0  0  0  0  0  0  0  0  0
    5.7317   -0.3667    3.6519 C   0  0  0  0  0  0  0  0  0  0  0  0
    5.9477    1.0051    3.7371 C   0  0  0  0  0  0  0  0  0  0  0  0
    5.0591    1.8944    3.1425 C   0  0  0  0  0  0  0  0  0  0  0  0
    3.9371    1.4462    2.3920 C   0  0  0  0  0  0  0  0  0  0  0  0
    2.9302    2.3446    2.0745 N   0  0  0  0  0  0  0  0  0  0  0  0
    1.5366    1.9094    2.1709 C   0  0  0  0  0  0  0  0  0  0  0  0
    3.1561    3.7526    1.6619 B   0  0  0  0  0  0  0  0  0  0  0  0
    4.4338    4.2390    1.6566 O   0  0  0  0  0  0  0  0  0  0  0  0
    4.4447    5.6050    1.1722 C   0  0  0  0  0  0  0  0  0  0  0  0
    3.0173    5.9238    0.8403 C   0  0  0  0  0  0  0  0  0  0  0  0
    2.4720    7.1042    0.2983 C   0  0  0  0  0  0  0  0  0  0  0  0
    1.1160    7.1776    0.0351 C   0  0  0  0  0  0  0  0  0  0  0  0
    0.2273    6.0708    0.2984 C   0  0  0  0  0  0  0  0  0  0  0  0
   -1.1779    6.1749    0.0040 C   0  0  0  0  0  0  0  0  0  0  0  0
   -1.7485    7.1699   -0.4874 O   0  0  0  0  0  0  0  0  0  0  0  0
    0.8024    4.8904    0.8510 C   0  0  0  0  0  0  0  0  0  0  0  0
    2.1674    4.8069    1.1214 C   0  0  0  0  0  0  0  0  0  0  0  0
    3.8599    0.0430    2.0847 C   0  0  0  0  0  0  0  0  0  0  0  0
    1.0945    0.4049   -1.4739 H   0  0  0  0  0  0  0  0  0  0  0  0
    0.7083   -0.8635   -0.2965 H   0  0  0  0  0  0  0  0  0  0  0  0
    1.9122   -1.1775   -1.5902 H   0  0  0  0  0  0  0  0  0  0  0  0
    2.7172    2.2000   -0.4461 H   0  0  0  0  0  0  0  0  0  0  0  0
    3.3928    1.0898   -1.6713 H   0  0  0  0  0  0  0  0  0  0  0  0
    4.2700    1.3682   -0.1427 H   0  0  0  0  0  0  0  0  0  0  0  0
    1.9415   -2.3896    0.5206 H   0  0  0  0  0  0  0  0  0  0  0  0
    3.1285   -3.8352    2.1013 H   0  0  0  0  0  0  0  0  0  0  0  0
    5.0194   -2.9199    3.4503 H   0  0  0  0  0  0  0  0  0  0  0  0
    6.3578   -1.0696    4.2048 H   0  0  0  0  0  0  0  0  0  0  0  0
    6.7745    1.3951    4.3343 H   0  0  0  0  0  0  0  0  0  0  0  0
    5.1720    2.9649    3.2914 H   0  0  0  0  0  0  0  0  0  0  0  0
    1.4543    1.0165    2.8064 H   0  0  0  0  0  0  0  0  0  0  0  0
    1.0746    1.6843    1.1950 H   0  0  0  0  0  0  0  0  0  0  0  0
    0.9484    2.7135    2.6290 H   0  0  0  0  0  0  0  0  0  0  0  0
    5.1375    5.6455    0.3101 H   0  0  0  0  0  0  0  0  0  0  0  0
    4.8855    6.2348    1.9682 H   0  0  0  0  0  0  0  0  0  0  0  0
    3.1142    7.9649    0.0809 H   0  0  0  0  0  0  0  0  0  0  0  0
    0.6652    8.0791   -0.3849 H   0  0  0  0  0  0  0  0  0  0  0  0
   -1.7665    5.2503    0.2563 H   0  0  0  0  0  0  0  0  0  0  0  0
    0.1262    4.0536    1.0523 H   0  0  0  0  0  0  0  0  0  0  0  0
  1  2  1  0
  1 27  1  0
  1 28  1  0
  1 29  1  0
  2  3  1  0
  2  4  1  0
  3 30  1  0
  3 31  1  0
  3 32  1  0
  4  5  2  0
  4 26  1  0
  5  6  1  0
  5 33  1  0
  6  7  2  0
  6 34  1  0
  7  8  1  0
  7 35  1  0
  8  9  1  0
  8 26  2  0
  9 10  2  0
  9 36  1  0
 10 11  1  0
 10 37  1  0
 11 12  2  0
 11 38  1  0
 12 13  1  0
 12 26  1  0
 13 14  1  0
 13 15  1  0
 14 39  1  0
 14 40  1  0
 14 41  1  0
 15 16  1  0
 15 25  1  0
 16 17  1  0
 17 18  1  0
 17 42  1  0
 17 43  1  0
 18 19  1  0
 18 25  2  0
 19 20  2  0
 19 44  1  0
 20 21  1  0
 20 45  1  0
 21 22  1  0
 21 24  2  0
 22 23  2  0
 22 46  1  0
 24 25  1  0
 24 47  1  0
M  END

