
     RDKit          3D

102103  0  0  0  0  0  0  0  0999 V2000
    9.3795    5.7677   -1.8631 C   0  0  0  0  0  0  0  0  0  0  0  0
    8.9747    4.3294   -2.2018 C   0  0  1  0  0  0  0  0  0  0  0  0
    7.8486    4.2770   -3.2391 C   0  0  0  0  0  0  0  0  0  0  0  0
   10.1849    3.5200   -2.6705 C   0  0  0  0  0  0  0  0  0  0  0  0
    8.5645    3.6238   -0.9818 O   0  0  0  0  0  0  0  0  0  0  0  0
    7.5120    4.0281   -0.2427 C   0  0  0  0  0  0  0  0  0  0  0  0
    6.7940    4.9802   -0.4647 O   0  0  0  0  0  0  0  0  0  0  0  0
    7.3682    3.2020    0.8473 N   0  0  0  0  0  0  0  0  0  0  0  0
    6.1756    3.2688    1.6821 C   0  0  1  0  0  0  0  0  0  0  0  0
    5.2898    3.4118    1.0428 H   0  0  0  0  0  0  0  0  0  0  0  0
    6.0566    1.9461    2.4707 C   0  0  0  0  0  0  0  0  0  0  0  0
    4.8908    1.8232    3.4597 C   0  0  0  0  0  0  0  0  0  0  0  0
    3.5199    2.0435    2.8262 C   0  0  0  0  0  0  0  0  0  0  0  0
    2.4594    1.7327    3.7478 O   0  0  0  0  0  0  0  0  0  0  0  0
    2.0694    0.4478    3.8455 C   0  0  0  0  0  0  0  0  0  0  0  0
    2.5755   -0.4471    3.2082 O   0  0  0  0  0  0  0  0  0  0  0  0
    0.8903    0.2866    4.8039 C   0  0  1  0  0  0  0  0  0  0  0  0
    0.5917   -1.1968    5.0831 C   0  0  0  0  0  0  0  0  0  0  0  0
    1.6238   -1.8339    6.0251 C   0  0  0  0  0  0  0  0  0  0  0  0
    1.7834   -1.0345    7.3252 C   0  0  0  0  0  0  0  0  0  0  0  0
    2.1081    0.4385    7.0423 C   0  0  0  0  0  0  0  0  0  0  0  0
    1.0641    1.0787    6.1183 C   0  0  0  0  0  0  0  0  0  0  0  0
    6.1693    4.4810    2.6283 C   0  0  0  0  0  0  0  0  0  0  0  0
    5.1189    4.9146    3.0827 O   0  0  0  0  0  0  0  0  0  0  0  0
    7.3826    4.9766    2.9705 N   0  0  0  0  0  0  0  0  0  0  0  0
    7.5248    6.0611    3.9293 C   0  0  1  0  0  0  0  0  0  0  0  0
    8.6002    6.1085    4.1756 H   0  0  0  0  0  0  0  0  0  0  0  0
    7.0922    7.4264    3.3584 C   0  0  0  0  0  0  0  0  0  0  0  0
    7.7528    8.6318    4.0342 C   0  0  0  0  0  0  0  0  0  0  0  0
    7.2388    9.9708    3.4996 C   0  0  0  0  0  0  0  0  0  0  0  0
    7.9277   11.1764    4.1493 C   0  0  0  0  0  0  0  0  0  0  0  0
    7.4309   12.4570    3.6844 N   0  0  0  0  0  0  0  0  0  0  0  0
    6.5503   13.2061    4.4022 C   0  0  0  0  0  0  0  0  0  0  0  0
    6.1621   12.9550    5.5262 O   0  0  0  0  0  0  0  0  0  0  0  0
    6.1670   14.2904    3.6798 O   0  0  0  0  0  0  0  0  0  0  0  0
    5.2585   15.2100    4.3130 C   0  0  0  0  0  0  0  0  0  0  0  0
    5.9782   16.3408    5.0110 C   0  0  0  0  0  0  0  0  0  0  0  0
    6.1191   17.5889    4.3870 C   0  0  0  0  0  0  0  0  0  0  0  0
    6.7925   18.6353    5.0244 C   0  0  0  0  0  0  0  0  0  0  0  0
    7.3373   18.4420    6.2969 C   0  0  0  0  0  0  0  0  0  0  0  0
    7.2037   17.2002    6.9276 C   0  0  0  0  0  0  0  0  0  0  0  0
    6.5280   16.1565    6.2912 C   0  0  0  0  0  0  0  0  0  0  0  0
    6.8438    5.6272    5.2523 C   0  0  0  0  0  0  0  0  0  0  0  0
    6.9441    4.5034    5.6835 O   0  0  0  0  0  0  0  0  0  0  0  0
    6.2084    6.6370    5.8445 O   0  0  0  0  0  0  0  0  0  0  0  0
    5.4289    6.4696    7.0861 C   0  0  1  0  0  0  0  0  0  0  0  0
    6.3645    6.0832    8.2350 C   0  0  0  0  0  0  0  0  0  0  0  0
    4.8361    7.8618    7.3060 C   0  0  0  0  0  0  0  0  0  0  0  0
    4.3214    5.4358    6.8623 C   0  0  0  0  0  0  0  0  0  0  0  0
    9.7904    6.2585   -2.7591 H   0  0  0  0  0  0  0  0  0  0  0  0
   10.1593    5.7731   -1.0850 H   0  0  0  0  0  0  0  0  0  0  0  0
    8.5177    6.3468   -1.5080 H   0  0  0  0  0  0  0  0  0  0  0  0
    8.1985    4.7108   -4.1888 H   0  0  0  0  0  0  0  0  0  0  0  0
    6.9702    4.8393   -2.8976 H   0  0  0  0  0  0  0  0  0  0  0  0
    7.5516    3.2339   -3.4305 H   0  0  0  0  0  0  0  0  0  0  0  0
   10.5963    3.9496   -3.5964 H   0  0  0  0  0  0  0  0  0  0  0  0
    9.8999    2.4754   -2.8677 H   0  0  0  0  0  0  0  0  0  0  0  0
   10.9745    3.5233   -1.9038 H   0  0  0  0  0  0  0  0  0  0  0  0
    7.9098    2.3445    0.8390 H   0  0  0  0  0  0  0  0  0  0  0  0
    6.9981    1.7957    3.0274 H   0  0  0  0  0  0  0  0  0  0  0  0
    5.9912    1.1313    1.7274 H   0  0  0  0  0  0  0  0  0  0  0  0
    5.0227    2.5285    4.2938 H   0  0  0  0  0  0  0  0  0  0  0  0
    4.9238    0.8051    3.8781 H   0  0  0  0  0  0  0  0  0  0  0  0
    3.4017    1.4207    1.9255 H   0  0  0  0  0  0  0  0  0  0  0  0
    3.3777    3.1026    2.5774 H   0  0  0  0  0  0  0  0  0  0  0  0
    0.0377    0.7286    4.2553 H   0  0  0  0  0  0  0  0  0  0  0  0
    0.5505   -1.7519    4.1341 H   0  0  0  0  0  0  0  0  0  0  0  0
   -0.4109   -1.2611    5.5419 H   0  0  0  0  0  0  0  0  0  0  0  0
    2.5950   -1.8904    5.5043 H   0  0  0  0  0  0  0  0  0  0  0  0
    1.3311   -2.8737    6.2488 H   0  0  0  0  0  0  0  0  0  0  0  0
    2.5667   -1.4853    7.9579 H   0  0  0  0  0  0  0  0  0  0  0  0
    0.8443   -1.0908    7.9076 H   0  0  0  0  0  0  0  0  0  0  0  0
    3.1065    0.5111    6.5723 H   0  0  0  0  0  0  0  0  0  0  0  0
    2.1726    1.0075    7.9850 H   0  0  0  0  0  0  0  0  0  0  0  0
    1.3263    2.1227    5.8945 H   0  0  0  0  0  0  0  0  0  0  0  0
    0.0875    1.0969    6.6339 H   0  0  0  0  0  0  0  0  0  0  0  0
    8.2024    4.5640    2.5438 H   0  0  0  0  0  0  0  0  0  0  0  0
    5.9966    7.5030    3.4125 H   0  0  0  0  0  0  0  0  0  0  0  0
    7.3526    7.4229    2.2867 H   0  0  0  0  0  0  0  0  0  0  0  0
    8.8493    8.5756    3.8914 H   0  0  0  0  0  0  0  0  0  0  0  0
    7.5797    8.5874    5.1214 H   0  0  0  0  0  0  0  0  0  0  0  0
    6.1523   10.0475    3.6771 H   0  0  0  0  0  0  0  0  0  0  0  0
    7.3775   10.0148    2.4032 H   0  0  0  0  0  0  0  0  0  0  0  0
    9.0175   11.1279    3.9740 H   0  0  0  0  0  0  0  0  0  0  0  0
    7.7732   11.1554    5.2380 H   0  0  0  0  0  0  0  0  0  0  0  0
    7.6164   12.7550    2.7338 H   0  0  0  0  0  0  0  0  0  0  0  0
    4.6309   14.6500    5.0203 H   0  0  0  0  0  0  0  0  0  0  0  0
    4.6326   15.5983    3.4974 H   0  0  0  0  0  0  0  0  0  0  0  0
    5.6939   17.7444    3.3910 H   0  0  0  0  0  0  0  0  0  0  0  0
    6.8911   19.6034    4.5263 H   0  0  0  0  0  0  0  0  0  0  0  0
    7.8634   19.2587    6.7982 H   0  0  0  0  0  0  0  0  0  0  0  0
    7.6256   17.0452    7.9242 H   0  0  0  0  0  0  0  0  0  0  0  0
    6.4260   15.1829    6.7763 H   0  0  0  0  0  0  0  0  0  0  0  0
    7.1681    6.8280    8.3476 H   0  0  0  0  0  0  0  0  0  0  0  0
    6.8143    5.0967    8.0647 H   0  0  0  0  0  0  0  0  0  0  0  0
    5.7959    6.0530    9.1777 H   0  0  0  0  0  0  0  0  0  0  0  0
    5.6309    8.6159    7.4092 H   0  0  0  0  0  0  0  0  0  0  0  0
    4.2266    7.8736    8.2223 H   0  0  0  0  0  0  0  0  0  0  0  0
    4.1957    8.1487    6.4585 H   0  0  0  0  0  0  0  0  0  0  0  0
    4.7330    4.4246    6.7560 H   0  0  0  0  0  0  0  0  0  0  0  0
    3.7525    5.6765    5.9518 H   0  0  0  0  0  0  0  0  0  0  0  0
    3.6310    5.4487    7.7203 H   0  0  0  0  0  0  0  0  0  0  0  0
  1  2  1  0
  1 50  1  0
  1 51  1  0
  1 52  1  0
  2  3  1  0
  2  4  1  0
  2  5  1  1
  3 53  1  0
  3 54  1  0
  3 55  1  0
  4 56  1  0
  4 57  1  0
  4 58  1  0
  5  6  1  0
  6  7  2  0
  6  8  1  0
  8  9  1  0
  8 59  1  0
  9 10  1  6
  9 11  1  0
  9 23  1  0
 11 12  1  0
 11 60  1  0
 11 61  1  0
 12 13  1  0
 12 62  1  0
 12 63  1  0
 13 14  1  0
 13 64  1  0
 13 65  1  0
 14 15  1  0
 15 16  2  0
 15 17  1  0
 17 18  1  0
 17 22  1  0
 17 66  1  6
 18 19  1  0
 18 67  1  0
 18 68  1  0
 19 20  1  0
 19 69  1  0
 19 70  1  0
 20 21  1  0
 20 71  1  0
 20 72  1  0
 21 22  1  0
 21 73  1  0
 21 74  1  0
 22 75  1  0
 22 76  1  0
 23 24  2  0
 23 25  1  0
 25 26  1  0
 25 77  1  0
 26 27  1  1
 26 28  1  0
 26 43  1  0
 28 29  1  0
 28 78  1  0
 28 79  1  0
 29 30  1  0
 29 80  1  0
 29 81  1  0
 30 31  1  0
 30 82  1  0
 30 83  1  0
 31 32  1  0
 31 84  1  0
 31 85  1  0
 32 33  1  0
 32 86  1  0
 33 34  2  0
 33 35  1  0
 35 36  1  0
 36 37  1  0
 36 87  1  0
 36 88  1  0
 37 38  2  0
 37 42  1  0
 38 39  1  0
 38 89  1  0
 39 40  2  0
 39 90  1  0
 40 41  1  0
 40 91  1  0
 41 42  2  0
 41 92  1  0
 42 93  1  0
 43 44  2  0
 43 45  1  0
 46 45  1  6
 46 47  1  0
 46 48  1  0
 46 49  1  0
 47 94  1  0
 47 95  1  0
 47 96  1  0
 48 97  1  0
 48 98  1  0
 48 99  1  0
 49100  1  0
 49101  1  0
 49102  1  0
M  END

