
     RDKit          3D

 32 34  0  0  0  0  0  0  0  0999 V2000
    1.3508   -0.1985   -0.8462 N   0  0  0  0  0  0  0  0  0  0  0  0
    2.4183    0.1808    0.0642 C   0  0  0  0  0  0  0  0  0  0  0  0
    2.7307   -0.8712    1.1006 C   0  0  0  0  0  0  0  0  0  0  0  0
    2.4172   -2.2237    0.8565 C   0  0  0  0  0  0  0  0  0  0  0  0
    2.8059   -3.2112    1.8176 C   0  0  0  0  0  0  0  0  0  0  0  0
    3.4326   -2.7970    3.0051 C   0  0  0  0  0  0  0  0  0  0  0  0
    3.6999   -1.4250    3.3150 C   0  0  0  0  0  0  0  0  0  0  0  0
    3.3810   -0.4675    2.2956 C   0  0  0  0  0  0  0  0  0  0  0  0
    4.3953   -1.0682    4.5812 C   0  0  1  0  0  0  0  0  0  0  0  0
    4.1274   -0.0506    4.9076 H   0  0  0  0  0  0  0  0  0  0  0  0
    4.1082   -2.1090    5.6642 C   0  0  0  0  0  0  0  0  0  0  0  0
    4.5939   -3.4535    5.1141 C   0  0  1  0  0  0  0  0  0  0  0  0
    4.4443   -4.2772    5.8306 H   0  0  0  0  0  0  0  0  0  0  0  0
    3.8552   -3.7561    3.9108 N   0  0  0  0  0  0  0  0  0  0  0  0
    6.1468   -3.3530    4.8427 C   0  0  2  0  0  0  0  0  0  0  0  0
    6.4858   -4.2934    4.3750 H   0  0  0  0  0  0  0  0  0  0  0  0
    6.8187   -3.2289    6.0722 O   0  0  0  0  0  0  0  0  0  0  0  0
    6.4371   -2.1618    3.9223 C   0  0  0  0  0  0  0  0  0  0  0  0
    5.8735   -0.9802    4.4538 O   0  0  0  0  0  0  0  0  0  0  0  0
    1.2141    0.5123   -1.5629 H   0  0  0  0  0  0  0  0  0  0  0  0
    0.4687   -0.2990   -0.3443 H   0  0  0  0  0  0  0  0  0  0  0  0
    2.2445    1.1421    0.5990 H   0  0  0  0  0  0  0  0  0  0  0  0
    3.3351    0.3499   -0.5363 H   0  0  0  0  0  0  0  0  0  0  0  0
    1.9382   -2.5012   -0.0810 H   0  0  0  0  0  0  0  0  0  0  0  0
    2.6601   -4.2770    1.6222 H   0  0  0  0  0  0  0  0  0  0  0  0
    3.6029    0.5890    2.4639 H   0  0  0  0  0  0  0  0  0  0  0  0
    3.0336   -2.1583    5.8994 H   0  0  0  0  0  0  0  0  0  0  0  0
    4.6488   -1.8763    6.5926 H   0  0  0  0  0  0  0  0  0  0  0  0
    3.7299   -4.7298    3.6498 H   0  0  0  0  0  0  0  0  0  0  0  0
    6.8541   -2.2816    6.2771 H   0  0  0  0  0  0  0  0  0  0  0  0
    6.0773   -2.3646    2.8973 H   0  0  0  0  0  0  0  0  0  0  0  0
    7.5269   -2.0059    3.8716 H   0  0  0  0  0  0  0  0  0  0  0  0
  1  2  1  0
  1 20  1  0
  1 21  1  0
  2  3  1  0
  2 22  1  0
  2 23  1  0
  3  4  2  0
  3  8  1  0
  4  5  1  0
  4 24  1  0
  5  6  2  0
  5 25  1  0
  6  7  1  0
  6 14  1  0
  7  8  2  0
  7  9  1  0
  8 26  1  0
  9 10  1  1
  9 11  1  0
  9 19  1  0
 11 12  1  0
 11 27  1  0
 11 28  1  0
 12 13  1  1
 12 14  1  0
 12 15  1  0
 14 29  1  0
 15 16  1  6
 15 17  1  0
 15 18  1  0
 17 30  1  0
 18 19  1  0
 18 31  1  0
 18 32  1  0
M  END

