
     RDKit          3D

 26 26  0  0  0  0  0  0  0  0999 V2000
    1.0715    1.0814    0.7095 C   0  0  0  0  0  0  0  0  0  0  0  0
    2.5791    0.9088    0.5188 C   0  0  0  0  0  0  0  0  0  0  0  0
    3.0184    1.2943   -0.9040 C   0  0  0  0  0  0  0  0  0  0  0  0
    4.5146    1.1242   -1.1311 C   0  0  0  0  0  0  0  0  0  0  0  0
    5.2667    2.1679   -1.0961 N   0  0  0  0  0  0  0  0  0  0  0  0
    6.5852    2.3836   -1.2368 C   0  0  0  0  0  0  0  0  0  0  0  0
    7.2344    3.9685   -1.1254 Cl  0  0  0  0  0  0  0  0  0  0  0  0
    7.3161    1.1784   -1.4645 C   0  0  0  0  0  0  0  0  0  0  0  0
    6.6464   -0.0205   -1.5279 C   0  0  0  0  0  0  0  0  0  0  0  0
    5.2173   -0.1358   -1.3708 C   0  0  0  0  0  0  0  0  0  0  0  0
    4.5009   -1.3849   -1.4747 C   0  0  0  0  0  0  0  0  0  0  0  0
    3.2894   -1.5597   -1.3559 O   0  0  0  0  0  0  0  0  0  0  0  0
    5.3521   -2.4315   -1.7280 O   0  0  0  0  0  0  0  0  0  0  0  0
    4.7396   -3.7055   -1.8467 C   0  0  0  0  0  0  0  0  0  0  0  0
    0.7708    0.8066    1.7328 H   0  0  0  0  0  0  0  0  0  0  0  0
    0.5098    0.4387    0.0125 H   0  0  0  0  0  0  0  0  0  0  0  0
    0.7542    2.1237    0.5367 H   0  0  0  0  0  0  0  0  0  0  0  0
    2.8573   -0.1403    0.6954 H   0  0  0  0  0  0  0  0  0  0  0  0
    3.1265    1.5252    1.2528 H   0  0  0  0  0  0  0  0  0  0  0  0
    2.7582    2.3446   -1.1094 H   0  0  0  0  0  0  0  0  0  0  0  0
    2.5038    0.6513   -1.6295 H   0  0  0  0  0  0  0  0  0  0  0  0
    8.3990    1.2556   -1.5806 H   0  0  0  0  0  0  0  0  0  0  0  0
    7.2050   -0.9396   -1.7061 H   0  0  0  0  0  0  0  0  0  0  0  0
    5.5499   -4.4196   -2.0460 H   0  0  0  0  0  0  0  0  0  0  0  0
    4.0096   -3.7252   -2.6718 H   0  0  0  0  0  0  0  0  0  0  0  0
    4.2106   -3.9854   -0.9215 H   0  0  0  0  0  0  0  0  0  0  0  0
  1  2  1  0
  1 15  1  0
  1 16  1  0
  1 17  1  0
  2  3  1  0
  2 18  1  0
  2 19  1  0
  3  4  1  0
  3 20  1  0
  3 21  1  0
  4  5  2  0
  4 10  1  0
  5  6  1  0
  6  7  1  0
  6  8  2  0
  8  9  1  0
  8 22  1  0
  9 10  2  0
  9 23  1  0
 10 11  1  0
 11 12  2  0
 11 13  1  0
 13 14  1  0
 14 24  1  0
 14 25  1  0
 14 26  1  0
M  END

