
     RDKit          3D

 47 49  0  0  0  0  0  0  0  0999 V2000
    6.2882    2.3956    1.2605 O   0  0  0  0  0  0  0  0  0  0  0  0
    5.6857    1.4525    1.6980 C   0  0  0  0  0  0  0  0  0  0  0  0
    6.3513    0.3613    2.1339 O   0  0  0  0  0  0  0  0  0  0  0  0
    4.1625    1.4054    1.8260 C   0  0  2  0  0  0  0  0  0  0  0  0
    3.5297    0.1001    1.3013 C   0  0  0  0  0  0  0  0  0  0  0  0
    1.9995    0.1619    1.3901 C   0  0  0  0  0  0  0  0  0  0  0  0
    1.4496    1.4215    0.7172 C   0  0  0  0  0  0  0  0  0  0  0  0
    2.0916    2.6138    1.2600 N   0  0  0  0  0  0  0  0  0  0  0  0
    1.2920    3.7098    1.5590 C   0  0  0  0  0  0  0  0  0  0  0  0
    0.0758    3.6835    1.4172 O   0  0  0  0  0  0  0  0  0  0  0  0
    1.9356    4.8401    2.0230 N   0  0  0  0  0  0  0  0  0  0  0  0
    1.1587    5.9827    2.4619 C   0  0  0  0  0  0  0  0  0  0  0  0
    0.6223    5.8421    3.8936 C   0  0  0  0  0  0  0  0  0  0  0  0
   -0.2214    7.0731    4.3202 C   0  0  0  0  0  0  0  0  0  0  0  0
   -0.7074    6.9500    5.7125 C   0  0  0  0  0  0  0  0  0  0  0  0
   -2.0261    6.5611    6.1124 C   0  0  0  0  0  0  0  0  0  0  0  0
   -2.0288    6.5046    7.4546 N   0  0  0  0  0  0  0  0  0  0  0  0
   -2.8403    6.2669    8.0161 H   0  0  0  0  0  0  0  0  0  0  0  0
   -0.7651    6.8308    8.0050 C   0  0  0  0  0  0  0  0  0  0  0  0
   -0.3710    6.8639    9.3649 C   0  0  0  0  0  0  0  0  0  0  0  0
    1.0128    7.2269    9.5757 C   0  0  0  0  0  0  0  0  0  0  0  0
    1.8417    7.5103    8.5102 C   0  0  0  0  0  0  0  0  0  0  0  0
    3.1269    7.8474    8.7568 F   0  0  0  0  0  0  0  0  0  0  0  0
    1.4418    7.4745    7.1431 C   0  0  0  0  0  0  0  0  0  0  0  0
    0.0784    7.1171    6.9321 C   0  0  0  0  0  0  0  0  0  0  0  0
    3.5388    2.6238    1.1253 C   0  0  0  0  0  0  0  0  0  0  0  0
    5.7334   -0.3128    2.4510 H   0  0  0  0  0  0  0  0  0  0  0  0
    3.9342    1.4842    2.9070 H   0  0  0  0  0  0  0  0  0  0  0  0
    3.8944   -0.7785    1.8633 H   0  0  0  0  0  0  0  0  0  0  0  0
    3.8376   -0.0511    0.2510 H   0  0  0  0  0  0  0  0  0  0  0  0
    1.6911    0.1589    2.4499 H   0  0  0  0  0  0  0  0  0  0  0  0
    1.5571   -0.7319    0.9209 H   0  0  0  0  0  0  0  0  0  0  0  0
    0.3691    1.5256    0.8688 H   0  0  0  0  0  0  0  0  0  0  0  0
    1.6274    1.3673   -0.3765 H   0  0  0  0  0  0  0  0  0  0  0  0
    2.8833    4.7685    2.3683 H   0  0  0  0  0  0  0  0  0  0  0  0
    0.3170    6.0991    1.7640 H   0  0  0  0  0  0  0  0  0  0  0  0
    1.7901    6.8834    2.3791 H   0  0  0  0  0  0  0  0  0  0  0  0
    1.4570    5.7176    4.6034 H   0  0  0  0  0  0  0  0  0  0  0  0
    0.0011    4.9346    3.9490 H   0  0  0  0  0  0  0  0  0  0  0  0
   -1.0683    7.1904    3.6238 H   0  0  0  0  0  0  0  0  0  0  0  0
    0.4104    7.9755    4.2344 H   0  0  0  0  0  0  0  0  0  0  0  0
   -2.9072    6.3566    5.5090 H   0  0  0  0  0  0  0  0  0  0  0  0
   -1.0430    6.6390   10.1909 H   0  0  0  0  0  0  0  0  0  0  0  0
    1.4272    7.2821   10.5841 H   0  0  0  0  0  0  0  0  0  0  0  0
    2.1347    7.7467    6.3493 H   0  0  0  0  0  0  0  0  0  0  0  0
    3.9857    3.5393    1.5260 H   0  0  0  0  0  0  0  0  0  0  0  0
    3.8247    2.6008    0.0550 H   0  0  0  0  0  0  0  0  0  0  0  0
  1  2  2  0
  2  3  1  0
  2  4  1  0
  3 27  1  0
  4  5  1  0
  4 26  1  0
  4 28  1  1
  5  6  1  0
  5 29  1  0
  5 30  1  0
  6  7  1  0
  6 31  1  0
  6 32  1  0
  7  8  1  0
  7 33  1  0
  7 34  1  0
  8  9  1  0
  8 26  1  0
  9 10  2  0
  9 11  1  0
 11 12  1  0
 11 35  1  0
 12 13  1  0
 12 36  1  0
 12 37  1  0
 13 14  1  0
 13 38  1  0
 13 39  1  0
 14 15  1  0
 14 40  1  0
 14 41  1  0
 15 16  2  0
 15 25  1  0
 16 17  1  0
 16 42  1  0
 17 18  1  0
 17 19  1  0
 19 20  1  0
 19 25  2  0
 20 21  2  0
 20 43  1  0
 21 22  1  0
 21 44  1  0
 22 23  1  0
 22 24  2  0
 24 25  1  0
 24 45  1  0
 26 46  1  0
 26 47  1  0
M  END

