
     RDKit          3D

 32 32  0  0  0  0  0  0  0  0999 V2000
    0.9868    0.4470    0.2485 C   0  0  0  0  0  0  0  0  0  0  0  0
    2.7332   -0.0632    0.2308 S   0  0  0  0  0  0  0  0  0  0  0  0
    3.5062    1.5157    0.7490 C   0  0  0  0  0  0  0  0  0  0  0  0
    5.0404    1.4330    0.7316 C   0  0  1  0  0  0  0  0  0  0  0  0
    5.5858    1.3196   -0.6955 C   0  0  0  0  0  0  0  0  0  0  0  0
    5.5491    2.6306    1.4009 N   0  0  0  0  0  0  0  0  0  0  0  0
    6.9840    2.6609    1.6629 C   0  0  0  0  0  0  0  0  0  0  0  0
    7.3641    3.8841    2.4600 C   0  0  0  0  0  0  0  0  0  0  0  0
    7.0282    5.2070    2.0154 C   0  0  0  0  0  0  0  0  0  0  0  0
    7.4280    6.3338    2.8021 C   0  0  0  0  0  0  0  0  0  0  0  0
    8.1361    6.1743    3.9815 C   0  0  0  0  0  0  0  0  0  0  0  0
    8.6129    7.2712    4.8845 C   0  0  0  0  0  0  0  0  0  0  0  0
    8.3962    4.8809    4.2933 N   0  0  0  0  0  0  0  0  0  0  0  0
    8.0605    3.7398    3.6461 C   0  0  0  0  0  0  0  0  0  0  0  0
    0.3941   -0.4320   -0.0428 H   0  0  0  0  0  0  0  0  0  0  0  0
    0.7957    1.2573   -0.4725 H   0  0  0  0  0  0  0  0  0  0  0  0
    0.6702    0.7684    1.2533 H   0  0  0  0  0  0  0  0  0  0  0  0
    3.1607    1.7500    1.7710 H   0  0  0  0  0  0  0  0  0  0  0  0
    3.1713    2.3316    0.0868 H   0  0  0  0  0  0  0  0  0  0  0  0
    5.3322    0.5079    1.2832 H   0  0  0  0  0  0  0  0  0  0  0  0
    5.3876    2.2527   -1.2477 H   0  0  0  0  0  0  0  0  0  0  0  0
    5.1030    0.4869   -1.2276 H   0  0  0  0  0  0  0  0  0  0  0  0
    6.6711    1.1385   -0.7062 H   0  0  0  0  0  0  0  0  0  0  0  0
    5.0575    2.7622    2.2845 H   0  0  0  0  0  0  0  0  0  0  0  0
    7.5139    2.6992    0.6943 H   0  0  0  0  0  0  0  0  0  0  0  0
    7.3513    1.7484    2.1845 H   0  0  0  0  0  0  0  0  0  0  0  0
    6.4416    5.3365    1.1075 H   0  0  0  0  0  0  0  0  0  0  0  0
    7.1942    7.3567    2.4963 H   0  0  0  0  0  0  0  0  0  0  0  0
    8.3221    8.2479    4.4773 H   0  0  0  0  0  0  0  0  0  0  0  0
    9.7116    7.2467    4.9939 H   0  0  0  0  0  0  0  0  0  0  0  0
    8.1856    7.1687    5.8978 H   0  0  0  0  0  0  0  0  0  0  0  0
    8.3584    2.7785    4.0698 H   0  0  0  0  0  0  0  0  0  0  0  0
  1  2  1  0
  1 15  1  0
  1 16  1  0
  1 17  1  0
  2  3  1  0
  3  4  1  0
  3 18  1  0
  3 19  1  0
  4  5  1  0
  4  6  1  0
  4 20  1  1
  5 21  1  0
  5 22  1  0
  5 23  1  0
  6  7  1  0
  6 24  1  0
  7  8  1  0
  7 25  1  0
  7 26  1  0
  8  9  2  0
  8 14  1  0
  9 10  1  0
  9 27  1  0
 10 11  2  0
 10 28  1  0
 11 12  1  0
 11 13  1  0
 12 29  1  0
 12 30  1  0
 12 31  1  0
 13 14  2  0
 14 32  1  0
M  END

