
     RDKit          3D

 57 58  0  0  0  0  0  0  0  0999 V2000
    2.0998   -0.8582   -0.4330 C   0  0  0  0  0  0  0  0  0  0  0  0
    2.8148   -0.0627   -1.3920 N   0  0  0  0  0  0  0  0  0  0  0  0
    3.0362   -0.5427   -2.7355 C   0  0  0  0  0  0  0  0  0  0  0  0
    3.3479    1.2460   -1.0028 C   0  0  0  0  0  0  0  0  0  0  0  0
    4.8845    1.2318   -0.8791 C   0  0  0  0  0  0  0  0  0  0  0  0
    5.4657    2.4942   -1.2933 N   0  0  0  0  0  0  0  0  0  0  0  0
    5.5001    2.6560   -2.7339 C   0  0  0  0  0  0  0  0  0  0  0  0
    4.7522    1.8758   -3.4099 O   0  0  0  0  0  0  0  0  0  0  0  0
    6.2598    3.7246   -3.3508 C   0  0  0  0  0  0  0  0  0  0  0  0
    6.9486    4.6033   -2.7599 O   0  0  0  0  0  0  0  0  0  0  0  0
    6.1901    3.7016   -4.7472 N   0  0  0  0  0  0  0  0  0  0  0  0
    6.5399    4.8717   -5.5074 C   0  0  0  0  0  0  0  0  0  0  0  0
    6.6946    4.5259   -6.9882 C   0  0  0  0  0  0  0  0  0  0  0  0
    5.4690    3.9672   -7.5637 N   0  0  0  0  0  0  0  0  0  0  0  0
    4.4341    4.9411   -7.9045 C   0  0  0  0  0  0  0  0  0  0  0  0
    4.6560    5.5993   -9.2741 C   0  0  0  0  0  0  0  0  0  0  0  0
    4.7696    4.5599  -10.2928 N   0  0  0  0  0  0  0  0  0  0  0  0
    5.8674    3.6390  -10.0138 C   0  0  0  0  0  0  0  0  0  0  0  0
    5.6365    2.9962   -8.6391 C   0  0  0  0  0  0  0  0  0  0  0  0
    6.5635    2.9886   -0.4726 C   0  0  1  0  0  0  0  0  0  0  0  0
    6.0459    3.5697    0.8840 C   0  0  0  0  0  0  0  0  0  0  0  0
    7.1108    3.3762    1.9603 C   0  0  0  0  0  0  0  0  0  0  0  0
    7.7327    1.7002    1.6081 S   0  0  2  0  0  0  0  0  0  0  0  0
    6.6420    0.7542    1.9456 O   0  0  0  0  0  0  0  0  0  0  0  0
    9.0810    1.4763    2.1428 O   0  0  0  0  0  0  0  0  0  0  0  0
    7.7123    1.9667   -0.1914 C   0  0  0  0  0  0  0  0  0  0  0  0
    1.7657   -1.8036   -0.8754 H   0  0  0  0  0  0  0  0  0  0  0  0
    1.2342   -0.2884   -0.0573 H   0  0  0  0  0  0  0  0  0  0  0  0
    2.7570   -1.0556    0.4310 H   0  0  0  0  0  0  0  0  0  0  0  0
    3.4074   -1.5782   -2.6958 H   0  0  0  0  0  0  0  0  0  0  0  0
    3.7285    0.1405   -3.2485 H   0  0  0  0  0  0  0  0  0  0  0  0
    2.0594   -0.5631   -3.2530 H   0  0  0  0  0  0  0  0  0  0  0  0
    2.8551    1.5517   -0.0700 H   0  0  0  0  0  0  0  0  0  0  0  0
    3.0767    1.9307   -1.8139 H   0  0  0  0  0  0  0  0  0  0  0  0
    5.2850    0.3871   -1.4700 H   0  0  0  0  0  0  0  0  0  0  0  0
    5.1580    1.0285    0.1658 H   0  0  0  0  0  0  0  0  0  0  0  0
    5.4417    3.1296   -5.1243 H   0  0  0  0  0  0  0  0  0  0  0  0
    7.4894    5.2726   -5.1206 H   0  0  0  0  0  0  0  0  0  0  0  0
    5.8039    5.6984   -5.3856 H   0  0  0  0  0  0  0  0  0  0  0  0
    7.4810    3.7592   -7.0755 H   0  0  0  0  0  0  0  0  0  0  0  0
    7.0617    5.4237   -7.5307 H   0  0  0  0  0  0  0  0  0  0  0  0
    4.3771    5.7076   -7.1167 H   0  0  0  0  0  0  0  0  0  0  0  0
    3.4587    4.4220   -7.9288 H   0  0  0  0  0  0  0  0  0  0  0  0
    5.5568    6.2541   -9.2257 H   0  0  0  0  0  0  0  0  0  0  0  0
    3.7987    6.2509   -9.5141 H   0  0  0  0  0  0  0  0  0  0  0  0
    4.8751    4.9744  -11.2165 H   0  0  0  0  0  0  0  0  0  0  0  0
    6.8648    4.1381  -10.0218 H   0  0  0  0  0  0  0  0  0  0  0  0
    5.8917    2.8566  -10.7915 H   0  0  0  0  0  0  0  0  0  0  0  0
    6.4652    2.3159   -8.3867 H   0  0  0  0  0  0  0  0  0  0  0  0
    4.7149    2.3883   -8.7031 H   0  0  0  0  0  0  0  0  0  0  0  0
    6.9964    3.8099   -1.0618 H   0  0  0  0  0  0  0  0  0  0  0  0
    5.1301    3.0451    1.1960 H   0  0  0  0  0  0  0  0  0  0  0  0
    5.7852    4.6305    0.7547 H   0  0  0  0  0  0  0  0  0  0  0  0
    6.7448    3.3844    2.9962 H   0  0  0  0  0  0  0  0  0  0  0  0
    7.9708    4.0559    1.8612 H   0  0  0  0  0  0  0  0  0  0  0  0
    7.5834    0.9867   -0.6690 H   0  0  0  0  0  0  0  0  0  0  0  0
    8.7041    2.3617   -0.4534 H   0  0  0  0  0  0  0  0  0  0  0  0
  1  2  1  0
  1 27  1  0
  1 28  1  0
  1 29  1  0
  2  3  1  0
  2  4  1  0
  3 30  1  0
  3 31  1  0
  3 32  1  0
  4  5  1  0
  4 33  1  0
  4 34  1  0
  5  6  1  0
  5 35  1  0
  5 36  1  0
  6  7  1  0
  6 20  1  0
  7  8  2  0
  7  9  1  0
  9 10  2  0
  9 11  1  0
 11 12  1  0
 11 37  1  0
 12 13  1  0
 12 38  1  0
 12 39  1  0
 13 14  1  0
 13 40  1  0
 13 41  1  0
 14 15  1  0
 14 19  1  0
 15 16  1  0
 15 42  1  0
 15 43  1  0
 16 17  1  0
 16 44  1  0
 16 45  1  0
 17 18  1  0
 17 46  1  0
 18 19  1  0
 18 47  1  0
 18 48  1  0
 19 49  1  0
 19 50  1  0
 20 21  1  0
 20 26  1  0
 20 51  1  6
 21 22  1  0
 21 52  1  0
 21 53  1  0
 23 22  1  1
 22 54  1  0
 22 55  1  0
 23 24  2  0
 23 25  2  0
 23 26  1  0
 26 56  1  0
 26 57  1  0
M  END

