
     RDKit          3D

 47 50  0  0  0  0  0  0  0  0999 V2000
    2.7914   -1.8218    1.0298 C   0  0  0  0  0  0  0  0  0  0  0  0
    3.6206   -0.6896    0.5416 C   0  0  0  0  0  0  0  0  0  0  0  0
    4.9359   -0.8338    0.2979 N   0  0  0  0  0  0  0  0  0  0  0  0
    5.4992    0.2810   -0.1040 C   0  0  0  0  0  0  0  0  0  0  0  0
    6.9372    0.4064   -0.4695 C   0  0  1  0  0  0  0  0  0  0  0  0
    7.2291   -0.2409   -1.8571 C   0  0  0  0  0  0  0  0  0  0  0  0
    6.6841    0.6050   -3.0116 C   0  0  0  0  0  0  0  0  0  0  0  0
    7.0826    2.0794   -2.8730 C   0  0  0  0  0  0  0  0  0  0  0  0
    6.7023    2.5672   -1.5497 N   0  0  0  0  0  0  0  0  0  0  0  0
    6.7477    4.3558   -1.2942 S   0  0  1  0  0  0  0  0  0  0  0  0
    5.9892    4.4518   -0.0337 O   0  0  0  0  0  0  0  0  0  0  0  0
    8.1865    4.6608   -1.3119 O   0  0  0  0  0  0  0  0  0  0  0  0
    5.9259    5.0727   -2.6113 C   0  0  0  0  0  0  0  0  0  0  0  0
    6.6712    5.4938   -3.7428 C   0  0  0  0  0  0  0  0  0  0  0  0
    6.0218    6.0099   -4.8405 C   0  0  0  0  0  0  0  0  0  0  0  0
    4.5846    6.1418   -4.8834 C   0  0  0  0  0  0  0  0  0  0  0  0
    4.0140    6.6429   -5.9843 N   0  0  0  0  0  0  0  0  0  0  0  0
    2.6725    6.7898   -6.0078 C   0  0  0  0  0  0  0  0  0  0  0  0
    1.8476    6.4502   -4.9327 C   0  0  0  0  0  0  0  0  0  0  0  0
    2.4132    5.9200   -3.7735 C   0  0  0  0  0  0  0  0  0  0  0  0
    3.8290    5.7324   -3.7091 C   0  0  0  0  0  0  0  0  0  0  0  0
    4.5017    5.2002   -2.5959 C   0  0  0  0  0  0  0  0  0  0  0  0
    7.4003    1.8711   -0.4804 C   0  0  0  0  0  0  0  0  0  0  0  0
    4.3556    1.6769   -0.1957 S   0  0  0  0  0  0  0  0  0  0  0  0
    3.1134    0.6444    0.3205 C   0  0  0  0  0  0  0  0  0  0  0  0
    1.7013    1.0745    0.5004 C   0  0  0  0  0  0  0  0  0  0  0  0
    3.3853   -2.7426    1.0543 H   0  0  0  0  0  0  0  0  0  0  0  0
    1.9058   -1.9682    0.3899 H   0  0  0  0  0  0  0  0  0  0  0  0
    2.4128   -1.6133    2.0459 H   0  0  0  0  0  0  0  0  0  0  0  0
    7.4820   -0.1756    0.2933 H   0  0  0  0  0  0  0  0  0  0  0  0
    6.8350   -1.2686   -1.8834 H   0  0  0  0  0  0  0  0  0  0  0  0
    8.3268   -0.3143   -1.9331 H   0  0  0  0  0  0  0  0  0  0  0  0
    5.5835    0.5340   -3.0544 H   0  0  0  0  0  0  0  0  0  0  0  0
    7.0594    0.2093   -3.9689 H   0  0  0  0  0  0  0  0  0  0  0  0
    6.5779    2.6854   -3.6364 H   0  0  0  0  0  0  0  0  0  0  0  0
    8.1762    2.1895   -3.0282 H   0  0  0  0  0  0  0  0  0  0  0  0
    7.7597    5.4172   -3.7234 H   0  0  0  0  0  0  0  0  0  0  0  0
    6.5754    6.3536   -5.7157 H   0  0  0  0  0  0  0  0  0  0  0  0
    2.2429    7.2042   -6.9268 H   0  0  0  0  0  0  0  0  0  0  0  0
    0.7674    6.6051   -5.0055 H   0  0  0  0  0  0  0  0  0  0  0  0
    1.7936    5.6536   -2.9136 H   0  0  0  0  0  0  0  0  0  0  0  0
    3.9413    4.9373   -1.6992 H   0  0  0  0  0  0  0  0  0  0  0  0
    7.1800    2.3738    0.4729 H   0  0  0  0  0  0  0  0  0  0  0  0
    8.4999    1.8930   -0.6131 H   0  0  0  0  0  0  0  0  0  0  0  0
    1.3577    0.8333    1.5204 H   0  0  0  0  0  0  0  0  0  0  0  0
    1.0426    0.5277   -0.1957 H   0  0  0  0  0  0  0  0  0  0  0  0
    1.5703    2.1498    0.3310 H   0  0  0  0  0  0  0  0  0  0  0  0
  1  2  1  0
  1 27  1  0
  1 28  1  0
  1 29  1  0
  2  3  1  0
  2 25  2  0
  3  4  2  0
  4  5  1  0
  4 24  1  0
  5  6  1  0
  5 23  1  0
  5 30  1  1
  6  7  1  0
  6 31  1  0
  6 32  1  0
  7  8  1  0
  7 33  1  0
  7 34  1  0
  8  9  1  0
  8 35  1  0
  8 36  1  0
  9 10  1  0
  9 23  1  0
 10 11  2  0
 10 12  2  0
 10 13  1  6
 13 14  2  0
 13 22  1  0
 14 15  1  0
 14 37  1  0
 15 16  2  0
 15 38  1  0
 16 17  1  0
 16 21  1  0
 17 18  2  0
 18 19  1  0
 18 39  1  0
 19 20  2  0
 19 40  1  0
 20 21  1  0
 20 41  1  0
 21 22  2  0
 22 42  1  0
 23 43  1  0
 23 44  1  0
 24 25  1  0
 25 26  1  0
 26 45  1  0
 26 46  1  0
 26 47  1  0
M  END

