
     RDKit          3D

 44 45  0  0  0  0  0  0  0  0999 V2000
   13.4629    5.0361    5.9663 C   0  0  0  0  0  0  0  0  0  0  0  0
   12.6656    5.9219    5.0171 C   0  0  0  0  0  0  0  0  0  0  0  0
   12.5149    7.1030    5.2869 O   0  0  0  0  0  0  0  0  0  0  0  0
   12.0904    5.3394    3.7866 C   0  0  0  0  0  0  0  0  0  0  0  0
   12.1613    4.0097    3.3287 C   0  0  0  0  0  0  0  0  0  0  0  0
   12.8296    2.7757    3.8544 C   0  0  0  0  0  0  0  0  0  0  0  0
   11.4600    3.9528    2.1679 N   0  0  0  0  0  0  0  0  0  0  0  0
   11.3971    3.1292    1.5827 H   0  0  0  0  0  0  0  0  0  0  0  0
   10.9459    5.1976    1.8270 C   0  0  0  0  0  0  0  0  0  0  0  0
   10.2101    5.4481    0.5620 C   0  0  0  0  0  0  0  0  0  0  0  0
   10.3501    6.4983   -0.0539 O   0  0  0  0  0  0  0  0  0  0  0  0
    9.4005    4.4297    0.0763 N   0  0  0  0  0  0  0  0  0  0  0  0
    8.7767    3.4171    0.9175 C   0  0  0  0  0  0  0  0  0  0  0  0
    8.8629    4.6014   -1.2900 C   0  0  2  0  0  0  0  0  0  0  0  0
    9.5899    5.2593   -1.7877 H   0  0  0  0  0  0  0  0  0  0  0  0
    7.5267    5.3508   -1.2899 C   0  0  0  0  0  0  0  0  0  0  0  0
    8.8699    3.2631   -2.0273 C   0  0  0  0  0  0  0  0  0  0  0  0
   10.1029    2.6281   -2.2617 C   0  0  0  0  0  0  0  0  0  0  0  0
   10.1694    1.4050   -2.9296 C   0  0  0  0  0  0  0  0  0  0  0  0
    8.9970    0.7885   -3.3830 C   0  0  0  0  0  0  0  0  0  0  0  0
    7.7668    1.4092   -3.1620 C   0  0  0  0  0  0  0  0  0  0  0  0
    7.7049    2.6362   -2.4896 C   0  0  0  0  0  0  0  0  0  0  0  0
   11.3288    6.0918    2.8182 C   0  0  0  0  0  0  0  0  0  0  0  0
   10.9949    7.5506    2.8712 C   0  0  0  0  0  0  0  0  0  0  0  0
   13.8020    5.6545    6.8073 H   0  0  0  0  0  0  0  0  0  0  0  0
   14.3391    4.5953    5.4652 H   0  0  0  0  0  0  0  0  0  0  0  0
   12.8503    4.2058    6.3519 H   0  0  0  0  0  0  0  0  0  0  0  0
   13.9202    2.8998    3.9415 H   0  0  0  0  0  0  0  0  0  0  0  0
   12.6467    1.9231    3.1822 H   0  0  0  0  0  0  0  0  0  0  0  0
   12.4548    2.4945    4.8508 H   0  0  0  0  0  0  0  0  0  0  0  0
    8.9173    3.6583    1.9781 H   0  0  0  0  0  0  0  0  0  0  0  0
    9.1663    2.4015    0.7245 H   0  0  0  0  0  0  0  0  0  0  0  0
    7.6916    3.3845    0.7289 H   0  0  0  0  0  0  0  0  0  0  0  0
    7.1715    5.5127   -2.3192 H   0  0  0  0  0  0  0  0  0  0  0  0
    7.6704    6.3337   -0.8197 H   0  0  0  0  0  0  0  0  0  0  0  0
    6.7355    4.8142   -0.7422 H   0  0  0  0  0  0  0  0  0  0  0  0
   11.0230    3.1088   -1.9162 H   0  0  0  0  0  0  0  0  0  0  0  0
   11.1396    0.9327   -3.1060 H   0  0  0  0  0  0  0  0  0  0  0  0
    9.0457   -0.1680   -3.9096 H   0  0  0  0  0  0  0  0  0  0  0  0
    6.8448    0.9395   -3.5147 H   0  0  0  0  0  0  0  0  0  0  0  0
    6.7315    3.1036   -2.3306 H   0  0  0  0  0  0  0  0  0  0  0  0
   10.4170    7.8484    1.9878 H   0  0  0  0  0  0  0  0  0  0  0  0
   11.9135    8.1555    2.9122 H   0  0  0  0  0  0  0  0  0  0  0  0
   10.4407    7.7950    3.7901 H   0  0  0  0  0  0  0  0  0  0  0  0
  1  2  1  0
  1 25  1  0
  1 26  1  0
  1 27  1  0
  2  3  2  0
  2  4  1  0
  4  5  2  0
  4 23  1  0
  5  6  1  0
  5  7  1  0
  6 28  1  0
  6 29  1  0
  6 30  1  0
  7  8  1  0
  7  9  1  0
  9 10  1  0
  9 23  2  0
 10 11  2  0
 10 12  1  0
 12 13  1  0
 12 14  1  0
 13 31  1  0
 13 32  1  0
 13 33  1  0
 14 15  1  6
 14 16  1  0
 14 17  1  0
 16 34  1  0
 16 35  1  0
 16 36  1  0
 17 18  2  0
 17 22  1  0
 18 19  1  0
 18 37  1  0
 19 20  2  0
 19 38  1  0
 20 21  1  0
 20 39  1  0
 21 22  2  0
 21 40  1  0
 22 41  1  0
 23 24  1  0
 24 42  1  0
 24 43  1  0
 24 44  1  0
M  END

