
     RDKit          3D

 48 52  0  0  0  0  0  0  0  0999 V2000
    0.9763    0.2720   -1.6386 N   0  0  0  0  0  0  0  0  0  0  0  0
    1.9908    0.0630   -1.0973 C   0  0  0  0  0  0  0  0  0  0  0  0
    3.2662   -0.0704   -0.4935 C   0  0  0  0  0  0  0  0  0  0  0  0
    3.7368   -1.1938    0.2426 C   0  0  0  0  0  0  0  0  0  0  0  0
    3.1166   -2.3468    0.6986 C   0  0  0  0  0  0  0  0  0  0  0  0
    1.6935   -2.7015    0.6146 C   0  0  0  0  0  0  0  0  0  0  0  0
    0.7348   -1.7656    0.8547 N   0  0  0  0  0  0  0  0  0  0  0  0
   -0.6683   -2.0202    0.5272 C   0  0  0  0  0  0  0  0  0  0  0  0
   -1.5063   -2.1063    1.8032 C   0  0  0  0  0  0  0  0  0  0  0  0
   -1.3359   -0.9567    2.6096 O   0  0  0  0  0  0  0  0  0  0  0  0
    0.0134   -0.7588    2.9631 C   0  0  0  0  0  0  0  0  0  0  0  0
    0.9064   -0.6017    1.7248 C   0  0  0  0  0  0  0  0  0  0  0  0
    1.3058   -3.9282    0.3269 N   0  0  0  0  0  0  0  0  0  0  0  0
    2.1995   -4.9409    0.2963 C   0  0  0  0  0  0  0  0  0  0  0  0
    1.8166   -6.2313   -0.0946 C   0  0  0  0  0  0  0  0  0  0  0  0
    2.6896   -7.3202    0.0046 C   0  0  0  0  0  0  0  0  0  0  0  0
    3.9852   -7.1097    0.5376 C   0  0  0  0  0  0  0  0  0  0  0  0
    4.3803   -5.8548    0.9087 C   0  0  0  0  0  0  0  0  0  0  0  0
    3.5178   -4.7627    0.7655 N   0  0  0  0  0  0  0  0  0  0  0  0
    4.0339   -3.4550    1.0372 C   0  0  0  0  0  0  0  0  0  0  0  0
    5.1751   -3.3251    1.4319 O   0  0  0  0  0  0  0  0  0  0  0  0
    4.1916    1.0067   -0.7244 C   0  0  0  0  0  0  0  0  0  0  0  0
    5.4549    1.0580   -0.2754 N   0  0  0  0  0  0  0  0  0  0  0  0
    5.9606    2.2334   -0.7265 C   0  0  0  0  0  0  0  0  0  0  0  0
    7.2479    2.7936   -0.5563 C   0  0  0  0  0  0  0  0  0  0  0  0
    7.5067    4.0265   -1.1398 C   0  0  0  0  0  0  0  0  0  0  0  0
    6.5177    4.7121   -1.8869 C   0  0  0  0  0  0  0  0  0  0  0  0
    5.2337    4.1828   -2.0738 C   0  0  0  0  0  0  0  0  0  0  0  0
    4.9733    2.9487   -1.4871 C   0  0  0  0  0  0  0  0  0  0  0  0
    3.8630    2.1319   -1.4552 N   0  0  0  0  0  0  0  0  0  0  0  0
    2.9670    2.2915   -1.9024 H   0  0  0  0  0  0  0  0  0  0  0  0
    4.8156   -1.1575    0.4275 H   0  0  0  0  0  0  0  0  0  0  0  0
   -0.7321   -2.9511   -0.0465 H   0  0  0  0  0  0  0  0  0  0  0  0
   -1.0151   -1.1770   -0.0955 H   0  0  0  0  0  0  0  0  0  0  0  0
   -1.2256   -3.0196    2.3662 H   0  0  0  0  0  0  0  0  0  0  0  0
   -2.5759   -2.1685    1.5523 H   0  0  0  0  0  0  0  0  0  0  0  0
    0.3839   -1.6042    3.5802 H   0  0  0  0  0  0  0  0  0  0  0  0
    0.0605    0.1577    3.5714 H   0  0  0  0  0  0  0  0  0  0  0  0
    1.9564   -0.5041    2.0240 H   0  0  0  0  0  0  0  0  0  0  0  0
    0.6046    0.3044    1.1745 H   0  0  0  0  0  0  0  0  0  0  0  0
    0.7921   -6.3422   -0.4500 H   0  0  0  0  0  0  0  0  0  0  0  0
    2.3707   -8.3162   -0.3060 H   0  0  0  0  0  0  0  0  0  0  0  0
    4.6877   -7.9373    0.6533 H   0  0  0  0  0  0  0  0  0  0  0  0
    5.3605   -5.5976    1.3039 H   0  0  0  0  0  0  0  0  0  0  0  0
    8.0022    2.2550    0.0200 H   0  0  0  0  0  0  0  0  0  0  0  0
    8.4924    4.4835   -1.0253 H   0  0  0  0  0  0  0  0  0  0  0  0
    6.7627    5.6802   -2.3303 H   0  0  0  0  0  0  0  0  0  0  0  0
    4.4803    4.7191   -2.6545 H   0  0  0  0  0  0  0  0  0  0  0  0
  1  2  3  0
  2  3  1  0
  3  4  2  0
  3 22  1  0
  4  5  1  0
  4 32  1  0
  5  6  2  0
  5 20  1  0
  6  7  1  0
  6 13  1  0
  7  8  1  0
  7 12  1  0
  8  9  1  0
  8 33  1  0
  8 34  1  0
  9 10  1  0
  9 35  1  0
  9 36  1  0
 10 11  1  0
 11 12  1  0
 11 37  1  0
 11 38  1  0
 12 39  1  0
 12 40  1  0
 13 14  2  0
 14 15  1  0
 14 19  1  0
 15 16  2  0
 15 41  1  0
 16 17  1  0
 16 42  1  0
 17 18  2  0
 17 43  1  0
 18 19  1  0
 18 44  1  0
 19 20  1  0
 20 21  2  0
 22 23  2  0
 22 30  1  0
 23 24  1  0
 24 25  2  0
 24 29  1  0
 25 26  1  0
 25 45  1  0
 26 27  2  0
 26 46  1  0
 27 28  1  0
 27 47  1  0
 28 29  2  0
 28 48  1  0
 29 30  1  0
 30 31  1  0
M  END

