
     RDKit          3D

 57 59  0  0  0  0  0  0  0  0999 V2000
    2.3506    1.3562    3.7935 C   0  0  0  0  0  0  0  0  0  0  0  0
    3.4046    0.8696    2.7959 C   0  0  0  0  0  0  0  0  0  0  0  0
    2.8396    0.1280    1.5677 C   0  0  1  0  0  0  0  0  0  0  0  0
    1.9887    1.0385    0.6596 C   0  0  0  0  0  0  0  0  0  0  0  0
    1.2062    0.3294   -0.4478 C   0  0  0  0  0  0  0  0  0  0  0  0
    3.9819   -0.4946    0.7200 C   0  0  0  0  0  0  0  0  0  0  0  0
    4.7462   -1.5399    1.3684 N   0  0  0  0  0  0  0  0  0  0  0  0
    4.0560   -2.7215    1.8820 C   0  0  0  0  0  0  0  0  0  0  0  0
    4.9165   -3.9826    1.8992 C   0  0  0  0  0  0  0  0  0  0  0  0
    6.3320   -3.7692    2.4965 C   0  0  1  0  0  0  0  0  0  0  0  0
    6.9771   -2.6295    1.6912 C   0  0  0  0  0  0  0  0  0  0  0  0
    6.1583   -1.3421    1.6728 C   0  0  0  0  0  0  0  0  0  0  0  0
    6.3121   -3.4819    4.0130 C   0  0  0  0  0  0  0  0  0  0  0  0
    5.9539   -4.7182    4.8487 C   0  0  2  0  0  0  0  0  0  0  0  0
    5.9294   -4.4412    6.3585 C   0  0  0  0  0  0  0  0  0  0  0  0
    5.1813   -5.5241    7.0919 C   0  0  0  0  0  0  0  0  0  0  0  0
    3.8687   -5.7743    6.7435 N   0  0  0  0  0  0  0  0  0  0  0  0
    3.2670   -5.9668    7.9189 C   0  0  0  0  0  0  0  0  0  0  0  0
    1.8321   -6.3937    8.0532 C   0  0  0  0  0  0  0  0  0  0  0  0
    3.9977   -5.7910    9.0160 N   0  0  0  0  0  0  0  0  0  0  0  0
    5.2658   -5.4016    8.4985 O   0  0  0  0  0  0  0  0  0  0  0  0
    6.9070   -5.8524    4.4503 C   0  0  0  0  0  0  0  0  0  0  0  0
    6.8793   -6.0863    2.9491 C   0  0  0  0  0  0  0  0  0  0  0  0
    7.1438   -4.8897    2.2009 O   0  0  0  0  0  0  0  0  0  0  0  0
    2.8354    1.8022    4.6743 H   0  0  0  0  0  0  0  0  0  0  0  0
    1.7212    0.5246    4.1496 H   0  0  0  0  0  0  0  0  0  0  0  0
    1.6875    2.1219    3.3641 H   0  0  0  0  0  0  0  0  0  0  0  0
    4.0992    0.2041    3.3378 H   0  0  0  0  0  0  0  0  0  0  0  0
    4.0143    1.7228    2.4465 H   0  0  0  0  0  0  0  0  0  0  0  0
    2.1896   -0.6912    1.9224 H   0  0  0  0  0  0  0  0  0  0  0  0
    2.6365    1.8225    0.2267 H   0  0  0  0  0  0  0  0  0  0  0  0
    1.2736    1.5689    1.3054 H   0  0  0  0  0  0  0  0  0  0  0  0
    1.8555   -0.1305   -1.2114 H   0  0  0  0  0  0  0  0  0  0  0  0
    0.5590    1.0432   -0.9787 H   0  0  0  0  0  0  0  0  0  0  0  0
    0.5563   -0.4613   -0.0382 H   0  0  0  0  0  0  0  0  0  0  0  0
    4.6788    0.2903    0.3965 H   0  0  0  0  0  0  0  0  0  0  0  0
    3.5482   -0.9559   -0.1838 H   0  0  0  0  0  0  0  0  0  0  0  0
    3.1416   -2.8583    1.2879 H   0  0  0  0  0  0  0  0  0  0  0  0
    3.7291   -2.4535    2.9009 H   0  0  0  0  0  0  0  0  0  0  0  0
    5.0438   -4.3592    0.8714 H   0  0  0  0  0  0  0  0  0  0  0  0
    4.3566   -4.7445    2.4544 H   0  0  0  0  0  0  0  0  0  0  0  0
    7.1304   -2.9887    0.6612 H   0  0  0  0  0  0  0  0  0  0  0  0
    7.9722   -2.3994    2.0966 H   0  0  0  0  0  0  0  0  0  0  0  0
    6.5569   -0.6135    0.9530 H   0  0  0  0  0  0  0  0  0  0  0  0
    6.1738   -0.8423    2.6599 H   0  0  0  0  0  0  0  0  0  0  0  0
    5.6202   -2.6566    4.2577 H   0  0  0  0  0  0  0  0  0  0  0  0
    7.3195   -3.1303    4.2996 H   0  0  0  0  0  0  0  0  0  0  0  0
    4.9254   -5.0376    4.6011 H   0  0  0  0  0  0  0  0  0  0  0  0
    5.4612   -3.4425    6.5286 H   0  0  0  0  0  0  0  0  0  0  0  0
    6.9602   -4.3572    6.7483 H   0  0  0  0  0  0  0  0  0  0  0  0
    1.1867   -5.8037    7.3837 H   0  0  0  0  0  0  0  0  0  0  0  0
    1.4914   -6.2637    9.0903 H   0  0  0  0  0  0  0  0  0  0  0  0
    1.7043   -7.4545    7.7787 H   0  0  0  0  0  0  0  0  0  0  0  0
    6.6296   -6.7725    4.9834 H   0  0  0  0  0  0  0  0  0  0  0  0
    7.9364   -5.5940    4.7587 H   0  0  0  0  0  0  0  0  0  0  0  0
    5.9041   -6.5126    2.6424 H   0  0  0  0  0  0  0  0  0  0  0  0
    7.6574   -6.7943    2.6271 H   0  0  0  0  0  0  0  0  0  0  0  0
  1  2  1  0
  1 25  1  0
  1 26  1  0
  1 27  1  0
  2  3  1  0
  2 28  1  0
  2 29  1  0
  3  4  1  0
  3  6  1  0
  3 30  1  1
  4  5  1  0
  4 31  1  0
  4 32  1  0
  5 33  1  0
  5 34  1  0
  5 35  1  0
  6  7  1  0
  6 36  1  0
  6 37  1  0
  7  8  1  0
  7 12  1  0
  8  9  1  0
  8 38  1  0
  8 39  1  0
  9 10  1  0
  9 40  1  0
  9 41  1  0
 10 11  1  0
 10 13  1  0
 10 24  1  6
 11 12  1  0
 11 42  1  0
 11 43  1  0
 12 44  1  0
 12 45  1  0
 13 14  1  0
 13 46  1  0
 13 47  1  0
 14 15  1  0
 14 22  1  0
 14 48  1  1
 15 16  1  0
 15 49  1  0
 15 50  1  0
 16 17  2  0
 16 21  1  0
 17 18  1  0
 18 19  1  0
 18 20  2  0
 19 51  1  0
 19 52  1  0
 19 53  1  0
 20 21  1  0
 22 23  1  0
 22 54  1  0
 22 55  1  0
 23 24  1  0
 23 56  1  0
 23 57  1  0
M  END

