
     RDKit          3D

 52 55  0  0  0  0  0  0  0  0999 V2000
    4.3197    0.9255    0.5581 C   0  0  0  0  0  0  0  0  0  0  0  0
    3.2575   -0.0604    0.0659 C   0  0  2  0  0  0  0  0  0  0  0  0
    2.2979    0.4696    0.0165 H   0  0  0  0  0  0  0  0  0  0  0  0
    3.0289   -1.2662    0.9865 C   0  0  0  0  0  0  0  0  0  0  0  0
    3.9788   -1.7004    1.9390 C   0  0  0  0  0  0  0  0  0  0  0  0
    3.7356   -2.8253    2.7597 C   0  0  0  0  0  0  0  0  0  0  0  0
    2.5628   -3.5364    2.6625 C   0  0  0  0  0  0  0  0  0  0  0  0
    1.5706   -3.1186    1.7049 C   0  0  0  0  0  0  0  0  0  0  0  0
    0.4296   -3.7809    1.5733 N   0  0  0  0  0  0  0  0  0  0  0  0
   -0.1084   -4.8535    2.5331 C   0  0  0  0  0  0  0  0  0  0  0  0
   -0.6330   -4.3527    3.5381 O   0  0  0  0  0  0  0  0  0  0  0  0
    0.0515   -6.1895    2.1059 C   0  0  0  0  0  0  0  0  0  0  0  0
    0.6682   -6.6005    0.8730 C   0  0  0  0  0  0  0  0  0  0  0  0
    0.7782   -7.9419    0.5431 C   0  0  0  0  0  0  0  0  0  0  0  0
    0.2919   -8.9502    1.3971 C   0  0  0  0  0  0  0  0  0  0  0  0
   -0.3233   -8.5657    2.6079 C   0  0  0  0  0  0  0  0  0  0  0  0
   -0.4481   -7.2354    2.9612 C   0  0  0  0  0  0  0  0  0  0  0  0
    1.8368   -1.9675    0.8828 C   0  0  0  0  0  0  0  0  0  0  0  0
    3.5160   -0.4828   -1.3250 N   0  0  0  0  0  0  0  0  0  0  0  0
    4.8103   -1.0841   -1.6158 C   0  0  0  0  0  0  0  0  0  0  0  0
    2.4376   -0.5034   -2.1922 C   0  0  0  0  0  0  0  0  0  0  0  0
    1.2891   -0.3566   -1.7861 O   0  0  0  0  0  0  0  0  0  0  0  0
    2.6955   -0.6764   -3.6631 C   0  0  0  0  0  0  0  0  0  0  0  0
    1.7783   -1.4739   -4.3940 C   0  0  0  0  0  0  0  0  0  0  0  0
    1.8797   -1.6308   -5.7703 C   0  0  0  0  0  0  0  0  0  0  0  0
    2.9062   -0.9484   -6.4436 C   0  0  0  0  0  0  0  0  0  0  0  0
    3.2182   -0.9102   -7.7895 N   0  0  0  0  0  0  0  0  0  0  0  0
    4.2448   -0.1080   -7.8757 C   0  0  0  0  0  0  0  0  0  0  0  0
    4.6504    0.4005   -6.6628 N   0  0  0  0  0  0  0  0  0  0  0  0
    5.4191    1.0405   -6.5082 H   0  0  0  0  0  0  0  0  0  0  0  0
    3.8029   -0.1278   -5.7070 C   0  0  0  0  0  0  0  0  0  0  0  0
    3.7210    0.0166   -4.3202 C   0  0  0  0  0  0  0  0  0  0  0  0
    5.3297    0.4907    0.6076 H   0  0  0  0  0  0  0  0  0  0  0  0
    4.0631    1.2929    1.5633 H   0  0  0  0  0  0  0  0  0  0  0  0
    4.3616    1.7917   -0.1186 H   0  0  0  0  0  0  0  0  0  0  0  0
    4.9165   -1.1574    2.0607 H   0  0  0  0  0  0  0  0  0  0  0  0
    4.4917   -3.1273    3.4872 H   0  0  0  0  0  0  0  0  0  0  0  0
    2.3570   -4.3959    3.2962 H   0  0  0  0  0  0  0  0  0  0  0  0
   -0.2442   -3.3824    0.9184 H   0  0  0  0  0  0  0  0  0  0  0  0
    1.0539   -5.8545    0.1756 H   0  0  0  0  0  0  0  0  0  0  0  0
    1.2510   -8.2186   -0.4042 H   0  0  0  0  0  0  0  0  0  0  0  0
    0.3840  -10.0035    1.1262 H   0  0  0  0  0  0  0  0  0  0  0  0
   -0.7130   -9.3345    3.2823 H   0  0  0  0  0  0  0  0  0  0  0  0
   -0.9293   -6.9452    3.8965 H   0  0  0  0  0  0  0  0  0  0  0  0
    1.0896   -1.6437    0.1540 H   0  0  0  0  0  0  0  0  0  0  0  0
    5.0967   -1.7698   -0.8006 H   0  0  0  0  0  0  0  0  0  0  0  0
    5.6140   -0.3364   -1.7279 H   0  0  0  0  0  0  0  0  0  0  0  0
    4.7584   -1.6735   -2.5376 H   0  0  0  0  0  0  0  0  0  0  0  0
    0.9730   -1.9624   -3.8430 H   0  0  0  0  0  0  0  0  0  0  0  0
    1.1787   -2.2546   -6.3279 H   0  0  0  0  0  0  0  0  0  0  0  0
    4.7603    0.1586   -8.8003 H   0  0  0  0  0  0  0  0  0  0  0  0
    4.4079    0.6641   -3.7717 H   0  0  0  0  0  0  0  0  0  0  0  0
  1  2  1  0
  1 33  1  0
  1 34  1  0
  1 35  1  0
  2  3  1  6
  2  4  1  0
  2 19  1  0
  4  5  2  0
  4 18  1  0
  5  6  1  0
  5 36  1  0
  6  7  2  0
  6 37  1  0
  7  8  1  0
  7 38  1  0
  8  9  1  0
  8 18  2  0
  9 10  1  0
  9 39  1  0
 10 11  2  0
 10 12  1  0
 12 13  2  0
 12 17  1  0
 13 14  1  0
 13 40  1  0
 14 15  2  0
 14 41  1  0
 15 16  1  0
 15 42  1  0
 16 17  2  0
 16 43  1  0
 17 44  1  0
 18 45  1  0
 19 20  1  0
 19 21  1  0
 20 46  1  0
 20 47  1  0
 20 48  1  0
 21 22  2  0
 21 23  1  0
 23 24  2  0
 23 32  1  0
 24 25  1  0
 24 49  1  0
 25 26  2  0
 25 50  1  0
 26 27  1  0
 26 31  1  0
 27 28  2  0
 28 29  1  0
 28 51  1  0
 29 30  1  0
 29 31  1  0
 31 32  2  0
 32 52  1  0
M  END

