
     RDKit          3D

 75 80  0  0  0  0  0  0  0  0999 V2000
    1.6769    0.2003   -0.8277 C   0  0  0  0  0  0  0  0  0  0  0  0
    1.8201    0.0508    0.5848 O   0  0  0  0  0  0  0  0  0  0  0  0
    2.6173    0.8447    1.2724 C   0  0  0  0  0  0  0  0  0  0  0  0
    3.3997    1.8991    0.7481 C   0  0  0  0  0  0  0  0  0  0  0  0
    4.1946    2.6541    1.5883 C   0  0  0  0  0  0  0  0  0  0  0  0
    4.2771    2.4217    3.0092 C   0  0  0  0  0  0  0  0  0  0  0  0
    5.1298    3.2506    3.8224 C   0  0  0  0  0  0  0  0  0  0  0  0
    5.1985    3.0344    5.1284 N   0  0  0  0  0  0  0  0  0  0  0  0
    6.0214    3.8950    5.7065 N   0  0  0  0  0  0  0  0  0  0  0  0
    6.2869    3.9494    7.1672 C   0  0  1  0  0  0  0  0  0  0  0  0
    5.0908    4.5283    7.9471 C   0  0  0  0  0  0  0  0  0  0  0  0
    3.9819    3.4935    8.1942 C   0  0  0  0  0  0  0  0  0  0  0  0
    4.4669    2.2593    8.7975 N   0  0  0  0  0  0  0  0  0  0  0  0
    4.6707    2.3279   10.5565 S   0  0  1  0  0  0  0  0  0  0  0  0
    6.0235    2.8853   10.7929 O   0  0  0  0  0  0  0  0  0  0  0  0
    3.4945    3.1179   10.9635 O   0  0  0  0  0  0  0  0  0  0  0  0
    4.5870    0.7035   11.1059 C   0  0  0  0  0  0  0  0  0  0  0  0
    3.3170    0.0788   11.1854 C   0  0  0  0  0  0  0  0  0  0  0  0
    3.2196   -1.2518   11.5187 C   0  0  0  0  0  0  0  0  0  0  0  0
    4.3920   -2.0576   11.7871 C   0  0  0  0  0  0  0  0  0  0  0  0
    4.3134   -3.4153   12.1245 C   0  0  0  0  0  0  0  0  0  0  0  0
    5.4662   -4.1800   12.3970 C   0  0  0  0  0  0  0  0  0  0  0  0
    6.7222   -3.5636   12.3319 C   0  0  0  0  0  0  0  0  0  0  0  0
    6.8432   -2.2165   11.9987 C   0  0  0  0  0  0  0  0  0  0  0  0
    5.6922   -1.4139   11.7096 C   0  0  0  0  0  0  0  0  0  0  0  0
    5.7778   -0.0511   11.3679 C   0  0  0  0  0  0  0  0  0  0  0  0
    5.5771    1.6408    8.0817 C   0  0  0  0  0  0  0  0  0  0  0  0
    6.7361    2.6024    7.7570 C   0  0  0  0  0  0  0  0  0  0  0  0
    6.5945    4.7959    4.7816 C   0  0  0  0  0  0  0  0  0  0  0  0
    7.3751    5.6703    5.0474 O   0  0  0  0  0  0  0  0  0  0  0  0
    6.0160    4.4191    3.4100 C   0  0  2  0  0  0  0  0  0  0  0  0
    5.2447    5.6482    2.8781 C   0  0  0  0  0  0  0  0  0  0  0  0
    7.1970    4.0416    2.4886 C   0  0  0  0  0  0  0  0  0  0  0  0
    3.4935    1.3690    3.5299 C   0  0  0  0  0  0  0  0  0  0  0  0
    2.6906    0.6074    2.6871 C   0  0  0  0  0  0  0  0  0  0  0  0
    1.9985   -0.3491    3.2713 O   0  0  0  0  0  0  0  0  0  0  0  0
    2.2588   -0.3101    4.7477 C   0  0  2  0  0  0  0  0  0  0  0  0
    2.7678   -1.6911    5.1330 C   0  0  0  0  0  0  0  0  0  0  0  0
    0.9278    0.0310    5.4052 C   0  0  0  0  0  0  0  0  0  0  0  0
    3.3241    0.8136    4.9188 C   0  0  0  0  0  0  0  0  0  0  0  0
    0.9723   -0.5775   -1.1419 H   0  0  0  0  0  0  0  0  0  0  0  0
    2.6432    0.0528   -1.3343 H   0  0  0  0  0  0  0  0  0  0  0  0
    1.2685    1.1927   -1.0741 H   0  0  0  0  0  0  0  0  0  0  0  0
    3.3797    2.1216   -0.3177 H   0  0  0  0  0  0  0  0  0  0  0  0
    4.7830    3.4563    1.1501 H   0  0  0  0  0  0  0  0  0  0  0  0
    7.1213    4.6626    7.2158 H   0  0  0  0  0  0  0  0  0  0  0  0
    4.6985    5.4246    7.4370 H   0  0  0  0  0  0  0  0  0  0  0  0
    5.4842    4.8520    8.9229 H   0  0  0  0  0  0  0  0  0  0  0  0
    3.4754    3.2439    7.2434 H   0  0  0  0  0  0  0  0  0  0  0  0
    3.2213    3.9169    8.8630 H   0  0  0  0  0  0  0  0  0  0  0  0
    2.4207    0.6733   10.9978 H   0  0  0  0  0  0  0  0  0  0  0  0
    2.2359   -1.7216   11.6053 H   0  0  0  0  0  0  0  0  0  0  0  0
    3.3248   -3.8815   12.1834 H   0  0  0  0  0  0  0  0  0  0  0  0
    5.3782   -5.2357   12.6632 H   0  0  0  0  0  0  0  0  0  0  0  0
    7.6238   -4.1448   12.5498 H   0  0  0  0  0  0  0  0  0  0  0  0
    7.8300   -1.7470   11.9578 H   0  0  0  0  0  0  0  0  0  0  0  0
    6.7475    0.4460   11.3451 H   0  0  0  0  0  0  0  0  0  0  0  0
    5.1822    1.1974    7.1528 H   0  0  0  0  0  0  0  0  0  0  0  0
    5.9591    0.8026    8.6812 H   0  0  0  0  0  0  0  0  0  0  0  0
    7.4727    2.1189    7.0931 H   0  0  0  0  0  0  0  0  0  0  0  0
    7.2447    2.8431    8.7014 H   0  0  0  0  0  0  0  0  0  0  0  0
    4.3867    5.8964    3.5210 H   0  0  0  0  0  0  0  0  0  0  0  0
    4.8737    5.4867    1.8560 H   0  0  0  0  0  0  0  0  0  0  0  0
    5.9243    6.5133    2.8660 H   0  0  0  0  0  0  0  0  0  0  0  0
    7.7201    3.1430    2.8492 H   0  0  0  0  0  0  0  0  0  0  0  0
    7.9155    4.8746    2.4788 H   0  0  0  0  0  0  0  0  0  0  0  0
    6.8681    3.8583    1.4558 H   0  0  0  0  0  0  0  0  0  0  0  0
    2.0180   -2.4614    4.9005 H   0  0  0  0  0  0  0  0  0  0  0  0
    2.9743   -1.7213    6.2131 H   0  0  0  0  0  0  0  0  0  0  0  0
    3.6981   -1.9335    4.5973 H   0  0  0  0  0  0  0  0  0  0  0  0
    0.1687   -0.7274    5.1639 H   0  0  0  0  0  0  0  0  0  0  0  0
    0.5611    1.0139    5.0711 H   0  0  0  0  0  0  0  0  0  0  0  0
    1.0541    0.0646    6.4975 H   0  0  0  0  0  0  0  0  0  0  0  0
    4.2754    0.4210    5.3071 H   0  0  0  0  0  0  0  0  0  0  0  0
    3.0003    1.5794    5.6371 H   0  0  0  0  0  0  0  0  0  0  0  0
  1  2  1  0
  1 41  1  0
  1 42  1  0
  1 43  1  0
  2  3  1  0
  3  4  2  0
  3 35  1  0
  4  5  1  0
  4 44  1  0
  5  6  2  0
  5 45  1  0
  6  7  1  0
  6 34  1  0
  7  8  2  0
  7 31  1  0
  8  9  1  0
  9 10  1  0
  9 29  1  0
 10 11  1  0
 10 28  1  0
 10 46  1  6
 11 12  1  0
 11 47  1  0
 11 48  1  0
 12 13  1  0
 12 49  1  0
 12 50  1  0
 13 14  1  0
 13 27  1  0
 14 15  2  0
 14 16  2  0
 14 17  1  1
 17 18  2  0
 17 26  1  0
 18 19  1  0
 18 51  1  0
 19 20  2  0
 19 52  1  0
 20 21  1  0
 20 25  1  0
 21 22  2  0
 21 53  1  0
 22 23  1  0
 22 54  1  0
 23 24  2  0
 23 55  1  0
 24 25  1  0
 24 56  1  0
 25 26  2  0
 26 57  1  0
 27 28  1  0
 27 58  1  0
 27 59  1  0
 28 60  1  0
 28 61  1  0
 29 30  2  0
 29 31  1  0
 31 32  1  6
 31 33  1  0
 32 62  1  0
 32 63  1  0
 32 64  1  0
 33 65  1  0
 33 66  1  0
 33 67  1  0
 34 35  2  0
 34 40  1  0
 35 36  1  0
 36 37  1  0
 37 38  1  1
 37 39  1  0
 37 40  1  0
 38 68  1  0
 38 69  1  0
 38 70  1  0
 39 71  1  0
 39 72  1  0
 39 73  1  0
 40 74  1  0
 40 75  1  0
M  END

