
     RDKit          3D

 98102  0  0  0  0  0  0  0  0999 V2000
    0.3641    1.2143    0.5424 C   0  0  0  0  0  0  0  0  0  0  0  0
    1.7579    0.5682    0.4439 C   0  0  1  0  0  0  0  0  0  0  0  0
    1.7306   -0.6287   -0.5204 C   0  0  0  0  0  0  0  0  0  0  0  0
    3.1330    1.8655    0.0880 Si  0  0  1  0  0  4  0  0  0  0  0  0
    2.6782    2.8057   -1.4447 C   0  0  0  0  0  0  0  0  0  0  0  0
    2.3949    3.5282   -2.3997 C   0  0  0  0  0  0  0  0  0  0  0  0
    2.0654    4.3537   -3.4920 C   0  0  0  0  0  0  0  0  0  0  0  0
    1.6227    3.7768   -4.7371 C   0  0  0  0  0  0  0  0  0  0  0  0
    1.5181    2.3793   -4.9125 C   0  0  0  0  0  0  0  0  0  0  0  0
    1.0889    1.8287   -6.1212 C   0  0  0  0  0  0  0  0  0  0  0  0
    0.7512    2.6693   -7.1897 C   0  0  0  0  0  0  0  0  0  0  0  0
    0.8441    4.0544   -7.0416 C   0  0  0  0  0  0  0  0  0  0  0  0
    1.2758    4.6382   -5.8301 C   0  0  0  0  0  0  0  0  0  0  0  0
    1.3741    6.0696   -5.6664 C   0  0  0  0  0  0  0  0  0  0  0  0
    1.0020    6.9225   -6.7247 C   0  0  0  0  0  0  0  0  0  0  0  0
    0.6463    7.6204   -7.6740 C   0  0  0  0  0  0  0  0  0  0  0  0
    0.0721    8.7118   -9.0620 Si  0  0  1  0  0  4  0  0  0  0  0  0
    0.2477   10.5251   -8.4728 C   0  0  1  0  0  0  0  0  0  0  0  0
   -0.6210   10.8147   -7.2353 C   0  0  0  0  0  0  0  0  0  0  0  0
    1.7147   10.9172   -8.2229 C   0  0  0  0  0  0  0  0  0  0  0  0
    1.2529    8.3859  -10.5430 C   0  0  1  0  0  0  0  0  0  0  0  0
    1.4094    6.9062  -10.9307 C   0  0  0  0  0  0  0  0  0  0  0  0
    0.9358    9.2560  -11.7726 C   0  0  0  0  0  0  0  0  0  0  0  0
   -1.7831    8.2842   -9.3342 C   0  0  1  0  0  0  0  0  0  0  0  0
   -2.5131    9.2668  -10.2674 C   0  0  0  0  0  0  0  0  0  0  0  0
   -2.0413    6.8268   -9.7497 C   0  0  0  0  0  0  0  0  0  0  0  0
    1.8360    6.6437   -4.4318 C   0  0  0  0  0  0  0  0  0  0  0  0
    1.9333    7.9798   -4.3228 N   0  0  0  0  0  0  0  0  0  0  0  0
    2.3643    8.4849   -3.1492 C   0  0  0  0  0  0  0  0  0  0  0  0
    2.7000    7.6191   -2.0498 C   0  0  0  0  0  0  0  0  0  0  0  0
    3.1444    8.1899   -0.8180 C   0  0  0  0  0  0  0  0  0  0  0  0
    3.2619    9.5506   -0.6652 C   0  0  0  0  0  0  0  0  0  0  0  0
    2.9460   10.4476   -1.7327 C   0  0  0  0  0  0  0  0  0  0  0  0
    3.0676   11.8530   -1.5899 C   0  0  0  0  0  0  0  0  0  0  0  0
    2.7595   12.7046   -2.6360 C   0  0  0  0  0  0  0  0  0  0  0  0
    2.3155   12.1770   -3.8712 C   0  0  0  0  0  0  0  0  0  0  0  0
    2.1857   10.8099   -4.0407 C   0  0  0  0  0  0  0  0  0  0  0  0
    2.4940    9.9154   -2.9861 C   0  0  0  0  0  0  0  0  0  0  0  0
    2.6033    6.2757   -2.1605 N   0  0  0  0  0  0  0  0  0  0  0  0
    2.1796    5.7785   -3.3339 C   0  0  0  0  0  0  0  0  0  0  0  0
    3.1246    3.1457    1.5176 C   0  0  1  0  0  0  0  0  0  0  0  0
    3.5377    2.5451    2.8740 C   0  0  0  0  0  0  0  0  0  0  0  0
    3.8769    4.4533    1.2132 C   0  0  0  0  0  0  0  0  0  0  0  0
    4.8246    0.9959   -0.2261 C   0  0  1  0  0  0  0  0  0  0  0  0
    4.9511    0.4333   -1.6544 C   0  0  0  0  0  0  0  0  0  0  0  0
    6.0517    1.8639    0.1017 C   0  0  0  0  0  0  0  0  0  0  0  0
   -0.3965    0.4640    0.8204 H   0  0  0  0  0  0  0  0  0  0  0  0
    0.0576    1.6518   -0.4224 H   0  0  0  0  0  0  0  0  0  0  0  0
    0.3202    2.0165    1.2952 H   0  0  0  0  0  0  0  0  0  0  0  0
    2.0193    0.1771    1.4470 H   0  0  0  0  0  0  0  0  0  0  0  0
    1.5338   -0.3099   -1.5582 H   0  0  0  0  0  0  0  0  0  0  0  0
    0.9281   -1.3340   -0.2416 H   0  0  0  0  0  0  0  0  0  0  0  0
    2.6754   -1.1930   -0.5165 H   0  0  0  0  0  0  0  0  0  0  0  0
    1.7824    1.7272   -4.0784 H   0  0  0  0  0  0  0  0  0  0  0  0
    1.0188    0.7438   -6.2287 H   0  0  0  0  0  0  0  0  0  0  0  0
    0.4152    2.2470   -8.1395 H   0  0  0  0  0  0  0  0  0  0  0  0
    0.5818    4.7095   -7.8735 H   0  0  0  0  0  0  0  0  0  0  0  0
   -0.1316   11.1478   -9.3058 H   0  0  0  0  0  0  0  0  0  0  0  0
   -0.3231   10.1866   -6.3797 H   0  0  0  0  0  0  0  0  0  0  0  0
   -1.6916   10.6340   -7.4220 H   0  0  0  0  0  0  0  0  0  0  0  0
   -0.5183   11.8681   -6.9215 H   0  0  0  0  0  0  0  0  0  0  0  0
    2.1772   10.2781   -7.4526 H   0  0  0  0  0  0  0  0  0  0  0  0
    1.7870   11.9612   -7.8708 H   0  0  0  0  0  0  0  0  0  0  0  0
    2.3311   10.8383   -9.1323 H   0  0  0  0  0  0  0  0  0  0  0  0
    2.2298    8.7187  -10.1449 H   0  0  0  0  0  0  0  0  0  0  0  0
    0.4859    6.4967  -11.3707 H   0  0  0  0  0  0  0  0  0  0  0  0
    1.6734    6.2790  -10.0648 H   0  0  0  0  0  0  0  0  0  0  0  0
    2.2074    6.7832  -11.6838 H   0  0  0  0  0  0  0  0  0  0  0  0
   -0.0137    8.9589  -12.2473 H   0  0  0  0  0  0  0  0  0  0  0  0
    1.7242    9.1528  -12.5386 H   0  0  0  0  0  0  0  0  0  0  0  0
    0.8604   10.3273  -11.5253 H   0  0  0  0  0  0  0  0  0  0  0  0
   -2.2075    8.4137   -8.3207 H   0  0  0  0  0  0  0  0  0  0  0  0
   -2.1461    9.1973  -11.3044 H   0  0  0  0  0  0  0  0  0  0  0  0
   -2.4022   10.3149   -9.9473 H   0  0  0  0  0  0  0  0  0  0  0  0
   -3.5948    9.0467  -10.2937 H   0  0  0  0  0  0  0  0  0  0  0  0
   -1.6928    6.6290  -10.7763 H   0  0  0  0  0  0  0  0  0  0  0  0
   -3.1214    6.5990   -9.7266 H   0  0  0  0  0  0  0  0  0  0  0  0
   -1.5387    6.1100   -9.0814 H   0  0  0  0  0  0  0  0  0  0  0  0
    3.3863    7.5024   -0.0055 H   0  0  0  0  0  0  0  0  0  0  0  0
    3.6040    9.9687    0.2855 H   0  0  0  0  0  0  0  0  0  0  0  0
    3.4121   12.2559   -0.6333 H   0  0  0  0  0  0  0  0  0  0  0  0
    2.8591   13.7857   -2.5096 H   0  0  0  0  0  0  0  0  0  0  0  0
    2.0747   12.8540   -4.6949 H   0  0  0  0  0  0  0  0  0  0  0  0
    1.8459   10.3866   -4.9858 H   0  0  0  0  0  0  0  0  0  0  0  0
    2.0528    3.4096    1.5906 H   0  0  0  0  0  0  0  0  0  0  0  0
    4.6021    2.2568    2.8907 H   0  0  0  0  0  0  0  0  0  0  0  0
    2.9504    1.6505    3.1387 H   0  0  0  0  0  0  0  0  0  0  0  0
    3.3934    3.2790    3.6862 H   0  0  0  0  0  0  0  0  0  0  0  0
    4.9659    4.2996    1.1564 H   0  0  0  0  0  0  0  0  0  0  0  0
    3.6987    5.1924    2.0148 H   0  0  0  0  0  0  0  0  0  0  0  0
    3.5495    4.9022    0.2624 H   0  0  0  0  0  0  0  0  0  0  0  0
    4.8191    0.1406    0.4781 H   0  0  0  0  0  0  0  0  0  0  0  0
    4.9817    1.2472   -2.3969 H   0  0  0  0  0  0  0  0  0  0  0  0
    4.1197   -0.2310   -1.9317 H   0  0  0  0  0  0  0  0  0  0  0  0
    5.8854   -0.1455   -1.7605 H   0  0  0  0  0  0  0  0  0  0  0  0
    6.0932    2.7623   -0.5359 H   0  0  0  0  0  0  0  0  0  0  0  0
    6.9825    1.2969   -0.0759 H   0  0  0  0  0  0  0  0  0  0  0  0
    6.0676    2.1978    1.1495 H   0  0  0  0  0  0  0  0  0  0  0  0
  1  2  1  0
  1 47  1  0
  1 48  1  0
  1 49  1  0
  2  3  1  0
  2  4  1  0
  2 50  1  1
  3 51  1  0
  3 52  1  0
  3 53  1  0
  4  5  1  6
  4 41  1  0
  4 44  1  0
  5  6  3  0
  6  7  1  0
  7  8  2  0
  7 40  1  0
  8  9  1  0
  8 13  1  0
  9 10  2  0
  9 54  1  0
 10 11  1  0
 10 55  1  0
 11 12  2  0
 11 56  1  0
 12 13  1  0
 12 57  1  0
 13 14  2  0
 14 15  1  0
 14 27  1  0
 15 16  3  0
 17 16  1  1
 17 18  1  0
 17 21  1  0
 17 24  1  0
 18 19  1  0
 18 20  1  0
 18 58  1  6
 19 59  1  0
 19 60  1  0
 19 61  1  0
 20 62  1  0
 20 63  1  0
 20 64  1  0
 21 22  1  0
 21 23  1  0
 21 65  1  1
 22 66  1  0
 22 67  1  0
 22 68  1  0
 23 69  1  0
 23 70  1  0
 23 71  1  0
 24 25  1  0
 24 26  1  0
 24 72  1  1
 25 73  1  0
 25 74  1  0
 25 75  1  0
 26 76  1  0
 26 77  1  0
 26 78  1  0
 27 28  1  0
 27 40  2  0
 28 29  2  0
 29 30  1  0
 29 38  1  0
 30 31  1  0
 30 39  2  0
 31 32  2  0
 31 79  1  0
 32 33  1  0
 32 80  1  0
 33 34  1  0
 33 38  2  0
 34 35  2  0
 34 81  1  0
 35 36  1  0
 35 82  1  0
 36 37  2  0
 36 83  1  0
 37 38  1  0
 37 84  1  0
 39 40  1  0
 41 42  1  0
 41 43  1  0
 41 85  1  1
 42 86  1  0
 42 87  1  0
 42 88  1  0
 43 89  1  0
 43 90  1  0
 43 91  1  0
 44 45  1  0
 44 46  1  0
 44 92  1  1
 45 93  1  0
 45 94  1  0
 45 95  1  0
 46 96  1  0
 46 97  1  0
 46 98  1  0
M  END

