
     RDKit          3D

 43 43  0  0  0  0  0  0  0  0999 V2000
    4.6652    0.6733   -1.3194 C   0  0  0  0  0  0  0  0  0  0  0  0
    4.4263   -0.3956   -0.4276 O   0  0  0  0  0  0  0  0  0  0  0  0
    4.2162   -0.1310    0.8790 C   0  0  0  0  0  0  0  0  0  0  0  0
    4.2208    1.1558    1.4286 C   0  0  0  0  0  0  0  0  0  0  0  0
    4.0129    1.3517    2.8006 C   0  0  0  0  0  0  0  0  0  0  0  0
    4.0438    2.7818    3.2865 C   0  0  0  0  0  0  0  0  0  0  0  0
    3.9790    3.7194    2.4996 O   0  0  0  0  0  0  0  0  0  0  0  0
    4.1592    2.9498    4.6321 N   0  0  0  0  0  0  0  0  0  0  0  0
    4.1398    4.2485    5.2678 C   0  0  0  0  0  0  0  0  0  0  0  0
    3.0839    4.3354    6.3781 C   0  0  0  0  0  0  0  0  0  0  0  0
    3.3266    3.3411    7.5128 C   0  0  0  0  0  0  0  0  0  0  0  0
    3.8169    2.2332    7.3097 O   0  0  0  0  0  0  0  0  0  0  0  0
    2.9405    3.7564    8.7493 N   0  0  0  0  0  0  0  0  0  0  0  0
    3.0369    2.9326    9.9545 C   0  0  1  0  0  0  0  0  0  0  0  0
    4.0252    3.5437   10.9535 C   0  0  0  0  0  0  0  0  0  0  0  0
    1.6510    2.7074   10.5675 C   0  0  0  0  0  0  0  0  0  0  0  0
    3.7710    0.2537    3.6320 C   0  0  0  0  0  0  0  0  0  0  0  0
    3.7530   -1.0429    3.0997 C   0  0  0  0  0  0  0  0  0  0  0  0
    3.5558   -2.1043    3.9342 O   0  0  0  0  0  0  0  0  0  0  0  0
    2.2102   -2.5206    4.1122 C   0  0  0  0  0  0  0  0  0  0  0  0
    3.9772   -1.2360    1.7279 C   0  0  0  0  0  0  0  0  0  0  0  0
    3.9859   -2.9896    1.0057 Br  0  0  0  0  0  0  0  0  0  0  0  0
    4.8055    0.2217   -2.3103 H   0  0  0  0  0  0  0  0  0  0  0  0
    5.5744    1.2376   -1.0472 H   0  0  0  0  0  0  0  0  0  0  0  0
    3.8113    1.3722   -1.3581 H   0  0  0  0  0  0  0  0  0  0  0  0
    4.3848    2.0423    0.8176 H   0  0  0  0  0  0  0  0  0  0  0  0
    4.2503    2.1622    5.2664 H   0  0  0  0  0  0  0  0  0  0  0  0
    3.9314    4.9899    4.4843 H   0  0  0  0  0  0  0  0  0  0  0  0
    5.1338    4.4862    5.6904 H   0  0  0  0  0  0  0  0  0  0  0  0
    2.0897    4.1133    5.9512 H   0  0  0  0  0  0  0  0  0  0  0  0
    3.0422    5.3656    6.7692 H   0  0  0  0  0  0  0  0  0  0  0  0
    2.5581    4.6909    8.8446 H   0  0  0  0  0  0  0  0  0  0  0  0
    3.4358    1.9702    9.6015 H   0  0  0  0  0  0  0  0  0  0  0  0
    3.6819    4.5339   11.3003 H   0  0  0  0  0  0  0  0  0  0  0  0
    5.0195    3.6657   10.4977 H   0  0  0  0  0  0  0  0  0  0  0  0
    4.1309    2.8994   11.8405 H   0  0  0  0  0  0  0  0  0  0  0  0
    1.1992    3.6605   10.8940 H   0  0  0  0  0  0  0  0  0  0  0  0
    1.7175    2.0530   11.4508 H   0  0  0  0  0  0  0  0  0  0  0  0
    0.9702    2.2365    9.8421 H   0  0  0  0  0  0  0  0  0  0  0  0
    3.5827    0.3565    4.7024 H   0  0  0  0  0  0  0  0  0  0  0  0
    2.2280   -3.3626    4.8179 H   0  0  0  0  0  0  0  0  0  0  0  0
    1.7609   -2.8581    3.1621 H   0  0  0  0  0  0  0  0  0  0  0  0
    1.5904   -1.7091    4.5351 H   0  0  0  0  0  0  0  0  0  0  0  0
  1  2  1  0
  1 23  1  0
  1 24  1  0
  1 25  1  0
  2  3  1  0
  3  4  2  0
  3 21  1  0
  4  5  1  0
  4 26  1  0
  5  6  1  0
  5 17  2  0
  6  7  2  0
  6  8  1  0
  8  9  1  0
  8 27  1  0
  9 10  1  0
  9 28  1  0
  9 29  1  0
 10 11  1  0
 10 30  1  0
 10 31  1  0
 11 12  2  0
 11 13  1  0
 13 14  1  0
 13 32  1  0
 14 15  1  0
 14 16  1  0
 14 33  1  6
 15 34  1  0
 15 35  1  0
 15 36  1  0
 16 37  1  0
 16 38  1  0
 16 39  1  0
 17 18  1  0
 17 40  1  0
 18 19  1  0
 18 21  2  0
 19 20  1  0
 20 41  1  0
 20 42  1  0
 20 43  1  0
 21 22  1  0
M  END

