
     RDKit          3D

 45 46  0  0  0  0  0  0  0  0999 V2000
    6.6467   -3.0478   -1.8565 C   0  0  0  0  0  0  0  0  0  0  0  0
    7.0290   -1.6157   -1.4562 C   0  0  1  0  0  0  0  0  0  0  0  0
    8.1942   -1.1054   -2.3154 C   0  0  0  0  0  0  0  0  0  0  0  0
    5.8572   -0.6160   -1.5379 C   0  0  0  0  0  0  0  0  0  0  0  0
    4.6127   -0.9042   -0.6777 C   0  0  2  0  0  0  0  0  0  0  0  0
    3.9636   -0.0131   -0.7206 H   0  0  0  0  0  0  0  0  0  0  0  0
    4.8922   -1.1129    0.7376 N   0  0  0  0  0  0  0  0  0  0  0  0
    4.4347   -0.2209    1.6827 C   0  0  0  0  0  0  0  0  0  0  0  0
    3.6346    0.6688    1.4486 O   0  0  0  0  0  0  0  0  0  0  0  0
    5.0199   -0.4368    3.0912 C   0  0  0  0  0  0  0  0  0  0  0  0
    6.4232   -0.0951    3.2318 N   0  0  0  0  0  0  0  0  0  0  0  0
    7.4113   -0.9887    2.7713 C   0  0  0  0  0  0  0  0  0  0  0  0
    7.0963   -2.0306    2.1261 O   0  0  0  0  0  0  0  0  0  0  0  0
    8.8002   -0.6868    3.0763 C   0  0  0  0  0  0  0  0  0  0  0  0
    9.1950    0.3657    3.9545 C   0  0  0  0  0  0  0  0  0  0  0  0
   10.5317    0.6789    4.2484 C   0  0  0  0  0  0  0  0  0  0  0  0
   11.5115   -0.1137    3.6473 C   0  0  0  0  0  0  0  0  0  0  0  0
   12.9334   -0.0544    3.7486 N   0  0  0  0  0  0  0  0  0  0  0  0
   13.4531    0.6259    4.2912 H   0  0  0  0  0  0  0  0  0  0  0  0
   13.4704   -1.0321    3.0186 C   0  0  0  0  0  0  0  0  0  0  0  0
   12.4176   -1.7798    2.4037 C   0  0  0  0  0  0  0  0  0  0  0  0
   11.1798   -1.1948    2.8005 C   0  0  0  0  0  0  0  0  0  0  0  0
    9.8318   -1.5039    2.5110 C   0  0  0  0  0  0  0  0  0  0  0  0
    3.7381   -2.0257   -1.2759 C   0  0  0  0  0  0  0  0  0  0  0  0
    3.4776   -2.0940   -2.4483 O   0  0  0  0  0  0  0  0  0  0  0  0
    3.2537   -2.9027   -0.3833 O   0  0  0  0  0  0  0  0  0  0  0  0
    7.5320   -3.7042   -1.8311 H   0  0  0  0  0  0  0  0  0  0  0  0
    6.2211   -3.0841   -2.8723 H   0  0  0  0  0  0  0  0  0  0  0  0
    5.9043   -3.4883   -1.1734 H   0  0  0  0  0  0  0  0  0  0  0  0
    7.3789   -1.6482   -0.4091 H   0  0  0  0  0  0  0  0  0  0  0  0
    7.9109   -1.0603   -3.3814 H   0  0  0  0  0  0  0  0  0  0  0  0
    9.0710   -1.7684   -2.2323 H   0  0  0  0  0  0  0  0  0  0  0  0
    8.5095   -0.0931   -2.0124 H   0  0  0  0  0  0  0  0  0  0  0  0
    5.5070   -0.5414   -2.5808 H   0  0  0  0  0  0  0  0  0  0  0  0
    6.2309    0.3829   -1.2559 H   0  0  0  0  0  0  0  0  0  0  0  0
    5.7229   -1.6557    1.0438 H   0  0  0  0  0  0  0  0  0  0  0  0
    4.8985   -1.4924    3.3790 H   0  0  0  0  0  0  0  0  0  0  0  0
    4.4230    0.1889    3.7702 H   0  0  0  0  0  0  0  0  0  0  0  0
    6.6228    0.8963    3.1295 H   0  0  0  0  0  0  0  0  0  0  0  0
    8.4152    0.9482    4.4499 H   0  0  0  0  0  0  0  0  0  0  0  0
   10.7743    1.4964    4.9302 H   0  0  0  0  0  0  0  0  0  0  0  0
   14.5465   -1.1803    2.9459 H   0  0  0  0  0  0  0  0  0  0  0  0
   12.5679   -2.6386    1.7518 H   0  0  0  0  0  0  0  0  0  0  0  0
    9.5477   -2.3484    1.8841 H   0  0  0  0  0  0  0  0  0  0  0  0
    3.6089   -2.6358    0.4871 H   0  0  0  0  0  0  0  0  0  0  0  0
  1  2  1  0
  1 27  1  0
  1 28  1  0
  1 29  1  0
  2  3  1  0
  2  4  1  0
  2 30  1  1
  3 31  1  0
  3 32  1  0
  3 33  1  0
  4  5  1  0
  4 34  1  0
  4 35  1  0
  5  6  1  1
  5  7  1  0
  5 24  1  0
  7  8  1  0
  7 36  1  0
  8  9  2  0
  8 10  1  0
 10 11  1  0
 10 37  1  0
 10 38  1  0
 11 12  1  0
 11 39  1  0
 12 13  2  0
 12 14  1  0
 14 15  2  0
 14 23  1  0
 15 16  1  0
 15 40  1  0
 16 17  2  0
 16 41  1  0
 17 18  1  0
 17 22  1  0
 18 19  1  0
 18 20  1  0
 20 21  2  0
 20 42  1  0
 21 22  1  0
 21 43  1  0
 22 23  2  0
 23 44  1  0
 24 25  2  0
 24 26  1  0
 26 45  1  0
M  END

