
     RDKit          3D

 61 66  0  0  0  0  0  0  0  0999 V2000
    8.7635    6.6696    6.9290 C   0  0  0  0  0  0  0  0  0  0  0  0
    9.0020    5.5105    6.0314 C   0  0  0  0  0  0  0  0  0  0  0  0
    9.1146    5.4863    4.7385 N   0  0  0  0  0  0  0  0  0  0  0  0
    9.3675    4.1584    4.4746 C   0  0  0  0  0  0  0  0  0  0  0  0
    9.6090    3.6388    3.1205 C   0  0  0  0  0  0  0  0  0  0  0  0
    9.7668    4.5350    2.0535 C   0  0  0  0  0  0  0  0  0  0  0  0
   10.0494    4.0557    0.7738 C   0  0  0  0  0  0  0  0  0  0  0  0
   10.1668    2.6805    0.5283 C   0  0  0  0  0  0  0  0  0  0  0  0
   10.4310    2.1861   -0.8858 C   0  0  0  0  0  0  0  0  0  0  0  0
   11.4676    1.1600   -1.0453 N   0  0  0  0  0  0  0  0  0  0  0  0
   11.0234   -0.2099   -1.1180 C   0  0  0  0  0  0  0  0  0  0  0  0
    9.8375   -0.4140   -0.8447 O   0  0  0  0  0  0  0  0  0  0  0  0
   11.9734   -1.2037   -1.4855 C   0  0  0  0  0  0  0  0  0  0  0  0
   13.3023   -0.8903   -1.8323 C   0  0  0  0  0  0  0  0  0  0  0  0
   14.1883   -1.8751   -2.4537 C   0  0  0  0  0  0  0  0  0  0  0  0
   15.4038   -1.7802   -2.5641 O   0  0  0  0  0  0  0  0  0  0  0  0
   13.5766   -3.0011   -2.9338 O   0  0  0  0  0  0  0  0  0  0  0  0
   13.7667    0.4554   -1.4605 C   0  0  0  0  0  0  0  0  0  0  0  0
   15.1090    0.8319   -1.4910 C   0  0  0  0  0  0  0  0  0  0  0  0
   15.5347    2.1181   -1.1040 C   0  0  0  0  0  0  0  0  0  0  0  0
   14.6059    3.0680   -0.6455 C   0  0  0  0  0  0  0  0  0  0  0  0
   15.1047    4.2952   -0.3203 O   0  0  0  0  0  0  0  0  0  0  0  0
   14.5144    5.1118    0.6221 C   0  0  0  0  0  0  0  0  0  0  0  0
   14.3906    6.4676    0.3041 C   0  0  0  0  0  0  0  0  0  0  0  0
   13.8792    7.3506    1.2602 C   0  0  0  0  0  0  0  0  0  0  0  0
   13.4899    6.8887    2.5169 C   0  0  0  0  0  0  0  0  0  0  0  0
   13.6196    5.5237    2.8292 C   0  0  0  0  0  0  0  0  0  0  0  0
   13.2196    5.0086    4.1488 C   0  0  0  0  0  0  0  0  0  0  0  0
   12.7133    5.7707    5.0909 N   0  0  0  0  0  0  0  0  0  0  0  0
   12.4688    4.8844    6.1301 O   0  0  0  0  0  0  0  0  0  0  0  0
   12.8533    3.6639    5.7134 C   0  0  0  0  0  0  0  0  0  0  0  0
   12.6563    2.5127    6.6299 C   0  0  0  0  0  0  0  0  0  0  0  0
   13.3283    3.6823    4.5050 N   0  0  0  0  0  0  0  0  0  0  0  0
   14.1369    4.6316    1.8792 C   0  0  0  0  0  0  0  0  0  0  0  0
   13.2559    2.7365   -0.5992 C   0  0  0  0  0  0  0  0  0  0  0  0
   12.8135    1.4498   -1.0194 C   0  0  0  0  0  0  0  0  0  0  0  0
    9.9760    1.7855    1.5939 C   0  0  0  0  0  0  0  0  0  0  0  0
    9.7087    2.2578    2.8764 C   0  0  0  0  0  0  0  0  0  0  0  0
    9.4017    3.4041    5.5518 N   0  0  0  0  0  0  0  0  0  0  0  0
    9.1541    4.2968    6.5853 O   0  0  0  0  0  0  0  0  0  0  0  0
    8.4873    7.5438    6.3274 H   0  0  0  0  0  0  0  0  0  0  0  0
    9.6808    6.9007    7.4941 H   0  0  0  0  0  0  0  0  0  0  0  0
    7.9665    6.4464    7.6537 H   0  0  0  0  0  0  0  0  0  0  0  0
    9.6811    5.6060    2.2429 H   0  0  0  0  0  0  0  0  0  0  0  0
   10.1826    4.7673   -0.0467 H   0  0  0  0  0  0  0  0  0  0  0  0
   10.6952    3.0344   -1.5347 H   0  0  0  0  0  0  0  0  0  0  0  0
    9.5109    1.7263   -1.2727 H   0  0  0  0  0  0  0  0  0  0  0  0
   11.5876   -2.2233   -1.4825 H   0  0  0  0  0  0  0  0  0  0  0  0
   12.6231   -2.8519   -2.9976 H   0  0  0  0  0  0  0  0  0  0  0  0
   15.8285    0.0911   -1.8392 H   0  0  0  0  0  0  0  0  0  0  0  0
   16.5896    2.3941   -1.1525 H   0  0  0  0  0  0  0  0  0  0  0  0
   14.7054    6.8110   -0.6830 H   0  0  0  0  0  0  0  0  0  0  0  0
   13.7837    8.4114    1.0167 H   0  0  0  0  0  0  0  0  0  0  0  0
   13.0864    7.5724    3.2651 H   0  0  0  0  0  0  0  0  0  0  0  0
   12.9732    2.7676    7.6516 H   0  0  0  0  0  0  0  0  0  0  0  0
   13.2288    1.6521    6.2631 H   0  0  0  0  0  0  0  0  0  0  0  0
   11.5859    2.2510    6.6564 H   0  0  0  0  0  0  0  0  0  0  0  0
   14.2430    3.5775    2.1380 H   0  0  0  0  0  0  0  0  0  0  0  0
   12.5385    3.4620   -0.2244 H   0  0  0  0  0  0  0  0  0  0  0  0
   10.0225    0.7100    1.4114 H   0  0  0  0  0  0  0  0  0  0  0  0
    9.5670    1.5565    3.7008 H   0  0  0  0  0  0  0  0  0  0  0  0
  1  2  1  0
  1 41  1  0
  1 42  1  0
  1 43  1  0
  2  3  2  0
  2 40  1  0
  3  4  1  0
  4  5  1  0
  4 39  2  0
  5  6  2  0
  5 38  1  0
  6  7  1  0
  6 44  1  0
  7  8  2  0
  7 45  1  0
  8  9  1  0
  8 37  1  0
  9 10  1  0
  9 46  1  0
  9 47  1  0
 10 11  1  0
 10 36  1  0
 11 12  2  0
 11 13  1  0
 13 14  2  0
 13 48  1  0
 14 15  1  0
 14 18  1  0
 15 16  2  0
 15 17  1  0
 17 49  1  0
 18 19  1  0
 18 36  2  0
 19 20  2  0
 19 50  1  0
 20 21  1  0
 20 51  1  0
 21 22  1  0
 21 35  2  0
 22 23  1  0
 23 24  2  0
 23 34  1  0
 24 25  1  0
 24 52  1  0
 25 26  2  0
 25 53  1  0
 26 27  1  0
 26 54  1  0
 27 28  1  0
 27 34  2  0
 28 29  2  0
 28 33  1  0
 29 30  1  0
 30 31  1  0
 31 32  1  0
 31 33  2  0
 32 55  1  0
 32 56  1  0
 32 57  1  0
 34 58  1  0
 35 36  1  0
 35 59  1  0
 37 38  2  0
 37 60  1  0
 38 61  1  0
 39 40  1  0
M  END

