
     RDKit          3D

 47 49  0  0  0  0  0  0  0  0999 V2000
    3.8641   -0.9848    0.1148 O   0  0  0  0  0  0  0  0  0  0  0  0
    3.6615   -2.0266   -0.9186 S   0  0  1  0  0  0  0  0  0  0  0  0
    4.3402   -3.3287   -0.6746 O   0  0  0  0  0  0  0  0  0  0  0  0
    1.9791   -2.2548   -1.0067 N   0  0  0  0  0  0  0  0  0  0  0  0
    1.3188   -2.6745    0.2016 C   0  0  1  0  0  0  0  0  0  0  0  0
    0.9683   -1.6098    1.2049 C   0  0  0  0  0  0  0  0  0  0  0  0
   -0.1166   -2.2361    0.3736 C   0  0  0  0  0  0  0  0  0  0  0  0
    4.0581   -1.5264   -2.5500 C   0  0  0  0  0  0  0  0  0  0  0  0
    5.2796   -2.0997   -3.0736 C   0  0  0  0  0  0  0  0  0  0  0  0
    6.1329   -1.3424   -3.8486 C   0  0  0  0  0  0  0  0  0  0  0  0
    7.3917   -1.9738   -4.2413 N   0  0  0  0  0  0  0  0  0  0  0  0
    8.8433   -1.5585   -3.6850 S   0  0  1  0  0  0  0  0  0  0  0  0
    9.7970   -2.5900   -4.0510 O   0  0  0  0  0  0  0  0  0  0  0  0
    9.1166   -0.1437   -3.7923 O   0  0  0  0  0  0  0  0  0  0  0  0
    8.7268   -1.7730   -1.8500 N   0  0  0  0  0  0  0  0  0  0  0  0
    8.7401   -3.1210   -1.3346 C   0  0  0  0  0  0  0  0  0  0  0  0
    7.7366   -3.4405   -0.2066 C   0  0  0  0  0  0  0  0  0  0  0  0
    7.9103   -2.6247    1.0794 C   0  0  0  0  0  0  0  0  0  0  0  0
    7.2391   -1.2384    1.0651 C   0  0  0  0  0  0  0  0  0  0  0  0
    7.3966   -0.4295   -0.2302 C   0  0  0  0  0  0  0  0  0  0  0  0
    8.7416   -0.6141   -0.9920 C   0  0  0  0  0  0  0  0  0  0  0  0
    5.8495   -0.0224   -4.2502 C   0  0  0  0  0  0  0  0  0  0  0  0
    4.6092    0.5318   -3.8033 C   0  0  0  0  0  0  0  0  0  0  0  0
    3.7785   -0.1787   -2.9766 C   0  0  0  0  0  0  0  0  0  0  0  0
    2.6276    0.3817   -2.5647 F   0  0  0  0  0  0  0  0  0  0  0  0
    1.7886   -2.8536   -1.8106 H   0  0  0  0  0  0  0  0  0  0  0  0
    1.5943   -3.6630    0.5945 H   0  0  0  0  0  0  0  0  0  0  0  0
    1.2904   -0.5970    0.9578 H   0  0  0  0  0  0  0  0  0  0  0  0
    1.0410   -1.8720    2.2637 H   0  0  0  0  0  0  0  0  0  0  0  0
   -0.5443   -1.6387   -0.4358 H   0  0  0  0  0  0  0  0  0  0  0  0
   -0.8091   -2.9392    0.8451 H   0  0  0  0  0  0  0  0  0  0  0  0
    5.5302   -3.1211   -2.7895 H   0  0  0  0  0  0  0  0  0  0  0  0
    7.3722   -2.9366   -4.5724 H   0  0  0  0  0  0  0  0  0  0  0  0
    9.7721   -3.2842   -0.9555 H   0  0  0  0  0  0  0  0  0  0  0  0
    8.6185   -3.8083   -2.1817 H   0  0  0  0  0  0  0  0  0  0  0  0
    7.9155   -4.5066    0.0066 H   0  0  0  0  0  0  0  0  0  0  0  0
    6.6992   -3.3681   -0.5679 H   0  0  0  0  0  0  0  0  0  0  0  0
    8.9879   -2.5334    1.3130 H   0  0  0  0  0  0  0  0  0  0  0  0
    7.4792   -3.1997    1.9132 H   0  0  0  0  0  0  0  0  0  0  0  0
    7.6323   -0.6584    1.9168 H   0  0  0  0  0  0  0  0  0  0  0  0
    6.1566   -1.3535    1.2266 H   0  0  0  0  0  0  0  0  0  0  0  0
    7.3301    0.6470   -0.0144 H   0  0  0  0  0  0  0  0  0  0  0  0
    6.5718   -0.6409   -0.9217 H   0  0  0  0  0  0  0  0  0  0  0  0
    9.5737   -0.7347   -0.2749 H   0  0  0  0  0  0  0  0  0  0  0  0
    8.9474    0.2545   -1.6263 H   0  0  0  0  0  0  0  0  0  0  0  0
    6.5344    0.5455   -4.8739 H   0  0  0  0  0  0  0  0  0  0  0  0
    4.2940    1.5264   -4.1254 H   0  0  0  0  0  0  0  0  0  0  0  0
  1  2  2  0
  2  3  2  0
  2  4  1  6
  2  8  1  0
  4  5  1  0
  4 26  1  0
  5  6  1  0
  5  7  1  0
  5 27  1  1
  6  7  1  0
  6 28  1  0
  6 29  1  0
  7 30  1  0
  7 31  1  0
  8  9  2  0
  8 24  1  0
  9 10  1  0
  9 32  1  0
 10 11  1  0
 10 22  2  0
 12 11  1  1
 11 33  1  0
 12 13  2  0
 12 14  2  0
 12 15  1  0
 15 16  1  0
 15 21  1  0
 16 17  1  0
 16 34  1  0
 16 35  1  0
 17 18  1  0
 17 36  1  0
 17 37  1  0
 18 19  1  0
 18 38  1  0
 18 39  1  0
 19 20  1  0
 19 40  1  0
 19 41  1  0
 20 21  1  0
 20 42  1  0
 20 43  1  0
 21 44  1  0
 21 45  1  0
 22 23  1  0
 22 46  1  0
 23 24  2  0
 23 47  1  0
 24 25  1  0
M  END

