
     RDKit          3D

 72 75  0  0  0  0  0  0  0  0999 V2000
    1.8828    5.2913   -1.5292 C   0  0  0  0  0  0  0  0  0  0  0  0
    2.9393    4.3242   -1.0930 C   0  0  0  0  0  0  0  0  0  0  0  0
    2.8118    3.1705   -0.8215 O   0  0  0  0  0  0  0  0  0  0  0  0
    4.1751    4.9924   -1.0430 O   0  0  0  0  0  0  0  0  0  0  0  0
    5.3642    4.4689   -0.6896 C   0  0  0  0  0  0  0  0  0  0  0  0
    5.6027    3.1276   -0.2850 C   0  0  0  0  0  0  0  0  0  0  0  0
    6.8781    2.7310    0.0524 C   0  0  0  0  0  0  0  0  0  0  0  0
    7.9726    3.6594   -0.0025 C   0  0  0  0  0  0  0  0  0  0  0  0
    9.2426    3.3426    0.3114 N   0  0  0  0  0  0  0  0  0  0  0  0
    9.7987    2.0875    0.7778 C   0  0  0  0  0  0  0  0  0  0  0  0
    9.1015    1.1040    0.8379 O   0  0  0  0  0  0  0  0  0  0  0  0
   11.2395    2.1721    1.1105 C   0  0  0  0  0  0  0  0  0  0  0  0
   11.8661    3.4150    1.2070 C   0  0  0  0  0  0  0  0  0  0  0  0
   13.2571    3.5041    1.4429 C   0  0  0  0  0  0  0  0  0  0  0  0
   13.8928    4.7138    1.5080 N   0  0  0  0  0  0  0  0  0  0  0  0
   13.3509    6.0172    1.1957 C   0  0  0  0  0  0  0  0  0  0  0  0
   12.1837    6.1017    0.7378 O   0  0  0  0  0  0  0  0  0  0  0  0
   14.2248    7.1261    1.4306 C   0  0  0  0  0  0  0  0  0  0  0  0
   15.5232    7.0543    2.0500 C   0  0  0  0  0  0  0  0  0  0  0  0
   16.3038    8.1843    2.2105 C   0  0  0  0  0  0  0  0  0  0  0  0
   15.8517    9.4462    1.7790 C   0  0  0  0  0  0  0  0  0  0  0  0
   16.7531   10.4897    2.0090 O   0  0  0  0  0  0  0  0  0  0  0  0
   16.5900   11.7844    1.6988 C   0  0  0  0  0  0  0  0  0  0  0  0
   17.8155   12.5685    2.1230 C   0  0  0  0  0  0  0  0  0  0  0  0
   15.6206   12.2727    1.1622 O   0  0  0  0  0  0  0  0  0  0  0  0
   14.5721    9.5637    1.1845 C   0  0  0  0  0  0  0  0  0  0  0  0
   13.7917    8.4352    1.0244 C   0  0  0  0  0  0  0  0  0  0  0  0
   13.9754    2.2978    1.6199 C   0  0  0  0  0  0  0  0  0  0  0  0
   13.3289    1.0524    1.5555 C   0  0  0  0  0  0  0  0  0  0  0  0
   14.0106   -0.1678    1.7277 N   0  0  0  0  0  0  0  0  0  0  0  0
   15.3429   -0.3961    2.0011 C   0  0  0  0  0  0  0  0  0  0  0  0
   16.1605    0.4906    2.1829 O   0  0  0  0  0  0  0  0  0  0  0  0
   15.7350   -1.8483    2.0832 C   0  0  0  0  0  0  0  0  0  0  0  0
   15.0228   -2.8970    1.4760 C   0  0  0  0  0  0  0  0  0  0  0  0
   15.4661   -4.2117    1.5859 C   0  0  0  0  0  0  0  0  0  0  0  0
   16.6329   -4.5019    2.3064 C   0  0  0  0  0  0  0  0  0  0  0  0
   16.9557   -5.8461    2.3271 O   0  0  0  0  0  0  0  0  0  0  0  0
   17.9757   -6.4240    3.0282 C   0  0  0  0  0  0  0  0  0  0  0  0
   17.9791   -7.9099    2.7733 C   0  0  0  0  0  0  0  0  0  0  0  0
   18.7449   -5.8325    3.7357 O   0  0  0  0  0  0  0  0  0  0  0  0
   17.3684   -3.4702    2.9074 C   0  0  0  0  0  0  0  0  0  0  0  0
   16.9126   -2.1577    2.7787 C   0  0  0  0  0  0  0  0  0  0  0  0
   11.9504    0.9758    1.2916 C   0  0  0  0  0  0  0  0  0  0  0  0
    7.7097    5.0138   -0.4130 C   0  0  0  0  0  0  0  0  0  0  0  0
    6.4401    5.4007   -0.7462 C   0  0  0  0  0  0  0  0  0  0  0  0
    0.9159    4.7778   -1.5724 H   0  0  0  0  0  0  0  0  0  0  0  0
    2.1400    5.7054   -2.5162 H   0  0  0  0  0  0  0  0  0  0  0  0
    1.8356    6.1356   -0.8242 H   0  0  0  0  0  0  0  0  0  0  0  0
    4.7799    2.4203   -0.2436 H   0  0  0  0  0  0  0  0  0  0  0  0
    7.0808    1.7087    0.3609 H   0  0  0  0  0  0  0  0  0  0  0  0
    9.9324    4.0878    0.2188 H   0  0  0  0  0  0  0  0  0  0  0  0
   11.3767    4.3831    1.1151 H   0  0  0  0  0  0  0  0  0  0  0  0
   14.8899    4.6794    1.6734 H   0  0  0  0  0  0  0  0  0  0  0  0
   15.9131    6.1121    2.4440 H   0  0  0  0  0  0  0  0  0  0  0  0
   17.2846    8.1194    2.6878 H   0  0  0  0  0  0  0  0  0  0  0  0
   18.7133   12.1749    1.6212 H   0  0  0  0  0  0  0  0  0  0  0  0
   17.9789   12.4648    3.2072 H   0  0  0  0  0  0  0  0  0  0  0  0
   17.6780   13.6258    1.8662 H   0  0  0  0  0  0  0  0  0  0  0  0
   14.2164   10.5377    0.8595 H   0  0  0  0  0  0  0  0  0  0  0  0
   12.8055    8.5164    0.5661 H   0  0  0  0  0  0  0  0  0  0  0  0
   15.0460    2.3190    1.8135 H   0  0  0  0  0  0  0  0  0  0  0  0
   13.4146   -0.9854    1.7111 H   0  0  0  0  0  0  0  0  0  0  0  0
   14.1292   -2.6996    0.8780 H   0  0  0  0  0  0  0  0  0  0  0  0
   14.9271   -5.0325    1.1093 H   0  0  0  0  0  0  0  0  0  0  0  0
   18.1040   -8.1059    1.6971 H   0  0  0  0  0  0  0  0  0  0  0  0
   17.0141   -8.3460    3.0738 H   0  0  0  0  0  0  0  0  0  0  0  0
   18.7957   -8.3745    3.3382 H   0  0  0  0  0  0  0  0  0  0  0  0
   18.2748   -3.6934    3.4625 H   0  0  0  0  0  0  0  0  0  0  0  0
   17.4769   -1.3367    3.2252 H   0  0  0  0  0  0  0  0  0  0  0  0
   11.4375    0.0162    1.2094 H   0  0  0  0  0  0  0  0  0  0  0  0
    8.5349    5.7276   -0.4479 H   0  0  0  0  0  0  0  0  0  0  0  0
    6.2222    6.4229   -1.0566 H   0  0  0  0  0  0  0  0  0  0  0  0
  1  2  1  0
  1 46  1  0
  1 47  1  0
  1 48  1  0
  2  3  2  0
  2  4  1  0
  4  5  1  0
  5  6  2  0
  5 45  1  0
  6  7  1  0
  6 49  1  0
  7  8  2  0
  7 50  1  0
  8  9  1  0
  8 44  1  0
  9 10  1  0
  9 51  1  0
 10 11  2  0
 10 12  1  0
 12 13  2  0
 12 43  1  0
 13 14  1  0
 13 52  1  0
 14 15  1  0
 14 28  2  0
 15 16  1  0
 15 53  1  0
 16 17  2  0
 16 18  1  0
 18 19  2  0
 18 27  1  0
 19 20  1  0
 19 54  1  0
 20 21  2  0
 20 55  1  0
 21 22  1  0
 21 26  1  0
 22 23  1  0
 23 24  1  0
 23 25  2  0
 24 56  1  0
 24 57  1  0
 24 58  1  0
 26 27  2  0
 26 59  1  0
 27 60  1  0
 28 29  1  0
 28 61  1  0
 29 30  1  0
 29 43  2  0
 30 31  1  0
 30 62  1  0
 31 32  2  0
 31 33  1  0
 33 34  2  0
 33 42  1  0
 34 35  1  0
 34 63  1  0
 35 36  2  0
 35 64  1  0
 36 37  1  0
 36 41  1  0
 37 38  1  0
 38 39  1  0
 38 40  2  0
 39 65  1  0
 39 66  1  0
 39 67  1  0
 41 42  2  0
 41 68  1  0
 42 69  1  0
 43 70  1  0
 44 45  2  0
 44 71  1  0
 45 72  1  0
M  END

