
     RDKit          3D

 22 23  0  0  0  0  0  0  0  0999 V2000
    3.4004   -1.4619   -3.2523 N   0  0  0  0  0  0  0  0  0  0  0  0
    3.9976   -0.8677   -2.4003 C   0  0  0  0  0  0  0  0  0  0  0  0
    4.4800   -0.3197   -1.2275 C   0  0  0  0  0  0  0  0  0  0  0  0
    4.8117    0.9687   -0.9343 N   0  0  0  0  0  0  0  0  0  0  0  0
    5.1548    0.9546    0.3734 C   0  0  0  0  0  0  0  0  0  0  0  0
    5.0494   -0.2981    0.9529 C   0  0  0  0  0  0  0  0  0  0  0  0
    4.6783   -1.1743   -0.0864 N   0  0  0  0  0  0  0  0  0  0  0  0
    3.9411   -2.3854    0.0886 C   0  0  0  0  0  0  0  0  0  0  0  0
    2.4139   -2.1787    0.2747 C   0  0  1  0  0  0  0  0  0  0  0  0
    1.5984   -1.7685   -0.9615 C   0  0  0  0  0  0  0  0  0  0  0  0
    0.6604   -2.7974   -1.0944 N   0  0  0  0  0  0  0  0  0  0  0  0
    0.8199   -3.8265   -0.1153 C   0  0  0  0  0  0  0  0  0  0  0  0
    0.1363   -4.7997   -0.0443 O   0  0  0  0  0  0  0  0  0  0  0  0
    1.8292   -3.4544    0.6614 O   0  0  0  0  0  0  0  0  0  0  0  0
    5.4922    1.8647    0.8731 H   0  0  0  0  0  0  0  0  0  0  0  0
    5.3331   -0.6664    1.9359 H   0  0  0  0  0  0  0  0  0  0  0  0
    4.2971   -2.9117    0.9869 H   0  0  0  0  0  0  0  0  0  0  0  0
    4.1005   -3.0590   -0.7702 H   0  0  0  0  0  0  0  0  0  0  0  0
    2.2490   -1.4776    1.1076 H   0  0  0  0  0  0  0  0  0  0  0  0
    2.2065   -1.6956   -1.9549 H   0  0  0  0  0  0  0  0  0  0  0  0
    1.1341   -0.7639   -0.9350 H   0  0  0  0  0  0  0  0  0  0  0  0
   -0.0288   -2.8859   -1.8414 H   0  0  0  0  0  0  0  0  0  0  0  0
  1  2  3  0
  2  3  1  0
  3  4  2  0
  3  7  1  0
  4  5  1  0
  5  6  2  0
  5 15  1  0
  6  7  1  0
  6 16  1  0
  7  8  1  0
  8  9  1  0
  8 17  1  0
  8 18  1  0
  9 10  1  0
  9 14  1  0
  9 19  1  1
 10 11  1  0
 10 20  1  0
 10 21  1  0
 11 12  1  0
 11 22  1  0
 12 13  2  0
 12 14  1  0
M  END

