
     RDKit          3D

 78 81  0  0  0  0  0  0  0  0999 V2000
    0.9191   -1.8870    1.9394 C   0  0  0  0  0  0  0  0  0  0  0  0
    1.5048   -0.8513    2.5468 C   0  0  0  0  0  0  0  0  0  0  0  0
    2.4565    0.1139    1.8964 C   0  0  0  0  0  0  0  0  0  0  0  0
    3.8346    0.1005    2.5520 C   0  0  0  0  0  0  0  0  0  0  0  0
    4.6121    1.1316    1.9382 O   0  0  0  0  0  0  0  0  0  0  0  0
    5.9638    1.1363    2.0286 C   0  0  0  0  0  0  0  0  0  0  0  0
    6.6897    1.6600    0.9468 C   0  0  0  0  0  0  0  0  0  0  0  0
    8.0810    1.7390    0.9768 C   0  0  0  0  0  0  0  0  0  0  0  0
    8.8101    1.2829    2.0827 C   0  0  0  0  0  0  0  0  0  0  0  0
   10.3172    1.3429    2.1657 C   0  0  0  0  0  0  0  0  0  0  0  0
   10.8568    1.6738    0.9132 O   0  0  0  0  0  0  0  0  0  0  0  0
   12.2613    1.9209    0.8918 C   0  0  1  0  0  0  0  0  0  0  0  0
   13.0807    0.6262    1.0144 C   0  0  0  0  0  0  0  0  0  0  0  0
   12.8300   -0.3084   -0.1727 C   0  0  0  0  0  0  0  0  0  0  0  0
   13.1560    0.3512   -1.5411 C   0  0  2  0  0  0  0  0  0  0  0  0
   14.6463    0.3960   -1.8612 C   0  0  0  0  0  0  0  0  0  0  0  0
   15.4103    1.5826   -2.0711 C   0  0  0  0  0  0  0  0  0  0  0  0
   16.7131    1.5181   -2.7115 C   0  0  0  0  0  0  0  0  0  0  0  0
   17.6405    0.2550   -2.0990 C   0  0  1  0  0  0  0  0  0  0  0  0
   18.3702    0.7568   -0.8002 C   0  0  1  0  0  0  0  0  0  0  0  0
   17.4663    0.9933    0.4182 C   0  0  0  0  0  0  0  0  0  0  0  0
   17.0803   -0.2841    1.1784 C   0  0  0  0  0  0  0  0  0  0  0  0
   18.2899   -1.1603    1.5672 C   0  0  2  0  0  0  0  0  0  0  0  0
   19.1510   -0.5846    2.7187 C   0  0  1  0  0  0  0  0  0  0  0  0
   18.3779   -0.3836    4.0235 C   0  0  0  0  0  0  0  0  0  0  0  0
   20.2975   -1.3964    2.9481 O   0  0  0  0  0  0  0  0  0  0  0  0
   19.1229   -1.4570    0.3039 C   0  0  0  0  0  0  0  0  0  0  0  0
   19.5450   -0.1846   -0.4395 C   0  0  0  0  0  0  0  0  0  0  0  0
   16.7684   -0.9022   -2.1022 C   0  0  0  0  0  0  0  0  0  0  0  0
   17.2383   -2.0259   -2.7024 F   0  0  0  0  0  0  0  0  0  0  0  0
   15.3582   -0.8150   -1.9622 C   0  0  0  0  0  0  0  0  0  0  0  0
   14.6865   -1.9820   -1.9252 F   0  0  0  0  0  0  0  0  0  0  0  0
   12.4192    1.7046   -1.6509 C   0  0  0  0  0  0  0  0  0  0  0  0
   12.5805    2.6243   -0.4283 C   0  0  0  0  0  0  0  0  0  0  0  0
    8.0845    0.7626    3.1544 C   0  0  0  0  0  0  0  0  0  0  0  0
    8.7333    0.3211    4.2445 F   0  0  0  0  0  0  0  0  0  0  0  0
    6.6896    0.6969    3.1489 C   0  0  0  0  0  0  0  0  0  0  0  0
    6.0706    0.2153    4.2399 F   0  0  0  0  0  0  0  0  0  0  0  0
    0.2333   -2.5504    2.4737 H   0  0  0  0  0  0  0  0  0  0  0  0
    1.0979   -2.1073    0.8814 H   0  0  0  0  0  0  0  0  0  0  0  0
    1.2926   -0.6733    3.6098 H   0  0  0  0  0  0  0  0  0  0  0  0
    2.0619    1.1432    1.9770 H   0  0  0  0  0  0  0  0  0  0  0  0
    2.5612   -0.1066    0.8218 H   0  0  0  0  0  0  0  0  0  0  0  0
    4.3244   -0.8789    2.4086 H   0  0  0  0  0  0  0  0  0  0  0  0
    3.7517    0.2770    3.6368 H   0  0  0  0  0  0  0  0  0  0  0  0
    6.1214    2.0037    0.0807 H   0  0  0  0  0  0  0  0  0  0  0  0
    8.6300    2.1454    0.1275 H   0  0  0  0  0  0  0  0  0  0  0  0
   10.6958    0.3700    2.5357 H   0  0  0  0  0  0  0  0  0  0  0  0
   10.6187    2.0955    2.9268 H   0  0  0  0  0  0  0  0  0  0  0  0
   12.5104    2.5971    1.7350 H   0  0  0  0  0  0  0  0  0  0  0  0
   12.8504    0.1096    1.9608 H   0  0  0  0  0  0  0  0  0  0  0  0
   14.1483    0.8997    1.0709 H   0  0  0  0  0  0  0  0  0  0  0  0
   11.7627   -0.5856   -0.1793 H   0  0  0  0  0  0  0  0  0  0  0  0
   13.3957   -1.2435   -0.0568 H   0  0  0  0  0  0  0  0  0  0  0  0
   12.7175   -0.3132   -2.3079 H   0  0  0  0  0  0  0  0  0  0  0  0
   15.0326    2.5474   -1.7319 H   0  0  0  0  0  0  0  0  0  0  0  0
   17.2737    2.4607   -2.6456 H   0  0  0  0  0  0  0  0  0  0  0  0
   16.6839    1.2028   -3.7750 H   0  0  0  0  0  0  0  0  0  0  0  0
   18.4367    0.0479   -2.8348 H   0  0  0  0  0  0  0  0  0  0  0  0
   18.8102    1.7272   -1.0876 H   0  0  0  0  0  0  0  0  0  0  0  0
   16.5524    1.5283    0.0971 H   0  0  0  0  0  0  0  0  0  0  0  0
   17.9902    1.6893    1.0978 H   0  0  0  0  0  0  0  0  0  0  0  0
   16.4222   -0.8962    0.5412 H   0  0  0  0  0  0  0  0  0  0  0  0
   16.4819   -0.0179    2.0644 H   0  0  0  0  0  0  0  0  0  0  0  0
   17.8944   -2.1241    1.9445 H   0  0  0  0  0  0  0  0  0  0  0  0
   19.5691    0.3892    2.4125 H   0  0  0  0  0  0  0  0  0  0  0  0
   17.8931   -1.3237    4.3423 H   0  0  0  0  0  0  0  0  0  0  0  0
   17.5936    0.3834    3.9364 H   0  0  0  0  0  0  0  0  0  0  0  0
   19.0734   -0.0725    4.8173 H   0  0  0  0  0  0  0  0  0  0  0  0
   19.9889   -2.2697    3.2289 H   0  0  0  0  0  0  0  0  0  0  0  0
   18.5283   -2.0955   -0.3703 H   0  0  0  0  0  0  0  0  0  0  0  0
   20.0205   -2.0297    0.5808 H   0  0  0  0  0  0  0  0  0  0  0  0
   20.1090   -0.4482   -1.3498 H   0  0  0  0  0  0  0  0  0  0  0  0
   20.2461    0.3915    0.1898 H   0  0  0  0  0  0  0  0  0  0  0  0
   11.3457    1.4860   -1.7681 H   0  0  0  0  0  0  0  0  0  0  0  0
   12.7321    2.2351   -2.5646 H   0  0  0  0  0  0  0  0  0  0  0  0
   11.9233    3.5029   -0.5313 H   0  0  0  0  0  0  0  0  0  0  0  0
   13.6117    3.0060   -0.3559 H   0  0  0  0  0  0  0  0  0  0  0  0
  1  2  2  0
  1 39  1  0
  1 40  1  0
  2  3  1  0
  2 41  1  0
  3  4  1  0
  3 42  1  0
  3 43  1  0
  4  5  1  0
  4 44  1  0
  4 45  1  0
  5  6  1  0
  6  7  2  0
  6 37  1  0
  7  8  1  0
  7 46  1  0
  8  9  2  0
  8 47  1  0
  9 10  1  0
  9 35  1  0
 10 11  1  0
 10 48  1  0
 10 49  1  0
 11 12  1  0
 12 13  1  0
 12 34  1  0
 12 50  1  1
 13 14  1  0
 13 51  1  0
 13 52  1  0
 14 15  1  0
 14 53  1  0
 14 54  1  0
 15 16  1  0
 15 33  1  0
 15 55  1  6
 16 17  2  0
 16 31  1  0
 17 18  1  0
 17 56  1  0
 18 19  1  0
 18 57  1  0
 18 58  1  0
 19 20  1  0
 19 29  1  0
 19 59  1  6
 20 21  1  0
 20 28  1  0
 20 60  1  6
 21 22  1  0
 21 61  1  0
 21 62  1  0
 22 23  1  0
 22 63  1  0
 22 64  1  0
 23 24  1  0
 23 27  1  0
 23 65  1  1
 24 25  1  0
 24 26  1  0
 24 66  1  6
 25 67  1  0
 25 68  1  0
 25 69  1  0
 26 70  1  0
 27 28  1  0
 27 71  1  0
 27 72  1  0
 28 73  1  0
 28 74  1  0
 29 30  1  0
 29 31  2  0
 31 32  1  0
 33 34  1  0
 33 75  1  0
 33 76  1  0
 34 77  1  0
 34 78  1  0
 35 36  1  0
 35 37  2  0
 37 38  1  0
M  END

