
     RDKit          3D

 53 55  0  0  0  0  0  0  0  0999 V2000
    0.6501   -4.3848   -1.2425 C   0  0  0  0  0  0  0  0  0  0  0  0
    2.1745   -4.4885   -1.1759 C   0  0  0  0  0  0  0  0  0  0  0  0
    2.7829   -3.7986    0.0491 C   0  0  0  0  0  0  0  0  0  0  0  0
    4.3099   -3.8925    0.1208 C   0  0  0  0  0  0  0  0  0  0  0  0
    4.9155   -3.2085    1.3500 C   0  0  0  0  0  0  0  0  0  0  0  0
    6.4431   -3.2930    1.4131 C   0  0  0  0  0  0  0  0  0  0  0  0
    7.0419   -2.6096    2.6565 C   0  0  0  0  0  0  0  0  0  0  0  0
    8.5495   -2.6950    2.7259 C   0  0  0  0  0  0  0  0  0  0  0  0
    9.1764   -3.9028    3.1509 C   0  0  0  0  0  0  0  0  0  0  0  0
   10.5473   -4.0273    3.1954 C   0  0  0  0  0  0  0  0  0  0  0  0
   11.3776   -2.9383    2.8119 C   0  0  0  0  0  0  0  0  0  0  0  0
   12.7943   -3.0132    2.8404 C   0  0  0  0  0  0  0  0  0  0  0  0
   13.3270   -4.1760    3.2613 F   0  0  0  0  0  0  0  0  0  0  0  0
   13.6262   -1.9632    2.4815 C   0  0  0  0  0  0  0  0  0  0  0  0
   15.1080   -2.0544    2.5363 C   0  0  0  0  0  0  0  0  0  0  0  0
   15.7908   -3.2329    2.1824 C   0  0  0  0  0  0  0  0  0  0  0  0
   17.1798   -3.2751    2.2159 C   0  0  0  0  0  0  0  0  0  0  0  0
   17.8134   -4.3938    1.8697 F   0  0  0  0  0  0  0  0  0  0  0  0
   17.9440   -2.1697    2.6112 C   0  0  0  0  0  0  0  0  0  0  0  0
   19.3087   -2.2698    2.6987 O   0  0  0  0  0  0  0  0  0  0  0  0
   20.0541   -1.5231    1.8095 C   0  0  1  0  0  0  0  0  0  0  0  0
   21.3327   -1.6926    2.1517 F   0  0  0  0  0  0  0  0  0  0  0  0
   19.8813   -1.9879    0.5520 F   0  0  0  0  0  0  0  0  0  0  0  0
   17.2499   -1.0064    2.9634 C   0  0  0  0  0  0  0  0  0  0  0  0
   17.9637    0.0638    3.3462 F   0  0  0  0  0  0  0  0  0  0  0  0
   15.8639   -0.9332    2.9290 C   0  0  0  0  0  0  0  0  0  0  0  0
   12.9862   -0.7553    2.0639 C   0  0  0  0  0  0  0  0  0  0  0  0
   11.6172   -0.6303    2.0157 C   0  0  0  0  0  0  0  0  0  0  0  0
   10.7717   -1.7129    2.3876 C   0  0  0  0  0  0  0  0  0  0  0  0
    9.3533   -1.6305    2.3556 C   0  0  0  0  0  0  0  0  0  0  0  0
    0.2476   -4.8919   -2.1339 H   0  0  0  0  0  0  0  0  0  0  0  0
    0.3212   -3.3327   -1.2815 H   0  0  0  0  0  0  0  0  0  0  0  0
    0.1777   -4.8435   -0.3574 H   0  0  0  0  0  0  0  0  0  0  0  0
    2.6143   -4.0542   -2.0923 H   0  0  0  0  0  0  0  0  0  0  0  0
    2.4726   -5.5529   -1.1776 H   0  0  0  0  0  0  0  0  0  0  0  0
    2.3466   -4.2356    0.9670 H   0  0  0  0  0  0  0  0  0  0  0  0
    2.4824   -2.7340    0.0542 H   0  0  0  0  0  0  0  0  0  0  0  0
    4.7459   -3.4506   -0.7944 H   0  0  0  0  0  0  0  0  0  0  0  0
    4.6111   -4.9566    0.1106 H   0  0  0  0  0  0  0  0  0  0  0  0
    4.4868   -3.6563    2.2659 H   0  0  0  0  0  0  0  0  0  0  0  0
    4.6084   -2.1461    1.3658 H   0  0  0  0  0  0  0  0  0  0  0  0
    6.8789   -2.8353    0.5071 H   0  0  0  0  0  0  0  0  0  0  0  0
    6.7556   -4.3526    1.3932 H   0  0  0  0  0  0  0  0  0  0  0  0
    6.6082   -3.0717    3.5610 H   0  0  0  0  0  0  0  0  0  0  0  0
    6.7329   -1.5510    2.6709 H   0  0  0  0  0  0  0  0  0  0  0  0
    8.5501   -4.7468    3.4539 H   0  0  0  0  0  0  0  0  0  0  0  0
   11.0114   -4.9571    3.5274 H   0  0  0  0  0  0  0  0  0  0  0  0
   15.2580   -4.1274    1.8643 H   0  0  0  0  0  0  0  0  0  0  0  0
   19.7966   -0.4502    1.8260 H   0  0  0  0  0  0  0  0  0  0  0  0
   15.3896   -0.0015    3.2391 H   0  0  0  0  0  0  0  0  0  0  0  0
   13.6135    0.0816    1.7508 H   0  0  0  0  0  0  0  0  0  0  0  0
   11.1645    0.3058    1.6798 H   0  0  0  0  0  0  0  0  0  0  0  0
    8.8957   -0.6909    2.0316 H   0  0  0  0  0  0  0  0  0  0  0  0
  1  2  1  0
  1 31  1  0
  1 32  1  0
  1 33  1  0
  2  3  1  0
  2 34  1  0
  2 35  1  0
  3  4  1  0
  3 36  1  0
  3 37  1  0
  4  5  1  0
  4 38  1  0
  4 39  1  0
  5  6  1  0
  5 40  1  0
  5 41  1  0
  6  7  1  0
  6 42  1  0
  6 43  1  0
  7  8  1  0
  7 44  1  0
  7 45  1  0
  8  9  2  0
  8 30  1  0
  9 10  1  0
  9 46  1  0
 10 11  2  0
 10 47  1  0
 11 12  1  0
 11 29  1  0
 12 13  1  0
 12 14  2  0
 14 15  1  0
 14 27  1  0
 15 16  2  0
 15 26  1  0
 16 17  1  0
 16 48  1  0
 17 18  1  0
 17 19  2  0
 19 20  1  0
 19 24  1  0
 20 21  1  0
 21 22  1  0
 21 23  1  0
 21 49  1  6
 24 25  1  0
 24 26  2  0
 26 50  1  0
 27 28  2  0
 27 51  1  0
 28 29  1  0
 28 52  1  0
 29 30  2  0
 30 53  1  0
M  END

