
     RDKit          3D

 49 51  0  0  0  0  0  0  0  0999 V2000
    1.1016   -5.5188   -1.3880 C   0  0  0  0  0  0  0  0  0  0  0  0
    2.5675   -5.6336   -0.9734 C   0  0  0  0  0  0  0  0  0  0  0  0
    3.0414   -4.5129   -0.1673 N   0  0  0  0  0  0  0  0  0  0  0  0
    2.3203   -4.2846    1.0832 C   0  0  0  0  0  0  0  0  0  0  0  0
    2.3521   -5.4202    2.1200 C   0  0  0  0  0  0  0  0  0  0  0  0
    4.4908   -4.4243   -0.0606 C   0  0  0  0  0  0  0  0  0  0  0  0
    5.0063   -2.9733    0.0462 C   0  0  0  0  0  0  0  0  0  0  0  0
    6.5163   -2.8903    0.0711 C   0  0  0  0  0  0  0  0  0  0  0  0
    7.2474   -2.8557   -1.1448 C   0  0  0  0  0  0  0  0  0  0  0  0
    8.6359   -2.8177   -1.1789 C   0  0  0  0  0  0  0  0  0  0  0  0
    9.3419   -2.8268    0.0377 C   0  0  0  0  0  0  0  0  0  0  0  0
   10.7333   -2.7838    0.4170 C   0  0  0  0  0  0  0  0  0  0  0  0
   12.1650   -2.7238   -0.6120 S   0  0  1  0  0  0  0  0  0  0  0  0
   11.8276   -1.9457   -1.8137 O   0  0  0  0  0  0  0  0  0  0  0  0
   13.2946   -2.3572    0.2578 O   0  0  0  0  0  0  0  0  0  0  0  0
   12.4513   -4.4258   -1.1535 C   0  0  0  0  0  0  0  0  0  0  0  0
   12.0090   -4.8243   -2.4168 C   0  0  0  0  0  0  0  0  0  0  0  0
   12.2552   -6.1343   -2.8389 C   0  0  0  0  0  0  0  0  0  0  0  0
   12.9419   -7.0228   -2.0057 C   0  0  0  0  0  0  0  0  0  0  0  0
   13.3943   -6.6043   -0.7486 C   0  0  0  0  0  0  0  0  0  0  0  0
   13.1550   -5.2980   -0.3173 C   0  0  0  0  0  0  0  0  0  0  0  0
   10.7954   -2.7674    1.7946 C   0  0  0  0  0  0  0  0  0  0  0  0
    9.5231   -2.8109    2.2957 N   0  0  0  0  0  0  0  0  0  0  0  0
    9.2869   -2.7892    3.2793 H   0  0  0  0  0  0  0  0  0  0  0  0
    8.6084   -2.8485    1.2555 C   0  0  0  0  0  0  0  0  0  0  0  0
    7.2086   -2.8827    1.2843 C   0  0  0  0  0  0  0  0  0  0  0  0
    0.8511   -6.3111   -2.1111 H   0  0  0  0  0  0  0  0  0  0  0  0
    0.9101   -4.5425   -1.8613 H   0  0  0  0  0  0  0  0  0  0  0  0
    0.4107   -5.6262   -0.5371 H   0  0  0  0  0  0  0  0  0  0  0  0
    3.1850   -5.6567   -1.8865 H   0  0  0  0  0  0  0  0  0  0  0  0
    2.7290   -6.6195   -0.4785 H   0  0  0  0  0  0  0  0  0  0  0  0
    1.2705   -4.0462    0.8450 H   0  0  0  0  0  0  0  0  0  0  0  0
    2.7251   -3.3680    1.5415 H   0  0  0  0  0  0  0  0  0  0  0  0
    1.8651   -6.3350    1.7459 H   0  0  0  0  0  0  0  0  0  0  0  0
    1.8179   -5.1142    3.0342 H   0  0  0  0  0  0  0  0  0  0  0  0
    3.3810   -5.6865    2.4116 H   0  0  0  0  0  0  0  0  0  0  0  0
    4.9264   -4.8713   -0.9682 H   0  0  0  0  0  0  0  0  0  0  0  0
    4.9049   -5.0150    0.7868 H   0  0  0  0  0  0  0  0  0  0  0  0
    4.6001   -2.4995    0.9544 H   0  0  0  0  0  0  0  0  0  0  0  0
    4.6042   -2.4094   -0.8106 H   0  0  0  0  0  0  0  0  0  0  0  0
    6.6916   -2.8407   -2.0866 H   0  0  0  0  0  0  0  0  0  0  0  0
    9.1759   -2.7569   -2.1248 H   0  0  0  0  0  0  0  0  0  0  0  0
   11.4986   -4.1054   -3.0599 H   0  0  0  0  0  0  0  0  0  0  0  0
   11.9163   -6.4587   -3.8259 H   0  0  0  0  0  0  0  0  0  0  0  0
   13.1342   -8.0453   -2.3405 H   0  0  0  0  0  0  0  0  0  0  0  0
   13.9447   -7.2961   -0.1061 H   0  0  0  0  0  0  0  0  0  0  0  0
   13.5217   -4.9452    0.6485 H   0  0  0  0  0  0  0  0  0  0  0  0
   11.6735   -2.7153    2.4342 H   0  0  0  0  0  0  0  0  0  0  0  0
    6.6661   -2.8926    2.2340 H   0  0  0  0  0  0  0  0  0  0  0  0
  1  2  1  0
  1 27  1  0
  1 28  1  0
  1 29  1  0
  2  3  1  0
  2 30  1  0
  2 31  1  0
  3  4  1  0
  3  6  1  0
  4  5  1  0
  4 32  1  0
  4 33  1  0
  5 34  1  0
  5 35  1  0
  5 36  1  0
  6  7  1  0
  6 37  1  0
  6 38  1  0
  7  8  1  0
  7 39  1  0
  7 40  1  0
  8  9  2  0
  8 26  1  0
  9 10  1  0
  9 41  1  0
 10 11  2  0
 10 42  1  0
 11 12  1  0
 11 25  1  0
 13 12  1  1
 12 22  2  0
 13 14  2  0
 13 15  2  0
 13 16  1  0
 16 17  2  0
 16 21  1  0
 17 18  1  0
 17 43  1  0
 18 19  2  0
 18 44  1  0
 19 20  1  0
 19 45  1  0
 20 21  2  0
 20 46  1  0
 21 47  1  0
 22 23  1  0
 22 48  1  0
 23 24  1  0
 23 25  1  0
 25 26  2  0
 26 49  1  0
M  END

