
     RDKit          3D

 40 42  0  0  0  0  0  0  0  0999 V2000
    3.5990   -3.6898   -4.5861 C   0  0  0  0  0  0  0  0  0  0  0  0
    2.8644   -3.2535   -3.4036 N   0  0  0  0  0  0  0  0  0  0  0  0
    1.7209   -4.1157   -3.0640 C   0  0  0  0  0  0  0  0  0  0  0  0
    3.1393   -2.0566   -2.8222 C   0  0  0  0  0  0  0  0  0  0  0  0
    3.8309   -1.0529   -3.5639 C   0  0  0  0  0  0  0  0  0  0  0  0
    4.0772    0.2008   -3.0489 C   0  0  0  0  0  0  0  0  0  0  0  0
    3.6529    0.5237   -1.7361 C   0  0  0  0  0  0  0  0  0  0  0  0
    3.0271   -0.4210   -0.9552 C   0  0  0  0  0  0  0  0  0  0  0  0
    2.7912   -1.7496   -1.4248 C   0  0  0  0  0  0  0  0  0  0  0  0
    2.3383   -2.6873   -0.5837 N   0  0  0  0  0  0  0  0  0  0  0  0
    2.1442   -2.5015    0.8566 C   0  0  0  0  0  0  0  0  0  0  0  0
    1.7262   -3.7986    1.5667 C   0  0  1  0  0  0  0  0  0  0  0  0
    0.3557   -4.3596    1.1259 C   0  0  0  0  0  0  0  0  0  0  0  0
    0.6028   -5.3847    0.0519 C   0  0  0  0  0  0  0  0  0  0  0  0
   -0.3989   -5.9104   -0.8555 C   0  0  0  0  0  0  0  0  0  0  0  0
   -0.0094   -7.0033   -1.6812 C   0  0  0  0  0  0  0  0  0  0  0  0
    1.2811   -7.5036   -1.6934 C   0  0  0  0  0  0  0  0  0  0  0  0
    2.3180   -6.9190   -0.8589 C   0  0  0  0  0  0  0  0  0  0  0  0
    1.8862   -5.9013    0.0281 C   0  0  0  0  0  0  0  0  0  0  0  0
    2.9568   -5.1544    1.2809 S   0  0  0  0  0  0  0  0  0  0  0  0
    3.5641   -4.7858   -4.6247 H   0  0  0  0  0  0  0  0  0  0  0  0
    4.6500   -3.3795   -4.5334 H   0  0  0  0  0  0  0  0  0  0  0  0
    3.1495   -3.2959   -5.5149 H   0  0  0  0  0  0  0  0  0  0  0  0
    2.0383   -5.0096   -2.5048 H   0  0  0  0  0  0  0  0  0  0  0  0
    1.2610   -4.4480   -4.0050 H   0  0  0  0  0  0  0  0  0  0  0  0
    0.9622   -3.5700   -2.4967 H   0  0  0  0  0  0  0  0  0  0  0  0
    4.1141   -1.2645   -4.5929 H   0  0  0  0  0  0  0  0  0  0  0  0
    4.5709    0.9531   -3.6661 H   0  0  0  0  0  0  0  0  0  0  0  0
    3.8308    1.5238   -1.3366 H   0  0  0  0  0  0  0  0  0  0  0  0
    2.7300   -0.1675    0.0596 H   0  0  0  0  0  0  0  0  0  0  0  0
    2.2525   -3.6567   -0.8872 H   0  0  0  0  0  0  0  0  0  0  0  0
    1.3748   -1.7262    1.0202 H   0  0  0  0  0  0  0  0  0  0  0  0
    3.0874   -2.1320    1.2928 H   0  0  0  0  0  0  0  0  0  0  0  0
    1.7323   -3.5677    2.6425 H   0  0  0  0  0  0  0  0  0  0  0  0
   -0.3013   -3.5351    0.7823 H   0  0  0  0  0  0  0  0  0  0  0  0
   -0.1626   -4.8049    2.0007 H   0  0  0  0  0  0  0  0  0  0  0  0
   -1.4300   -5.5576   -0.8209 H   0  0  0  0  0  0  0  0  0  0  0  0
   -0.7621   -7.4724   -2.3250 H   0  0  0  0  0  0  0  0  0  0  0  0
    1.5294   -8.3507   -2.3392 H   0  0  0  0  0  0  0  0  0  0  0  0
    3.3237   -7.3351   -0.8136 H   0  0  0  0  0  0  0  0  0  0  0  0
  1  2  1  0
  1 21  1  0
  1 22  1  0
  1 23  1  0
  2  3  1  0
  2  4  1  0
  3 24  1  0
  3 25  1  0
  3 26  1  0
  4  5  2  0
  4  9  1  0
  5  6  1  0
  5 27  1  0
  6  7  2  0
  6 28  1  0
  7  8  1  0
  7 29  1  0
  8  9  2  0
  8 30  1  0
  9 10  1  0
 10 11  1  0
 10 31  1  0
 11 12  1  0
 11 32  1  0
 11 33  1  0
 12 13  1  0
 12 20  1  0
 12 34  1  1
 13 14  1  0
 13 35  1  0
 13 36  1  0
 14 15  1  0
 14 19  2  0
 15 16  2  0
 15 37  1  0
 16 17  1  0
 16 38  1  0
 17 18  2  0
 17 39  1  0
 18 19  1  0
 18 40  1  0
 19 20  1  0
M  END

