
     RDKit          3D

 55 58  0  0  0  0  0  0  0  0999 V2000
    5.3688    4.1307   -1.6094 C   0  0  0  0  0  0  0  0  0  0  0  0
    4.6980    3.0512   -0.7726 C   0  0  0  0  0  0  0  0  0  0  0  0
    3.4914    3.0202   -0.6221 O   0  0  0  0  0  0  0  0  0  0  0  0
    5.5683    2.1291   -0.2281 N   0  0  0  0  0  0  0  0  0  0  0  0
    5.2847    1.0051    0.5707 C   0  0  0  0  0  0  0  0  0  0  0  0
    3.9796    0.6392    0.9553 C   0  0  0  0  0  0  0  0  0  0  0  0
    3.7920   -0.4929    1.7508 C   0  0  0  0  0  0  0  0  0  0  0  0
    4.8686   -1.2723    2.1759 C   0  0  0  0  0  0  0  0  0  0  0  0
    6.1691   -0.9095    1.7937 C   0  0  0  0  0  0  0  0  0  0  0  0
    7.3185   -1.7152    2.2341 C   0  0  0  0  0  0  0  0  0  0  0  0
    8.5608   -1.4297    1.9098 N   0  0  0  0  0  0  0  0  0  0  0  0
    9.3022   -2.4262    2.5295 O   0  0  0  0  0  0  0  0  0  0  0  0
    8.4361   -3.2173    3.1709 C   0  0  0  0  0  0  0  0  0  0  0  0
    8.9568   -4.3645    4.0096 C   0  0  1  0  0  0  0  0  0  0  0  0
    8.9919   -3.9728    5.0339 H   0  0  0  0  0  0  0  0  0  0  0  0
    7.9843   -5.5636    3.9952 C   0  0  0  0  0  0  0  0  0  0  0  0
    8.0445   -6.3453    2.6795 C   0  0  0  0  0  0  0  0  0  0  0  0
    9.4887   -6.7393    2.3518 C   0  0  0  0  0  0  0  0  0  0  0  0
   10.4037   -5.5135    2.3527 C   0  0  0  0  0  0  0  0  0  0  0  0
   10.3011   -4.7678    3.6136 N   0  0  0  0  0  0  0  0  0  0  0  0
   11.4500   -4.5073    4.3246 C   0  0  0  0  0  0  0  0  0  0  0  0
   12.5390   -4.9449    3.9956 O   0  0  0  0  0  0  0  0  0  0  0  0
   11.3497   -3.6666    5.6043 C   0  0  0  0  0  0  0  0  0  0  0  0
   10.6858   -2.4474    5.3450 O   0  0  0  0  0  0  0  0  0  0  0  0
   10.6282   -1.4885    6.3165 C   0  0  0  0  0  0  0  0  0  0  0  0
   11.1172   -1.6571    7.6191 C   0  0  0  0  0  0  0  0  0  0  0  0
   10.9958   -0.6074    8.5394 C   0  0  0  0  0  0  0  0  0  0  0  0
   10.3972    0.5987    8.1758 C   0  0  0  0  0  0  0  0  0  0  0  0
    9.9146    0.7578    6.8696 C   0  0  0  0  0  0  0  0  0  0  0  0
   10.0284   -0.2744    5.9419 C   0  0  0  0  0  0  0  0  0  0  0  0
    7.2028   -2.8397    3.0239 N   0  0  0  0  0  0  0  0  0  0  0  0
    6.3701    0.2241    0.9945 C   0  0  0  0  0  0  0  0  0  0  0  0
    4.9953    5.1101   -1.2769 H   0  0  0  0  0  0  0  0  0  0  0  0
    5.0577    4.0054   -2.6584 H   0  0  0  0  0  0  0  0  0  0  0  0
    6.4676    4.1260   -1.5611 H   0  0  0  0  0  0  0  0  0  0  0  0
    6.5511    2.2699   -0.4278 H   0  0  0  0  0  0  0  0  0  0  0  0
    3.1401    1.2463    0.6254 H   0  0  0  0  0  0  0  0  0  0  0  0
    2.7761   -0.7688    2.0445 H   0  0  0  0  0  0  0  0  0  0  0  0
    4.7202   -2.1551    2.7987 H   0  0  0  0  0  0  0  0  0  0  0  0
    6.9680   -5.1929    4.1925 H   0  0  0  0  0  0  0  0  0  0  0  0
    8.2675   -6.2236    4.8323 H   0  0  0  0  0  0  0  0  0  0  0  0
    7.6342   -5.7248    1.8627 H   0  0  0  0  0  0  0  0  0  0  0  0
    7.3998   -7.2367    2.7446 H   0  0  0  0  0  0  0  0  0  0  0  0
    9.5465   -7.2325    1.3676 H   0  0  0  0  0  0  0  0  0  0  0  0
    9.8575   -7.4663    3.0968 H   0  0  0  0  0  0  0  0  0  0  0  0
   10.1347   -4.8402    1.5178 H   0  0  0  0  0  0  0  0  0  0  0  0
   11.4576   -5.7901    2.2335 H   0  0  0  0  0  0  0  0  0  0  0  0
   12.3893   -3.4982    5.9244 H   0  0  0  0  0  0  0  0  0  0  0  0
   10.8340   -4.2414    6.4005 H   0  0  0  0  0  0  0  0  0  0  0  0
   11.5904   -2.5896    7.9278 H   0  0  0  0  0  0  0  0  0  0  0  0
   11.3790   -0.7448    9.5540 H   0  0  0  0  0  0  0  0  0  0  0  0
   10.3077    1.4112    8.9004 H   0  0  0  0  0  0  0  0  0  0  0  0
    9.4469    1.6990    6.5694 H   0  0  0  0  0  0  0  0  0  0  0  0
    9.6681   -0.1658    4.9167 H   0  0  0  0  0  0  0  0  0  0  0  0
    7.3895    0.4925    0.7055 H   0  0  0  0  0  0  0  0  0  0  0  0
  1  2  1  0
  1 33  1  0
  1 34  1  0
  1 35  1  0
  2  3  2  0
  2  4  1  0
  4  5  1  0
  4 36  1  0
  5  6  2  0
  5 32  1  0
  6  7  1  0
  6 37  1  0
  7  8  2  0
  7 38  1  0
  8  9  1  0
  8 39  1  0
  9 10  1  0
  9 32  2  0
 10 11  2  0
 10 31  1  0
 11 12  1  0
 12 13  1  0
 13 14  1  0
 13 31  2  0
 14 15  1  1
 14 16  1  0
 14 20  1  0
 16 17  1  0
 16 40  1  0
 16 41  1  0
 17 18  1  0
 17 42  1  0
 17 43  1  0
 18 19  1  0
 18 44  1  0
 18 45  1  0
 19 20  1  0
 19 46  1  0
 19 47  1  0
 20 21  1  0
 21 22  2  0
 21 23  1  0
 23 24  1  0
 23 48  1  0
 23 49  1  0
 24 25  1  0
 25 26  2  0
 25 30  1  0
 26 27  1  0
 26 50  1  0
 27 28  2  0
 27 51  1  0
 28 29  1  0
 28 52  1  0
 29 30  2  0
 29 53  1  0
 30 54  1  0
 32 55  1  0
M  END

