
     RDKit          3D

 38 40  0  0  0  0  0  0  0  0999 V2000
    1.9435   -0.5075    2.1457 C   0  0  0  0  0  0  0  0  0  0  0  0
    2.9124   -0.2597    1.0321 C   0  0  0  0  0  0  0  0  0  0  0  0
    3.7130   -1.2150    0.5570 N   0  0  0  0  0  0  0  0  0  0  0  0
    4.5059   -0.6435   -0.4180 C   0  0  0  0  0  0  0  0  0  0  0  0
    5.4367   -1.2625   -1.2987 C   0  0  0  0  0  0  0  0  0  0  0  0
    6.0056   -0.4327   -2.3026 C   0  0  0  0  0  0  0  0  0  0  0  0
    5.7235    0.9252   -2.3608 C   0  0  0  0  0  0  0  0  0  0  0  0
    6.4520    2.0157   -3.7486 Br  0  0  0  0  0  0  0  0  0  0  0  0
    4.8304    1.5433   -1.4439 C   0  0  0  0  0  0  0  0  0  0  0  0
    4.2565    0.6792   -0.5186 N   0  0  0  0  0  0  0  0  0  0  0  0
    3.1738    0.9661    0.3672 C   0  0  0  0  0  0  0  0  0  0  0  0
    2.7708    2.3725    0.6217 C   0  0  0  0  0  0  0  0  0  0  0  0
    3.6718    3.1180    1.0095 O   0  0  0  0  0  0  0  0  0  0  0  0
    1.4745    2.7608    0.4613 N   0  0  0  0  0  0  0  0  0  0  0  0
    1.1473    4.1565    0.7654 C   0  0  0  0  0  0  0  0  0  0  0  0
   -0.1530    4.3727    1.5496 C   0  0  0  0  0  0  0  0  0  0  0  0
   -1.4377    4.0906    0.7553 C   0  0  0  0  0  0  0  0  0  0  0  0
   -1.8711    2.6146    0.6596 C   0  0  0  0  0  0  0  0  0  0  0  0
   -0.7410    1.5702    0.5820 C   0  0  0  0  0  0  0  0  0  0  0  0
    0.4887    1.9508   -0.2573 C   0  0  0  0  0  0  0  0  0  0  0  0
    2.3665   -1.2481    2.8395 H   0  0  0  0  0  0  0  0  0  0  0  0
    0.9935   -0.9212    1.7666 H   0  0  0  0  0  0  0  0  0  0  0  0
    1.7148    0.4123    2.7028 H   0  0  0  0  0  0  0  0  0  0  0  0
    5.6569   -2.3223   -1.2069 H   0  0  0  0  0  0  0  0  0  0  0  0
    6.6730   -0.8709   -3.0481 H   0  0  0  0  0  0  0  0  0  0  0  0
    4.7710    2.6109   -1.2427 H   0  0  0  0  0  0  0  0  0  0  0  0
    1.0899    4.7208   -0.1858 H   0  0  0  0  0  0  0  0  0  0  0  0
    2.0027    4.5593    1.3224 H   0  0  0  0  0  0  0  0  0  0  0  0
   -0.1522    5.4340    1.8494 H   0  0  0  0  0  0  0  0  0  0  0  0
   -0.1292    3.7926    2.4886 H   0  0  0  0  0  0  0  0  0  0  0  0
   -1.3043    4.5049   -0.2599 H   0  0  0  0  0  0  0  0  0  0  0  0
   -2.2701    4.6649    1.1939 H   0  0  0  0  0  0  0  0  0  0  0  0
   -2.5293    2.5062   -0.2194 H   0  0  0  0  0  0  0  0  0  0  0  0
   -2.5000    2.3589    1.5292 H   0  0  0  0  0  0  0  0  0  0  0  0
   -1.1604    0.6354    0.1740 H   0  0  0  0  0  0  0  0  0  0  0  0
   -0.3855    1.3212    1.5941 H   0  0  0  0  0  0  0  0  0  0  0  0
    0.1856    2.4939   -1.1724 H   0  0  0  0  0  0  0  0  0  0  0  0
    1.0015    1.0398   -0.5965 H   0  0  0  0  0  0  0  0  0  0  0  0
  1  2  1  0
  1 21  1  0
  1 22  1  0
  1 23  1  0
  2  3  1  0
  2 11  2  0
  3  4  2  0
  4  5  1  0
  4 10  1  0
  5  6  2  0
  5 24  1  0
  6  7  1  0
  6 25  1  0
  7  8  1  0
  7  9  2  0
  9 10  1  0
  9 26  1  0
 10 11  1  0
 11 12  1  0
 12 13  2  0
 12 14  1  0
 14 15  1  0
 14 20  1  0
 15 16  1  0
 15 27  1  0
 15 28  1  0
 16 17  1  0
 16 29  1  0
 16 30  1  0
 17 18  1  0
 17 31  1  0
 17 32  1  0
 18 19  1  0
 18 33  1  0
 18 34  1  0
 19 20  1  0
 19 35  1  0
 19 36  1  0
 20 37  1  0
 20 38  1  0
M  END

