
     RDKit          3D

 40 41  0  0  0  0  0  0  0  0999 V2000
    1.4367   -1.3765   -5.9173 C   0  0  0  0  0  0  0  0  0  0  0  0
    2.9039   -1.1701   -5.5417 C   0  0  0  0  0  0  0  0  0  0  0  0
    3.1235   -0.9635   -4.0434 C   0  0  0  0  0  0  0  0  0  0  0  0
    4.5321   -0.8175   -3.7237 N   0  0  0  0  0  0  0  0  0  0  0  0
    4.8156   -0.6320   -2.3096 C   0  0  0  0  0  0  0  0  0  0  0  0
    6.2927   -0.5109   -2.0454 C   0  0  0  0  0  0  0  0  0  0  0  0
    6.9408    0.6473   -1.6796 C   0  0  0  0  0  0  0  0  0  0  0  0
    8.6373    0.3682   -1.4978 S   0  0  0  0  0  0  0  0  0  0  0  0
    8.3562   -1.3120   -1.9330 C   0  0  0  0  0  0  0  0  0  0  0  0
    9.4692   -2.2560   -1.9859 C   0  0  0  0  0  0  0  0  0  0  0  0
    9.3555   -3.5867   -2.3209 C   0  0  0  0  0  0  0  0  0  0  0  0
   10.9051   -4.3352   -2.2603 S   0  0  0  0  0  0  0  0  0  0  0  0
   11.6173   -2.7923   -1.7822 C   0  0  0  0  0  0  0  0  0  0  0  0
   13.1038   -2.6097   -1.5067 C   0  0  1  0  0  0  0  0  0  0  0  0
   13.8802   -3.9205   -1.7153 C   0  0  0  0  0  0  0  0  0  0  0  0
   13.6406   -1.5257   -2.4678 C   0  0  0  0  0  0  0  0  0  0  0  0
   13.2656   -2.1336   -0.0456 C   0  0  0  0  0  0  0  0  0  0  0  0
   10.7432   -1.8355   -1.6891 N   0  0  0  0  0  0  0  0  0  0  0  0
    7.1100   -1.6036   -2.1831 N   0  0  0  0  0  0  0  0  0  0  0  0
    1.3162   -1.5171   -7.0031 H   0  0  0  0  0  0  0  0  0  0  0  0
    0.8177   -0.5119   -5.6242 H   0  0  0  0  0  0  0  0  0  0  0  0
    1.0164   -2.2665   -5.4194 H   0  0  0  0  0  0  0  0  0  0  0  0
    3.3043   -0.2950   -6.0872 H   0  0  0  0  0  0  0  0  0  0  0  0
    3.5106   -2.0331   -5.8642 H   0  0  0  0  0  0  0  0  0  0  0  0
    2.7373   -1.8423   -3.4940 H   0  0  0  0  0  0  0  0  0  0  0  0
    2.5059   -0.0996   -3.6966 H   0  0  0  0  0  0  0  0  0  0  0  0
    4.9387   -0.0510   -4.2597 H   0  0  0  0  0  0  0  0  0  0  0  0
    4.4369   -1.5160   -1.7669 H   0  0  0  0  0  0  0  0  0  0  0  0
    4.3006    0.2514   -1.8674 H   0  0  0  0  0  0  0  0  0  0  0  0
    6.5057    1.6304   -1.5073 H   0  0  0  0  0  0  0  0  0  0  0  0
    8.4480   -4.1220   -2.5909 H   0  0  0  0  0  0  0  0  0  0  0  0
   13.7903   -4.2867   -2.7507 H   0  0  0  0  0  0  0  0  0  0  0  0
   13.5280   -4.7147   -1.0375 H   0  0  0  0  0  0  0  0  0  0  0  0
   14.9503   -3.7604   -1.5113 H   0  0  0  0  0  0  0  0  0  0  0  0
   13.5440   -1.8441   -3.5180 H   0  0  0  0  0  0  0  0  0  0  0  0
   14.7061   -1.3310   -2.2649 H   0  0  0  0  0  0  0  0  0  0  0  0
   13.0812   -0.5873   -2.3439 H   0  0  0  0  0  0  0  0  0  0  0  0
   12.9021   -2.8953    0.6623 H   0  0  0  0  0  0  0  0  0  0  0  0
   12.6946   -1.2096    0.1255 H   0  0  0  0  0  0  0  0  0  0  0  0
   14.3273   -1.9382    0.1759 H   0  0  0  0  0  0  0  0  0  0  0  0
  1  2  1  0
  1 20  1  0
  1 21  1  0
  1 22  1  0
  2  3  1  0
  2 23  1  0
  2 24  1  0
  3  4  1  0
  3 25  1  0
  3 26  1  0
  4  5  1  0
  4 27  1  0
  5  6  1  0
  5 28  1  0
  5 29  1  0
  6  7  2  0
  6 19  1  0
  7  8  1  0
  7 30  1  0
  8  9  1  0
  9 10  1  0
  9 19  2  0
 10 11  2  0
 10 18  1  0
 11 12  1  0
 11 31  1  0
 12 13  1  0
 13 14  1  0
 13 18  2  0
 14 15  1  1
 14 16  1  0
 14 17  1  0
 15 32  1  0
 15 33  1  0
 15 34  1  0
 16 35  1  0
 16 36  1  0
 16 37  1  0
 17 38  1  0
 17 39  1  0
 17 40  1  0
M  END

