
     RDKit          3D

 69 72  0  0  0  0  0  0  0  0999 V2000
    7.5664   -2.4483   -3.5997 C   0  0  0  0  0  0  0  0  0  0  0  0
    6.7007   -1.7172   -2.5741 C   0  0  1  0  0  0  0  0  0  0  0  0
    7.3700   -0.4072   -2.0364 C   0  0  0  0  0  0  0  0  0  0  0  0
    6.6318    0.7108   -2.8046 C   0  0  0  0  0  0  0  0  0  0  0  0
    5.8540   -0.0392   -3.7897 N   0  0  0  0  0  0  0  0  0  0  0  0
    4.8808    0.6667   -4.5766 C   0  0  0  0  0  0  0  0  0  0  0  0
    5.4349   -1.2670   -3.1788 N   0  0  0  0  0  0  0  0  0  0  0  0
    4.3052   -1.1418   -2.2278 C   0  0  0  0  0  0  0  0  0  0  0  0
    2.9619   -1.5720   -2.8299 C   0  0  0  0  0  0  0  0  0  0  0  0
    2.8965   -3.0536   -3.2075 C   0  0  0  0  0  0  0  0  0  0  0  0
    1.5787   -3.4613   -3.8748 C   0  0  0  0  0  0  0  0  0  0  0  0
    1.5257   -4.9506   -4.2214 C   0  0  0  0  0  0  0  0  0  0  0  0
    0.2336   -5.4457   -4.9619 C   0  0  1  0  0  0  0  0  0  0  0  0
   -1.0260   -5.0424   -4.1336 C   0  0  0  0  0  0  0  0  0  0  0  0
   -2.0320   -4.3821   -4.5745 N   0  0  0  0  0  0  0  0  0  0  0  0
   -0.9720   -5.4423   -2.8133 N   0  0  0  0  0  0  0  0  0  0  0  0
    0.1630   -4.8381   -6.3452 C   0  0  0  0  0  0  0  0  0  0  0  0
    0.1659   -5.5772   -7.4953 C   0  0  0  0  0  0  0  0  0  0  0  0
    0.2173   -6.9947   -7.4662 C   0  0  0  0  0  0  0  0  0  0  0  0
    0.2869   -7.6814   -6.2391 C   0  0  0  0  0  0  0  0  0  0  0  0
    0.3409   -9.2077   -6.2466 C   0  0  2  0  0  0  0  0  0  0  0  0
   -0.9113   -9.7636   -5.5645 C   0  0  0  0  0  0  0  0  0  0  0  0
   -0.8043  -11.1878   -5.2110 N   0  0  0  0  0  0  0  0  0  0  0  0
    0.3258  -11.8979   -5.1250 C   0  0  0  0  0  0  0  0  0  0  0  0
    0.2690  -13.2919   -4.7958 C   0  0  0  0  0  0  0  0  0  0  0  0
    1.4313  -14.0254   -4.7096 C   0  0  0  0  0  0  0  0  0  0  0  0
    2.6726  -13.3921   -4.9360 C   0  0  0  0  0  0  0  0  0  0  0  0
    2.7365  -12.0206   -5.2395 C   0  0  0  0  0  0  0  0  0  0  0  0
    1.5941  -11.2423   -5.3473 C   0  0  0  0  0  0  0  0  0  0  0  0
    1.6186   -9.7611   -5.5971 C   0  0  0  0  0  0  0  0  0  0  0  0
    0.2984   -7.0046   -4.9928 C   0  0  0  0  0  0  0  0  0  0  0  0
    0.3703   -7.6158   -3.8729 O   0  0  0  0  0  0  0  0  0  0  0  0
    8.5297   -2.7504   -3.1564 H   0  0  0  0  0  0  0  0  0  0  0  0
    7.7666   -1.7929   -4.4605 H   0  0  0  0  0  0  0  0  0  0  0  0
    7.0517   -3.3495   -3.9661 H   0  0  0  0  0  0  0  0  0  0  0  0
    6.4658   -2.4073   -1.7503 H   0  0  0  0  0  0  0  0  0  0  0  0
    8.4531   -0.4003   -2.2313 H   0  0  0  0  0  0  0  0  0  0  0  0
    7.2311   -0.3010   -0.9500 H   0  0  0  0  0  0  0  0  0  0  0  0
    7.3100    1.4069   -3.3251 H   0  0  0  0  0  0  0  0  0  0  0  0
    6.0045    1.3239   -2.1190 H   0  0  0  0  0  0  0  0  0  0  0  0
    5.3886    1.4786   -5.1235 H   0  0  0  0  0  0  0  0  0  0  0  0
    4.0548    1.1310   -3.9919 H   0  0  0  0  0  0  0  0  0  0  0  0
    4.4368   -0.0199   -5.3132 H   0  0  0  0  0  0  0  0  0  0  0  0
    4.2241   -0.1112   -1.8309 H   0  0  0  0  0  0  0  0  0  0  0  0
    4.5152   -1.7870   -1.3577 H   0  0  0  0  0  0  0  0  0  0  0  0
    2.7408   -0.9584   -3.7195 H   0  0  0  0  0  0  0  0  0  0  0  0
    2.1661   -1.3395   -2.0982 H   0  0  0  0  0  0  0  0  0  0  0  0
    3.0524   -3.6672   -2.2995 H   0  0  0  0  0  0  0  0  0  0  0  0
    3.7433   -3.2808   -3.8780 H   0  0  0  0  0  0  0  0  0  0  0  0
    1.4428   -2.8515   -4.7856 H   0  0  0  0  0  0  0  0  0  0  0  0
    0.7363   -3.2138   -3.2066 H   0  0  0  0  0  0  0  0  0  0  0  0
    1.6355   -5.5450   -3.3020 H   0  0  0  0  0  0  0  0  0  0  0  0
    2.3852   -5.2080   -4.8655 H   0  0  0  0  0  0  0  0  0  0  0  0
   -1.8817   -4.1510   -5.5597 H   0  0  0  0  0  0  0  0  0  0  0  0
   -0.4752   -6.3309   -2.6990 H   0  0  0  0  0  0  0  0  0  0  0  0
   -1.8687   -5.3694   -2.3418 H   0  0  0  0  0  0  0  0  0  0  0  0
    0.1437   -3.7471   -6.4078 H   0  0  0  0  0  0  0  0  0  0  0  0
    0.1337   -5.0676   -8.4631 H   0  0  0  0  0  0  0  0  0  0  0  0
    0.2129   -7.5542   -8.4049 H   0  0  0  0  0  0  0  0  0  0  0  0
    0.3244   -9.5496   -7.2958 H   0  0  0  0  0  0  0  0  0  0  0  0
   -1.7880   -9.6600   -6.2197 H   0  0  0  0  0  0  0  0  0  0  0  0
   -1.1010   -9.2098   -4.6330 H   0  0  0  0  0  0  0  0  0  0  0  0
   -1.6639  -11.6571   -4.9352 H   0  0  0  0  0  0  0  0  0  0  0  0
   -0.7046  -13.7567   -4.6246 H   0  0  0  0  0  0  0  0  0  0  0  0
    1.3944  -15.0887   -4.4679 H   0  0  0  0  0  0  0  0  0  0  0  0
    3.5942  -13.9735   -4.8733 H   0  0  0  0  0  0  0  0  0  0  0  0
    3.7095  -11.5510   -5.3960 H   0  0  0  0  0  0  0  0  0  0  0  0
    2.4951   -9.4981   -6.2060 H   0  0  0  0  0  0  0  0  0  0  0  0
    1.7397   -9.2592   -4.6212 H   0  0  0  0  0  0  0  0  0  0  0  0
  1  2  1  0
  1 33  1  0
  1 34  1  0
  1 35  1  0
  2  3  1  0
  2  7  1  0
  2 36  1  1
  3  4  1  0
  3 37  1  0
  3 38  1  0
  4  5  1  0
  4 39  1  0
  4 40  1  0
  5  6  1  0
  5  7  1  0
  6 41  1  0
  6 42  1  0
  6 43  1  0
  7  8  1  0
  8  9  1  0
  8 44  1  0
  8 45  1  0
  9 10  1  0
  9 46  1  0
  9 47  1  0
 10 11  1  0
 10 48  1  0
 10 49  1  0
 11 12  1  0
 11 50  1  0
 11 51  1  0
 12 13  1  0
 12 52  1  0
 12 53  1  0
 13 14  1  1
 13 17  1  0
 13 31  1  0
 14 15  2  0
 14 16  1  0
 15 54  1  0
 16 55  1  0
 16 56  1  0
 17 18  2  0
 17 57  1  0
 18 19  1  0
 18 58  1  0
 19 20  2  0
 19 59  1  0
 20 21  1  0
 20 31  1  0
 21 22  1  0
 21 30  1  0
 21 60  1  6
 22 23  1  0
 22 61  1  0
 22 62  1  0
 23 24  1  0
 23 63  1  0
 24 25  2  0
 24 29  1  0
 25 26  1  0
 25 64  1  0
 26 27  2  0
 26 65  1  0
 27 28  1  0
 27 66  1  0
 28 29  2  0
 28 67  1  0
 29 30  1  0
 30 68  1  0
 30 69  1  0
 31 32  2  0
M  END

