
     RDKit          3D

 27 28  0  0  0  0  0  0  0  0999 V2000
    1.2672    1.1034    0.2058 O   0  0  0  0  0  0  0  0  0  0  0  0
    2.2290    0.3621    0.1267 C   0  0  0  0  0  0  0  0  0  0  0  0
    2.6007   -0.5647    1.0673 N   0  0  0  0  0  0  0  0  0  0  0  0
    1.9969   -0.8514    2.3013 C   0  0  0  0  0  0  0  0  0  0  0  0
    0.8693   -0.1632    2.7883 C   0  0  0  0  0  0  0  0  0  0  0  0
    0.3110   -0.4855    4.0250 C   0  0  0  0  0  0  0  0  0  0  0  0
    0.8761   -1.5016    4.7896 C   0  0  0  0  0  0  0  0  0  0  0  0
    0.3429   -1.8147    5.9778 F   0  0  0  0  0  0  0  0  0  0  0  0
    1.9911   -2.2064    4.3453 C   0  0  0  0  0  0  0  0  0  0  0  0
    2.5409   -1.8766    3.1073 C   0  0  0  0  0  0  0  0  0  0  0  0
    3.9459   -2.7680    2.5500 Cl  0  0  0  0  0  0  0  0  0  0  0  0
    3.1873    0.3864   -1.0682 C   0  0  1  0  0  0  0  0  0  0  0  0
    3.5112   -0.9681   -1.5347 N   0  0  0  0  0  0  0  0  0  0  0  0
    4.0294   -0.6955   -2.8351 N   0  0  0  0  0  0  0  0  0  0  0  0
    3.0601    0.1837   -3.4698 C   0  0  2  0  0  0  0  0  0  0  0  0
    3.7255    0.9247   -4.9552 Cl  0  0  0  0  0  0  0  0  0  0  0  0
    2.6575    1.1477   -2.3091 C   0  0  2  0  0  0  0  0  0  0  0  0
    3.3513    2.8002   -2.4068 Cl  0  0  0  0  0  0  0  0  0  0  0  0
    3.4119   -1.1341    0.8315 H   0  0  0  0  0  0  0  0  0  0  0  0
    0.4422    0.6273    2.1754 H   0  0  0  0  0  0  0  0  0  0  0  0
   -0.5626    0.0492    4.4018 H   0  0  0  0  0  0  0  0  0  0  0  0
    2.4224   -2.9992    4.9564 H   0  0  0  0  0  0  0  0  0  0  0  0
    4.1304    0.8664   -0.7587 H   0  0  0  0  0  0  0  0  0  0  0  0
    2.6230   -1.4896   -1.6139 H   0  0  0  0  0  0  0  0  0  0  0  0
    4.2189   -1.5560   -3.3451 H   0  0  0  0  0  0  0  0  0  0  0  0
    2.1471   -0.3458   -3.8055 H   0  0  0  0  0  0  0  0  0  0  0  0
    1.5708    1.2803   -2.2646 H   0  0  0  0  0  0  0  0  0  0  0  0
  1  2  2  0
  2  3  1  0
  2 12  1  0
  3  4  1  0
  3 19  1  0
  4  5  2  0
  4 10  1  0
  5  6  1  0
  5 20  1  0
  6  7  2  0
  6 21  1  0
  7  8  1  0
  7  9  1  0
  9 10  2  0
  9 22  1  0
 10 11  1  0
 12 13  1  0
 12 17  1  0
 12 23  1  1
 13 14  1  0
 13 24  1  0
 14 15  1  0
 14 25  1  0
 15 16  1  0
 15 17  1  0
 15 26  1  6
 17 18  1  0
 17 27  1  1
M  END

