
     RDKit          3D

 34 36  0  0  0  0  0  0  0  0999 V2000
    2.2561    0.3713    1.6777 Br  0  0  0  0  0  0  0  0  0  0  0  0
    2.3417   -0.5662    0.0133 C   0  0  0  0  0  0  0  0  0  0  0  0
    1.5694   -0.1210   -1.0587 C   0  0  0  0  0  0  0  0  0  0  0  0
    1.6503   -0.8365   -2.2608 C   0  0  0  0  0  0  0  0  0  0  0  0
    2.4761   -1.9480   -2.3868 C   0  0  0  0  0  0  0  0  0  0  0  0
    3.2615   -2.3907   -1.2970 C   0  0  0  0  0  0  0  0  0  0  0  0
    4.1011   -3.4791   -1.4556 N   0  0  0  0  0  0  0  0  0  0  0  0
    4.7808   -4.1311   -0.3534 C   0  0  0  0  0  0  0  0  0  0  0  0
    5.7064   -5.2252   -0.8416 C   0  0  0  0  0  0  0  0  0  0  0  0
    6.6309   -4.9791   -1.8687 C   0  0  0  0  0  0  0  0  0  0  0  0
    7.5009   -5.9746   -2.3118 C   0  0  0  0  0  0  0  0  0  0  0  0
    7.4719   -7.2455   -1.7182 C   0  0  0  0  0  0  0  0  0  0  0  0
    8.3585   -8.2688   -2.1422 N   0  0  0  0  0  0  0  0  0  0  0  0
    9.5074   -8.1425   -2.8780 C   0  0  0  0  0  0  0  0  0  0  0  0
   10.0297   -9.4111   -3.0264 C   0  0  0  0  0  0  0  0  0  0  0  0
    9.1171  -10.2482   -2.3345 C   0  0  0  0  0  0  0  0  0  0  0  0
    8.1199   -9.5540   -1.8066 N   0  0  0  0  0  0  0  0  0  0  0  0
    6.5515   -7.5090   -0.6951 C   0  0  0  0  0  0  0  0  0  0  0  0
    5.6793   -6.5060   -0.2724 C   0  0  0  0  0  0  0  0  0  0  0  0
    3.1745   -1.6839   -0.0785 C   0  0  0  0  0  0  0  0  0  0  0  0
    0.9239    0.7518   -0.9603 H   0  0  0  0  0  0  0  0  0  0  0  0
    1.0531   -0.5128   -3.1174 H   0  0  0  0  0  0  0  0  0  0  0  0
    2.5294   -2.4858   -3.3374 H   0  0  0  0  0  0  0  0  0  0  0  0
    3.8877   -4.0813   -2.2427 H   0  0  0  0  0  0  0  0  0  0  0  0
    4.0711   -4.5524    0.3877 H   0  0  0  0  0  0  0  0  0  0  0  0
    5.3749   -3.3731    0.1896 H   0  0  0  0  0  0  0  0  0  0  0  0
    6.6611   -3.9927   -2.3381 H   0  0  0  0  0  0  0  0  0  0  0  0
    8.1906   -5.7575   -3.1287 H   0  0  0  0  0  0  0  0  0  0  0  0
    9.8741   -7.1775   -3.2157 H   0  0  0  0  0  0  0  0  0  0  0  0
   10.9403   -9.6915   -3.5503 H   0  0  0  0  0  0  0  0  0  0  0  0
    9.1522  -11.3300   -2.2057 H   0  0  0  0  0  0  0  0  0  0  0  0
    6.5296   -8.5044   -0.2532 H   0  0  0  0  0  0  0  0  0  0  0  0
    4.9627   -6.7275    0.5235 H   0  0  0  0  0  0  0  0  0  0  0  0
    3.7453   -1.9967    0.7941 H   0  0  0  0  0  0  0  0  0  0  0  0
  1  2  1  0
  2  3  2  0
  2 20  1  0
  3  4  1  0
  3 21  1  0
  4  5  2  0
  4 22  1  0
  5  6  1  0
  5 23  1  0
  6  7  1  0
  6 20  2  0
  7  8  1  0
  7 24  1  0
  8  9  1  0
  8 25  1  0
  8 26  1  0
  9 10  2  0
  9 19  1  0
 10 11  1  0
 10 27  1  0
 11 12  2  0
 11 28  1  0
 12 13  1  0
 12 18  1  0
 13 14  1  0
 13 17  1  0
 14 15  2  0
 14 29  1  0
 15 16  1  0
 15 30  1  0
 16 17  2  0
 16 31  1  0
 18 19  2  0
 18 32  1  0
 19 33  1  0
 20 34  1  0
M  END

