
     RDKit          3D

 74 78  0  0  0  0  0  0  0  0999 V2000
    1.9496   -3.7143    2.4050 C   0  0  0  0  0  0  0  0  0  0  0  0
    1.9671   -2.3389    2.1303 O   0  0  0  0  0  0  0  0  0  0  0  0
    3.0552   -1.9009    1.3412 C   0  0  0  0  0  0  0  0  0  0  0  0
    2.9293   -2.2721   -0.1369 C   0  0  0  0  0  0  0  0  0  0  0  0
    3.9406   -1.6027   -1.0821 C   0  0  0  0  0  0  0  0  0  0  0  0
    5.3401   -2.0135   -0.9662 N   0  0  0  0  0  0  0  0  0  0  0  0
    6.1734   -1.3403   -0.0030 C   0  0  0  0  0  0  0  0  0  0  0  0
    7.1221   -2.3072    0.6715 C   0  0  0  0  0  0  0  0  0  0  0  0
    6.7438   -3.6574    0.7511 C   0  0  0  0  0  0  0  0  0  0  0  0
    7.5342   -4.5490    1.4793 C   0  0  0  0  0  0  0  0  0  0  0  0
    7.2114   -5.9450    1.5900 C   0  0  0  0  0  0  0  0  0  0  0  0
    7.9896   -6.8050    2.3286 C   0  0  0  0  0  0  0  0  0  0  0  0
    9.1390   -6.2905    2.9927 C   0  0  0  0  0  0  0  0  0  0  0  0
    9.9620   -7.0201    3.7325 O   0  0  0  0  0  0  0  0  0  0  0  0
    9.7503   -8.4190    3.9176 C   0  0  0  0  0  0  0  0  0  0  0  0
    9.4860   -4.9130    2.8918 C   0  0  0  0  0  0  0  0  0  0  0  0
    8.7010   -4.0375    2.1345 C   0  0  0  0  0  0  0  0  0  0  0  0
    9.0906   -2.7370    2.0126 N   0  0  0  0  0  0  0  0  0  0  0  0
    8.3728   -1.9028    1.2845 C   0  0  0  0  0  0  0  0  0  0  0  0
    8.9347   -0.5326    1.0779 C   0  0  0  0  0  0  0  0  0  0  0  0
    9.1517   -0.1095   -0.2472 C   0  0  0  0  0  0  0  0  0  0  0  0
    9.7563    1.1210   -0.5076 C   0  0  0  0  0  0  0  0  0  0  0  0
   10.1304    1.9446    0.5560 C   0  0  0  0  0  0  0  0  0  0  0  0
    9.9024    1.5315    1.8708 C   0  0  0  0  0  0  0  0  0  0  0  0
    9.3142    0.2917    2.1632 C   0  0  0  0  0  0  0  0  0  0  0  0
    9.1025   -0.1160    3.6022 C   0  0  0  0  0  0  0  0  0  0  0  0
    6.0599   -2.5217   -2.0939 C   0  0  0  0  0  0  0  0  0  0  0  0
    7.1878   -2.0580   -2.3095 O   0  0  0  0  0  0  0  0  0  0  0  0
    5.4314   -3.5516   -2.8988 C   0  0  0  0  0  0  0  0  0  0  0  0
    5.7702   -3.6394   -4.3030 C   0  0  0  0  0  0  0  0  0  0  0  0
    5.2453   -4.6340   -5.1307 C   0  0  0  0  0  0  0  0  0  0  0  0
    4.4171   -5.6104   -4.5791 C   0  0  0  0  0  0  0  0  0  0  0  0
    4.2008   -5.5754   -3.1945 N   0  0  0  0  0  0  0  0  0  0  0  0
    3.7150   -6.3437   -2.7465 H   0  0  0  0  0  0  0  0  0  0  0  0
    4.6880   -4.6290   -2.3006 C   0  0  0  0  0  0  0  0  0  0  0  0
    4.4773   -4.8420   -1.0783 O   0  0  0  0  0  0  0  0  0  0  0  0
    3.8370   -6.7750   -5.3252 C   0  0  0  0  0  0  0  0  0  0  0  0
    3.9229   -6.5839   -6.8447 C   0  0  0  0  0  0  0  0  0  0  0  0
    5.2915   -6.0288   -7.2525 C   0  0  0  0  0  0  0  0  0  0  0  0
    5.5271   -4.6521   -6.6215 C   0  0  0  0  0  0  0  0  0  0  0  0
    1.0909   -3.9100    3.0652 H   0  0  0  0  0  0  0  0  0  0  0  0
    2.8730   -4.0422    2.9286 H   0  0  0  0  0  0  0  0  0  0  0  0
    1.8415   -4.3382    1.4977 H   0  0  0  0  0  0  0  0  0  0  0  0
    4.0019   -2.2964    1.7673 H   0  0  0  0  0  0  0  0  0  0  0  0
    3.0778   -0.8021    1.4553 H   0  0  0  0  0  0  0  0  0  0  0  0
    1.9185   -1.9633   -0.4589 H   0  0  0  0  0  0  0  0  0  0  0  0
    3.0141   -3.3592   -0.2735 H   0  0  0  0  0  0  0  0  0  0  0  0
    3.8771   -0.4991   -0.9696 H   0  0  0  0  0  0  0  0  0  0  0  0
    3.6327   -1.8248   -2.1121 H   0  0  0  0  0  0  0  0  0  0  0  0
    5.5451   -0.9161    0.8000 H   0  0  0  0  0  0  0  0  0  0  0  0
    6.7290   -0.4918   -0.4286 H   0  0  0  0  0  0  0  0  0  0  0  0
    5.8428   -4.0039    0.2214 H   0  0  0  0  0  0  0  0  0  0  0  0
    6.3268   -6.3022    1.0579 H   0  0  0  0  0  0  0  0  0  0  0  0
    7.7296   -7.8598    2.3966 H   0  0  0  0  0  0  0  0  0  0  0  0
   10.5695   -8.7645    4.5581 H   0  0  0  0  0  0  0  0  0  0  0  0
    9.7844   -8.9489    2.9534 H   0  0  0  0  0  0  0  0  0  0  0  0
    8.7862   -8.6053    4.4153 H   0  0  0  0  0  0  0  0  0  0  0  0
   10.3789   -4.5490    3.4003 H   0  0  0  0  0  0  0  0  0  0  0  0
    8.8377   -0.7519   -1.0760 H   0  0  0  0  0  0  0  0  0  0  0  0
    9.9263    1.4335   -1.5404 H   0  0  0  0  0  0  0  0  0  0  0  0
   10.5960    2.9149    0.3648 H   0  0  0  0  0  0  0  0  0  0  0  0
   10.1885    2.1869    2.6982 H   0  0  0  0  0  0  0  0  0  0  0  0
    9.2618    0.7378    4.2767 H   0  0  0  0  0  0  0  0  0  0  0  0
    9.7959   -0.9203    3.8924 H   0  0  0  0  0  0  0  0  0  0  0  0
    8.0844   -0.4991    3.7774 H   0  0  0  0  0  0  0  0  0  0  0  0
    6.4339   -2.8783   -4.7152 H   0  0  0  0  0  0  0  0  0  0  0  0
    2.7829   -6.9391   -5.0254 H   0  0  0  0  0  0  0  0  0  0  0  0
    4.3656   -7.7147   -5.0465 H   0  0  0  0  0  0  0  0  0  0  0  0
    3.1396   -5.8756   -7.1699 H   0  0  0  0  0  0  0  0  0  0  0  0
    3.7173   -7.5391   -7.3563 H   0  0  0  0  0  0  0  0  0  0  0  0
    5.3676   -5.9626   -8.3511 H   0  0  0  0  0  0  0  0  0  0  0  0
    6.0805   -6.7301   -6.9232 H   0  0  0  0  0  0  0  0  0  0  0  0
    4.8786   -3.9121   -7.1290 H   0  0  0  0  0  0  0  0  0  0  0  0
    6.5619   -4.3169   -6.8036 H   0  0  0  0  0  0  0  0  0  0  0  0
  1  2  1  0
  1 41  1  0
  1 42  1  0
  1 43  1  0
  2  3  1  0
  3  4  1  0
  3 44  1  0
  3 45  1  0
  4  5  1  0
  4 46  1  0
  4 47  1  0
  5  6  1  0
  5 48  1  0
  5 49  1  0
  6  7  1  0
  6 27  1  0
  7  8  1  0
  7 50  1  0
  7 51  1  0
  8  9  2  0
  8 19  1  0
  9 10  1  0
  9 52  1  0
 10 11  2  0
 10 17  1  0
 11 12  1  0
 11 53  1  0
 12 13  2  0
 12 54  1  0
 13 14  1  0
 13 16  1  0
 14 15  1  0
 15 55  1  0
 15 56  1  0
 15 57  1  0
 16 17  2  0
 16 58  1  0
 17 18  1  0
 18 19  2  0
 19 20  1  0
 20 21  2  0
 20 25  1  0
 21 22  1  0
 21 59  1  0
 22 23  2  0
 22 60  1  0
 23 24  1  0
 23 61  1  0
 24 25  2  0
 24 62  1  0
 25 26  1  0
 26 63  1  0
 26 64  1  0
 26 65  1  0
 27 28  2  0
 27 29  1  0
 29 30  2  0
 29 35  1  0
 30 31  1  0
 30 66  1  0
 31 32  2  0
 31 40  1  0
 32 33  1  0
 32 37  1  0
 33 34  1  0
 33 35  1  0
 35 36  2  0
 37 38  1  0
 37 67  1  0
 37 68  1  0
 38 39  1  0
 38 69  1  0
 38 70  1  0
 39 40  1  0
 39 71  1  0
 39 72  1  0
 40 73  1  0
 40 74  1  0
M  END

