
     RDKit          3D

 67 70  0  0  0  0  0  0  0  0999 V2000
   10.0364    4.0375    2.4809 C   0  0  0  0  0  0  0  0  0  0  0  0
   10.4921    3.0020    1.7681 C   0  0  0  0  0  0  0  0  0  0  0  0
   10.6798    1.6070    2.3075 C   0  0  0  0  0  0  0  0  0  0  0  0
    9.8224    0.4636    1.6875 C   0  0  1  0  0  0  0  0  0  0  0  0
    9.8992   -0.3532    2.4226 H   0  0  0  0  0  0  0  0  0  0  0  0
    8.3487    0.8900    1.6254 C   0  0  0  0  0  0  0  0  0  0  0  0
    7.3157   -0.1766    1.0862 C   0  0  2  0  0  0  0  0  0  0  0  0
    5.9283    0.4896    0.9031 C   0  0  0  0  0  0  0  0  0  0  0  0
    4.7541   -0.2936    1.5160 C   0  0  1  0  0  0  0  0  0  0  0  0
    3.9024    0.4025    1.6068 H   0  0  0  0  0  0  0  0  0  0  0  0
    4.2965   -1.4501    0.5885 C   0  0  0  0  0  0  0  0  0  0  0  0
    3.5737   -0.9508   -0.6357 C   0  0  0  0  0  0  0  0  0  0  0  0
    3.9931   -1.0716   -1.8981 C   0  0  0  0  0  0  0  0  0  0  0  0
    5.0982   -0.7076    2.9663 C   0  0  1  0  0  0  0  0  0  0  0  0
    5.2878    0.4956    3.8970 C   0  0  0  0  0  0  0  0  0  0  0  0
    4.1130   -1.6890    3.6015 C   0  0  0  0  0  0  0  0  0  0  0  0
    6.3677   -1.4651    2.9517 O   0  0  0  0  0  0  0  0  0  0  0  0
    7.2927   -1.3553    2.0341 C   0  0  0  0  0  0  0  0  0  0  0  0
    8.2616   -2.3787    2.0128 C   0  0  0  0  0  0  0  0  0  0  0  0
    8.4182   -3.2786    3.1787 C   0  0  0  0  0  0  0  0  0  0  0  0
    9.2270   -2.5281    3.8540 O   0  0  0  0  0  0  0  0  0  0  0  0
    7.8538   -4.5217    3.4764 C   0  0  0  0  0  0  0  0  0  0  0  0
    8.1489   -5.1783    4.7201 C   0  0  0  0  0  0  0  0  0  0  0  0
    7.5708   -6.3980    5.0273 C   0  0  0  0  0  0  0  0  0  0  0  0
    6.6823   -7.0300    4.1353 C   0  0  0  0  0  0  0  0  0  0  0  0
    6.3887   -6.4034    2.9075 C   0  0  0  0  0  0  0  0  0  0  0  0
    6.9538   -5.1839    2.5750 C   0  0  0  0  0  0  0  0  0  0  0  0
    9.2691   -2.4310    0.9193 C   0  0  0  0  0  0  0  0  0  0  0  0
   10.0308   -3.3674    0.8014 O   0  0  0  0  0  0  0  0  0  0  0  0
    9.2965   -1.2738   -0.0857 C   0  0  1  0  0  0  0  0  0  0  0  0
    9.6165   -1.6922   -1.0498 H   0  0  0  0  0  0  0  0  0  0  0  0
    7.9178   -0.6814   -0.2480 C   0  0  0  0  0  0  0  0  0  0  0  0
    7.3520   -0.5712   -1.3092 O   0  0  0  0  0  0  0  0  0  0  0  0
   10.3277   -0.1437    0.3382 C   0  0  2  0  0  0  0  0  0  0  0  0
   11.7191   -0.7796    0.5090 C   0  0  0  0  0  0  0  0  0  0  0  0
   10.3967    0.8734   -0.8191 C   0  0  0  0  0  0  0  0  0  0  0  0
    9.9428    5.0363    2.0450 H   0  0  0  0  0  0  0  0  0  0  0  0
    9.7510    3.9289    3.5332 H   0  0  0  0  0  0  0  0  0  0  0  0
   10.7708    3.1774    0.7234 H   0  0  0  0  0  0  0  0  0  0  0  0
   10.4622    1.6264    3.3884 H   0  0  0  0  0  0  0  0  0  0  0  0
   11.7430    1.3255    2.2246 H   0  0  0  0  0  0  0  0  0  0  0  0
    8.2330    1.7726    0.9767 H   0  0  0  0  0  0  0  0  0  0  0  0
    8.0230    1.2081    2.6280 H   0  0  0  0  0  0  0  0  0  0  0  0
    5.7540    0.6140   -0.1747 H   0  0  0  0  0  0  0  0  0  0  0  0
    5.9625    1.4996    1.3335 H   0  0  0  0  0  0  0  0  0  0  0  0
    5.1550   -2.0727    0.2859 H   0  0  0  0  0  0  0  0  0  0  0  0
    3.6106   -2.1117    1.1397 H   0  0  0  0  0  0  0  0  0  0  0  0
    2.6149   -0.4508   -0.4409 H   0  0  0  0  0  0  0  0  0  0  0  0
    4.9499   -1.5412   -2.1446 H   0  0  0  0  0  0  0  0  0  0  0  0
    3.3969   -0.6903   -2.7320 H   0  0  0  0  0  0  0  0  0  0  0  0
    5.9813    1.2453    3.4953 H   0  0  0  0  0  0  0  0  0  0  0  0
    5.6729    0.1565    4.8695 H   0  0  0  0  0  0  0  0  0  0  0  0
    4.3170    0.9863    4.0634 H   0  0  0  0  0  0  0  0  0  0  0  0
    4.1202   -2.6598    3.0902 H   0  0  0  0  0  0  0  0  0  0  0  0
    3.0943   -1.2734    3.5679 H   0  0  0  0  0  0  0  0  0  0  0  0
    4.3832   -1.8664    4.6522 H   0  0  0  0  0  0  0  0  0  0  0  0
    8.8367   -4.6965    5.4175 H   0  0  0  0  0  0  0  0  0  0  0  0
    7.8109   -6.8788    5.9804 H   0  0  0  0  0  0  0  0  0  0  0  0
    6.2334   -7.9928    4.3874 H   0  0  0  0  0  0  0  0  0  0  0  0
    5.7095   -6.8897    2.2011 H   0  0  0  0  0  0  0  0  0  0  0  0
    6.7245   -4.7241    1.6103 H   0  0  0  0  0  0  0  0  0  0  0  0
   11.7636   -1.4662    1.3663 H   0  0  0  0  0  0  0  0  0  0  0  0
   12.4835   -0.0011    0.6532 H   0  0  0  0  0  0  0  0  0  0  0  0
   11.9984   -1.3531   -0.3880 H   0  0  0  0  0  0  0  0  0  0  0  0
    9.4626    1.4369   -0.9627 H   0  0  0  0  0  0  0  0  0  0  0  0
   10.6127    0.3559   -1.7669 H   0  0  0  0  0  0  0  0  0  0  0  0
   11.2071    1.5977   -0.6537 H   0  0  0  0  0  0  0  0  0  0  0  0
  1  2  2  0
  1 37  1  0
  1 38  1  0
  2  3  1  0
  2 39  1  0
  3  4  1  0
  3 40  1  0
  3 41  1  0
  4  5  1  1
  4  6  1  0
  4 34  1  0
  7  6  1  1
  6 42  1  0
  6 43  1  0
  7  8  1  0
  7 18  1  0
  7 32  1  0
  8  9  1  0
  8 44  1  0
  8 45  1  0
  9 10  1  1
  9 11  1  0
  9 14  1  0
 11 12  1  0
 11 46  1  0
 11 47  1  0
 12 13  2  0
 12 48  1  0
 13 49  1  0
 13 50  1  0
 14 15  1  1
 14 16  1  0
 14 17  1  0
 15 51  1  0
 15 52  1  0
 15 53  1  0
 16 54  1  0
 16 55  1  0
 16 56  1  0
 17 18  1  0
 18 19  2  0
 19 20  1  0
 19 28  1  0
 20 21  2  0
 20 22  1  0
 22 23  2  0
 22 27  1  0
 23 24  1  0
 23 57  1  0
 24 25  2  0
 24 58  1  0
 25 26  1  0
 25 59  1  0
 26 27  2  0
 26 60  1  0
 27 61  1  0
 28 29  2  0
 28 30  1  0
 30 31  1  6
 30 32  1  0
 30 34  1  0
 32 33  2  0
 34 35  1  1
 34 36  1  0
 35 62  1  0
 35 63  1  0
 35 64  1  0
 36 65  1  0
 36 66  1  0
 36 67  1  0
M  END

