
     RDKit          3D

 36 36  0  0  0  0  0  0  0  0999 V2000
    0.8233    0.0077   -0.3609 C   0  0  0  0  0  0  0  0  0  0  0  0
    2.3180    0.0049   -0.0448 C   0  0  1  0  0  0  0  0  0  0  0  0
    2.8866   -1.2787   -0.2998 O   0  0  0  0  0  0  0  0  0  0  0  0
    3.0863   -2.1982    0.6745 C   0  0  0  0  0  0  0  0  0  0  0  0
    3.8919   -3.3011    0.2796 C   0  0  0  0  0  0  0  0  0  0  0  0
    4.1293   -4.3490    1.2194 C   0  0  0  0  0  0  0  0  0  0  0  0
    3.5895   -4.1890    2.5129 C   0  0  0  0  0  0  0  0  0  0  0  0
    3.8279   -5.1465    3.4100 F   0  0  0  0  0  0  0  0  0  0  0  0
    2.8071   -3.0883    2.9302 C   0  0  0  0  0  0  0  0  0  0  0  0
    2.5162   -2.0658    1.9765 C   0  0  0  0  0  0  0  0  0  0  0  0
    3.0491    1.0619   -0.8932 C   0  0  0  0  0  0  0  0  0  0  0  0
    2.8111    2.2442   -0.7059 O   0  0  0  0  0  0  0  0  0  0  0  0
    3.8978    0.5881   -1.8394 N   0  0  0  0  0  0  0  0  0  0  0  0
    4.7957    1.4590   -2.5602 C   0  0  1  0  0  0  0  0  0  0  0  0
    6.1342    0.7071   -2.7447 C   0  0  0  0  0  0  0  0  0  0  0  0
    6.3294   -0.3744   -2.2505 O   0  0  0  0  0  0  0  0  0  0  0  0
    7.0422    1.3317   -3.4881 O   0  0  0  0  0  0  0  0  0  0  0  0
    4.2576    1.9782   -3.9270 C   0  0  1  0  0  0  0  0  0  0  0  0
    2.8455    2.5380   -3.8844 C   0  0  0  0  0  0  0  0  0  0  0  0
    5.1868    2.9593   -4.4182 O   0  0  0  0  0  0  0  0  0  0  0  0
    0.2926   -0.6900    0.3030 H   0  0  0  0  0  0  0  0  0  0  0  0
    0.6509   -0.2987   -1.4042 H   0  0  0  0  0  0  0  0  0  0  0  0
    0.4295    1.0234   -0.2148 H   0  0  0  0  0  0  0  0  0  0  0  0
    2.4954    0.2847    1.0049 H   0  0  0  0  0  0  0  0  0  0  0  0
    4.3691   -3.2826   -0.7003 H   0  0  0  0  0  0  0  0  0  0  0  0
    4.7200   -5.2322    0.9817 H   0  0  0  0  0  0  0  0  0  0  0  0
    2.4261   -3.0585    3.9504 H   0  0  0  0  0  0  0  0  0  0  0  0
    1.7909   -1.2878    2.2090 H   0  0  0  0  0  0  0  0  0  0  0  0
    4.1879   -0.3871   -1.7724 H   0  0  0  0  0  0  0  0  0  0  0  0
    4.9803    2.3569   -1.9403 H   0  0  0  0  0  0  0  0  0  0  0  0
    6.6316    2.1262   -3.9045 H   0  0  0  0  0  0  0  0  0  0  0  0
    4.3012    1.1568   -4.6613 H   0  0  0  0  0  0  0  0  0  0  0  0
    2.7518    3.3288   -3.1239 H   0  0  0  0  0  0  0  0  0  0  0  0
    2.1212    1.7514   -3.6303 H   0  0  0  0  0  0  0  0  0  0  0  0
    2.5829    2.9413   -4.8742 H   0  0  0  0  0  0  0  0  0  0  0  0
    4.9957    3.8050   -3.9847 H   0  0  0  0  0  0  0  0  0  0  0  0
  1  2  1  0
  1 21  1  0
  1 22  1  0
  1 23  1  0
  2  3  1  0
  2 11  1  0
  2 24  1  1
  3  4  1  0
  4  5  2  0
  4 10  1  0
  5  6  1  0
  5 25  1  0
  6  7  2  0
  6 26  1  0
  7  8  1  0
  7  9  1  0
  9 10  2  0
  9 27  1  0
 10 28  1  0
 11 12  2  0
 11 13  1  0
 13 14  1  0
 13 29  1  0
 14 15  1  0
 14 18  1  0
 14 30  1  1
 15 16  2  0
 15 17  1  0
 17 31  1  0
 18 19  1  0
 18 20  1  0
 18 32  1  6
 19 33  1  0
 19 34  1  0
 19 35  1  0
 20 36  1  0
M  END

