
     RDKit          3D

 32 33  0  0  0  0  0  0  0  0999 V2000
    0.7287    0.2229   -0.1239 C   0  0  0  0  0  0  0  0  0  0  0  0
    2.2305    0.1216   -0.1126 C   0  0  0  0  0  0  0  0  0  0  0  0
    2.9089   -1.0954   -0.1525 C   0  0  0  0  0  0  0  0  0  0  0  0
    4.3159   -1.1736   -0.1391 C   0  0  0  0  0  0  0  0  0  0  0  0
    5.1272   -0.0398   -0.0951 C   0  0  0  0  0  0  0  0  0  0  0  0
    6.6368   -0.1554   -0.0901 C   0  0  0  0  0  0  0  0  0  0  0  0
    7.3643   -0.2444   -1.4723 C   0  0  1  0  0  0  0  0  0  0  0  0
    7.0976    1.0085   -2.3249 C   0  0  0  0  0  0  0  0  0  0  0  0
    8.8748   -0.3481   -1.1867 C   0  0  0  0  0  0  0  0  0  0  0  0
    6.9151   -1.4933   -2.2516 C   0  0  0  0  0  0  0  0  0  0  0  0
    4.4595    1.2126   -0.0366 C   0  0  0  0  0  0  0  0  0  0  0  0
    4.9895    2.5539    0.0610 C   0  0  0  0  0  0  0  0  0  0  0  0
    4.1332    3.5362    0.1130 N   0  0  0  0  0  0  0  0  0  0  0  0
    2.5511    2.9460    0.0488 S   0  0  0  0  0  0  0  0  0  0  0  0
    3.0430    1.2714   -0.0484 C   0  0  0  0  0  0  0  0  0  0  0  0
    0.2583   -0.7697   -0.1732 H   0  0  0  0  0  0  0  0  0  0  0  0
    0.3745    0.8104   -0.9887 H   0  0  0  0  0  0  0  0  0  0  0  0
    0.3559    0.7316    0.7821 H   0  0  0  0  0  0  0  0  0  0  0  0
    2.3287   -2.0221   -0.1896 H   0  0  0  0  0  0  0  0  0  0  0  0
    4.7837   -2.1610   -0.1551 H   0  0  0  0  0  0  0  0  0  0  0  0
    6.9098   -1.0578    0.4827 H   0  0  0  0  0  0  0  0  0  0  0  0
    7.0686    0.6944    0.4632 H   0  0  0  0  0  0  0  0  0  0  0  0
    7.4475    1.9240   -1.8204 H   0  0  0  0  0  0  0  0  0  0  0  0
    6.0262    1.1327   -2.5465 H   0  0  0  0  0  0  0  0  0  0  0  0
    7.6311    0.9397   -3.2872 H   0  0  0  0  0  0  0  0  0  0  0  0
    9.2402    0.5328   -0.6335 H   0  0  0  0  0  0  0  0  0  0  0  0
    9.4490   -0.4152   -2.1250 H   0  0  0  0  0  0  0  0  0  0  0  0
    9.1090   -1.2422   -0.5855 H   0  0  0  0  0  0  0  0  0  0  0  0
    5.8457   -1.4524   -2.5086 H   0  0  0  0  0  0  0  0  0  0  0  0
    7.0900   -2.4145   -1.6711 H   0  0  0  0  0  0  0  0  0  0  0  0
    7.4809   -1.5818   -3.1934 H   0  0  0  0  0  0  0  0  0  0  0  0
    6.0556    2.7961    0.0982 H   0  0  0  0  0  0  0  0  0  0  0  0
  1  2  1  0
  1 16  1  0
  1 17  1  0
  1 18  1  0
  2  3  2  0
  2 15  1  0
  3  4  1  0
  3 19  1  0
  4  5  2  0
  4 20  1  0
  5  6  1  0
  5 11  1  0
  7  6  1  1
  6 21  1  0
  6 22  1  0
  7  8  1  0
  7  9  1  0
  7 10  1  0
  8 23  1  0
  8 24  1  0
  8 25  1  0
  9 26  1  0
  9 27  1  0
  9 28  1  0
 10 29  1  0
 10 30  1  0
 10 31  1  0
 11 12  1  0
 11 15  2  0
 12 13  2  0
 12 32  1  0
 13 14  1  0
 14 15  1  0
M  END

