
     RDKit          3D

 87 90  0  0  0  0  0  0  0  0999 V2000
    4.8390   -3.1615    5.3568 C   0  0  0  0  0  0  0  0  0  0  0  0
    5.5451   -3.7162    4.2773 O   0  0  0  0  0  0  0  0  0  0  0  0
    5.5731   -2.9066    3.1331 C   0  0  0  0  0  0  0  0  0  0  0  0
    6.1543   -3.7183    1.9661 C   0  0  1  0  0  0  0  0  0  0  0  0
    5.3946   -4.8988    1.6281 N   0  0  0  0  0  0  0  0  0  0  0  0
    4.0534   -4.8966    1.2966 C   0  0  0  0  0  0  0  0  0  0  0  0
    3.4310   -3.8639    1.0848 O   0  0  0  0  0  0  0  0  0  0  0  0
    3.4567   -6.1473    1.1980 N   0  0  0  0  0  0  0  0  0  0  0  0
    4.1857   -7.3937    1.3444 C   0  0  0  0  0  0  0  0  0  0  0  0
    2.1270   -6.1782    0.5881 C   0  0  0  0  0  0  0  0  0  0  0  0
    2.1449   -6.2524   -0.9192 C   0  0  0  0  0  0  0  0  0  0  0  0
    2.2438   -5.2131   -1.8149 C   0  0  0  0  0  0  0  0  0  0  0  0
    2.3004   -5.5575   -3.1406 N   0  0  0  0  0  0  0  0  0  0  0  0
    2.2460   -6.8476   -3.2922 C   0  0  0  0  0  0  0  0  0  0  0  0
    2.1214   -7.7527   -1.8077 S   0  0  0  0  0  0  0  0  0  0  0  0
    6.3768   -2.7697    0.7742 C   0  0  0  0  0  0  0  0  0  0  0  0
    6.9945   -1.6644    1.0664 O   0  0  0  0  0  0  0  0  0  0  0  0
    6.3782   -3.2542   -0.6569 C   0  0  0  0  0  0  0  0  0  0  0  0
    7.4557   -4.2800   -1.1055 C   0  0  1  0  0  0  0  0  0  0  0  0
    7.1011   -4.8350   -2.5071 C   0  0  0  0  0  0  0  0  0  0  0  0
    7.1138   -3.8214   -3.6574 C   0  0  0  0  0  0  0  0  0  0  0  0
    6.8059   -4.4116   -5.0502 C   0  0  1  0  0  0  0  0  0  0  0  0
    5.4208   -5.0869   -5.1035 C   0  0  0  0  0  0  0  0  0  0  0  0
    4.9279   -5.5598   -6.4586 C   0  0  0  0  0  0  0  0  0  0  0  0
    5.7882   -6.0819   -7.4390 C   0  0  0  0  0  0  0  0  0  0  0  0
    5.2877   -6.5370   -8.6635 C   0  0  0  0  0  0  0  0  0  0  0  0
    3.9159   -6.4881   -8.9275 C   0  0  0  0  0  0  0  0  0  0  0  0
    3.0481   -5.9740   -7.9596 C   0  0  0  0  0  0  0  0  0  0  0  0
    3.5513   -5.5101   -6.7404 C   0  0  0  0  0  0  0  0  0  0  0  0
    6.9335   -3.3758   -6.0679 N   0  0  0  0  0  0  0  0  0  0  0  0
    7.9019   -3.3870   -7.0181 C   0  0  0  0  0  0  0  0  0  0  0  0
    8.7937   -4.2075   -7.1180 O   0  0  0  0  0  0  0  0  0  0  0  0
    7.7461   -2.3292   -7.8622 O   0  0  0  0  0  0  0  0  0  0  0  0
    8.6193   -2.3041   -9.0012 C   0  0  0  0  0  0  0  0  0  0  0  0
    8.1217   -3.1653  -10.1220 C   0  0  0  0  0  0  0  0  0  0  0  0
    8.4399   -4.4765  -10.3881 C   0  0  0  0  0  0  0  0  0  0  0  0
    7.7918   -5.0566  -11.4451 N   0  0  0  0  0  0  0  0  0  0  0  0
    6.9712   -4.2147  -12.0014 C   0  0  0  0  0  0  0  0  0  0  0  0
    6.9249   -2.6350  -11.2709 S   0  0  0  0  0  0  0  0  0  0  0  0
    8.9082   -3.7482   -1.0223 C   0  0  0  0  0  0  0  0  0  0  0  0
    9.5464   -3.8094    0.3525 C   0  0  0  0  0  0  0  0  0  0  0  0
    9.8008   -5.0520    0.9614 C   0  0  0  0  0  0  0  0  0  0  0  0
   10.4040   -5.1326    2.2192 C   0  0  0  0  0  0  0  0  0  0  0  0
   10.7738   -3.9644    2.8949 C   0  0  0  0  0  0  0  0  0  0  0  0
   10.5337   -2.7234    2.2998 C   0  0  0  0  0  0  0  0  0  0  0  0
    9.9253   -2.6479    1.0426 C   0  0  0  0  0  0  0  0  0  0  0  0
    4.8655   -3.8863    6.1839 H   0  0  0  0  0  0  0  0  0  0  0  0
    3.7812   -2.9554    5.0977 H   0  0  0  0  0  0  0  0  0  0  0  0
    5.2946   -2.2133    5.7064 H   0  0  0  0  0  0  0  0  0  0  0  0
    6.2407   -2.0262    3.2632 H   0  0  0  0  0  0  0  0  0  0  0  0
    4.5670   -2.5347    2.8702 H   0  0  0  0  0  0  0  0  0  0  0  0
    7.1408   -4.0930    2.3100 H   0  0  0  0  0  0  0  0  0  0  0  0
    5.8574   -5.7801    1.7967 H   0  0  0  0  0  0  0  0  0  0  0  0
    4.7735   -7.4021    2.2769 H   0  0  0  0  0  0  0  0  0  0  0  0
    4.8604   -7.6158    0.4955 H   0  0  0  0  0  0  0  0  0  0  0  0
    3.4682   -8.2231    1.4212 H   0  0  0  0  0  0  0  0  0  0  0  0
    1.6157   -5.2533    0.8821 H   0  0  0  0  0  0  0  0  0  0  0  0
    1.5701   -7.0269    1.0134 H   0  0  0  0  0  0  0  0  0  0  0  0
    2.2835   -4.1644   -1.5145 H   0  0  0  0  0  0  0  0  0  0  0  0
    2.2756   -7.3568   -4.2586 H   0  0  0  0  0  0  0  0  0  0  0  0
    6.4369   -2.3570   -1.2931 H   0  0  0  0  0  0  0  0  0  0  0  0
    5.3847   -3.7014   -0.8326 H   0  0  0  0  0  0  0  0  0  0  0  0
    7.3835   -5.1434   -0.4221 H   0  0  0  0  0  0  0  0  0  0  0  0
    6.1035   -5.2990   -2.4363 H   0  0  0  0  0  0  0  0  0  0  0  0
    7.8043   -5.6544   -2.7447 H   0  0  0  0  0  0  0  0  0  0  0  0
    8.1015   -3.3358   -3.7195 H   0  0  0  0  0  0  0  0  0  0  0  0
    6.3845   -3.0157   -3.4603 H   0  0  0  0  0  0  0  0  0  0  0  0
    7.5858   -5.1487   -5.2935 H   0  0  0  0  0  0  0  0  0  0  0  0
    4.6664   -4.4084   -4.6697 H   0  0  0  0  0  0  0  0  0  0  0  0
    5.4452   -5.9531   -4.4200 H   0  0  0  0  0  0  0  0  0  0  0  0
    6.8656   -6.1209   -7.2631 H   0  0  0  0  0  0  0  0  0  0  0  0
    5.9785   -6.9168   -9.4207 H   0  0  0  0  0  0  0  0  0  0  0  0
    3.5267   -6.8425   -9.8856 H   0  0  0  0  0  0  0  0  0  0  0  0
    1.9735   -5.9246   -8.1564 H   0  0  0  0  0  0  0  0  0  0  0  0
    2.8689   -5.1047   -5.9870 H   0  0  0  0  0  0  0  0  0  0  0  0
    6.2191   -2.6600   -6.1436 H   0  0  0  0  0  0  0  0  0  0  0  0
    9.6195   -2.6455   -8.7002 H   0  0  0  0  0  0  0  0  0  0  0  0
    8.6703   -1.2474   -9.2963 H   0  0  0  0  0  0  0  0  0  0  0  0
    9.1526   -5.0530   -9.7958 H   0  0  0  0  0  0  0  0  0  0  0  0
    6.3421   -4.4454  -12.8647 H   0  0  0  0  0  0  0  0  0  0  0  0
    8.9533   -2.7147   -1.4022 H   0  0  0  0  0  0  0  0  0  0  0  0
    9.5276   -4.3522   -1.7088 H   0  0  0  0  0  0  0  0  0  0  0  0
    9.5366   -5.9746    0.4344 H   0  0  0  0  0  0  0  0  0  0  0  0
   10.5975   -6.1105    2.6687 H   0  0  0  0  0  0  0  0  0  0  0  0
   11.2496   -4.0231    3.8772 H   0  0  0  0  0  0  0  0  0  0  0  0
   10.8186   -1.8037    2.8177 H   0  0  0  0  0  0  0  0  0  0  0  0
    9.7272   -1.6711    0.5972 H   0  0  0  0  0  0  0  0  0  0  0  0
  1  2  1  0
  1 47  1  0
  1 48  1  0
  1 49  1  0
  2  3  1  0
  3  4  1  0
  3 50  1  0
  3 51  1  0
  4  5  1  0
  4 16  1  0
  4 52  1  1
  5  6  1  0
  5 53  1  0
  6  7  2  0
  6  8  1  0
  8  9  1  0
  8 10  1  0
  9 54  1  0
  9 55  1  0
  9 56  1  0
 10 11  1  0
 10 57  1  0
 10 58  1  0
 11 12  2  0
 11 15  1  0
 12 13  1  0
 12 59  1  0
 13 14  2  0
 14 15  1  0
 14 60  1  0
 16 17  2  0
 16 18  1  0
 18 19  1  0
 18 61  1  0
 18 62  1  0
 19 20  1  0
 19 40  1  0
 19 63  1  1
 20 21  1  0
 20 64  1  0
 20 65  1  0
 21 22  1  0
 21 66  1  0
 21 67  1  0
 22 23  1  0
 22 30  1  0
 22 68  1  6
 23 24  1  0
 23 69  1  0
 23 70  1  0
 24 25  2  0
 24 29  1  0
 25 26  1  0
 25 71  1  0
 26 27  2  0
 26 72  1  0
 27 28  1  0
 27 73  1  0
 28 29  2  0
 28 74  1  0
 29 75  1  0
 30 31  1  0
 30 76  1  0
 31 32  2  0
 31 33  1  0
 33 34  1  0
 34 35  1  0
 34 77  1  0
 34 78  1  0
 35 36  2  0
 35 39  1  0
 36 37  1  0
 36 79  1  0
 37 38  2  0
 38 39  1  0
 38 80  1  0
 40 41  1  0
 40 81  1  0
 40 82  1  0
 41 42  2  0
 41 46  1  0
 42 43  1  0
 42 83  1  0
 43 44  2  0
 43 84  1  0
 44 45  1  0
 44 85  1  0
 45 46  2  0
 45 86  1  0
 46 87  1  0
M  END

