
     RDKit          3D

101111  0  0  0  0  0  0  0  0999 V2000
    0.8377    2.2521   -3.9596 C   0  0  0  0  0  0  0  0  0  0  0  0
    2.2626    2.7963   -4.0766 C   0  0  0  0  0  0  0  0  0  0  0  0
    3.2007    1.8383   -4.8169 C   0  0  0  0  0  0  0  0  0  0  0  0
    4.6508    2.3103   -5.0008 C   0  0  0  0  0  0  0  0  0  0  0  0
    5.3985    2.4847   -3.7490 N   0  0  0  0  0  0  0  0  0  0  0  0
    5.8771    1.4207   -2.9915 C   0  0  0  0  0  0  0  0  0  0  0  0
    6.0545    0.0347   -3.4688 C   0  0  0  0  0  0  0  0  0  0  0  0
    6.6243   -0.2860   -4.7175 C   0  0  0  0  0  0  0  0  0  0  0  0
    6.8221   -1.6101   -5.0952 C   0  0  0  0  0  0  0  0  0  0  0  0
    6.4638   -2.6569   -4.2262 C   0  0  0  0  0  0  0  0  0  0  0  0
    6.6747   -4.0352   -4.6490 C   0  0  0  0  0  0  0  0  0  0  0  0
    7.1389   -4.4701   -5.7860 N   0  0  0  0  0  0  0  0  0  0  0  0
    7.1547   -5.8400   -5.7159 N   0  0  0  0  0  0  0  0  0  0  0  0
    6.6987   -6.1669   -4.5400 C   0  0  0  0  0  0  0  0  0  0  0  0
    6.5175   -7.4985   -3.9773 C   0  0  0  0  0  0  0  0  0  0  0  0
    6.8525   -8.6263   -4.7516 C   0  0  0  0  0  0  0  0  0  0  0  0
    6.6809   -9.9052   -4.2373 C   0  0  0  0  0  0  0  0  0  0  0  0
    6.1615  -10.1028   -2.9414 C   0  0  0  0  0  0  0  0  0  0  0  0
    6.0488  -11.4842   -2.4356 C   0  0  0  0  0  0  0  0  0  0  0  0
    6.9779  -12.3908   -2.6615 N   0  0  0  0  0  0  0  0  0  0  0  0
    6.5567  -13.5206   -2.0207 C   0  0  0  0  0  0  0  0  0  0  0  0
    7.2396  -14.7844   -1.9714 C   0  0  0  0  0  0  0  0  0  0  0  0
    8.4780  -14.9771   -2.6213 C   0  0  0  0  0  0  0  0  0  0  0  0
    9.1106  -16.2079   -2.5739 C   0  0  0  0  0  0  0  0  0  0  0  0
    8.5119  -17.2711   -1.8715 C   0  0  0  0  0  0  0  0  0  0  0  0
    7.2973  -17.0914   -1.2263 C   0  0  0  0  0  0  0  0  0  0  0  0
    6.6213  -15.8465   -1.2513 C   0  0  0  0  0  0  0  0  0  0  0  0
    5.3400  -15.6211   -0.5655 C   0  0  0  0  0  0  0  0  0  0  0  0
    4.7207  -16.6514    0.1803 C   0  0  0  0  0  0  0  0  0  0  0  0
    3.5279  -16.4617    0.8608 C   0  0  0  0  0  0  0  0  0  0  0  0
    2.8996  -15.2073    0.8254 C   0  0  0  0  0  0  0  0  0  0  0  0
    3.4692  -14.1726    0.1008 C   0  0  0  0  0  0  0  0  0  0  0  0
    4.6811  -14.3420   -0.6148 C   0  0  0  0  0  0  0  0  0  0  0  0
    5.3304  -13.3094   -1.3869 C   0  0  0  0  0  0  0  0  0  0  0  0
    5.0019  -11.9822   -1.6669 N   0  0  0  0  0  0  0  0  0  0  0  0
    3.6896  -11.3493   -1.5282 C   0  0  0  0  0  0  0  0  0  0  0  0
    2.6244  -11.9324   -2.4641 C   0  0  0  0  0  0  0  0  0  0  0  0
    1.2615  -11.2547   -2.2910 C   0  0  0  0  0  0  0  0  0  0  0  0
    0.1908  -11.8054   -3.2340 C   0  0  0  0  0  0  0  0  0  0  0  0
    5.8563   -8.9697   -2.1634 C   0  0  0  0  0  0  0  0  0  0  0  0
    6.0261   -7.6841   -2.6742 C   0  0  0  0  0  0  0  0  0  0  0  0
    6.3733   -5.0642   -3.8096 O   0  0  0  0  0  0  0  0  0  0  0  0
    5.9218   -2.3458   -2.9663 C   0  0  0  0  0  0  0  0  0  0  0  0
    5.7256   -1.0190   -2.5947 C   0  0  0  0  0  0  0  0  0  0  0  0
    6.1881    1.7790   -1.7635 N   0  0  0  0  0  0  0  0  0  0  0  0
    5.9313    3.1181   -1.6929 C   0  0  0  0  0  0  0  0  0  0  0  0
    6.1230    3.9587   -0.5434 C   0  0  0  0  0  0  0  0  0  0  0  0
    6.6109    3.4373    0.6747 C   0  0  0  0  0  0  0  0  0  0  0  0
    6.7699    4.2612    1.7760 C   0  0  0  0  0  0  0  0  0  0  0  0
    6.4422    5.6269    1.6758 C   0  0  0  0  0  0  0  0  0  0  0  0
    5.9665    6.1496    0.4825 C   0  0  0  0  0  0  0  0  0  0  0  0
    5.7933    5.3376   -0.6659 C   0  0  0  0  0  0  0  0  0  0  0  0
    5.3113    5.8629   -1.9516 C   0  0  0  0  0  0  0  0  0  0  0  0
    5.0198    7.2389   -2.1061 C   0  0  0  0  0  0  0  0  0  0  0  0
    4.5987    7.7801   -3.3101 C   0  0  0  0  0  0  0  0  0  0  0  0
    4.4596    6.9477   -4.4308 C   0  0  0  0  0  0  0  0  0  0  0  0
    4.7271    5.5928   -4.3195 C   0  0  0  0  0  0  0  0  0  0  0  0
    5.1414    5.0059   -3.0974 C   0  0  0  0  0  0  0  0  0  0  0  0
    5.4409    3.6026   -2.9086 C   0  0  0  0  0  0  0  0  0  0  0  0
    0.1822    2.9566   -3.4240 H   0  0  0  0  0  0  0  0  0  0  0  0
    0.8174    1.2959   -3.4103 H   0  0  0  0  0  0  0  0  0  0  0  0
    0.3921    2.0711   -4.9523 H   0  0  0  0  0  0  0  0  0  0  0  0
    2.6597    3.0006   -3.0680 H   0  0  0  0  0  0  0  0  0  0  0  0
    2.2446    3.7705   -4.5958 H   0  0  0  0  0  0  0  0  0  0  0  0
    2.8001    1.6420   -5.8283 H   0  0  0  0  0  0  0  0  0  0  0  0
    3.2121    0.8601   -4.3043 H   0  0  0  0  0  0  0  0  0  0  0  0
    4.6880    3.2460   -5.5668 H   0  0  0  0  0  0  0  0  0  0  0  0
    5.1840    1.5719   -5.6094 H   0  0  0  0  0  0  0  0  0  0  0  0
    6.9583    0.5085   -5.3875 H   0  0  0  0  0  0  0  0  0  0  0  0
    7.2706   -1.8546   -6.0596 H   0  0  0  0  0  0  0  0  0  0  0  0
    7.2462   -8.4767   -5.7585 H   0  0  0  0  0  0  0  0  0  0  0  0
    6.9496  -10.7803   -4.8310 H   0  0  0  0  0  0  0  0  0  0  0  0
    8.9136  -14.1318   -3.1572 H   0  0  0  0  0  0  0  0  0  0  0  0
   10.0689  -16.3547   -3.0786 H   0  0  0  0  0  0  0  0  0  0  0  0
    9.0050  -18.2457   -1.8312 H   0  0  0  0  0  0  0  0  0  0  0  0
    6.8670  -17.9383   -0.6917 H   0  0  0  0  0  0  0  0  0  0  0  0
    5.1930  -17.6320    0.2321 H   0  0  0  0  0  0  0  0  0  0  0  0
    3.0857  -17.2857    1.4259 H   0  0  0  0  0  0  0  0  0  0  0  0
    1.9654  -15.0414    1.3676 H   0  0  0  0  0  0  0  0  0  0  0  0
    2.9669  -13.2081    0.0987 H   0  0  0  0  0  0  0  0  0  0  0  0
    3.8132  -10.2836   -1.7509 H   0  0  0  0  0  0  0  0  0  0  0  0
    3.3691  -11.4054   -0.4769 H   0  0  0  0  0  0  0  0  0  0  0  0
    2.5244  -13.0168   -2.2916 H   0  0  0  0  0  0  0  0  0  0  0  0
    2.9725  -11.8151   -3.5053 H   0  0  0  0  0  0  0  0  0  0  0  0
    1.3700  -10.1664   -2.4507 H   0  0  0  0  0  0  0  0  0  0  0  0
    0.9257  -11.3726   -1.2442 H   0  0  0  0  0  0  0  0  0  0  0  0
    0.4777  -11.6668   -4.2895 H   0  0  0  0  0  0  0  0  0  0  0  0
   -0.7764  -11.3009   -3.0826 H   0  0  0  0  0  0  0  0  0  0  0  0
    0.0334  -12.8848   -3.0738 H   0  0  0  0  0  0  0  0  0  0  0  0
    5.5183   -9.0886   -1.1321 H   0  0  0  0  0  0  0  0  0  0  0  0
    5.7915   -6.8169   -2.0545 H   0  0  0  0  0  0  0  0  0  0  0  0
    5.6540   -3.1496   -2.2783 H   0  0  0  0  0  0  0  0  0  0  0  0
    5.3172   -0.7754   -1.6127 H   0  0  0  0  0  0  0  0  0  0  0  0
    6.8545    2.3742    0.7173 H   0  0  0  0  0  0  0  0  0  0  0  0
    7.1471    3.8555    2.7182 H   0  0  0  0  0  0  0  0  0  0  0  0
    6.5634    6.2829    2.5415 H   0  0  0  0  0  0  0  0  0  0  0  0
    5.7253    7.2120    0.4451 H   0  0  0  0  0  0  0  0  0  0  0  0
    5.1354    7.9076   -1.2538 H   0  0  0  0  0  0  0  0  0  0  0  0
    4.3863    8.8493   -3.3842 H   0  0  0  0  0  0  0  0  0  0  0  0
    4.1451    7.3612   -5.3922 H   0  0  0  0  0  0  0  0  0  0  0  0
    4.6217    4.9810   -5.2111 H   0  0  0  0  0  0  0  0  0  0  0  0
  1  2  1  0
  1 60  1  0
  1 61  1  0
  1 62  1  0
  2  3  1  0
  2 63  1  0
  2 64  1  0
  3  4  1  0
  3 65  1  0
  3 66  1  0
  4  5  1  0
  4 67  1  0
  4 68  1  0
  5  6  1  0
  5 59  1  0
  6  7  1  0
  6 45  2  0
  7  8  2  0
  7 44  1  0
  8  9  1  0
  8 69  1  0
  9 10  2  0
  9 70  1  0
 10 11  1  0
 10 43  1  0
 11 12  2  0
 11 42  1  0
 12 13  1  0
 13 14  2  0
 14 15  1  0
 14 42  1  0
 15 16  2  0
 15 41  1  0
 16 17  1  0
 16 71  1  0
 17 18  2  0
 17 72  1  0
 18 19  1  0
 18 40  1  0
 19 20  2  0
 19 35  1  0
 20 21  1  0
 21 22  2  0
 21 34  1  0
 22 23  1  0
 22 27  1  0
 23 24  2  0
 23 73  1  0
 24 25  1  0
 24 74  1  0
 25 26  2  0
 25 75  1  0
 26 27  1  0
 26 76  1  0
 27 28  2  0
 28 29  1  0
 28 33  1  0
 29 30  2  0
 29 77  1  0
 30 31  1  0
 30 78  1  0
 31 32  2  0
 31 79  1  0
 32 33  1  0
 32 80  1  0
 33 34  2  0
 34 35  1  0
 35 36  1  0
 36 37  1  0
 36 81  1  0
 36 82  1  0
 37 38  1  0
 37 83  1  0
 37 84  1  0
 38 39  1  0
 38 85  1  0
 38 86  1  0
 39 87  1  0
 39 88  1  0
 39 89  1  0
 40 41  2  0
 40 90  1  0
 41 91  1  0
 43 44  2  0
 43 92  1  0
 44 93  1  0
 45 46  1  0
 46 47  1  0
 46 59  2  0
 47 48  2  0
 47 52  1  0
 48 49  1  0
 48 94  1  0
 49 50  2  0
 49 95  1  0
 50 51  1  0
 50 96  1  0
 51 52  2  0
 51 97  1  0
 52 53  1  0
 53 54  1  0
 53 58  2  0
 54 55  2  0
 54 98  1  0
 55 56  1  0
 55 99  1  0
 56 57  2  0
 56100  1  0
 57 58  1  0
 57101  1  0
 58 59  1  0
M  END

