
     RDKit          3D

 35 37  0  0  0  0  0  0  0  0999 V2000
    1.9993    3.1753   -1.1182 C   0  0  0  0  0  0  0  0  0  0  0  0
    3.0212    2.1407   -1.2377 N   0  0  0  0  0  0  0  0  0  0  0  0
    2.7835    0.9051   -0.4989 C   0  0  0  0  0  0  0  0  0  0  0  0
    3.6899   -0.2463   -0.9652 C   0  0  0  0  0  0  0  0  0  0  0  0
    5.0382    0.2366   -1.0653 N   0  0  0  0  0  0  0  0  0  0  0  0
    6.1258   -0.1489   -0.0695 C   0  0  1  0  0  0  0  0  0  0  0  0
    6.2745    0.9447    1.0354 C   0  0  0  0  0  0  0  0  0  0  0  0
    5.5992    0.3596    2.2960 C   0  0  0  0  0  0  0  0  0  0  0  0
    5.5587   -1.1328    2.0356 C   0  0  0  0  0  0  0  0  0  0  0  0
    5.2699   -2.1475    2.9373 C   0  0  0  0  0  0  0  0  0  0  0  0
    5.2683   -3.5165    2.4493 C   0  0  0  0  0  0  0  0  0  0  0  0
    5.5735   -3.7503    1.1140 C   0  0  0  0  0  0  0  0  0  0  0  0
    5.5906   -5.0368    0.6826 F   0  0  0  0  0  0  0  0  0  0  0  0
    5.8642   -2.7574    0.1756 C   0  0  0  0  0  0  0  0  0  0  0  0
    5.8456   -1.3922    0.6820 C   0  0  0  0  0  0  0  0  0  0  0  0
    5.2276    1.2767   -2.0061 C   0  0  0  0  0  0  0  0  0  0  0  0
    4.1749    2.4267   -1.8974 C   0  0  0  0  0  0  0  0  0  0  0  0
    4.4324    3.4777   -2.4451 O   0  0  0  0  0  0  0  0  0  0  0  0
    1.0478    2.8266   -1.5517 H   0  0  0  0  0  0  0  0  0  0  0  0
    2.3390    4.0686   -1.6549 H   0  0  0  0  0  0  0  0  0  0  0  0
    1.8308    3.4281   -0.0584 H   0  0  0  0  0  0  0  0  0  0  0  0
    1.7355    0.6009   -0.6451 H   0  0  0  0  0  0  0  0  0  0  0  0
    2.9311    1.0749    0.5808 H   0  0  0  0  0  0  0  0  0  0  0  0
    3.3663   -0.5936   -1.9616 H   0  0  0  0  0  0  0  0  0  0  0  0
    3.6669   -1.0807   -0.2555 H   0  0  0  0  0  0  0  0  0  0  0  0
    7.0213   -0.1663   -0.7239 H   0  0  0  0  0  0  0  0  0  0  0  0
    5.8793    1.9314    0.7386 H   0  0  0  0  0  0  0  0  0  0  0  0
    7.3537    1.0807    1.2018 H   0  0  0  0  0  0  0  0  0  0  0  0
    4.5835    0.7744    2.4448 H   0  0  0  0  0  0  0  0  0  0  0  0
    6.1643    0.6190    3.2067 H   0  0  0  0  0  0  0  0  0  0  0  0
    5.0627   -1.9350    3.9875 H   0  0  0  0  0  0  0  0  0  0  0  0
    5.0480   -4.3617    3.1012 H   0  0  0  0  0  0  0  0  0  0  0  0
    6.1494   -3.0283   -0.8402 H   0  0  0  0  0  0  0  0  0  0  0  0
    5.1065    0.8965   -3.0390 H   0  0  0  0  0  0  0  0  0  0  0  0
    6.2294    1.7172   -1.9214 H   0  0  0  0  0  0  0  0  0  0  0  0
  1  2  1  0
  1 19  1  0
  1 20  1  0
  1 21  1  0
  2  3  1  0
  2 17  1  0
  3  4  1  0
  3 22  1  0
  3 23  1  0
  4  5  1  0
  4 24  1  0
  4 25  1  0
  5  6  1  0
  5 16  1  0
  6  7  1  0
  6 15  1  0
  6 26  1  6
  7  8  1  0
  7 27  1  0
  7 28  1  0
  8  9  1  0
  8 29  1  0
  8 30  1  0
  9 10  1  0
  9 15  2  0
 10 11  2  0
 10 31  1  0
 11 12  1  0
 11 32  1  0
 12 13  1  0
 12 14  2  0
 14 15  1  0
 14 33  1  0
 16 17  1  0
 16 34  1  0
 16 35  1  0
 17 18  2  0
M  END

