
     RDKit          3D

 43 44  0  0  0  0  0  0  0  0999 V2000
    1.1033    2.4800    0.2288 C   0  0  0  0  0  0  0  0  0  0  0  0
    2.3861    2.3316   -0.5655 C   0  0  0  0  0  0  0  0  0  0  0  0
    2.6602    3.1174   -1.4526 O   0  0  0  0  0  0  0  0  0  0  0  0
    3.3226    1.1723   -0.2046 C   0  0  1  0  0  0  0  0  0  0  0  0
    2.5887   -0.1787   -0.1506 C   0  0  0  0  0  0  0  0  0  0  0  0
    4.5336    1.1032   -1.1504 C   0  0  0  0  0  0  0  0  0  0  0  0
    5.3309    2.3107   -1.1688 N   0  0  0  0  0  0  0  0  0  0  0  0
    6.5885    2.3762   -0.6486 C   0  0  0  0  0  0  0  0  0  0  0  0
    7.1675    1.4085   -0.1739 O   0  0  0  0  0  0  0  0  0  0  0  0
    7.2568    3.7319   -0.7044 C   0  0  0  0  0  0  0  0  0  0  0  0
    6.5572    4.9381   -0.8702 C   0  0  0  0  0  0  0  0  0  0  0  0
    7.2396    6.1560   -0.8994 C   0  0  0  0  0  0  0  0  0  0  0  0
    8.6298    6.1580   -0.7673 C   0  0  0  0  0  0  0  0  0  0  0  0
    9.5132    7.7351   -0.7868 S   0  0  1  0  0  0  0  0  0  0  0  0
    8.5256    8.7869   -0.5008 O   0  0  0  0  0  0  0  0  0  0  0  0
   10.7261    7.5647    0.0267 O   0  0  0  0  0  0  0  0  0  0  0  0
   10.0445    7.9488   -2.5000 C   0  0  0  0  0  0  0  0  0  0  0  0
    9.1854    8.5736   -3.4088 C   0  0  0  0  0  0  0  0  0  0  0  0
    9.6114    8.7528   -4.7270 C   0  0  0  0  0  0  0  0  0  0  0  0
   10.8833    8.3202   -5.1188 C   0  0  0  0  0  0  0  0  0  0  0  0
   11.7391    7.7138   -4.1932 C   0  0  0  0  0  0  0  0  0  0  0  0
   11.3241    7.5276   -2.8719 C   0  0  0  0  0  0  0  0  0  0  0  0
    9.3431    4.9720   -0.5670 C   0  0  0  0  0  0  0  0  0  0  0  0
    8.6502    3.7632   -0.5355 C   0  0  0  0  0  0  0  0  0  0  0  0
    0.6978    3.4893    0.0798 H   0  0  0  0  0  0  0  0  0  0  0  0
    1.2603    2.2831    1.3009 H   0  0  0  0  0  0  0  0  0  0  0  0
    0.3597    1.7486   -0.1303 H   0  0  0  0  0  0  0  0  0  0  0  0
    3.6944    1.3998    0.8136 H   0  0  0  0  0  0  0  0  0  0  0  0
    2.1544   -0.4359   -1.1309 H   0  0  0  0  0  0  0  0  0  0  0  0
    1.7778   -0.1832    0.5922 H   0  0  0  0  0  0  0  0  0  0  0  0
    3.2916   -0.9804    0.1231 H   0  0  0  0  0  0  0  0  0  0  0  0
    4.1795    0.8808   -2.1719 H   0  0  0  0  0  0  0  0  0  0  0  0
    5.1974    0.2866   -0.8350 H   0  0  0  0  0  0  0  0  0  0  0  0
    4.8959    3.1220   -1.5897 H   0  0  0  0  0  0  0  0  0  0  0  0
    5.4672    4.9475   -0.9461 H   0  0  0  0  0  0  0  0  0  0  0  0
    6.7035    7.1012   -0.9991 H   0  0  0  0  0  0  0  0  0  0  0  0
    8.2080    8.9281   -3.0767 H   0  0  0  0  0  0  0  0  0  0  0  0
    8.9517    9.2406   -5.4488 H   0  0  0  0  0  0  0  0  0  0  0  0
   11.2130    8.4650   -6.1507 H   0  0  0  0  0  0  0  0  0  0  0  0
   12.7377    7.3915   -4.4984 H   0  0  0  0  0  0  0  0  0  0  0  0
   11.9834    7.0793   -2.1265 H   0  0  0  0  0  0  0  0  0  0  0  0
   10.4239    5.0053   -0.4184 H   0  0  0  0  0  0  0  0  0  0  0  0
    9.1682    2.8173   -0.3681 H   0  0  0  0  0  0  0  0  0  0  0  0
  1  2  1  0
  1 25  1  0
  1 26  1  0
  1 27  1  0
  2  3  2  0
  2  4  1  0
  4  5  1  0
  4  6  1  0
  4 28  1  1
  5 29  1  0
  5 30  1  0
  5 31  1  0
  6  7  1  0
  6 32  1  0
  6 33  1  0
  7  8  1  0
  7 34  1  0
  8  9  2  0
  8 10  1  0
 10 11  2  0
 10 24  1  0
 11 12  1  0
 11 35  1  0
 12 13  2  0
 12 36  1  0
 14 13  1  6
 13 23  1  0
 14 15  2  0
 14 16  2  0
 14 17  1  0
 17 18  2  0
 17 22  1  0
 18 19  1  0
 18 37  1  0
 19 20  2  0
 19 38  1  0
 20 21  1  0
 20 39  1  0
 21 22  2  0
 21 40  1  0
 22 41  1  0
 23 24  2  0
 23 42  1  0
 24 43  1  0
M  END

