
     RDKit          3D

 29 30  0  0  0  0  0  0  0  0999 V2000
    2.8201    1.2609    0.8650 N   0  0  0  0  0  0  0  0  0  0  0  0
    2.5161    0.0500    0.1097 C   0  0  1  0  0  0  0  0  0  0  0  0
    1.0139   -0.2807    0.0848 C   0  0  0  0  0  0  0  0  0  0  0  0
    0.4560   -0.3245    1.3846 O   0  0  0  0  0  0  0  0  0  0  0  0
    3.0935    0.1511   -1.3193 C   0  0  0  0  0  0  0  0  0  0  0  0
    4.5986    0.1030   -1.3882 C   0  0  0  0  0  0  0  0  0  0  0  0
    5.3360    1.3028   -1.3381 C   0  0  0  0  0  0  0  0  0  0  0  0
    6.7256    1.2759   -1.3838 C   0  0  0  0  0  0  0  0  0  0  0  0
    7.2739    0.0643   -1.4653 N   0  0  0  0  0  0  0  0  0  0  0  0
    6.7501   -1.1568   -1.5068 C   0  0  0  0  0  0  0  0  0  0  0  0
    7.4844   -2.3573   -1.5894 C   0  0  0  0  0  0  0  0  0  0  0  0
    6.8016   -3.5865   -1.6170 C   0  0  0  0  0  0  0  0  0  0  0  0
    5.4144   -3.6278   -1.5594 C   0  0  0  0  0  0  0  0  0  0  0  0
    4.6704   -2.4334   -1.4757 C   0  0  0  0  0  0  0  0  0  0  0  0
    5.2827   -1.1628   -1.4546 C   0  0  0  0  0  0  0  0  0  0  0  0
    2.3940    1.1816    1.7899 H   0  0  0  0  0  0  0  0  0  0  0  0
    2.3512    2.0567    0.4240 H   0  0  0  0  0  0  0  0  0  0  0  0
    3.0262   -0.7897    0.6211 H   0  0  0  0  0  0  0  0  0  0  0  0
    0.8362   -1.2262   -0.4677 H   0  0  0  0  0  0  0  0  0  0  0  0
    0.4719    0.5151   -0.4563 H   0  0  0  0  0  0  0  0  0  0  0  0
    0.8069   -1.1050    1.8342 H   0  0  0  0  0  0  0  0  0  0  0  0
    2.7347    1.0977   -1.7621 H   0  0  0  0  0  0  0  0  0  0  0  0
    2.6621   -0.6536   -1.9379 H   0  0  0  0  0  0  0  0  0  0  0  0
    4.8374    2.2689   -1.2504 H   0  0  0  0  0  0  0  0  0  0  0  0
    7.3743    2.1527   -1.3504 H   0  0  0  0  0  0  0  0  0  0  0  0
    8.5723   -2.3088   -1.6299 H   0  0  0  0  0  0  0  0  0  0  0  0
    7.3785   -4.5124   -1.6822 H   0  0  0  0  0  0  0  0  0  0  0  0
    4.8908   -4.5862   -1.5779 H   0  0  0  0  0  0  0  0  0  0  0  0
    3.5817   -2.4869   -1.4304 H   0  0  0  0  0  0  0  0  0  0  0  0
  1  2  1  0
  1 16  1  0
  1 17  1  0
  2  3  1  0
  2  5  1  0
  2 18  1  1
  3  4  1  0
  3 19  1  0
  3 20  1  0
  4 21  1  0
  5  6  1  0
  5 22  1  0
  5 23  1  0
  6  7  2  0
  6 15  1  0
  7  8  1  0
  7 24  1  0
  8  9  2  0
  8 25  1  0
  9 10  1  0
 10 11  1  0
 10 15  2  0
 11 12  2  0
 11 26  1  0
 12 13  1  0
 12 27  1  0
 13 14  2  0
 13 28  1  0
 14 15  1  0
 14 29  1  0
M  END

