
     RDKit          3D

 46 47  0  0  0  0  0  0  0  0999 V2000
    2.6649    2.6174    2.3721 C   0  0  0  0  0  0  0  0  0  0  0  0
    2.4911    1.5573    1.2851 C   0  0  0  0  0  0  0  0  0  0  0  0
    3.1258    0.1763    1.5950 C   0  0  2  0  0  0  0  0  0  0  0  0
    2.8595   -0.4895    0.7609 H   0  0  0  0  0  0  0  0  0  0  0  0
    2.5215   -0.4402    2.7665 N   0  0  0  0  0  0  0  0  0  0  0  0
    1.6783   -1.5092    2.6751 C   0  0  0  0  0  0  0  0  0  0  0  0
    1.3636   -2.0361    1.6178 O   0  0  0  0  0  0  0  0  0  0  0  0
    1.1424   -2.0648    4.0075 C   0  0  1  0  0  0  0  0  0  0  0  0
    0.1343   -2.4264    3.7539 H   0  0  0  0  0  0  0  0  0  0  0  0
    1.9851   -3.2710    4.4762 C   0  0  0  0  0  0  0  0  0  0  0  0
    3.3149   -2.8179    5.0867 C   0  0  0  0  0  0  0  0  0  0  0  0
    3.0951   -1.7577    6.1680 C   0  0  0  0  0  0  0  0  0  0  0  0
    2.3159   -0.6214    5.6680 N   0  0  0  0  0  0  0  0  0  0  0  0
    2.1943    0.4366    6.6560 C   0  0  0  0  0  0  0  0  0  0  0  0
    1.0125   -1.0446    5.1491 C   0  0  0  0  0  0  0  0  0  0  0  0
    4.6484    0.2412    1.6717 C   0  0  0  0  0  0  0  0  0  0  0  0
    5.3931    0.2635    0.4832 C   0  0  0  0  0  0  0  0  0  0  0  0
    6.7862    0.3612    0.5001 C   0  0  0  0  0  0  0  0  0  0  0  0
    7.4947    0.4386    1.7083 C   0  0  0  0  0  0  0  0  0  0  0  0
    8.9999    0.5518    1.7377 C   0  0  0  0  0  0  0  0  0  0  0  0
    6.7502    0.4104    2.8975 C   0  0  0  0  0  0  0  0  0  0  0  0
    5.3565    0.3134    2.8813 C   0  0  0  0  0  0  0  0  0  0  0  0
    2.1747    3.5601    2.0817 H   0  0  0  0  0  0  0  0  0  0  0  0
    3.7275    2.8392    2.5607 H   0  0  0  0  0  0  0  0  0  0  0  0
    2.2136    2.2962    3.3255 H   0  0  0  0  0  0  0  0  0  0  0  0
    2.9210    1.9253    0.3379 H   0  0  0  0  0  0  0  0  0  0  0  0
    1.4175    1.3884    1.0948 H   0  0  0  0  0  0  0  0  0  0  0  0
    2.7527   -0.1294    3.7120 H   0  0  0  0  0  0  0  0  0  0  0  0
    2.1466   -3.9594    3.6323 H   0  0  0  0  0  0  0  0  0  0  0  0
    1.4046   -3.8248    5.2360 H   0  0  0  0  0  0  0  0  0  0  0  0
    3.9704   -2.4068    4.3018 H   0  0  0  0  0  0  0  0  0  0  0  0
    3.8478   -3.6766    5.5273 H   0  0  0  0  0  0  0  0  0  0  0  0
    4.0633   -1.3788    6.5344 H   0  0  0  0  0  0  0  0  0  0  0  0
    2.5826   -2.2221    7.0438 H   0  0  0  0  0  0  0  0  0  0  0  0
    3.1929    0.7730    6.9756 H   0  0  0  0  0  0  0  0  0  0  0  0
    1.6364    0.1152    7.5640 H   0  0  0  0  0  0  0  0  0  0  0  0
    1.6648    1.3005    6.2242 H   0  0  0  0  0  0  0  0  0  0  0  0
    0.4691   -0.1503    4.8029 H   0  0  0  0  0  0  0  0  0  0  0  0
    0.3957   -1.4981    5.9594 H   0  0  0  0  0  0  0  0  0  0  0  0
    4.8734    0.1935   -0.4772 H   0  0  0  0  0  0  0  0  0  0  0  0
    7.3350    0.3685   -0.4463 H   0  0  0  0  0  0  0  0  0  0  0  0
    9.4332    0.4454    0.7322 H   0  0  0  0  0  0  0  0  0  0  0  0
    9.4502   -0.2208    2.3826 H   0  0  0  0  0  0  0  0  0  0  0  0
    9.3206    1.5294    2.1370 H   0  0  0  0  0  0  0  0  0  0  0  0
    7.2707    0.4626    3.8588 H   0  0  0  0  0  0  0  0  0  0  0  0
    4.8221    0.2877    3.8341 H   0  0  0  0  0  0  0  0  0  0  0  0
  1  2  1  0
  1 23  1  0
  1 24  1  0
  1 25  1  0
  2  3  1  0
  2 26  1  0
  2 27  1  0
  3  4  1  6
  3  5  1  0
  3 16  1  0
  5  6  1  0
  5 28  1  0
  6  7  2  0
  6  8  1  0
  8  9  1  6
  8 10  1  0
  8 15  1  0
 10 11  1  0
 10 29  1  0
 10 30  1  0
 11 12  1  0
 11 31  1  0
 11 32  1  0
 12 13  1  0
 12 33  1  0
 12 34  1  0
 13 14  1  0
 13 15  1  0
 14 35  1  0
 14 36  1  0
 14 37  1  0
 15 38  1  0
 15 39  1  0
 16 17  2  0
 16 22  1  0
 17 18  1  0
 17 40  1  0
 18 19  2  0
 18 41  1  0
 19 20  1  0
 19 21  1  0
 20 42  1  0
 20 43  1  0
 20 44  1  0
 21 22  2  0
 21 45  1  0
 22 46  1  0
M  END

