
     RDKit          3D

 65 68  0  0  0  0  0  0  0  0999 V2000
    6.6956   -0.9488   -9.8179 C   0  0  0  0  0  0  0  0  0  0  0  0
    5.9557   -0.2446   -8.8331 O   0  0  0  0  0  0  0  0  0  0  0  0
    5.0117   -0.9425   -8.1318 C   0  0  0  0  0  0  0  0  0  0  0  0
    5.1360   -1.0259   -6.7439 C   0  0  0  0  0  0  0  0  0  0  0  0
    4.1766   -1.6707   -5.9477 C   0  0  0  0  0  0  0  0  0  0  0  0
    4.3424   -1.7640   -4.4281 C   0  0  2  0  0  0  0  0  0  0  0  0
    3.3913   -2.1504   -4.0320 H   0  0  0  0  0  0  0  0  0  0  0  0
    4.6213   -0.4034   -3.7857 C   0  0  0  0  0  0  0  0  0  0  0  0
    3.5229    0.4873   -3.6067 C   0  0  0  0  0  0  0  0  0  0  0  0
    2.5824    1.1593   -3.4717 N   0  0  0  0  0  0  0  0  0  0  0  0
    5.8935   -0.0541   -3.4265 C   0  0  0  0  0  0  0  0  0  0  0  0
    6.2896    1.6120   -2.9503 S   0  0  0  0  0  0  0  0  0  0  0  0
    7.3261    1.3619   -1.4447 C   0  0  0  0  0  0  0  0  0  0  0  0
    8.8102    1.1944   -1.7597 C   0  0  0  0  0  0  0  0  0  0  0  0
    9.2229    0.2377   -2.4095 O   0  0  0  0  0  0  0  0  0  0  0  0
    9.6206    2.1750   -1.2810 N   0  0  0  0  0  0  0  0  0  0  0  0
   11.0435    2.2317   -1.4227 C   0  0  0  0  0  0  0  0  0  0  0  0
   11.6345    2.3261   -2.6973 C   0  0  0  0  0  0  0  0  0  0  0  0
   10.8130    2.3609   -3.9593 C   0  0  0  0  0  0  0  0  0  0  0  0
   13.0347    2.3961   -2.7658 C   0  0  0  0  0  0  0  0  0  0  0  0
   13.8430    2.3930   -1.6250 C   0  0  0  0  0  0  0  0  0  0  0  0
   15.3471    2.4652   -1.7259 C   0  0  0  0  0  0  0  0  0  0  0  0
   13.2157    2.3211   -0.3720 C   0  0  0  0  0  0  0  0  0  0  0  0
   11.8267    2.2362   -0.2475 C   0  0  0  0  0  0  0  0  0  0  0  0
   11.1787    2.1518    1.1134 C   0  0  0  0  0  0  0  0  0  0  0  0
    6.9208   -0.9734   -3.4613 N   0  0  0  0  0  0  0  0  0  0  0  0
    6.6716   -2.3178   -3.6360 C   0  0  0  0  0  0  0  0  0  0  0  0
    5.4358   -2.7475   -4.0312 C   0  0  0  0  0  0  0  0  0  0  0  0
    5.1233   -4.1827   -4.1151 C   0  0  0  0  0  0  0  0  0  0  0  0
    4.0000   -4.5809   -4.3876 O   0  0  0  0  0  0  0  0  0  0  0  0
    6.2687   -5.1644   -3.8808 C   0  0  0  0  0  0  0  0  0  0  0  0
    7.3317   -4.6306   -2.9197 C   0  0  0  0  0  0  0  0  0  0  0  0
    7.8248   -3.2499   -3.3603 C   0  0  0  0  0  0  0  0  0  0  0  0
    3.0762   -2.2564   -6.5834 C   0  0  0  0  0  0  0  0  0  0  0  0
    2.9346   -2.1804   -7.9711 C   0  0  0  0  0  0  0  0  0  0  0  0
    3.8839   -1.5204   -8.7576 C   0  0  0  0  0  0  0  0  0  0  0  0
    3.7635   -1.3982  -10.1094 O   0  0  0  0  0  0  0  0  0  0  0  0
    7.4434   -0.2455  -10.2115 H   0  0  0  0  0  0  0  0  0  0  0  0
    6.0568   -1.2975  -10.6444 H   0  0  0  0  0  0  0  0  0  0  0  0
    7.2216   -1.8167   -9.3779 H   0  0  0  0  0  0  0  0  0  0  0  0
    6.0138   -0.5507   -6.3003 H   0  0  0  0  0  0  0  0  0  0  0  0
    6.9690    0.4669   -0.9149 H   0  0  0  0  0  0  0  0  0  0  0  0
    7.1244    2.2355   -0.8079 H   0  0  0  0  0  0  0  0  0  0  0  0
    9.1917    2.8719   -0.6812 H   0  0  0  0  0  0  0  0  0  0  0  0
    9.9015    2.9656   -3.8342 H   0  0  0  0  0  0  0  0  0  0  0  0
   10.4814    1.3476   -4.2359 H   0  0  0  0  0  0  0  0  0  0  0  0
   11.3931    2.7785   -4.7945 H   0  0  0  0  0  0  0  0  0  0  0  0
   13.5039    2.4682   -3.7513 H   0  0  0  0  0  0  0  0  0  0  0  0
   15.6786    2.5819   -2.7680 H   0  0  0  0  0  0  0  0  0  0  0  0
   15.8168    1.5510   -1.3251 H   0  0  0  0  0  0  0  0  0  0  0  0
   15.7483    3.3123   -1.1455 H   0  0  0  0  0  0  0  0  0  0  0  0
   13.8269    2.3228    0.5356 H   0  0  0  0  0  0  0  0  0  0  0  0
   11.9358    2.0666    1.9055 H   0  0  0  0  0  0  0  0  0  0  0  0
   10.5063    1.2818    1.1910 H   0  0  0  0  0  0  0  0  0  0  0  0
   10.5728    3.0476    1.3411 H   0  0  0  0  0  0  0  0  0  0  0  0
    7.8619   -0.6572   -3.1851 H   0  0  0  0  0  0  0  0  0  0  0  0
    6.7213   -5.3654   -4.8707 H   0  0  0  0  0  0  0  0  0  0  0  0
    5.8307   -6.1134   -3.5378 H   0  0  0  0  0  0  0  0  0  0  0  0
    8.1804   -5.3297   -2.8507 H   0  0  0  0  0  0  0  0  0  0  0  0
    6.9017   -4.5523   -1.9060 H   0  0  0  0  0  0  0  0  0  0  0  0
    8.4309   -3.3414   -4.2819 H   0  0  0  0  0  0  0  0  0  0  0  0
    8.4884   -2.8026   -2.6023 H   0  0  0  0  0  0  0  0  0  0  0  0
    2.3298   -2.7890   -5.9912 H   0  0  0  0  0  0  0  0  0  0  0  0
    2.0640   -2.6330   -8.4579 H   0  0  0  0  0  0  0  0  0  0  0  0
    2.9415   -1.8205  -10.3915 H   0  0  0  0  0  0  0  0  0  0  0  0
  1  2  1  0
  1 38  1  0
  1 39  1  0
  1 40  1  0
  2  3  1  0
  3  4  2  0
  3 36  1  0
  4  5  1  0
  4 41  1  0
  5  6  1  0
  5 34  2  0
  6  7  1  1
  6  8  1  0
  6 28  1  0
  8  9  1  0
  8 11  2  0
  9 10  3  0
 11 12  1  0
 11 26  1  0
 12 13  1  0
 13 14  1  0
 13 42  1  0
 13 43  1  0
 14 15  2  0
 14 16  1  0
 16 17  1  0
 16 44  1  0
 17 18  2  0
 17 24  1  0
 18 19  1  0
 18 20  1  0
 19 45  1  0
 19 46  1  0
 19 47  1  0
 20 21  2  0
 20 48  1  0
 21 22  1  0
 21 23  1  0
 22 49  1  0
 22 50  1  0
 22 51  1  0
 23 24  2  0
 23 52  1  0
 24 25  1  0
 25 53  1  0
 25 54  1  0
 25 55  1  0
 26 27  1  0
 26 56  1  0
 27 28  2  0
 27 33  1  0
 28 29  1  0
 29 30  2  0
 29 31  1  0
 31 32  1  0
 31 57  1  0
 31 58  1  0
 32 33  1  0
 32 59  1  0
 32 60  1  0
 33 61  1  0
 33 62  1  0
 34 35  1  0
 34 63  1  0
 35 36  2  0
 35 64  1  0
 36 37  1  0
 37 65  1  0
M  END

