
     RDKit          3D

 27 27  0  0  0  0  0  0  0  0999 V2000
    5.1207   -2.2460    0.8611 C   0  0  0  0  0  0  0  0  0  0  0  0
    4.3075   -1.0303    0.5009 C   0  0  0  0  0  0  0  0  0  0  0  0
    4.8778    0.2495    0.5424 C   0  0  0  0  0  0  0  0  0  0  0  0
    4.1116    1.3585    0.1896 C   0  0  0  0  0  0  0  0  0  0  0  0
    2.8386    1.2629   -0.1975 N   0  0  0  0  0  0  0  0  0  0  0  0
    2.2956    0.0641   -0.2312 C   0  0  0  0  0  0  0  0  0  0  0  0
    0.6152    0.0192   -0.7806 Cl  0  0  0  0  0  0  0  0  0  0  0  0
    2.9523   -1.1336    0.1109 C   0  0  0  0  0  0  0  0  0  0  0  0
    2.3163   -2.5070    0.0006 C   0  0  0  0  0  0  0  0  0  0  0  0
    2.8281   -3.3759   -0.6891 O   0  0  0  0  0  0  0  0  0  0  0  0
    1.2057   -2.7043    0.7625 N   0  0  0  0  0  0  0  0  0  0  0  0
    0.4058   -3.9277    0.6977 C   0  0  1  0  0  0  0  0  0  0  0  0
   -0.0123   -4.3557    2.1063 C   0  0  0  0  0  0  0  0  0  0  0  0
   -0.7928   -3.7583   -0.2444 C   0  0  0  0  0  0  0  0  0  0  0  0
    6.1273   -1.9616    1.1983 H   0  0  0  0  0  0  0  0  0  0  0  0
    5.1994   -2.9217   -0.0025 H   0  0  0  0  0  0  0  0  0  0  0  0
    4.6349   -2.8243    1.6636 H   0  0  0  0  0  0  0  0  0  0  0  0
    5.9189    0.3775    0.8471 H   0  0  0  0  0  0  0  0  0  0  0  0
    4.5404    2.3666    0.2165 H   0  0  0  0  0  0  0  0  0  0  0  0
    0.7823   -1.8907    1.1967 H   0  0  0  0  0  0  0  0  0  0  0  0
    1.0804   -4.6849    0.2717 H   0  0  0  0  0  0  0  0  0  0  0  0
   -0.6614   -3.5971    2.5775 H   0  0  0  0  0  0  0  0  0  0  0  0
    0.8665   -4.5024    2.7527 H   0  0  0  0  0  0  0  0  0  0  0  0
   -0.5782   -5.2997    2.0734 H   0  0  0  0  0  0  0  0  0  0  0  0
   -1.4799   -2.9767    0.1220 H   0  0  0  0  0  0  0  0  0  0  0  0
   -1.3625   -4.6982   -0.3223 H   0  0  0  0  0  0  0  0  0  0  0  0
   -0.4589   -3.4740   -1.2533 H   0  0  0  0  0  0  0  0  0  0  0  0
  1  2  1  0
  1 15  1  0
  1 16  1  0
  1 17  1  0
  2  3  2  0
  2  8  1  0
  3  4  1  0
  3 18  1  0
  4  5  2  0
  4 19  1  0
  5  6  1  0
  6  7  1  0
  6  8  2  0
  8  9  1  0
  9 10  2  0
  9 11  1  0
 11 12  1  0
 11 20  1  0
 12 13  1  0
 12 14  1  0
 12 21  1  6
 13 22  1  0
 13 23  1  0
 13 24  1  0
 14 25  1  0
 14 26  1  0
 14 27  1  0
M  END

