
     RDKit          3D

 76 79  0  0  0  0  0  0  0  0999 V2000
    4.6635   -3.4241   -2.9859 C   0  0  0  0  0  0  0  0  0  0  0  0
    3.9889   -3.5034   -4.2066 O   0  0  0  0  0  0  0  0  0  0  0  0
    2.7681   -4.1406   -4.2615 C   0  0  0  0  0  0  0  0  0  0  0  0
    2.1355   -4.1474   -5.5056 C   0  0  0  0  0  0  0  0  0  0  0  0
    0.8853   -4.7739   -5.6388 C   0  0  0  0  0  0  0  0  0  0  0  0
    0.2353   -5.4033   -4.5560 C   0  0  0  0  0  0  0  0  0  0  0  0
   -0.9908   -5.9837   -4.7662 N   0  0  0  0  0  0  0  0  0  0  0  0
   -1.5939   -6.5496   -3.7141 C   0  0  0  0  0  0  0  0  0  0  0  0
   -1.0568   -6.6194   -2.4354 C   0  0  0  0  0  0  0  0  0  0  0  0
    0.2251   -6.0486   -2.1827 C   0  0  0  0  0  0  0  0  0  0  0  0
    0.8809   -6.1354   -0.8370 C   0  0  1  0  0  0  0  0  0  0  0  0
   -0.0933   -6.3628    0.1889 F   0  0  0  0  0  0  0  0  0  0  0  0
    1.9645   -7.2114   -0.6789 C   0  0  0  0  0  0  0  0  0  0  0  0
    1.5474   -8.6817   -0.8982 C   0  0  0  0  0  0  0  0  0  0  0  0
    1.3267   -9.5147    0.3814 C   0  0  2  0  0  0  0  0  0  0  0  0
    2.2128   -9.3347    1.0197 H   0  0  0  0  0  0  0  0  0  0  0  0
    1.2952  -11.0247    0.0880 C   0  0  0  0  0  0  0  0  0  0  0  0
    1.2235  -11.8615    1.3806 C   0  0  0  0  0  0  0  0  0  0  0  0
    0.1598  -11.3906    2.2516 N   0  0  0  0  0  0  0  0  0  0  0  0
   -0.8779  -12.2788    2.7251 C   0  0  0  0  0  0  0  0  0  0  0  0
   -0.5299  -12.9469    4.0859 C   0  0  0  0  0  0  0  0  0  0  0  0
   -0.6517  -12.0513    5.3238 C   0  0  0  0  0  0  0  0  0  0  0  0
   -2.1055  -11.7015    5.6986 C   0  0  0  0  0  0  0  0  0  0  0  0
   -2.2205  -10.7647    6.8807 C   0  0  0  0  0  0  0  0  0  0  0  0
   -2.7054   -9.4532    6.7467 C   0  0  0  0  0  0  0  0  0  0  0  0
   -2.7983   -8.6034    7.8524 C   0  0  0  0  0  0  0  0  0  0  0  0
   -2.4086   -9.0443    9.1202 C   0  0  0  0  0  0  0  0  0  0  0  0
   -1.9301  -10.3427    9.2653 C   0  0  0  0  0  0  0  0  0  0  0  0
   -1.5527  -10.8011   10.4615 F   0  0  0  0  0  0  0  0  0  0  0  0
   -1.8406  -11.1893    8.1577 C   0  0  0  0  0  0  0  0  0  0  0  0
   -1.3800  -12.4399    8.3363 F   0  0  0  0  0  0  0  0  0  0  0  0
    0.1486   -9.9654    2.5537 C   0  0  0  0  0  0  0  0  0  0  0  0
    0.0961   -9.1322    1.2485 C   0  0  2  0  0  0  0  0  0  0  0  0
    0.2155   -8.0841    1.5485 H   0  0  0  0  0  0  0  0  0  0  0  0
   -1.2610   -9.2646    0.5130 C   0  0  0  0  0  0  0  0  0  0  0  0
   -2.3645   -8.3036    0.9677 C   0  0  0  0  0  0  0  0  0  0  0  0
   -3.0363   -8.6143    2.2896 C   0  0  0  0  0  0  0  0  0  0  0  0
   -2.9007   -9.6451    2.9151 O   0  0  0  0  0  0  0  0  0  0  0  0
   -3.8517   -7.6646    2.7672 O   0  0  0  0  0  0  0  0  0  0  0  0
    0.8976   -5.4023   -3.2619 C   0  0  0  0  0  0  0  0  0  0  0  0
    2.1706   -4.7634   -3.1518 C   0  0  0  0  0  0  0  0  0  0  0  0
    5.5930   -2.8640   -3.1684 H   0  0  0  0  0  0  0  0  0  0  0  0
    4.9306   -4.4207   -2.5820 H   0  0  0  0  0  0  0  0  0  0  0  0
    4.0786   -2.8901   -2.2118 H   0  0  0  0  0  0  0  0  0  0  0  0
    2.6285   -3.6633   -6.3503 H   0  0  0  0  0  0  0  0  0  0  0  0
    0.3661   -4.7881   -6.5989 H   0  0  0  0  0  0  0  0  0  0  0  0
   -2.5889   -6.9787   -3.9017 H   0  0  0  0  0  0  0  0  0  0  0  0
   -1.6425   -7.0534   -1.6261 H   0  0  0  0  0  0  0  0  0  0  0  0
    1.3442   -5.1674   -0.5729 H   0  0  0  0  0  0  0  0  0  0  0  0
    2.4538   -7.0951    0.3065 H   0  0  0  0  0  0  0  0  0  0  0  0
    2.7325   -6.9558   -1.4245 H   0  0  0  0  0  0  0  0  0  0  0  0
    2.3514   -9.1865   -1.4582 H   0  0  0  0  0  0  0  0  0  0  0  0
    0.6715   -8.7225   -1.5645 H   0  0  0  0  0  0  0  0  0  0  0  0
    2.1982  -11.3403   -0.4540 H   0  0  0  0  0  0  0  0  0  0  0  0
    0.4390  -11.2777   -0.5581 H   0  0  0  0  0  0  0  0  0  0  0  0
    2.1671  -11.7505    1.9433 H   0  0  0  0  0  0  0  0  0  0  0  0
    1.0733  -12.9299    1.1786 H   0  0  0  0  0  0  0  0  0  0  0  0
   -1.0075  -13.0634    1.9664 H   0  0  0  0  0  0  0  0  0  0  0  0
   -1.8020  -11.6909    2.8077 H   0  0  0  0  0  0  0  0  0  0  0  0
    0.4829  -13.3767    4.0167 H   0  0  0  0  0  0  0  0  0  0  0  0
   -1.2189  -13.8010    4.1790 H   0  0  0  0  0  0  0  0  0  0  0  0
   -0.0642  -11.1257    5.1970 H   0  0  0  0  0  0  0  0  0  0  0  0
   -0.1862  -12.5829    6.1679 H   0  0  0  0  0  0  0  0  0  0  0  0
   -2.6398  -12.6415    5.9228 H   0  0  0  0  0  0  0  0  0  0  0  0
   -2.6227  -11.2328    4.8484 H   0  0  0  0  0  0  0  0  0  0  0  0
   -3.0224   -9.1080    5.7594 H   0  0  0  0  0  0  0  0  0  0  0  0
   -3.1817   -7.5883    7.7290 H   0  0  0  0  0  0  0  0  0  0  0  0
   -2.4705   -8.4046   10.0026 H   0  0  0  0  0  0  0  0  0  0  0  0
    1.0878   -9.7479    3.0893 H   0  0  0  0  0  0  0  0  0  0  0  0
   -0.6994   -9.7582    3.2094 H   0  0  0  0  0  0  0  0  0  0  0  0
   -1.6483  -10.2955    0.5519 H   0  0  0  0  0  0  0  0  0  0  0  0
   -1.0881   -9.0465   -0.5468 H   0  0  0  0  0  0  0  0  0  0  0  0
   -3.1700   -8.2993    0.2110 H   0  0  0  0  0  0  0  0  0  0  0  0
   -1.9733   -7.2736    0.9784 H   0  0  0  0  0  0  0  0  0  0  0  0
   -3.8633   -6.8899    2.1839 H   0  0  0  0  0  0  0  0  0  0  0  0
    2.6766   -4.7358   -2.1885 H   0  0  0  0  0  0  0  0  0  0  0  0
  1  2  1  0
  1 42  1  0
  1 43  1  0
  1 44  1  0
  2  3  1  0
  3  4  2  0
  3 41  1  0
  4  5  1  0
  4 45  1  0
  5  6  2  0
  5 46  1  0
  6  7  1  0
  6 40  1  0
  7  8  2  0
  8  9  1  0
  8 47  1  0
  9 10  2  0
  9 48  1  0
 10 11  1  0
 10 40  1  0
 11 12  1  0
 11 13  1  0
 11 49  1  1
 13 14  1  0
 13 50  1  0
 13 51  1  0
 14 15  1  0
 14 52  1  0
 14 53  1  0
 15 16  1  1
 15 17  1  0
 15 33  1  0
 17 18  1  0
 17 54  1  0
 17 55  1  0
 18 19  1  0
 18 56  1  0
 18 57  1  0
 19 20  1  0
 19 32  1  0
 20 21  1  0
 20 58  1  0
 20 59  1  0
 21 22  1  0
 21 60  1  0
 21 61  1  0
 22 23  1  0
 22 62  1  0
 22 63  1  0
 23 24  1  0
 23 64  1  0
 23 65  1  0
 24 25  2  0
 24 30  1  0
 25 26  1  0
 25 66  1  0
 26 27  2  0
 26 67  1  0
 27 28  1  0
 27 68  1  0
 28 29  1  0
 28 30  2  0
 30 31  1  0
 32 33  1  0
 32 69  1  0
 32 70  1  0
 33 34  1  1
 33 35  1  0
 35 36  1  0
 35 71  1  0
 35 72  1  0
 36 37  1  0
 36 73  1  0
 36 74  1  0
 37 38  2  0
 37 39  1  0
 39 75  1  0
 40 41  2  0
 41 76  1  0
M  END

