
     RDKit          3D

 42 45  0  0  0  0  0  0  0  0999 V2000
    3.7934    2.2992   -1.5903 C   0  0  0  0  0  0  0  0  0  0  0  0
    3.6186    0.9962   -0.8466 C   0  0  0  0  0  0  0  0  0  0  0  0
    2.4253    0.6934   -0.1833 C   0  0  0  0  0  0  0  0  0  0  0  0
    2.2573   -0.5171    0.5087 C   0  0  0  0  0  0  0  0  0  0  0  0
    0.9647   -0.8376    1.2213 C   0  0  0  0  0  0  0  0  0  0  0  0
    3.3190   -1.4274    0.5249 C   0  0  0  0  0  0  0  0  0  0  0  0
    4.5331   -1.1570   -0.1287 C   0  0  0  0  0  0  0  0  0  0  0  0
    5.6642   -2.2007   -0.0639 C   0  0  2  0  0  0  0  0  0  0  0  0
    6.9316   -1.7786   -0.8412 C   0  0  0  0  0  0  0  0  0  0  0  0
    5.2005   -3.5769   -0.5609 C   0  0  0  0  0  0  0  0  0  0  0  0
    4.7004   -3.9128   -1.8156 C   0  0  0  0  0  0  0  0  0  0  0  0
    4.3749   -5.2529   -2.0624 C   0  0  0  0  0  0  0  0  0  0  0  0
    3.6838   -5.7437   -3.7726 Br  0  0  0  0  0  0  0  0  0  0  0  0
    4.5410   -6.2420   -1.0845 C   0  0  0  0  0  0  0  0  0  0  0  0
    5.0402   -5.8942    0.1739 C   0  0  0  0  0  0  0  0  0  0  0  0
    5.3692   -4.5601    0.4364 C   0  0  0  0  0  0  0  0  0  0  0  0
    5.8939   -3.9126    1.6453 C   0  0  0  0  0  0  0  0  0  0  0  0
    6.2222   -4.4327    2.9018 C   0  0  0  0  0  0  0  0  0  0  0  0
    6.6983   -3.5730    3.8959 C   0  0  0  0  0  0  0  0  0  0  0  0
    6.8381   -2.2062    3.6229 C   0  0  0  0  0  0  0  0  0  0  0  0
    7.4818   -1.0455    4.9947 Br  0  0  0  0  0  0  0  0  0  0  0  0
    6.5148   -1.6701    2.3696 C   0  0  0  0  0  0  0  0  0  0  0  0
    6.0457   -2.5348    1.3851 C   0  0  0  0  0  0  0  0  0  0  0  0
    4.6656    0.0584   -0.8101 C   0  0  0  0  0  0  0  0  0  0  0  0
    2.8943    2.9288   -1.5209 H   0  0  0  0  0  0  0  0  0  0  0  0
    4.0008    2.1262   -2.6598 H   0  0  0  0  0  0  0  0  0  0  0  0
    4.6417    2.8793   -1.1898 H   0  0  0  0  0  0  0  0  0  0  0  0
    1.6034    1.4155   -0.2044 H   0  0  0  0  0  0  0  0  0  0  0  0
    0.2349   -0.0201    1.1258 H   0  0  0  0  0  0  0  0  0  0  0  0
    1.1339   -1.0142    2.2966 H   0  0  0  0  0  0  0  0  0  0  0  0
    0.5007   -1.7521    0.8155 H   0  0  0  0  0  0  0  0  0  0  0  0
    3.1990   -2.3725    1.0621 H   0  0  0  0  0  0  0  0  0  0  0  0
    6.7116   -1.6251   -1.9083 H   0  0  0  0  0  0  0  0  0  0  0  0
    7.6983   -2.5629   -0.7620 H   0  0  0  0  0  0  0  0  0  0  0  0
    7.3565   -0.8472   -0.4376 H   0  0  0  0  0  0  0  0  0  0  0  0
    4.5538   -3.1576   -2.5901 H   0  0  0  0  0  0  0  0  0  0  0  0
    4.2773   -7.2768   -1.3085 H   0  0  0  0  0  0  0  0  0  0  0  0
    5.1664   -6.6658    0.9375 H   0  0  0  0  0  0  0  0  0  0  0  0
    6.1105   -5.4983    3.1169 H   0  0  0  0  0  0  0  0  0  0  0  0
    6.9584   -3.9588    4.8828 H   0  0  0  0  0  0  0  0  0  0  0  0
    6.6212   -0.6001    2.1816 H   0  0  0  0  0  0  0  0  0  0  0  0
    5.5941    0.3021   -1.3288 H   0  0  0  0  0  0  0  0  0  0  0  0
  1  2  1  0
  1 25  1  0
  1 26  1  0
  1 27  1  0
  2  3  2  0
  2 24  1  0
  3  4  1  0
  3 28  1  0
  4  5  1  0
  4  6  2  0
  5 29  1  0
  5 30  1  0
  5 31  1  0
  6  7  1  0
  6 32  1  0
  7  8  1  0
  7 24  2  0
  8  9  1  6
  8 10  1  0
  8 23  1  0
  9 33  1  0
  9 34  1  0
  9 35  1  0
 10 11  2  0
 10 16  1  0
 11 12  1  0
 11 36  1  0
 12 13  1  0
 12 14  2  0
 14 15  1  0
 14 37  1  0
 15 16  2  0
 15 38  1  0
 16 17  1  0
 17 18  2  0
 17 23  1  0
 18 19  1  0
 18 39  1  0
 19 20  2  0
 19 40  1  0
 20 21  1  0
 20 22  1  0
 22 23  2  0
 22 41  1  0
 24 42  1  0
M  END

