
     RDKit          3D

 49 52  0  0  0  0  0  0  0  0999 V2000
    1.0497    0.1765    0.1249 C   0  0  0  0  0  0  0  0  0  0  0  0
    2.5442    0.0777   -0.0302 C   0  0  0  0  0  0  0  0  0  0  0  0
    3.3500    1.2090   -0.0959 C   0  0  0  0  0  0  0  0  0  0  0  0
    4.7416    0.9936   -0.2635 C   0  0  0  0  0  0  0  0  0  0  0  0
    5.5685    2.0903   -0.3418 N   0  0  0  0  0  0  0  0  0  0  0  0
    6.9537    2.2096   -0.5374 C   0  0  0  0  0  0  0  0  0  0  0  0
    7.5493    3.4509   -0.2449 C   0  0  0  0  0  0  0  0  0  0  0  0
    8.9089    3.6826   -0.4357 C   0  0  0  0  0  0  0  0  0  0  0  0
    9.7296    2.6532   -0.9295 C   0  0  0  0  0  0  0  0  0  0  0  0
   11.1147    2.7965   -1.1468 N   0  0  0  0  0  0  0  0  0  0  0  0
   11.9174    3.8932   -0.9351 C   0  0  0  0  0  0  0  0  0  0  0  0
   11.5143    4.9630   -0.5045 O   0  0  0  0  0  0  0  0  0  0  0  0
   13.3624    3.6711   -1.2820 C   0  0  1  0  0  0  0  0  0  0  0  0
   14.1305    4.8576   -1.8349 C   0  0  0  0  0  0  0  0  0  0  0  0
   14.3945    4.3981   -0.4398 C   0  0  0  0  0  0  0  0  0  0  0  0
    9.1383    1.4134   -1.2248 C   0  0  0  0  0  0  0  0  0  0  0  0
    7.7767    1.1851   -1.0383 C   0  0  0  0  0  0  0  0  0  0  0  0
    5.2486   -0.2352   -0.3434 N   0  0  0  0  0  0  0  0  0  0  0  0
    4.3851   -1.2658   -0.2399 C   0  0  0  0  0  0  0  0  0  0  0  0
    4.9163   -2.5326   -0.2662 N   0  0  0  0  0  0  0  0  0  0  0  0
    6.3355   -2.7869   -0.4605 C   0  0  0  0  0  0  0  0  0  0  0  0
    6.7879   -3.9218    0.4587 C   0  0  0  0  0  0  0  0  0  0  0  0
    5.9887   -5.0761    0.3027 O   0  0  0  0  0  0  0  0  0  0  0  0
    4.6284   -4.8057    0.5813 C   0  0  0  0  0  0  0  0  0  0  0  0
    4.0734   -3.7191   -0.3358 C   0  0  0  0  0  0  0  0  0  0  0  0
    3.0551   -1.1602   -0.1022 N   0  0  0  0  0  0  0  0  0  0  0  0
    0.7023    1.2187    0.1580 H   0  0  0  0  0  0  0  0  0  0  0  0
    0.7334   -0.3356    1.0479 H   0  0  0  0  0  0  0  0  0  0  0  0
    0.5520   -0.3412   -0.7106 H   0  0  0  0  0  0  0  0  0  0  0  0
    2.9302    2.2147   -0.0383 H   0  0  0  0  0  0  0  0  0  0  0  0
    5.0967    2.9721   -0.1845 H   0  0  0  0  0  0  0  0  0  0  0  0
    6.9298    4.2636    0.1475 H   0  0  0  0  0  0  0  0  0  0  0  0
    9.3482    4.6496   -0.2025 H   0  0  0  0  0  0  0  0  0  0  0  0
   11.5771    1.9711   -1.5080 H   0  0  0  0  0  0  0  0  0  0  0  0
   13.6342    2.6804   -1.6594 H   0  0  0  0  0  0  0  0  0  0  0  0
   13.5551    5.7785   -1.9600 H   0  0  0  0  0  0  0  0  0  0  0  0
   14.8741    4.6556   -2.6106 H   0  0  0  0  0  0  0  0  0  0  0  0
   13.9971    5.0098    0.3743 H   0  0  0  0  0  0  0  0  0  0  0  0
   15.3262    3.8691   -0.2219 H   0  0  0  0  0  0  0  0  0  0  0  0
    9.7579    0.6007   -1.6174 H   0  0  0  0  0  0  0  0  0  0  0  0
    7.3407    0.2197   -1.2789 H   0  0  0  0  0  0  0  0  0  0  0  0
    6.8961   -1.8705   -0.2426 H   0  0  0  0  0  0  0  0  0  0  0  0
    6.5315   -3.0711   -1.5144 H   0  0  0  0  0  0  0  0  0  0  0  0
    6.7554   -3.5725    1.5120 H   0  0  0  0  0  0  0  0  0  0  0  0
    7.8235   -4.2124    0.2234 H   0  0  0  0  0  0  0  0  0  0  0  0
    4.5098   -4.4916    1.6394 H   0  0  0  0  0  0  0  0  0  0  0  0
    4.0770   -5.7474    0.4363 H   0  0  0  0  0  0  0  0  0  0  0  0
    3.0523   -3.4388   -0.0518 H   0  0  0  0  0  0  0  0  0  0  0  0
    4.0506   -4.1019   -1.3762 H   0  0  0  0  0  0  0  0  0  0  0  0
  1  2  1  0
  1 27  1  0
  1 28  1  0
  1 29  1  0
  2  3  2  0
  2 26  1  0
  3  4  1  0
  3 30  1  0
  4  5  1  0
  4 18  2  0
  5  6  1  0
  5 31  1  0
  6  7  2  0
  6 17  1  0
  7  8  1  0
  7 32  1  0
  8  9  2  0
  8 33  1  0
  9 10  1  0
  9 16  1  0
 10 11  1  0
 10 34  1  0
 11 12  2  0
 11 13  1  0
 13 14  1  0
 13 15  1  0
 13 35  1  6
 14 15  1  0
 14 36  1  0
 14 37  1  0
 15 38  1  0
 15 39  1  0
 16 17  2  0
 16 40  1  0
 17 41  1  0
 18 19  1  0
 19 20  1  0
 19 26  2  0
 20 21  1  0
 20 25  1  0
 21 22  1  0
 21 42  1  0
 21 43  1  0
 22 23  1  0
 22 44  1  0
 22 45  1  0
 23 24  1  0
 24 25  1  0
 24 46  1  0
 24 47  1  0
 25 48  1  0
 25 49  1  0
M  END

