
     RDKit          3D

 39 38  0  0  0  0  0  0  0  0999 V2000
    1.5271   -0.2211    0.3216 C   0  0  0  0  0  0  0  0  0  0  0  0
    2.6248    0.3211   -0.2237 C   0  0  0  0  0  0  0  0  0  0  0  0
    2.9894    0.2053   -1.6960 C   0  0  0  0  0  0  0  0  0  0  0  0
    1.9237   -0.3562   -2.5146 N   0  0  0  0  0  0  0  0  0  0  0  0
    0.9466    0.6186   -2.9715 C   0  0  0  0  0  0  0  0  0  0  0  0
    2.3165   -1.3265   -3.5019 C   0  0  0  0  0  0  0  0  0  0  0  0
    3.1224   -0.7821   -4.7022 C   0  0  0  0  0  0  0  0  0  0  0  0
    3.6352    0.3252   -4.6939 O   0  0  0  0  0  0  0  0  0  0  0  0
    3.2304   -1.6457   -5.7560 N   0  0  0  0  0  0  0  0  0  0  0  0
    4.0188   -1.3432   -6.9418 C   0  0  0  0  0  0  0  0  0  0  0  0
    5.4535   -1.8876   -6.8992 C   0  0  0  0  0  0  0  0  0  0  0  0
    5.5437   -3.4112   -6.8099 C   0  0  0  0  0  0  0  0  0  0  0  0
    3.5572    1.0634    0.6873 C   0  0  0  0  0  0  0  0  0  0  0  0
    3.3805    1.2501    1.8696 O   0  0  0  0  0  0  0  0  0  0  0  0
    4.6515    1.4986    0.0252 O   0  0  0  0  0  0  0  0  0  0  0  0
    5.6406    2.2235    0.7757 C   0  0  0  0  0  0  0  0  0  0  0  0
    5.3049    3.7030    0.8692 C   0  0  0  0  0  0  0  0  0  0  0  0
    0.8291   -0.7856   -0.3000 H   0  0  0  0  0  0  0  0  0  0  0  0
    1.3310   -0.1059    1.3897 H   0  0  0  0  0  0  0  0  0  0  0  0
    3.8871   -0.4296   -1.7792 H   0  0  0  0  0  0  0  0  0  0  0  0
    3.3231    1.1903   -2.0696 H   0  0  0  0  0  0  0  0  0  0  0  0
    0.5706    1.1958   -2.1126 H   0  0  0  0  0  0  0  0  0  0  0  0
    0.0823    0.1021   -3.4218 H   0  0  0  0  0  0  0  0  0  0  0  0
    1.3544    1.3318   -3.7156 H   0  0  0  0  0  0  0  0  0  0  0  0
    1.4165   -1.8442   -3.8839 H   0  0  0  0  0  0  0  0  0  0  0  0
    2.9340   -2.1079   -3.0224 H   0  0  0  0  0  0  0  0  0  0  0  0
    2.7803   -2.5504   -5.6872 H   0  0  0  0  0  0  0  0  0  0  0  0
    4.0432   -0.2477   -7.0321 H   0  0  0  0  0  0  0  0  0  0  0  0
    3.4883   -1.7418   -7.8242 H   0  0  0  0  0  0  0  0  0  0  0  0
    5.9752   -1.4256   -6.0438 H   0  0  0  0  0  0  0  0  0  0  0  0
    5.9756   -1.5354   -7.8062 H   0  0  0  0  0  0  0  0  0  0  0  0
    5.0569   -3.7900   -5.8958 H   0  0  0  0  0  0  0  0  0  0  0  0
    6.5908   -3.7512   -6.7849 H   0  0  0  0  0  0  0  0  0  0  0  0
    5.0584   -3.8966   -7.6743 H   0  0  0  0  0  0  0  0  0  0  0  0
    6.5803    2.0624    0.2274 H   0  0  0  0  0  0  0  0  0  0  0  0
    5.7256    1.7766    1.7774 H   0  0  0  0  0  0  0  0  0  0  0  0
    5.1807    4.1428   -0.1327 H   0  0  0  0  0  0  0  0  0  0  0  0
    6.1187    4.2402    1.3827 H   0  0  0  0  0  0  0  0  0  0  0  0
    4.3788    3.8568    1.4423 H   0  0  0  0  0  0  0  0  0  0  0  0
  1  2  2  0
  1 18  1  0
  1 19  1  0
  2  3  1  0
  2 13  1  0
  3  4  1  0
  3 20  1  0
  3 21  1  0
  4  5  1  0
  4  6  1  0
  5 22  1  0
  5 23  1  0
  5 24  1  0
  6  7  1  0
  6 25  1  0
  6 26  1  0
  7  8  2  0
  7  9  1  0
  9 10  1  0
  9 27  1  0
 10 11  1  0
 10 28  1  0
 10 29  1  0
 11 12  1  0
 11 30  1  0
 11 31  1  0
 12 32  1  0
 12 33  1  0
 12 34  1  0
 13 14  2  0
 13 15  1  0
 15 16  1  0
 16 17  1  0
 16 35  1  0
 16 36  1  0
 17 37  1  0
 17 38  1  0
 17 39  1  0
M  END

