
     RDKit          3D

134139  0  0  0  0  0  0  0  0999 V2000
   -0.4273   -7.8572   -2.1016 C   0  0  0  0  0  0  0  0  0  0  0  0
    1.0720   -7.8959   -2.3995 C   0  0  0  0  0  0  0  0  0  0  0  0
    1.6833   -6.5051   -2.6100 C   0  0  0  0  0  0  0  0  0  0  0  0
    3.1855   -6.5875   -2.8823 C   0  0  0  0  0  0  0  0  0  0  0  0
    3.8559   -5.3268   -3.2130 N   0  0  0  0  0  0  0  0  0  0  0  0
    3.2869   -4.0649   -2.7517 C   0  0  0  0  0  0  0  0  0  0  0  0
    3.7113   -3.6525   -1.3334 C   0  0  0  0  0  0  0  0  0  0  0  0
    3.1073   -2.3148   -0.8954 C   0  0  0  0  0  0  0  0  0  0  0  0
    3.5168   -1.8972    0.5177 C   0  0  0  0  0  0  0  0  0  0  0  0
    5.1577   -5.3743   -3.6840 C   0  0  0  0  0  0  0  0  0  0  0  0
    5.8312   -6.6072   -3.9043 C   0  0  0  0  0  0  0  0  0  0  0  0
    7.1220   -6.6439   -4.4120 C   0  0  0  0  0  0  0  0  0  0  0  0
    7.8500   -5.4750   -4.7312 C   0  0  0  0  0  0  0  0  0  0  0  0
    9.1950   -5.5859   -5.2613 C   0  0  0  0  0  0  0  0  0  0  0  0
   10.0184   -4.5640   -5.6378 C   0  0  0  0  0  0  0  0  0  0  0  0
   11.3626   -4.6684   -6.1684 C   0  0  0  0  0  0  0  0  0  0  0  0
   12.0366   -5.9100   -6.3497 C   0  0  0  0  0  0  0  0  0  0  0  0
   13.3135   -5.9460   -6.8612 C   0  0  0  0  0  0  0  0  0  0  0  0
   14.0110   -4.7595   -7.2301 C   0  0  0  0  0  0  0  0  0  0  0  0
   15.2557   -4.8610   -7.7335 N   0  0  0  0  0  0  0  0  0  0  0  0
   15.9127   -3.7607   -8.0987 C   0  0  0  0  0  0  0  0  0  0  0  0
   17.2304   -3.8340   -8.6383 C   0  0  0  0  0  0  0  0  0  0  0  0
   17.9140   -5.0221   -8.8179 C   0  0  0  0  0  0  0  0  0  0  0  0
   19.2316   -5.0969   -9.3566 C   0  0  0  0  0  0  0  0  0  0  0  0
   19.8920   -4.0003   -9.7252 N   0  0  0  0  0  0  0  0  0  0  0  0
   21.1353   -4.1074  -10.2318 C   0  0  0  0  0  0  0  0  0  0  0  0
   21.8264   -2.9218  -10.6159 C   0  0  0  0  0  0  0  0  0  0  0  0
   23.0961   -2.9571  -11.1443 C   0  0  0  0  0  0  0  0  0  0  0  0
   23.7672   -4.1993  -11.3309 C   0  0  0  0  0  0  0  0  0  0  0  0
   25.1004   -4.3072  -11.8876 C   0  0  0  0  0  0  0  0  0  0  0  0
   25.9045   -3.2907  -12.3169 C   0  0  0  0  0  0  0  0  0  0  0  0
   27.2395   -3.4077  -12.8700 C   0  0  0  0  0  0  0  0  0  0  0  0
   27.9312   -2.2470  -13.2897 C   0  0  0  0  0  0  0  0  0  0  0  0
   29.2087   -2.2907  -13.8269 C   0  0  0  0  0  0  0  0  0  0  0  0
   29.9007   -3.5227  -13.9889 C   0  0  0  0  0  0  0  0  0  0  0  0
   31.1733   -3.5820  -14.5243 N   0  0  0  0  0  0  0  0  0  0  0  0
   31.8985   -2.3629  -14.8789 C   0  0  0  0  0  0  0  0  0  0  0  0
   32.5418   -1.6159  -13.6976 C   0  0  0  0  0  0  0  0  0  0  0  0
   33.6343   -2.3948  -12.9587 C   0  0  0  0  0  0  0  0  0  0  0  0
   34.2611   -1.6041  -11.8090 C   0  0  0  0  0  0  0  0  0  0  0  0
   31.8394   -4.8639  -14.7509 C   0  0  0  0  0  0  0  0  0  0  0  0
   31.3882   -5.6262  -16.0087 C   0  0  0  0  0  0  0  0  0  0  0  0
   31.6633   -4.9083  -17.3335 C   0  0  0  0  0  0  0  0  0  0  0  0
   31.2355   -5.7221  -18.5561 C   0  0  0  0  0  0  0  0  0  0  0  0
   29.2082   -4.6945  -13.5671 C   0  0  0  0  0  0  0  0  0  0  0  0
   27.9336   -4.6324  -13.0301 C   0  0  0  0  0  0  0  0  0  0  0  0
   23.0929   -5.3831  -10.9558 C   0  0  0  0  0  0  0  0  0  0  0  0
   21.8066   -5.3681  -10.4082 C   0  0  0  0  0  0  0  0  0  0  0  0
   21.1193   -6.5185  -10.0140 N   0  0  0  0  0  0  0  0  0  0  0  0
   21.7092   -7.8628  -10.0853 C   0  0  0  0  0  0  0  0  0  0  0  0
   21.2567   -8.6915  -11.2959 C   0  0  0  0  0  0  0  0  0  0  0  0
   21.6639   -8.1513  -12.6669 C   0  0  0  0  0  0  0  0  0  0  0  0
   19.8262   -6.4578   -9.4767 C   0  0  0  0  0  0  0  0  0  0  0  0
   19.2501   -7.4818   -9.1330 O   0  0  0  0  0  0  0  0  0  0  0  0
   15.3209   -2.3984   -7.9683 C   0  0  0  0  0  0  0  0  0  0  0  0
   15.9027   -1.3763   -8.3059 O   0  0  0  0  0  0  0  0  0  0  0  0
   14.0301   -2.3450   -7.4203 N   0  0  0  0  0  0  0  0  0  0  0  0
   13.4195   -1.0182   -7.2847 C   0  0  0  0  0  0  0  0  0  0  0  0
   13.4771   -0.4255   -5.8682 C   0  0  0  0  0  0  0  0  0  0  0  0
   14.8901   -0.2141   -5.3226 C   0  0  0  0  0  0  0  0  0  0  0  0
   13.3413   -3.5001   -7.0480 C   0  0  0  0  0  0  0  0  0  0  0  0
   12.0450   -3.4829   -6.5244 C   0  0  0  0  0  0  0  0  0  0  0  0
    7.1838   -4.2477   -4.4903 C   0  0  0  0  0  0  0  0  0  0  0  0
    5.8972   -4.1931   -3.9830 C   0  0  0  0  0  0  0  0  0  0  0  0
   -0.8342   -8.8705   -1.9584 H   0  0  0  0  0  0  0  0  0  0  0  0
   -0.9886   -7.3869   -2.9261 H   0  0  0  0  0  0  0  0  0  0  0  0
   -0.6408   -7.2809   -1.1859 H   0  0  0  0  0  0  0  0  0  0  0  0
    1.2540   -8.5140   -3.2969 H   0  0  0  0  0  0  0  0  0  0  0  0
    1.5995   -8.4040   -1.5721 H   0  0  0  0  0  0  0  0  0  0  0  0
    1.4790   -5.8904   -1.7169 H   0  0  0  0  0  0  0  0  0  0  0  0
    1.1769   -6.0102   -3.4575 H   0  0  0  0  0  0  0  0  0  0  0  0
    3.3278   -7.2766   -3.7308 H   0  0  0  0  0  0  0  0  0  0  0  0
    3.6805   -7.0703   -2.0142 H   0  0  0  0  0  0  0  0  0  0  0  0
    2.1925   -4.1363   -2.7990 H   0  0  0  0  0  0  0  0  0  0  0  0
    3.5488   -3.2708   -3.4667 H   0  0  0  0  0  0  0  0  0  0  0  0
    4.8127   -3.5983   -1.2844 H   0  0  0  0  0  0  0  0  0  0  0  0
    3.4131   -4.4446   -0.6229 H   0  0  0  0  0  0  0  0  0  0  0  0
    2.0049   -2.3724   -0.9583 H   0  0  0  0  0  0  0  0  0  0  0  0
    3.4062   -1.5288   -1.6129 H   0  0  0  0  0  0  0  0  0  0  0  0
    3.1978   -2.6434    1.2644 H   0  0  0  0  0  0  0  0  0  0  0  0
    3.0675   -0.9317    0.7989 H   0  0  0  0  0  0  0  0  0  0  0  0
    4.6112   -1.7934    0.6029 H   0  0  0  0  0  0  0  0  0  0  0  0
    5.3474   -7.5534   -3.6713 H   0  0  0  0  0  0  0  0  0  0  0  0
    7.5958   -7.6178   -4.5655 H   0  0  0  0  0  0  0  0  0  0  0  0
    9.5607   -6.6125   -5.3629 H   0  0  0  0  0  0  0  0  0  0  0  0
    9.6444   -3.5389   -5.5433 H   0  0  0  0  0  0  0  0  0  0  0  0
   11.5419   -6.8447   -6.0799 H   0  0  0  0  0  0  0  0  0  0  0  0
   13.8459   -6.8877   -7.0083 H   0  0  0  0  0  0  0  0  0  0  0  0
   17.7079   -2.8942   -8.9179 H   0  0  0  0  0  0  0  0  0  0  0  0
   17.4363   -5.9617   -8.5374 H   0  0  0  0  0  0  0  0  0  0  0  0
   21.2928   -1.9810  -10.4676 H   0  0  0  0  0  0  0  0  0  0  0  0
   23.5865   -2.0228  -11.4229 H   0  0  0  0  0  0  0  0  0  0  0  0
   25.4810   -5.3316  -11.9613 H   0  0  0  0  0  0  0  0  0  0  0  0
   25.5270   -2.2655  -12.2511 H   0  0  0  0  0  0  0  0  0  0  0  0
   27.4399   -1.2752  -13.1868 H   0  0  0  0  0  0  0  0  0  0  0  0
   29.6744   -1.3523  -14.1228 H   0  0  0  0  0  0  0  0  0  0  0  0
   31.2268   -1.6802  -15.4246 H   0  0  0  0  0  0  0  0  0  0  0  0
   32.6819   -2.6441  -15.5981 H   0  0  0  0  0  0  0  0  0  0  0  0
   31.7579   -1.3188  -12.9802 H   0  0  0  0  0  0  0  0  0  0  0  0
   32.9659   -0.6749  -14.0935 H   0  0  0  0  0  0  0  0  0  0  0  0
   34.4228   -2.6897  -13.6757 H   0  0  0  0  0  0  0  0  0  0  0  0
   33.2104   -3.3352  -12.5653 H   0  0  0  0  0  0  0  0  0  0  0  0
   34.7273   -0.6718  -12.1696 H   0  0  0  0  0  0  0  0  0  0  0  0
   35.0406   -2.1886  -11.2951 H   0  0  0  0  0  0  0  0  0  0  0  0
   33.5045   -1.3249  -11.0570 H   0  0  0  0  0  0  0  0  0  0  0  0
   31.7124   -5.5073  -13.8648 H   0  0  0  0  0  0  0  0  0  0  0  0
   32.9192   -4.6650  -14.8186 H   0  0  0  0  0  0  0  0  0  0  0  0
   30.3110   -5.8536  -15.9355 H   0  0  0  0  0  0  0  0  0  0  0  0
   31.9069   -6.6024  -16.0054 H   0  0  0  0  0  0  0  0  0  0  0  0
   32.7414   -4.6735  -17.4064 H   0  0  0  0  0  0  0  0  0  0  0  0
   31.1371   -3.9379  -17.3390 H   0  0  0  0  0  0  0  0  0  0  0  0
   31.7682   -6.6866  -18.6030 H   0  0  0  0  0  0  0  0  0  0  0  0
   31.4426   -5.1816  -19.4932 H   0  0  0  0  0  0  0  0  0  0  0  0
   30.1554   -5.9429  -18.5312 H   0  0  0  0  0  0  0  0  0  0  0  0
   29.6761   -5.6730  -13.6609 H   0  0  0  0  0  0  0  0  0  0  0  0
   27.4604   -5.5676  -12.7235 H   0  0  0  0  0  0  0  0  0  0  0  0
   23.6071   -6.3294  -11.1167 H   0  0  0  0  0  0  0  0  0  0  0  0
   21.3918   -8.3863   -9.1734 H   0  0  0  0  0  0  0  0  0  0  0  0
   22.8026   -7.7668  -10.0524 H   0  0  0  0  0  0  0  0  0  0  0  0
   20.1620   -8.7973  -11.2370 H   0  0  0  0  0  0  0  0  0  0  0  0
   21.6678   -9.7080  -11.1602 H   0  0  0  0  0  0  0  0  0  0  0  0
   21.2710   -7.1368  -12.8396 H   0  0  0  0  0  0  0  0  0  0  0  0
   21.2734   -8.7963  -13.4703 H   0  0  0  0  0  0  0  0  0  0  0  0
   22.7599   -8.1078  -12.7839 H   0  0  0  0  0  0  0  0  0  0  0  0
   12.3764   -1.0811   -7.6309 H   0  0  0  0  0  0  0  0  0  0  0  0
   13.9655   -0.3658   -7.9779 H   0  0  0  0  0  0  0  0  0  0  0  0
   12.9025   -1.0599   -5.1715 H   0  0  0  0  0  0  0  0  0  0  0  0
   12.9443    0.5416   -5.9081 H   0  0  0  0  0  0  0  0  0  0  0  0
   15.4239   -1.1703   -5.2060 H   0  0  0  0  0  0  0  0  0  0  0  0
   14.8574    0.2683   -4.3325 H   0  0  0  0  0  0  0  0  0  0  0  0
   15.4928    0.4147   -5.9956 H   0  0  0  0  0  0  0  0  0  0  0  0
   11.5279   -2.5353   -6.3775 H   0  0  0  0  0  0  0  0  0  0  0  0
    7.6914   -3.3044   -4.7025 H   0  0  0  0  0  0  0  0  0  0  0  0
    5.4569   -3.2111   -3.8186 H   0  0  0  0  0  0  0  0  0  0  0  0
  1  2  1  0
  1 65  1  0
  1 66  1  0
  1 67  1  0
  2  3  1  0
  2 68  1  0
  2 69  1  0
  3  4  1  0
  3 70  1  0
  3 71  1  0
  4  5  1  0
  4 72  1  0
  4 73  1  0
  5  6  1  0
  5 10  1  0
  6  7  1  0
  6 74  1  0
  6 75  1  0
  7  8  1  0
  7 76  1  0
  7 77  1  0
  8  9  1  0
  8 78  1  0
  8 79  1  0
  9 80  1  0
  9 81  1  0
  9 82  1  0
 10 11  2  0
 10 64  1  0
 11 12  1  0
 11 83  1  0
 12 13  2  0
 12 84  1  0
 13 14  1  0
 13 63  1  0
 14 15  2  0
 14 85  1  0
 15 16  1  0
 15 86  1  0
 16 17  2  0
 16 62  1  0
 17 18  1  0
 17 87  1  0
 18 19  2  0
 18 88  1  0
 19 20  1  0
 19 61  1  0
 20 21  2  0
 21 22  1  0
 21 55  1  0
 22 23  2  0
 22 89  1  0
 23 24  1  0
 23 90  1  0
 24 25  2  0
 24 53  1  0
 25 26  1  0
 26 27  2  0
 26 48  1  0
 27 28  1  0
 27 91  1  0
 28 29  2  0
 28 92  1  0
 29 30  1  0
 29 47  1  0
 30 31  2  0
 30 93  1  0
 31 32  1  0
 31 94  1  0
 32 33  2  0
 32 46  1  0
 33 34  1  0
 33 95  1  0
 34 35  2  0
 34 96  1  0
 35 36  1  0
 35 45  1  0
 36 37  1  0
 36 41  1  0
 37 38  1  0
 37 97  1  0
 37 98  1  0
 38 39  1  0
 38 99  1  0
 38100  1  0
 39 40  1  0
 39101  1  0
 39102  1  0
 40103  1  0
 40104  1  0
 40105  1  0
 41 42  1  0
 41106  1  0
 41107  1  0
 42 43  1  0
 42108  1  0
 42109  1  0
 43 44  1  0
 43110  1  0
 43111  1  0
 44112  1  0
 44113  1  0
 44114  1  0
 45 46  2  0
 45115  1  0
 46116  1  0
 47 48  2  0
 47117  1  0
 48 49  1  0
 49 50  1  0
 49 53  1  0
 50 51  1  0
 50118  1  0
 50119  1  0
 51 52  1  0
 51120  1  0
 51121  1  0
 52122  1  0
 52123  1  0
 52124  1  0
 53 54  2  0
 55 56  2  0
 55 57  1  0
 57 58  1  0
 57 61  1  0
 58 59  1  0
 58125  1  0
 58126  1  0
 59 60  1  0
 59127  1  0
 59128  1  0
 60129  1  0
 60130  1  0
 60131  1  0
 61 62  2  0
 62132  1  0
 63 64  2  0
 63133  1  0
 64134  1  0
M  END

