
     RDKit          3D

 52 53  0  0  0  0  0  0  0  0999 V2000
    5.6876   -1.6630    1.7962 C   0  0  0  0  0  0  0  0  0  0  0  0
    5.5727   -0.2123    1.3224 C   0  0  0  0  0  0  0  0  0  0  0  0
    4.3295    0.0822    0.6200 N   0  0  0  0  0  0  0  0  0  0  0  0
    3.0898   -0.1300    1.3564 C   0  0  0  0  0  0  0  0  0  0  0  0
    2.7995    0.8018    2.5453 C   0  0  0  0  0  0  0  0  0  0  0  0
    4.3517    1.1889   -0.3465 C   0  0  2  0  0  0  0  0  0  0  0  0
    3.2951    1.3858   -0.5873 H   0  0  0  0  0  0  0  0  0  0  0  0
    5.0149    0.7259   -1.6600 C   0  0  0  0  0  0  0  0  0  0  0  0
    4.4312   -0.5149   -2.1211 N   0  0  0  0  0  0  0  0  0  0  0  0
    4.1296   -0.7306   -3.4177 C   0  0  0  0  0  0  0  0  0  0  0  0
    4.2926    0.0485   -4.3419 O   0  0  0  0  0  0  0  0  0  0  0  0
    3.5608   -2.0054   -3.7138 N   0  0  0  0  0  0  0  0  0  0  0  0
    3.2992   -3.0664   -2.8897 C   0  0  0  0  0  0  0  0  0  0  0  0
    3.5197   -3.0999   -1.6024 N   0  0  0  0  0  0  0  0  0  0  0  0
    3.1681   -4.2768   -1.0230 N   0  0  0  0  0  0  0  0  0  0  0  0
    2.6792   -5.1520   -1.8433 C   0  0  0  0  0  0  0  0  0  0  0  0
    2.2282   -6.5110   -1.4715 C   0  0  1  0  0  0  0  0  0  0  0  0
    2.9952   -7.2816   -0.4100 C   0  0  0  0  0  0  0  0  0  0  0  0
    1.6352   -6.7438   -0.0937 C   0  0  0  0  0  0  0  0  0  0  0  0
    2.6041   -4.5637   -3.5108 S   0  0  0  0  0  0  0  0  0  0  0  0
    4.9824    2.5011    0.1736 C   0  0  0  0  0  0  0  0  0  0  0  0
    4.8593    3.7452   -0.7316 C   0  0  1  0  0  0  0  0  0  0  0  0
    3.4024    4.1233   -1.0312 C   0  0  0  0  0  0  0  0  0  0  0  0
    5.6062    4.9282   -0.0998 C   0  0  0  0  0  0  0  0  0  0  0  0
    6.7005   -1.8521    2.1865 H   0  0  0  0  0  0  0  0  0  0  0  0
    5.4925   -2.3632    0.9688 H   0  0  0  0  0  0  0  0  0  0  0  0
    4.9801   -1.8964    2.6071 H   0  0  0  0  0  0  0  0  0  0  0  0
    6.4024   -0.0148    0.6248 H   0  0  0  0  0  0  0  0  0  0  0  0
    5.7486    0.4638    2.1885 H   0  0  0  0  0  0  0  0  0  0  0  0
    3.0761   -1.1732    1.7131 H   0  0  0  0  0  0  0  0  0  0  0  0
    2.2596   -0.0632    0.6333 H   0  0  0  0  0  0  0  0  0  0  0  0
    3.6042    0.7698    3.2977 H   0  0  0  0  0  0  0  0  0  0  0  0
    1.8670    0.4955    3.0479 H   0  0  0  0  0  0  0  0  0  0  0  0
    2.6759    1.8500    2.2297 H   0  0  0  0  0  0  0  0  0  0  0  0
    6.1057    0.6086   -1.5073 H   0  0  0  0  0  0  0  0  0  0  0  0
    4.8892    1.4748   -2.4534 H   0  0  0  0  0  0  0  0  0  0  0  0
    4.2311   -1.2394   -1.4257 H   0  0  0  0  0  0  0  0  0  0  0  0
    3.3549   -2.0981   -4.7016 H   0  0  0  0  0  0  0  0  0  0  0  0
    1.8087   -7.0902   -2.2976 H   0  0  0  0  0  0  0  0  0  0  0  0
    3.8566   -6.7691    0.0260 H   0  0  0  0  0  0  0  0  0  0  0  0
    3.1183   -8.3578   -0.5607 H   0  0  0  0  0  0  0  0  0  0  0  0
    1.5754   -5.8679    0.5572 H   0  0  0  0  0  0  0  0  0  0  0  0
    0.7946   -7.4396   -0.0206 H   0  0  0  0  0  0  0  0  0  0  0  0
    6.0540    2.3272    0.3736 H   0  0  0  0  0  0  0  0  0  0  0  0
    4.5293    2.7367    1.1518 H   0  0  0  0  0  0  0  0  0  0  0  0
    5.3539    3.5247   -1.6951 H   0  0  0  0  0  0  0  0  0  0  0  0
    2.8451    4.3181   -0.0981 H   0  0  0  0  0  0  0  0  0  0  0  0
    2.8676    3.3342   -1.5824 H   0  0  0  0  0  0  0  0  0  0  0  0
    3.3516    5.0378   -1.6440 H   0  0  0  0  0  0  0  0  0  0  0  0
    5.1560    5.2076    0.8685 H   0  0  0  0  0  0  0  0  0  0  0  0
    5.5741    5.8171   -0.7505 H   0  0  0  0  0  0  0  0  0  0  0  0
    6.6655    4.6854    0.0847 H   0  0  0  0  0  0  0  0  0  0  0  0
  1  2  1  0
  1 25  1  0
  1 26  1  0
  1 27  1  0
  2  3  1  0
  2 28  1  0
  2 29  1  0
  3  4  1  0
  3  6  1  0
  4  5  1  0
  4 30  1  0
  4 31  1  0
  5 32  1  0
  5 33  1  0
  5 34  1  0
  6  7  1  6
  6  8  1  0
  6 21  1  0
  8  9  1  0
  8 35  1  0
  8 36  1  0
  9 10  1  0
  9 37  1  0
 10 11  2  0
 10 12  1  0
 12 13  1  0
 12 38  1  0
 13 14  2  0
 13 20  1  0
 14 15  1  0
 15 16  2  0
 16 17  1  0
 16 20  1  0
 17 18  1  0
 17 19  1  0
 17 39  1  6
 18 19  1  0
 18 40  1  0
 18 41  1  0
 19 42  1  0
 19 43  1  0
 21 22  1  0
 21 44  1  0
 21 45  1  0
 22 23  1  0
 22 24  1  0
 22 46  1  6
 23 47  1  0
 23 48  1  0
 23 49  1  0
 24 50  1  0
 24 51  1  0
 24 52  1  0
M  END

