
     RDKit          3D

 53 55  0  0  0  0  0  0  0  0999 V2000
   13.3388    0.5970   -2.5044 C   0  0  0  0  0  0  0  0  0  0  0  0
   12.0606    0.8945   -1.7909 C   0  0  0  0  0  0  0  0  0  0  0  0
   10.5465    0.4765   -2.4529 S   0  0  0  0  0  0  0  0  0  0  0  0
    9.6676    1.1171   -1.0171 C   0  0  0  0  0  0  0  0  0  0  0  0
    8.3326    1.1339   -0.9563 N   0  0  0  0  0  0  0  0  0  0  0  0
    7.8746    1.8593    0.0914 C   0  0  0  0  0  0  0  0  0  0  0  0
    8.5802    2.4449    1.0393 N   0  0  0  0  0  0  0  0  0  0  0  0
    9.9563    2.2501    1.0686 C   0  0  0  0  0  0  0  0  0  0  0  0
   10.7564    2.2398    2.6467 S   0  0  0  0  0  0  0  0  0  0  0  0
    9.8722    3.5935    3.5363 C   0  0  0  0  0  0  0  0  0  0  0  0
   10.0458    4.9936    2.9459 C   0  0  0  0  0  0  0  0  0  0  0  0
   10.8372    5.7983    3.4181 O   0  0  0  0  0  0  0  0  0  0  0  0
    9.2401    5.2600    1.8852 N   0  0  0  0  0  0  0  0  0  0  0  0
    9.2387    6.5559    1.2316 C   0  0  0  0  0  0  0  0  0  0  0  0
   10.4594    6.8370    0.3247 C   0  0  1  0  0  0  0  0  0  0  0  0
   10.6778    5.7586   -0.7528 C   0  0  0  0  0  0  0  0  0  0  0  0
    9.6069    5.8252   -1.8488 C   0  0  0  0  0  0  0  0  0  0  0  0
    9.4761    7.2541   -2.3732 C   0  0  0  0  0  0  0  0  0  0  0  0
    9.2726    8.1877   -1.3270 O   0  0  0  0  0  0  0  0  0  0  0  0
   10.2945    8.2310   -0.3246 C   0  0  2  0  0  0  0  0  0  0  0  0
   11.6003    8.8873   -0.8431 C   0  0  1  0  0  0  0  0  0  0  0  0
   11.2892   10.2126   -1.5516 C   0  0  0  0  0  0  0  0  0  0  0  0
   12.6114    9.1090    0.2908 C   0  0  0  0  0  0  0  0  0  0  0  0
   10.5631    1.6435   -0.0885 C   0  0  0  0  0  0  0  0  0  0  0  0
   11.9354    1.5425   -0.5273 C   0  0  0  0  0  0  0  0  0  0  0  0
   13.1159    2.0622    0.2149 C   0  0  0  0  0  0  0  0  0  0  0  0
   13.1622    0.0663   -3.4500 H   0  0  0  0  0  0  0  0  0  0  0  0
   14.0072   -0.0244   -1.8831 H   0  0  0  0  0  0  0  0  0  0  0  0
   13.8909    1.5255   -2.7361 H   0  0  0  0  0  0  0  0  0  0  0  0
    6.7848    1.9913    0.1368 H   0  0  0  0  0  0  0  0  0  0  0  0
   10.3153    3.5872    4.5401 H   0  0  0  0  0  0  0  0  0  0  0  0
    8.8126    3.3077    3.5884 H   0  0  0  0  0  0  0  0  0  0  0  0
    8.6634    4.4957    1.5270 H   0  0  0  0  0  0  0  0  0  0  0  0
    9.2162    7.3330    2.0130 H   0  0  0  0  0  0  0  0  0  0  0  0
    8.3070    6.6471    0.6543 H   0  0  0  0  0  0  0  0  0  0  0  0
   11.3325    6.8548    0.9927 H   0  0  0  0  0  0  0  0  0  0  0  0
   10.6924    4.7621   -0.2833 H   0  0  0  0  0  0  0  0  0  0  0  0
   11.6739    5.9012   -1.2088 H   0  0  0  0  0  0  0  0  0  0  0  0
    8.6324    5.4940   -1.4512 H   0  0  0  0  0  0  0  0  0  0  0  0
    9.8515    5.1435   -2.6814 H   0  0  0  0  0  0  0  0  0  0  0  0
    8.6061    7.3560   -3.0410 H   0  0  0  0  0  0  0  0  0  0  0  0
   10.3741    7.5174   -2.9694 H   0  0  0  0  0  0  0  0  0  0  0  0
    9.8819    8.9193    0.4346 H   0  0  0  0  0  0  0  0  0  0  0  0
   12.0699    8.2107   -1.5798 H   0  0  0  0  0  0  0  0  0  0  0  0
   10.8486   10.9377   -0.8457 H   0  0  0  0  0  0  0  0  0  0  0  0
   10.5701   10.0778   -2.3717 H   0  0  0  0  0  0  0  0  0  0  0  0
   12.2068   10.6632   -1.9631 H   0  0  0  0  0  0  0  0  0  0  0  0
   12.1761    9.7279    1.0942 H   0  0  0  0  0  0  0  0  0  0  0  0
   13.5023    9.6371   -0.0851 H   0  0  0  0  0  0  0  0  0  0  0  0
   12.9548    8.1685    0.7468 H   0  0  0  0  0  0  0  0  0  0  0  0
   13.5310    1.2708    0.8681 H   0  0  0  0  0  0  0  0  0  0  0  0
   12.8311    2.8828    0.8899 H   0  0  0  0  0  0  0  0  0  0  0  0
   13.9226    2.3828   -0.4605 H   0  0  0  0  0  0  0  0  0  0  0  0
  1  2  1  0
  1 27  1  0
  1 28  1  0
  1 29  1  0
  2  3  1  0
  2 25  2  0
  3  4  1  0
  4  5  2  0
  4 24  1  0
  5  6  1  0
  6  7  2  0
  6 30  1  0
  7  8  1  0
  8  9  1  0
  8 24  2  0
  9 10  1  0
 10 11  1  0
 10 31  1  0
 10 32  1  0
 11 12  2  0
 11 13  1  0
 13 14  1  0
 13 33  1  0
 14 15  1  0
 14 34  1  0
 14 35  1  0
 15 16  1  0
 15 20  1  0
 15 36  1  1
 16 17  1  0
 16 37  1  0
 16 38  1  0
 17 18  1  0
 17 39  1  0
 17 40  1  0
 18 19  1  0
 18 41  1  0
 18 42  1  0
 19 20  1  0
 20 21  1  0
 20 43  1  6
 21 22  1  0
 21 23  1  0
 21 44  1  1
 22 45  1  0
 22 46  1  0
 22 47  1  0
 23 48  1  0
 23 49  1  0
 23 50  1  0
 24 25  1  0
 25 26  1  0
 26 51  1  0
 26 52  1  0
 26 53  1  0
M  END

