
     RDKit          3D

 66 70  0  0  0  0  0  0  0  0999 V2000
   10.0761   -3.5045   -1.3803 C   0  0  0  0  0  0  0  0  0  0  0  0
    9.2757   -4.4279   -2.0837 O   0  0  0  0  0  0  0  0  0  0  0  0
    8.1067   -4.0081   -2.6387 C   0  0  0  0  0  0  0  0  0  0  0  0
    7.6090   -2.7014   -2.5429 C   0  0  0  0  0  0  0  0  0  0  0  0
    6.3753   -2.3624   -3.1045 C   0  0  0  0  0  0  0  0  0  0  0  0
    5.5960   -3.3082   -3.7838 C   0  0  0  0  0  0  0  0  0  0  0  0
    4.2449   -2.8830   -4.3566 C   0  0  1  0  0  0  0  0  0  0  0  0
    3.7194   -2.3580   -3.5410 H   0  0  0  0  0  0  0  0  0  0  0  0
    4.3711   -1.8947   -5.5298 C   0  0  0  0  0  0  0  0  0  0  0  0
    4.7577   -2.5417   -6.8525 C   0  0  0  0  0  0  0  0  0  0  0  0
    5.3700   -1.9010   -7.6930 O   0  0  0  0  0  0  0  0  0  0  0  0
    4.3279   -3.9303   -7.1133 C   0  0  0  0  0  0  0  0  0  0  0  0
    3.6938   -4.6547   -6.1379 C   0  0  0  0  0  0  0  0  0  0  0  0
    3.3354   -4.0354   -4.7975 C   0  0  0  0  0  0  0  0  0  0  0  0
    3.2584   -5.9620   -6.2274 N   0  0  0  0  0  0  0  0  0  0  0  0
    3.3699   -6.9378   -7.2283 C   0  0  0  0  0  0  0  0  0  0  0  0
    3.3572   -8.2897   -6.8389 C   0  0  0  0  0  0  0  0  0  0  0  0
    3.4494   -9.3075   -7.7844 C   0  0  0  0  0  0  0  0  0  0  0  0
    3.5822   -8.9950   -9.1408 C   0  0  0  0  0  0  0  0  0  0  0  0
    3.6012   -7.6583   -9.5362 C   0  0  0  0  0  0  0  0  0  0  0  0
    3.4603   -6.6272   -8.5997 C   0  0  0  0  0  0  0  0  0  0  0  0
    3.4585   -5.2614   -9.0025 N   0  0  0  0  0  0  0  0  0  0  0  0
    2.4412   -4.6284   -9.6694 C   0  0  0  0  0  0  0  0  0  0  0  0
    2.4612   -3.4633  -10.0034 O   0  0  0  0  0  0  0  0  0  0  0  0
    1.1630   -5.4585  -10.0009 C   0  0  1  0  0  0  0  0  0  0  0  0
    0.7023   -6.1269   -8.9293 F   0  0  0  0  0  0  0  0  0  0  0  0
    0.2010   -4.6422  -10.4132 F   0  0  0  0  0  0  0  0  0  0  0  0
    1.3901   -6.3517  -10.9818 F   0  0  0  0  0  0  0  0  0  0  0  0
    4.5853   -4.4044   -8.5294 C   0  0  2  0  0  0  0  0  0  0  0  0
    4.5451   -3.4995   -9.1482 H   0  0  0  0  0  0  0  0  0  0  0  0
    5.9257   -5.0716   -8.8105 C   0  0  0  0  0  0  0  0  0  0  0  0
    6.4057   -5.0895  -10.1284 C   0  0  0  0  0  0  0  0  0  0  0  0
    7.6152   -5.7093  -10.4456 C   0  0  0  0  0  0  0  0  0  0  0  0
    8.3934   -6.3302   -9.4562 C   0  0  0  0  0  0  0  0  0  0  0  0
    9.6994   -7.0097   -9.7907 C   0  0  0  0  0  0  0  0  0  0  0  0
    7.9146   -6.2999   -8.1377 C   0  0  0  0  0  0  0  0  0  0  0  0
    6.7034   -5.6815   -7.8184 C   0  0  0  0  0  0  0  0  0  0  0  0
    6.1092   -4.6090   -3.8845 C   0  0  0  0  0  0  0  0  0  0  0  0
    7.3414   -4.9741   -3.3341 C   0  0  0  0  0  0  0  0  0  0  0  0
    7.7136   -6.2816   -3.4495 O   0  0  0  0  0  0  0  0  0  0  0  0
    8.9882   -6.5914   -3.9958 C   0  0  0  0  0  0  0  0  0  0  0  0
   10.9607   -4.0567   -1.0355 H   0  0  0  0  0  0  0  0  0  0  0  0
    9.5493   -3.0907   -0.5017 H   0  0  0  0  0  0  0  0  0  0  0  0
   10.4043   -2.6687   -2.0243 H   0  0  0  0  0  0  0  0  0  0  0  0
    8.1757   -1.9376   -2.0101 H   0  0  0  0  0  0  0  0  0  0  0  0
    6.0146   -1.3358   -2.9960 H   0  0  0  0  0  0  0  0  0  0  0  0
    5.0949   -1.0933   -5.3274 H   0  0  0  0  0  0  0  0  0  0  0  0
    3.3936   -1.4048   -5.6977 H   0  0  0  0  0  0  0  0  0  0  0  0
    3.3113   -4.8187   -4.0213 H   0  0  0  0  0  0  0  0  0  0  0  0
    2.3005   -3.6552   -4.8765 H   0  0  0  0  0  0  0  0  0  0  0  0
    2.9206   -6.3360   -5.3481 H   0  0  0  0  0  0  0  0  0  0  0  0
    3.2785   -8.5358   -5.7760 H   0  0  0  0  0  0  0  0  0  0  0  0
    3.4335  -10.3496   -7.4566 H   0  0  0  0  0  0  0  0  0  0  0  0
    3.6762   -9.7870   -9.8865 H   0  0  0  0  0  0  0  0  0  0  0  0
    3.7093   -7.3909  -10.5875 H   0  0  0  0  0  0  0  0  0  0  0  0
    5.8265   -4.6022  -10.9181 H   0  0  0  0  0  0  0  0  0  0  0  0
    7.9673   -5.7023  -11.4813 H   0  0  0  0  0  0  0  0  0  0  0  0
    9.9908   -6.8346  -10.8369 H   0  0  0  0  0  0  0  0  0  0  0  0
    9.6325   -8.1012   -9.6414 H   0  0  0  0  0  0  0  0  0  0  0  0
   10.5179   -6.6475   -9.1471 H   0  0  0  0  0  0  0  0  0  0  0  0
    8.5011   -6.7679   -7.3414 H   0  0  0  0  0  0  0  0  0  0  0  0
    6.3716   -5.6607   -6.7788 H   0  0  0  0  0  0  0  0  0  0  0  0
    5.5665   -5.4049   -4.3952 H   0  0  0  0  0  0  0  0  0  0  0  0
    8.9726   -7.6662   -4.2273 H   0  0  0  0  0  0  0  0  0  0  0  0
    9.8035   -6.3811   -3.2883 H   0  0  0  0  0  0  0  0  0  0  0  0
    9.1699   -6.0281   -4.9289 H   0  0  0  0  0  0  0  0  0  0  0  0
  1  2  1  0
  1 42  1  0
  1 43  1  0
  1 44  1  0
  2  3  1  0
  3  4  2  0
  3 39  1  0
  4  5  1  0
  4 45  1  0
  5  6  2  0
  5 46  1  0
  6  7  1  0
  6 38  1  0
  7  8  1  1
  7  9  1  0
  7 14  1  0
  9 10  1  0
  9 47  1  0
  9 48  1  0
 10 11  2  0
 10 12  1  0
 12 13  2  0
 12 29  1  0
 13 14  1  0
 13 15  1  0
 14 49  1  0
 14 50  1  0
 15 16  1  0
 15 51  1  0
 16 17  1  0
 16 21  2  0
 17 18  2  0
 17 52  1  0
 18 19  1  0
 18 53  1  0
 19 20  2  0
 19 54  1  0
 20 21  1  0
 20 55  1  0
 21 22  1  0
 22 23  1  0
 22 29  1  0
 23 24  2  0
 23 25  1  0
 25 26  1  1
 25 27  1  0
 25 28  1  0
 29 30  1  6
 29 31  1  0
 31 32  2  0
 31 37  1  0
 32 33  1  0
 32 56  1  0
 33 34  2  0
 33 57  1  0
 34 35  1  0
 34 36  1  0
 35 58  1  0
 35 59  1  0
 35 60  1  0
 36 37  2  0
 36 61  1  0
 37 62  1  0
 38 39  2  0
 38 63  1  0
 39 40  1  0
 40 41  1  0
 41 64  1  0
 41 65  1  0
 41 66  1  0
M  END

