
     RDKit          3D

 64 68  0  0  0  0  0  0  0  0999 V2000
   13.8858   -5.5691   -2.3056 C   0  0  0  0  0  0  0  0  0  0  0  0
   13.1005   -4.2963   -2.1638 C   0  0  0  0  0  0  0  0  0  0  0  0
   13.1746   -3.5216   -0.9432 C   0  0  0  0  0  0  0  0  0  0  0  0
   12.4805   -2.3436   -0.7898 C   0  0  0  0  0  0  0  0  0  0  0  0
   11.6979   -1.8080   -1.8674 C   0  0  0  0  0  0  0  0  0  0  0  0
   10.6240   -0.8882   -1.5343 N   0  0  0  0  0  0  0  0  0  0  0  0
   10.6635    0.4053   -1.7064 N   0  0  0  0  0  0  0  0  0  0  0  0
    9.4400    0.9258   -1.2910 C   0  0  0  0  0  0  0  0  0  0  0  0
    9.2123    2.3945   -1.3725 C   0  0  0  0  0  0  0  0  0  0  0  0
    8.6072   -0.0819   -0.8514 C   0  0  0  0  0  0  0  0  0  0  0  0
    9.3862   -1.2605   -1.0130 C   0  0  0  0  0  0  0  0  0  0  0  0
    9.1388   -2.5514   -0.7747 N   0  0  0  0  0  0  0  0  0  0  0  0
    7.9428   -3.1020   -0.2880 C   0  0  0  0  0  0  0  0  0  0  0  0
    6.9797   -2.4362    0.0073 O   0  0  0  0  0  0  0  0  0  0  0  0
    7.9930   -4.6322   -0.2239 C   0  0  0  0  0  0  0  0  0  0  0  0
    9.3418   -5.1527   -0.2785 N   0  0  0  0  0  0  0  0  0  0  0  0
    9.9829   -5.3714    1.0279 C   0  0  0  0  0  0  0  0  0  0  0  0
    9.5441   -6.6836    1.6994 C   0  0  0  0  0  0  0  0  0  0  0  0
    9.7106   -7.9089    0.7786 C   0  0  2  0  0  0  0  0  0  0  0  0
   11.1837   -8.3519    0.6862 C   0  0  0  0  0  0  0  0  0  0  0  0
   12.1094   -7.6385    1.0354 O   0  0  0  0  0  0  0  0  0  0  0  0
   11.3439   -9.6189    0.1773 N   0  0  0  0  0  0  0  0  0  0  0  0
   12.5313  -10.3402   -0.0837 C   0  0  0  0  0  0  0  0  0  0  0  0
   13.8103   -9.8443    0.2141 C   0  0  0  0  0  0  0  0  0  0  0  0
   14.9618  -10.6054   -0.0686 C   0  0  0  0  0  0  0  0  0  0  0  0
   14.7931  -11.8485   -0.6467 C   0  0  0  0  0  0  0  0  0  0  0  0
   13.5202  -12.3423   -0.9413 C   0  0  0  0  0  0  0  0  0  0  0  0
   12.3743  -11.6203   -0.6748 C   0  0  0  0  0  0  0  0  0  0  0  0
   13.6311  -13.5945   -1.4765 O   0  0  0  0  0  0  0  0  0  0  0  0
   15.0268  -13.8025   -1.6941 C   0  0  0  0  0  0  0  0  0  0  0  0
   15.7305  -12.7896   -0.9877 O   0  0  0  0  0  0  0  0  0  0  0  0
    9.1015   -7.6188   -0.6182 C   0  0  0  0  0  0  0  0  0  0  0  0
    9.5869   -6.2768   -1.1860 C   0  0  0  0  0  0  0  0  0  0  0  0
   11.5599   -2.6029   -3.0811 C   0  0  0  0  0  0  0  0  0  0  0  0
   12.2751   -3.7833   -3.1961 C   0  0  0  0  0  0  0  0  0  0  0  0
   14.9798   -5.4072   -2.2143 H   0  0  0  0  0  0  0  0  0  0  0  0
   13.7150   -6.0399   -3.2879 H   0  0  0  0  0  0  0  0  0  0  0  0
   13.6308   -6.3223   -1.5331 H   0  0  0  0  0  0  0  0  0  0  0  0
   13.8260   -3.8655   -0.1336 H   0  0  0  0  0  0  0  0  0  0  0  0
   12.5635   -1.7814    0.1463 H   0  0  0  0  0  0  0  0  0  0  0  0
    9.9640    2.9341   -0.7737 H   0  0  0  0  0  0  0  0  0  0  0  0
    8.2104    2.6620   -1.0121 H   0  0  0  0  0  0  0  0  0  0  0  0
    9.3241    2.7438   -2.4118 H   0  0  0  0  0  0  0  0  0  0  0  0
    7.5946   -0.0306   -0.4656 H   0  0  0  0  0  0  0  0  0  0  0  0
    9.8864   -3.2432   -0.9572 H   0  0  0  0  0  0  0  0  0  0  0  0
    7.4094   -4.9771   -1.0952 H   0  0  0  0  0  0  0  0  0  0  0  0
    7.4037   -4.9241    0.6657 H   0  0  0  0  0  0  0  0  0  0  0  0
    9.7587   -4.5147    1.6843 H   0  0  0  0  0  0  0  0  0  0  0  0
   11.0705   -5.3831    0.8735 H   0  0  0  0  0  0  0  0  0  0  0  0
    8.4813   -6.6179    1.9926 H   0  0  0  0  0  0  0  0  0  0  0  0
   10.1218   -6.8265    2.6251 H   0  0  0  0  0  0  0  0  0  0  0  0
    9.1559   -8.7554    1.2221 H   0  0  0  0  0  0  0  0  0  0  0  0
   10.4908  -10.1164   -0.0482 H   0  0  0  0  0  0  0  0  0  0  0  0
   13.9011   -8.8600    0.6656 H   0  0  0  0  0  0  0  0  0  0  0  0
   15.9557  -10.2208    0.1649 H   0  0  0  0  0  0  0  0  0  0  0  0
   11.3896  -12.0274   -0.9145 H   0  0  0  0  0  0  0  0  0  0  0  0
   15.2460  -13.7280   -2.7785 H   0  0  0  0  0  0  0  0  0  0  0  0
   15.3162  -14.7949   -1.3126 H   0  0  0  0  0  0  0  0  0  0  0  0
    8.0012   -7.6025   -0.5220 H   0  0  0  0  0  0  0  0  0  0  0  0
    9.3387   -8.4285   -1.3284 H   0  0  0  0  0  0  0  0  0  0  0  0
    9.1064   -6.0683   -2.1548 H   0  0  0  0  0  0  0  0  0  0  0  0
   10.6707   -6.3103   -1.3810 H   0  0  0  0  0  0  0  0  0  0  0  0
   10.9786   -2.2239   -3.9256 H   0  0  0  0  0  0  0  0  0  0  0  0
   12.2167   -4.3358   -4.1416 H   0  0  0  0  0  0  0  0  0  0  0  0
  1  2  1  0
  1 36  1  0
  1 37  1  0
  1 38  1  0
  2  3  2  0
  2 35  1  0
  3  4  1  0
  3 39  1  0
  4  5  2  0
  4 40  1  0
  5  6  1  0
  5 34  1  0
  6  7  1  0
  6 11  1  0
  7  8  2  0
  8  9  1  0
  8 10  1  0
  9 41  1  0
  9 42  1  0
  9 43  1  0
 10 11  2  0
 10 44  1  0
 11 12  1  0
 12 13  1  0
 12 45  1  0
 13 14  2  0
 13 15  1  0
 15 16  1  0
 15 46  1  0
 15 47  1  0
 16 17  1  0
 16 33  1  0
 17 18  1  0
 17 48  1  0
 17 49  1  0
 18 19  1  0
 18 50  1  0
 18 51  1  0
 19 20  1  0
 19 32  1  0
 19 52  1  1
 20 21  2  0
 20 22  1  0
 22 23  1  0
 22 53  1  0
 23 24  2  0
 23 28  1  0
 24 25  1  0
 24 54  1  0
 25 26  2  0
 25 55  1  0
 26 27  1  0
 26 31  1  0
 27 28  2  0
 27 29  1  0
 28 56  1  0
 29 30  1  0
 30 31  1  0
 30 57  1  0
 30 58  1  0
 32 33  1  0
 32 59  1  0
 32 60  1  0
 33 61  1  0
 33 62  1  0
 34 35  2  0
 34 63  1  0
 35 64  1  0
M  END

