
     RDKit          3D

 59 61  0  0  0  0  0  0  0  0999 V2000
    9.4553   -6.6214   -1.4334 C   0  0  0  0  0  0  0  0  0  0  0  0
    8.6854   -5.9694   -0.2810 C   0  0  0  0  0  0  0  0  0  0  0  0
    8.5920   -4.4266   -0.3053 C   0  0  1  0  0  0  0  0  0  0  0  0
    9.9665   -3.7753   -0.1696 C   0  0  0  0  0  0  0  0  0  0  0  0
    7.8766   -3.8880   -1.5600 C   0  0  0  0  0  0  0  0  0  0  0  0
    6.4596   -4.2203   -1.5595 N   0  0  0  0  0  0  0  0  0  0  0  0
    5.9350   -4.9643   -2.6039 C   0  0  0  0  0  0  0  0  0  0  0  0
    6.6513   -5.4854   -3.4523 O   0  0  0  0  0  0  0  0  0  0  0  0
    4.5595   -5.1001   -2.6262 N   0  0  0  0  0  0  0  0  0  0  0  0
    3.8995   -5.7649   -3.7519 C   0  0  2  0  0  0  0  0  0  0  0  0
    4.5851   -6.5694   -4.0595 H   0  0  0  0  0  0  0  0  0  0  0  0
    3.7439   -4.8035   -4.9387 C   0  0  0  0  0  0  0  0  0  0  0  0
    2.5763   -6.3961   -3.2622 C   0  0  2  0  0  0  0  0  0  0  0  0
    1.9431   -5.5868   -2.8466 H   0  0  0  0  0  0  0  0  0  0  0  0
    2.8108   -7.4387   -2.1563 C   0  0  0  0  0  0  0  0  0  0  0  0
    1.5003   -8.0995   -1.7227 C   0  0  0  0  0  0  0  0  0  0  0  0
    0.7449   -8.6599   -2.9270 C   0  0  0  0  0  0  0  0  0  0  0  0
    0.5224   -7.6221   -3.9258 N   0  0  0  0  0  0  0  0  0  0  0  0
   -0.3376   -8.0580   -5.0070 C   0  0  1  0  0  0  0  0  0  0  0  0
   -1.8028   -8.4305   -4.6614 C   0  0  0  0  0  0  0  0  0  0  0  0
   -2.2493   -7.7133   -5.9603 C   0  0  0  0  0  0  0  0  0  0  0  0
   -0.8844   -6.9803   -5.9794 C   0  0  0  0  0  0  0  0  0  0  0  0
    1.7681   -7.0339   -4.4039 C   0  0  0  0  0  0  0  0  0  0  0  0
    5.7588   -3.7566   -0.3732 C   0  0  0  0  0  0  0  0  0  0  0  0
    6.4841   -4.2582    0.8814 C   0  0  0  0  0  0  0  0  0  0  0  0
    7.8625   -3.9668    0.8561 O   0  0  0  0  0  0  0  0  0  0  0  0
    9.5132   -7.7108   -1.2796 H   0  0  0  0  0  0  0  0  0  0  0  0
   10.4899   -6.2507   -1.5105 H   0  0  0  0  0  0  0  0  0  0  0  0
    8.9498   -6.4557   -2.3972 H   0  0  0  0  0  0  0  0  0  0  0  0
    9.1381   -6.2420    0.6878 H   0  0  0  0  0  0  0  0  0  0  0  0
    7.6672   -6.3903   -0.2726 H   0  0  0  0  0  0  0  0  0  0  0  0
   10.6000   -3.9835   -1.0442 H   0  0  0  0  0  0  0  0  0  0  0  0
   10.4758   -4.1489    0.7316 H   0  0  0  0  0  0  0  0  0  0  0  0
    9.8552   -2.6852   -0.0693 H   0  0  0  0  0  0  0  0  0  0  0  0
    8.3206   -4.2865   -2.4788 H   0  0  0  0  0  0  0  0  0  0  0  0
    7.9849   -2.7866   -1.5671 H   0  0  0  0  0  0  0  0  0  0  0  0
    4.0063   -4.3958   -2.1518 H   0  0  0  0  0  0  0  0  0  0  0  0
    3.3770   -5.3173   -5.8399 H   0  0  0  0  0  0  0  0  0  0  0  0
    4.7237   -4.3684   -5.1837 H   0  0  0  0  0  0  0  0  0  0  0  0
    3.0423   -3.9839   -4.7040 H   0  0  0  0  0  0  0  0  0  0  0  0
    3.3207   -6.9760   -1.2977 H   0  0  0  0  0  0  0  0  0  0  0  0
    3.4994   -8.2120   -2.5452 H   0  0  0  0  0  0  0  0  0  0  0  0
    0.8577   -7.3583   -1.2166 H   0  0  0  0  0  0  0  0  0  0  0  0
    1.6966   -8.9074   -0.9982 H   0  0  0  0  0  0  0  0  0  0  0  0
   -0.2304   -9.0613   -2.6097 H   0  0  0  0  0  0  0  0  0  0  0  0
    1.3179   -9.5178   -3.3564 H   0  0  0  0  0  0  0  0  0  0  0  0
    0.1304   -8.8854   -5.5914 H   0  0  0  0  0  0  0  0  0  0  0  0
   -2.1299   -7.8816   -3.7644 H   0  0  0  0  0  0  0  0  0  0  0  0
   -2.0536   -9.4958   -4.5443 H   0  0  0  0  0  0  0  0  0  0  0  0
   -3.1565   -7.0928   -5.9098 H   0  0  0  0  0  0  0  0  0  0  0  0
   -2.3554   -8.4126   -6.8042 H   0  0  0  0  0  0  0  0  0  0  0  0
   -0.9426   -6.0058   -5.4694 H   0  0  0  0  0  0  0  0  0  0  0  0
   -0.3790   -6.8506   -6.9487 H   0  0  0  0  0  0  0  0  0  0  0  0
    1.5148   -6.2755   -5.1579 H   0  0  0  0  0  0  0  0  0  0  0  0
    2.4079   -7.7935   -4.9183 H   0  0  0  0  0  0  0  0  0  0  0  0
    4.7263   -4.1302   -0.3528 H   0  0  0  0  0  0  0  0  0  0  0  0
    5.7245   -2.6491   -0.3621 H   0  0  0  0  0  0  0  0  0  0  0  0
    6.3001   -5.3446    0.9923 H   0  0  0  0  0  0  0  0  0  0  0  0
    6.0766   -3.7595    1.7755 H   0  0  0  0  0  0  0  0  0  0  0  0
  1  2  1  0
  1 27  1  0
  1 28  1  0
  1 29  1  0
  3  2  1  6
  2 30  1  0
  2 31  1  0
  3  4  1  0
  3  5  1  0
  3 26  1  0
  4 32  1  0
  4 33  1  0
  4 34  1  0
  5  6  1  0
  5 35  1  0
  5 36  1  0
  6  7  1  0
  6 24  1  0
  7  8  2  0
  7  9  1  0
  9 10  1  0
  9 37  1  0
 10 11  1  6
 10 12  1  0
 10 13  1  0
 12 38  1  0
 12 39  1  0
 12 40  1  0
 13 14  1  1
 13 15  1  0
 13 23  1  0
 15 16  1  0
 15 41  1  0
 15 42  1  0
 16 17  1  0
 16 43  1  0
 16 44  1  0
 17 18  1  0
 17 45  1  0
 17 46  1  0
 18 19  1  0
 18 23  1  0
 19 20  1  0
 19 22  1  0
 19 47  1  6
 20 21  1  0
 20 48  1  0
 20 49  1  0
 21 22  1  0
 21 50  1  0
 21 51  1  0
 22 52  1  0
 22 53  1  0
 23 54  1  0
 23 55  1  0
 24 25  1  0
 24 56  1  0
 24 57  1  0
 25 26  1  0
 25 58  1  0
 25 59  1  0
M  END

