
     RDKit          3D

 46 47  0  0  0  0  0  0  0  0999 V2000
    1.3075   -0.0805    0.3158 C   0  0  0  0  0  0  0  0  0  0  0  0
    2.8106    0.1037    0.2118 C   0  0  0  0  0  0  0  0  0  0  0  0
    3.4032   -1.1520   -0.0381 O   0  0  0  0  0  0  0  0  0  0  0  0
    4.8039   -1.1401   -0.2272 C   0  0  1  0  0  0  0  0  0  0  0  0
    5.5385   -0.7741    1.0590 C   0  0  0  0  0  0  0  0  0  0  0  0
    5.2081   -1.4374    2.1703 N   0  0  0  0  0  0  0  0  0  0  0  0
    5.8585   -1.0964    3.2814 C   0  0  0  0  0  0  0  0  0  0  0  0
    6.8315   -0.0909    3.3331 C   0  0  0  0  0  0  0  0  0  0  0  0
    7.5112    0.2752    4.6499 C   0  0  1  0  0  0  0  0  0  0  0  0
    7.0608    1.6392    5.1864 C   0  0  0  0  0  0  0  0  0  0  0  0
    7.3431   -0.7281    5.6356 O   0  0  0  0  0  0  0  0  0  0  0  0
    7.1367    0.5192    2.0971 C   0  0  0  0  0  0  0  0  0  0  0  0
    8.1964    1.5799    1.9374 C   0  0  0  0  0  0  0  0  0  0  0  0
    6.4813    0.1696    0.9815 N   0  0  0  0  0  0  0  0  0  0  0  0
    5.2059   -2.5473   -0.7288 C   0  0  1  0  0  0  0  0  0  0  0  0
    4.4363   -2.9448   -2.0055 C   0  0  0  0  0  0  0  0  0  0  0  0
    4.9284   -2.2083   -3.2597 C   0  0  0  0  0  0  0  0  0  0  0  0
    6.4399   -2.3785   -3.4624 C   0  0  0  0  0  0  0  0  0  0  0  0
    7.2266   -1.9668   -2.2106 C   0  0  0  0  0  0  0  0  0  0  0  0
    6.7233   -2.7048   -0.9607 C   0  0  0  0  0  0  0  0  0  0  0  0
    0.8122    0.8817    0.5216 H   0  0  0  0  0  0  0  0  0  0  0  0
    1.0631   -0.7812    1.1289 H   0  0  0  0  0  0  0  0  0  0  0  0
    0.8991   -0.4894   -0.6216 H   0  0  0  0  0  0  0  0  0  0  0  0
    3.2037    0.5445    1.1503 H   0  0  0  0  0  0  0  0  0  0  0  0
    3.0617    0.8150   -0.6031 H   0  0  0  0  0  0  0  0  0  0  0  0
    5.0775   -0.3658   -0.9683 H   0  0  0  0  0  0  0  0  0  0  0  0
    5.6179   -1.6632    4.1867 H   0  0  0  0  0  0  0  0  0  0  0  0
    8.5994    0.3140    4.4685 H   0  0  0  0  0  0  0  0  0  0  0  0
    5.9749    1.6312    5.3848 H   0  0  0  0  0  0  0  0  0  0  0  0
    7.2597    2.4538    4.4753 H   0  0  0  0  0  0  0  0  0  0  0  0
    7.5877    1.8624    6.1269 H   0  0  0  0  0  0  0  0  0  0  0  0
    6.4868   -0.5960    6.0645 H   0  0  0  0  0  0  0  0  0  0  0  0
    7.7944    2.5772    2.1859 H   0  0  0  0  0  0  0  0  0  0  0  0
    8.5199    1.6082    0.8886 H   0  0  0  0  0  0  0  0  0  0  0  0
    9.0682    1.4066    2.5860 H   0  0  0  0  0  0  0  0  0  0  0  0
    4.9037   -3.2272    0.0856 H   0  0  0  0  0  0  0  0  0  0  0  0
    3.3611   -2.7754   -1.8515 H   0  0  0  0  0  0  0  0  0  0  0  0
    4.5694   -4.0316   -2.1560 H   0  0  0  0  0  0  0  0  0  0  0  0
    4.6898   -1.1321   -3.1795 H   0  0  0  0  0  0  0  0  0  0  0  0
    4.3808   -2.5727   -4.1455 H   0  0  0  0  0  0  0  0  0  0  0  0
    6.7800   -1.7998   -4.3383 H   0  0  0  0  0  0  0  0  0  0  0  0
    6.6553   -3.4396   -3.6901 H   0  0  0  0  0  0  0  0  0  0  0  0
    7.1398   -0.8765   -2.0580 H   0  0  0  0  0  0  0  0  0  0  0  0
    8.3021   -2.1687   -2.3533 H   0  0  0  0  0  0  0  0  0  0  0  0
    7.2925   -2.3827   -0.0737 H   0  0  0  0  0  0  0  0  0  0  0  0
    6.9316   -3.7835   -1.0784 H   0  0  0  0  0  0  0  0  0  0  0  0
  1  2  1  0
  1 21  1  0
  1 22  1  0
  1 23  1  0
  2  3  1  0
  2 24  1  0
  2 25  1  0
  3  4  1  0
  4  5  1  0
  4 15  1  0
  4 26  1  6
  5  6  2  0
  5 14  1  0
  6  7  1  0
  7  8  2  0
  7 27  1  0
  8  9  1  0
  8 12  1  0
  9 10  1  0
  9 11  1  0
  9 28  1  6
 10 29  1  0
 10 30  1  0
 10 31  1  0
 11 32  1  0
 12 13  1  0
 12 14  2  0
 13 33  1  0
 13 34  1  0
 13 35  1  0
 15 16  1  0
 15 20  1  0
 15 36  1  1
 16 17  1  0
 16 37  1  0
 16 38  1  0
 17 18  1  0
 17 39  1  0
 17 40  1  0
 18 19  1  0
 18 41  1  0
 18 42  1  0
 19 20  1  0
 19 43  1  0
 19 44  1  0
 20 45  1  0
 20 46  1  0
M  END

