
     RDKit          3D

 40 41  0  0  0  0  0  0  0  0999 V2000
    4.1706    0.9635    1.5452 C   0  0  0  0  0  0  0  0  0  0  0  0
    3.5576   -0.3069    1.5519 O   0  0  0  0  0  0  0  0  0  0  0  0
    4.1289   -1.3478    0.8406 C   0  0  0  0  0  0  0  0  0  0  0  0
    5.3466   -1.2209    0.1932 C   0  0  0  0  0  0  0  0  0  0  0  0
    5.9123   -2.2952   -0.5324 C   0  0  0  0  0  0  0  0  0  0  0  0
    5.2002   -3.5027   -0.5826 C   0  0  0  0  0  0  0  0  0  0  0  0
    5.9487   -4.9712   -1.5618 Br  0  0  0  0  0  0  0  0  0  0  0  0
    3.9832   -3.6641    0.0488 C   0  0  0  0  0  0  0  0  0  0  0  0
    3.3902   -2.5870    0.7975 C   0  0  0  0  0  0  0  0  0  0  0  0
    2.1263   -2.8535    1.4096 C   0  0  0  0  0  0  0  0  0  0  0  0
    1.4969   -3.9336    1.3210 O   0  0  0  0  0  0  0  0  0  0  0  0
    1.5088   -1.8235    2.1994 N   0  0  0  0  0  0  0  0  0  0  0  0
    0.3353   -2.0070    2.7958 C   0  0  0  0  0  0  0  0  0  0  0  0
   -0.5378   -3.4854    2.6552 S   0  0  0  0  0  0  0  0  0  0  0  0
   -0.2138   -1.0207    3.5426 N   0  0  0  0  0  0  0  0  0  0  0  0
    0.3758    0.2188    3.9341 C   0  0  0  0  0  0  0  0  0  0  0  0
   -0.3358    1.4053    3.7374 C   0  0  0  0  0  0  0  0  0  0  0  0
    0.2091    2.6118    4.1795 C   0  0  0  0  0  0  0  0  0  0  0  0
    1.4616    2.6709    4.8056 C   0  0  0  0  0  0  0  0  0  0  0  0
    2.0233    3.9903    5.2716 C   0  0  0  0  0  0  0  0  0  0  0  0
    2.1833    1.4674    4.9990 C   0  0  0  0  0  0  0  0  0  0  0  0
    3.5273    1.4767    5.6839 C   0  0  0  0  0  0  0  0  0  0  0  0
    1.6252    0.2572    4.5683 C   0  0  0  0  0  0  0  0  0  0  0  0
    3.5174    1.6291    2.1252 H   0  0  0  0  0  0  0  0  0  0  0  0
    4.2740    1.3574    0.5192 H   0  0  0  0  0  0  0  0  0  0  0  0
    5.1690    0.9363    2.0167 H   0  0  0  0  0  0  0  0  0  0  0  0
    5.8945   -0.2798    0.2335 H   0  0  0  0  0  0  0  0  0  0  0  0
    6.8703   -2.1815   -1.0373 H   0  0  0  0  0  0  0  0  0  0  0  0
    3.4424   -4.6072   -0.0015 H   0  0  0  0  0  0  0  0  0  0  0  0
    2.0032   -0.9271    2.2378 H   0  0  0  0  0  0  0  0  0  0  0  0
   -1.1653   -1.1907    3.8515 H   0  0  0  0  0  0  0  0  0  0  0  0
   -1.3086    1.3845    3.2407 H   0  0  0  0  0  0  0  0  0  0  0  0
   -0.3546    3.5360    4.0271 H   0  0  0  0  0  0  0  0  0  0  0  0
    1.3426    4.8210    5.0374 H   0  0  0  0  0  0  0  0  0  0  0  0
    2.9963    4.2080    4.7997 H   0  0  0  0  0  0  0  0  0  0  0  0
    2.1971    3.9939    6.3609 H   0  0  0  0  0  0  0  0  0  0  0  0
    4.2497    2.1157    5.1490 H   0  0  0  0  0  0  0  0  0  0  0  0
    3.9550    0.4663    5.7464 H   0  0  0  0  0  0  0  0  0  0  0  0
    3.4551    1.8775    6.7090 H   0  0  0  0  0  0  0  0  0  0  0  0
    2.1687   -0.6738    4.7435 H   0  0  0  0  0  0  0  0  0  0  0  0
  1  2  1  0
  1 24  1  0
  1 25  1  0
  1 26  1  0
  2  3  1  0
  3  4  2  0
  3  9  1  0
  4  5  1  0
  4 27  1  0
  5  6  2  0
  5 28  1  0
  6  7  1  0
  6  8  1  0
  8  9  2  0
  8 29  1  0
  9 10  1  0
 10 11  2  0
 10 12  1  0
 12 13  1  0
 12 30  1  0
 13 14  2  0
 13 15  1  0
 15 16  1  0
 15 31  1  0
 16 17  2  0
 16 23  1  0
 17 18  1  0
 17 32  1  0
 18 19  2  0
 18 33  1  0
 19 20  1  0
 19 21  1  0
 20 34  1  0
 20 35  1  0
 20 36  1  0
 21 22  1  0
 21 23  2  0
 22 37  1  0
 22 38  1  0
 22 39  1  0
 23 40  1  0
M  END

