
     RDKit          3D

 55 57  0  0  0  0  0  0  0  0999 V2000
    1.1646    1.7891    0.1643 C   0  0  0  0  0  0  0  0  0  0  0  0
    2.4139    1.4961    0.7431 O   0  0  0  0  0  0  0  0  0  0  0  0
    2.4935    1.2133    2.1515 C   0  0  1  0  0  0  0  0  0  0  0  0
    1.8146   -0.1770    2.4362 C   0  0  1  0  0  0  0  0  0  0  0  0
    2.3384   -1.2925    1.5297 C   0  0  0  0  0  0  0  0  0  0  0  0
    1.9130   -0.6241    3.8303 N   0  0  0  0  0  0  0  0  0  0  0  0
    1.1205   -0.0688    4.8322 C   0  0  0  0  0  0  0  0  0  0  0  0
   -0.1960   -0.0403    4.5458 O   0  0  0  0  0  0  0  0  0  0  0  0
    1.4252   -0.3887    6.2655 C   0  0  1  0  0  0  0  0  0  0  0  0
    2.8637   -0.0094    6.7111 C   0  0  0  0  0  0  0  0  0  0  0  0
    2.3381    1.2404    7.2648 N   0  0  0  0  0  0  0  0  0  0  0  0
    2.9182    1.8125    8.4682 C   0  0  1  0  0  0  0  0  0  0  0  0
    4.3964    2.1754    8.2314 C   0  0  0  0  0  0  0  0  0  0  0  0
    4.5754    3.3440    7.2517 C   0  0  0  0  0  0  0  0  0  0  0  0
    3.7689    4.5727    7.6930 C   0  0  0  0  0  0  0  0  0  0  0  0
    2.2903    4.2277    7.9154 C   0  0  0  0  0  0  0  0  0  0  0  0
    2.1284    3.0618    8.9002 C   0  0  0  0  0  0  0  0  0  0  0  0
    0.9684    0.7102    7.2658 C   0  0  0  0  0  0  0  0  0  0  0  0
    4.0081    1.1903    2.4351 C   0  0  0  0  0  0  0  0  0  0  0  0
    4.6258    2.5855    2.3163 C   0  0  0  0  0  0  0  0  0  0  0  0
    3.9816    3.5193    3.1598 O   0  0  0  0  0  0  0  0  0  0  0  0
    2.6108    3.6613    2.8375 C   0  0  0  0  0  0  0  0  0  0  0  0
    1.8602    2.3386    2.9947 C   0  0  0  0  0  0  0  0  0  0  0  0
    1.3365    1.8893   -0.9180 H   0  0  0  0  0  0  0  0  0  0  0  0
    0.7306    2.7379    0.5293 H   0  0  0  0  0  0  0  0  0  0  0  0
    0.4144    0.9903    0.3155 H   0  0  0  0  0  0  0  0  0  0  0  0
    0.7385   -0.0487    2.2410 H   0  0  0  0  0  0  0  0  0  0  0  0
    3.3787   -1.5569    1.7819 H   0  0  0  0  0  0  0  0  0  0  0  0
    2.3217   -0.9856    0.4755 H   0  0  0  0  0  0  0  0  0  0  0  0
    1.7259   -2.1970    1.6564 H   0  0  0  0  0  0  0  0  0  0  0  0
    2.8620   -0.8101    4.1388 H   0  0  0  0  0  0  0  0  0  0  0  0
    1.0983   -1.4173    6.5300 H   0  0  0  0  0  0  0  0  0  0  0  0
    3.6401    0.1054    5.9339 H   0  0  0  0  0  0  0  0  0  0  0  0
    3.2423   -0.7158    7.4811 H   0  0  0  0  0  0  0  0  0  0  0  0
    2.8720    1.0667    9.2993 H   0  0  0  0  0  0  0  0  0  0  0  0
    4.9525    1.2881    7.8833 H   0  0  0  0  0  0  0  0  0  0  0  0
    4.8368    2.4423    9.2087 H   0  0  0  0  0  0  0  0  0  0  0  0
    4.2536    3.0438    6.2401 H   0  0  0  0  0  0  0  0  0  0  0  0
    5.6456    3.6008    7.1734 H   0  0  0  0  0  0  0  0  0  0  0  0
    3.8661    5.3785    6.9462 H   0  0  0  0  0  0  0  0  0  0  0  0
    4.1932    4.9694    8.6351 H   0  0  0  0  0  0  0  0  0  0  0  0
    1.8316    3.9522    6.9507 H   0  0  0  0  0  0  0  0  0  0  0  0
    1.7422    5.1101    8.2875 H   0  0  0  0  0  0  0  0  0  0  0  0
    1.0626    2.8083    9.0304 H   0  0  0  0  0  0  0  0  0  0  0  0
    2.4931    3.3651    9.8978 H   0  0  0  0  0  0  0  0  0  0  0  0
    0.1836    1.4056    6.9275 H   0  0  0  0  0  0  0  0  0  0  0  0
    0.6680    0.2703    8.2404 H   0  0  0  0  0  0  0  0  0  0  0  0
    4.5066    0.5087    1.7284 H   0  0  0  0  0  0  0  0  0  0  0  0
    4.1849    0.8168    3.4566 H   0  0  0  0  0  0  0  0  0  0  0  0
    4.5723    2.9198    1.2618 H   0  0  0  0  0  0  0  0  0  0  0  0
    5.6849    2.5662    2.6158 H   0  0  0  0  0  0  0  0  0  0  0  0
    2.5057    4.0499    1.8039 H   0  0  0  0  0  0  0  0  0  0  0  0
    2.2026    4.4185    3.5242 H   0  0  0  0  0  0  0  0  0  0  0  0
    0.7941    2.4649    2.7465 H   0  0  0  0  0  0  0  0  0  0  0  0
    1.8881    2.0371    4.0548 H   0  0  0  0  0  0  0  0  0  0  0  0
  1  2  1  0
  1 24  1  0
  1 25  1  0
  1 26  1  0
  3  2  1  6
  3  4  1  0
  3 19  1  0
  3 23  1  0
  4  5  1  0
  4  6  1  0
  4 27  1  1
  5 28  1  0
  5 29  1  0
  5 30  1  0
  6  7  1  0
  6 31  1  0
  7  8  2  0
  7  9  1  0
  9 10  1  0
  9 18  1  0
  9 32  1  1
 10 11  1  0
 10 33  1  0
 10 34  1  0
 11 12  1  0
 11 18  1  0
 12 13  1  0
 12 17  1  0
 12 35  1  1
 13 14  1  0
 13 36  1  0
 13 37  1  0
 14 15  1  0
 14 38  1  0
 14 39  1  0
 15 16  1  0
 15 40  1  0
 15 41  1  0
 16 17  1  0
 16 42  1  0
 16 43  1  0
 17 44  1  0
 17 45  1  0
 18 46  1  0
 18 47  1  0
 19 20  1  0
 19 48  1  0
 19 49  1  0
 20 21  1  0
 20 50  1  0
 20 51  1  0
 21 22  1  0
 22 23  1  0
 22 52  1  0
 22 53  1  0
 23 54  1  0
 23 55  1  0
M  END

