
     RDKit          3D

 30 30  0  0  0  0  0  0  0  0999 V2000
    1.1057   -0.3302    0.0317 C   0  0  0  0  0  0  0  0  0  0  0  0
    2.6009   -0.1498    0.0544 C   0  0  0  0  0  0  0  0  0  0  0  0
    3.1942    1.1233    0.0944 C   0  0  0  0  0  0  0  0  0  0  0  0
    4.5930    1.1811    0.1200 C   0  0  0  0  0  0  0  0  0  0  0  0
    5.3357    2.4904    0.1708 C   0  0  0  0  0  0  0  0  0  0  0  0
    5.3360    0.0699    0.1054 N   0  0  0  0  0  0  0  0  0  0  0  0
    4.6783   -1.1021    0.0542 C   0  0  0  0  0  0  0  0  0  0  0  0
    5.4166   -2.2459    0.0108 N   0  0  0  0  0  0  0  0  0  0  0  0
    6.8617   -2.2947    0.0357 C   0  0  0  0  0  0  0  0  0  0  0  0
    7.4518   -2.1715    1.4533 C   0  0  0  0  0  0  0  0  0  0  0  0
    8.9025   -2.2041    1.4761 N   0  0  0  0  0  0  0  0  0  0  0  0
    9.5757   -3.4007    1.3384 C   0  0  0  0  0  0  0  0  0  0  0  0
   10.9538   -3.2725    1.2420 N   0  0  0  0  0  0  0  0  0  0  0  0
    9.0096   -4.4804    1.2890 O   0  0  0  0  0  0  0  0  0  0  0  0
    3.3397   -1.2580    0.0328 N   0  0  0  0  0  0  0  0  0  0  0  0
    0.5717    0.6297    0.0673 H   0  0  0  0  0  0  0  0  0  0  0  0
    0.7887   -0.9494    0.8860 H   0  0  0  0  0  0  0  0  0  0  0  0
    0.8063   -0.8721   -0.8798 H   0  0  0  0  0  0  0  0  0  0  0  0
    2.5886    2.0304    0.1107 H   0  0  0  0  0  0  0  0  0  0  0  0
    4.6549    3.3531    0.1769 H   0  0  0  0  0  0  0  0  0  0  0  0
    6.0110    2.5741   -0.6959 H   0  0  0  0  0  0  0  0  0  0  0  0
    5.9693    2.5297    1.0717 H   0  0  0  0  0  0  0  0  0  0  0  0
    4.8798   -3.1041    0.0167 H   0  0  0  0  0  0  0  0  0  0  0  0
    7.2557   -1.4788   -0.5906 H   0  0  0  0  0  0  0  0  0  0  0  0
    7.1867   -3.2519   -0.3980 H   0  0  0  0  0  0  0  0  0  0  0  0
    7.0823   -3.0017    2.0730 H   0  0  0  0  0  0  0  0  0  0  0  0
    7.1135   -1.2269    1.9049 H   0  0  0  0  0  0  0  0  0  0  0  0
    9.3907   -1.3519    1.2257 H   0  0  0  0  0  0  0  0  0  0  0  0
   11.4041   -2.4891    1.7025 H   0  0  0  0  0  0  0  0  0  0  0  0
   11.4475   -4.1541    1.3243 H   0  0  0  0  0  0  0  0  0  0  0  0
  1  2  1  0
  1 16  1  0
  1 17  1  0
  1 18  1  0
  2  3  2  0
  2 15  1  0
  3  4  1  0
  3 19  1  0
  4  5  1  0
  4  6  2  0
  5 20  1  0
  5 21  1  0
  5 22  1  0
  6  7  1  0
  7  8  1  0
  7 15  2  0
  8  9  1  0
  8 23  1  0
  9 10  1  0
  9 24  1  0
  9 25  1  0
 10 11  1  0
 10 26  1  0
 10 27  1  0
 11 12  1  0
 11 28  1  0
 12 13  1  0
 12 14  2  0
 13 29  1  0
 13 30  1  0
M  END

