
     RDKit          3D

 84 90  0  0  0  0  0  0  0  0999 V2000
    3.6517   -2.7909    0.7696 C   0  0  0  0  0  0  0  0  0  0  0  0
    4.3599   -1.4841    0.8087 C   0  0  0  0  0  0  0  0  0  0  0  0
    5.4223   -1.1222    0.1644 N   0  0  0  0  0  0  0  0  0  0  0  0
    5.7246    0.1478    0.6297 C   0  0  0  0  0  0  0  0  0  0  0  0
    6.9109    0.9030    0.1195 C   0  0  0  0  0  0  0  0  0  0  0  0
    6.8011    2.0538   -0.2790 O   0  0  0  0  0  0  0  0  0  0  0  0
    8.1179    0.2210    0.0927 N   0  0  0  0  0  0  0  0  0  0  0  0
    9.2455    0.8228   -0.5324 C   0  0  0  0  0  0  0  0  0  0  0  0
    9.6593    2.1222   -0.1974 C   0  0  0  0  0  0  0  0  0  0  0  0
   10.7466    2.7069   -0.8377 C   0  0  0  0  0  0  0  0  0  0  0  0
   11.4530    1.9965   -1.8150 C   0  0  0  0  0  0  0  0  0  0  0  0
   11.0700    0.6976   -2.1314 C   0  0  0  0  0  0  0  0  0  0  0  0
   11.7060   -0.0646   -3.0751 O   0  0  0  0  0  0  0  0  0  0  0  0
    9.9622    0.0866   -1.4935 C   0  0  0  0  0  0  0  0  0  0  0  0
    9.6550   -1.2125   -1.9204 N   0  0  0  0  0  0  0  0  0  0  0  0
    8.9746   -2.2544   -1.3422 C   0  0  0  0  0  0  0  0  0  0  0  0
    8.3838   -2.2526   -0.1049 C   0  0  0  0  0  0  0  0  0  0  0  0
    7.6549   -3.4339    0.3748 C   0  0  0  0  0  0  0  0  0  0  0  0
    7.1413   -3.4704    1.4878 O   0  0  0  0  0  0  0  0  0  0  0  0
    7.4922   -4.6146   -0.5737 C   0  0  0  0  0  0  0  0  0  0  0  0
    8.6558   -4.8060   -1.5609 C   0  0  1  0  0  0  0  0  0  0  0  0
    9.9263   -5.2569   -0.8145 C   0  0  0  0  0  0  0  0  0  0  0  0
    8.2914   -5.8689   -2.6105 C   0  0  0  0  0  0  0  0  0  0  0  0
    8.8839   -3.4545   -2.2648 C   0  0  0  0  0  0  0  0  0  0  0  0
    8.3509   -1.0573    0.8192 C   0  0  1  0  0  0  0  0  0  0  0  0
    9.5420   -0.9158    1.7609 C   0  0  0  0  0  0  0  0  0  0  0  0
   10.7593   -1.5830    1.6134 C   0  0  0  0  0  0  0  0  0  0  0  0
   11.8198   -1.4209    2.5141 C   0  0  0  0  0  0  0  0  0  0  0  0
   11.6718   -0.5588    3.6107 C   0  0  0  0  0  0  0  0  0  0  0  0
   12.6286   -0.3160    4.5395 O   0  0  0  0  0  0  0  0  0  0  0  0
   13.8699   -1.0073    4.4646 C   0  0  0  0  0  0  0  0  0  0  0  0
   14.7225   -0.6075    5.6357 C   0  0  0  0  0  0  0  0  0  0  0  0
   15.9648   -0.1069    5.4761 C   0  0  0  0  0  0  0  0  0  0  0  0
   16.8426    0.1859    6.6679 C   0  0  0  0  0  0  0  0  0  0  0  0
   16.0227    0.5840    7.9043 C   0  0  0  0  0  0  0  0  0  0  0  0
   14.7962   -0.2812    8.0666 C   0  0  0  0  0  0  0  0  0  0  0  0
   14.1905   -0.8201    6.9934 C   0  0  0  0  0  0  0  0  0  0  0  0
   10.4561    0.1251    3.7896 C   0  0  0  0  0  0  0  0  0  0  0  0
    9.4345   -0.0675    2.8755 C   0  0  0  0  0  0  0  0  0  0  0  0
    8.2778    0.5939    3.0650 F   0  0  0  0  0  0  0  0  0  0  0  0
    4.7732    0.5287    1.5551 C   0  0  0  0  0  0  0  0  0  0  0  0
    4.5034    1.6856    2.4091 C   0  0  0  0  0  0  0  0  0  0  0  0
    3.7100    1.5265    3.5642 C   0  0  0  0  0  0  0  0  0  0  0  0
    3.4367    2.6148    4.3917 C   0  0  0  0  0  0  0  0  0  0  0  0
    3.9484    3.8799    4.0845 C   0  0  0  0  0  0  0  0  0  0  0  0
    4.7298    4.0472    2.9370 C   0  0  0  0  0  0  0  0  0  0  0  0
    5.0047    2.9657    2.0987 C   0  0  0  0  0  0  0  0  0  0  0  0
    3.9157   -0.5364    1.6707 O   0  0  0  0  0  0  0  0  0  0  0  0
    3.6796   -3.1982   -0.2503 H   0  0  0  0  0  0  0  0  0  0  0  0
    2.6081   -2.6849    1.0961 H   0  0  0  0  0  0  0  0  0  0  0  0
    4.1645   -3.5092    1.4316 H   0  0  0  0  0  0  0  0  0  0  0  0
    9.0989    2.6686    0.5581 H   0  0  0  0  0  0  0  0  0  0  0  0
   11.0515    3.7231   -0.5790 H   0  0  0  0  0  0  0  0  0  0  0  0
   12.3099    2.4461   -2.3260 H   0  0  0  0  0  0  0  0  0  0  0  0
   12.3852    0.4620   -3.5152 H   0  0  0  0  0  0  0  0  0  0  0  0
   10.1491   -1.4528   -2.7734 H   0  0  0  0  0  0  0  0  0  0  0  0
    6.5590   -4.4300   -1.1386 H   0  0  0  0  0  0  0  0  0  0  0  0
    7.3205   -5.5142    0.0373 H   0  0  0  0  0  0  0  0  0  0  0  0
    9.7576   -6.2248   -0.3161 H   0  0  0  0  0  0  0  0  0  0  0  0
   10.2293   -4.5354   -0.0411 H   0  0  0  0  0  0  0  0  0  0  0  0
   10.7702   -5.3831   -1.5128 H   0  0  0  0  0  0  0  0  0  0  0  0
    8.1072   -6.8441   -2.1320 H   0  0  0  0  0  0  0  0  0  0  0  0
    9.1061   -6.0038   -3.3415 H   0  0  0  0  0  0  0  0  0  0  0  0
    7.3814   -5.5907   -3.1668 H   0  0  0  0  0  0  0  0  0  0  0  0
    8.0502   -3.2678   -2.9674 H   0  0  0  0  0  0  0  0  0  0  0  0
    9.7969   -3.5067   -2.8851 H   0  0  0  0  0  0  0  0  0  0  0  0
    7.4825   -1.2207    1.4664 H   0  0  0  0  0  0  0  0  0  0  0  0
   10.8877   -2.2584    0.7658 H   0  0  0  0  0  0  0  0  0  0  0  0
   12.7470   -1.9674    2.3466 H   0  0  0  0  0  0  0  0  0  0  0  0
   14.3855   -0.7765    3.5153 H   0  0  0  0  0  0  0  0  0  0  0  0
   13.6796   -2.0991    4.4885 H   0  0  0  0  0  0  0  0  0  0  0  0
   16.3766    0.0346    4.4712 H   0  0  0  0  0  0  0  0  0  0  0  0
   17.5770    0.9709    6.4270 H   0  0  0  0  0  0  0  0  0  0  0  0
   17.4374   -0.7238    6.8933 H   0  0  0  0  0  0  0  0  0  0  0  0
   15.6928    1.6394    7.8119 H   0  0  0  0  0  0  0  0  0  0  0  0
   16.6532    0.5460    8.8072 H   0  0  0  0  0  0  0  0  0  0  0  0
   14.3696   -0.4098    9.0662 H   0  0  0  0  0  0  0  0  0  0  0  0
   13.2680   -1.3967    7.1042 H   0  0  0  0  0  0  0  0  0  0  0  0
   10.3212    0.7944    4.6398 H   0  0  0  0  0  0  0  0  0  0  0  0
    3.3140    0.5399    3.8101 H   0  0  0  0  0  0  0  0  0  0  0  0
    2.8227    2.4734    5.2850 H   0  0  0  0  0  0  0  0  0  0  0  0
    3.7343    4.7323    4.7345 H   0  0  0  0  0  0  0  0  0  0  0  0
    5.1232    5.0349    2.6828 H   0  0  0  0  0  0  0  0  0  0  0  0
    5.5915    3.1010    1.1894 H   0  0  0  0  0  0  0  0  0  0  0  0
  1  2  1  0
  1 49  1  0
  1 50  1  0
  1 51  1  0
  2  3  2  0
  2 48  1  0
  3  4  1  0
  4  5  1  0
  4 41  2  0
  5  6  2  0
  5  7  1  0
  7  8  1  0
  7 25  1  0
  8  9  2  0
  8 14  1  0
  9 10  1  0
  9 52  1  0
 10 11  2  0
 10 53  1  0
 11 12  1  0
 11 54  1  0
 12 13  1  0
 12 14  2  0
 13 55  1  0
 14 15  1  0
 15 16  1  0
 15 56  1  0
 16 17  2  0
 16 24  1  0
 17 18  1  0
 17 25  1  0
 18 19  2  0
 18 20  1  0
 20 21  1  0
 20 57  1  0
 20 58  1  0
 21 22  1  1
 21 23  1  0
 21 24  1  0
 22 59  1  0
 22 60  1  0
 22 61  1  0
 23 62  1  0
 23 63  1  0
 23 64  1  0
 24 65  1  0
 24 66  1  0
 25 26  1  0
 25 67  1  1
 26 27  2  0
 26 39  1  0
 27 28  1  0
 27 68  1  0
 28 29  2  0
 28 69  1  0
 29 30  1  0
 29 38  1  0
 30 31  1  0
 31 32  1  0
 31 70  1  0
 31 71  1  0
 32 33  2  0
 32 37  1  0
 33 34  1  0
 33 72  1  0
 34 35  1  0
 34 73  1  0
 34 74  1  0
 35 36  1  0
 35 75  1  0
 35 76  1  0
 36 37  2  0
 36 77  1  0
 37 78  1  0
 38 39  2  0
 38 79  1  0
 39 40  1  0
 41 42  1  0
 41 48  1  0
 42 43  2  0
 42 47  1  0
 43 44  1  0
 43 80  1  0
 44 45  2  0
 44 81  1  0
 45 46  1  0
 45 82  1  0
 46 47  2  0
 46 83  1  0
 47 84  1  0
M  END

