
     RDKit          3D

 17 18  0  0  0  0  0  0  0  0999 V2000
    1.2720    0.0800   -0.0037 C   0  0  0  0  0  0  0  0  0  0  0  0
    2.7338   -0.1896   -0.1145 C   0  0  0  0  0  0  0  0  0  0  0  0
    3.5992    0.7368   -0.4513 N   0  0  0  0  0  0  0  0  0  0  0  0
    4.8221    0.0779   -0.4351 O   0  0  0  0  0  0  0  0  0  0  0  0
    4.5627   -1.1883   -0.0880 C   0  0  0  0  0  0  0  0  0  0  0  0
    5.6666   -2.1194    0.0097 C   0  0  0  0  0  0  0  0  0  0  0  0
    6.9294   -1.9256   -0.2030 N   0  0  0  0  0  0  0  0  0  0  0  0
    7.5665   -3.1244    0.0096 N   0  0  0  0  0  0  0  0  0  0  0  0
    6.6278   -3.9717    0.3481 C   0  0  0  0  0  0  0  0  0  0  0  0
    6.7575   -5.2685    0.7028 N   0  0  0  0  0  0  0  0  0  0  0  0
    5.3995   -3.4171    0.3697 O   0  0  0  0  0  0  0  0  0  0  0  0
    3.2991   -1.4217    0.1239 N   0  0  0  0  0  0  0  0  0  0  0  0
    1.0605    1.1323   -0.2325 H   0  0  0  0  0  0  0  0  0  0  0  0
    0.9197   -0.1503    1.0137 H   0  0  0  0  0  0  0  0  0  0  0  0
    0.7126   -0.5637   -0.6999 H   0  0  0  0  0  0  0  0  0  0  0  0
    7.6569   -5.6974    0.5239 H   0  0  0  0  0  0  0  0  0  0  0  0
    5.9385   -5.8626    0.6820 H   0  0  0  0  0  0  0  0  0  0  0  0
  1  2  1  0
  1 13  1  0
  1 14  1  0
  1 15  1  0
  2  3  2  0
  2 12  1  0
  3  4  1  0
  4  5  1  0
  5  6  1  0
  5 12  2  0
  6  7  2  0
  6 11  1  0
  7  8  1  0
  8  9  2  0
  9 10  1  0
  9 11  1  0
 10 16  1  0
 10 17  1  0
M  END

