
     RDKit          3D

 45 45  0  0  0  0  0  0  0  0999 V2000
    1.5140    0.1578    0.6340 C   0  0  0  0  0  0  0  0  0  0  0  0
    2.9179    0.1348    0.0141 C   0  0  1  0  0  0  0  0  0  0  0  0
    3.3731   -1.2885   -0.3687 C   0  0  0  0  0  0  0  0  0  0  0  0
    2.6269   -1.8163   -1.5988 C   0  0  0  0  0  0  0  0  0  0  0  0
    2.7126   -0.8287   -2.7631 C   0  0  0  0  0  0  0  0  0  0  0  0
    2.2784    0.5057   -2.3451 N   0  0  0  0  0  0  0  0  0  0  0  0
    1.8349    1.3844   -3.3442 C   0  0  0  0  0  0  0  0  0  0  0  0
    1.6132    0.7915   -4.5303 O   0  0  0  0  0  0  0  0  0  0  0  0
    0.7798    2.4263   -3.0270 C   0  0  0  0  0  0  0  0  0  0  0  0
    0.7509    3.6111   -4.0000 C   0  0  0  0  0  0  0  0  0  0  0  0
   -0.2980    4.6660   -3.6389 C   0  0  0  0  0  0  0  0  0  0  0  0
   -0.3235    5.8588   -4.5992 C   0  0  0  0  0  0  0  0  0  0  0  0
   -1.3626    6.9222   -4.2359 C   0  0  0  0  0  0  0  0  0  0  0  0
   -1.3916    8.1105   -5.1965 C   0  0  0  0  0  0  0  0  0  0  0  0
   -2.3586    9.1138   -4.7601 N   0  0  0  0  0  0  0  0  0  0  0  0
    3.0136    1.0878   -1.2044 C   0  0  2  0  0  0  0  0  0  0  0  0
    4.4537    1.4878   -1.5654 C   0  0  0  0  0  0  0  0  0  0  0  0
    1.4423   -0.5416    1.4827 H   0  0  0  0  0  0  0  0  0  0  0  0
    0.7415   -0.1162   -0.1006 H   0  0  0  0  0  0  0  0  0  0  0  0
    1.2669    1.1638    1.0106 H   0  0  0  0  0  0  0  0  0  0  0  0
    3.6222    0.5214    0.7715 H   0  0  0  0  0  0  0  0  0  0  0  0
    3.2345   -1.9682    0.4887 H   0  0  0  0  0  0  0  0  0  0  0  0
    4.4562   -1.2816   -0.5812 H   0  0  0  0  0  0  0  0  0  0  0  0
    1.5663   -1.9947   -1.3554 H   0  0  0  0  0  0  0  0  0  0  0  0
    3.0465   -2.7860   -1.9160 H   0  0  0  0  0  0  0  0  0  0  0  0
    2.0598   -1.1490   -3.5883 H   0  0  0  0  0  0  0  0  0  0  0  0
    3.7480   -0.8118   -3.1654 H   0  0  0  0  0  0  0  0  0  0  0  0
    0.9550    2.7856   -2.0002 H   0  0  0  0  0  0  0  0  0  0  0  0
   -0.2155    1.9253   -3.0198 H   0  0  0  0  0  0  0  0  0  0  0  0
    0.5633    3.2392   -5.0222 H   0  0  0  0  0  0  0  0  0  0  0  0
    1.7540    4.0725   -4.0253 H   0  0  0  0  0  0  0  0  0  0  0  0
   -0.1130    5.0309   -2.6109 H   0  0  0  0  0  0  0  0  0  0  0  0
   -1.2984    4.1957   -3.6123 H   0  0  0  0  0  0  0  0  0  0  0  0
   -0.5114    5.4930   -5.6258 H   0  0  0  0  0  0  0  0  0  0  0  0
    0.6796    6.3235   -4.6268 H   0  0  0  0  0  0  0  0  0  0  0  0
   -1.1791    7.3058   -3.2172 H   0  0  0  0  0  0  0  0  0  0  0  0
   -2.3671    6.4577   -4.2083 H   0  0  0  0  0  0  0  0  0  0  0  0
   -1.5623    7.7311   -6.2295 H   0  0  0  0  0  0  0  0  0  0  0  0
   -0.3932    8.5835   -5.2111 H   0  0  0  0  0  0  0  0  0  0  0  0
   -3.3059    8.7369   -4.8222 H   0  0  0  0  0  0  0  0  0  0  0  0
   -2.3387    9.9230   -5.3808 H   0  0  0  0  0  0  0  0  0  0  0  0
    2.4833    2.0130   -0.9322 H   0  0  0  0  0  0  0  0  0  0  0  0
    5.0923    0.6210   -1.7942 H   0  0  0  0  0  0  0  0  0  0  0  0
    4.9210    2.0345   -0.7311 H   0  0  0  0  0  0  0  0  0  0  0  0
    4.4427    2.1455   -2.4486 H   0  0  0  0  0  0  0  0  0  0  0  0
  1  2  1  0
  1 18  1  0
  1 19  1  0
  1 20  1  0
  2  3  1  0
  2 16  1  0
  2 21  1  1
  3  4  1  0
  3 22  1  0
  3 23  1  0
  4  5  1  0
  4 24  1  0
  4 25  1  0
  5  6  1  0
  5 26  1  0
  5 27  1  0
  6  7  1  0
  6 16  1  0
  7  8  2  0
  7  9  1  0
  9 10  1  0
  9 28  1  0
  9 29  1  0
 10 11  1  0
 10 30  1  0
 10 31  1  0
 11 12  1  0
 11 32  1  0
 11 33  1  0
 12 13  1  0
 12 34  1  0
 12 35  1  0
 13 14  1  0
 13 36  1  0
 13 37  1  0
 14 15  1  0
 14 38  1  0
 14 39  1  0
 15 40  1  0
 15 41  1  0
 16 17  1  0
 16 42  1  1
 17 43  1  0
 17 44  1  0
 17 45  1  0
M  END

