
     RDKit          3D

 45 48  0  0  0  0  0  0  0  0999 V2000
    8.7450    1.7057    2.6607 C   0  0  0  0  0  0  0  0  0  0  0  0
    8.0873    0.3369    2.7571 C   0  0  1  0  0  0  0  0  0  0  0  0
    8.0019   -0.1947    4.1839 C   0  0  0  0  0  0  0  0  0  0  0  0
    6.7596    0.4953    2.2051 O   0  0  0  0  0  0  0  0  0  0  0  0
    6.1143   -0.5559    1.6799 C   0  0  0  0  0  0  0  0  0  0  0  0
    4.8211   -0.3216    1.1502 C   0  0  0  0  0  0  0  0  0  0  0  0
    4.1369   -1.3052    0.5925 N   0  0  0  0  0  0  0  0  0  0  0  0
    4.6971   -2.5206    0.5552 C   0  0  0  0  0  0  0  0  0  0  0  0
    5.9684   -2.7723    1.0979 C   0  0  0  0  0  0  0  0  0  0  0  0
    6.6056   -4.1144    1.0795 C   0  0  0  0  0  0  0  0  0  0  0  0
    5.8488   -5.2866    0.8066 C   0  0  0  0  0  0  0  0  0  0  0  0
    6.4357   -6.5441    0.7647 C   0  0  0  0  0  0  0  0  0  0  0  0
    7.8126   -6.6335    1.0103 C   0  0  0  0  0  0  0  0  0  0  0  0
    8.6533   -7.7230    1.0100 N   0  0  0  0  0  0  0  0  0  0  0  0
    8.3704   -8.6808    0.8526 H   0  0  0  0  0  0  0  0  0  0  0  0
    9.9362   -7.3117    1.2942 C   0  0  0  0  0  0  0  0  0  0  0  0
    9.9659   -5.9445    1.4918 C   0  0  0  0  0  0  0  0  0  0  0  0
   11.1602   -5.1528    1.8282 C   0  0  0  0  0  0  0  0  0  0  0  0
   11.0960   -4.0549    2.7139 C   0  0  0  0  0  0  0  0  0  0  0  0
   12.2714   -3.3658    3.0027 C   0  0  0  0  0  0  0  0  0  0  0  0
   13.4685   -3.6695    2.4972 N   0  0  0  0  0  0  0  0  0  0  0  0
   13.5454   -4.7150    1.6615 C   0  0  0  0  0  0  0  0  0  0  0  0
   14.8007   -5.0305    1.1907 N   0  0  0  0  0  0  0  0  0  0  0  0
   12.4134   -5.4769    1.2964 C   0  0  0  0  0  0  0  0  0  0  0  0
    8.5996   -5.4852    1.3122 C   0  0  0  0  0  0  0  0  0  0  0  0
    7.9781   -4.2261    1.3346 C   0  0  0  0  0  0  0  0  0  0  0  0
    6.6628   -1.7570    1.6544 N   0  0  0  0  0  0  0  0  0  0  0  0
    9.7768    1.6607    3.0419 H   0  0  0  0  0  0  0  0  0  0  0  0
    8.1875    2.4482    3.2535 H   0  0  0  0  0  0  0  0  0  0  0  0
    8.7749    2.0512    1.6163 H   0  0  0  0  0  0  0  0  0  0  0  0
    8.6295   -0.3886    2.1305 H   0  0  0  0  0  0  0  0  0  0  0  0
    7.4178    0.4915    4.8180 H   0  0  0  0  0  0  0  0  0  0  0  0
    9.0114   -0.2886    4.6149 H   0  0  0  0  0  0  0  0  0  0  0  0
    7.5282   -1.1865    4.2040 H   0  0  0  0  0  0  0  0  0  0  0  0
    4.3828    0.6808    1.1946 H   0  0  0  0  0  0  0  0  0  0  0  0
    4.1198   -3.3087    0.0662 H   0  0  0  0  0  0  0  0  0  0  0  0
    4.7737   -5.2115    0.6390 H   0  0  0  0  0  0  0  0  0  0  0  0
    5.8370   -7.4328    0.5505 H   0  0  0  0  0  0  0  0  0  0  0  0
   10.7476   -8.0330    1.3698 H   0  0  0  0  0  0  0  0  0  0  0  0
   10.1576   -3.7677    3.1885 H   0  0  0  0  0  0  0  0  0  0  0  0
   12.2443   -2.5111    3.6904 H   0  0  0  0  0  0  0  0  0  0  0  0
   15.5025   -4.3122    1.3274 H   0  0  0  0  0  0  0  0  0  0  0  0
   14.8766   -5.5706    0.3388 H   0  0  0  0  0  0  0  0  0  0  0  0
   12.5152   -6.3005    0.5855 H   0  0  0  0  0  0  0  0  0  0  0  0
    8.5479   -3.3201    1.5365 H   0  0  0  0  0  0  0  0  0  0  0  0
  1  2  1  0
  1 28  1  0
  1 29  1  0
  1 30  1  0
  2  3  1  0
  2  4  1  0
  2 31  1  6
  3 32  1  0
  3 33  1  0
  3 34  1  0
  4  5  1  0
  5  6  2  0
  5 27  1  0
  6  7  1  0
  6 35  1  0
  7  8  2  0
  8  9  1  0
  8 36  1  0
  9 10  1  0
  9 27  2  0
 10 11  2  0
 10 26  1  0
 11 12  1  0
 11 37  1  0
 12 13  2  0
 12 38  1  0
 13 14  1  0
 13 25  1  0
 14 15  1  0
 14 16  1  0
 16 17  2  0
 16 39  1  0
 17 18  1  0
 17 25  1  0
 18 19  2  0
 18 24  1  0
 19 20  1  0
 19 40  1  0
 20 21  2  0
 20 41  1  0
 21 22  1  0
 22 23  1  0
 22 24  2  0
 23 42  1  0
 23 43  1  0
 24 44  1  0
 25 26  2  0
 26 45  1  0
M  END

