
     RDKit          3D

 59 60  0  0  0  0  0  0  0  0999 V2000
    0.9503    1.3041    0.0625 C   0  0  0  0  0  0  0  0  0  0  0  0
    1.6114    0.0563    0.6498 C   0  0  0  0  0  0  0  0  0  0  0  0
    2.6794   -0.4690   -0.1972 N   0  0  0  0  0  0  0  0  0  0  0  0
    3.7294   -1.2149    0.4897 C   0  0  0  0  0  0  0  0  0  0  0  0
    3.3447   -2.6763    0.7865 C   0  0  0  0  0  0  0  0  0  0  0  0
    2.9080   -3.3980   -0.4023 N   0  0  0  0  0  0  0  0  0  0  0  0
    3.7462   -4.3627   -1.1400 C   0  0  1  0  0  0  0  0  0  0  0  0
    4.3629   -3.7843   -2.4344 C   0  0  0  0  0  0  0  0  0  0  0  0
    4.8886   -4.8925   -0.2593 C   0  0  0  0  0  0  0  0  0  0  0  0
    2.7981   -5.5614   -1.4757 C   0  0  0  0  0  0  0  0  0  0  0  0
    3.3706   -6.6466   -2.2531 N   0  0  0  0  0  0  0  0  0  0  0  0
    3.1187   -6.8247   -3.5892 C   0  0  0  0  0  0  0  0  0  0  0  0
    2.4509   -6.0304   -4.2385 O   0  0  0  0  0  0  0  0  0  0  0  0
    3.6996   -8.0699   -4.1766 C   0  0  0  0  0  0  0  0  0  0  0  0
    4.3112   -8.2788   -5.4754 C   0  0  0  0  0  0  0  0  0  0  0  0
    4.5853   -7.3004   -6.6129 C   0  0  1  0  0  0  0  0  0  0  0  0
    5.2914   -6.0407   -6.0683 C   0  0  0  0  0  0  0  0  0  0  0  0
    5.4890   -7.9662   -7.6683 C   0  0  0  0  0  0  0  0  0  0  0  0
    3.2392   -6.9107   -7.2678 C   0  0  0  0  0  0  0  0  0  0  0  0
    4.6528   -9.5365   -5.6174 N   0  0  0  0  0  0  0  0  0  0  0  0
    4.2638  -10.1935   -4.4626 O   0  0  0  0  0  0  0  0  0  0  0  0
    3.7038   -9.3249   -3.6112 C   0  0  0  0  0  0  0  0  0  0  0  0
    3.1969   -9.8998   -2.3320 C   0  0  0  0  0  0  0  0  0  0  0  0
    1.8659   -2.6620   -1.1136 C   0  0  0  0  0  0  0  0  0  0  0  0
    2.2438   -1.1921   -1.3914 C   0  0  0  0  0  0  0  0  0  0  0  0
    0.1935    1.7041    0.7568 H   0  0  0  0  0  0  0  0  0  0  0  0
    0.4391    1.0923   -0.8902 H   0  0  0  0  0  0  0  0  0  0  0  0
    1.7035    2.0845   -0.1274 H   0  0  0  0  0  0  0  0  0  0  0  0
    0.8250   -0.6947    0.8862 H   0  0  0  0  0  0  0  0  0  0  0  0
    2.0651    0.3241    1.6185 H   0  0  0  0  0  0  0  0  0  0  0  0
    3.9907   -0.6916    1.4251 H   0  0  0  0  0  0  0  0  0  0  0  0
    4.6333   -1.2083   -0.1490 H   0  0  0  0  0  0  0  0  0  0  0  0
    2.5148   -2.6769    1.5235 H   0  0  0  0  0  0  0  0  0  0  0  0
    4.1811   -3.1911    1.2750 H   0  0  0  0  0  0  0  0  0  0  0  0
    5.0218   -2.9341   -2.1994 H   0  0  0  0  0  0  0  0  0  0  0  0
    3.5910   -3.4461   -3.1396 H   0  0  0  0  0  0  0  0  0  0  0  0
    4.9655   -4.5429   -2.9570 H   0  0  0  0  0  0  0  0  0  0  0  0
    5.6321   -4.1143   -0.0311 H   0  0  0  0  0  0  0  0  0  0  0  0
    5.4250   -5.6906   -0.7952 H   0  0  0  0  0  0  0  0  0  0  0  0
    4.5169   -5.3088    0.6903 H   0  0  0  0  0  0  0  0  0  0  0  0
    1.9387   -5.1960   -2.0505 H   0  0  0  0  0  0  0  0  0  0  0  0
    2.4207   -5.9561   -0.5185 H   0  0  0  0  0  0  0  0  0  0  0  0
    4.0261   -7.2744   -1.8060 H   0  0  0  0  0  0  0  0  0  0  0  0
    6.2358   -6.2998   -5.5623 H   0  0  0  0  0  0  0  0  0  0  0  0
    4.6524   -5.4858   -5.3679 H   0  0  0  0  0  0  0  0  0  0  0  0
    5.5345   -5.3627   -6.9021 H   0  0  0  0  0  0  0  0  0  0  0  0
    6.4595   -8.2618   -7.2416 H   0  0  0  0  0  0  0  0  0  0  0  0
    5.6729   -7.2569   -8.4908 H   0  0  0  0  0  0  0  0  0  0  0  0
    5.0241   -8.8702   -8.0860 H   0  0  0  0  0  0  0  0  0  0  0  0
    2.5650   -6.4464   -6.5355 H   0  0  0  0  0  0  0  0  0  0  0  0
    2.7435   -7.7980   -7.6930 H   0  0  0  0  0  0  0  0  0  0  0  0
    3.4180   -6.1970   -8.0889 H   0  0  0  0  0  0  0  0  0  0  0  0
    2.6280  -10.8201   -2.5350 H   0  0  0  0  0  0  0  0  0  0  0  0
    2.5459   -9.1871   -1.8106 H   0  0  0  0  0  0  0  0  0  0  0  0
    4.0292  -10.1740   -1.6616 H   0  0  0  0  0  0  0  0  0  0  0  0
    0.9364   -2.6843   -0.5090 H   0  0  0  0  0  0  0  0  0  0  0  0
    1.6205   -3.1599   -2.0626 H   0  0  0  0  0  0  0  0  0  0  0  0
    1.3903   -0.6675   -1.8495 H   0  0  0  0  0  0  0  0  0  0  0  0
    3.0651   -1.1647   -2.1296 H   0  0  0  0  0  0  0  0  0  0  0  0
  1  2  1  0
  1 26  1  0
  1 27  1  0
  1 28  1  0
  2  3  1  0
  2 29  1  0
  2 30  1  0
  3  4  1  0
  3 25  1  0
  4  5  1  0
  4 31  1  0
  4 32  1  0
  5  6  1  0
  5 33  1  0
  5 34  1  0
  6  7  1  0
  6 24  1  0
  7  8  1  6
  7  9  1  0
  7 10  1  0
  8 35  1  0
  8 36  1  0
  8 37  1  0
  9 38  1  0
  9 39  1  0
  9 40  1  0
 10 11  1  0
 10 41  1  0
 10 42  1  0
 11 12  1  0
 11 43  1  0
 12 13  2  0
 12 14  1  0
 14 15  1  0
 14 22  2  0
 15 16  1  0
 15 20  2  0
 16 17  1  1
 16 18  1  0
 16 19  1  0
 17 44  1  0
 17 45  1  0
 17 46  1  0
 18 47  1  0
 18 48  1  0
 18 49  1  0
 19 50  1  0
 19 51  1  0
 19 52  1  0
 20 21  1  0
 21 22  1  0
 22 23  1  0
 23 53  1  0
 23 54  1  0
 23 55  1  0
 24 25  1  0
 24 56  1  0
 24 57  1  0
 25 58  1  0
 25 59  1  0
M  END

