
     RDKit          3D

 59 62  0  0  0  0  0  0  0  0999 V2000
    3.4189   -2.3106    7.5129 C   0  0  0  0  0  0  0  0  0  0  0  0
    3.5728   -2.8419    6.0984 C   0  0  0  0  0  0  0  0  0  0  0  0
    3.5161   -4.0326    5.8679 O   0  0  0  0  0  0  0  0  0  0  0  0
    3.7900   -1.7989    4.9993 C   0  0  1  0  0  0  0  0  0  0  0  0
    5.2859   -1.3936    4.9237 C   0  0  0  0  0  0  0  0  0  0  0  0
    6.1561   -2.4845    4.2852 C   0  0  0  0  0  0  0  0  0  0  0  0
    5.6928   -2.9163    2.8753 C   0  0  2  0  0  0  0  0  0  0  0  0
    6.0854   -1.9079    1.7350 C   0  0  1  0  0  0  0  0  0  0  0  0
    5.7468   -2.4657    0.3370 C   0  0  0  0  0  0  0  0  0  0  0  0
    5.4653   -0.6417    1.8971 O   0  0  0  0  0  0  0  0  0  0  0  0
    7.5863   -1.6328    1.7913 C   0  0  0  0  0  0  0  0  0  0  0  0
    8.1320   -0.4716    1.9942 N   0  0  0  0  0  0  0  0  0  0  0  0
    9.4929   -0.5347    1.9779 C   0  0  0  0  0  0  0  0  0  0  0  0
   10.0504   -1.7786    1.7604 C   0  0  0  0  0  0  0  0  0  0  0  0
   11.4687   -2.1448    1.6984 C   0  0  0  0  0  0  0  0  0  0  0  0
   11.8756   -3.4967    1.9185 C   0  0  0  0  0  0  0  0  0  0  0  0
   13.2326   -3.8588    1.8829 C   0  0  0  0  0  0  0  0  0  0  0  0
   14.2008   -2.9085    1.6437 C   0  0  0  0  0  0  0  0  0  0  0  0
   13.8232   -1.5291    1.4183 C   0  0  0  0  0  0  0  0  0  0  0  0
   14.7953   -0.6516    1.1868 N   0  0  0  0  0  0  0  0  0  0  0  0
   14.8180    0.8092    0.9157 C   0  0  0  0  0  0  0  0  0  0  0  0
   16.0578    1.2015    0.7646 N   0  0  0  0  0  0  0  0  0  0  0  0
   16.1727    2.5806    0.4990 C   0  0  0  0  0  0  0  0  0  0  0  0
   15.0416    3.3740    0.4186 C   0  0  0  0  0  0  0  0  0  0  0  0
   13.7792    2.8019    0.6068 C   0  0  0  0  0  0  0  0  0  0  0  0
   12.4864    3.5460    0.5339 C   0  0  0  0  0  0  0  0  0  0  0  0
   12.6933    4.8970    0.3178 F   0  0  0  0  0  0  0  0  0  0  0  0
   13.6725    1.4250    0.8726 N   0  0  0  0  0  0  0  0  0  0  0  0
   12.4338   -1.1798    1.4424 C   0  0  0  0  0  0  0  0  0  0  0  0
    8.7527   -2.9344    1.5620 S   0  0  0  0  0  0  0  0  0  0  0  0
    4.1939   -3.2926    2.9290 C   0  0  0  0  0  0  0  0  0  0  0  0
    3.2832   -2.2610    3.6191 C   0  0  0  0  0  0  0  0  0  0  0  0
    3.5033   -3.1345    8.2336 H   0  0  0  0  0  0  0  0  0  0  0  0
    2.4206   -1.8500    7.6130 H   0  0  0  0  0  0  0  0  0  0  0  0
    4.1562   -1.5252    7.7407 H   0  0  0  0  0  0  0  0  0  0  0  0
    3.2219   -0.9024    5.3040 H   0  0  0  0  0  0  0  0  0  0  0  0
    5.6695   -1.1576    5.9306 H   0  0  0  0  0  0  0  0  0  0  0  0
    5.3637   -0.4723    4.3290 H   0  0  0  0  0  0  0  0  0  0  0  0
    6.1421   -3.3829    4.9260 H   0  0  0  0  0  0  0  0  0  0  0  0
    7.2031   -2.1443    4.2626 H   0  0  0  0  0  0  0  0  0  0  0  0
    6.2393   -3.8434    2.6267 H   0  0  0  0  0  0  0  0  0  0  0  0
    4.6582   -2.5855    0.2221 H   0  0  0  0  0  0  0  0  0  0  0  0
    6.2107   -3.4474    0.1578 H   0  0  0  0  0  0  0  0  0  0  0  0
    6.0987   -1.7654   -0.4345 H   0  0  0  0  0  0  0  0  0  0  0  0
    4.5602   -0.7130    1.5696 H   0  0  0  0  0  0  0  0  0  0  0  0
   10.0741    0.3718    2.1567 H   0  0  0  0  0  0  0  0  0  0  0  0
   11.1233   -4.2585    2.1307 H   0  0  0  0  0  0  0  0  0  0  0  0
   13.5182   -4.8986    2.0537 H   0  0  0  0  0  0  0  0  0  0  0  0
   15.2591   -3.1766    1.6199 H   0  0  0  0  0  0  0  0  0  0  0  0
   15.7559   -0.9905    1.1808 H   0  0  0  0  0  0  0  0  0  0  0  0
   17.1805    2.9736    0.3644 H   0  0  0  0  0  0  0  0  0  0  0  0
   15.1184    4.4433    0.2115 H   0  0  0  0  0  0  0  0  0  0  0  0
   11.9065    3.4287    1.4735 H   0  0  0  0  0  0  0  0  0  0  0  0
   11.8437    3.1619   -0.2864 H   0  0  0  0  0  0  0  0  0  0  0  0
   12.1962   -0.1377    1.2377 H   0  0  0  0  0  0  0  0  0  0  0  0
    4.1161   -4.2296    3.4989 H   0  0  0  0  0  0  0  0  0  0  0  0
    3.8039   -3.5139    1.9224 H   0  0  0  0  0  0  0  0  0  0  0  0
    2.2743   -2.6929    3.7214 H   0  0  0  0  0  0  0  0  0  0  0  0
    3.1671   -1.3617    2.9915 H   0  0  0  0  0  0  0  0  0  0  0  0
  1  2  1  0
  1 33  1  0
  1 34  1  0
  1 35  1  0
  2  3  2  0
  2  4  1  0
  4  5  1  0
  4 32  1  0
  4 36  1  1
  5  6  1  0
  5 37  1  0
  5 38  1  0
  6  7  1  0
  6 39  1  0
  6 40  1  0
  7  8  1  0
  7 31  1  0
  7 41  1  6
  8  9  1  0
  8 10  1  1
  8 11  1  0
  9 42  1  0
  9 43  1  0
  9 44  1  0
 10 45  1  0
 11 12  2  0
 11 30  1  0
 12 13  1  0
 13 14  2  0
 13 46  1  0
 14 15  1  0
 14 30  1  0
 15 16  2  0
 15 29  1  0
 16 17  1  0
 16 47  1  0
 17 18  2  0
 17 48  1  0
 18 19  1  0
 18 49  1  0
 19 20  1  0
 19 29  2  0
 20 21  1  0
 20 50  1  0
 21 22  2  0
 21 28  1  0
 22 23  1  0
 23 24  2  0
 23 51  1  0
 24 25  1  0
 24 52  1  0
 25 26  1  0
 25 28  2  0
 26 27  1  0
 26 53  1  0
 26 54  1  0
 29 55  1  0
 31 32  1  0
 31 56  1  0
 31 57  1  0
 32 58  1  0
 32 59  1  0
M  END

