
     RDKit          3D

 68 69  0  0  0  0  0  0  0  0999 V2000
   -2.7540   -1.2967   -0.1917 C   0  0  0  0  0  0  0  0  0  0  0  0
   -2.0150   -2.5107    0.3984 C   0  0  1  0  0  0  0  0  0  0  0  0
   -3.0079   -3.5618    0.9293 C   0  0  0  0  0  0  0  0  0  0  0  0
   -1.0245   -3.1172   -0.5971 C   0  0  0  0  0  0  0  0  0  0  0  0
   -1.5499   -3.7018   -1.7596 C   0  0  0  0  0  0  0  0  0  0  0  0
   -0.7197   -4.2924   -2.7119 C   0  0  0  0  0  0  0  0  0  0  0  0
    0.6556   -4.3226   -2.4899 C   0  0  0  0  0  0  0  0  0  0  0  0
    1.2293   -3.7598   -1.3395 C   0  0  0  0  0  0  0  0  0  0  0  0
    2.7368   -3.9109   -1.1172 C   0  0  1  0  0  0  0  0  0  0  0  0
    3.0439   -5.1455   -0.2461 C   0  0  0  0  0  0  0  0  0  0  0  0
    3.5660   -3.9544   -2.4102 C   0  0  0  0  0  0  0  0  0  0  0  0
    0.3791   -3.1260   -0.3823 C   0  0  0  0  0  0  0  0  0  0  0  0
    0.9705   -2.4625    0.8675 C   0  0  0  0  0  0  0  0  0  0  0  0
    0.8413   -0.9588    0.9622 C   0  0  0  0  0  0  0  0  0  0  0  0
    0.1997   -0.3485    2.0773 C   0  0  0  0  0  0  0  0  0  0  0  0
   -0.0669    1.0489    2.0927 C   0  0  0  0  0  0  0  0  0  0  0  0
   -0.8144    1.6534    3.2860 C   0  0  1  0  0  0  0  0  0  0  0  0
    0.0253    1.4274    4.5698 C   0  0  0  0  0  0  0  0  0  0  0  0
   -1.0667    3.1650    3.1386 C   0  0  0  0  0  0  0  0  0  0  0  0
   -2.1865    0.9508    3.4454 C   0  0  0  0  0  0  0  0  0  0  0  0
    0.3782    1.8510    1.0075 C   0  0  0  0  0  0  0  0  0  0  0  0
    1.1610    1.3398   -0.0757 C   0  0  0  0  0  0  0  0  0  0  0  0
    1.7935    2.3639   -1.0363 C   0  0  1  0  0  0  0  0  0  0  0  0
    2.7535    3.2882   -0.2385 C   0  0  0  0  0  0  0  0  0  0  0  0
    2.6121    1.7804   -2.2101 C   0  0  0  0  0  0  0  0  0  0  0  0
    0.6726    3.2282   -1.6739 C   0  0  0  0  0  0  0  0  0  0  0  0
    1.3625   -0.0913   -0.0580 C   0  0  0  0  0  0  0  0  0  0  0  0
    2.0699   -0.7245   -1.0044 O   0  0  0  0  0  0  0  0  0  0  0  0
   -3.4225   -0.8451    0.5604 H   0  0  0  0  0  0  0  0  0  0  0  0
   -3.3717   -1.5803   -1.0596 H   0  0  0  0  0  0  0  0  0  0  0  0
   -2.0444   -0.5221   -0.5211 H   0  0  0  0  0  0  0  0  0  0  0  0
   -1.4574   -2.1406    1.2671 H   0  0  0  0  0  0  0  0  0  0  0  0
   -3.6573   -3.9553    0.1306 H   0  0  0  0  0  0  0  0  0  0  0  0
   -3.6627   -3.1218    1.7000 H   0  0  0  0  0  0  0  0  0  0  0  0
   -2.4811   -4.4186    1.3791 H   0  0  0  0  0  0  0  0  0  0  0  0
   -2.6307   -3.6961   -1.9221 H   0  0  0  0  0  0  0  0  0  0  0  0
   -1.1422   -4.7343   -3.6182 H   0  0  0  0  0  0  0  0  0  0  0  0
    1.2961   -4.8057   -3.2302 H   0  0  0  0  0  0  0  0  0  0  0  0
    3.0845   -3.0218   -0.5713 H   0  0  0  0  0  0  0  0  0  0  0  0
    2.7227   -6.0694   -0.7551 H   0  0  0  0  0  0  0  0  0  0  0  0
    2.5167   -5.1036    0.7198 H   0  0  0  0  0  0  0  0  0  0  0  0
    4.1248   -5.2286   -0.0400 H   0  0  0  0  0  0  0  0  0  0  0  0
    3.4054   -4.8825   -2.9823 H   0  0  0  0  0  0  0  0  0  0  0  0
    4.6410   -3.9095   -2.1708 H   0  0  0  0  0  0  0  0  0  0  0  0
    3.3290   -3.1067   -3.0723 H   0  0  0  0  0  0  0  0  0  0  0  0
    2.0326   -2.7423    0.9538 H   0  0  0  0  0  0  0  0  0  0  0  0
    0.4968   -2.8873    1.7666 H   0  0  0  0  0  0  0  0  0  0  0  0
   -0.1055   -0.9770    2.9141 H   0  0  0  0  0  0  0  0  0  0  0  0
    1.0031    1.9285    4.4916 H   0  0  0  0  0  0  0  0  0  0  0  0
    0.2093    0.3598    4.7590 H   0  0  0  0  0  0  0  0  0  0  0  0
   -0.5024    1.8422    5.4449 H   0  0  0  0  0  0  0  0  0  0  0  0
   -0.1259    3.7314    3.0601 H   0  0  0  0  0  0  0  0  0  0  0  0
   -1.6052    3.5396    4.0231 H   0  0  0  0  0  0  0  0  0  0  0  0
   -1.6810    3.3925    2.2537 H   0  0  0  0  0  0  0  0  0  0  0  0
   -2.0806   -0.1298    3.6183 H   0  0  0  0  0  0  0  0  0  0  0  0
   -2.8039    1.0882    2.5438 H   0  0  0  0  0  0  0  0  0  0  0  0
   -2.7315    1.3789    4.3030 H   0  0  0  0  0  0  0  0  0  0  0  0
    0.1477    2.9124    1.0179 H   0  0  0  0  0  0  0  0  0  0  0  0
    3.5931    2.7103    0.1795 H   0  0  0  0  0  0  0  0  0  0  0  0
    2.2356    3.7754    0.6006 H   0  0  0  0  0  0  0  0  0  0  0  0
    3.1683    4.0783   -0.8872 H   0  0  0  0  0  0  0  0  0  0  0  0
    3.5070    1.2304   -1.8723 H   0  0  0  0  0  0  0  0  0  0  0  0
    2.9853    2.6005   -2.8424 H   0  0  0  0  0  0  0  0  0  0  0  0
    2.0008    1.1449   -2.8767 H   0  0  0  0  0  0  0  0  0  0  0  0
    0.0631    3.7393   -0.9156 H   0  0  0  0  0  0  0  0  0  0  0  0
   -0.0032    2.6049   -2.2805 H   0  0  0  0  0  0  0  0  0  0  0  0
    1.1088    4.0024   -2.3270 H   0  0  0  0  0  0  0  0  0  0  0  0
    2.3435   -0.1075   -1.6995 H   0  0  0  0  0  0  0  0  0  0  0  0
  1  2  1  0
  1 29  1  0
  1 30  1  0
  1 31  1  0
  2  3  1  0
  2  4  1  0
  2 32  1  1
  3 33  1  0
  3 34  1  0
  3 35  1  0
  4  5  2  0
  4 12  1  0
  5  6  1  0
  5 36  1  0
  6  7  2  0
  6 37  1  0
  7  8  1  0
  7 38  1  0
  8  9  1  0
  8 12  2  0
  9 10  1  0
  9 11  1  0
  9 39  1  1
 10 40  1  0
 10 41  1  0
 10 42  1  0
 11 43  1  0
 11 44  1  0
 11 45  1  0
 12 13  1  0
 13 14  1  0
 13 46  1  0
 13 47  1  0
 14 15  2  0
 14 27  1  0
 15 16  1  0
 15 48  1  0
 16 17  1  0
 16 21  2  0
 17 18  1  1
 17 19  1  0
 17 20  1  0
 18 49  1  0
 18 50  1  0
 18 51  1  0
 19 52  1  0
 19 53  1  0
 19 54  1  0
 20 55  1  0
 20 56  1  0
 20 57  1  0
 21 22  1  0
 21 58  1  0
 22 23  1  0
 22 27  2  0
 23 24  1  1
 23 25  1  0
 23 26  1  0
 24 59  1  0
 24 60  1  0
 24 61  1  0
 25 62  1  0
 25 63  1  0
 25 64  1  0
 26 65  1  0
 26 66  1  0
 26 67  1  0
 27 28  1  0
 28 68  1  0
M  END

