
     RDKit          3D

 71 72  0  0  0  0  0  0  0  0999 V2000
    7.7986   -3.1510    3.7261 C   0  0  0  0  0  0  0  0  0  0  0  0
    7.8448   -3.0104    2.2332 C   0  0  0  0  0  0  0  0  0  0  0  0
    8.8854   -2.6400    1.4448 C   0  0  0  0  0  0  0  0  0  0  0  0
   10.2400   -2.2820    2.0143 C   0  0  0  0  0  0  0  0  0  0  0  0
    8.7336   -2.5555   -0.0246 C   0  0  0  0  0  0  0  0  0  0  0  0
    9.7398   -2.1129   -0.8347 C   0  0  0  0  0  0  0  0  0  0  0  0
    9.7314   -2.0711   -2.2085 N   0  0  0  0  0  0  0  0  0  0  0  0
   10.6463   -1.2330   -2.9492 C   0  0  0  0  0  0  0  0  0  0  0  0
    7.4457   -2.9735   -0.6621 C   0  0  0  0  0  0  0  0  0  0  0  0
    6.5227   -2.0227   -1.1352 C   0  0  0  0  0  0  0  0  0  0  0  0
    5.3762   -2.3380   -1.7428 N   0  0  0  0  0  0  0  0  0  0  0  0
    5.0796   -3.6261   -1.8984 C   0  0  0  0  0  0  0  0  0  0  0  0
    5.8987   -4.6847   -1.4555 C   0  0  0  0  0  0  0  0  0  0  0  0
    5.5083   -6.1029   -1.6484 C   0  0  0  0  0  0  0  0  0  0  0  0
    6.4625   -7.1032   -1.9111 C   0  0  0  0  0  0  0  0  0  0  0  0
    6.1056   -8.4388   -2.0621 C   0  0  0  0  0  0  0  0  0  0  0  0
    4.7590   -8.8417   -1.9526 C   0  0  0  0  0  0  0  0  0  0  0  0
    4.3771  -10.1796   -2.0546 N   0  0  0  0  0  0  0  0  0  0  0  0
    5.1570  -11.2826   -2.2868 C   0  0  0  0  0  0  0  0  0  0  0  0
    6.3534  -11.2852   -2.5210 O   0  0  0  0  0  0  0  0  0  0  0  0
    4.3639  -12.6022   -2.2653 C   0  0  0  0  0  0  0  0  0  0  0  0
    2.9981  -12.4919   -1.7876 N   0  0  0  0  0  0  0  0  0  0  0  0
    2.6513  -12.9488   -0.4197 C   0  0  1  0  0  0  0  0  0  0  0  0
    3.4838  -12.1709    0.6130 C   0  0  0  0  0  0  0  0  0  0  0  0
    1.1637  -12.6150   -0.2244 C   0  0  0  0  0  0  0  0  0  0  0  0
    2.8732  -14.4668   -0.2497 C   0  0  0  0  0  0  0  0  0  0  0  0
    3.7717   -7.8420   -1.7369 C   0  0  0  0  0  0  0  0  0  0  0  0
    2.3262   -8.2192   -1.5495 C   0  0  0  0  0  0  0  0  0  0  0  0
    2.0199   -9.1696   -0.8284 O   0  0  0  0  0  0  0  0  0  0  0  0
    1.3667   -7.4532   -2.1646 N   0  0  0  0  0  0  0  0  0  0  0  0
    1.5868   -6.5946   -3.3174 C   0  0  0  0  0  0  0  0  0  0  0  0
   -0.0279   -7.6918   -1.8275 C   0  0  0  0  0  0  0  0  0  0  0  0
    4.1667   -6.5072   -1.5754 C   0  0  0  0  0  0  0  0  0  0  0  0
    7.1053   -4.3230   -0.8336 C   0  0  0  0  0  0  0  0  0  0  0  0
    7.4898   -4.1719    4.0161 H   0  0  0  0  0  0  0  0  0  0  0  0
    7.0438   -2.4715    4.1629 H   0  0  0  0  0  0  0  0  0  0  0  0
    8.7557   -2.9421    4.2239 H   0  0  0  0  0  0  0  0  0  0  0  0
    6.8964   -3.2387    1.7363 H   0  0  0  0  0  0  0  0  0  0  0  0
   10.2768   -2.3949    3.1043 H   0  0  0  0  0  0  0  0  0  0  0  0
   10.5076   -1.2361    1.7850 H   0  0  0  0  0  0  0  0  0  0  0  0
   11.0349   -2.9164    1.5872 H   0  0  0  0  0  0  0  0  0  0  0  0
   10.6884   -1.7873   -0.4005 H   0  0  0  0  0  0  0  0  0  0  0  0
    8.8408   -2.2616   -2.6557 H   0  0  0  0  0  0  0  0  0  0  0  0
   11.6629   -1.3276   -2.5342 H   0  0  0  0  0  0  0  0  0  0  0  0
   10.3797   -0.1560   -2.9383 H   0  0  0  0  0  0  0  0  0  0  0  0
   10.6892   -1.5603   -3.9993 H   0  0  0  0  0  0  0  0  0  0  0  0
    6.7367   -0.9546   -1.0066 H   0  0  0  0  0  0  0  0  0  0  0  0
    4.1436   -3.8469   -2.4253 H   0  0  0  0  0  0  0  0  0  0  0  0
    7.5160   -6.8314   -2.0120 H   0  0  0  0  0  0  0  0  0  0  0  0
    6.8571   -9.1987   -2.2640 H   0  0  0  0  0  0  0  0  0  0  0  0
    3.4090  -10.4199   -1.8161 H   0  0  0  0  0  0  0  0  0  0  0  0
    4.9882  -13.3183   -1.7020 H   0  0  0  0  0  0  0  0  0  0  0  0
    4.3760  -12.9668   -3.3064 H   0  0  0  0  0  0  0  0  0  0  0  0
    2.3452  -12.8961   -2.4535 H   0  0  0  0  0  0  0  0  0  0  0  0
    3.2978  -11.0909    0.5244 H   0  0  0  0  0  0  0  0  0  0  0  0
    4.5639  -12.3554    0.4957 H   0  0  0  0  0  0  0  0  0  0  0  0
    3.2097  -12.4875    1.6315 H   0  0  0  0  0  0  0  0  0  0  0  0
    1.0002  -11.5341   -0.3436 H   0  0  0  0  0  0  0  0  0  0  0  0
    0.8216  -12.9203    0.7769 H   0  0  0  0  0  0  0  0  0  0  0  0
    0.5407  -13.1486   -0.9636 H   0  0  0  0  0  0  0  0  0  0  0  0
    3.9297  -14.7450   -0.3943 H   0  0  0  0  0  0  0  0  0  0  0  0
    2.2703  -15.0349   -0.9781 H   0  0  0  0  0  0  0  0  0  0  0  0
    2.5824  -14.7998    0.7595 H   0  0  0  0  0  0  0  0  0  0  0  0
    2.6241   -6.6566   -3.6627 H   0  0  0  0  0  0  0  0  0  0  0  0
    1.3523   -5.5392   -3.0909 H   0  0  0  0  0  0  0  0  0  0  0  0
    0.9302   -6.9132   -4.1466 H   0  0  0  0  0  0  0  0  0  0  0  0
   -0.0860   -8.2129   -0.8655 H   0  0  0  0  0  0  0  0  0  0  0  0
   -0.5295   -8.3137   -2.5919 H   0  0  0  0  0  0  0  0  0  0  0  0
   -0.5624   -6.7299   -1.7626 H   0  0  0  0  0  0  0  0  0  0  0  0
    3.3992   -5.7662   -1.3445 H   0  0  0  0  0  0  0  0  0  0  0  0
    7.7815   -5.0934   -0.4550 H   0  0  0  0  0  0  0  0  0  0  0  0
  1  2  1  0
  1 35  1  0
  1 36  1  0
  1 37  1  0
  2  3  2  0
  2 38  1  0
  3  4  1  0
  3  5  1  0
  4 39  1  0
  4 40  1  0
  4 41  1  0
  5  6  2  0
  5  9  1  0
  6  7  1  0
  6 42  1  0
  7  8  1  0
  7 43  1  0
  8 44  1  0
  8 45  1  0
  8 46  1  0
  9 10  2  0
  9 34  1  0
 10 11  1  0
 10 47  1  0
 11 12  2  0
 12 13  1  0
 12 48  1  0
 13 14  1  0
 13 34  2  0
 14 15  2  0
 14 33  1  0
 15 16  1  0
 15 49  1  0
 16 17  2  0
 16 50  1  0
 17 18  1  0
 17 27  1  0
 18 19  1  0
 18 51  1  0
 19 20  2  0
 19 21  1  0
 21 22  1  0
 21 52  1  0
 21 53  1  0
 23 22  1  6
 22 54  1  0
 23 24  1  0
 23 25  1  0
 23 26  1  0
 24 55  1  0
 24 56  1  0
 24 57  1  0
 25 58  1  0
 25 59  1  0
 25 60  1  0
 26 61  1  0
 26 62  1  0
 26 63  1  0
 27 28  1  0
 27 33  2  0
 28 29  2  0
 28 30  1  0
 30 31  1  0
 30 32  1  0
 31 64  1  0
 31 65  1  0
 31 66  1  0
 32 67  1  0
 32 68  1  0
 32 69  1  0
 33 70  1  0
 34 71  1  0
M  END

