
     RDKit          3D

 46 49  0  0  0  0  0  0  0  0999 V2000
    3.5903    0.6681    4.6484 C   0  0  0  0  0  0  0  0  0  0  0  0
    3.7556   -0.5853    4.0489 C   0  0  0  0  0  0  0  0  0  0  0  0
    3.2296   -0.8356    2.7799 C   0  0  0  0  0  0  0  0  0  0  0  0
    2.5316    0.1675    2.0884 C   0  0  0  0  0  0  0  0  0  0  0  0
    1.9171   -0.0969    0.7264 C   0  0  0  0  0  0  0  0  0  0  0  0
    2.8044   -0.7891   -0.2053 N   0  0  0  0  0  0  0  0  0  0  0  0
    4.0078   -0.2916   -0.6641 C   0  0  0  0  0  0  0  0  0  0  0  0
    4.4680   -1.2052   -1.5833 C   0  0  0  0  0  0  0  0  0  0  0  0
    3.5801   -2.2414   -1.7036 N   0  0  0  0  0  0  0  0  0  0  0  0
    2.5906   -1.9737   -0.8728 C   0  0  0  0  0  0  0  0  0  0  0  0
    1.4170   -2.9131   -0.6900 C   0  0  1  0  0  0  0  0  0  0  0  0
    1.3809   -3.4954    0.7182 C   0  0  0  0  0  0  0  0  0  0  0  0
    0.5147   -3.2472    1.7566 C   0  0  0  0  0  0  0  0  0  0  0  0
    0.8249   -3.9842    2.9423 C   0  0  0  0  0  0  0  0  0  0  0  0
    1.9253   -4.7866    2.7921 C   0  0  0  0  0  0  0  0  0  0  0  0
    2.5954   -4.6546    1.2001 S   0  0  0  0  0  0  0  0  0  0  0  0
    0.1171   -2.3071   -1.0328 N   0  0  0  0  0  0  0  0  0  0  0  0
    0.1069   -1.3713   -2.1659 C   0  0  0  0  0  0  0  0  0  0  0  0
    0.1614   -2.0611   -3.5334 C   0  0  0  0  0  0  0  0  0  0  0  0
   -0.9552   -2.9957   -3.6355 N   0  0  0  0  0  0  0  0  0  0  0  0
   -0.9297   -3.9940   -2.5739 C   0  0  0  0  0  0  0  0  0  0  0  0
   -0.9632   -3.2905   -1.2102 C   0  0  0  0  0  0  0  0  0  0  0  0
    2.3759    1.4221    2.6945 C   0  0  0  0  0  0  0  0  0  0  0  0
    2.8976    1.6722    3.9679 C   0  0  0  0  0  0  0  0  0  0  0  0
    4.0035    0.8615    5.6417 H   0  0  0  0  0  0  0  0  0  0  0  0
    4.2972   -1.3763    4.5742 H   0  0  0  0  0  0  0  0  0  0  0  0
    3.3645   -1.8175    2.3206 H   0  0  0  0  0  0  0  0  0  0  0  0
    1.6071    0.8592    0.2733 H   0  0  0  0  0  0  0  0  0  0  0  0
    1.0086   -0.7079    0.8152 H   0  0  0  0  0  0  0  0  0  0  0  0
    4.4161    0.6456   -0.2936 H   0  0  0  0  0  0  0  0  0  0  0  0
    5.3911   -1.1678   -2.1607 H   0  0  0  0  0  0  0  0  0  0  0  0
    1.6847   -3.7414   -1.3737 H   0  0  0  0  0  0  0  0  0  0  0  0
   -0.3289   -2.5624    1.6659 H   0  0  0  0  0  0  0  0  0  0  0  0
    0.2501   -3.9172    3.8675 H   0  0  0  0  0  0  0  0  0  0  0  0
    2.3839   -5.4503    3.5240 H   0  0  0  0  0  0  0  0  0  0  0  0
    0.9318   -0.6524   -2.0717 H   0  0  0  0  0  0  0  0  0  0  0  0
   -0.8379   -0.8030   -2.1063 H   0  0  0  0  0  0  0  0  0  0  0  0
    1.1557   -2.5449   -3.6575 H   0  0  0  0  0  0  0  0  0  0  0  0
    0.0703   -1.3002   -4.3268 H   0  0  0  0  0  0  0  0  0  0  0  0
   -0.9683   -3.4431   -4.5496 H   0  0  0  0  0  0  0  0  0  0  0  0
   -0.0370   -4.6594   -2.6240 H   0  0  0  0  0  0  0  0  0  0  0  0
   -1.8150   -4.6459   -2.6627 H   0  0  0  0  0  0  0  0  0  0  0  0
   -0.9213   -4.0319   -0.4005 H   0  0  0  0  0  0  0  0  0  0  0  0
   -1.9228   -2.7521   -1.1221 H   0  0  0  0  0  0  0  0  0  0  0  0
    1.8402    2.2153    2.1642 H   0  0  0  0  0  0  0  0  0  0  0  0
    2.7675    2.6569    4.4246 H   0  0  0  0  0  0  0  0  0  0  0  0
  1  2  2  0
  1 24  1  0
  1 25  1  0
  2  3  1  0
  2 26  1  0
  3  4  2  0
  3 27  1  0
  4  5  1  0
  4 23  1  0
  5  6  1  0
  5 28  1  0
  5 29  1  0
  6  7  1  0
  6 10  1  0
  7  8  2  0
  7 30  1  0
  8  9  1  0
  8 31  1  0
  9 10  2  0
 10 11  1  0
 11 12  1  0
 11 17  1  0
 11 32  1  6
 12 13  2  0
 12 16  1  0
 13 14  1  0
 13 33  1  0
 14 15  2  0
 14 34  1  0
 15 16  1  0
 15 35  1  0
 17 18  1  0
 17 22  1  0
 18 19  1  0
 18 36  1  0
 18 37  1  0
 19 20  1  0
 19 38  1  0
 19 39  1  0
 20 21  1  0
 20 40  1  0
 21 22  1  0
 21 41  1  0
 21 42  1  0
 22 43  1  0
 22 44  1  0
 23 24  2  0
 23 45  1  0
 24 46  1  0
M  END

