
     RDKit          3D

 50 52  0  0  0  0  0  0  0  0999 V2000
   10.4923    4.1511    1.5830 C   0  0  0  0  0  0  0  0  0  0  0  0
    9.8532    3.4360    0.8446 C   0  0  0  0  0  0  0  0  0  0  0  0
    9.0956    2.5716   -0.0680 C   0  0  0  0  0  0  0  0  0  0  0  0
    7.7296    2.3076    0.3723 N   0  0  0  0  0  0  0  0  0  0  0  0
    6.6766    3.0817   -0.0747 C   0  0  0  0  0  0  0  0  0  0  0  0
    6.7390    4.0010   -0.8561 O   0  0  0  0  0  0  0  0  0  0  0  0
    5.1558    2.4709    0.7022 S   0  0  0  0  0  0  0  0  0  0  0  0
    6.0295    1.2028    1.5697 C   0  0  0  0  0  0  0  0  0  0  0  0
    5.4606    0.3023    2.4605 C   0  0  0  0  0  0  0  0  0  0  0  0
    6.2999   -0.6177    3.2446 C   0  0  0  0  0  0  0  0  0  0  0  0
    7.5604   -0.1842    3.7894 C   0  0  0  0  0  0  0  0  0  0  0  0
    8.4211   -1.0901    4.4343 C   0  0  0  0  0  0  0  0  0  0  0  0
    8.0663   -2.4167    4.6053 C   0  0  0  0  0  0  0  0  0  0  0  0
    8.9288   -3.2969    5.1732 O   0  0  0  0  0  0  0  0  0  0  0  0
    8.6081   -3.8292    6.4630 C   0  0  0  0  0  0  0  0  0  0  0  0
    9.4669   -5.0373    6.7455 C   0  0  0  0  0  0  0  0  0  0  0  0
    9.8410   -5.9079    5.7113 C   0  0  0  0  0  0  0  0  0  0  0  0
   10.5906   -7.0477    6.0031 C   0  0  0  0  0  0  0  0  0  0  0  0
   10.9656   -7.3323    7.3202 C   0  0  0  0  0  0  0  0  0  0  0  0
   10.6043   -6.4751    8.3690 C   0  0  0  0  0  0  0  0  0  0  0  0
   11.0155   -6.7566    9.7944 C   0  0  0  0  0  0  0  0  0  0  0  0
    9.8574   -5.3268    8.0577 C   0  0  0  0  0  0  0  0  0  0  0  0
    6.7909   -2.8545    4.1049 C   0  0  0  0  0  0  0  0  0  0  0  0
    6.5160   -4.1489    4.2803 O   0  0  0  0  0  0  0  0  0  0  0  0
    5.3087   -4.7341    3.7736 C   0  0  0  0  0  0  0  0  0  0  0  0
    5.3182   -6.2072    4.1247 C   0  0  0  0  0  0  0  0  0  0  0  0
    5.9336   -1.9450    3.4393 C   0  0  0  0  0  0  0  0  0  0  0  0
    7.4241    1.2312    1.2265 C   0  0  0  0  0  0  0  0  0  0  0  0
    8.3154    0.4403    1.6356 O   0  0  0  0  0  0  0  0  0  0  0  0
   11.0545    4.7885    2.2391 H   0  0  0  0  0  0  0  0  0  0  0  0
    9.6045    1.5999   -0.1623 H   0  0  0  0  0  0  0  0  0  0  0  0
    9.0346    3.0434   -1.0608 H   0  0  0  0  0  0  0  0  0  0  0  0
    4.3758    0.2345    2.5583 H   0  0  0  0  0  0  0  0  0  0  0  0
    7.7768    0.8794    3.8533 H   0  0  0  0  0  0  0  0  0  0  0  0
    9.3791   -0.7547    4.8356 H   0  0  0  0  0  0  0  0  0  0  0  0
    7.5408   -4.1090    6.4952 H   0  0  0  0  0  0  0  0  0  0  0  0
    8.7722   -3.0490    7.2287 H   0  0  0  0  0  0  0  0  0  0  0  0
    9.5509   -5.6758    4.6853 H   0  0  0  0  0  0  0  0  0  0  0  0
   10.8885   -7.7233    5.1968 H   0  0  0  0  0  0  0  0  0  0  0  0
   11.5528   -8.2295    7.5356 H   0  0  0  0  0  0  0  0  0  0  0  0
   11.5442   -7.7173    9.8804 H   0  0  0  0  0  0  0  0  0  0  0  0
   10.1416   -6.7911   10.4660 H   0  0  0  0  0  0  0  0  0  0  0  0
   11.6858   -5.9699   10.1803 H   0  0  0  0  0  0  0  0  0  0  0  0
    9.5781   -4.6397    8.8638 H   0  0  0  0  0  0  0  0  0  0  0  0
    5.2686   -4.5809    2.6818 H   0  0  0  0  0  0  0  0  0  0  0  0
    4.4420   -4.2190    4.2226 H   0  0  0  0  0  0  0  0  0  0  0  0
    6.1894   -6.7104    3.6798 H   0  0  0  0  0  0  0  0  0  0  0  0
    4.4052   -6.6861    3.7394 H   0  0  0  0  0  0  0  0  0  0  0  0
    5.3526   -6.3530    5.2148 H   0  0  0  0  0  0  0  0  0  0  0  0
    4.9857   -2.2933    3.0295 H   0  0  0  0  0  0  0  0  0  0  0  0
  1  2  3  0
  1 30  1  0
  2  3  1  0
  3  4  1  0
  3 31  1  0
  3 32  1  0
  4  5  1  0
  4 28  1  0
  5  6  2  0
  5  7  1  0
  7  8  1  0
  8  9  2  0
  8 28  1  0
  9 10  1  0
  9 33  1  0
 10 11  2  0
 10 27  1  0
 11 12  1  0
 11 34  1  0
 12 13  2  0
 12 35  1  0
 13 14  1  0
 13 23  1  0
 14 15  1  0
 15 16  1  0
 15 36  1  0
 15 37  1  0
 16 17  2  0
 16 22  1  0
 17 18  1  0
 17 38  1  0
 18 19  2  0
 18 39  1  0
 19 20  1  0
 19 40  1  0
 20 21  1  0
 20 22  2  0
 21 41  1  0
 21 42  1  0
 21 43  1  0
 22 44  1  0
 23 24  1  0
 23 27  2  0
 24 25  1  0
 25 26  1  0
 25 45  1  0
 25 46  1  0
 26 47  1  0
 26 48  1  0
 26 49  1  0
 27 50  1  0
 28 29  2  0
M  END

