
     RDKit          3D

 30 30  0  0  0  0  0  0  0  0999 V2000
    0.7358    2.5935   -3.2688 C   0  0  0  0  0  0  0  0  0  0  0  0
    2.0646    2.8265   -2.8828 O   0  0  0  0  0  0  0  0  0  0  0  0
    2.8941    1.6986   -2.9796 C   0  0  0  0  0  0  0  0  0  0  0  0
    4.2993    2.0930   -2.5285 C   0  0  1  0  0  0  0  0  0  0  0  0
    4.3451    2.5555   -1.0777 C   0  0  0  0  0  0  0  0  0  0  0  0
    5.0903    0.9188   -2.7328 O   0  0  0  0  0  0  0  0  0  0  0  0
    6.4254    0.9880   -2.9291 C   0  0  0  0  0  0  0  0  0  0  0  0
    7.1789    2.1696   -2.9993 C   0  0  0  0  0  0  0  0  0  0  0  0
    8.5555    2.0517   -3.2233 C   0  0  0  0  0  0  0  0  0  0  0  0
    9.2018    0.8981   -3.3662 N   0  0  0  0  0  0  0  0  0  0  0  0
    8.4758   -0.2317   -3.3006 C   0  0  0  0  0  0  0  0  0  0  0  0
    9.2492   -1.5223   -3.4999 C   0  0  0  0  0  0  0  0  0  0  0  0
    8.5219   -2.7010   -3.0501 N   0  0  0  0  0  0  0  0  0  0  0  0
    7.0981   -0.2353   -3.0851 C   0  0  0  0  0  0  0  0  0  0  0  0
    0.1821    3.5367   -3.1548 H   0  0  0  0  0  0  0  0  0  0  0  0
    0.2508    1.8202   -2.6393 H   0  0  0  0  0  0  0  0  0  0  0  0
    0.6628    2.2662   -4.3257 H   0  0  0  0  0  0  0  0  0  0  0  0
    2.9437    1.3195   -4.0206 H   0  0  0  0  0  0  0  0  0  0  0  0
    2.5231    0.8661   -2.3452 H   0  0  0  0  0  0  0  0  0  0  0  0
    4.6456    2.9005   -3.1969 H   0  0  0  0  0  0  0  0  0  0  0  0
    4.0244    1.7392   -0.4110 H   0  0  0  0  0  0  0  0  0  0  0  0
    3.6622    3.4066   -0.9439 H   0  0  0  0  0  0  0  0  0  0  0  0
    5.3586    2.8642   -0.7823 H   0  0  0  0  0  0  0  0  0  0  0  0
    6.7344    3.1573   -2.8821 H   0  0  0  0  0  0  0  0  0  0  0  0
    9.1634    2.9635   -3.2814 H   0  0  0  0  0  0  0  0  0  0  0  0
   10.2457   -1.3697   -3.0378 H   0  0  0  0  0  0  0  0  0  0  0  0
    9.4406   -1.6274   -4.5835 H   0  0  0  0  0  0  0  0  0  0  0  0
    8.4941   -2.7360   -2.0303 H   0  0  0  0  0  0  0  0  0  0  0  0
    8.9935   -3.5503   -3.3568 H   0  0  0  0  0  0  0  0  0  0  0  0
    6.5504   -1.1768   -3.0449 H   0  0  0  0  0  0  0  0  0  0  0  0
  1  2  1  0
  1 15  1  0
  1 16  1  0
  1 17  1  0
  2  3  1  0
  3  4  1  0
  3 18  1  0
  3 19  1  0
  4  5  1  0
  4  6  1  0
  4 20  1  6
  5 21  1  0
  5 22  1  0
  5 23  1  0
  6  7  1  0
  7  8  2  0
  7 14  1  0
  8  9  1  0
  8 24  1  0
  9 10  2  0
  9 25  1  0
 10 11  1  0
 11 12  1  0
 11 14  2  0
 12 13  1  0
 12 26  1  0
 12 27  1  0
 13 28  1  0
 13 29  1  0
 14 30  1  0
M  END

