
     RDKit          3D

 60 64  0  0  0  0  0  0  0  0999 V2000
    2.0264   -1.1652    0.3229 C   0  0  0  0  0  0  0  0  0  0  0  0
    3.0268   -0.0789    0.1434 C   0  0  0  0  0  0  0  0  0  0  0  0
    4.3931   -0.0406    0.1412 C   0  0  0  0  0  0  0  0  0  0  0  0
    4.6855    1.3393   -0.0857 C   0  0  0  0  0  0  0  0  0  0  0  0
    5.9480    1.9556   -0.1492 N   0  0  0  0  0  0  0  0  0  0  0  0
    6.3293    3.0857    0.5950 C   0  0  0  0  0  0  0  0  0  0  0  0
    5.4279    3.7580    1.5783 C   0  0  0  0  0  0  0  0  0  0  0  0
    7.6241    3.3705    0.2503 C   0  0  0  0  0  0  0  0  0  0  0  0
    8.0584    2.4091   -0.7293 C   0  0  0  0  0  0  0  0  0  0  0  0
    9.3697    2.3517   -1.3901 C   0  0  0  0  0  0  0  0  0  0  0  0
    9.6896    1.5007   -2.2078 O   0  0  0  0  0  0  0  0  0  0  0  0
   10.3579    3.4450   -1.0027 C   0  0  0  0  0  0  0  0  0  0  0  0
   11.9099    3.1975   -1.9354 S   0  0  0  0  0  0  0  0  0  0  0  0
   12.7752    4.5753   -1.2544 C   0  0  0  0  0  0  0  0  0  0  0  0
   12.3359    5.4142   -0.3554 N   0  0  0  0  0  0  0  0  0  0  0  0
   13.3353    6.3308   -0.1057 N   0  0  0  0  0  0  0  0  0  0  0  0
   14.3509    6.0451   -0.8796 C   0  0  0  0  0  0  0  0  0  0  0  0
   15.5216    6.7740   -1.0022 N   0  0  0  0  0  0  0  0  0  0  0  0
   15.4998    8.1314   -0.4408 C   0  0  0  0  0  0  0  0  0  0  0  0
   15.9361    8.1407    1.0244 C   0  0  0  0  0  0  0  0  0  0  0  0
   17.2048    7.5225    1.1771 O   0  0  0  0  0  0  0  0  0  0  0  0
   17.1996    6.1856    0.7215 C   0  0  0  0  0  0  0  0  0  0  0  0
   16.8093    6.1052   -0.7565 C   0  0  0  0  0  0  0  0  0  0  0  0
   14.0639    4.9199   -1.6518 N   0  0  0  0  0  0  0  0  0  0  0  0
   14.8195    4.3632   -2.7238 C   0  0  0  0  0  0  0  0  0  0  0  0
   15.2574    5.1844   -3.7730 C   0  0  0  0  0  0  0  0  0  0  0  0
   15.9933    4.6269   -4.8204 C   0  0  0  0  0  0  0  0  0  0  0  0
   16.2866    3.2604   -4.8439 C   0  0  0  0  0  0  0  0  0  0  0  0
   15.8352    2.4660   -3.7926 C   0  0  0  0  0  0  0  0  0  0  0  0
   16.1119    1.1565   -3.7977 F   0  0  0  0  0  0  0  0  0  0  0  0
   15.1133    2.9931   -2.7241 C   0  0  0  0  0  0  0  0  0  0  0  0
    6.9915    1.5395   -0.9586 C   0  0  0  0  0  0  0  0  0  0  0  0
    6.8798    0.3858   -1.9009 C   0  0  0  0  0  0  0  0  0  0  0  0
    3.5905    2.0563   -0.2119 N   0  0  0  0  0  0  0  0  0  0  0  0
    2.5522    1.1670   -0.0575 O   0  0  0  0  0  0  0  0  0  0  0  0
    2.5312   -2.1237    0.5012 H   0  0  0  0  0  0  0  0  0  0  0  0
    1.3906   -1.2624   -0.5718 H   0  0  0  0  0  0  0  0  0  0  0  0
    1.3647   -0.9491    1.1769 H   0  0  0  0  0  0  0  0  0  0  0  0
    5.0890   -0.8594    0.2941 H   0  0  0  0  0  0  0  0  0  0  0  0
    5.0738    3.0611    2.3572 H   0  0  0  0  0  0  0  0  0  0  0  0
    4.5339    4.1837    1.0980 H   0  0  0  0  0  0  0  0  0  0  0  0
    5.9796    4.5676    2.0763 H   0  0  0  0  0  0  0  0  0  0  0  0
    8.2078    4.1892    0.6661 H   0  0  0  0  0  0  0  0  0  0  0  0
   10.5686    3.4297    0.0774 H   0  0  0  0  0  0  0  0  0  0  0  0
    9.9515    4.4447   -1.2196 H   0  0  0  0  0  0  0  0  0  0  0  0
   14.4879    8.5447   -0.5446 H   0  0  0  0  0  0  0  0  0  0  0  0
   16.2018    8.7470   -1.0310 H   0  0  0  0  0  0  0  0  0  0  0  0
   15.1734    7.6229    1.6369 H   0  0  0  0  0  0  0  0  0  0  0  0
   16.0392    9.1735    1.3921 H   0  0  0  0  0  0  0  0  0  0  0  0
   16.4975    5.5727    1.3251 H   0  0  0  0  0  0  0  0  0  0  0  0
   18.2161    5.7882    0.8723 H   0  0  0  0  0  0  0  0  0  0  0  0
   16.7630    5.0584   -1.0879 H   0  0  0  0  0  0  0  0  0  0  0  0
   17.5784    6.6124   -1.3642 H   0  0  0  0  0  0  0  0  0  0  0  0
   15.0244    6.2490   -3.7562 H   0  0  0  0  0  0  0  0  0  0  0  0
   16.3353    5.2647   -5.6387 H   0  0  0  0  0  0  0  0  0  0  0  0
   16.8525    2.8039   -5.6578 H   0  0  0  0  0  0  0  0  0  0  0  0
   14.7831    2.3386   -1.9169 H   0  0  0  0  0  0  0  0  0  0  0  0
    7.7101    0.4323   -2.6146 H   0  0  0  0  0  0  0  0  0  0  0  0
    5.9208    0.3940   -2.4428 H   0  0  0  0  0  0  0  0  0  0  0  0
    6.9563   -0.5835   -1.3778 H   0  0  0  0  0  0  0  0  0  0  0  0
  1  2  1  0
  1 36  1  0
  1 37  1  0
  1 38  1  0
  2  3  2  0
  2 35  1  0
  3  4  1  0
  3 39  1  0
  4  5  1  0
  4 34  2  0
  5  6  1  0
  5 32  1  0
  6  7  1  0
  6  8  2  0
  7 40  1  0
  7 41  1  0
  7 42  1  0
  8  9  1  0
  8 43  1  0
  9 10  1  0
  9 32  2  0
 10 11  2  0
 10 12  1  0
 12 13  1  0
 12 44  1  0
 12 45  1  0
 13 14  1  0
 14 15  2  0
 14 24  1  0
 15 16  1  0
 16 17  2  0
 17 18  1  0
 17 24  1  0
 18 19  1  0
 18 23  1  0
 19 20  1  0
 19 46  1  0
 19 47  1  0
 20 21  1  0
 20 48  1  0
 20 49  1  0
 21 22  1  0
 22 23  1  0
 22 50  1  0
 22 51  1  0
 23 52  1  0
 23 53  1  0
 24 25  1  0
 25 26  2  0
 25 31  1  0
 26 27  1  0
 26 54  1  0
 27 28  2  0
 27 55  1  0
 28 29  1  0
 28 56  1  0
 29 30  1  0
 29 31  2  0
 31 57  1  0
 32 33  1  0
 33 58  1  0
 33 59  1  0
 33 60  1  0
 34 35  1  0
M  END

