
     RDKit          3D

129142  0  0  0  0  0  0  0  0999 V2000
    1.3741    2.0202    4.1328 C   0  0  0  0  0  0  0  0  0  0  0  0
    1.7000    3.0866    3.2877 C   0  0  0  0  0  0  0  0  0  0  0  0
    2.5161    2.8754    2.1762 C   0  0  0  0  0  0  0  0  0  0  0  0
    3.0186    1.5924    1.8965 C   0  0  0  0  0  0  0  0  0  0  0  0
    3.8895    1.3664    0.7130 C   0  0  0  0  0  0  0  0  0  0  0  0
    4.1596    2.4108   -0.0811 N   0  0  0  0  0  0  0  0  0  0  0  0
    4.9466    2.1655   -1.1368 C   0  0  0  0  0  0  0  0  0  0  0  0
    5.2734    3.2962   -2.0454 C   0  0  0  0  0  0  0  0  0  0  0  0
    4.7560    4.5802   -1.7998 C   0  0  0  0  0  0  0  0  0  0  0  0
    5.0651    5.6404   -2.6523 C   0  0  0  0  0  0  0  0  0  0  0  0
    5.8939    5.4325   -3.7601 C   0  0  0  0  0  0  0  0  0  0  0  0
    6.4127    4.1576   -4.0117 C   0  0  0  0  0  0  0  0  0  0  0  0
    6.1051    3.0955   -3.1611 C   0  0  0  0  0  0  0  0  0  0  0  0
    5.4570    0.9608   -1.4188 N   0  0  0  0  0  0  0  0  0  0  0  0
    5.1421   -0.0318   -0.5747 C   0  0  0  0  0  0  0  0  0  0  0  0
    5.6913   -1.3816   -0.8444 C   0  0  0  0  0  0  0  0  0  0  0  0
    6.4973   -1.6182   -1.9718 C   0  0  0  0  0  0  0  0  0  0  0  0
    7.0178   -2.8844   -2.2203 C   0  0  0  0  0  0  0  0  0  0  0  0
    6.7600   -3.9670   -1.3539 C   0  0  0  0  0  0  0  0  0  0  0  0
    7.3263   -5.3116   -1.6149 C   0  0  0  0  0  0  0  0  0  0  0  0
    8.5715   -5.4823   -2.2494 C   0  0  0  0  0  0  0  0  0  0  0  0
    9.1088   -6.7400   -2.4815 C   0  0  0  0  0  0  0  0  0  0  0  0
    8.4302   -7.9234   -2.0928 C   0  0  0  0  0  0  0  0  0  0  0  0
    7.1656   -7.7778   -1.4627 C   0  0  0  0  0  0  0  0  0  0  0  0
    6.6577   -6.4859   -1.2428 C   0  0  0  0  0  0  0  0  0  0  0  0
    6.1411   -9.2549   -0.9507 Si  0  0  2  0  0  4  0  0  0  0  0  0
    4.5441   -9.4066   -1.9647 C   0  0  0  0  0  0  0  0  0  0  0  0
    4.4908  -10.2164   -3.1160 C   0  0  0  0  0  0  0  0  0  0  0  0
    3.3374  -10.2835   -3.9040 C   0  0  0  0  0  0  0  0  0  0  0  0
    2.2081   -9.5361   -3.5577 C   0  0  0  0  0  0  0  0  0  0  0  0
    2.2378   -8.7246   -2.4194 C   0  0  0  0  0  0  0  0  0  0  0  0
    3.3921   -8.6646   -1.6332 C   0  0  0  0  0  0  0  0  0  0  0  0
    5.7043   -9.1725    0.8925 C   0  0  0  0  0  0  0  0  0  0  0  0
    4.5828   -9.8436    1.4199 C   0  0  0  0  0  0  0  0  0  0  0  0
    4.3111   -9.8365    2.7919 C   0  0  0  0  0  0  0  0  0  0  0  0
    5.1560   -9.1511    3.6693 C   0  0  0  0  0  0  0  0  0  0  0  0
    6.2732   -8.4756    3.1681 C   0  0  0  0  0  0  0  0  0  0  0  0
    6.5424   -8.4895    1.7966 C   0  0  0  0  0  0  0  0  0  0  0  0
    7.3072  -10.6631   -1.3365 C   0  0  0  0  0  0  0  0  0  0  0  0
    6.9290  -11.9731   -0.9946 C   0  0  0  0  0  0  0  0  0  0  0  0
    7.7188  -13.1022   -1.2500 C   0  0  0  0  0  0  0  0  0  0  0  0
    7.2796  -14.4689   -0.8811 C   0  0  0  0  0  0  0  0  0  0  0  0
    5.9212  -14.8422   -0.9423 C   0  0  0  0  0  0  0  0  0  0  0  0
    5.5094  -16.1286   -0.6071 C   0  0  0  0  0  0  0  0  0  0  0  0
    6.4419  -17.0962   -0.1934 C   0  0  0  0  0  0  0  0  0  0  0  0
    6.0067  -18.4698    0.1542 C   0  0  0  0  0  0  0  0  0  0  0  0
    4.7078  -18.7750    0.0269 N   0  0  0  0  0  0  0  0  0  0  0  0
    4.3585  -20.0292    0.3378 C   0  0  0  0  0  0  0  0  0  0  0  0
    2.9285  -20.4132    0.2032 C   0  0  0  0  0  0  0  0  0  0  0  0
    1.9786  -19.4771   -0.2420 C   0  0  0  0  0  0  0  0  0  0  0  0
    0.6376  -19.8393   -0.3703 C   0  0  0  0  0  0  0  0  0  0  0  0
    0.2278  -21.1398   -0.0563 C   0  0  0  0  0  0  0  0  0  0  0  0
    1.1668  -22.0772    0.3876 C   0  0  0  0  0  0  0  0  0  0  0  0
    2.5085  -21.7178    0.5172 C   0  0  0  0  0  0  0  0  0  0  0  0
    5.2248  -20.9587    0.7619 N   0  0  0  0  0  0  0  0  0  0  0  0
    6.5031  -20.5733    0.8695 C   0  0  0  0  0  0  0  0  0  0  0  0
    7.4986  -21.5705    1.3435 C   0  0  0  0  0  0  0  0  0  0  0  0
    7.1027  -22.8865    1.6408 C   0  0  0  0  0  0  0  0  0  0  0  0
    8.0381  -23.8211    2.0855 C   0  0  0  0  0  0  0  0  0  0  0  0
    9.3793  -23.4541    2.2406 C   0  0  0  0  0  0  0  0  0  0  0  0
    9.7812  -22.1463    1.9478 C   0  0  0  0  0  0  0  0  0  0  0  0
    8.8484  -21.2099    1.5015 C   0  0  0  0  0  0  0  0  0  0  0  0
    6.9347  -19.3412    0.5741 N   0  0  0  0  0  0  0  0  0  0  0  0
    7.7981  -16.7321   -0.1241 C   0  0  0  0  0  0  0  0  0  0  0  0
    8.2066  -15.4457   -0.4628 C   0  0  0  0  0  0  0  0  0  0  0  0
    8.9531  -12.8667   -1.8848 C   0  0  0  0  0  0  0  0  0  0  0  0
    9.3624  -11.5888   -2.2372 C   0  0  0  0  0  0  0  0  0  0  0  0
    8.5600  -10.4498   -1.9704 C   0  0  0  0  0  0  0  0  0  0  0  0
    9.0427   -9.1736   -2.3476 N   0  0  0  0  0  0  0  0  0  0  0  0
   10.3064   -9.1424   -3.0429 C   0  0  0  0  0  0  0  0  0  0  0  0
   10.3343   -9.2009   -4.4411 C   0  0  0  0  0  0  0  0  0  0  0  0
   11.5573   -9.1707   -5.1173 C   0  0  0  0  0  0  0  0  0  0  0  0
   12.7543   -9.0823   -4.3996 C   0  0  0  0  0  0  0  0  0  0  0  0
   12.7258   -9.0234   -3.0022 C   0  0  0  0  0  0  0  0  0  0  0  0
   11.5045   -9.0532   -2.3236 C   0  0  0  0  0  0  0  0  0  0  0  0
    5.9492   -3.7194   -0.2266 C   0  0  0  0  0  0  0  0  0  0  0  0
    5.4234   -2.4554    0.0228 C   0  0  0  0  0  0  0  0  0  0  0  0
    4.3603    0.1314    0.5017 N   0  0  0  0  0  0  0  0  0  0  0  0
    2.6867    0.5261    2.7509 C   0  0  0  0  0  0  0  0  0  0  0  0
    1.8694    0.7402    3.8609 C   0  0  0  0  0  0  0  0  0  0  0  0
    0.7342    2.1866    5.0034 H   0  0  0  0  0  0  0  0  0  0  0  0
    1.3152    4.0880    3.4968 H   0  0  0  0  0  0  0  0  0  0  0  0
    2.7775    3.6972    1.5092 H   0  0  0  0  0  0  0  0  0  0  0  0
    4.1115    4.7287   -0.9331 H   0  0  0  0  0  0  0  0  0  0  0  0
    4.6577    6.6347   -2.4525 H   0  0  0  0  0  0  0  0  0  0  0  0
    6.1356    6.2639   -4.4276 H   0  0  0  0  0  0  0  0  0  0  0  0
    7.0605    3.9914   -4.8762 H   0  0  0  0  0  0  0  0  0  0  0  0
    6.5029    2.0973   -3.3456 H   0  0  0  0  0  0  0  0  0  0  0  0
    6.7007   -0.7925   -2.6542 H   0  0  0  0  0  0  0  0  0  0  0  0
    7.6178   -3.0438   -3.1187 H   0  0  0  0  0  0  0  0  0  0  0  0
    9.1554   -4.6079   -2.5458 H   0  0  0  0  0  0  0  0  0  0  0  0
   10.0823   -6.7988   -2.9625 H   0  0  0  0  0  0  0  0  0  0  0  0
    5.6734   -6.3948   -0.7754 H   0  0  0  0  0  0  0  0  0  0  0  0
    5.3644  -10.8088   -3.4027 H   0  0  0  0  0  0  0  0  0  0  0  0
    3.3205  -10.9220   -4.7915 H   0  0  0  0  0  0  0  0  0  0  0  0
    1.3055   -9.5869   -4.1726 H   0  0  0  0  0  0  0  0  0  0  0  0
    1.3579   -8.1382   -2.1410 H   0  0  0  0  0  0  0  0  0  0  0  0
    3.3882   -8.0313   -0.7411 H   0  0  0  0  0  0  0  0  0  0  0  0
    3.9026  -10.3783    0.7507 H   0  0  0  0  0  0  0  0  0  0  0  0
    3.4351  -10.3661    3.1762 H   0  0  0  0  0  0  0  0  0  0  0  0
    4.9438   -9.1421    4.7418 H   0  0  0  0  0  0  0  0  0  0  0  0
    6.9378   -7.9362    3.8484 H   0  0  0  0  0  0  0  0  0  0  0  0
    7.4215   -7.9561    1.4236 H   0  0  0  0  0  0  0  0  0  0  0  0
    5.9750  -12.1143   -0.4784 H   0  0  0  0  0  0  0  0  0  0  0  0
    5.1791  -14.1188   -1.2869 H   0  0  0  0  0  0  0  0  0  0  0  0
    4.4571  -16.4068   -0.6707 H   0  0  0  0  0  0  0  0  0  0  0  0
    2.3114  -18.4676   -0.4844 H   0  0  0  0  0  0  0  0  0  0  0  0
   -0.0929  -19.1041   -0.7175 H   0  0  0  0  0  0  0  0  0  0  0  0
   -0.8234  -21.4226   -0.1574 H   0  0  0  0  0  0  0  0  0  0  0  0
    0.8505  -23.0940    0.6340 H   0  0  0  0  0  0  0  0  0  0  0  0
    3.2501  -22.4388    0.8620 H   0  0  0  0  0  0  0  0  0  0  0  0
    6.0545  -23.1593    1.5166 H   0  0  0  0  0  0  0  0  0  0  0  0
    7.7202  -24.8418    2.3130 H   0  0  0  0  0  0  0  0  0  0  0  0
   10.1112  -24.1872    2.5899 H   0  0  0  0  0  0  0  0  0  0  0  0
   10.8278  -21.8555    2.0683 H   0  0  0  0  0  0  0  0  0  0  0  0
    9.1482  -20.1875    1.2701 H   0  0  0  0  0  0  0  0  0  0  0  0
    8.5250  -17.4751    0.2051 H   0  0  0  0  0  0  0  0  0  0  0  0
    9.2636  -15.1838   -0.3784 H   0  0  0  0  0  0  0  0  0  0  0  0
    9.6039  -13.7074   -2.1357 H   0  0  0  0  0  0  0  0  0  0  0  0
   10.3225  -11.4787   -2.7359 H   0  0  0  0  0  0  0  0  0  0  0  0
    9.3929   -9.2689   -4.9907 H   0  0  0  0  0  0  0  0  0  0  0  0
   11.5744   -9.2162   -6.2090 H   0  0  0  0  0  0  0  0  0  0  0  0
   13.7099   -9.0589   -4.9292 H   0  0  0  0  0  0  0  0  0  0  0  0
   13.6586   -8.9537   -2.4371 H   0  0  0  0  0  0  0  0  0  0  0  0
   11.4701   -9.0079   -1.2328 H   0  0  0  0  0  0  0  0  0  0  0  0
    5.7503   -4.5258    0.4825 H   0  0  0  0  0  0  0  0  0  0  0  0
    4.8060   -2.2780    0.9038 H   0  0  0  0  0  0  0  0  0  0  0  0
    3.0792   -0.4663    2.5277 H   0  0  0  0  0  0  0  0  0  0  0  0
    1.6167   -0.0953    4.5187 H   0  0  0  0  0  0  0  0  0  0  0  0
  1  2  2  0
  1 80  1  0
  1 81  1  0
  2  3  1  0
  2 82  1  0
  3  4  2  0
  3 83  1  0
  4  5  1  0
  4 79  1  0
  5  6  2  0
  5 78  1  0
  6  7  1  0
  7  8  1  0
  7 14  2  0
  8  9  2  0
  8 13  1  0
  9 10  1  0
  9 84  1  0
 10 11  2  0
 10 85  1  0
 11 12  1  0
 11 86  1  0
 12 13  2  0
 12 87  1  0
 13 88  1  0
 14 15  1  0
 15 16  1  0
 15 78  2  0
 16 17  2  0
 16 77  1  0
 17 18  1  0
 17 89  1  0
 18 19  2  0
 18 90  1  0
 19 20  1  0
 19 76  1  0
 20 21  2  0
 20 25  1  0
 21 22  1  0
 21 91  1  0
 22 23  2  0
 22 92  1  0
 23 24  1  0
 23 69  1  0
 24 25  2  0
 24 26  1  0
 25 93  1  0
 26 27  1  6
 26 33  1  0
 26 39  1  0
 27 28  2  0
 27 32  1  0
 28 29  1  0
 28 94  1  0
 29 30  2  0
 29 95  1  0
 30 31  1  0
 30 96  1  0
 31 32  2  0
 31 97  1  0
 32 98  1  0
 33 34  2  0
 33 38  1  0
 34 35  1  0
 34 99  1  0
 35 36  2  0
 35100  1  0
 36 37  1  0
 36101  1  0
 37 38  2  0
 37102  1  0
 38103  1  0
 39 40  1  0
 39 68  2  0
 40 41  2  0
 40104  1  0
 41 42  1  0
 41 66  1  0
 42 43  2  0
 42 65  1  0
 43 44  1  0
 43105  1  0
 44 45  2  0
 44106  1  0
 45 46  1  0
 45 64  1  0
 46 47  2  0
 46 63  1  0
 47 48  1  0
 48 49  1  0
 48 55  2  0
 49 50  2  0
 49 54  1  0
 50 51  1  0
 50107  1  0
 51 52  2  0
 51108  1  0
 52 53  1  0
 52109  1  0
 53 54  2  0
 53110  1  0
 54111  1  0
 55 56  1  0
 56 57  1  0
 56 63  2  0
 57 58  2  0
 57 62  1  0
 58 59  1  0
 58112  1  0
 59 60  2  0
 59113  1  0
 60 61  1  0
 60114  1  0
 61 62  2  0
 61115  1  0
 62116  1  0
 64 65  2  0
 64117  1  0
 65118  1  0
 66 67  2  0
 66119  1  0
 67 68  1  0
 67120  1  0
 68 69  1  0
 69 70  1  0
 70 71  2  0
 70 75  1  0
 71 72  1  0
 71121  1  0
 72 73  2  0
 72122  1  0
 73 74  1  0
 73123  1  0
 74 75  2  0
 74124  1  0
 75125  1  0
 76 77  2  0
 76126  1  0
 77127  1  0
 79 80  2  0
 79128  1  0
 80129  1  0
M  END

