
     RDKit          3D

 42 42  0  0  0  0  0  0  0  0999 V2000
    0.6726    0.1147    2.9372 C   0  0  0  0  0  0  0  0  0  0  0  0
    2.1647    0.3598    2.7112 C   0  0  0  0  0  0  0  0  0  0  0  0
    2.8652   -0.8438    2.0696 C   0  0  0  0  0  0  0  0  0  0  0  0
    4.2946   -0.6390    1.8312 N   0  0  0  0  0  0  0  0  0  0  0  0
    4.7281   -0.0302    0.5817 C   0  0  0  0  0  0  0  0  0  0  0  0
    5.5345   -0.9478   -0.3337 C   0  0  0  0  0  0  0  0  0  0  0  0
    4.9598   -2.1332   -0.8199 C   0  0  0  0  0  0  0  0  0  0  0  0
    3.6883   -2.4020   -0.4871 F   0  0  0  0  0  0  0  0  0  0  0  0
    5.6270   -3.0373   -1.6389 C   0  0  0  0  0  0  0  0  0  0  0  0
    6.9441   -2.7570   -2.0117 C   0  0  0  0  0  0  0  0  0  0  0  0
    7.5639   -1.5860   -1.5735 C   0  0  0  0  0  0  0  0  0  0  0  0
    6.8534   -0.7010   -0.7539 C   0  0  0  0  0  0  0  0  0  0  0  0
    7.6864    0.7654   -0.2516 Cl  0  0  0  0  0  0  0  0  0  0  0  0
    5.1607   -0.9472    2.8766 C   0  0  0  0  0  0  0  0  0  0  0  0
    4.7658   -1.4872    3.9036 O   0  0  0  0  0  0  0  0  0  0  0  0
    6.4869   -0.6347    2.6904 N   0  0  0  0  0  0  0  0  0  0  0  0
    7.4715   -0.9182    3.7258 C   0  0  0  0  0  0  0  0  0  0  0  0
    7.8664   -2.4005    3.8194 C   0  0  0  0  0  0  0  0  0  0  0  0
    8.3011   -3.0206    2.4918 C   0  0  0  0  0  0  0  0  0  0  0  0
    9.5743   -2.4280    1.9036 C   0  0  0  0  0  0  0  0  0  0  0  0
   10.3371   -1.7104    2.4912 O   0  0  0  0  0  0  0  0  0  0  0  0
    9.8320   -2.7860    0.6190 O   0  0  0  0  0  0  0  0  0  0  0  0
    0.1868    0.9870    3.4017 H   0  0  0  0  0  0  0  0  0  0  0  0
    0.5066   -0.7505    3.6004 H   0  0  0  0  0  0  0  0  0  0  0  0
    0.1482   -0.0917    1.9885 H   0  0  0  0  0  0  0  0  0  0  0  0
    2.6610    0.5768    3.6716 H   0  0  0  0  0  0  0  0  0  0  0  0
    2.3048    1.2525    2.0742 H   0  0  0  0  0  0  0  0  0  0  0  0
    2.3899   -1.0981    1.1100 H   0  0  0  0  0  0  0  0  0  0  0  0
    2.7635   -1.7172    2.7285 H   0  0  0  0  0  0  0  0  0  0  0  0
    5.3048    0.8915    0.7554 H   0  0  0  0  0  0  0  0  0  0  0  0
    3.8219    0.2835    0.0430 H   0  0  0  0  0  0  0  0  0  0  0  0
    5.1049   -3.9345   -1.9753 H   0  0  0  0  0  0  0  0  0  0  0  0
    7.4870   -3.4497   -2.6593 H   0  0  0  0  0  0  0  0  0  0  0  0
    8.5906   -1.3492   -1.8533 H   0  0  0  0  0  0  0  0  0  0  0  0
    6.7835   -0.0475    1.9230 H   0  0  0  0  0  0  0  0  0  0  0  0
    7.0784   -0.5996    4.7045 H   0  0  0  0  0  0  0  0  0  0  0  0
    8.3623   -0.3137    3.5033 H   0  0  0  0  0  0  0  0  0  0  0  0
    7.0069   -2.9673    4.2077 H   0  0  0  0  0  0  0  0  0  0  0  0
    8.6846   -2.4919    4.5518 H   0  0  0  0  0  0  0  0  0  0  0  0
    7.4917   -2.9323    1.7461 H   0  0  0  0  0  0  0  0  0  0  0  0
    8.4801   -4.1041    2.6193 H   0  0  0  0  0  0  0  0  0  0  0  0
    9.1087   -3.3295    0.2742 H   0  0  0  0  0  0  0  0  0  0  0  0
  1  2  1  0
  1 23  1  0
  1 24  1  0
  1 25  1  0
  2  3  1  0
  2 26  1  0
  2 27  1  0
  3  4  1  0
  3 28  1  0
  3 29  1  0
  4  5  1  0
  4 14  1  0
  5  6  1  0
  5 30  1  0
  5 31  1  0
  6  7  2  0
  6 12  1  0
  7  8  1  0
  7  9  1  0
  9 10  2  0
  9 32  1  0
 10 11  1  0
 10 33  1  0
 11 12  2  0
 11 34  1  0
 12 13  1  0
 14 15  2  0
 14 16  1  0
 16 17  1  0
 16 35  1  0
 17 18  1  0
 17 36  1  0
 17 37  1  0
 18 19  1  0
 18 38  1  0
 18 39  1  0
 19 20  1  0
 19 40  1  0
 19 41  1  0
 20 21  2  0
 20 22  1  0
 22 42  1  0
M  END

