
     RDKit          3D

 51 52  0  0  0  0  0  0  0  0999 V2000
    5.4935    2.3855   -5.1782 C   0  0  0  0  0  0  0  0  0  0  0  0
    5.8207    1.6218   -3.9201 C   0  0  0  0  0  0  0  0  0  0  0  0
    5.1143    0.4517   -3.5989 C   0  0  0  0  0  0  0  0  0  0  0  0
    5.3875   -0.2757   -2.4408 C   0  0  0  0  0  0  0  0  0  0  0  0
    6.3987    0.1777   -1.5914 C   0  0  0  0  0  0  0  0  0  0  0  0
    6.7888   -0.7578   -0.1043 S   0  0  1  0  0  0  0  0  0  0  0  0
    7.5741    0.1193    0.7671 O   0  0  0  0  0  0  0  0  0  0  0  0
    5.5631   -1.4224    0.3318 O   0  0  0  0  0  0  0  0  0  0  0  0
    7.8210   -1.9837   -0.5679 N   0  0  0  0  0  0  0  0  0  0  0  0
    9.1723   -1.6954   -0.9934 C   0  0  0  0  0  0  0  0  0  0  0  0
    9.7318   -2.9501   -1.6690 C   0  0  0  0  0  0  0  0  0  0  0  0
    8.9980   -3.7972   -2.1547 O   0  0  0  0  0  0  0  0  0  0  0  0
   11.0840   -3.0260   -1.7230 N   0  0  0  0  0  0  0  0  0  0  0  0
   11.7541   -4.1264   -2.3688 C   0  0  0  0  0  0  0  0  0  0  0  0
   13.2464   -4.0204   -2.1249 C   0  0  0  0  0  0  0  0  0  0  0  0
   13.7687   -3.1277   -1.5028 O   0  0  0  0  0  0  0  0  0  0  0  0
   13.8985   -5.0412   -2.6968 O   0  0  0  0  0  0  0  0  0  0  0  0
   15.3478   -5.0691   -2.5944 C   0  0  1  0  0  0  0  0  0  0  0  0
   15.7196   -4.0377   -2.5538 H   0  0  0  0  0  0  0  0  0  0  0  0
   15.7782   -5.8817   -1.3690 C   0  0  0  0  0  0  0  0  0  0  0  0
   15.3612   -7.3541   -1.4818 C   0  0  0  0  0  0  0  0  0  0  0  0
   15.8945   -7.9914   -2.7714 C   0  0  0  0  0  0  0  0  0  0  0  0
   15.4692   -7.1978   -4.0263 C   0  0  0  0  0  0  0  0  0  0  0  0
   15.8411   -5.7347   -3.8913 C   0  0  0  0  0  0  0  0  0  0  0  0
   16.5087   -5.1238   -4.6919 O   0  0  0  0  0  0  0  0  0  0  0  0
    7.1085    1.3460   -1.8803 C   0  0  0  0  0  0  0  0  0  0  0  0
    6.8328    2.0795   -3.0424 C   0  0  0  0  0  0  0  0  0  0  0  0
    7.5999    3.3437   -3.3407 C   0  0  0  0  0  0  0  0  0  0  0  0
    4.6896    1.8971   -5.7470 H   0  0  0  0  0  0  0  0  0  0  0  0
    6.3720    2.4718   -5.8401 H   0  0  0  0  0  0  0  0  0  0  0  0
    5.1699    3.4159   -4.9530 H   0  0  0  0  0  0  0  0  0  0  0  0
    4.3228    0.1083   -4.2707 H   0  0  0  0  0  0  0  0  0  0  0  0
    4.8158   -1.1703   -2.1869 H   0  0  0  0  0  0  0  0  0  0  0  0
    7.3792   -2.7369   -1.0999 H   0  0  0  0  0  0  0  0  0  0  0  0
    9.7936   -1.3924   -0.1359 H   0  0  0  0  0  0  0  0  0  0  0  0
    9.2278   -0.8762   -1.7416 H   0  0  0  0  0  0  0  0  0  0  0  0
   11.6790   -2.3419   -1.2632 H   0  0  0  0  0  0  0  0  0  0  0  0
   11.5747   -4.1441   -3.4592 H   0  0  0  0  0  0  0  0  0  0  0  0
   11.3892   -5.0982   -1.9932 H   0  0  0  0  0  0  0  0  0  0  0  0
   15.3716   -5.4089   -0.4607 H   0  0  0  0  0  0  0  0  0  0  0  0
   16.8779   -5.8059   -1.2954 H   0  0  0  0  0  0  0  0  0  0  0  0
   14.2600   -7.4242   -1.4620 H   0  0  0  0  0  0  0  0  0  0  0  0
   15.7253   -7.9118   -0.6040 H   0  0  0  0  0  0  0  0  0  0  0  0
   15.5474   -9.0333   -2.8602 H   0  0  0  0  0  0  0  0  0  0  0  0
   16.9975   -8.0327   -2.7309 H   0  0  0  0  0  0  0  0  0  0  0  0
   14.3713   -7.2527   -4.1351 H   0  0  0  0  0  0  0  0  0  0  0  0
   15.9270   -7.5928   -4.9444 H   0  0  0  0  0  0  0  0  0  0  0  0
    7.8647    1.6933   -1.1732 H   0  0  0  0  0  0  0  0  0  0  0  0
    8.3414    3.5563   -2.5575 H   0  0  0  0  0  0  0  0  0  0  0  0
    6.9293    4.2165   -3.4146 H   0  0  0  0  0  0  0  0  0  0  0  0
    8.1344    3.2772   -4.3036 H   0  0  0  0  0  0  0  0  0  0  0  0
  1  2  1  0
  1 29  1  0
  1 30  1  0
  1 31  1  0
  2  3  2  0
  2 27  1  0
  3  4  1  0
  3 32  1  0
  4  5  2  0
  4 33  1  0
  5  6  1  0
  5 26  1  0
  6  7  2  0
  6  8  2  0
  6  9  1  6
  9 10  1  0
  9 34  1  0
 10 11  1  0
 10 35  1  0
 10 36  1  0
 11 12  2  0
 11 13  1  0
 13 14  1  0
 13 37  1  0
 14 15  1  0
 14 38  1  0
 14 39  1  0
 15 16  2  0
 15 17  1  0
 17 18  1  0
 18 19  1  1
 18 20  1  0
 18 24  1  0
 20 21  1  0
 20 40  1  0
 20 41  1  0
 21 22  1  0
 21 42  1  0
 21 43  1  0
 22 23  1  0
 22 44  1  0
 22 45  1  0
 23 24  1  0
 23 46  1  0
 23 47  1  0
 24 25  2  0
 26 27  2  0
 26 48  1  0
 27 28  1  0
 28 49  1  0
 28 50  1  0
 28 51  1  0
M  END

