
     RDKit          3D

 42 45  0  0  0  0  0  0  0  0999 V2000
    1.4248    0.7936   -0.1347 C   0  0  0  0  0  0  0  0  0  0  0  0
    2.8038    0.9313   -0.5056 O   0  0  0  0  0  0  0  0  0  0  0  0
    3.5007   -0.1728   -0.6579 C   0  0  0  0  0  0  0  0  0  0  0  0
    3.0907   -1.3021   -0.4863 O   0  0  0  0  0  0  0  0  0  0  0  0
    4.9333    0.0517   -1.0616 C   0  0  0  0  0  0  0  0  0  0  0  0
    5.5552    1.2555   -1.3873 C   0  0  0  0  0  0  0  0  0  0  0  0
    4.8308    2.5431   -1.5442 C   0  0  0  0  0  0  0  0  0  0  0  0
    4.4293    2.3991   -2.7545 O   0  0  0  0  0  0  0  0  0  0  0  0
    4.7686    3.6308   -0.6616 C   0  0  0  0  0  0  0  0  0  0  0  0
    4.1311    4.8530   -1.0665 C   0  0  0  0  0  0  0  0  0  0  0  0
    4.0536    5.9283   -0.1990 C   0  0  0  0  0  0  0  0  0  0  0  0
    4.5899    5.8573    1.1029 C   0  0  0  0  0  0  0  0  0  0  0  0
    5.2117    4.6644    1.5189 C   0  0  0  0  0  0  0  0  0  0  0  0
    5.3048    3.5736    0.6695 C   0  0  0  0  0  0  0  0  0  0  0  0
    7.0436    1.2978   -1.7605 C   0  0  2  0  0  0  0  0  0  0  0  0
    7.5254    1.8804   -0.9565 H   0  0  0  0  0  0  0  0  0  0  0  0
    7.3673    2.0103   -3.0653 C   0  0  0  0  0  0  0  0  0  0  0  0
    8.0412    3.2362   -3.0090 C   0  0  0  0  0  0  0  0  0  0  0  0
    8.3627    3.9541   -4.1603 C   0  0  0  0  0  0  0  0  0  0  0  0
    8.0086    3.4272   -5.4033 C   0  0  0  0  0  0  0  0  0  0  0  0
    8.4023    4.2978   -6.8603 Cl  0  0  0  0  0  0  0  0  0  0  0  0
    7.3400    2.2038   -5.4987 C   0  0  0  0  0  0  0  0  0  0  0  0
    7.0201    1.5096   -4.3323 C   0  0  0  0  0  0  0  0  0  0  0  0
    6.1753   -0.0111   -4.5073 Cl  0  0  0  0  0  0  0  0  0  0  0  0
    7.6051   -0.0571   -1.6997 N   0  0  0  0  0  0  0  0  0  0  0  0
    8.8807   -0.4020   -1.9463 N   0  0  0  0  0  0  0  0  0  0  0  0
    8.9505   -1.6844   -1.7954 N   0  0  0  0  0  0  0  0  0  0  0  0
    7.7576   -2.2155   -1.4537 N   0  0  0  0  0  0  0  0  0  0  0  0
    6.9356   -1.1867   -1.4040 C   0  0  0  0  0  0  0  0  0  0  0  0
    5.6124   -1.1343   -1.0966 N   0  0  0  0  0  0  0  0  0  0  0  0
    1.0378    1.8148   -0.0531 H   0  0  0  0  0  0  0  0  0  0  0  0
    1.3387    0.2652    0.8257 H   0  0  0  0  0  0  0  0  0  0  0  0
    0.8793    0.2310   -0.9059 H   0  0  0  0  0  0  0  0  0  0  0  0
    3.7143    4.9150   -2.0734 H   0  0  0  0  0  0  0  0  0  0  0  0
    3.5671    6.8501   -0.5314 H   0  0  0  0  0  0  0  0  0  0  0  0
    4.5227    6.7119    1.7786 H   0  0  0  0  0  0  0  0  0  0  0  0
    5.6273    4.5946    2.5283 H   0  0  0  0  0  0  0  0  0  0  0  0
    5.7833    2.6567    1.0255 H   0  0  0  0  0  0  0  0  0  0  0  0
    8.3176    3.6467   -2.0351 H   0  0  0  0  0  0  0  0  0  0  0  0
    8.8835    4.9097   -4.0963 H   0  0  0  0  0  0  0  0  0  0  0  0
    7.0630    1.7965   -6.4705 H   0  0  0  0  0  0  0  0  0  0  0  0
    5.0831   -1.9788   -0.8665 H   0  0  0  0  0  0  0  0  0  0  0  0
  1  2  1  0
  1 31  1  0
  1 32  1  0
  1 33  1  0
  2  3  1  0
  3  4  2  0
  3  5  1  0
  5  6  2  0
  5 30  1  0
  6  7  1  0
  6 15  1  0
  7  8  2  0
  7  9  1  0
  9 10  2  0
  9 14  1  0
 10 11  1  0
 10 34  1  0
 11 12  2  0
 11 35  1  0
 12 13  1  0
 12 36  1  0
 13 14  2  0
 13 37  1  0
 14 38  1  0
 15 16  1  1
 15 17  1  0
 15 25  1  0
 17 18  2  0
 17 23  1  0
 18 19  1  0
 18 39  1  0
 19 20  2  0
 19 40  1  0
 20 21  1  0
 20 22  1  0
 22 23  2  0
 22 41  1  0
 23 24  1  0
 25 26  1  0
 25 29  1  0
 26 27  2  0
 27 28  1  0
 28 29  2  0
 29 30  1  0
 30 42  1  0
M  END

