
     RDKit          3D

 61 63  0  0  0  0  0  0  0  0999 V2000
    3.6103    0.6883    1.3318 C   0  0  0  0  0  0  0  0  0  0  0  0
    3.1058    0.3277   -0.0671 C   0  0  2  0  0  0  0  0  0  0  0  0
    2.0202    0.5156   -0.1006 H   0  0  0  0  0  0  0  0  0  0  0  0
    3.3419   -1.1565   -0.3952 C   0  0  0  0  0  0  0  0  0  0  0  0
    2.9728   -1.5320   -1.8433 C   0  0  1  0  0  0  0  0  0  0  0  0
    3.4104   -2.5224   -2.0517 H   0  0  0  0  0  0  0  0  0  0  0  0
    1.4547   -1.6232   -2.1326 C   0  0  0  0  0  0  0  0  0  0  0  0
    0.7367   -2.6876   -1.4184 N   0  0  0  0  0  0  0  0  0  0  0  0
    0.0892   -2.4109   -0.2471 C   0  0  0  0  0  0  0  0  0  0  0  0
   -0.4662   -3.2081    0.4866 O   0  0  0  0  0  0  0  0  0  0  0  0
    0.1001   -1.0822    0.0717 O   0  0  0  0  0  0  0  0  0  0  0  0
    0.7146   -4.1130   -1.9231 C   0  0  1  0  0  0  0  0  0  0  0  0
    1.4940   -5.0195   -0.9497 C   0  0  0  0  0  0  0  0  0  0  0  0
   -0.7450   -4.5931   -2.0681 C   0  0  0  0  0  0  0  0  0  0  0  0
    1.3638   -4.2113   -3.3150 C   0  0  0  0  0  0  0  0  0  0  0  0
    3.6483   -0.5451   -2.8138 C   0  0  0  0  0  0  0  0  0  0  0  0
    3.3368    0.8424   -2.4802 N   0  0  0  0  0  0  0  0  0  0  0  0
    2.7434    1.6861   -3.3828 C   0  0  0  0  0  0  0  0  0  0  0  0
    2.4668    3.0536   -3.0974 C   0  0  0  0  0  0  0  0  0  0  0  0
    1.8628    3.8054   -4.1030 C   0  0  0  0  0  0  0  0  0  0  0  0
    1.5341    5.2529   -3.9159 C   0  0  0  0  0  0  0  0  0  0  0  0
    1.8527    5.9519   -2.7381 C   0  0  0  0  0  0  0  0  0  0  0  0
    1.5243    7.2938   -2.6210 C   0  0  0  0  0  0  0  0  0  0  0  0
    1.8323    7.9453   -1.4997 F   0  0  0  0  0  0  0  0  0  0  0  0
    0.8742    8.0022   -3.6486 C   0  0  0  0  0  0  0  0  0  0  0  0
    0.5434    9.3846   -3.5136 C   0  0  0  0  0  0  0  0  0  0  0  0
    0.2750   10.5084   -3.4032 N   0  0  0  0  0  0  0  0  0  0  0  0
    0.5687    7.2769   -4.8162 C   0  0  0  0  0  0  0  0  0  0  0  0
   -0.0463    7.9165   -5.8096 F   0  0  0  0  0  0  0  0  0  0  0  0
    0.8859    5.9357   -4.9589 C   0  0  0  0  0  0  0  0  0  0  0  0
    1.5405    3.2825   -5.2952 N   0  0  0  0  0  0  0  0  0  0  0  0
    1.8344    1.9866   -5.4719 C   0  0  0  0  0  0  0  0  0  0  0  0
    1.4970    1.4401   -6.6707 N   0  0  0  0  0  0  0  0  0  0  0  0
    2.4177    1.1756   -4.5795 N   0  0  0  0  0  0  0  0  0  0  0  0
    3.7582    1.2199   -1.1383 C   0  0  0  0  0  0  0  0  0  0  0  0
    4.6980    0.5253    1.4230 H   0  0  0  0  0  0  0  0  0  0  0  0
    3.1177    0.0690    2.0980 H   0  0  0  0  0  0  0  0  0  0  0  0
    3.4090    1.7442    1.5769 H   0  0  0  0  0  0  0  0  0  0  0  0
    2.7977   -1.7910    0.3223 H   0  0  0  0  0  0  0  0  0  0  0  0
    4.4148   -1.3809   -0.2463 H   0  0  0  0  0  0  0  0  0  0  0  0
    0.9698   -0.6699   -1.8963 H   0  0  0  0  0  0  0  0  0  0  0  0
    1.3158   -1.7654   -3.2111 H   0  0  0  0  0  0  0  0  0  0  0  0
   -0.4004   -1.0302    0.9010 H   0  0  0  0  0  0  0  0  0  0  0  0
    1.0572   -4.9766    0.0560 H   0  0  0  0  0  0  0  0  0  0  0  0
    2.5508   -4.7130   -0.8915 H   0  0  0  0  0  0  0  0  0  0  0  0
    1.4637   -6.0644   -1.2971 H   0  0  0  0  0  0  0  0  0  0  0  0
   -1.2609   -4.6070   -1.1017 H   0  0  0  0  0  0  0  0  0  0  0  0
   -0.7597   -5.6103   -2.4900 H   0  0  0  0  0  0  0  0  0  0  0  0
   -1.2978   -3.9325   -2.7552 H   0  0  0  0  0  0  0  0  0  0  0  0
    2.4161   -3.8944   -3.3247 H   0  0  0  0  0  0  0  0  0  0  0  0
    0.8140   -3.6354   -4.0744 H   0  0  0  0  0  0  0  0  0  0  0  0
    1.3397   -5.2659   -3.6259 H   0  0  0  0  0  0  0  0  0  0  0  0
    3.3431   -0.7218   -3.8503 H   0  0  0  0  0  0  0  0  0  0  0  0
    4.7454   -0.6811   -2.7534 H   0  0  0  0  0  0  0  0  0  0  0  0
    2.7145    3.4987   -2.1403 H   0  0  0  0  0  0  0  0  0  0  0  0
    2.3596    5.4827   -1.8963 H   0  0  0  0  0  0  0  0  0  0  0  0
    0.6377    5.4031   -5.8756 H   0  0  0  0  0  0  0  0  0  0  0  0
    1.1514    2.0462   -7.4010 H   0  0  0  0  0  0  0  0  0  0  0  0
    1.7993    0.5013   -6.8866 H   0  0  0  0  0  0  0  0  0  0  0  0
    3.5225    2.2712   -0.9405 H   0  0  0  0  0  0  0  0  0  0  0  0
    4.8614    1.1255   -1.0699 H   0  0  0  0  0  0  0  0  0  0  0  0
  1  2  1  0
  1 36  1  0
  1 37  1  0
  1 38  1  0
  2  3  1  1
  2  4  1  0
  2 35  1  0
  4  5  1  0
  4 39  1  0
  4 40  1  0
  5  6  1  6
  5  7  1  0
  5 16  1  0
  7  8  1  0
  7 41  1  0
  7 42  1  0
  8  9  1  0
 12  8  1  1
  9 10  2  0
  9 11  1  0
 11 43  1  0
 12 13  1  0
 12 14  1  0
 12 15  1  0
 13 44  1  0
 13 45  1  0
 13 46  1  0
 14 47  1  0
 14 48  1  0
 14 49  1  0
 15 50  1  0
 15 51  1  0
 15 52  1  0
 16 17  1  0
 16 53  1  0
 16 54  1  0
 17 18  1  0
 17 35  1  0
 18 19  2  0
 18 34  1  0
 19 20  1  0
 19 55  1  0
 20 21  1  0
 20 31  2  0
 21 22  2  0
 21 30  1  0
 22 23  1  0
 22 56  1  0
 23 24  1  0
 23 25  2  0
 25 26  1  0
 25 28  1  0
 26 27  3  0
 28 29  1  0
 28 30  2  0
 30 57  1  0
 31 32  1  0
 32 33  1  0
 32 34  2  0
 33 58  1  0
 33 59  1  0
 35 60  1  0
 35 61  1  0
M  END

