
     RDKit          3D

 55 56  0  0  0  0  0  0  0  0999 V2000
    9.7813    3.0435   -4.2096 C   0  0  0  0  0  0  0  0  0  0  0  0
    8.9769    1.8389   -3.7004 C   0  0  1  0  0  0  0  0  0  0  0  0
    9.3333    0.5720   -4.4908 C   0  0  0  0  0  0  0  0  0  0  0  0
    9.1455    1.5676   -2.1942 C   0  0  0  0  0  0  0  0  0  0  0  0
    8.6091    2.6338   -1.2037 C   0  0  2  0  0  0  0  0  0  0  0  0
    8.7216    2.1920   -0.1952 H   0  0  0  0  0  0  0  0  0  0  0  0
    7.2060    2.9375   -1.3913 N   0  0  0  0  0  0  0  0  0  0  0  0
    6.2422    2.1138   -0.9006 C   0  0  0  0  0  0  0  0  0  0  0  0
    6.4856    1.0555   -0.3403 O   0  0  0  0  0  0  0  0  0  0  0  0
    4.7852    2.5723   -1.1267 C   0  0  0  0  0  0  0  0  0  0  0  0
    4.3827    2.6290   -2.5227 N   0  0  0  0  0  0  0  0  0  0  0  0
    4.6527    3.7170   -3.3208 C   0  0  0  0  0  0  0  0  0  0  0  0
    5.1443    4.7411   -2.6218 O   0  0  0  0  0  0  0  0  0  0  0  0
    4.4824    3.7584   -4.7099 C   0  0  0  0  0  0  0  0  0  0  0  0
    4.8930    4.9071   -5.4737 C   0  0  0  0  0  0  0  0  0  0  0  0
    4.7424    4.9473   -6.8506 C   0  0  0  0  0  0  0  0  0  0  0  0
    4.1730    3.8583   -7.5441 C   0  0  0  0  0  0  0  0  0  0  0  0
    3.9850    3.8021   -8.8945 O   0  0  0  0  0  0  0  0  0  0  0  0
    4.3574    4.9022   -9.6923 C   0  0  0  0  0  0  0  0  0  0  0  0
    4.0264    4.6301  -11.1424 C   0  0  0  0  0  0  0  0  0  0  0  0
    3.0763    3.6687  -11.5108 C   0  0  0  0  0  0  0  0  0  0  0  0
    2.7610    3.4667  -12.8581 C   0  0  0  0  0  0  0  0  0  0  0  0
    3.3866    4.2243  -13.8520 C   0  0  0  0  0  0  0  0  0  0  0  0
    4.3366    5.1851  -13.4909 C   0  0  0  0  0  0  0  0  0  0  0  0
    4.6559    5.3825  -12.1456 C   0  0  0  0  0  0  0  0  0  0  0  0
    3.7467    2.7255   -6.8104 C   0  0  0  0  0  0  0  0  0  0  0  0
    3.8857    2.6657   -5.4416 C   0  0  0  0  0  0  0  0  0  0  0  0
    9.3890    3.9529   -1.1923 C   0  0  0  0  0  0  0  0  0  0  0  0
    8.8806    5.0288   -1.3609 O   0  0  0  0  0  0  0  0  0  0  0  0
   10.7097    3.8415   -0.9609 O   0  0  0  0  0  0  0  0  0  0  0  0
    9.6791    3.1394   -5.3022 H   0  0  0  0  0  0  0  0  0  0  0  0
   10.8562    2.9320   -3.9858 H   0  0  0  0  0  0  0  0  0  0  0  0
    9.4419    3.9935   -3.7720 H   0  0  0  0  0  0  0  0  0  0  0  0
    7.9068    2.0517   -3.8743 H   0  0  0  0  0  0  0  0  0  0  0  0
   10.3970    0.3082   -4.3583 H   0  0  0  0  0  0  0  0  0  0  0  0
    9.1598    0.7161   -5.5689 H   0  0  0  0  0  0  0  0  0  0  0  0
    8.7330   -0.2930   -4.1654 H   0  0  0  0  0  0  0  0  0  0  0  0
   10.2132    1.3717   -1.9738 H   0  0  0  0  0  0  0  0  0  0  0  0
    8.6197    0.6355   -1.9347 H   0  0  0  0  0  0  0  0  0  0  0  0
    6.9778    3.8691   -1.7413 H   0  0  0  0  0  0  0  0  0  0  0  0
    4.6331    3.5688   -0.6806 H   0  0  0  0  0  0  0  0  0  0  0  0
    4.1532    1.8463   -0.5986 H   0  0  0  0  0  0  0  0  0  0  0  0
    4.3666    1.7401   -3.0126 H   0  0  0  0  0  0  0  0  0  0  0  0
    5.3418    5.7626   -4.9669 H   0  0  0  0  0  0  0  0  0  0  0  0
    5.0739    5.8376   -7.3861 H   0  0  0  0  0  0  0  0  0  0  0  0
    5.4402    5.1100   -9.5880 H   0  0  0  0  0  0  0  0  0  0  0  0
    3.8240    5.8141   -9.3529 H   0  0  0  0  0  0  0  0  0  0  0  0
    2.5930    3.0751  -10.7337 H   0  0  0  0  0  0  0  0  0  0  0  0
    2.0205    2.7105  -13.1322 H   0  0  0  0  0  0  0  0  0  0  0  0
    3.1386    4.0648  -14.9045 H   0  0  0  0  0  0  0  0  0  0  0  0
    4.8368    5.7787  -14.2606 H   0  0  0  0  0  0  0  0  0  0  0  0
    5.4072    6.1301  -11.8722 H   0  0  0  0  0  0  0  0  0  0  0  0
    3.2907    1.8987   -7.3597 H   0  0  0  0  0  0  0  0  0  0  0  0
    3.5040    1.7855   -4.9186 H   0  0  0  0  0  0  0  0  0  0  0  0
   10.9638    2.9137   -0.8497 H   0  0  0  0  0  0  0  0  0  0  0  0
  1  2  1  0
  1 31  1  0
  1 32  1  0
  1 33  1  0
  2  3  1  0
  2  4  1  0
  2 34  1  6
  3 35  1  0
  3 36  1  0
  3 37  1  0
  4  5  1  0
  4 38  1  0
  4 39  1  0
  5  6  1  1
  5  7  1  0
  5 28  1  0
  7  8  1  0
  7 40  1  0
  8  9  2  0
  8 10  1  0
 10 11  1  0
 10 41  1  0
 10 42  1  0
 11 12  1  0
 11 43  1  0
 12 13  2  0
 12 14  1  0
 14 15  2  0
 14 27  1  0
 15 16  1  0
 15 44  1  0
 16 17  2  0
 16 45  1  0
 17 18  1  0
 17 26  1  0
 18 19  1  0
 19 20  1  0
 19 46  1  0
 19 47  1  0
 20 21  2  0
 20 25  1  0
 21 22  1  0
 21 48  1  0
 22 23  2  0
 22 49  1  0
 23 24  1  0
 23 50  1  0
 24 25  2  0
 24 51  1  0
 25 52  1  0
 26 27  2  0
 26 53  1  0
 27 54  1  0
 28 29  2  0
 28 30  1  0
 30 55  1  0
M  END

