
     RDKit          3D

 84 90  0  0  0  0  0  0  0  0999 V2000
   12.8672   -0.9815    6.8007 C   0  0  0  0  0  0  0  0  0  0  0  0
   12.3245   -0.7200    5.4963 O   0  0  0  0  0  0  0  0  0  0  0  0
   12.1058    0.5553    5.1928 C   0  0  0  0  0  0  0  0  0  0  0  0
   12.4956    1.5122    5.8075 O   0  0  0  0  0  0  0  0  0  0  0  0
   11.3460    0.6813    3.8653 C   0  0  0  0  0  0  0  0  0  0  0  0
    9.9547    0.8128    3.9361 C   0  0  0  0  0  0  0  0  0  0  0  0
    9.4114    1.0268    5.3367 C   0  0  0  0  0  0  0  0  0  0  0  0
    9.8170    0.3919    6.2857 O   0  0  0  0  0  0  0  0  0  0  0  0
    8.4834    1.9576    5.3856 O   0  0  0  0  0  0  0  0  0  0  0  0
    7.7863    2.1287    6.6287 C   0  0  0  0  0  0  0  0  0  0  0  0
    8.9141    0.5925    2.8582 C   0  0  2  0  0  0  0  0  0  0  0  0
    8.1781    1.8810    2.4939 C   0  0  0  0  0  0  0  0  0  0  0  0
    8.7182    3.0897    2.0732 C   0  0  0  0  0  0  0  0  0  0  0  0
    7.8579    4.1510    1.7410 C   0  0  0  0  0  0  0  0  0  0  0  0
    6.4735    3.9599    1.8504 C   0  0  0  0  0  0  0  0  0  0  0  0
    5.9249    2.7547    2.2981 C   0  0  0  0  0  0  0  0  0  0  0  0
    6.7750    1.6833    2.6511 C   0  0  0  0  0  0  0  0  0  0  0  0
    6.5205    0.3559    3.2131 C   0  0  0  0  0  0  0  0  0  0  0  0
    5.3170   -0.3632    3.6134 C   0  0  0  0  0  0  0  0  0  0  0  0
    3.9618    0.1104    3.4288 C   0  0  0  0  0  0  0  0  0  0  0  0
    3.5755    1.1506    2.8925 O   0  0  0  0  0  0  0  0  0  0  0  0
    3.0198   -0.7688    3.9386 O   0  0  0  0  0  0  0  0  0  0  0  0
    1.6734   -0.3820    3.7694 C   0  0  0  0  0  0  0  0  0  0  0  0
    5.5230   -1.6483    4.2210 C   0  0  0  0  0  0  0  0  0  0  0  0
    6.7644   -2.2125    4.4164 C   0  0  0  0  0  0  0  0  0  0  0  0
    7.9407   -1.5224    4.0054 C   0  0  0  0  0  0  0  0  0  0  0  0
    7.7714   -0.2750    3.4182 C   0  0  0  0  0  0  0  0  0  0  0  0
    9.5506   -0.1554    1.6214 C   0  0  1  0  0  0  0  0  0  0  0  0
   10.0783   -1.0187    2.0659 H   0  0  0  0  0  0  0  0  0  0  0  0
    8.5420   -0.7123    0.6259 C   0  0  0  0  0  0  0  0  0  0  0  0
    7.8194    0.1209   -0.2428 C   0  0  0  0  0  0  0  0  0  0  0  0
    6.9256   -0.4095   -1.1748 C   0  0  0  0  0  0  0  0  0  0  0  0
    6.7514   -1.7937   -1.2480 C   0  0  0  0  0  0  0  0  0  0  0  0
    5.6442   -2.4679   -2.4227 Cl  0  0  0  0  0  0  0  0  0  0  0  0
    7.4553   -2.6443   -0.3932 C   0  0  0  0  0  0  0  0  0  0  0  0
    8.3426   -2.0971    0.5352 C   0  0  0  0  0  0  0  0  0  0  0  0
   10.5661    0.7055    0.9440 C   0  0  0  0  0  0  0  0  0  0  0  0
   11.7474    1.1240    1.4586 C   0  0  0  0  0  0  0  0  0  0  0  0
   12.7012    1.9449    0.6729 C   0  0  0  0  0  0  0  0  0  0  0  0
   12.2567    2.9550   -0.1987 C   0  0  0  0  0  0  0  0  0  0  0  0
   13.1669    3.6952   -0.9603 C   0  0  0  0  0  0  0  0  0  0  0  0
   12.8134    4.7211   -1.7725 O   0  0  0  0  0  0  0  0  0  0  0  0
   11.4481    5.0606   -1.9148 C   0  0  0  0  0  0  0  0  0  0  0  0
   14.5567    3.4004   -0.8682 C   0  0  0  0  0  0  0  0  0  0  0  0
   15.5228    4.0786   -1.5291 O   0  0  0  0  0  0  0  0  0  0  0  0
   15.3733    4.4357   -2.8994 C   0  0  0  0  0  0  0  0  0  0  0  0
   14.9793    2.3975    0.0106 C   0  0  0  0  0  0  0  0  0  0  0  0
   14.0704    1.6727    0.7826 C   0  0  0  0  0  0  0  0  0  0  0  0
   14.4420    0.5634    1.7265 C   0  0  0  0  0  0  0  0  0  0  0  0
   13.6322    0.6864    3.0106 C   0  0  0  0  0  0  0  0  0  0  0  0
   12.1610    0.7631    2.7700 N   0  0  0  0  0  0  0  0  0  0  0  0
   12.1382   -0.6671    7.5608 H   0  0  0  0  0  0  0  0  0  0  0  0
   13.8117   -0.4380    6.9469 H   0  0  0  0  0  0  0  0  0  0  0  0
   13.0288   -2.0642    6.8479 H   0  0  0  0  0  0  0  0  0  0  0  0
    7.0767    2.9452    6.4582 H   0  0  0  0  0  0  0  0  0  0  0  0
    8.4928    2.3820    7.4322 H   0  0  0  0  0  0  0  0  0  0  0  0
    7.2519    1.2032    6.8844 H   0  0  0  0  0  0  0  0  0  0  0  0
    9.7999    3.2310    2.0122 H   0  0  0  0  0  0  0  0  0  0  0  0
    8.2651    5.1102    1.4118 H   0  0  0  0  0  0  0  0  0  0  0  0
    5.7971    4.7794    1.5887 H   0  0  0  0  0  0  0  0  0  0  0  0
    4.8493    2.6158    2.3897 H   0  0  0  0  0  0  0  0  0  0  0  0
    1.0617   -1.1770    4.2199 H   0  0  0  0  0  0  0  0  0  0  0  0
    1.4101   -0.2688    2.7043 H   0  0  0  0  0  0  0  0  0  0  0  0
    1.4576    0.5796    4.2651 H   0  0  0  0  0  0  0  0  0  0  0  0
    4.6345   -2.1941    4.5357 H   0  0  0  0  0  0  0  0  0  0  0  0
    6.8456   -3.1963    4.8860 H   0  0  0  0  0  0  0  0  0  0  0  0
    8.9294   -1.9551    4.1695 H   0  0  0  0  0  0  0  0  0  0  0  0
    7.9341    1.2055   -0.1867 H   0  0  0  0  0  0  0  0  0  0  0  0
    6.3586    0.2464   -1.8371 H   0  0  0  0  0  0  0  0  0  0  0  0
    7.3056   -3.7232   -0.4534 H   0  0  0  0  0  0  0  0  0  0  0  0
    8.8808   -2.7663    1.2104 H   0  0  0  0  0  0  0  0  0  0  0  0
   10.3605    1.0168   -0.0802 H   0  0  0  0  0  0  0  0  0  0  0  0
   11.1943    3.1911   -0.2432 H   0  0  0  0  0  0  0  0  0  0  0  0
   11.4099    5.9027   -2.6179 H   0  0  0  0  0  0  0  0  0  0  0  0
   11.0037    5.3745   -0.9544 H   0  0  0  0  0  0  0  0  0  0  0  0
   10.8593    4.2218   -2.3258 H   0  0  0  0  0  0  0  0  0  0  0  0
   16.3897    4.6153   -3.2772 H   0  0  0  0  0  0  0  0  0  0  0  0
   14.7672    5.3437   -3.0227 H   0  0  0  0  0  0  0  0  0  0  0  0
   14.9158    3.6162   -3.4793 H   0  0  0  0  0  0  0  0  0  0  0  0
   16.0522    2.2000    0.0651 H   0  0  0  0  0  0  0  0  0  0  0  0
   15.5088    0.5940    1.9931 H   0  0  0  0  0  0  0  0  0  0  0  0
   14.2563   -0.4225    1.2623 H   0  0  0  0  0  0  0  0  0  0  0  0
   13.9267    1.5913    3.5646 H   0  0  0  0  0  0  0  0  0  0  0  0
   13.8067   -0.1830    3.6569 H   0  0  0  0  0  0  0  0  0  0  0  0
  1  2  1  0
  1 52  1  0
  1 53  1  0
  1 54  1  0
  2  3  1  0
  3  4  2  0
  3  5  1  0
  5  6  2  0
  5 51  1  0
  6  7  1  0
 11  6  1  1
  7  8  2  0
  7  9  1  0
  9 10  1  0
 10 55  1  0
 10 56  1  0
 10 57  1  0
 11 12  1  0
 11 27  1  0
 11 28  1  0
 12 13  2  0
 12 17  1  0
 13 14  1  0
 13 58  1  0
 14 15  2  0
 14 59  1  0
 15 16  1  0
 15 60  1  0
 16 17  2  0
 16 61  1  0
 17 18  1  0
 18 19  2  0
 18 27  1  0
 19 20  1  0
 19 24  1  0
 20 21  2  0
 20 22  1  0
 22 23  1  0
 23 62  1  0
 23 63  1  0
 23 64  1  0
 24 25  2  0
 24 65  1  0
 25 26  1  0
 25 66  1  0
 26 27  2  0
 26 67  1  0
 28 29  1  1
 28 30  1  0
 28 37  1  0
 30 31  2  0
 30 36  1  0
 31 32  1  0
 31 68  1  0
 32 33  2  0
 32 69  1  0
 33 34  1  0
 33 35  1  0
 35 36  2  0
 35 70  1  0
 36 71  1  0
 37 38  2  0
 37 72  1  0
 38 39  1  0
 38 51  1  0
 39 40  2  0
 39 48  1  0
 40 41  1  0
 40 73  1  0
 41 42  1  0
 41 44  2  0
 42 43  1  0
 43 74  1  0
 43 75  1  0
 43 76  1  0
 44 45  1  0
 44 47  1  0
 45 46  1  0
 46 77  1  0
 46 78  1  0
 46 79  1  0
 47 48  2  0
 47 80  1  0
 48 49  1  0
 49 50  1  0
 49 81  1  0
 49 82  1  0
 50 51  1  0
 50 83  1  0
 50 84  1  0
M  END

