
     RDKit          3D

 61 65  0  0  0  0  0  0  0  0999 V2000
    1.3521    0.3003    0.8081 C   0  0  0  0  0  0  0  0  0  0  0  0
    2.0295   -0.4141   -0.2071 O   0  0  0  0  0  0  0  0  0  0  0  0
    2.7994    0.2493   -1.0910 C   0  0  0  0  0  0  0  0  0  0  0  0
    2.9874    1.6371   -1.0822 C   0  0  0  0  0  0  0  0  0  0  0  0
    3.8361    2.1698   -2.0787 C   0  0  0  0  0  0  0  0  0  0  0  0
    3.9895    3.4996   -2.0310 O   0  0  0  0  0  0  0  0  0  0  0  0
    4.8024    4.1891   -2.9698 C   0  0  0  0  0  0  0  0  0  0  0  0
    4.4783    1.3604   -3.0562 C   0  0  0  0  0  0  0  0  0  0  0  0
    4.2785   -0.0345   -3.0831 C   0  0  0  0  0  0  0  0  0  0  0  0
    4.8678   -0.9076   -4.0399 C   0  0  0  0  0  0  0  0  0  0  0  0
    4.6404   -2.2416   -3.9607 N   0  0  0  0  0  0  0  0  0  0  0  0
    5.2846   -2.8124   -5.0194 N   0  0  0  0  0  0  0  0  0  0  0  0
    5.5176   -4.1684   -5.1306 C   0  0  0  0  0  0  0  0  0  0  0  0
    4.9554   -5.0147   -4.0105 C   0  0  0  0  0  0  0  0  0  0  0  0
    6.1425   -4.6157   -6.0853 O   0  0  0  0  0  0  0  0  0  0  0  0
    5.8169   -1.8384   -5.9937 C   0  0  1  0  0  0  0  0  0  0  0  0
    6.8191   -2.1789   -6.2885 H   0  0  0  0  0  0  0  0  0  0  0  0
    4.9346   -1.7360   -7.2184 C   0  0  0  0  0  0  0  0  0  0  0  0
    3.7229   -2.3705   -7.3906 C   0  0  0  0  0  0  0  0  0  0  0  0
    3.2190   -1.9781   -8.5999 N   0  0  0  0  0  0  0  0  0  0  0  0
    2.0086   -2.3856   -9.2169 C   0  0  0  0  0  0  0  0  0  0  0  0
    1.0063   -3.0251   -8.4721 C   0  0  0  0  0  0  0  0  0  0  0  0
   -0.1734   -3.4296   -9.1002 C   0  0  0  0  0  0  0  0  0  0  0  0
   -0.3709   -3.1935  -10.4634 C   0  0  0  0  0  0  0  0  0  0  0  0
    0.6285   -2.5466  -11.1978 C   0  0  0  0  0  0  0  0  0  0  0  0
    1.8157   -2.1444  -10.5857 C   0  0  0  0  0  0  0  0  0  0  0  0
    4.0436   -1.1201   -9.2202 N   0  0  0  0  0  0  0  0  0  0  0  0
    5.0919   -0.9504   -8.4128 C   0  0  0  0  0  0  0  0  0  0  0  0
    6.1647   -0.0178   -8.8209 C   0  0  0  0  0  0  0  0  0  0  0  0
    5.8992    0.9508   -9.8109 C   0  0  0  0  0  0  0  0  0  0  0  0
    6.8886    1.8396  -10.2283 C   0  0  0  0  0  0  0  0  0  0  0  0
    8.1703    1.7863   -9.6683 C   0  0  0  0  0  0  0  0  0  0  0  0
    8.4495    0.8290   -8.6904 C   0  0  0  0  0  0  0  0  0  0  0  0
    7.4590   -0.0637   -8.2712 C   0  0  0  0  0  0  0  0  0  0  0  0
    5.8329   -0.5431   -5.1401 C   0  0  0  0  0  0  0  0  0  0  0  0
    3.4284   -0.5754   -2.0546 C   0  0  0  0  0  0  0  0  0  0  0  0
    0.8000   -0.4434    1.3964 H   0  0  0  0  0  0  0  0  0  0  0  0
    0.6417    1.0290    0.3808 H   0  0  0  0  0  0  0  0  0  0  0  0
    2.0611    0.8333    1.4650 H   0  0  0  0  0  0  0  0  0  0  0  0
    2.5293    2.3142   -0.3663 H   0  0  0  0  0  0  0  0  0  0  0  0
    4.7402    5.2510   -2.7020 H   0  0  0  0  0  0  0  0  0  0  0  0
    4.4318    4.0482   -3.9978 H   0  0  0  0  0  0  0  0  0  0  0  0
    5.8515    3.8576   -2.9090 H   0  0  0  0  0  0  0  0  0  0  0  0
    5.1284    1.8215   -3.7976 H   0  0  0  0  0  0  0  0  0  0  0  0
    3.8596   -4.9147   -3.9538 H   0  0  0  0  0  0  0  0  0  0  0  0
    5.3444   -4.6796   -3.0363 H   0  0  0  0  0  0  0  0  0  0  0  0
    5.2302   -6.0604   -4.1966 H   0  0  0  0  0  0  0  0  0  0  0  0
    3.2119   -3.0753   -6.7433 H   0  0  0  0  0  0  0  0  0  0  0  0
    1.1338   -3.1983   -7.4029 H   0  0  0  0  0  0  0  0  0  0  0  0
   -0.9477   -3.9278   -8.5113 H   0  0  0  0  0  0  0  0  0  0  0  0
   -1.2969   -3.5098  -10.9493 H   0  0  0  0  0  0  0  0  0  0  0  0
    0.4871   -2.3563  -12.2649 H   0  0  0  0  0  0  0  0  0  0  0  0
    2.6052   -1.6448  -11.1457 H   0  0  0  0  0  0  0  0  0  0  0  0
    4.8990    0.9909  -10.2447 H   0  0  0  0  0  0  0  0  0  0  0  0
    6.6578    2.5825  -10.9967 H   0  0  0  0  0  0  0  0  0  0  0  0
    8.9457    2.4841   -9.9950 H   0  0  0  0  0  0  0  0  0  0  0  0
    9.4494    0.7672   -8.2527 H   0  0  0  0  0  0  0  0  0  0  0  0
    7.7114   -0.8158   -7.5241 H   0  0  0  0  0  0  0  0  0  0  0  0
    5.5327    0.3350   -5.7329 H   0  0  0  0  0  0  0  0  0  0  0  0
    6.8542   -0.3397   -4.7564 H   0  0  0  0  0  0  0  0  0  0  0  0
    3.2716   -1.6531   -2.0122 H   0  0  0  0  0  0  0  0  0  0  0  0
  1  2  1  0
  1 37  1  0
  1 38  1  0
  1 39  1  0
  2  3  1  0
  3  4  2  0
  3 36  1  0
  4  5  1  0
  4 40  1  0
  5  6  1  0
  5  8  2  0
  6  7  1  0
  7 41  1  0
  7 42  1  0
  7 43  1  0
  8  9  1  0
  8 44  1  0
  9 10  1  0
  9 36  2  0
 10 11  2  0
 10 35  1  0
 11 12  1  0
 12 13  1  0
 12 16  1  0
 13 14  1  0
 13 15  2  0
 14 45  1  0
 14 46  1  0
 14 47  1  0
 16 17  1  6
 16 18  1  0
 16 35  1  0
 18 19  2  0
 18 28  1  0
 19 20  1  0
 19 48  1  0
 20 21  1  0
 20 27  1  0
 21 22  2  0
 21 26  1  0
 22 23  1  0
 22 49  1  0
 23 24  2  0
 23 50  1  0
 24 25  1  0
 24 51  1  0
 25 26  2  0
 25 52  1  0
 26 53  1  0
 27 28  2  0
 28 29  1  0
 29 30  2  0
 29 34  1  0
 30 31  1  0
 30 54  1  0
 31 32  2  0
 31 55  1  0
 32 33  1  0
 32 56  1  0
 33 34  2  0
 33 57  1  0
 34 58  1  0
 35 59  1  0
 35 60  1  0
 36 61  1  0
M  END

