
     RDKit          3D

 43 43  0  0  0  0  0  0  0  0999 V2000
    0.7953    0.0456   -0.3386 C   0  0  0  0  0  0  0  0  0  0  0  0
    2.3287    0.0533   -0.3334 C   0  0  1  0  0  0  0  0  0  0  0  0
    2.8352   -0.7511   -1.5377 C   0  0  0  0  0  0  0  0  0  0  0  0
    2.8790    1.4199   -0.3342 N   0  0  0  0  0  0  0  0  0  0  0  0
    2.2567    2.3328    0.6117 C   0  0  0  0  0  0  0  0  0  0  0  0
    4.3431    1.4791   -0.2882 C   0  0  0  0  0  0  0  0  0  0  0  0
    5.0059    1.9656   -1.6015 C   0  0  1  0  0  0  0  0  0  0  0  0
    4.6984    1.2756   -2.4066 H   0  0  0  0  0  0  0  0  0  0  0  0
    4.5392    3.3707   -1.9797 C   0  0  0  0  0  0  0  0  0  0  0  0
    6.4684    1.9338   -1.5564 N   0  0  0  0  0  0  0  0  0  0  0  0
    7.1186    0.6372   -1.4968 C   0  0  0  0  0  0  0  0  0  0  0  0
    8.6049    0.7170   -1.8036 C   0  0  0  0  0  0  0  0  0  0  0  0
    9.5030   -0.2062   -1.2500 C   0  0  0  0  0  0  0  0  0  0  0  0
   10.8615   -0.1729   -1.5818 C   0  0  0  0  0  0  0  0  0  0  0  0
   11.3444    0.7908   -2.4655 C   0  0  0  0  0  0  0  0  0  0  0  0
   10.4658    1.7393   -3.0119 C   0  0  0  0  0  0  0  0  0  0  0  0
   11.0418    2.7565   -3.9603 C   0  0  0  0  0  0  0  0  0  0  0  0
   12.1421    2.6611   -4.4383 O   0  0  0  0  0  0  0  0  0  0  0  0
   10.2605    3.8188   -4.2577 O   0  0  0  0  0  0  0  0  0  0  0  0
    9.1034    1.6876   -2.6824 C   0  0  0  0  0  0  0  0  0  0  0  0
    0.4316   -0.9885   -0.4375 H   0  0  0  0  0  0  0  0  0  0  0  0
    0.4076    0.6268   -1.1917 H   0  0  0  0  0  0  0  0  0  0  0  0
    0.3621    0.4546    0.5852 H   0  0  0  0  0  0  0  0  0  0  0  0
    2.6590   -0.4815    0.5912 H   0  0  0  0  0  0  0  0  0  0  0  0
    2.5150   -0.2749   -2.4787 H   0  0  0  0  0  0  0  0  0  0  0  0
    2.4253   -1.7727   -1.5092 H   0  0  0  0  0  0  0  0  0  0  0  0
    3.9306   -0.8431   -1.5581 H   0  0  0  0  0  0  0  0  0  0  0  0
    1.1884    2.4704    0.3944 H   0  0  0  0  0  0  0  0  0  0  0  0
    2.7254    3.3241    0.5277 H   0  0  0  0  0  0  0  0  0  0  0  0
    2.3485    2.0075    1.6744 H   0  0  0  0  0  0  0  0  0  0  0  0
    4.7607    0.4938   -0.0130 H   0  0  0  0  0  0  0  0  0  0  0  0
    4.6638    2.1640    0.5196 H   0  0  0  0  0  0  0  0  0  0  0  0
    3.4421    3.4057   -2.0397 H   0  0  0  0  0  0  0  0  0  0  0  0
    4.9609    3.6709   -2.9505 H   0  0  0  0  0  0  0  0  0  0  0  0
    4.8649    4.1100   -1.2262 H   0  0  0  0  0  0  0  0  0  0  0  0
    6.8215    2.5502   -0.8235 H   0  0  0  0  0  0  0  0  0  0  0  0
    6.6385   -0.0058   -2.2587 H   0  0  0  0  0  0  0  0  0  0  0  0
    6.9938    0.0969   -0.5342 H   0  0  0  0  0  0  0  0  0  0  0  0
    9.1339   -0.9632   -0.5514 H   0  0  0  0  0  0  0  0  0  0  0  0
   11.5462   -0.9032   -1.1432 H   0  0  0  0  0  0  0  0  0  0  0  0
   12.3984    0.8356   -2.7447 H   0  0  0  0  0  0  0  0  0  0  0  0
    9.4498    3.8006   -3.7302 H   0  0  0  0  0  0  0  0  0  0  0  0
    8.3735    2.3876   -3.0993 H   0  0  0  0  0  0  0  0  0  0  0  0
  1  2  1  0
  1 21  1  0
  1 22  1  0
  1 23  1  0
  2  3  1  0
  2  4  1  0
  2 24  1  1
  3 25  1  0
  3 26  1  0
  3 27  1  0
  4  5  1  0
  4  6  1  0
  5 28  1  0
  5 29  1  0
  5 30  1  0
  6  7  1  0
  6 31  1  0
  6 32  1  0
  7  8  1  6
  7  9  1  0
  7 10  1  0
  9 33  1  0
  9 34  1  0
  9 35  1  0
 10 11  1  0
 10 36  1  0
 11 12  1  0
 11 37  1  0
 11 38  1  0
 12 13  2  0
 12 20  1  0
 13 14  1  0
 13 39  1  0
 14 15  2  0
 14 40  1  0
 15 16  1  0
 15 41  1  0
 16 17  1  0
 16 20  2  0
 17 18  2  0
 17 19  1  0
 19 42  1  0
 20 43  1  0
M  END

