
     RDKit          3D

 30 30  0  0  0  0  0  0  0  0999 V2000
    1.2068   -0.4899    0.9051 C   0  0  0  0  0  0  0  0  0  0  0  0
    2.4978   -0.1530    0.1573 C   0  0  0  0  0  0  0  0  0  0  0  0
    3.1492    1.1383    0.6598 C   0  0  0  0  0  0  0  0  0  0  0  0
    4.4748    1.4767   -0.0671 C   0  0  1  0  0  0  0  0  0  0  0  0
    4.2800    1.7163   -1.5043 C   0  0  0  0  0  0  0  0  0  0  0  0
    4.1147    1.8838   -2.6391 N   0  0  0  0  0  0  0  0  0  0  0  0
    5.2160    2.6684    0.5901 C   0  0  0  0  0  0  0  0  0  0  0  0
    4.4758    3.7261    0.5998 O   0  0  0  0  0  0  0  0  0  0  0  0
    6.5154    2.6044    1.1335 C   0  0  0  0  0  0  0  0  0  0  0  0
    7.0695    3.7709    1.7616 C   0  0  0  0  0  0  0  0  0  0  0  0
    8.3392    3.7437    2.3129 C   0  0  0  0  0  0  0  0  0  0  0  0
    9.1507    2.5915    2.2897 C   0  0  0  0  0  0  0  0  0  0  0  0
   10.5309    2.5377    2.8799 C   0  0  0  0  0  0  0  0  0  0  0  0
    8.5918    1.4593    1.6649 C   0  0  0  0  0  0  0  0  0  0  0  0
    9.3376    0.3386    1.6167 F   0  0  0  0  0  0  0  0  0  0  0  0
    7.3348    1.4292    1.0993 C   0  0  0  0  0  0  0  0  0  0  0  0
    0.7587   -1.4203    0.5234 H   0  0  0  0  0  0  0  0  0  0  0  0
    0.4585    0.3116    0.7919 H   0  0  0  0  0  0  0  0  0  0  0  0
    1.3886   -0.6248    1.9842 H   0  0  0  0  0  0  0  0  0  0  0  0
    2.2891   -0.0612   -0.9223 H   0  0  0  0  0  0  0  0  0  0  0  0
    3.2144   -0.9883    0.2601 H   0  0  0  0  0  0  0  0  0  0  0  0
    3.3813    1.0521    1.7344 H   0  0  0  0  0  0  0  0  0  0  0  0
    2.4550    1.9870    0.5534 H   0  0  0  0  0  0  0  0  0  0  0  0
    5.1600    0.6212    0.0235 H   0  0  0  0  0  0  0  0  0  0  0  0
    6.4783    4.6868    1.8033 H   0  0  0  0  0  0  0  0  0  0  0  0
    8.7317    4.6488    2.7853 H   0  0  0  0  0  0  0  0  0  0  0  0
   10.8035    3.5021    3.3320 H   0  0  0  0  0  0  0  0  0  0  0  0
   11.2889    2.2909    2.1169 H   0  0  0  0  0  0  0  0  0  0  0  0
   10.6093    1.7597    3.6585 H   0  0  0  0  0  0  0  0  0  0  0  0
    7.0172    0.4960    0.6343 H   0  0  0  0  0  0  0  0  0  0  0  0
  1  2  1  0
  1 17  1  0
  1 18  1  0
  1 19  1  0
  2  3  1  0
  2 20  1  0
  2 21  1  0
  3  4  1  0
  3 22  1  0
  3 23  1  0
  4  5  1  0
  4  7  1  0
  4 24  1  1
  5  6  3  0
  7  8  2  0
  7  9  1  0
  9 10  2  0
  9 16  1  0
 10 11  1  0
 10 25  1  0
 11 12  2  0
 11 26  1  0
 12 13  1  0
 12 14  1  0
 13 27  1  0
 13 28  1  0
 13 29  1  0
 14 15  1  0
 14 16  2  0
 16 30  1  0
M  END

