
     RDKit          3D

 55 57  0  0  0  0  0  0  0  0999 V2000
    2.4875   -1.2555    1.0204 C   0  0  0  0  0  0  0  0  0  0  0  0
    3.3677   -1.3870   -0.1255 N   0  0  0  0  0  0  0  0  0  0  0  0
    2.7528   -1.9661   -1.3182 C   0  0  0  0  0  0  0  0  0  0  0  0
    1.9675   -0.9343   -2.1525 C   0  0  0  0  0  0  0  0  0  0  0  0
    2.7787    0.2382   -2.4989 N   0  0  0  0  0  0  0  0  0  0  0  0
    3.7248   -0.0083   -3.5822 C   0  0  0  0  0  0  0  0  0  0  0  0
    3.3362    0.8373   -1.2661 C   0  0  2  0  0  0  0  0  0  0  0  0
    4.1044    2.1260   -1.5505 C   0  0  0  0  0  0  0  0  0  0  0  0
    3.2770    3.0121   -2.3410 N   0  0  0  0  0  0  0  0  0  0  0  0
    3.6339    4.3227   -2.5531 C   0  0  0  0  0  0  0  0  0  0  0  0
    4.6099    4.8263   -2.0173 O   0  0  0  0  0  0  0  0  0  0  0  0
    2.7728    4.9934   -3.4087 N   0  0  0  0  0  0  0  0  0  0  0  0
    2.8330    6.3271   -3.8296 C   0  0  0  0  0  0  0  0  0  0  0  0
    3.8159    7.2474   -3.4415 C   0  0  0  0  0  0  0  0  0  0  0  0
    3.7788    8.5617   -3.9225 C   0  0  0  0  0  0  0  0  0  0  0  0
    2.7693    8.9715   -4.7899 C   0  0  0  0  0  0  0  0  0  0  0  0
    1.7799    8.0618   -5.1892 C   0  0  0  0  0  0  0  0  0  0  0  0
    1.8045    6.7499   -4.7154 C   0  0  0  0  0  0  0  0  0  0  0  0
    0.8879    5.7789   -5.0281 O   0  0  0  0  0  0  0  0  0  0  0  0
   -0.2261    6.0537   -5.8640 C   0  0  1  0  0  0  0  0  0  0  0  0
    0.0723    6.0188   -7.3707 C   0  0  0  0  0  0  0  0  0  0  0  0
   -1.3180    5.8398   -8.0064 C   0  0  0  0  0  0  0  0  0  0  0  0
   -2.1624    5.0528   -6.9573 C   0  0  0  0  0  0  0  0  0  0  0  0
   -1.2799    4.9540   -5.6928 C   0  0  0  0  0  0  0  0  0  0  0  0
    4.1438   -0.1908   -0.4480 C   0  0  0  0  0  0  0  0  0  0  0  0
    2.0471   -2.2367    1.2621 H   0  0  0  0  0  0  0  0  0  0  0  0
    1.6451   -0.5375    0.9032 H   0  0  0  0  0  0  0  0  0  0  0  0
    3.0702   -0.9314    1.8981 H   0  0  0  0  0  0  0  0  0  0  0  0
    2.0959   -2.7990   -1.0175 H   0  0  0  0  0  0  0  0  0  0  0  0
    3.5518   -2.4057   -1.9433 H   0  0  0  0  0  0  0  0  0  0  0  0
    1.0887   -0.5864   -1.5809 H   0  0  0  0  0  0  0  0  0  0  0  0
    1.5842   -1.3949   -3.0786 H   0  0  0  0  0  0  0  0  0  0  0  0
    3.1778   -0.4363   -4.4373 H   0  0  0  0  0  0  0  0  0  0  0  0
    4.5573   -0.7026   -3.3447 H   0  0  0  0  0  0  0  0  0  0  0  0
    4.1718    0.9370   -3.9246 H   0  0  0  0  0  0  0  0  0  0  0  0
    2.4556    1.1248   -0.6622 H   0  0  0  0  0  0  0  0  0  0  0  0
    5.0671    1.9106   -2.0535 H   0  0  0  0  0  0  0  0  0  0  0  0
    4.3652    2.6176   -0.6002 H   0  0  0  0  0  0  0  0  0  0  0  0
    2.5492    2.5558   -2.8835 H   0  0  0  0  0  0  0  0  0  0  0  0
    1.9743    4.4916   -3.7802 H   0  0  0  0  0  0  0  0  0  0  0  0
    4.5963    6.9125   -2.7619 H   0  0  0  0  0  0  0  0  0  0  0  0
    4.5543    9.2651   -3.6095 H   0  0  0  0  0  0  0  0  0  0  0  0
    2.7410    9.9963   -5.1676 H   0  0  0  0  0  0  0  0  0  0  0  0
    0.9961    8.3852   -5.8742 H   0  0  0  0  0  0  0  0  0  0  0  0
   -0.6593    7.0320   -5.5838 H   0  0  0  0  0  0  0  0  0  0  0  0
    0.7132    5.1412   -7.5626 H   0  0  0  0  0  0  0  0  0  0  0  0
    0.6105    6.9045   -7.7386 H   0  0  0  0  0  0  0  0  0  0  0  0
   -1.2638    5.3266   -8.9782 H   0  0  0  0  0  0  0  0  0  0  0  0
   -1.7750    6.8238   -8.1993 H   0  0  0  0  0  0  0  0  0  0  0  0
   -2.4457    4.0541   -7.3222 H   0  0  0  0  0  0  0  0  0  0  0  0
   -3.1039    5.5819   -6.7427 H   0  0  0  0  0  0  0  0  0  0  0  0
   -0.7474    3.9888   -5.6590 H   0  0  0  0  0  0  0  0  0  0  0  0
   -1.8422    5.0509   -4.7520 H   0  0  0  0  0  0  0  0  0  0  0  0
    4.5065    0.2650    0.4880 H   0  0  0  0  0  0  0  0  0  0  0  0
    5.0407   -0.4933   -1.0198 H   0  0  0  0  0  0  0  0  0  0  0  0
  1  2  1  0
  1 26  1  0
  1 27  1  0
  1 28  1  0
  2  3  1  0
  2 25  1  0
  3  4  1  0
  3 29  1  0
  3 30  1  0
  4  5  1  0
  4 31  1  0
  4 32  1  0
  5  6  1  0
  5  7  1  0
  6 33  1  0
  6 34  1  0
  6 35  1  0
  7  8  1  0
  7 25  1  0
  7 36  1  1
  8  9  1  0
  8 37  1  0
  8 38  1  0
  9 10  1  0
  9 39  1  0
 10 11  2  0
 10 12  1  0
 12 13  1  0
 12 40  1  0
 13 14  2  0
 13 18  1  0
 14 15  1  0
 14 41  1  0
 15 16  2  0
 15 42  1  0
 16 17  1  0
 16 43  1  0
 17 18  2  0
 17 44  1  0
 18 19  1  0
 19 20  1  0
 20 21  1  0
 20 24  1  0
 20 45  1  1
 21 22  1  0
 21 46  1  0
 21 47  1  0
 22 23  1  0
 22 48  1  0
 22 49  1  0
 23 24  1  0
 23 50  1  0
 23 51  1  0
 24 52  1  0
 24 53  1  0
 25 54  1  0
 25 55  1  0
M  END

