
     RDKit          3D

 33 34  0  0  0  0  0  0  0  0999 V2000
    1.0847    0.4562   -0.0314 C   0  0  0  0  0  0  0  0  0  0  0  0
    2.2325    0.0881    0.7248 N   0  0  0  0  0  0  0  0  0  0  0  0
    2.8755   -1.2655    0.7518 C   0  0  1  0  0  0  0  0  0  0  0  0
    2.2631   -2.2531   -0.1760 C   0  0  0  0  0  0  0  0  0  0  0  0
    2.8473   -2.8483   -1.3245 C   0  0  0  0  0  0  0  0  0  0  0  0
    2.2442   -4.0279   -1.7624 C   0  0  0  0  0  0  0  0  0  0  0  0
    2.7112   -4.8457   -2.9350 C   0  0  0  0  0  0  0  0  0  0  0  0
    1.1170   -4.3913   -0.9817 C   0  0  0  0  0  0  0  0  0  0  0  0
    0.6029   -6.0903   -0.7877 Cl  0  0  0  0  0  0  0  0  0  0  0  0
    0.9217   -3.2953    0.4077 S   0  0  0  0  0  0  0  0  0  0  0  0
    4.3811   -1.0740    0.6339 C   0  0  0  0  0  0  0  0  0  0  0  0
    4.9032   -0.1239   -0.2578 C   0  0  0  0  0  0  0  0  0  0  0  0
    6.2827    0.0220   -0.4194 C   0  0  0  0  0  0  0  0  0  0  0  0
    7.1499   -0.7871    0.3068 C   0  0  0  0  0  0  0  0  0  0  0  0
    6.6251   -1.7457    1.1853 C   0  0  0  0  0  0  0  0  0  0  0  0
    7.7808   -2.7245    2.0712 Cl  0  0  0  0  0  0  0  0  0  0  0  0
    5.2440   -1.9266    1.3701 C   0  0  0  0  0  0  0  0  0  0  0  0
    4.6825   -2.9822    2.2880 C   0  0  0  0  0  0  0  0  0  0  0  0
    1.4134    1.0700   -0.8959 H   0  0  0  0  0  0  0  0  0  0  0  0
    0.4187    1.0888    0.5764 H   0  0  0  0  0  0  0  0  0  0  0  0
    0.5935   -0.4472   -0.4062 H   0  0  0  0  0  0  0  0  0  0  0  0
    2.6727    0.8096    1.2993 H   0  0  0  0  0  0  0  0  0  0  0  0
    2.6707   -1.5529    1.8054 H   0  0  0  0  0  0  0  0  0  0  0  0
    3.7065   -2.4114   -1.8386 H   0  0  0  0  0  0  0  0  0  0  0  0
    3.6148   -4.4099   -3.3882 H   0  0  0  0  0  0  0  0  0  0  0  0
    1.9379   -4.9213   -3.7199 H   0  0  0  0  0  0  0  0  0  0  0  0
    2.9461   -5.8800   -2.6299 H   0  0  0  0  0  0  0  0  0  0  0  0
    4.2329    0.4970   -0.8573 H   0  0  0  0  0  0  0  0  0  0  0  0
    6.6811    0.7616   -1.1178 H   0  0  0  0  0  0  0  0  0  0  0  0
    8.2315   -0.6969    0.1988 H   0  0  0  0  0  0  0  0  0  0  0  0
    5.4503   -3.7098    2.5737 H   0  0  0  0  0  0  0  0  0  0  0  0
    3.8541   -3.5219    1.8052 H   0  0  0  0  0  0  0  0  0  0  0  0
    4.2933   -2.5361    3.2211 H   0  0  0  0  0  0  0  0  0  0  0  0
  1  2  1  0
  1 19  1  0
  1 20  1  0
  1 21  1  0
  2  3  1  0
  2 22  1  0
  3  4  1  0
  3 11  1  0
  3 23  1  1
  4  5  2  0
  4 10  1  0
  5  6  1  0
  5 24  1  0
  6  7  1  0
  6  8  2  0
  7 25  1  0
  7 26  1  0
  7 27  1  0
  8  9  1  0
  8 10  1  0
 11 12  2  0
 11 17  1  0
 12 13  1  0
 12 28  1  0
 13 14  2  0
 13 29  1  0
 14 15  1  0
 14 30  1  0
 15 16  1  0
 15 17  2  0
 17 18  1  0
 18 31  1  0
 18 32  1  0
 18 33  1  0
M  END

