
     RDKit          3D

 34 36  0  0  0  0  0  0  0  0999 V2000
    3.4218    0.5733    0.8015 C   0  0  0  0  0  0  0  0  0  0  0  0
    2.2959   -0.0968    0.0087 C   0  0  1  0  0  0  0  0  0  0  0  0
    1.4635    0.9038   -0.7976 C   0  0  0  0  0  0  0  0  0  0  0  0
    2.8308   -1.1435   -0.8657 N   0  0  0  0  0  0  0  0  0  0  0  0
    3.6825   -0.8561   -1.8690 N   0  0  0  0  0  0  0  0  0  0  0  0
    3.9817   -1.9910   -2.4798 C   0  0  0  0  0  0  0  0  0  0  0  0
    3.3067   -3.0910   -1.8670 C   0  0  0  0  0  0  0  0  0  0  0  0
    3.2073   -4.4827   -2.0383 C   0  0  0  0  0  0  0  0  0  0  0  0
    2.3765   -5.1644   -1.1442 C   0  0  0  0  0  0  0  0  0  0  0  0
    2.1568   -6.5560   -1.1681 N   0  0  0  0  0  0  0  0  0  0  0  0
    2.6758   -7.4891   -2.0421 C   0  0  0  0  0  0  0  0  0  0  0  0
    3.4357   -7.2019   -2.9512 O   0  0  0  0  0  0  0  0  0  0  0  0
    2.2565   -8.9174   -1.8156 C   0  0  1  0  0  0  0  0  0  0  0  0
    2.0484   -9.5093   -0.4346 C   0  0  0  0  0  0  0  0  0  0  0  0
    0.8705   -9.3050   -1.3367 C   0  0  0  0  0  0  0  0  0  0  0  0
    1.6902   -4.4305   -0.1304 C   0  0  0  0  0  0  0  0  0  0  0  0
    1.7704   -3.1228    0.0453 N   0  0  0  0  0  0  0  0  0  0  0  0
    2.5669   -2.4869   -0.8161 C   0  0  0  0  0  0  0  0  0  0  0  0
    3.0075    1.3226    1.4939 H   0  0  0  0  0  0  0  0  0  0  0  0
    4.1255    1.0779    0.1219 H   0  0  0  0  0  0  0  0  0  0  0  0
    3.9829   -0.1672    1.3920 H   0  0  0  0  0  0  0  0  0  0  0  0
    1.6378   -0.6423    0.7027 H   0  0  0  0  0  0  0  0  0  0  0  0
    2.0909    1.4111   -1.5461 H   0  0  0  0  0  0  0  0  0  0  0  0
    1.0298    1.6651   -0.1304 H   0  0  0  0  0  0  0  0  0  0  0  0
    0.6397    0.3977   -1.3241 H   0  0  0  0  0  0  0  0  0  0  0  0
    4.6623   -1.9923   -3.3310 H   0  0  0  0  0  0  0  0  0  0  0  0
    3.7372   -5.0267   -2.8170 H   0  0  0  0  0  0  0  0  0  0  0  0
    1.5338   -6.8948   -0.4449 H   0  0  0  0  0  0  0  0  0  0  0  0
    2.7216   -9.5596   -2.5666 H   0  0  0  0  0  0  0  0  0  0  0  0
    2.1748   -8.8536    0.4326 H   0  0  0  0  0  0  0  0  0  0  0  0
    2.4119  -10.5270   -0.2680 H   0  0  0  0  0  0  0  0  0  0  0  0
    0.1605   -8.5035   -1.1101 H   0  0  0  0  0  0  0  0  0  0  0  0
    0.4078  -10.1792   -1.8026 H   0  0  0  0  0  0  0  0  0  0  0  0
    1.0400   -4.9785    0.5660 H   0  0  0  0  0  0  0  0  0  0  0  0
  1  2  1  0
  1 19  1  0
  1 20  1  0
  1 21  1  0
  2  3  1  0
  2  4  1  0
  2 22  1  1
  3 23  1  0
  3 24  1  0
  3 25  1  0
  4  5  1  0
  4 18  1  0
  5  6  2  0
  6  7  1  0
  6 26  1  0
  7  8  1  0
  7 18  2  0
  8  9  2  0
  8 27  1  0
  9 10  1  0
  9 16  1  0
 10 11  1  0
 10 28  1  0
 11 12  2  0
 11 13  1  0
 13 14  1  0
 13 15  1  0
 13 29  1  6
 14 15  1  0
 14 30  1  0
 14 31  1  0
 15 32  1  0
 15 33  1  0
 16 17  2  0
 16 34  1  0
 17 18  1  0
M  END

