
     RDKit          3D

 47 48  0  0  0  0  0  0  0  0999 V2000
    4.4250    0.1813    1.6431 C   0  0  0  0  0  0  0  0  0  0  0  0
    4.1412    0.8574    0.5196 C   0  0  0  0  0  0  0  0  0  0  0  0
    4.3054    0.4035   -0.8718 C   0  0  0  0  0  0  0  0  0  0  0  0
    4.8373   -0.8496   -1.2241 C   0  0  0  0  0  0  0  0  0  0  0  0
    4.9696   -1.2330   -2.5588 C   0  0  0  0  0  0  0  0  0  0  0  0
    4.5741   -0.3915   -3.6138 C   0  0  0  0  0  0  0  0  0  0  0  0
    4.7381   -0.7424   -5.0960 C   0  0  1  0  0  0  0  0  0  0  0  0
    5.3790   -2.1155   -5.3910 C   0  0  0  0  0  0  0  0  0  0  0  0
    4.4252   -3.3085   -5.2056 C   0  0  0  0  0  0  0  0  0  0  0  0
    3.1090   -3.1673   -6.0008 C   0  0  2  0  0  0  0  0  0  0  0  0
    3.2628   -3.3801   -7.5214 C   0  0  0  0  0  0  0  0  0  0  0  0
    3.6484   -4.8031   -7.9413 C   0  0  0  0  0  0  0  0  0  0  0  0
    3.7047   -4.9997   -9.4595 C   0  0  0  0  0  0  0  0  0  0  0  0
    4.0944   -6.4179   -9.8884 C   0  0  0  0  0  0  0  0  0  0  0  0
    4.1483   -6.6064  -11.4051 C   0  0  0  0  0  0  0  0  0  0  0  0
    2.4674   -1.8059   -5.6598 C   0  0  0  0  0  0  0  0  0  0  0  0
    3.4143   -0.6219   -5.8949 C   0  0  0  0  0  0  0  0  0  0  0  0
    4.0548    0.8664   -3.2578 C   0  0  0  0  0  0  0  0  0  0  0  0
    3.9229    1.2543   -1.9261 C   0  0  0  0  0  0  0  0  0  0  0  0
    4.2575    0.6310    2.6248 H   0  0  0  0  0  0  0  0  0  0  0  0
    4.8289   -0.8350    1.6343 H   0  0  0  0  0  0  0  0  0  0  0  0
    3.7352    1.8712    0.6201 H   0  0  0  0  0  0  0  0  0  0  0  0
    5.1599   -1.5434   -0.4442 H   0  0  0  0  0  0  0  0  0  0  0  0
    5.4004   -2.2122   -2.7702 H   0  0  0  0  0  0  0  0  0  0  0  0
    5.4230    0.0260   -5.4996 H   0  0  0  0  0  0  0  0  0  0  0  0
    6.2853   -2.2568   -4.7798 H   0  0  0  0  0  0  0  0  0  0  0  0
    5.7327   -2.0978   -6.4361 H   0  0  0  0  0  0  0  0  0  0  0  0
    4.1651   -3.4126   -4.1394 H   0  0  0  0  0  0  0  0  0  0  0  0
    4.9471   -4.2405   -5.4781 H   0  0  0  0  0  0  0  0  0  0  0  0
    2.4214   -3.9558   -5.6438 H   0  0  0  0  0  0  0  0  0  0  0  0
    3.9990   -2.6719   -7.9412 H   0  0  0  0  0  0  0  0  0  0  0  0
    2.3012   -3.1220   -8.0018 H   0  0  0  0  0  0  0  0  0  0  0  0
    2.9248   -5.5190   -7.5082 H   0  0  0  0  0  0  0  0  0  0  0  0
    4.6294   -5.0723   -7.5110 H   0  0  0  0  0  0  0  0  0  0  0  0
    4.4218   -4.2783   -9.8947 H   0  0  0  0  0  0  0  0  0  0  0  0
    2.7221   -4.7435   -9.8983 H   0  0  0  0  0  0  0  0  0  0  0  0
    3.3779   -7.1380   -9.4522 H   0  0  0  0  0  0  0  0  0  0  0  0
    5.0766   -6.6719   -9.4495 H   0  0  0  0  0  0  0  0  0  0  0  0
    3.1707   -6.3948  -11.8702 H   0  0  0  0  0  0  0  0  0  0  0  0
    4.4293   -7.6366  -11.6768 H   0  0  0  0  0  0  0  0  0  0  0  0
    4.8849   -5.9279  -11.8676 H   0  0  0  0  0  0  0  0  0  0  0  0
    2.1602   -1.8129   -4.5991 H   0  0  0  0  0  0  0  0  0  0  0  0
    1.5443   -1.6664   -6.2482 H   0  0  0  0  0  0  0  0  0  0  0  0
    2.9010    0.3208   -5.6488 H   0  0  0  0  0  0  0  0  0  0  0  0
    3.6649   -0.5553   -6.9674 H   0  0  0  0  0  0  0  0  0  0  0  0
    3.7564    1.5689   -4.0408 H   0  0  0  0  0  0  0  0  0  0  0  0
    3.5175    2.2431   -1.6923 H   0  0  0  0  0  0  0  0  0  0  0  0
  1  2  2  0
  1 20  1  0
  1 21  1  0
  2  3  1  0
  2 22  1  0
  3  4  2  0
  3 19  1  0
  4  5  1  0
  4 23  1  0
  5  6  2  0
  5 24  1  0
  6  7  1  0
  6 18  1  0
  7  8  1  0
  7 17  1  0
  7 25  1  6
  8  9  1  0
  8 26  1  0
  8 27  1  0
  9 10  1  0
  9 28  1  0
  9 29  1  0
 10 11  1  0
 10 16  1  0
 10 30  1  1
 11 12  1  0
 11 31  1  0
 11 32  1  0
 12 13  1  0
 12 33  1  0
 12 34  1  0
 13 14  1  0
 13 35  1  0
 13 36  1  0
 14 15  1  0
 14 37  1  0
 14 38  1  0
 15 39  1  0
 15 40  1  0
 15 41  1  0
 16 17  1  0
 16 42  1  0
 16 43  1  0
 17 44  1  0
 17 45  1  0
 18 19  2  0
 18 46  1  0
 19 47  1  0
M  END

