
     RDKit          3D

 32 34  0  0  0  0  0  0  0  0999 V2000
    1.1773   -0.3117    0.8972 F   0  0  0  0  0  0  0  0  0  0  0  0
    2.4122   -0.2333    0.4725 C   0  0  0  0  0  0  0  0  0  0  0  0
    2.6912    0.6770   -0.6016 C   0  0  0  0  0  0  0  0  0  0  0  0
    3.9801    0.7914   -1.0839 C   0  0  0  0  0  0  0  0  0  0  0  0
    5.0209    0.0214   -0.5257 C   0  0  0  0  0  0  0  0  0  0  0  0
    6.4408    0.1076   -0.9969 C   0  0  1  0  0  0  0  0  0  0  0  0
    6.5710   -0.2256   -2.5206 C   0  0  0  0  0  0  0  0  0  0  0  0
    7.7443   -1.0233   -2.7968 N   0  0  0  0  0  0  0  0  0  0  0  0
    9.0122   -0.6754   -3.1109 C   0  0  0  0  0  0  0  0  0  0  0  0
    9.7239   -1.7728   -3.2400 N   0  0  0  0  0  0  0  0  0  0  0  0
    8.8766   -2.7999   -2.9885 N   0  0  0  0  0  0  0  0  0  0  0  0
    7.6949   -2.3702   -2.7209 N   0  0  0  0  0  0  0  0  0  0  0  0
    7.1242    1.4508   -0.6048 C   0  0  1  0  0  0  0  0  0  0  0  0
    7.0987    1.4916    0.7845 F   0  0  0  0  0  0  0  0  0  0  0  0
    8.4944    1.1759   -0.8647 F   0  0  0  0  0  0  0  0  0  0  0  0
    6.6228    2.6752   -1.1994 C   0  0  0  0  0  0  0  0  0  0  0  0
    5.9555    2.7108   -2.4103 N   0  0  0  0  0  0  0  0  0  0  0  0
    5.9398    3.9611   -2.8960 C   0  0  0  0  0  0  0  0  0  0  0  0
    6.5940    4.9456   -2.1750 C   0  0  0  0  0  0  0  0  0  0  0  0
    7.3273    4.2571   -0.7261 S   0  0  0  0  0  0  0  0  0  0  0  0
    4.6759   -0.8878    0.5551 C   0  0  0  0  0  0  0  0  0  0  0  0
    5.6320   -1.6123    1.0737 F   0  0  0  0  0  0  0  0  0  0  0  0
    3.3942   -1.0203    1.0628 C   0  0  0  0  0  0  0  0  0  0  0  0
    1.8668    1.2680   -1.0033 H   0  0  0  0  0  0  0  0  0  0  0  0
    4.2517    1.5058   -1.8679 H   0  0  0  0  0  0  0  0  0  0  0  0
    7.0211   -0.6462   -0.4527 H   0  0  0  0  0  0  0  0  0  0  0  0
    6.5937    0.7137   -3.0872 H   0  0  0  0  0  0  0  0  0  0  0  0
    5.7139   -0.8189   -2.8651 H   0  0  0  0  0  0  0  0  0  0  0  0
    9.3567    0.3509   -3.2123 H   0  0  0  0  0  0  0  0  0  0  0  0
    5.4175    4.1640   -3.8358 H   0  0  0  0  0  0  0  0  0  0  0  0
    6.6978    6.0013   -2.4102 H   0  0  0  0  0  0  0  0  0  0  0  0
    3.1710   -1.7068    1.8789 H   0  0  0  0  0  0  0  0  0  0  0  0
  1  2  1  0
  2  3  2  0
  2 23  1  0
  3  4  1  0
  3 24  1  0
  4  5  2  0
  4 25  1  0
  5  6  1  0
  5 21  1  0
  6  7  1  0
  6 13  1  0
  6 26  1  1
  7  8  1  0
  7 27  1  0
  7 28  1  0
  8  9  1  0
  8 12  1  0
  9 10  2  0
  9 29  1  0
 10 11  1  0
 11 12  2  0
 13 14  1  1
 13 15  1  0
 13 16  1  0
 16 17  2  0
 16 20  1  0
 17 18  1  0
 18 19  2  0
 18 30  1  0
 19 20  1  0
 19 31  1  0
 21 22  1  0
 21 23  2  0
 23 32  1  0
M  END

