
     RDKit          3D

 45 48  0  0  0  0  0  0  0  0999 V2000
    0.9949   -0.3588    0.0440 C   0  0  0  0  0  0  0  0  0  0  0  0
    2.4694    0.0337   -0.0418 C   0  0  0  0  0  0  0  0  0  0  0  0
    3.1221   -0.2488   -1.4152 C   0  0  1  0  0  0  0  0  0  0  0  0
    4.5560    0.2377   -1.4822 C   0  0  0  0  0  0  0  0  0  0  0  0
    4.9667    1.6113   -1.4306 C   0  0  0  0  0  0  0  0  0  0  0  0
    6.3246    1.7648   -1.5198 C   0  0  0  0  0  0  0  0  0  0  0  0
    7.1327    0.2384   -1.6673 S   0  0  0  0  0  0  0  0  0  0  0  0
    5.6223   -0.6233   -1.6050 C   0  0  0  0  0  0  0  0  0  0  0  0
    5.4937   -2.1152   -1.6954 C   0  0  0  0  0  0  0  0  0  0  0  0
    4.0953   -2.5155   -1.1971 C   0  0  0  0  0  0  0  0  0  0  0  0
    3.0576   -1.6755   -1.7852 N   0  0  0  0  0  0  0  0  0  0  0  0
    2.1505   -2.0533   -2.7564 C   0  0  0  0  0  0  0  0  0  0  0  0
    1.4043   -1.2290   -3.2776 O   0  0  0  0  0  0  0  0  0  0  0  0
    2.0897   -3.5006   -3.1601 C   0  0  1  0  0  0  0  0  0  0  0  0
    0.8730   -3.9654   -3.9343 C   0  0  0  0  0  0  0  0  0  0  0  0
    2.1857   -3.9132   -4.6438 C   0  0  2  0  0  0  0  0  0  0  0  0
    2.9253   -5.2144   -4.9381 C   0  0  0  0  0  0  0  0  0  0  0  0
    4.4137   -4.9529   -5.2334 C   0  0  0  0  0  0  0  0  0  0  0  0
    4.6470   -3.9453   -6.2608 N   0  0  0  0  0  0  0  0  0  0  0  0
    3.9388   -2.6955   -5.9924 C   0  0  0  0  0  0  0  0  0  0  0  0
    2.4337   -2.8660   -5.7238 C   0  0  0  0  0  0  0  0  0  0  0  0
    0.5752   -0.0931    1.0273 H   0  0  0  0  0  0  0  0  0  0  0  0
    0.8608   -1.4429   -0.0939 H   0  0  0  0  0  0  0  0  0  0  0  0
    0.3984    0.1444   -0.7325 H   0  0  0  0  0  0  0  0  0  0  0  0
    3.0479   -0.4750    0.7498 H   0  0  0  0  0  0  0  0  0  0  0  0
    2.5816    1.1125    0.1599 H   0  0  0  0  0  0  0  0  0  0  0  0
    2.5317    0.2734   -2.1816 H   0  0  0  0  0  0  0  0  0  0  0  0
    4.2754    2.4515   -1.3410 H   0  0  0  0  0  0  0  0  0  0  0  0
    6.9000    2.6894   -1.5119 H   0  0  0  0  0  0  0  0  0  0  0  0
    6.2618   -2.6258   -1.0902 H   0  0  0  0  0  0  0  0  0  0  0  0
    5.6322   -2.4581   -2.7372 H   0  0  0  0  0  0  0  0  0  0  0  0
    4.0598   -2.4046   -0.0993 H   0  0  0  0  0  0  0  0  0  0  0  0
    3.9050   -3.5707   -1.4141 H   0  0  0  0  0  0  0  0  0  0  0  0
    2.5093   -4.2280   -2.4648 H   0  0  0  0  0  0  0  0  0  0  0  0
    0.1443   -3.1845   -4.1661 H   0  0  0  0  0  0  0  0  0  0  0  0
    0.4556   -4.9425   -3.6721 H   0  0  0  0  0  0  0  0  0  0  0  0
    2.4600   -5.6892   -5.8230 H   0  0  0  0  0  0  0  0  0  0  0  0
    2.8147   -5.9290   -4.1038 H   0  0  0  0  0  0  0  0  0  0  0  0
    4.9179   -5.8882   -5.5284 H   0  0  0  0  0  0  0  0  0  0  0  0
    4.9089   -4.6125   -4.3043 H   0  0  0  0  0  0  0  0  0  0  0  0
    4.3636   -4.3112   -7.1704 H   0  0  0  0  0  0  0  0  0  0  0  0
    4.1025   -2.0081   -6.8384 H   0  0  0  0  0  0  0  0  0  0  0  0
    4.4105   -2.2188   -5.1133 H   0  0  0  0  0  0  0  0  0  0  0  0
    1.9373   -3.2105   -6.6510 H   0  0  0  0  0  0  0  0  0  0  0  0
    1.9746   -1.9065   -5.4469 H   0  0  0  0  0  0  0  0  0  0  0  0
  1  2  1  0
  1 22  1  0
  1 23  1  0
  1 24  1  0
  2  3  1  0
  2 25  1  0
  2 26  1  0
  3  4  1  0
  3 11  1  0
  3 27  1  6
  4  5  1  0
  4  8  2  0
  5  6  2  0
  5 28  1  0
  6  7  1  0
  6 29  1  0
  7  8  1  0
  8  9  1  0
  9 10  1  0
  9 30  1  0
  9 31  1  0
 10 11  1  0
 10 32  1  0
 10 33  1  0
 11 12  1  0
 12 13  2  0
 12 14  1  0
 14 15  1  0
 14 16  1  0
 14 34  1  1
 16 15  1  6
 15 35  1  0
 15 36  1  0
 16 17  1  0
 16 21  1  0
 17 18  1  0
 17 37  1  0
 17 38  1  0
 18 19  1  0
 18 39  1  0
 18 40  1  0
 19 20  1  0
 19 41  1  0
 20 21  1  0
 20 42  1  0
 20 43  1  0
 21 44  1  0
 21 45  1  0
M  END

