
     RDKit          3D

 75 80  0  0  0  0  0  0  0  0999 V2000
    7.7074    7.1064    0.0181 C   0  0  0  0  0  0  0  0  0  0  0  0
    7.6950    5.7869    0.5539 O   0  0  0  0  0  0  0  0  0  0  0  0
    7.0362    4.8111   -0.0858 C   0  0  0  0  0  0  0  0  0  0  0  0
    6.3011    4.9895   -1.2733 C   0  0  0  0  0  0  0  0  0  0  0  0
    5.6407    3.9054   -1.8511 C   0  0  0  0  0  0  0  0  0  0  0  0
    5.6954    2.6287   -1.2736 C   0  0  0  0  0  0  0  0  0  0  0  0
    4.9362    1.4745   -1.8972 C   0  0  0  0  0  0  0  0  0  0  0  0
    5.4534    1.0840   -3.2061 N   0  0  0  0  0  0  0  0  0  0  0  0
    6.8323    0.6500   -3.3527 C   0  0  0  0  0  0  0  0  0  0  0  0
    6.9453   -0.5873   -4.2598 C   0  0  0  0  0  0  0  0  0  0  0  0
    6.2646   -0.3455   -5.6157 C   0  0  2  0  0  0  0  0  0  0  0  0
    6.9974    0.7037   -6.3386 N   0  0  0  0  0  0  0  0  0  0  0  0
    6.3746    1.2790   -7.5006 C   0  0  0  0  0  0  0  0  0  0  0  0
    6.0626    0.5697   -8.7038 C   0  0  0  0  0  0  0  0  0  0  0  0
    6.6135   -1.0997   -8.8939 Cl  0  0  0  0  0  0  0  0  0  0  0  0
    5.3791    1.1957   -9.7463 C   0  0  0  0  0  0  0  0  0  0  0  0
    4.9623    2.4692   -9.7246 N   0  0  0  0  0  0  0  0  0  0  0  0
    5.2729    3.1813   -8.6260 C   0  0  0  0  0  0  0  0  0  0  0  0
    4.9956    4.4846   -8.3868 N   0  0  0  0  0  0  0  0  0  0  0  0
    5.5230    4.7862   -7.1882 C   0  0  0  0  0  0  0  0  0  0  0  0
    5.5197    6.0457   -6.5324 C   0  0  0  0  0  0  0  0  0  0  0  0
    4.9255    7.1931   -7.1538 C   0  0  0  0  0  0  0  0  0  0  0  0
    4.9065    8.4245   -6.5283 C   0  0  0  0  0  0  0  0  0  0  0  0
    5.4854    8.5931   -5.2508 C   0  0  0  0  0  0  0  0  0  0  0  0
    5.4434    9.8760   -4.6995 O   0  0  0  0  0  0  0  0  0  0  0  0
    5.5096    9.9850   -3.3030 C   0  0  0  0  0  0  0  0  0  0  0  0
    6.9374   10.0430   -2.7424 C   0  0  0  0  0  0  0  0  0  0  0  0
    7.1736    9.7811   -1.5712 O   0  0  0  0  0  0  0  0  0  0  0  0
    7.8543   10.4555   -3.6662 N   0  0  0  0  0  0  0  0  0  0  0  0
    9.2329   10.6533   -3.5142 C   0  0  0  0  0  0  0  0  0  0  0  0
    9.9003   10.6247   -2.2787 C   0  0  0  0  0  0  0  0  0  0  0  0
   11.2773   10.8517   -2.2711 C   0  0  0  0  0  0  0  0  0  0  0  0
   11.9410   11.0991   -3.4753 C   0  0  0  0  0  0  0  0  0  0  0  0
   11.3091   11.1294   -4.6524 N   0  0  0  0  0  0  0  0  0  0  0  0
    9.9994   10.9120   -4.6691 C   0  0  0  0  0  0  0  0  0  0  0  0
    6.0903    7.4965   -4.6223 C   0  0  0  0  0  0  0  0  0  0  0  0
    6.1028    6.2485   -5.2413 C   0  0  0  0  0  0  0  0  0  0  0  0
    6.1017    3.6240   -6.5836 N   0  0  0  0  0  0  0  0  0  0  0  0
    6.9046    3.6859   -5.9688 H   0  0  0  0  0  0  0  0  0  0  0  0
    5.9914    2.6085   -7.5163 C   0  0  0  0  0  0  0  0  0  0  0  0
    4.8024    0.0300   -5.3565 C   0  0  0  0  0  0  0  0  0  0  0  0
    4.6605    1.2373   -4.4169 C   0  0  0  0  0  0  0  0  0  0  0  0
    6.4389    2.4564   -0.0935 C   0  0  0  0  0  0  0  0  0  0  0  0
    7.0959    3.5284    0.4977 C   0  0  0  0  0  0  0  0  0  0  0  0
    8.2968    7.7147    0.7141 H   0  0  0  0  0  0  0  0  0  0  0  0
    6.6955    7.5326   -0.0591 H   0  0  0  0  0  0  0  0  0  0  0  0
    8.1830    7.1348   -0.9747 H   0  0  0  0  0  0  0  0  0  0  0  0
    6.2301    5.9654   -1.7498 H   0  0  0  0  0  0  0  0  0  0  0  0
    5.0689    4.0791   -2.7670 H   0  0  0  0  0  0  0  0  0  0  0  0
    3.8709    1.7106   -2.0238 H   0  0  0  0  0  0  0  0  0  0  0  0
    5.0051    0.5840   -1.2487 H   0  0  0  0  0  0  0  0  0  0  0  0
    7.2613    0.4922   -2.3549 H   0  0  0  0  0  0  0  0  0  0  0  0
    7.3754    1.4765   -3.8390 H   0  0  0  0  0  0  0  0  0  0  0  0
    6.4950   -1.4628   -3.7637 H   0  0  0  0  0  0  0  0  0  0  0  0
    8.0161   -0.8092   -4.3847 H   0  0  0  0  0  0  0  0  0  0  0  0
    6.2559   -1.3003   -6.1743 H   0  0  0  0  0  0  0  0  0  0  0  0
    7.9196    0.3393   -6.5809 H   0  0  0  0  0  0  0  0  0  0  0  0
    5.1682    0.6156  -10.6525 H   0  0  0  0  0  0  0  0  0  0  0  0
    4.4788    7.0627   -8.1408 H   0  0  0  0  0  0  0  0  0  0  0  0
    4.4418    9.2896   -7.0074 H   0  0  0  0  0  0  0  0  0  0  0  0
    4.9785    9.1676   -2.7872 H   0  0  0  0  0  0  0  0  0  0  0  0
    5.0169   10.9335   -3.0252 H   0  0  0  0  0  0  0  0  0  0  0  0
    7.4711   10.5634   -4.6043 H   0  0  0  0  0  0  0  0  0  0  0  0
    9.3417   10.4317   -1.3650 H   0  0  0  0  0  0  0  0  0  0  0  0
   11.8316   10.8395   -1.3295 H   0  0  0  0  0  0  0  0  0  0  0  0
   13.0218   11.2804   -3.4907 H   0  0  0  0  0  0  0  0  0  0  0  0
    9.5026   10.9389   -5.6487 H   0  0  0  0  0  0  0  0  0  0  0  0
    6.5705    7.6045   -3.6478 H   0  0  0  0  0  0  0  0  0  0  0  0
    6.5839    5.4206   -4.7164 H   0  0  0  0  0  0  0  0  0  0  0  0
    4.2914   -0.8408   -4.9143 H   0  0  0  0  0  0  0  0  0  0  0  0
    4.2819    0.2700   -6.2914 H   0  0  0  0  0  0  0  0  0  0  0  0
    3.6160    1.4125   -4.1287 H   0  0  0  0  0  0  0  0  0  0  0  0
    5.0303    2.1447   -4.9244 H   0  0  0  0  0  0  0  0  0  0  0  0
    6.4934    1.4723    0.3813 H   0  0  0  0  0  0  0  0  0  0  0  0
    7.6641    3.4063    1.4213 H   0  0  0  0  0  0  0  0  0  0  0  0
  1  2  1  0
  1 45  1  0
  1 46  1  0
  1 47  1  0
  2  3  1  0
  3  4  2  0
  3 44  1  0
  4  5  1  0
  4 48  1  0
  5  6  2  0
  5 49  1  0
  6  7  1  0
  6 43  1  0
  7  8  1  0
  7 50  1  0
  7 51  1  0
  8  9  1  0
  8 42  1  0
  9 10  1  0
  9 52  1  0
  9 53  1  0
 10 11  1  0
 10 54  1  0
 10 55  1  0
 11 12  1  0
 11 41  1  0
 11 56  1  6
 12 13  1  0
 12 57  1  0
 13 14  2  0
 13 40  1  0
 14 15  1  0
 14 16  1  0
 16 17  2  0
 16 58  1  0
 17 18  1  0
 18 19  1  0
 18 40  2  0
 19 20  2  0
 20 21  1  0
 20 38  1  0
 21 22  2  0
 21 37  1  0
 22 23  1  0
 22 59  1  0
 23 24  2  0
 23 60  1  0
 24 25  1  0
 24 36  1  0
 25 26  1  0
 26 27  1  0
 26 61  1  0
 26 62  1  0
 27 28  2  0
 27 29  1  0
 29 30  1  0
 29 63  1  0
 30 31  2  0
 30 35  1  0
 31 32  1  0
 31 64  1  0
 32 33  2  0
 32 65  1  0
 33 34  1  0
 33 66  1  0
 34 35  2  0
 35 67  1  0
 36 37  2  0
 36 68  1  0
 37 69  1  0
 38 39  1  0
 38 40  1  0
 41 42  1  0
 41 70  1  0
 41 71  1  0
 42 72  1  0
 42 73  1  0
 43 44  2  0
 43 74  1  0
 44 75  1  0
M  END

