
     RDKit          3D

 75 83  0  0  0  0  0  0  0  0999 V2000
    1.0781    0.1190   -0.4172 C   0  0  0  0  0  0  0  0  0  0  0  0
    2.0859    0.8261    0.1094 C   0  0  0  0  0  0  0  0  0  0  0  0
    3.3638    1.9166   -0.7949 Si  0  0  1  0  0  4  0  0  0  0  0  0
    2.7532    2.0369   -2.6305 C   0  0  0  0  0  0  0  0  0  0  0  0
    1.3986    2.4377   -2.8654 C   0  0  0  0  0  0  0  0  0  0  0  0
    0.5398    2.9691   -1.8426 C   0  0  0  0  0  0  0  0  0  0  0  0
   -0.7530    3.3545   -2.0983 C   0  0  0  0  0  0  0  0  0  0  0  0
   -1.3102    3.2303   -3.4024 C   0  0  0  0  0  0  0  0  0  0  0  0
   -0.5348    2.7409   -4.4202 C   0  0  0  0  0  0  0  0  0  0  0  0
    0.8257    2.3520   -4.1948 C   0  0  0  0  0  0  0  0  0  0  0  0
    1.6151    1.8987   -5.2555 C   0  0  0  0  0  0  0  0  0  0  0  0
    2.9628    1.5759   -5.0794 C   0  0  0  0  0  0  0  0  0  0  0  0
    3.7634    1.1794   -6.1995 C   0  0  0  0  0  0  0  0  0  0  0  0
    5.0996    0.9119   -6.0592 C   0  0  0  0  0  0  0  0  0  0  0  0
    5.7040    1.0370   -4.7765 C   0  0  0  0  0  0  0  0  0  0  0  0
    4.9619    1.3932   -3.6771 C   0  0  0  0  0  0  0  0  0  0  0  0
    3.5532    1.6633   -3.7550 C   0  0  0  0  0  0  0  0  0  0  0  0
    3.3074    3.6093    0.1582 C   0  0  0  0  0  0  0  0  0  0  0  0
    3.3064    3.5852    1.5874 C   0  0  0  0  0  0  0  0  0  0  0  0
    3.7037    2.4405    2.3612 C   0  0  0  0  0  0  0  0  0  0  0  0
    3.6795    2.4399    3.7345 C   0  0  0  0  0  0  0  0  0  0  0  0
    3.2464    3.5871    4.4582 C   0  0  0  0  0  0  0  0  0  0  0  0
    2.8922    4.7198    3.7736 C   0  0  0  0  0  0  0  0  0  0  0  0
    2.9360    4.7673    2.3422 C   0  0  0  0  0  0  0  0  0  0  0  0
    2.6420    5.9526    1.6619 C   0  0  0  0  0  0  0  0  0  0  0  0
    2.7727    6.0479    0.2732 C   0  0  0  0  0  0  0  0  0  0  0  0
    2.5730    7.3005   -0.3927 C   0  0  0  0  0  0  0  0  0  0  0  0
    2.7662    7.4258   -1.7437 C   0  0  0  0  0  0  0  0  0  0  0  0
    3.1780    6.2918   -2.4991 C   0  0  0  0  0  0  0  0  0  0  0  0
    3.3448    5.0676   -1.8985 C   0  0  0  0  0  0  0  0  0  0  0  0
    3.1326    4.8688   -0.4922 C   0  0  0  0  0  0  0  0  0  0  0  0
    5.0809    1.0552   -0.5177 C   0  0  0  0  0  0  0  0  0  0  0  0
    5.1595   -0.3711   -0.5534 C   0  0  0  0  0  0  0  0  0  0  0  0
    4.1692   -1.1940   -1.1870 C   0  0  0  0  0  0  0  0  0  0  0  0
    4.2620   -2.5642   -1.2041 C   0  0  0  0  0  0  0  0  0  0  0  0
    5.3522   -3.2302   -0.5748 C   0  0  0  0  0  0  0  0  0  0  0  0
    6.3457   -2.4919    0.0137 C   0  0  0  0  0  0  0  0  0  0  0  0
    6.3002   -1.0599    0.0175 C   0  0  0  0  0  0  0  0  0  0  0  0
    7.3573   -0.3124    0.5461 C   0  0  0  0  0  0  0  0  0  0  0  0
    7.3794    1.0833    0.4599 C   0  0  0  0  0  0  0  0  0  0  0  0
    8.5230    1.8224    0.9050 C   0  0  0  0  0  0  0  0  0  0  0  0
    8.5881    3.1838    0.7614 C   0  0  0  0  0  0  0  0  0  0  0  0
    7.5044    3.8755    0.1504 C   0  0  0  0  0  0  0  0  0  0  0  0
    6.3781    3.2028   -0.2571 C   0  0  0  0  0  0  0  0  0  0  0  0
    6.2393    1.7821   -0.1044 C   0  0  0  0  0  0  0  0  0  0  0  0
    0.4057   -0.4752    0.2129 H   0  0  0  0  0  0  0  0  0  0  0  0
    0.8701    0.0935   -1.4918 H   0  0  0  0  0  0  0  0  0  0  0  0
    2.1915    0.7757    1.1988 H   0  0  0  0  0  0  0  0  0  0  0  0
    0.9192    3.0881   -0.8305 H   0  0  0  0  0  0  0  0  0  0  0  0
   -1.3615    3.7646   -1.2883 H   0  0  0  0  0  0  0  0  0  0  0  0
   -2.3440    3.5332   -3.5859 H   0  0  0  0  0  0  0  0  0  0  0  0
   -0.9356    2.6489   -5.4335 H   0  0  0  0  0  0  0  0  0  0  0  0
    1.1739    1.8205   -6.2535 H   0  0  0  0  0  0  0  0  0  0  0  0
    3.2800    1.1092   -7.1779 H   0  0  0  0  0  0  0  0  0  0  0  0
    5.7024    0.6173   -6.9218 H   0  0  0  0  0  0  0  0  0  0  0  0
    6.7749    0.8496   -4.6630 H   0  0  0  0  0  0  0  0  0  0  0  0
    5.4636    1.4839   -2.7180 H   0  0  0  0  0  0  0  0  0  0  0  0
    4.0845    1.5568    1.8520 H   0  0  0  0  0  0  0  0  0  0  0  0
    4.0104    1.5516    4.2787 H   0  0  0  0  0  0  0  0  0  0  0  0
    3.2201    3.5656    5.5505 H   0  0  0  0  0  0  0  0  0  0  0  0
    2.5861    5.6224    4.3097 H   0  0  0  0  0  0  0  0  0  0  0  0
    2.3423    6.8365    2.2326 H   0  0  0  0  0  0  0  0  0  0  0  0
    2.2807    8.1641    0.2112 H   0  0  0  0  0  0  0  0  0  0  0  0
    2.6226    8.3892   -2.2392 H   0  0  0  0  0  0  0  0  0  0  0  0
    3.3666    6.3957   -3.5706 H   0  0  0  0  0  0  0  0  0  0  0  0
    3.6676    4.2280   -2.5100 H   0  0  0  0  0  0  0  0  0  0  0  0
    3.3367   -0.7218   -1.7031 H   0  0  0  0  0  0  0  0  0  0  0  0
    3.4941   -3.1507   -1.7149 H   0  0  0  0  0  0  0  0  0  0  0  0
    5.4023   -4.3219   -0.5836 H   0  0  0  0  0  0  0  0  0  0  0  0
    7.2077   -2.9826    0.4740 H   0  0  0  0  0  0  0  0  0  0  0  0
    8.2068   -0.8332    0.9981 H   0  0  0  0  0  0  0  0  0  0  0  0
    9.3558    1.2675    1.3459 H   0  0  0  0  0  0  0  0  0  0  0  0
    9.4702    3.7364    1.0942 H   0  0  0  0  0  0  0  0  0  0  0  0
    7.5701    4.9558   -0.0022 H   0  0  0  0  0  0  0  0  0  0  0  0
    5.5838    3.7678   -0.7373 H   0  0  0  0  0  0  0  0  0  0  0  0
  1  2  2  0
  1 46  1  0
  1 47  1  0
  3  2  1  1
  2 48  1  0
  3  4  1  0
  3 18  1  0
  3 32  1  0
  4  5  1  0
  4 17  2  0
  5  6  2  0
  5 10  1  0
  6  7  1  0
  6 49  1  0
  7  8  2  0
  7 50  1  0
  8  9  1  0
  8 51  1  0
  9 10  2  0
  9 52  1  0
 10 11  1  0
 11 12  2  0
 11 53  1  0
 12 13  1  0
 12 17  1  0
 13 14  2  0
 13 54  1  0
 14 15  1  0
 14 55  1  0
 15 16  2  0
 15 56  1  0
 16 17  1  0
 16 57  1  0
 18 19  1  0
 18 31  2  0
 19 20  2  0
 19 24  1  0
 20 21  1  0
 20 58  1  0
 21 22  2  0
 21 59  1  0
 22 23  1  0
 22 60  1  0
 23 24  2  0
 23 61  1  0
 24 25  1  0
 25 26  2  0
 25 62  1  0
 26 27  1  0
 26 31  1  0
 27 28  2  0
 27 63  1  0
 28 29  1  0
 28 64  1  0
 29 30  2  0
 29 65  1  0
 30 31  1  0
 30 66  1  0
 32 33  1  0
 32 45  2  0
 33 34  2  0
 33 38  1  0
 34 35  1  0
 34 67  1  0
 35 36  2  0
 35 68  1  0
 36 37  1  0
 36 69  1  0
 37 38  2  0
 37 70  1  0
 38 39  1  0
 39 40  2  0
 39 71  1  0
 40 41  1  0
 40 45  1  0
 41 42  2  0
 41 72  1  0
 42 43  1  0
 42 73  1  0
 43 44  2  0
 43 74  1  0
 44 45  1  0
 44 75  1  0
M  END

