
     RDKit          3D

 34 36  0  0  0  0  0  0  0  0999 V2000
    2.6615   -0.9912    0.8336 O   0  0  0  0  0  0  0  0  0  0  0  0
    2.2529    0.1165    0.5241 C   0  0  0  0  0  0  0  0  0  0  0  0
    0.7421    0.3819    0.4273 C   0  0  0  0  0  0  0  0  0  0  0  0
    0.1849   -0.4880   -0.6535 C   0  0  0  0  0  0  0  0  0  0  0  0
    0.9326   -0.9076   -1.8316 C   0  0  0  0  0  0  0  0  0  0  0  0
    0.0543   -1.6694   -2.5295 N   0  0  0  0  0  0  0  0  0  0  0  0
    0.0284   -2.4084   -3.7161 C   0  0  0  0  0  0  0  0  0  0  0  0
   -1.1756   -2.9888   -3.9005 C   0  0  0  0  0  0  0  0  0  0  0  0
   -2.3193   -2.6319   -2.5901 S   0  0  0  0  0  0  0  0  0  0  0  0
   -1.1274   -1.6905   -1.8075 C   0  0  0  0  0  0  0  0  0  0  0  0
   -1.0533   -0.9801   -0.6732 N   0  0  0  0  0  0  0  0  0  0  0  0
    3.0477    1.1544    0.1785 N   0  0  0  0  0  0  0  0  0  0  0  0
    4.3955    0.9876   -0.1734 N   0  0  0  0  0  0  0  0  0  0  0  0
    4.4934    0.8427   -1.9853 S   0  0  1  0  0  0  0  0  0  0  0  0
    3.7939   -0.4405   -2.3110 O   0  0  0  0  0  0  0  0  0  0  0  0
    3.8050    2.0973   -2.3509 O   0  0  0  0  0  0  0  0  0  0  0  0
    6.1074    0.7809   -2.4399 C   0  0  0  0  0  0  0  0  0  0  0  0
    6.8803    1.9988   -2.4964 C   0  0  0  0  0  0  0  0  0  0  0  0
    8.2365    1.9318   -2.6971 C   0  0  0  0  0  0  0  0  0  0  0  0
    8.9109    0.6850   -2.8325 C   0  0  0  0  0  0  0  0  0  0  0  0
   10.6408    0.6663   -3.0588 Cl  0  0  0  0  0  0  0  0  0  0  0  0
    8.1469   -0.5126   -2.7653 C   0  0  0  0  0  0  0  0  0  0  0  0
    8.9411   -2.0659   -2.9574 Cl  0  0  0  0  0  0  0  0  0  0  0  0
    6.7848   -0.4907   -2.5675 C   0  0  0  0  0  0  0  0  0  0  0  0
    0.5010    1.4340    0.2005 H   0  0  0  0  0  0  0  0  0  0  0  0
    0.2474    0.1238    1.3742 H   0  0  0  0  0  0  0  0  0  0  0  0
    1.9838   -0.7191   -2.1216 H   0  0  0  0  0  0  0  0  0  0  0  0
    0.9107   -2.4590   -4.3513 H   0  0  0  0  0  0  0  0  0  0  0  0
   -1.4867   -3.6201   -4.7299 H   0  0  0  0  0  0  0  0  0  0  0  0
    2.6698    2.0353   -0.1532 H   0  0  0  0  0  0  0  0  0  0  0  0
    4.7114    0.1072    0.2453 H   0  0  0  0  0  0  0  0  0  0  0  0
    6.3761    2.9604   -2.4031 H   0  0  0  0  0  0  0  0  0  0  0  0
    8.8267    2.8474   -2.7643 H   0  0  0  0  0  0  0  0  0  0  0  0
    6.2207   -1.4201   -2.5401 H   0  0  0  0  0  0  0  0  0  0  0  0
  1  2  2  0
  2  3  1  0
  2 12  1  0
  3  4  1  0
  3 25  1  0
  3 26  1  0
  4  5  2  0
  4 11  1  0
  5  6  1  0
  5 27  1  0
  6  7  1  0
  6 10  1  0
  7  8  2  0
  7 28  1  0
  8  9  1  0
  8 29  1  0
  9 10  1  0
 10 11  2  0
 12 13  1  0
 12 30  1  0
 14 13  1  1
 13 31  1  0
 14 15  2  0
 14 16  2  0
 14 17  1  0
 17 18  2  0
 17 24  1  0
 18 19  1  0
 18 32  1  0
 19 20  2  0
 19 33  1  0
 20 21  1  0
 20 22  1  0
 22 23  1  0
 22 24  2  0
 24 34  1  0
M  END

