
     RDKit          3D

 41 43  0  0  0  0  0  0  0  0999 V2000
    1.4309    0.3493    0.7060 C   0  0  0  0  0  0  0  0  0  0  0  0
    2.4362   -0.2032   -0.1779 N   0  0  0  0  0  0  0  0  0  0  0  0
    3.0833    0.5451   -1.1184 C   0  0  0  0  0  0  0  0  0  0  0  0
    2.7989    1.8572   -1.1318 N   0  0  0  0  0  0  0  0  0  0  0  0
    3.4103    2.6161   -2.0396 C   0  0  0  0  0  0  0  0  0  0  0  0
    3.0566    4.0919   -2.0600 C   0  0  0  0  0  0  0  0  0  0  0  0
    1.9361    4.3999   -3.0377 C   0  0  0  0  0  0  0  0  0  0  0  0
    0.6412    4.6922   -2.5873 C   0  0  0  0  0  0  0  0  0  0  0  0
   -0.3978    4.9569   -3.4843 C   0  0  0  0  0  0  0  0  0  0  0  0
   -0.1396    4.9247   -4.8559 C   0  0  0  0  0  0  0  0  0  0  0  0
   -1.4323    5.2578   -5.9915 Cl  0  0  0  0  0  0  0  0  0  0  0  0
    1.1414    4.6296   -5.3327 C   0  0  0  0  0  0  0  0  0  0  0  0
    2.1669    4.3685   -4.4230 C   0  0  0  0  0  0  0  0  0  0  0  0
    4.2729    2.1861   -2.9591 N   0  0  0  0  0  0  0  0  0  0  0  0
    4.5732    0.8723   -2.9555 C   0  0  0  0  0  0  0  0  0  0  0  0
    4.0235   -0.0208   -2.0306 C   0  0  0  0  0  0  0  0  0  0  0  0
    4.3991   -1.4874   -2.0238 C   0  0  0  0  0  0  0  0  0  0  0  0
    3.9731   -2.2796   -3.2774 C   0  0  0  0  0  0  0  0  0  0  0  0
    4.8665   -2.0529   -4.5033 C   0  0  0  0  0  0  0  0  0  0  0  0
    4.9537   -0.6123   -5.0221 C   0  0  0  0  0  0  0  0  0  0  0  0
    5.5363    0.4125   -4.0287 C   0  0  0  0  0  0  0  0  0  0  0  0
    1.1296   -0.4253    1.4258 H   0  0  0  0  0  0  0  0  0  0  0  0
    0.5353    0.6985    0.1619 H   0  0  0  0  0  0  0  0  0  0  0  0
    1.8303    1.2124    1.2587 H   0  0  0  0  0  0  0  0  0  0  0  0
    2.5063   -1.2073   -0.2445 H   0  0  0  0  0  0  0  0  0  0  0  0
    3.9598    4.6523   -2.3448 H   0  0  0  0  0  0  0  0  0  0  0  0
    2.7576    4.3916   -1.0464 H   0  0  0  0  0  0  0  0  0  0  0  0
    0.4369    4.7148   -1.5135 H   0  0  0  0  0  0  0  0  0  0  0  0
   -1.4023    5.1875   -3.1252 H   0  0  0  0  0  0  0  0  0  0  0  0
    1.3279    4.6069   -6.4078 H   0  0  0  0  0  0  0  0  0  0  0  0
    3.1662    4.1219   -4.7900 H   0  0  0  0  0  0  0  0  0  0  0  0
    3.9854   -1.9809   -1.1309 H   0  0  0  0  0  0  0  0  0  0  0  0
    5.4945   -1.5814   -1.9046 H   0  0  0  0  0  0  0  0  0  0  0  0
    2.9245   -2.0337   -3.5221 H   0  0  0  0  0  0  0  0  0  0  0  0
    3.9907   -3.3564   -3.0353 H   0  0  0  0  0  0  0  0  0  0  0  0
    4.5151   -2.7045   -5.3220 H   0  0  0  0  0  0  0  0  0  0  0  0
    5.8880   -2.4011   -4.2596 H   0  0  0  0  0  0  0  0  0  0  0  0
    3.9581   -0.2671   -5.3531 H   0  0  0  0  0  0  0  0  0  0  0  0
    5.5896   -0.6135   -5.9236 H   0  0  0  0  0  0  0  0  0  0  0  0
    5.8509    1.3167   -4.5678 H   0  0  0  0  0  0  0  0  0  0  0  0
    6.4433   -0.0133   -3.5597 H   0  0  0  0  0  0  0  0  0  0  0  0
  1  2  1  0
  1 22  1  0
  1 23  1  0
  1 24  1  0
  2  3  1  0
  2 25  1  0
  3  4  2  0
  3 16  1  0
  4  5  1  0
  5  6  1  0
  5 14  2  0
  6  7  1  0
  6 26  1  0
  6 27  1  0
  7  8  2  0
  7 13  1  0
  8  9  1  0
  8 28  1  0
  9 10  2  0
  9 29  1  0
 10 11  1  0
 10 12  1  0
 12 13  2  0
 12 30  1  0
 13 31  1  0
 14 15  1  0
 15 16  2  0
 15 21  1  0
 16 17  1  0
 17 18  1  0
 17 32  1  0
 17 33  1  0
 18 19  1  0
 18 34  1  0
 18 35  1  0
 19 20  1  0
 19 36  1  0
 19 37  1  0
 20 21  1  0
 20 38  1  0
 20 39  1  0
 21 40  1  0
 21 41  1  0
M  END

