
     RDKit          3D

 27 29  0  0  0  0  0  0  0  0999 V2000
    2.3992   -1.7287   -2.6621 N   0  0  0  0  0  0  0  0  0  0  0  0
    2.9675   -0.7488   -2.4191 C   0  0  0  0  0  0  0  0  0  0  0  0
    3.7047    0.4660   -2.0918 C   0  0  1  0  0  0  0  0  0  0  0  0
    3.9995    1.3169   -3.2359 C   0  0  0  0  0  0  0  0  0  0  0  0
    4.2211    1.9696   -4.1668 N   0  0  0  0  0  0  0  0  0  0  0  0
    3.3307    1.1111   -0.8824 O   0  0  0  0  0  0  0  0  0  0  0  0
    4.5929    0.4727   -0.8626 C   0  0  2  0  0  0  0  0  0  0  0  0
    5.8269    1.2938   -0.7396 C   0  0  0  0  0  0  0  0  0  0  0  0
    5.7886    2.6972   -0.8750 C   0  0  0  0  0  0  0  0  0  0  0  0
    6.9876    3.4204   -0.7621 C   0  0  0  0  0  0  0  0  0  0  0  0
    8.1939    2.7825   -0.5208 C   0  0  0  0  0  0  0  0  0  0  0  0
    8.2472    1.3615   -0.3726 C   0  0  0  0  0  0  0  0  0  0  0  0
    9.4685    0.6929   -0.1191 C   0  0  0  0  0  0  0  0  0  0  0  0
   10.6925    1.3048    0.0047 N   0  0  0  0  0  0  0  0  0  0  0  0
   11.8354    0.7359    0.2345 C   0  0  0  0  0  0  0  0  0  0  0  0
   11.9600   -0.6662    0.3944 C   0  0  0  0  0  0  0  0  0  0  0  0
   10.7080   -1.3164    0.2697 C   0  0  0  0  0  0  0  0  0  0  0  0
    9.6087   -0.6662    0.0388 N   0  0  0  0  0  0  0  0  0  0  0  0
    7.0258    0.6357   -0.4834 C   0  0  0  0  0  0  0  0  0  0  0  0
    4.6032   -0.4859   -0.3256 H   0  0  0  0  0  0  0  0  0  0  0  0
    4.8401    3.2057   -1.0480 H   0  0  0  0  0  0  0  0  0  0  0  0
    6.9684    4.5085   -0.8644 H   0  0  0  0  0  0  0  0  0  0  0  0
    9.1148    3.3622   -0.4371 H   0  0  0  0  0  0  0  0  0  0  0  0
   12.7107    1.3972    0.3000 H   0  0  0  0  0  0  0  0  0  0  0  0
   12.8995   -1.1785    0.5869 H   0  0  0  0  0  0  0  0  0  0  0  0
   10.6230   -2.4079    0.3654 H   0  0  0  0  0  0  0  0  0  0  0  0
    7.0398   -0.4503   -0.3667 H   0  0  0  0  0  0  0  0  0  0  0  0
  1  2  3  0
  3  2  1  6
  3  4  1  0
  3  6  1  0
  3  7  1  0
  4  5  3  0
  6  7  1  0
  7  8  1  0
  7 20  1  1
  8  9  2  0
  8 19  1  0
  9 10  1  0
  9 21  1  0
 10 11  2  0
 10 22  1  0
 11 12  1  0
 11 23  1  0
 12 13  1  0
 12 19  2  0
 13 14  2  0
 13 18  1  0
 14 15  1  0
 15 16  2  0
 15 24  1  0
 16 17  1  0
 16 25  1  0
 17 18  2  0
 17 26  1  0
 19 27  1  0
M  END

