
     RDKit          3D

 35 35  0  0  0  0  0  0  0  0999 V2000
    1.1044   -0.3856   -0.5096 C   0  0  0  0  0  0  0  0  0  0  0  0
    2.5582   -0.4712   -0.5376 N   0  0  0  0  0  0  0  0  0  0  0  0
    3.2433    0.3763   -1.4935 C   0  0  0  0  0  0  0  0  0  0  0  0
    3.3155   -0.2451   -2.9118 C   0  0  0  0  0  0  0  0  0  0  0  0
    3.9517    0.6497   -3.8791 C   0  0  0  0  0  0  0  0  0  0  0  0
    4.4616    1.3820   -4.6181 N   0  0  0  0  0  0  0  0  0  0  0  0
    3.1926   -1.3362    0.3365 C   0  0  0  0  0  0  0  0  0  0  0  0
    2.5599   -2.0222    1.1234 O   0  0  0  0  0  0  0  0  0  0  0  0
    4.7240   -1.3836    0.2982 C   0  0  0  0  0  0  0  0  0  0  0  0
    5.3079   -2.4869    1.1842 C   0  0  0  0  0  0  0  0  0  0  0  0
    5.0877   -3.9088    0.6351 C   0  0  0  0  0  0  0  0  0  0  0  0
    5.6194   -4.9860    1.5548 C   0  0  0  0  0  0  0  0  0  0  0  0
    4.8597   -5.4191    2.6549 C   0  0  0  0  0  0  0  0  0  0  0  0
    5.3536   -6.3879    3.5319 C   0  0  0  0  0  0  0  0  0  0  0  0
    6.6203   -6.9442    3.3248 C   0  0  0  0  0  0  0  0  0  0  0  0
    7.3865   -6.5238    2.2343 C   0  0  0  0  0  0  0  0  0  0  0  0
    6.8884   -5.5529    1.3596 C   0  0  0  0  0  0  0  0  0  0  0  0
    0.7773    0.6361   -0.2492 H   0  0  0  0  0  0  0  0  0  0  0  0
    0.7327   -1.0867    0.2461 H   0  0  0  0  0  0  0  0  0  0  0  0
    0.6650   -0.6490   -1.4872 H   0  0  0  0  0  0  0  0  0  0  0  0
    4.2585    0.6090   -1.1488 H   0  0  0  0  0  0  0  0  0  0  0  0
    2.7106    1.3396   -1.5547 H   0  0  0  0  0  0  0  0  0  0  0  0
    2.3030   -0.4886   -3.2727 H   0  0  0  0  0  0  0  0  0  0  0  0
    3.8780   -1.1926   -2.8814 H   0  0  0  0  0  0  0  0  0  0  0  0
    5.1015   -0.4009    0.6335 H   0  0  0  0  0  0  0  0  0  0  0  0
    5.0791   -1.5017   -0.7400 H   0  0  0  0  0  0  0  0  0  0  0  0
    4.8579   -2.4141    2.1859 H   0  0  0  0  0  0  0  0  0  0  0  0
    6.3894   -2.3093    1.3051 H   0  0  0  0  0  0  0  0  0  0  0  0
    5.5735   -3.9956   -0.3527 H   0  0  0  0  0  0  0  0  0  0  0  0
    4.0080   -4.0600    0.4818 H   0  0  0  0  0  0  0  0  0  0  0  0
    3.8667   -4.9900    2.8197 H   0  0  0  0  0  0  0  0  0  0  0  0
    4.7448   -6.7139    4.3796 H   0  0  0  0  0  0  0  0  0  0  0  0
    7.0061   -7.7049    4.0084 H   0  0  0  0  0  0  0  0  0  0  0  0
    8.3761   -6.9553    2.0608 H   0  0  0  0  0  0  0  0  0  0  0  0
    7.4940   -5.2330    0.5060 H   0  0  0  0  0  0  0  0  0  0  0  0
  1  2  1  0
  1 18  1  0
  1 19  1  0
  1 20  1  0
  2  3  1  0
  2  7  1  0
  3  4  1  0
  3 21  1  0
  3 22  1  0
  4  5  1  0
  4 23  1  0
  4 24  1  0
  5  6  3  0
  7  8  2  0
  7  9  1  0
  9 10  1  0
  9 25  1  0
  9 26  1  0
 10 11  1  0
 10 27  1  0
 10 28  1  0
 11 12  1  0
 11 29  1  0
 11 30  1  0
 12 13  2  0
 12 17  1  0
 13 14  1  0
 13 31  1  0
 14 15  2  0
 14 32  1  0
 15 16  1  0
 15 33  1  0
 16 17  2  0
 16 34  1  0
 17 35  1  0
M  END

