
     RDKit          3D

 33 33  0  0  0  0  0  0  0  0999 V2000
    0.6879   -0.1264    1.3121 C   0  0  0  0  0  0  0  0  0  0  0  0
    2.1683    0.1877    1.2077 C   0  0  0  0  0  0  0  0  0  0  0  0
    2.8770   -1.0379    1.1588 O   0  0  0  0  0  0  0  0  0  0  0  0
    4.2337   -1.0255    1.0649 C   0  0  0  0  0  0  0  0  0  0  0  0
    5.0230    0.1281    1.0118 C   0  0  0  0  0  0  0  0  0  0  0  0
    6.4216    0.0305    0.9170 C   0  0  0  0  0  0  0  0  0  0  0  0
    7.0411   -1.2212    0.8736 C   0  0  0  0  0  0  0  0  0  0  0  0
    8.3901   -1.4220    0.7890 O   0  0  0  0  0  0  0  0  0  0  0  0
    9.2487   -0.3135    0.6846 C   0  0  0  0  0  0  0  0  0  0  0  0
   10.6766   -0.8215    0.5691 C   0  0  0  0  0  0  0  0  0  0  0  0
   11.0374   -1.7776   -0.9581 S   0  0  0  0  0  0  0  0  0  0  0  0
   11.2658   -0.4232   -2.1636 C   0  0  0  0  0  0  0  0  0  0  0  0
   12.5561    0.3996   -2.0165 C   0  0  0  0  0  0  0  0  0  0  0  0
   12.6699    1.4862   -2.5145 O   0  0  0  0  0  0  0  0  0  0  0  0
   13.5453   -0.1861   -1.3292 O   0  0  0  0  0  0  0  0  0  0  0  0
    6.2453   -2.3805    0.9250 C   0  0  0  0  0  0  0  0  0  0  0  0
    4.8652   -2.2841    1.0198 C   0  0  0  0  0  0  0  0  0  0  0  0
    0.1019    0.8048    1.3537 H   0  0  0  0  0  0  0  0  0  0  0  0
    0.4784   -0.7115    2.2206 H   0  0  0  0  0  0  0  0  0  0  0  0
    0.3527   -0.7113    0.4420 H   0  0  0  0  0  0  0  0  0  0  0  0
    2.5032    0.7860    2.0772 H   0  0  0  0  0  0  0  0  0  0  0  0
    2.3784    0.7845    0.2991 H   0  0  0  0  0  0  0  0  0  0  0  0
    4.5720    1.1200    1.0437 H   0  0  0  0  0  0  0  0  0  0  0  0
    7.0048    0.9512    0.8816 H   0  0  0  0  0  0  0  0  0  0  0  0
    9.1736    0.3295    1.5847 H   0  0  0  0  0  0  0  0  0  0  0  0
    8.9795    0.3145   -0.1868 H   0  0  0  0  0  0  0  0  0  0  0  0
   10.8813   -1.5194    1.3951 H   0  0  0  0  0  0  0  0  0  0  0  0
   11.3899    0.0130    0.6518 H   0  0  0  0  0  0  0  0  0  0  0  0
   10.4149    0.2728   -2.1745 H   0  0  0  0  0  0  0  0  0  0  0  0
   11.2867   -0.9090   -3.1531 H   0  0  0  0  0  0  0  0  0  0  0  0
   13.2181   -1.0521   -1.0054 H   0  0  0  0  0  0  0  0  0  0  0  0
    6.7407   -3.3529    0.8878 H   0  0  0  0  0  0  0  0  0  0  0  0
    4.2404   -3.1787    1.0605 H   0  0  0  0  0  0  0  0  0  0  0  0
  1  2  1  0
  1 18  1  0
  1 19  1  0
  1 20  1  0
  2  3  1  0
  2 21  1  0
  2 22  1  0
  3  4  1  0
  4  5  2  0
  4 17  1  0
  5  6  1  0
  5 23  1  0
  6  7  2  0
  6 24  1  0
  7  8  1  0
  7 16  1  0
  8  9  1  0
  9 10  1  0
  9 25  1  0
  9 26  1  0
 10 11  1  0
 10 27  1  0
 10 28  1  0
 11 12  1  0
 12 13  1  0
 12 29  1  0
 12 30  1  0
 13 14  2  0
 13 15  1  0
 15 31  1  0
 16 17  2  0
 16 32  1  0
 17 33  1  0
M  END

