
     RDKit          3D

 65 70  0  0  0  0  0  0  0  0999 V2000
    3.0278   -1.0276    0.3783 O   0  0  0  0  0  0  0  0  0  0  0  0
    2.4844   -0.6579   -0.6467 C   0  0  0  0  0  0  0  0  0  0  0  0
    2.8328    0.3731   -1.4214 N   0  0  0  0  0  0  0  0  0  0  0  0
    2.3423    0.7177   -2.7456 C   0  0  1  0  0  0  0  0  0  0  0  0
    2.0353   -0.2018   -3.2679 H   0  0  0  0  0  0  0  0  0  0  0  0
    1.1238    1.6840   -2.7182 C   0  0  0  0  0  0  0  0  0  0  0  0
    1.3396    2.9794   -1.9635 C   0  0  0  0  0  0  0  0  0  0  0  0
    1.9599    4.0792   -2.5819 C   0  0  0  0  0  0  0  0  0  0  0  0
    2.1651    5.2617   -1.8648 C   0  0  0  0  0  0  0  0  0  0  0  0
    1.7586    5.3693   -0.5315 C   0  0  0  0  0  0  0  0  0  0  0  0
    1.1414    4.2807    0.0911 C   0  0  0  0  0  0  0  0  0  0  0  0
    0.9365    3.0974   -0.6235 C   0  0  0  0  0  0  0  0  0  0  0  0
    3.5568    1.3389   -3.4846 C   0  0  0  0  0  0  0  0  0  0  0  0
    4.5175    1.7388   -2.8561 O   0  0  0  0  0  0  0  0  0  0  0  0
    3.3889    1.4106   -4.8267 N   0  0  0  0  0  0  0  0  0  0  0  0
    4.2817    1.9980   -5.6664 N   0  0  0  0  0  0  0  0  0  0  0  0
    4.2032    3.3795   -6.0236 C   0  0  0  0  0  0  0  0  0  0  0  0
    3.3778    4.1634   -5.5343 O   0  0  0  0  0  0  0  0  0  0  0  0
    5.2417    3.5249   -7.0107 C   0  0  0  0  0  0  0  0  0  0  0  0
    5.6662    4.6601   -7.7301 C   0  0  0  0  0  0  0  0  0  0  0  0
    6.6944    4.5306   -8.6494 C   0  0  0  0  0  0  0  0  0  0  0  0
    7.3234    3.2663   -8.8730 C   0  0  0  0  0  0  0  0  0  0  0  0
    6.9195    2.1389   -8.1752 C   0  0  0  0  0  0  0  0  0  0  0  0
    5.8766    2.2498   -7.2356 C   0  0  0  0  0  0  0  0  0  0  0  0
    5.2622    1.2470   -6.3985 C   0  0  0  0  0  0  0  0  0  0  0  0
    5.4160    0.0317   -6.2633 O   0  0  0  0  0  0  0  0  0  0  0  0
    1.3537   -1.3158   -1.1290 O   0  0  0  0  0  0  0  0  0  0  0  0
    1.0848   -2.5517   -0.5064 C   0  0  0  0  0  0  0  0  0  0  0  0
    0.4236   -2.3757    0.8857 C   0  0  2  0  0  0  0  0  0  0  0  0
    0.3304   -3.6484    1.6907 C   0  0  0  0  0  0  0  0  0  0  0  0
    1.3327   -4.5217    2.0771 C   0  0  0  0  0  0  0  0  0  0  0  0
    0.9812   -5.6457    2.8449 C   0  0  0  0  0  0  0  0  0  0  0  0
   -0.3598   -5.9030    3.2309 C   0  0  0  0  0  0  0  0  0  0  0  0
   -1.3714   -5.0385    2.8607 C   0  0  0  0  0  0  0  0  0  0  0  0
   -1.0309   -3.8988    2.0841 C   0  0  0  0  0  0  0  0  0  0  0  0
   -1.8496   -2.8453    1.5803 C   0  0  0  0  0  0  0  0  0  0  0  0
   -3.2488   -2.6319    1.7026 C   0  0  0  0  0  0  0  0  0  0  0  0
   -3.7933   -1.5140    1.1028 C   0  0  0  0  0  0  0  0  0  0  0  0
   -2.9659   -0.6110    0.3850 C   0  0  0  0  0  0  0  0  0  0  0  0
   -1.5798   -0.8070    0.2581 C   0  0  0  0  0  0  0  0  0  0  0  0
   -1.0148   -1.9192    0.8587 C   0  0  0  0  0  0  0  0  0  0  0  0
    3.6930    0.8714   -1.1752 H   0  0  0  0  0  0  0  0  0  0  0  0
    0.2773    1.1318   -2.2785 H   0  0  0  0  0  0  0  0  0  0  0  0
    0.8487    1.9026   -3.7617 H   0  0  0  0  0  0  0  0  0  0  0  0
    2.3003    4.0234   -3.6221 H   0  0  0  0  0  0  0  0  0  0  0  0
    2.6537    6.1031   -2.3621 H   0  0  0  0  0  0  0  0  0  0  0  0
    1.9229    6.2978    0.0219 H   0  0  0  0  0  0  0  0  0  0  0  0
    0.8197    4.3530    1.1339 H   0  0  0  0  0  0  0  0  0  0  0  0
    0.4524    2.2489   -0.1295 H   0  0  0  0  0  0  0  0  0  0  0  0
    2.5804    0.9659   -5.2516 H   0  0  0  0  0  0  0  0  0  0  0  0
    5.1810    5.6236   -7.5550 H   0  0  0  0  0  0  0  0  0  0  0  0
    7.0340    5.4030   -9.2136 H   0  0  0  0  0  0  0  0  0  0  0  0
    8.1326    3.1943   -9.6042 H   0  0  0  0  0  0  0  0  0  0  0  0
    7.3954    1.1691   -8.3416 H   0  0  0  0  0  0  0  0  0  0  0  0
    2.0157   -3.1220   -0.3740 H   0  0  0  0  0  0  0  0  0  0  0  0
    0.4181   -3.1041   -1.1848 H   0  0  0  0  0  0  0  0  0  0  0  0
    1.0656   -1.6526    1.4191 H   0  0  0  0  0  0  0  0  0  0  0  0
    2.3739   -4.3421    1.8051 H   0  0  0  0  0  0  0  0  0  0  0  0
    1.7622   -6.3413    3.1583 H   0  0  0  0  0  0  0  0  0  0  0  0
   -0.5826   -6.7888    3.8275 H   0  0  0  0  0  0  0  0  0  0  0  0
   -2.4050   -5.2228    3.1577 H   0  0  0  0  0  0  0  0  0  0  0  0
   -3.8744   -3.3347    2.2554 H   0  0  0  0  0  0  0  0  0  0  0  0
   -4.8636   -1.3154    1.1745 H   0  0  0  0  0  0  0  0  0  0  0  0
   -3.4224    0.2642   -0.0812 H   0  0  0  0  0  0  0  0  0  0  0  0
   -0.9670   -0.1017   -0.3012 H   0  0  0  0  0  0  0  0  0  0  0  0
  1  2  2  0
  2  3  1  0
  2 27  1  0
  3  4  1  0
  3 42  1  0
  4  5  1  6
  4  6  1  0
  4 13  1  0
  6  7  1  0
  6 43  1  0
  6 44  1  0
  7  8  2  0
  7 12  1  0
  8  9  1  0
  8 45  1  0
  9 10  2  0
  9 46  1  0
 10 11  1  0
 10 47  1  0
 11 12  2  0
 11 48  1  0
 12 49  1  0
 13 14  2  0
 13 15  1  0
 15 16  1  0
 15 50  1  0
 16 17  1  0
 16 25  1  0
 17 18  2  0
 17 19  1  0
 19 20  1  0
 19 24  2  0
 20 21  2  0
 20 51  1  0
 21 22  1  0
 21 52  1  0
 22 23  2  0
 22 53  1  0
 23 24  1  0
 23 54  1  0
 24 25  1  0
 25 26  2  0
 27 28  1  0
 28 29  1  0
 28 55  1  0
 28 56  1  0
 29 30  1  0
 29 41  1  0
 29 57  1  1
 30 31  2  0
 30 35  1  0
 31 32  1  0
 31 58  1  0
 32 33  2  0
 32 59  1  0
 33 34  1  0
 33 60  1  0
 34 35  2  0
 34 61  1  0
 35 36  1  0
 36 37  2  0
 36 41  1  0
 37 38  1  0
 37 62  1  0
 38 39  2  0
 38 63  1  0
 39 40  1  0
 39 64  1  0
 40 41  2  0
 40 65  1  0
M  END

