
     RDKit          3D

 60 63  0  0  0  0  0  0  0  0999 V2000
    3.5123   -1.8077    1.8515 O   0  0  0  0  0  0  0  0  0  0  0  0
    4.4476   -1.1811    2.3672 C   0  0  0  0  0  0  0  0  0  0  0  0
    4.3128    0.2510    2.5898 N   0  0  0  0  0  0  0  0  0  0  0  0
    3.1784    1.0165    2.5117 C   0  0  0  0  0  0  0  0  0  0  0  0
    1.8914    0.4448    2.3151 C   0  0  0  0  0  0  0  0  0  0  0  0
    0.7615    1.2484    2.2296 C   0  0  0  0  0  0  0  0  0  0  0  0
    0.9271    2.6256    2.3502 C   0  0  0  0  0  0  0  0  0  0  0  0
   -0.1686    3.4865    2.1869 O   0  0  0  0  0  0  0  0  0  0  0  0
   -0.6451    4.1088    3.2858 C   0  0  1  0  0  0  0  0  0  0  0  0
    0.1464    5.1908    3.6346 F   0  0  0  0  0  0  0  0  0  0  0  0
   -1.8465    4.6196    2.9789 F   0  0  0  0  0  0  0  0  0  0  0  0
    2.1046    3.1833    2.5404 N   0  0  0  0  0  0  0  0  0  0  0  0
    3.2134    2.4388    2.6341 C   0  0  0  0  0  0  0  0  0  0  0  0
    4.5037    3.2366    2.8184 C   0  0  1  0  0  0  0  0  0  0  0  0
    4.9360    3.9747    1.5329 C   0  0  0  0  0  0  0  0  0  0  0  0
    4.0084    5.1370    1.1800 C   0  0  0  0  0  0  0  0  0  0  0  0
    3.7215    6.0277    2.2938 N   0  0  0  0  0  0  0  0  0  0  0  0
    3.1139    7.3284    1.9954 C   0  0  0  0  0  0  0  0  0  0  0  0
    1.7442    7.1970    1.3743 C   0  0  0  0  0  0  0  0  0  0  0  0
    1.4063    7.7916    0.2182 C   0  0  0  0  0  0  0  0  0  0  0  0
    0.0866    7.7858   -0.4310 C   0  0  0  0  0  0  0  0  0  0  0  0
   -1.0071    7.0388    0.0520 C   0  0  0  0  0  0  0  0  0  0  0  0
   -2.2369    7.0688   -0.5985 C   0  0  0  0  0  0  0  0  0  0  0  0
   -2.3937    7.8520   -1.7496 C   0  0  0  0  0  0  0  0  0  0  0  0
   -3.9339    7.8906   -2.5619 Cl  0  0  0  0  0  0  0  0  0  0  0  0
   -1.3253    8.5990   -2.2528 C   0  0  0  0  0  0  0  0  0  0  0  0
   -0.0979    8.5585   -1.5923 C   0  0  0  0  0  0  0  0  0  0  0  0
    3.5818    5.5044    3.6387 C   0  0  0  0  0  0  0  0  0  0  0  0
    4.4403    4.2796    3.9534 C   0  0  0  0  0  0  0  0  0  0  0  0
    5.7133   -1.7324    2.7577 C   0  0  0  0  0  0  0  0  0  0  0  0
    6.7535   -1.0472    3.4769 C   0  0  0  0  0  0  0  0  0  0  0  0
    7.9373   -1.7000    3.7602 C   0  0  0  0  0  0  0  0  0  0  0  0
    8.2212   -2.9746    3.4090 N   0  0  0  0  0  0  0  0  0  0  0  0
    7.2432   -3.6108    2.7617 C   0  0  0  0  0  0  0  0  0  0  0  0
    7.5939   -5.2933    2.3100 Cl  0  0  0  0  0  0  0  0  0  0  0  0
    6.0103   -3.0961    2.4166 C   0  0  0  0  0  0  0  0  0  0  0  0
    5.1916    0.7277    2.7183 H   0  0  0  0  0  0  0  0  0  0  0  0
    1.8359   -0.6362    2.2005 H   0  0  0  0  0  0  0  0  0  0  0  0
   -0.2274    0.8175    2.0623 H   0  0  0  0  0  0  0  0  0  0  0  0
   -0.7145    3.4627    4.1787 H   0  0  0  0  0  0  0  0  0  0  0  0
    5.3189    2.5552    3.0862 H   0  0  0  0  0  0  0  0  0  0  0  0
    4.9539    3.2908    0.6727 H   0  0  0  0  0  0  0  0  0  0  0  0
    5.9643    4.3546    1.6548 H   0  0  0  0  0  0  0  0  0  0  0  0
    3.0208    4.7602    0.8605 H   0  0  0  0  0  0  0  0  0  0  0  0
    4.4020    5.7501    0.3552 H   0  0  0  0  0  0  0  0  0  0  0  0
    3.7988    7.8651    1.3201 H   0  0  0  0  0  0  0  0  0  0  0  0
    3.0670    7.8835    2.9445 H   0  0  0  0  0  0  0  0  0  0  0  0
    1.0206    6.6153    1.9515 H   0  0  0  0  0  0  0  0  0  0  0  0
    2.1747    8.3666   -0.3133 H   0  0  0  0  0  0  0  0  0  0  0  0
   -0.9102    6.4140    0.9415 H   0  0  0  0  0  0  0  0  0  0  0  0
   -3.0772    6.4849   -0.2206 H   0  0  0  0  0  0  0  0  0  0  0  0
   -1.4585    9.2026   -3.1517 H   0  0  0  0  0  0  0  0  0  0  0  0
    0.7368    9.1438   -1.9878 H   0  0  0  0  0  0  0  0  0  0  0  0
    2.5069    5.2504    3.7203 H   0  0  0  0  0  0  0  0  0  0  0  0
    3.7744    6.3341    4.3368 H   0  0  0  0  0  0  0  0  0  0  0  0
    4.0494    3.8307    4.8776 H   0  0  0  0  0  0  0  0  0  0  0  0
    5.4662    4.6158    4.1782 H   0  0  0  0  0  0  0  0  0  0  0  0
    6.6214   -0.0309    3.8564 H   0  0  0  0  0  0  0  0  0  0  0  0
    8.7229   -1.1751    4.3177 H   0  0  0  0  0  0  0  0  0  0  0  0
    5.2695   -3.6920    1.8870 H   0  0  0  0  0  0  0  0  0  0  0  0
  1  2  2  0
  2  3  1  0
  2 30  1  0
  3  4  1  0
  3 37  1  0
  4  5  2  0
  4 13  1  0
  5  6  1  0
  5 38  1  0
  6  7  2  0
  6 39  1  0
  7  8  1  0
  7 12  1  0
  8  9  1  0
  9 10  1  0
  9 11  1  0
  9 40  1  6
 12 13  2  0
 13 14  1  0
 14 15  1  0
 14 29  1  0
 14 41  1  6
 15 16  1  0
 15 42  1  0
 15 43  1  0
 16 17  1  0
 16 44  1  0
 16 45  1  0
 17 18  1  0
 17 28  1  0
 18 19  1  0
 18 46  1  0
 18 47  1  0
 19 20  2  0
 19 48  1  0
 20 21  1  0
 20 49  1  0
 21 22  2  0
 21 27  1  0
 22 23  1  0
 22 50  1  0
 23 24  2  0
 23 51  1  0
 24 25  1  0
 24 26  1  0
 26 27  2  0
 26 52  1  0
 27 53  1  0
 28 29  1  0
 28 54  1  0
 28 55  1  0
 29 56  1  0
 29 57  1  0
 30 31  2  0
 30 36  1  0
 31 32  1  0
 31 58  1  0
 32 33  2  0
 32 59  1  0
 33 34  1  0
 34 35  1  0
 34 36  2  0
 36 60  1  0
M  END

