
     RDKit          3D

 42 42  0  0  0  0  0  0  0  0999 V2000
    8.9270   -2.3847    4.4865 C   0  0  0  0  0  0  0  0  0  0  0  0
    7.7647   -3.2336    4.0044 C   0  0  0  0  0  0  0  0  0  0  0  0
    7.3250   -2.7477    2.7586 O   0  0  0  0  0  0  0  0  0  0  0  0
    6.2448   -3.4662    2.2019 C   0  0  0  0  0  0  0  0  0  0  0  0
    5.8829   -2.8644    0.8512 C   0  0  0  0  0  0  0  0  0  0  0  0
    7.0286   -2.9021   -0.1614 C   0  0  0  0  0  0  0  0  0  0  0  0
    7.3423   -4.3145   -0.6530 C   0  0  0  0  0  0  0  0  0  0  0  0
    6.5018   -5.2032   -0.6745 O   0  0  0  0  0  0  0  0  0  0  0  0
    8.6247   -4.5008   -1.0847 N   0  0  0  0  0  0  0  0  0  0  0  0
    9.0807   -5.7193   -1.7137 C   0  0  0  0  0  0  0  0  0  0  0  0
    9.6830   -5.4652   -3.1141 C   0  0  1  0  0  0  0  0  0  0  0  0
   10.7321   -4.4982   -2.9698 O   0  0  0  0  0  0  0  0  0  0  0  0
   10.2413   -6.7703   -3.7122 C   0  0  0  0  0  0  0  0  0  0  0  0
    9.1511   -7.7607   -4.1477 C   0  0  0  0  0  0  0  0  0  0  0  0
    8.1493   -7.1042   -5.1066 C   0  0  0  0  0  0  0  0  0  0  0  0
    7.5661   -5.8138   -4.5164 C   0  0  0  0  0  0  0  0  0  0  0  0
    8.6722   -4.8407   -4.0886 C   0  0  0  0  0  0  0  0  0  0  0  0
    9.2884   -2.7390    5.4647 H   0  0  0  0  0  0  0  0  0  0  0  0
    8.6201   -1.3321    4.5881 H   0  0  0  0  0  0  0  0  0  0  0  0
    9.7623   -2.4285    3.7701 H   0  0  0  0  0  0  0  0  0  0  0  0
    6.9348   -3.2064    4.7430 H   0  0  0  0  0  0  0  0  0  0  0  0
    8.0709   -4.2982    3.9176 H   0  0  0  0  0  0  0  0  0  0  0  0
    5.3658   -3.4267    2.8792 H   0  0  0  0  0  0  0  0  0  0  0  0
    6.5098   -4.5372    2.0843 H   0  0  0  0  0  0  0  0  0  0  0  0
    5.5657   -1.8197    1.0027 H   0  0  0  0  0  0  0  0  0  0  0  0
    5.0258   -3.4220    0.4431 H   0  0  0  0  0  0  0  0  0  0  0  0
    7.9299   -2.4366    0.2675 H   0  0  0  0  0  0  0  0  0  0  0  0
    6.7554   -2.3084   -1.0523 H   0  0  0  0  0  0  0  0  0  0  0  0
    9.2610   -3.7117   -1.1168 H   0  0  0  0  0  0  0  0  0  0  0  0
    8.2239   -6.4048   -1.7454 H   0  0  0  0  0  0  0  0  0  0  0  0
    9.8597   -6.2028   -1.0918 H   0  0  0  0  0  0  0  0  0  0  0  0
   11.4759   -4.9304   -2.5265 H   0  0  0  0  0  0  0  0  0  0  0  0
   10.9258   -7.2467   -2.9857 H   0  0  0  0  0  0  0  0  0  0  0  0
   10.8553   -6.4866   -4.5846 H   0  0  0  0  0  0  0  0  0  0  0  0
    8.6152   -8.1434   -3.2613 H   0  0  0  0  0  0  0  0  0  0  0  0
    9.6192   -8.6392   -4.6221 H   0  0  0  0  0  0  0  0  0  0  0  0
    7.3421   -7.8127   -5.3564 H   0  0  0  0  0  0  0  0  0  0  0  0
    8.6625   -6.8680   -6.0573 H   0  0  0  0  0  0  0  0  0  0  0  0
    6.9212   -6.0523   -3.6524 H   0  0  0  0  0  0  0  0  0  0  0  0
    6.9121   -5.3206   -5.2545 H   0  0  0  0  0  0  0  0  0  0  0  0
    8.2446   -3.9326   -3.6354 H   0  0  0  0  0  0  0  0  0  0  0  0
    9.2460   -4.5087   -4.9705 H   0  0  0  0  0  0  0  0  0  0  0  0
  1  2  1  0
  1 18  1  0
  1 19  1  0
  1 20  1  0
  2  3  1  0
  2 21  1  0
  2 22  1  0
  3  4  1  0
  4  5  1  0
  4 23  1  0
  4 24  1  0
  5  6  1  0
  5 25  1  0
  5 26  1  0
  6  7  1  0
  6 27  1  0
  6 28  1  0
  7  8  2  0
  7  9  1  0
  9 10  1  0
  9 29  1  0
 10 11  1  0
 10 30  1  0
 10 31  1  0
 11 12  1  1
 11 13  1  0
 11 17  1  0
 12 32  1  0
 13 14  1  0
 13 33  1  0
 13 34  1  0
 14 15  1  0
 14 35  1  0
 14 36  1  0
 15 16  1  0
 15 37  1  0
 15 38  1  0
 16 17  1  0
 16 39  1  0
 16 40  1  0
 17 41  1  0
 17 42  1  0
M  END

