
     RDKit          3D

 32 33  0  0  0  0  0  0  0  0999 V2000
    3.6121   -0.0378    1.1114 C   0  0  0  0  0  0  0  0  0  0  0  0
    2.5549   -0.0005    0.0015 C   0  0  1  0  0  0  0  0  0  0  0  0
    1.1598    0.3246    0.5416 C   0  0  0  0  0  0  0  0  0  0  0  0
    2.9460    0.9302   -1.0717 N   0  0  0  0  0  0  0  0  0  0  0  0
    2.7032    2.2751   -1.1328 C   0  0  0  0  0  0  0  0  0  0  0  0
    3.1998    2.8293   -2.2166 N   0  0  0  0  0  0  0  0  0  0  0  0
    3.8008    1.8060   -2.8975 C   0  0  0  0  0  0  0  0  0  0  0  0
    3.6741    0.6101   -2.2125 C   0  0  0  0  0  0  0  0  0  0  0  0
    4.0731   -0.7999   -2.5435 C   0  0  1  0  0  0  0  0  0  0  0  0
    2.9119   -1.6037   -2.7910 O   0  0  0  0  0  0  0  0  0  0  0  0
    5.0887   -0.9271   -3.6926 C   0  0  0  0  0  0  0  0  0  0  0  0
    6.5302   -0.6493   -3.3091 C   0  0  1  0  0  0  0  0  0  0  0  0
    7.5795   -0.4323   -4.3718 C   0  0  0  0  0  0  0  0  0  0  0  0
    7.1793    0.7034   -3.4657 C   0  0  0  0  0  0  0  0  0  0  0  0
    3.3462   -0.7911    1.8698 H   0  0  0  0  0  0  0  0  0  0  0  0
    3.6911    0.9407    1.6124 H   0  0  0  0  0  0  0  0  0  0  0  0
    4.6045   -0.2933    0.7100 H   0  0  0  0  0  0  0  0  0  0  0  0
    2.4983   -0.9864   -0.4814 H   0  0  0  0  0  0  0  0  0  0  0  0
    1.1382    1.2828    1.0844 H   0  0  0  0  0  0  0  0  0  0  0  0
    0.8469   -0.4595    1.2478 H   0  0  0  0  0  0  0  0  0  0  0  0
    0.4195    0.3690   -0.2711 H   0  0  0  0  0  0  0  0  0  0  0  0
    2.1496    2.8016   -0.3561 H   0  0  0  0  0  0  0  0  0  0  0  0
    4.2982    1.9759   -3.8509 H   0  0  0  0  0  0  0  0  0  0  0  0
    4.5291   -1.2696   -1.6546 H   0  0  0  0  0  0  0  0  0  0  0  0
    2.3858   -1.1472   -3.4633 H   0  0  0  0  0  0  0  0  0  0  0  0
    4.7856   -0.2917   -4.5433 H   0  0  0  0  0  0  0  0  0  0  0  0
    5.0066   -1.9704   -4.0404 H   0  0  0  0  0  0  0  0  0  0  0  0
    6.8646   -1.2311   -2.4410 H   0  0  0  0  0  0  0  0  0  0  0  0
    7.2466   -0.3952   -5.4141 H   0  0  0  0  0  0  0  0  0  0  0  0
    8.5622   -0.8932   -4.2365 H   0  0  0  0  0  0  0  0  0  0  0  0
    6.5852    1.5153   -3.8922 H   0  0  0  0  0  0  0  0  0  0  0  0
    7.8836    1.0316   -2.6958 H   0  0  0  0  0  0  0  0  0  0  0  0
  1  2  1  0
  1 15  1  0
  1 16  1  0
  1 17  1  0
  2  3  1  0
  2  4  1  0
  2 18  1  6
  3 19  1  0
  3 20  1  0
  3 21  1  0
  4  5  1  0
  4  8  1  0
  5  6  2  0
  5 22  1  0
  6  7  1  0
  7  8  2  0
  7 23  1  0
  8  9  1  0
  9 10  1  0
  9 11  1  0
  9 24  1  1
 10 25  1  0
 11 12  1  0
 11 26  1  0
 11 27  1  0
 12 13  1  0
 12 14  1  0
 12 28  1  1
 13 14  1  0
 13 29  1  0
 13 30  1  0
 14 31  1  0
 14 32  1  0
M  END

