
     RDKit          3D

 50 49  0  0  0  0  0  0  0  0999 V2000
    0.8531    1.4128   -0.3267 C   0  0  0  0  0  0  0  0  0  0  0  0
    2.3044    1.7325   -0.7004 C   0  0  0  0  0  0  0  0  0  0  0  0
    3.3268    1.2421    0.3537 C   0  0  1  0  0  0  0  0  0  0  0  0
    3.3775   -0.2230    0.4215 N   0  0  0  0  0  0  0  0  0  0  0  0
    4.8064    1.7450    0.2437 C   0  0  1  0  0  0  0  0  0  0  0  0
    5.3948    1.3735   -1.0560 N   0  0  0  0  0  0  0  0  0  0  0  0
    5.1353    2.2023   -2.2197 C   0  0  0  0  0  0  0  0  0  0  0  0
    6.7662    0.8544   -1.1289 C   0  0  0  0  0  0  0  0  0  0  0  0
    7.2378   -0.1694   -0.0920 C   0  0  0  0  0  0  0  0  0  0  0  0
    6.5562   -1.5415   -0.1422 C   0  0  0  0  0  0  0  0  0  0  0  0
    7.3317   -2.5887    0.5244 N   0  0  0  0  0  0  0  0  0  0  0  0
    7.3911   -2.4322    1.9655 C   0  0  0  0  0  0  0  0  0  0  0  0
    6.8862   -3.9163    0.1523 C   0  0  0  0  0  0  0  0  0  0  0  0
    5.0814    3.1957    0.8338 C   0  0  1  0  0  0  0  0  0  0  0  0
    4.8380    3.1559    2.3601 C   0  0  0  0  0  0  0  0  0  0  0  0
    6.5644    3.5623    0.6217 C   0  0  0  0  0  0  0  0  0  0  0  0
    4.2165    4.3340    0.2531 C   0  0  0  0  0  0  0  0  0  0  0  0
    0.1543    1.7655   -1.1018 H   0  0  0  0  0  0  0  0  0  0  0  0
    0.5667    1.8949    0.6234 H   0  0  0  0  0  0  0  0  0  0  0  0
    0.6853    0.3292   -0.2116 H   0  0  0  0  0  0  0  0  0  0  0  0
    2.3881    2.8176   -0.8561 H   0  0  0  0  0  0  0  0  0  0  0  0
    2.5415    1.2572   -1.6671 H   0  0  0  0  0  0  0  0  0  0  0  0
    2.9622    1.5836    1.3374 H   0  0  0  0  0  0  0  0  0  0  0  0
    3.7097   -0.5713   -0.4799 H   0  0  0  0  0  0  0  0  0  0  0  0
    2.4480   -0.6153    0.5643 H   0  0  0  0  0  0  0  0  0  0  0  0
    5.3110    1.0880    0.9631 H   0  0  0  0  0  0  0  0  0  0  0  0
    4.1215    2.6138   -2.2093 H   0  0  0  0  0  0  0  0  0  0  0  0
    5.2361    1.5980   -3.1393 H   0  0  0  0  0  0  0  0  0  0  0  0
    5.8421    3.0557   -2.3270 H   0  0  0  0  0  0  0  0  0  0  0  0
    7.5085    1.6821   -1.1376 H   0  0  0  0  0  0  0  0  0  0  0  0
    6.8605    0.3830   -2.1257 H   0  0  0  0  0  0  0  0  0  0  0  0
    7.1843    0.2574    0.9229 H   0  0  0  0  0  0  0  0  0  0  0  0
    8.3111   -0.3341   -0.2882 H   0  0  0  0  0  0  0  0  0  0  0  0
    6.4575   -1.8355   -1.2017 H   0  0  0  0  0  0  0  0  0  0  0  0
    5.5281   -1.4737    0.2706 H   0  0  0  0  0  0  0  0  0  0  0  0
    7.8266   -1.4590    2.2372 H   0  0  0  0  0  0  0  0  0  0  0  0
    8.0363   -3.2124    2.4009 H   0  0  0  0  0  0  0  0  0  0  0  0
    6.3929   -2.5043    2.4588 H   0  0  0  0  0  0  0  0  0  0  0  0
    6.9372   -4.0439   -0.9412 H   0  0  0  0  0  0  0  0  0  0  0  0
    5.8397   -4.1413    0.4688 H   0  0  0  0  0  0  0  0  0  0  0  0
    7.5395   -4.6772    0.6099 H   0  0  0  0  0  0  0  0  0  0  0  0
    5.4448    2.3738    2.8453 H   0  0  0  0  0  0  0  0  0  0  0  0
    3.7839    2.9679    2.6144 H   0  0  0  0  0  0  0  0  0  0  0  0
    5.1137    4.1211    2.8160 H   0  0  0  0  0  0  0  0  0  0  0  0
    7.2375    2.8009    1.0455 H   0  0  0  0  0  0  0  0  0  0  0  0
    6.7918    4.5173    1.1236 H   0  0  0  0  0  0  0  0  0  0  0  0
    6.8141    3.6832   -0.4416 H   0  0  0  0  0  0  0  0  0  0  0  0
    3.1514    4.2137    0.5016 H   0  0  0  0  0  0  0  0  0  0  0  0
    4.3063    4.4229   -0.8387 H   0  0  0  0  0  0  0  0  0  0  0  0
    4.5371    5.2971    0.6846 H   0  0  0  0  0  0  0  0  0  0  0  0
  1  2  1  0
  1 18  1  0
  1 19  1  0
  1 20  1  0
  2  3  1  0
  2 21  1  0
  2 22  1  0
  3  4  1  0
  3  5  1  0
  3 23  1  1
  4 24  1  0
  4 25  1  0
  5  6  1  0
  5 14  1  0
  5 26  1  1
  6  7  1  0
  6  8  1  0
  7 27  1  0
  7 28  1  0
  7 29  1  0
  8  9  1  0
  8 30  1  0
  8 31  1  0
  9 10  1  0
  9 32  1  0
  9 33  1  0
 10 11  1  0
 10 34  1  0
 10 35  1  0
 11 12  1  0
 11 13  1  0
 12 36  1  0
 12 37  1  0
 12 38  1  0
 13 39  1  0
 13 40  1  0
 13 41  1  0
 14 15  1  1
 14 16  1  0
 14 17  1  0
 15 42  1  0
 15 43  1  0
 15 44  1  0
 16 45  1  0
 16 46  1  0
 16 47  1  0
 17 48  1  0
 17 49  1  0
 17 50  1  0
M  END

