
     RDKit          3D

 45 46  0  0  0  0  0  0  0  0999 V2000
    1.7678   -0.6156   -0.9734 C   0  0  0  0  0  0  0  0  0  0  0  0
    2.1599    0.7439   -0.3540 C   0  0  1  0  0  0  0  0  0  0  0  0
    2.5709    0.5401    1.0446 N   0  0  0  0  0  0  0  0  0  0  0  0
    1.9342    1.1369    2.1901 C   0  0  1  0  0  0  0  0  0  0  0  0
    0.4907    0.6538    2.3152 C   0  0  0  0  0  0  0  0  0  0  0  0
    0.1728   -0.7152    2.2965 C   0  0  0  0  0  0  0  0  0  0  0  0
   -1.1507   -1.1380    2.4454 C   0  0  0  0  0  0  0  0  0  0  0  0
   -2.1731   -0.2005    2.6148 C   0  0  0  0  0  0  0  0  0  0  0  0
   -1.8676    1.1638    2.6278 C   0  0  0  0  0  0  0  0  0  0  0  0
   -0.5458    1.5869    2.4729 C   0  0  0  0  0  0  0  0  0  0  0  0
    2.8310    1.0567    3.4767 C   0  0  1  0  0  0  0  0  0  0  0  0
    4.1562    1.7988    3.1979 C   0  0  0  0  0  0  0  0  0  0  0  0
    2.1000    1.7687    4.6294 C   0  0  0  0  0  0  0  0  0  0  0  0
    3.1240   -0.3999    3.8830 C   0  0  0  0  0  0  0  0  0  0  0  0
    3.3123    1.4325   -1.0705 C   0  0  0  0  0  0  0  0  0  0  0  0
    3.1029    2.6426   -1.6934 C   0  0  0  0  0  0  0  0  0  0  0  0
    4.1632    3.3335   -2.3601 C   0  0  0  0  0  0  0  0  0  0  0  0
    5.4487    2.7246   -2.2923 C   0  0  0  0  0  0  0  0  0  0  0  0
    6.9188    3.6653   -3.1163 Br  0  0  0  0  0  0  0  0  0  0  0  0
    5.7004    1.5352   -1.6505 C   0  0  0  0  0  0  0  0  0  0  0  0
    4.6271    0.8373   -0.9761 C   0  0  0  0  0  0  0  0  0  0  0  0
    0.9262   -1.0852   -0.4429 H   0  0  0  0  0  0  0  0  0  0  0  0
    2.6200   -1.3094   -0.9919 H   0  0  0  0  0  0  0  0  0  0  0  0
    1.4698   -0.4228   -2.0120 H   0  0  0  0  0  0  0  0  0  0  0  0
    1.2680    1.3867   -0.3316 H   0  0  0  0  0  0  0  0  0  0  0  0
    3.5647    0.2966    1.1157 H   0  0  0  0  0  0  0  0  0  0  0  0
    1.8738    2.2145    1.9245 H   0  0  0  0  0  0  0  0  0  0  0  0
    0.9603   -1.4595    2.1651 H   0  0  0  0  0  0  0  0  0  0  0  0
   -1.3825   -2.2055    2.4277 H   0  0  0  0  0  0  0  0  0  0  0  0
   -3.2073   -0.5322    2.7326 H   0  0  0  0  0  0  0  0  0  0  0  0
   -2.6617    1.9033    2.7536 H   0  0  0  0  0  0  0  0  0  0  0  0
   -0.3175    2.6558    2.4763 H   0  0  0  0  0  0  0  0  0  0  0  0
    3.9772    2.8510    2.9259 H   0  0  0  0  0  0  0  0  0  0  0  0
    4.7478    1.3496    2.3834 H   0  0  0  0  0  0  0  0  0  0  0  0
    4.7878    1.7869    4.0991 H   0  0  0  0  0  0  0  0  0  0  0  0
    1.8627    2.8145    4.3748 H   0  0  0  0  0  0  0  0  0  0  0  0
    2.7441    1.7861    5.5217 H   0  0  0  0  0  0  0  0  0  0  0  0
    1.1624    1.2614    4.9002 H   0  0  0  0  0  0  0  0  0  0  0  0
    3.6329   -0.9667    3.0855 H   0  0  0  0  0  0  0  0  0  0  0  0
    2.2085   -0.9427    4.1604 H   0  0  0  0  0  0  0  0  0  0  0  0
    3.7921   -0.4125    4.7575 H   0  0  0  0  0  0  0  0  0  0  0  0
    2.1072    3.1004   -1.6703 H   0  0  0  0  0  0  0  0  0  0  0  0
    3.9947    4.2570   -2.9082 H   0  0  0  0  0  0  0  0  0  0  0  0
    6.7122    1.1254   -1.6376 H   0  0  0  0  0  0  0  0  0  0  0  0
    4.7473   -0.2379   -0.7936 H   0  0  0  0  0  0  0  0  0  0  0  0
  1  2  1  0
  1 22  1  0
  1 23  1  0
  1 24  1  0
  2  3  1  0
  2 15  1  0
  2 25  1  1
  3  4  1  0
  3 26  1  0
  4  5  1  0
  4 11  1  0
  4 27  1  6
  5  6  2  0
  5 10  1  0
  6  7  1  0
  6 28  1  0
  7  8  2  0
  7 29  1  0
  8  9  1  0
  8 30  1  0
  9 10  2  0
  9 31  1  0
 10 32  1  0
 11 12  1  6
 11 13  1  0
 11 14  1  0
 12 33  1  0
 12 34  1  0
 12 35  1  0
 13 36  1  0
 13 37  1  0
 13 38  1  0
 14 39  1  0
 14 40  1  0
 14 41  1  0
 15 16  2  0
 15 21  1  0
 16 17  1  0
 16 42  1  0
 17 18  2  0
 17 43  1  0
 18 19  1  0
 18 20  1  0
 20 21  2  0
 20 44  1  0
 21 45  1  0
M  END

