
     RDKit          3D

 38 39  0  0  0  0  0  0  0  0999 V2000
    5.7263   -1.5022    1.1325 C   0  0  0  0  0  0  0  0  0  0  0  0
    4.9025   -1.0131    0.1077 O   0  0  0  0  0  0  0  0  0  0  0  0
    5.4272    0.1029   -0.5617 C   0  0  0  0  0  0  0  0  0  0  0  0
    4.4414    0.4821   -1.6642 C   0  0  0  0  0  0  0  0  0  0  0  0
    4.8876    1.6333   -2.4257 N   0  0  0  0  0  0  0  0  0  0  0  0
    4.3745    2.8982   -2.3883 C   0  0  0  0  0  0  0  0  0  0  0  0
    5.1604    3.6530   -3.2512 C   0  0  0  0  0  0  0  0  0  0  0  0
    5.0557    5.0099   -3.5816 N   0  0  0  0  0  0  0  0  0  0  0  0
    4.1122    5.8762   -3.0902 C   0  0  0  0  0  0  0  0  0  0  0  0
    3.2513    5.5317   -2.2965 O   0  0  0  0  0  0  0  0  0  0  0  0
    4.2221    7.3201   -3.5926 C   0  0  1  0  0  0  0  0  0  0  0  0
    2.8930    7.7491   -4.2300 C   0  0  0  0  0  0  0  0  0  0  0  0
    4.6025    8.2268   -2.4199 C   0  0  1  0  0  0  0  0  0  0  0  0
    6.0140    8.1123   -1.7880 C   0  0  0  0  0  0  0  0  0  0  0  0
    6.0560    9.5814   -1.7000 N   0  0  0  0  0  0  0  0  0  0  0  0
    4.9763    9.7070   -2.6936 C   0  0  0  0  0  0  0  0  0  0  0  0
    6.1226    2.7391   -3.7523 C   0  0  0  0  0  0  0  0  0  0  0  0
    5.9423    1.5244   -3.2410 N   0  0  0  0  0  0  0  0  0  0  0  0
    5.2259   -2.3736    1.5795 H   0  0  0  0  0  0  0  0  0  0  0  0
    5.8948   -0.7466    1.9268 H   0  0  0  0  0  0  0  0  0  0  0  0
    6.7177   -1.8207    0.7511 H   0  0  0  0  0  0  0  0  0  0  0  0
    6.4144   -0.1188   -1.0142 H   0  0  0  0  0  0  0  0  0  0  0  0
    5.5670    0.9605    0.1303 H   0  0  0  0  0  0  0  0  0  0  0  0
    3.4627    0.7183   -1.2233 H   0  0  0  0  0  0  0  0  0  0  0  0
    4.3118   -0.3722   -2.3456 H   0  0  0  0  0  0  0  0  0  0  0  0
    3.5166    3.1795   -1.7878 H   0  0  0  0  0  0  0  0  0  0  0  0
    5.7319    5.3699   -4.2431 H   0  0  0  0  0  0  0  0  0  0  0  0
    5.0222    7.3828   -4.3529 H   0  0  0  0  0  0  0  0  0  0  0  0
    2.0736    7.6292   -3.5056 H   0  0  0  0  0  0  0  0  0  0  0  0
    2.6556    7.1367   -5.1143 H   0  0  0  0  0  0  0  0  0  0  0  0
    2.9316    8.8029   -4.5472 H   0  0  0  0  0  0  0  0  0  0  0  0
    3.8245    8.1507   -1.6452 H   0  0  0  0  0  0  0  0  0  0  0  0
    6.7451    7.6683   -2.4967 H   0  0  0  0  0  0  0  0  0  0  0  0
    6.1026    7.5790   -0.8260 H   0  0  0  0  0  0  0  0  0  0  0  0
    6.9420   10.0287   -1.9288 H   0  0  0  0  0  0  0  0  0  0  0  0
    5.3210    9.8544   -3.7389 H   0  0  0  0  0  0  0  0  0  0  0  0
    4.2195   10.4787   -2.4692 H   0  0  0  0  0  0  0  0  0  0  0  0
    6.9276    2.9243   -4.4645 H   0  0  0  0  0  0  0  0  0  0  0  0
  1  2  1  0
  1 19  1  0
  1 20  1  0
  1 21  1  0
  2  3  1  0
  3  4  1  0
  3 22  1  0
  3 23  1  0
  4  5  1  0
  4 24  1  0
  4 25  1  0
  5  6  1  0
  5 18  1  0
  6  7  2  0
  6 26  1  0
  7  8  1  0
  7 17  1  0
  8  9  1  0
  8 27  1  0
  9 10  2  0
  9 11  1  0
 11 12  1  0
 11 13  1  0
 11 28  1  6
 12 29  1  0
 12 30  1  0
 12 31  1  0
 13 14  1  0
 13 16  1  0
 13 32  1  1
 14 15  1  0
 14 33  1  0
 14 34  1  0
 15 16  1  0
 15 35  1  0
 16 36  1  0
 16 37  1  0
 17 18  2  0
 17 38  1  0
M  END

