
     RDKit          3D

 58 61  0  0  0  0  0  0  0  0999 V2000
    1.1951   -1.7917    0.0344 C   0  0  0  0  0  0  0  0  0  0  0  0
    2.5258   -1.1627   -0.2834 C   0  0  0  0  0  0  0  0  0  0  0  0
    2.5261    0.0048   -0.9262 N   0  0  0  0  0  0  0  0  0  0  0  0
    3.7167    0.5880   -1.1457 C   0  0  0  0  0  0  0  0  0  0  0  0
    3.6647    1.9550   -1.7831 C   0  0  0  0  0  0  0  0  0  0  0  0
    4.9337   -0.0052   -0.7634 C   0  0  0  0  0  0  0  0  0  0  0  0
    6.2319    0.7652   -0.8642 C   0  0  0  0  0  0  0  0  0  0  0  0
    6.9770    0.7628   -2.1984 C   0  0  0  0  0  0  0  0  0  0  0  0
    6.4613    0.1670   -3.3586 C   0  0  0  0  0  0  0  0  0  0  0  0
    7.1764    0.1991   -4.5624 C   0  0  0  0  0  0  0  0  0  0  0  0
    8.4207    0.8286   -4.6262 C   0  0  0  0  0  0  0  0  0  0  0  0
    8.9470    1.4272   -3.4755 C   0  0  0  0  0  0  0  0  0  0  0  0
    8.2316    1.3930   -2.2776 C   0  0  0  0  0  0  0  0  0  0  0  0
    4.8226   -1.2907   -0.1534 C   0  0  0  0  0  0  0  0  0  0  0  0
    5.9222   -2.0225    0.2901 N   0  0  0  0  0  0  0  0  0  0  0  0
    5.7178   -3.1174    1.2408 C   0  0  0  0  0  0  0  0  0  0  0  0
    5.6199   -4.4739    0.5453 C   0  0  0  0  0  0  0  0  0  0  0  0
    6.7726   -4.6942   -0.3311 N   0  0  0  0  0  0  0  0  0  0  0  0
    7.3896   -5.9333   -0.3004 C   0  0  0  0  0  0  0  0  0  0  0  0
    7.1716   -6.7474    0.5830 O   0  0  0  0  0  0  0  0  0  0  0  0
    8.2746   -6.1794   -1.3482 N   0  0  0  0  0  0  0  0  0  0  0  0
    9.1158   -7.2879   -1.5207 C   0  0  0  0  0  0  0  0  0  0  0  0
    9.2797   -8.3097   -0.5637 C   0  0  0  0  0  0  0  0  0  0  0  0
   10.1555   -9.3668   -0.8198 C   0  0  0  0  0  0  0  0  0  0  0  0
   10.8809   -9.4467   -2.0078 C   0  0  0  0  0  0  0  0  0  0  0  0
   10.7190   -8.4303   -2.9661 C   0  0  0  0  0  0  0  0  0  0  0  0
   11.4490   -8.4757   -4.2036 C   0  0  0  0  0  0  0  0  0  0  0  0
   12.0380   -8.5098   -5.2038 N   0  0  0  0  0  0  0  0  0  0  0  0
    9.8433   -7.3613   -2.7210 C   0  0  0  0  0  0  0  0  0  0  0  0
    7.0464   -3.6075   -1.2593 C   0  0  0  0  0  0  0  0  0  0  0  0
    7.1048   -2.2510   -0.5293 C   0  0  0  0  0  0  0  0  0  0  0  0
    3.6194   -1.8255    0.0971 N   0  0  0  0  0  0  0  0  0  0  0  0
    0.3814   -1.2010   -0.4042 H   0  0  0  0  0  0  0  0  0  0  0  0
    1.0541   -1.8484    1.1265 H   0  0  0  0  0  0  0  0  0  0  0  0
    1.1554   -2.8242   -0.3461 H   0  0  0  0  0  0  0  0  0  0  0  0
    2.6478    2.1345   -2.1542 H   0  0  0  0  0  0  0  0  0  0  0  0
    4.3827    2.0636   -2.6095 H   0  0  0  0  0  0  0  0  0  0  0  0
    3.8987    2.7400   -1.0429 H   0  0  0  0  0  0  0  0  0  0  0  0
    6.9161    0.4115   -0.0758 H   0  0  0  0  0  0  0  0  0  0  0  0
    6.0277    1.8182   -0.6062 H   0  0  0  0  0  0  0  0  0  0  0  0
    5.4881   -0.3288   -3.3223 H   0  0  0  0  0  0  0  0  0  0  0  0
    6.7532   -0.2699   -5.4546 H   0  0  0  0  0  0  0  0  0  0  0  0
    8.9787    0.8549   -5.5654 H   0  0  0  0  0  0  0  0  0  0  0  0
    9.9205    1.9231   -3.5124 H   0  0  0  0  0  0  0  0  0  0  0  0
    8.6521    1.8646   -1.3839 H   0  0  0  0  0  0  0  0  0  0  0  0
    4.8031   -2.9291    1.8129 H   0  0  0  0  0  0  0  0  0  0  0  0
    6.5795   -3.1233    1.9320 H   0  0  0  0  0  0  0  0  0  0  0  0
    4.6871   -4.5034   -0.0474 H   0  0  0  0  0  0  0  0  0  0  0  0
    5.5973   -5.2904    1.2768 H   0  0  0  0  0  0  0  0  0  0  0  0
    8.2446   -5.5509   -2.1394 H   0  0  0  0  0  0  0  0  0  0  0  0
    8.7091   -8.2641    0.3605 H   0  0  0  0  0  0  0  0  0  0  0  0
   10.2689  -10.1501   -0.0664 H   0  0  0  0  0  0  0  0  0  0  0  0
   11.5616  -10.2771   -2.2007 H   0  0  0  0  0  0  0  0  0  0  0  0
    9.7332   -6.5810   -3.4784 H   0  0  0  0  0  0  0  0  0  0  0  0
    6.2714   -3.5600   -2.0508 H   0  0  0  0  0  0  0  0  0  0  0  0
    8.0206   -3.7499   -1.7471 H   0  0  0  0  0  0  0  0  0  0  0  0
    7.2258   -1.4663   -1.2817 H   0  0  0  0  0  0  0  0  0  0  0  0
    7.9985   -2.2388    0.1200 H   0  0  0  0  0  0  0  0  0  0  0  0
  1  2  1  0
  1 33  1  0
  1 34  1  0
  1 35  1  0
  2  3  2  0
  2 32  1  0
  3  4  1  0
  4  5  1  0
  4  6  2  0
  5 36  1  0
  5 37  1  0
  5 38  1  0
  6  7  1  0
  6 14  1  0
  7  8  1  0
  7 39  1  0
  7 40  1  0
  8  9  2  0
  8 13  1  0
  9 10  1  0
  9 41  1  0
 10 11  2  0
 10 42  1  0
 11 12  1  0
 11 43  1  0
 12 13  2  0
 12 44  1  0
 13 45  1  0
 14 15  1  0
 14 32  2  0
 15 16  1  0
 15 31  1  0
 16 17  1  0
 16 46  1  0
 16 47  1  0
 17 18  1  0
 17 48  1  0
 17 49  1  0
 18 19  1  0
 18 30  1  0
 19 20  2  0
 19 21  1  0
 21 22  1  0
 21 50  1  0
 22 23  2  0
 22 29  1  0
 23 24  1  0
 23 51  1  0
 24 25  2  0
 24 52  1  0
 25 26  1  0
 25 53  1  0
 26 27  1  0
 26 29  2  0
 27 28  3  0
 29 54  1  0
 30 31  1  0
 30 55  1  0
 30 56  1  0
 31 57  1  0
 31 58  1  0
M  END

