
     RDKit          3D

 37 39  0  0  0  0  0  0  0  0999 V2000
    1.1321    0.3948    0.1052 C   0  0  0  0  0  0  0  0  0  0  0  0
    2.6183    0.1855   -0.0337 C   0  0  0  0  0  0  0  0  0  0  0  0
    3.4603    1.2797   -0.0221 C   0  0  0  0  0  0  0  0  0  0  0  0
    4.8874    1.1804   -0.0968 C   0  0  0  0  0  0  0  0  0  0  0  0
    5.7373    2.3953   -0.1971 C   0  0  0  0  0  0  0  0  0  0  0  0
    5.9090    2.8867   -1.6042 N   0  0  0  0  0  0  0  0  0  0  0  0
    6.6193    3.9904   -1.9908 C   0  0  1  0  0  0  0  0  0  0  0  0
    7.3402    4.0054   -3.3696 C   0  0  0  0  0  0  0  0  0  0  0  0
    6.1362    4.8340   -3.2088 C   0  0  0  0  0  0  0  0  0  0  0  0
    5.4396   -0.1326   -0.1617 C   0  0  0  0  0  0  0  0  0  0  0  0
    4.6246   -1.2434   -0.1692 C   0  0  0  0  0  0  0  0  0  0  0  0
    3.1846   -1.1575   -0.1207 C   0  0  0  0  0  0  0  0  0  0  0  0
    2.3551   -2.3338   -0.2299 C   0  0  0  0  0  0  0  0  0  0  0  0
    1.1537   -2.4041   -0.8323 N   0  0  0  0  0  0  0  0  0  0  0  0
    0.7563   -3.7039   -0.7634 C   0  0  0  0  0  0  0  0  0  0  0  0
    1.6953   -4.4769   -0.1219 C   0  0  0  0  0  0  0  0  0  0  0  0
    2.7204   -3.6071    0.2332 N   0  0  0  0  0  0  0  0  0  0  0  0
    3.7735   -3.9437    1.1619 C   0  0  0  0  0  0  0  0  0  0  0  0
    0.8923    1.4654    0.2091 H   0  0  0  0  0  0  0  0  0  0  0  0
    0.7400   -0.1353    0.9919 H   0  0  0  0  0  0  0  0  0  0  0  0
    0.5823   -0.0334   -0.7451 H   0  0  0  0  0  0  0  0  0  0  0  0
    3.0036    2.2727    0.0764 H   0  0  0  0  0  0  0  0  0  0  0  0
    6.7678    2.2407    0.1686 H   0  0  0  0  0  0  0  0  0  0  0  0
    5.3326    3.2667    0.3487 H   0  0  0  0  0  0  0  0  0  0  0  0
    5.4313    2.3258   -2.3104 H   0  0  0  0  0  0  0  0  0  0  0  0
    7.0955    4.5270   -1.1676 H   0  0  0  0  0  0  0  0  0  0  0  0
    7.2765    3.0804   -3.9470 H   0  0  0  0  0  0  0  0  0  0  0  0
    8.3267    4.4745   -3.3471 H   0  0  0  0  0  0  0  0  0  0  0  0
    5.2000    4.5081   -3.6674 H   0  0  0  0  0  0  0  0  0  0  0  0
    6.2356    5.9124   -3.0651 H   0  0  0  0  0  0  0  0  0  0  0  0
    6.5258   -0.2702   -0.2172 H   0  0  0  0  0  0  0  0  0  0  0  0
    5.0954   -2.2230   -0.2659 H   0  0  0  0  0  0  0  0  0  0  0  0
   -0.1905   -4.0361   -1.1924 H   0  0  0  0  0  0  0  0  0  0  0  0
    1.7369   -5.5377    0.1139 H   0  0  0  0  0  0  0  0  0  0  0  0
    3.4374   -4.7632    1.8164 H   0  0  0  0  0  0  0  0  0  0  0  0
    4.0107   -3.0736    1.7912 H   0  0  0  0  0  0  0  0  0  0  0  0
    4.7059   -4.2665    0.6634 H   0  0  0  0  0  0  0  0  0  0  0  0
  1  2  1  0
  1 19  1  0
  1 20  1  0
  1 21  1  0
  2  3  2  0
  2 12  1  0
  3  4  1  0
  3 22  1  0
  4  5  1  0
  4 10  2  0
  5  6  1  0
  5 23  1  0
  5 24  1  0
  6  7  1  0
  6 25  1  0
  7  8  1  0
  7  9  1  0
  7 26  1  1
  8  9  1  0
  8 27  1  0
  8 28  1  0
  9 29  1  0
  9 30  1  0
 10 11  1  0
 10 31  1  0
 11 12  2  0
 11 32  1  0
 12 13  1  0
 13 14  2  0
 13 17  1  0
 14 15  1  0
 15 16  2  0
 15 33  1  0
 16 17  1  0
 16 34  1  0
 17 18  1  0
 18 35  1  0
 18 36  1  0
 18 37  1  0
M  END

