
     RDKit          3D

 63 68  0  0  0  0  0  0  0  0999 V2000
    1.3246   -5.4522    7.3221 C   0  0  0  0  0  0  0  0  0  0  0  0
    2.0019   -4.3624    6.7398 O   0  0  0  0  0  0  0  0  0  0  0  0
    2.7241   -4.5578    5.6080 C   0  0  0  0  0  0  0  0  0  0  0  0
    3.3854   -3.4299    5.0889 C   0  0  0  0  0  0  0  0  0  0  0  0
    4.1494   -3.5363    3.9343 C   0  0  0  0  0  0  0  0  0  0  0  0
    4.2934   -4.7583    3.2463 C   0  0  0  0  0  0  0  0  0  0  0  0
    5.1483   -4.7904    1.9810 C   0  0  1  0  0  0  0  0  0  0  0  0
    4.8126   -3.9408    1.3622 H   0  0  0  0  0  0  0  0  0  0  0  0
    6.6480   -4.5855    2.2647 C   0  0  0  0  0  0  0  0  0  0  0  0
    7.3479   -5.8166    2.8266 C   0  0  0  0  0  0  0  0  0  0  0  0
    8.3224   -5.6904    3.5518 O   0  0  0  0  0  0  0  0  0  0  0  0
    6.8504   -7.1472    2.4295 C   0  0  0  0  0  0  0  0  0  0  0  0
    5.7316   -7.2699    1.6494 C   0  0  0  0  0  0  0  0  0  0  0  0
    4.9944   -6.0509    1.1225 C   0  0  0  0  0  0  0  0  0  0  0  0
    5.1620   -8.4441    1.2033 N   0  0  0  0  0  0  0  0  0  0  0  0
    5.4629   -9.8015    1.4095 C   0  0  0  0  0  0  0  0  0  0  0  0
    4.4164  -10.7297    1.2550 C   0  0  0  0  0  0  0  0  0  0  0  0
    4.6408  -12.0971    1.3902 C   0  0  0  0  0  0  0  0  0  0  0  0
    5.9184  -12.5633    1.7159 C   0  0  0  0  0  0  0  0  0  0  0  0
    6.9570  -11.6506    1.8896 C   0  0  0  0  0  0  0  0  0  0  0  0
    6.7586  -10.2741    1.7057 C   0  0  0  0  0  0  0  0  0  0  0  0
    7.8277   -9.3577    1.8573 N   0  0  0  0  0  0  0  0  0  0  0  0
    9.0786   -9.5059    1.2626 C   0  0  0  0  0  0  0  0  0  0  0  0
   10.0628   -8.9246    1.6857 O   0  0  0  0  0  0  0  0  0  0  0  0
    9.1910  -10.3602    0.0246 C   0  0  0  0  0  0  0  0  0  0  0  0
    8.2240  -10.3678   -0.9928 C   0  0  0  0  0  0  0  0  0  0  0  0
    8.4425  -11.0903   -2.1682 C   0  0  0  0  0  0  0  0  0  0  0  0
    9.6222  -11.8222   -2.3344 C   0  0  0  0  0  0  0  0  0  0  0  0
   10.5945  -11.8111   -1.3285 C   0  0  0  0  0  0  0  0  0  0  0  0
   10.3868  -11.0716   -0.1634 C   0  0  0  0  0  0  0  0  0  0  0  0
    7.6875   -8.3161    2.9043 C   0  0  2  0  0  0  0  0  0  0  0  0
    8.7038   -7.9273    3.0675 H   0  0  0  0  0  0  0  0  0  0  0  0
    7.2198   -8.9032    4.2039 C   0  0  0  0  0  0  0  0  0  0  0  0
    6.2145   -8.5962    5.0798 C   0  0  0  0  0  0  0  0  0  0  0  0
    6.3465   -9.5073    6.1819 C   0  0  0  0  0  0  0  0  0  0  0  0
    7.4180  -10.2988    5.8884 C   0  0  0  0  0  0  0  0  0  0  0  0
    7.9564   -9.9388    4.6951 O   0  0  0  0  0  0  0  0  0  0  0  0
    3.6214   -5.8667    3.7722 C   0  0  0  0  0  0  0  0  0  0  0  0
    2.8444   -5.7812    4.9372 C   0  0  0  0  0  0  0  0  0  0  0  0
    0.8227   -5.0665    8.2197 H   0  0  0  0  0  0  0  0  0  0  0  0
    2.0200   -6.2578    7.6203 H   0  0  0  0  0  0  0  0  0  0  0  0
    0.5629   -5.8759    6.6421 H   0  0  0  0  0  0  0  0  0  0  0  0
    3.2793   -2.4786    5.6142 H   0  0  0  0  0  0  0  0  0  0  0  0
    4.6484   -2.6412    3.5509 H   0  0  0  0  0  0  0  0  0  0  0  0
    6.8337   -3.7531    2.9576 H   0  0  0  0  0  0  0  0  0  0  0  0
    7.1650   -4.3329    1.3201 H   0  0  0  0  0  0  0  0  0  0  0  0
    3.9262   -6.2933    0.9892 H   0  0  0  0  0  0  0  0  0  0  0  0
    5.3848   -5.8371    0.1107 H   0  0  0  0  0  0  0  0  0  0  0  0
    4.2698   -8.3080    0.7423 H   0  0  0  0  0  0  0  0  0  0  0  0
    3.4131  -10.3616    1.0203 H   0  0  0  0  0  0  0  0  0  0  0  0
    3.8123  -12.7966    1.2563 H   0  0  0  0  0  0  0  0  0  0  0  0
    6.1032  -13.6319    1.8448 H   0  0  0  0  0  0  0  0  0  0  0  0
    7.9550  -11.9950    2.1639 H   0  0  0  0  0  0  0  0  0  0  0  0
    7.3045   -9.7924   -0.8750 H   0  0  0  0  0  0  0  0  0  0  0  0
    7.6881  -11.0800   -2.9590 H   0  0  0  0  0  0  0  0  0  0  0  0
    9.7877  -12.3938   -3.2513 H   0  0  0  0  0  0  0  0  0  0  0  0
   11.5234  -12.3724   -1.4582 H   0  0  0  0  0  0  0  0  0  0  0  0
   11.1516  -11.0255    0.6145 H   0  0  0  0  0  0  0  0  0  0  0  0
    5.4840   -7.8003    4.9625 H   0  0  0  0  0  0  0  0  0  0  0  0
    5.7250   -9.5619    7.0733 H   0  0  0  0  0  0  0  0  0  0  0  0
    7.9012  -11.1260    6.4017 H   0  0  0  0  0  0  0  0  0  0  0  0
    3.6907   -6.8395    3.2823 H   0  0  0  0  0  0  0  0  0  0  0  0
    2.3437   -6.6768    5.3055 H   0  0  0  0  0  0  0  0  0  0  0  0
  1  2  1  0
  1 40  1  0
  1 41  1  0
  1 42  1  0
  2  3  1  0
  3  4  2  0
  3 39  1  0
  4  5  1  0
  4 43  1  0
  5  6  2  0
  5 44  1  0
  6  7  1  0
  6 38  1  0
  7  8  1  6
  7  9  1  0
  7 14  1  0
  9 10  1  0
  9 45  1  0
  9 46  1  0
 10 11  2  0
 10 12  1  0
 12 13  2  0
 12 31  1  0
 13 14  1  0
 13 15  1  0
 14 47  1  0
 14 48  1  0
 15 16  1  0
 15 49  1  0
 16 17  1  0
 16 21  2  0
 17 18  2  0
 17 50  1  0
 18 19  1  0
 18 51  1  0
 19 20  2  0
 19 52  1  0
 20 21  1  0
 20 53  1  0
 21 22  1  0
 22 23  1  0
 22 31  1  0
 23 24  2  0
 23 25  1  0
 25 26  2  0
 25 30  1  0
 26 27  1  0
 26 54  1  0
 27 28  2  0
 27 55  1  0
 28 29  1  0
 28 56  1  0
 29 30  2  0
 29 57  1  0
 30 58  1  0
 31 32  1  1
 31 33  1  0
 33 34  2  0
 33 37  1  0
 34 35  1  0
 34 59  1  0
 35 36  2  0
 35 60  1  0
 36 37  1  0
 36 61  1  0
 38 39  2  0
 38 62  1  0
 39 63  1  0
M  END

