
     RDKit          3D

 40 41  0  0  0  0  0  0  0  0999 V2000
    0.9223   -0.1116   -0.0231 C   0  0  0  0  0  0  0  0  0  0  0  0
    2.4497   -0.0672    0.0870 C   0  0  1  0  0  0  0  0  0  0  0  0
    3.0105   -1.4243   -0.3801 C   0  0  0  0  0  0  0  0  0  0  0  0
    4.5392   -1.5676   -0.4671 C   0  0  0  0  0  0  0  0  0  0  0  0
    5.1694   -0.8133   -1.5397 N   0  0  0  0  0  0  0  0  0  0  0  0
    5.1747   -1.3163   -2.8430 C   0  0  0  0  0  0  0  0  0  0  0  0
    4.5301   -2.5337   -3.1769 C   0  0  0  0  0  0  0  0  0  0  0  0
    4.5519   -3.0437   -4.4756 C   0  0  0  0  0  0  0  0  0  0  0  0
    5.2117   -2.3537   -5.4917 C   0  0  0  0  0  0  0  0  0  0  0  0
    5.2291   -2.9889   -7.1269 Cl  0  0  0  0  0  0  0  0  0  0  0  0
    5.8674   -1.1575   -5.1926 C   0  0  0  0  0  0  0  0  0  0  0  0
    5.8569   -0.6520   -3.8943 C   0  0  0  0  0  0  0  0  0  0  0  0
    5.4790    0.5928   -1.2577 C   0  0  2  0  0  0  0  0  0  0  0  0
    6.8953    0.7827   -0.6842 C   0  0  0  0  0  0  0  0  0  0  0  0
    7.9270    0.3880   -1.6324 N   0  0  0  0  0  0  0  0  0  0  0  0
    4.4559    1.2525   -0.3077 C   0  0  0  0  0  0  0  0  0  0  0  0
    3.0551    1.0491   -0.6575 N   0  0  0  0  0  0  0  0  0  0  0  0
    2.3004    2.2923   -0.6748 C   0  0  0  0  0  0  0  0  0  0  0  0
    0.5449   -1.0145    0.4808 H   0  0  0  0  0  0  0  0  0  0  0  0
    0.6050   -0.1584   -1.0775 H   0  0  0  0  0  0  0  0  0  0  0  0
    0.4357    0.7531    0.4499 H   0  0  0  0  0  0  0  0  0  0  0  0
    2.6985    0.0444    1.1717 H   0  0  0  0  0  0  0  0  0  0  0  0
    2.5801   -1.6462   -1.3700 H   0  0  0  0  0  0  0  0  0  0  0  0
    2.6348   -2.1981    0.3127 H   0  0  0  0  0  0  0  0  0  0  0  0
    4.7938   -2.6319   -0.5862 H   0  0  0  0  0  0  0  0  0  0  0  0
    5.0014   -1.2688    0.4882 H   0  0  0  0  0  0  0  0  0  0  0  0
    3.9874   -3.1026   -2.4239 H   0  0  0  0  0  0  0  0  0  0  0  0
    4.0410   -3.9823   -4.6992 H   0  0  0  0  0  0  0  0  0  0  0  0
    6.4081   -0.6244   -5.9772 H   0  0  0  0  0  0  0  0  0  0  0  0
    6.4435    0.2412   -3.6850 H   0  0  0  0  0  0  0  0  0  0  0  0
    5.4197    1.1369   -2.2105 H   0  0  0  0  0  0  0  0  0  0  0  0
    6.9463    0.2499    0.2924 H   0  0  0  0  0  0  0  0  0  0  0  0
    7.0315    1.8539   -0.4535 H   0  0  0  0  0  0  0  0  0  0  0  0
    7.8722   -0.6161   -1.8091 H   0  0  0  0  0  0  0  0  0  0  0  0
    8.8543    0.5623   -1.2462 H   0  0  0  0  0  0  0  0  0  0  0  0
    4.6788    2.3305   -0.3208 H   0  0  0  0  0  0  0  0  0  0  0  0
    4.6518    0.9301    0.7372 H   0  0  0  0  0  0  0  0  0  0  0  0
    2.8342    3.0308   -1.2918 H   0  0  0  0  0  0  0  0  0  0  0  0
    2.1449    2.7454    0.3319 H   0  0  0  0  0  0  0  0  0  0  0  0
    1.3131    2.1528   -1.1356 H   0  0  0  0  0  0  0  0  0  0  0  0
  1  2  1  0
  1 19  1  0
  1 20  1  0
  1 21  1  0
  2  3  1  0
  2 17  1  0
  2 22  1  1
  3  4  1  0
  3 23  1  0
  3 24  1  0
  4  5  1  0
  4 25  1  0
  4 26  1  0
  5  6  1  0
  5 13  1  0
  6  7  2  0
  6 12  1  0
  7  8  1  0
  7 27  1  0
  8  9  2  0
  8 28  1  0
  9 10  1  0
  9 11  1  0
 11 12  2  0
 11 29  1  0
 12 30  1  0
 13 14  1  0
 13 16  1  0
 13 31  1  6
 14 15  1  0
 14 32  1  0
 14 33  1  0
 15 34  1  0
 15 35  1  0
 16 17  1  0
 16 36  1  0
 16 37  1  0
 17 18  1  0
 18 38  1  0
 18 39  1  0
 18 40  1  0
M  END

