
     RDKit          3D

 28 30  0  0  0  0  0  0  0  0999 V2000
    1.3426    0.2587   -0.1900 O   0  0  0  0  0  0  0  0  0  0  0  0
    2.5378    0.3438   -0.2879 C   0  0  0  0  0  0  0  0  0  0  0  0
    3.3471   -0.7268   -0.3001 O   0  0  0  0  0  0  0  0  0  0  0  0
    3.2616    1.6492   -0.4074 C   0  0  0  0  0  0  0  0  0  0  0  0
    2.6496    2.8747   -0.4145 C   0  0  0  0  0  0  0  0  0  0  0  0
    3.8348    4.1159   -0.5734 S   0  0  0  0  0  0  0  0  0  0  0  0
    5.0889    2.8919   -0.6148 C   0  0  0  0  0  0  0  0  0  0  0  0
    6.5450    3.2525   -0.7224 C   0  0  0  0  0  0  0  0  0  0  0  0
    7.3306    2.0676   -0.9749 N   0  0  0  0  0  0  0  0  0  0  0  0
    8.6699    2.1397   -1.1506 C   0  0  0  0  0  0  0  0  0  0  0  0
    9.3451    3.2616   -1.1752 N   0  0  0  0  0  0  0  0  0  0  0  0
   10.6783    2.9897   -1.3840 C   0  0  0  0  0  0  0  0  0  0  0  0
   11.6611    4.0960   -1.4566 C   0  0  1  0  0  0  0  0  0  0  0  0
   11.2631    5.4191   -2.0820 C   0  0  0  0  0  0  0  0  0  0  0  0
   11.4709    5.3337   -0.6012 C   0  0  0  0  0  0  0  0  0  0  0  0
   11.0750    1.7458   -1.5176 N   0  0  0  0  0  0  0  0  0  0  0  0
    9.7207    0.7437   -1.3880 S   0  0  0  0  0  0  0  0  0  0  0  0
    4.6347    1.6761   -0.5201 N   0  0  0  0  0  0  0  0  0  0  0  0
    4.2645   -0.4106   -0.3849 H   0  0  0  0  0  0  0  0  0  0  0  0
    1.5836    3.0797   -0.3377 H   0  0  0  0  0  0  0  0  0  0  0  0
    6.8725    3.7550    0.2091 H   0  0  0  0  0  0  0  0  0  0  0  0
    6.6984    3.9935   -1.5265 H   0  0  0  0  0  0  0  0  0  0  0  0
    6.8622    1.1738   -0.8868 H   0  0  0  0  0  0  0  0  0  0  0  0
   12.6816    3.7444   -1.6206 H   0  0  0  0  0  0  0  0  0  0  0  0
   10.2357    5.5011   -2.4455 H   0  0  0  0  0  0  0  0  0  0  0  0
   12.0127    5.9299   -2.6929 H   0  0  0  0  0  0  0  0  0  0  0  0
   10.5841    5.3582    0.0371 H   0  0  0  0  0  0  0  0  0  0  0  0
   12.3674    5.7842   -0.1661 H   0  0  0  0  0  0  0  0  0  0  0  0
  1  2  2  0
  2  3  1  0
  2  4  1  0
  3 19  1  0
  4  5  2  0
  4 18  1  0
  5  6  1  0
  5 20  1  0
  6  7  1  0
  7  8  1  0
  7 18  2  0
  8  9  1  0
  8 21  1  0
  8 22  1  0
  9 10  1  0
  9 23  1  0
 10 11  2  0
 10 17  1  0
 11 12  1  0
 12 13  1  0
 12 16  2  0
 13 14  1  0
 13 15  1  0
 13 24  1  6
 14 15  1  0
 14 25  1  0
 14 26  1  0
 15 27  1  0
 15 28  1  0
 16 17  1  0
M  END

