
     RDKit          3D

 71 75  0  0  0  0  0  0  0  0999 V2000
    1.4420    2.2020   -2.3483 C   0  0  0  0  0  0  0  0  0  0  0  0
    2.2426    1.4464   -3.3932 C   0  0  0  0  0  0  0  0  0  0  0  0
    3.1563    0.4902   -2.7928 O   0  0  0  0  0  0  0  0  0  0  0  0
    4.3471    0.8415   -2.3289 C   0  0  0  0  0  0  0  0  0  0  0  0
    4.8675    2.1464   -2.3767 C   0  0  0  0  0  0  0  0  0  0  0  0
    6.1241    2.4417   -1.8801 C   0  0  0  0  0  0  0  0  0  0  0  0
    6.6352    3.8885   -1.9104 C   0  0  1  0  0  0  0  0  0  0  0  0
    6.2364    4.6666   -3.1574 C   0  0  0  0  0  0  0  0  0  0  0  0
    6.5630    4.4887   -4.5363 C   0  0  0  0  0  0  0  0  0  0  0  0
    5.9463    5.2076   -5.4009 O   0  0  0  0  0  0  0  0  0  0  0  0
    7.5627    3.5146   -5.0230 C   0  0  0  0  0  0  0  0  0  0  0  0
    8.9078    2.9305   -4.0446 S   0  0  0  0  0  0  0  0  0  0  0  0
    9.4862    1.9845   -5.4111 C   0  0  0  0  0  0  0  0  0  0  0  0
   10.7326    1.1587   -5.3276 C   0  0  0  0  0  0  0  0  0  0  0  0
    8.7521    2.1143   -6.4716 N   0  0  0  0  0  0  0  0  0  0  0  0
    7.6817    2.9639   -6.2953 C   0  0  0  0  0  0  0  0  0  0  0  0
    6.7719    3.1878   -7.4675 C   0  0  0  0  0  0  0  0  0  0  0  0
    5.3373    5.6772   -2.7749 C   0  0  0  0  0  0  0  0  0  0  0  0
    4.7385    6.5199   -3.6056 O   0  0  0  0  0  0  0  0  0  0  0  0
    5.1640    5.7194   -1.3399 C   0  0  0  0  0  0  0  0  0  0  0  0
    4.5200    6.4501   -0.6035 O   0  0  0  0  0  0  0  0  0  0  0  0
    5.9793    4.6461   -0.8330 N   0  0  0  0  0  0  0  0  0  0  0  0
    6.2730    4.4422    0.4805 C   0  0  0  0  0  0  0  0  0  0  0  0
    7.1049    3.5210    0.8858 N   0  0  0  0  0  0  0  0  0  0  0  0
    7.2284    3.5334    2.2613 C   0  0  0  0  0  0  0  0  0  0  0  0
    8.0472    2.6842    3.0231 C   0  0  0  0  0  0  0  0  0  0  0  0
    8.0734    2.8094    4.4110 C   0  0  0  0  0  0  0  0  0  0  0  0
    7.2843    3.7828    5.0447 C   0  0  0  0  0  0  0  0  0  0  0  0
    7.3325    3.9189    6.7928 Cl  0  0  0  0  0  0  0  0  0  0  0  0
    6.4628    4.6465    4.3166 C   0  0  0  0  0  0  0  0  0  0  0  0
    6.4447    4.5098    2.9267 C   0  0  0  0  0  0  0  0  0  0  0  0
    5.5244    5.4453    1.7519 S   0  0  0  0  0  0  0  0  0  0  0  0
    6.9139    1.3931   -1.3048 C   0  0  0  0  0  0  0  0  0  0  0  0
    6.4428    0.1053   -1.2468 C   0  0  0  0  0  0  0  0  0  0  0  0
    5.1584   -0.2213   -1.7490 C   0  0  0  0  0  0  0  0  0  0  0  0
    4.8128   -1.4880   -1.6434 O   0  0  0  0  0  0  0  0  0  0  0  0
    3.5943   -2.1218   -2.1066 C   0  0  0  0  0  0  0  0  0  0  0  0
    3.7113   -3.5975   -1.7708 C   0  0  0  0  0  0  0  0  0  0  0  0
    2.4517   -4.4196   -2.1055 C   0  0  1  0  0  0  0  0  0  0  0  0
    2.1287   -4.4273   -3.6068 C   0  0  0  0  0  0  0  0  0  0  0  0
    2.6027   -5.8501   -1.5727 C   0  0  0  0  0  0  0  0  0  0  0  0
    0.7143    2.8505   -2.8593 H   0  0  0  0  0  0  0  0  0  0  0  0
    2.0765    2.8420   -1.7183 H   0  0  0  0  0  0  0  0  0  0  0  0
    0.8868    1.5073   -1.7002 H   0  0  0  0  0  0  0  0  0  0  0  0
    2.8096    2.1139   -4.0575 H   0  0  0  0  0  0  0  0  0  0  0  0
    1.5916    0.8186   -4.0159 H   0  0  0  0  0  0  0  0  0  0  0  0
    4.2827    2.9499   -2.8180 H   0  0  0  0  0  0  0  0  0  0  0  0
    7.7196    3.8758   -1.7219 H   0  0  0  0  0  0  0  0  0  0  0  0
   10.6621    0.3743   -4.5564 H   0  0  0  0  0  0  0  0  0  0  0  0
   11.6149    1.7759   -5.0849 H   0  0  0  0  0  0  0  0  0  0  0  0
   10.8934    0.6909   -6.3077 H   0  0  0  0  0  0  0  0  0  0  0  0
    6.3729    2.2237   -7.8257 H   0  0  0  0  0  0  0  0  0  0  0  0
    7.3425    3.6210   -8.3070 H   0  0  0  0  0  0  0  0  0  0  0  0
    5.9600    3.8743   -7.2108 H   0  0  0  0  0  0  0  0  0  0  0  0
    5.0782    6.2030   -4.5107 H   0  0  0  0  0  0  0  0  0  0  0  0
    8.6628    1.9352    2.5205 H   0  0  0  0  0  0  0  0  0  0  0  0
    8.7059    2.1583    5.0164 H   0  0  0  0  0  0  0  0  0  0  0  0
    5.8621    5.3988    4.8299 H   0  0  0  0  0  0  0  0  0  0  0  0
    7.8942    1.6419   -0.9043 H   0  0  0  0  0  0  0  0  0  0  0  0
    7.0309   -0.7068   -0.8180 H   0  0  0  0  0  0  0  0  0  0  0  0
    3.4971   -1.9338   -3.1843 H   0  0  0  0  0  0  0  0  0  0  0  0
    2.7393   -1.6492   -1.6002 H   0  0  0  0  0  0  0  0  0  0  0  0
    3.9291   -3.6842   -0.6934 H   0  0  0  0  0  0  0  0  0  0  0  0
    4.5832   -4.0173   -2.3026 H   0  0  0  0  0  0  0  0  0  0  0  0
    1.5981   -3.9544   -1.5758 H   0  0  0  0  0  0  0  0  0  0  0  0
    2.9669   -4.8479   -4.1885 H   0  0  0  0  0  0  0  0  0  0  0  0
    1.9183   -3.4206   -4.0022 H   0  0  0  0  0  0  0  0  0  0  0  0
    1.2409   -5.0456   -3.8121 H   0  0  0  0  0  0  0  0  0  0  0  0
    3.4444   -6.3673   -2.0637 H   0  0  0  0  0  0  0  0  0  0  0  0
    1.6931   -6.4411   -1.7620 H   0  0  0  0  0  0  0  0  0  0  0  0
    2.7909   -5.8608   -0.4873 H   0  0  0  0  0  0  0  0  0  0  0  0
  1  2  1  0
  1 42  1  0
  1 43  1  0
  1 44  1  0
  2  3  1  0
  2 45  1  0
  2 46  1  0
  3  4  1  0
  4  5  2  0
  4 35  1  0
  5  6  1  0
  5 47  1  0
  6  7  1  0
  6 33  2  0
  7  8  1  0
  7 22  1  0
  7 48  1  1
  8  9  1  0
  8 18  2  0
  9 10  2  0
  9 11  1  0
 11 12  1  0
 11 16  2  0
 12 13  1  0
 13 14  1  0
 13 15  2  0
 14 49  1  0
 14 50  1  0
 14 51  1  0
 15 16  1  0
 16 17  1  0
 17 52  1  0
 17 53  1  0
 17 54  1  0
 18 19  1  0
 18 20  1  0
 19 55  1  0
 20 21  2  0
 20 22  1  0
 22 23  1  0
 23 24  2  0
 23 32  1  0
 24 25  1  0
 25 26  2  0
 25 31  1  0
 26 27  1  0
 26 56  1  0
 27 28  2  0
 27 57  1  0
 28 29  1  0
 28 30  1  0
 30 31  2  0
 30 58  1  0
 31 32  1  0
 33 34  1  0
 33 59  1  0
 34 35  2  0
 34 60  1  0
 35 36  1  0
 36 37  1  0
 37 38  1  0
 37 61  1  0
 37 62  1  0
 38 39  1  0
 38 63  1  0
 38 64  1  0
 39 40  1  0
 39 41  1  0
 39 65  1  6
 40 66  1  0
 40 67  1  0
 40 68  1  0
 41 69  1  0
 41 70  1  0
 41 71  1  0
M  END

