
     RDKit          3D

 40 42  0  0  0  0  0  0  0  0999 V2000
    0.3878    1.1569    0.8196 O   0  0  0  0  0  0  0  0  0  0  0  0
    0.6956    1.6467    1.9006 C   0  0  0  0  0  0  0  0  0  0  0  0
    1.1223    2.9224    2.0505 N   0  0  0  0  0  0  0  0  0  0  0  0
    1.3178    3.8089    0.9240 C   0  0  0  0  0  0  0  0  0  0  0  0
    2.7392    4.3258    0.7581 C   0  0  0  0  0  0  0  0  0  0  0  0
    3.0171    5.2376   -0.2739 C   0  0  0  0  0  0  0  0  0  0  0  0
    4.3140    5.7187   -0.4476 C   0  0  0  0  0  0  0  0  0  0  0  0
    5.3596    5.3205    0.3913 C   0  0  0  0  0  0  0  0  0  0  0  0
    5.0871    4.4151    1.4290 C   0  0  0  0  0  0  0  0  0  0  0  0
    6.0615    3.9568    2.3368 N   0  0  0  0  0  0  0  0  0  0  0  0
    7.4043    4.2515    2.3973 C   0  0  0  0  0  0  0  0  0  0  0  0
    7.9790    4.9971    1.6196 O   0  0  0  0  0  0  0  0  0  0  0  0
    8.1300    3.5673    3.5217 C   0  0  1  0  0  0  0  0  0  0  0  0
    9.5697    3.1604    3.2675 C   0  0  0  0  0  0  0  0  0  0  0  0
    9.2816    4.3218    4.1596 C   0  0  0  0  0  0  0  0  0  0  0  0
    3.7779    3.9239    1.5980 C   0  0  0  0  0  0  0  0  0  0  0  0
    0.5710    0.7946    3.1606 C   0  0  0  0  0  0  0  0  0  0  0  0
   -0.0481   -0.4291    2.9519 C   0  0  0  0  0  0  0  0  0  0  0  0
   -0.2553   -1.3713    3.9833 C   0  0  0  0  0  0  0  0  0  0  0  0
    0.1892   -1.0409    5.2376 C   0  0  0  0  0  0  0  0  0  0  0  0
    0.7989    0.1503    5.4388 N   0  0  0  0  0  0  0  0  0  0  0  0
    1.1330    0.3970    6.3693 H   0  0  0  0  0  0  0  0  0  0  0  0
    1.0412    1.1329    4.4871 C   0  0  0  0  0  0  0  0  0  0  0  0
    1.8364    2.5184    5.0389 S   0  0  0  0  0  0  0  0  0  0  0  0
    1.3639    3.2327    2.9966 H   0  0  0  0  0  0  0  0  0  0  0  0
    0.6348    4.6744    1.0085 H   0  0  0  0  0  0  0  0  0  0  0  0
    1.0124    3.2516    0.0257 H   0  0  0  0  0  0  0  0  0  0  0  0
    2.2155    5.5664   -0.9416 H   0  0  0  0  0  0  0  0  0  0  0  0
    4.5253    6.4246   -1.2553 H   0  0  0  0  0  0  0  0  0  0  0  0
    6.3710    5.6963    0.2590 H   0  0  0  0  0  0  0  0  0  0  0  0
    5.7128    3.3244    3.0476 H   0  0  0  0  0  0  0  0  0  0  0  0
    7.5351    2.9196    4.1730 H   0  0  0  0  0  0  0  0  0  0  0  0
    9.9548    3.3784    2.2680 H   0  0  0  0  0  0  0  0  0  0  0  0
    9.9108    2.2210    3.7110 H   0  0  0  0  0  0  0  0  0  0  0  0
    9.4725    5.3212    3.7601 H   0  0  0  0  0  0  0  0  0  0  0  0
    9.4176    4.2100    5.2387 H   0  0  0  0  0  0  0  0  0  0  0  0
    3.5721    3.2201    2.4088 H   0  0  0  0  0  0  0  0  0  0  0  0
   -0.3691   -0.6359    1.9283 H   0  0  0  0  0  0  0  0  0  0  0  0
   -0.7478   -2.3258    3.7989 H   0  0  0  0  0  0  0  0  0  0  0  0
    0.0866   -1.6857    6.1125 H   0  0  0  0  0  0  0  0  0  0  0  0
  1  2  2  0
  2  3  1  0
  2 17  1  0
  3  4  1  0
  3 25  1  0
  4  5  1  0
  4 26  1  0
  4 27  1  0
  5  6  2  0
  5 16  1  0
  6  7  1  0
  6 28  1  0
  7  8  2  0
  7 29  1  0
  8  9  1  0
  8 30  1  0
  9 10  1  0
  9 16  2  0
 10 11  1  0
 10 31  1  0
 11 12  2  0
 11 13  1  0
 13 14  1  0
 13 15  1  0
 13 32  1  1
 14 15  1  0
 14 33  1  0
 14 34  1  0
 15 35  1  0
 15 36  1  0
 16 37  1  0
 17 18  2  0
 17 23  1  0
 18 19  1  0
 18 38  1  0
 19 20  2  0
 19 39  1  0
 20 21  1  0
 20 40  1  0
 21 22  1  0
 21 23  1  0
 23 24  2  0
M  END

