
     RDKit          3D

 35 37  0  0  0  0  0  0  0  0999 V2000
    1.7718    0.2939    1.6217 N   0  0  0  0  0  0  0  0  0  0  0  0
    2.9896    0.0596    1.1293 C   0  0  0  0  0  0  0  0  0  0  0  0
    4.0576    0.8525    1.1782 N   0  0  0  0  0  0  0  0  0  0  0  0
    4.8265   -0.1426    0.5175 C   0  0  0  0  0  0  0  0  0  0  0  0
    6.3867   -0.2248    0.0764 S   0  0  0  0  0  0  0  0  0  0  0  0
    3.6415   -1.0634    0.4169 C   0  0  0  0  0  0  0  0  0  0  0  0
    3.4315   -2.2980   -0.0688 C   0  0  0  0  0  0  0  0  0  0  0  0
    2.1813   -3.0604   -0.1310 C   0  0  0  0  0  0  0  0  0  0  0  0
    0.9162   -2.4534   -0.2328 C   0  0  0  0  0  0  0  0  0  0  0  0
   -0.2611   -3.2050   -0.2798 C   0  0  0  0  0  0  0  0  0  0  0  0
   -0.1952   -4.6073   -0.2342 C   0  0  0  0  0  0  0  0  0  0  0  0
   -1.2708   -5.4306   -0.2722 O   0  0  0  0  0  0  0  0  0  0  0  0
   -2.5730   -4.8858   -0.3821 C   0  0  0  0  0  0  0  0  0  0  0  0
   -3.5894   -6.0016   -0.4422 C   0  0  0  0  0  0  0  0  0  0  0  0
   -4.9026   -5.7712   -0.0096 C   0  0  0  0  0  0  0  0  0  0  0  0
   -5.8779   -6.7664   -0.1036 C   0  0  0  0  0  0  0  0  0  0  0  0
   -5.5308   -8.0134   -0.6297 C   0  0  0  0  0  0  0  0  0  0  0  0
   -6.8515   -9.3824   -0.7591 Br  0  0  0  0  0  0  0  0  0  0  0  0
   -4.2255   -8.2678   -1.0583 C   0  0  0  0  0  0  0  0  0  0  0  0
   -3.2628   -7.2598   -0.9652 C   0  0  0  0  0  0  0  0  0  0  0  0
    1.0628   -5.2330   -0.1580 C   0  0  0  0  0  0  0  0  0  0  0  0
    2.2230   -4.4726   -0.1180 C   0  0  0  0  0  0  0  0  0  0  0  0
    1.6148    1.1450    2.1511 H   0  0  0  0  0  0  0  0  0  0  0  0
    1.0706   -0.4344    1.6407 H   0  0  0  0  0  0  0  0  0  0  0  0
    4.3336   -2.7920   -0.4511 H   0  0  0  0  0  0  0  0  0  0  0  0
    0.8467   -1.3670   -0.3273 H   0  0  0  0  0  0  0  0  0  0  0  0
   -1.2168   -2.6895   -0.3745 H   0  0  0  0  0  0  0  0  0  0  0  0
   -2.6405   -4.2642   -1.2973 H   0  0  0  0  0  0  0  0  0  0  0  0
   -2.7889   -4.2239    0.4771 H   0  0  0  0  0  0  0  0  0  0  0  0
   -5.1762   -4.7996    0.4127 H   0  0  0  0  0  0  0  0  0  0  0  0
   -6.8971   -6.5772    0.2369 H   0  0  0  0  0  0  0  0  0  0  0  0
   -3.9624   -9.2464   -1.4632 H   0  0  0  0  0  0  0  0  0  0  0  0
   -2.2410   -7.4555   -1.2941 H   0  0  0  0  0  0  0  0  0  0  0  0
    1.0997   -6.3239   -0.1360 H   0  0  0  0  0  0  0  0  0  0  0  0
    3.1913   -4.9768   -0.0625 H   0  0  0  0  0  0  0  0  0  0  0  0
  1  2  1  0
  1 23  1  0
  1 24  1  0
  2  3  2  0
  2  6  1  0
  3  4  1  0
  4  5  2  0
  4  6  1  0
  6  7  2  0
  7  8  1  0
  7 25  1  0
  8  9  2  0
  8 22  1  0
  9 10  1  0
  9 26  1  0
 10 11  2  0
 10 27  1  0
 11 12  1  0
 11 21  1  0
 12 13  1  0
 13 14  1  0
 13 28  1  0
 13 29  1  0
 14 15  2  0
 14 20  1  0
 15 16  1  0
 15 30  1  0
 16 17  2  0
 16 31  1  0
 17 18  1  0
 17 19  1  0
 19 20  2  0
 19 32  1  0
 20 33  1  0
 21 22  2  0
 21 34  1  0
 22 35  1  0
M  END

