
     RDKit          3D

 51 52  0  0  0  0  0  0  0  0999 V2000
    0.4603   -0.2154    0.3464 C   0  0  0  0  0  0  0  0  0  0  0  0
    1.8647   -0.4326    0.0316 N   0  0  0  0  0  0  0  0  0  0  0  0
    2.3849    0.2901   -1.1006 C   0  0  0  0  0  0  0  0  0  0  0  0
    2.7875    1.7435   -0.7833 C   0  0  0  0  0  0  0  0  0  0  0  0
    2.7719    2.1453    0.3626 O   0  0  0  0  0  0  0  0  0  0  0  0
    3.2047    2.6305   -1.9142 C   0  0  0  0  0  0  0  0  0  0  0  0
    3.2661    2.2080   -3.2568 C   0  0  0  0  0  0  0  0  0  0  0  0
    3.6691    3.0802   -4.2614 C   0  0  0  0  0  0  0  0  0  0  0  0
    4.0195    4.4024   -3.9431 C   0  0  0  0  0  0  0  0  0  0  0  0
    4.4016    5.1917   -4.9850 O   0  0  0  0  0  0  0  0  0  0  0  0
    4.7687    6.5447   -4.7746 C   0  0  0  0  0  0  0  0  0  0  0  0
    5.1506    7.1800   -6.1146 C   0  0  0  0  0  0  0  0  0  0  0  0
    5.4917    8.3271   -6.1822 O   0  0  0  0  0  0  0  0  0  0  0  0
    5.0733    6.3693   -7.1743 O   0  0  0  0  0  0  0  0  0  0  0  0
    3.9645    4.8428   -2.6111 C   0  0  0  0  0  0  0  0  0  0  0  0
    3.5608    3.9554   -1.6157 C   0  0  0  0  0  0  0  0  0  0  0  0
    2.6573   -1.0901    0.9578 C   0  0  0  0  0  0  0  0  0  0  0  0
    2.1819   -1.5917    1.9619 O   0  0  0  0  0  0  0  0  0  0  0  0
    4.1538   -1.1771    0.6578 C   0  0  0  0  0  0  0  0  0  0  0  0
    4.9167   -1.9973    1.6963 C   0  0  0  0  0  0  0  0  0  0  0  0
    6.4267   -2.0458    1.4158 C   0  0  0  0  0  0  0  0  0  0  0  0
    7.1722   -2.9435    2.3784 C   0  0  0  0  0  0  0  0  0  0  0  0
    8.0486   -2.4274    3.3406 C   0  0  0  0  0  0  0  0  0  0  0  0
    8.6873   -3.3265    4.2048 C   0  0  0  0  0  0  0  0  0  0  0  0
    8.4368   -4.6866    4.0940 C   0  0  0  0  0  0  0  0  0  0  0  0
    7.5324   -5.1161    3.0927 C   0  0  0  0  0  0  0  0  0  0  0  0
    7.2043   -6.4435    2.9473 N   0  0  0  0  0  0  0  0  0  0  0  0
    6.9311   -4.2572    2.2620 N   0  0  0  0  0  0  0  0  0  0  0  0
   -0.1743   -0.4908   -0.5132 H   0  0  0  0  0  0  0  0  0  0  0  0
    0.2680    0.8397    0.6074 H   0  0  0  0  0  0  0  0  0  0  0  0
    0.2014   -0.8429    1.2067 H   0  0  0  0  0  0  0  0  0  0  0  0
    1.6218    0.2999   -1.8982 H   0  0  0  0  0  0  0  0  0  0  0  0
    3.2583   -0.2205   -1.5351 H   0  0  0  0  0  0  0  0  0  0  0  0
    2.9999    1.1866   -3.5346 H   0  0  0  0  0  0  0  0  0  0  0  0
    3.7189    2.7570   -5.3029 H   0  0  0  0  0  0  0  0  0  0  0  0
    5.6358    6.6307   -4.0970 H   0  0  0  0  0  0  0  0  0  0  0  0
    3.9376    7.1295   -4.3438 H   0  0  0  0  0  0  0  0  0  0  0  0
    4.7750    5.4936   -6.8691 H   0  0  0  0  0  0  0  0  0  0  0  0
    4.2326    5.8648   -2.3434 H   0  0  0  0  0  0  0  0  0  0  0  0
    3.5131    4.2766   -0.5732 H   0  0  0  0  0  0  0  0  0  0  0  0
    4.5595   -0.1510    0.6061 H   0  0  0  0  0  0  0  0  0  0  0  0
    4.3040   -1.6134   -0.3464 H   0  0  0  0  0  0  0  0  0  0  0  0
    4.5236   -3.0250    1.7210 H   0  0  0  0  0  0  0  0  0  0  0  0
    4.7301   -1.5802    2.6984 H   0  0  0  0  0  0  0  0  0  0  0  0
    6.8519   -1.0287    1.4500 H   0  0  0  0  0  0  0  0  0  0  0  0
    6.5921   -2.4326    0.3945 H   0  0  0  0  0  0  0  0  0  0  0  0
    8.2283   -1.3530    3.4098 H   0  0  0  0  0  0  0  0  0  0  0  0
    9.3810   -2.9605    4.9668 H   0  0  0  0  0  0  0  0  0  0  0  0
    8.9154   -5.4092    4.7593 H   0  0  0  0  0  0  0  0  0  0  0  0
    7.8237   -7.1479    3.3244 H   0  0  0  0  0  0  0  0  0  0  0  0
    6.7043   -6.6819    2.0992 H   0  0  0  0  0  0  0  0  0  0  0  0
  1  2  1  0
  1 29  1  0
  1 30  1  0
  1 31  1  0
  2  3  1  0
  2 17  1  0
  3  4  1  0
  3 32  1  0
  3 33  1  0
  4  5  2  0
  4  6  1  0
  6  7  2  0
  6 16  1  0
  7  8  1  0
  7 34  1  0
  8  9  2  0
  8 35  1  0
  9 10  1  0
  9 15  1  0
 10 11  1  0
 11 12  1  0
 11 36  1  0
 11 37  1  0
 12 13  2  0
 12 14  1  0
 14 38  1  0
 15 16  2  0
 15 39  1  0
 16 40  1  0
 17 18  2  0
 17 19  1  0
 19 20  1  0
 19 41  1  0
 19 42  1  0
 20 21  1  0
 20 43  1  0
 20 44  1  0
 21 22  1  0
 21 45  1  0
 21 46  1  0
 22 23  2  0
 22 28  1  0
 23 24  1  0
 23 47  1  0
 24 25  2  0
 24 48  1  0
 25 26  1  0
 25 49  1  0
 26 27  1  0
 26 28  2  0
 27 50  1  0
 27 51  1  0
M  END

