
     RDKit          3D

 30 32  0  0  0  0  0  0  0  0999 V2000
    0.8168    0.0090   -0.0446 C   0  0  0  0  0  0  0  0  0  0  0  0
    2.3415    0.1615    0.0295 C   0  0  0  0  0  0  0  0  0  0  0  0
    2.8917   -0.1010    1.4016 C   0  0  0  0  0  0  0  0  0  0  0  0
    3.6241    0.7654    2.2019 C   0  0  0  0  0  0  0  0  0  0  0  0
    3.8884    0.0702    3.3639 N   0  0  0  0  0  0  0  0  0  0  0  0
    4.5640    0.4168    4.5063 C   0  0  0  0  0  0  0  0  0  0  0  0
    4.6715   -0.4873    5.5274 C   0  0  0  0  0  0  0  0  0  0  0  0
    4.0887   -1.7948    5.4282 C   0  0  0  0  0  0  0  0  0  0  0  0
    4.2973   -2.7792    6.5544 C   0  0  1  0  0  0  0  0  0  0  0  0
    5.6270   -3.3383    6.6875 N   0  0  0  0  0  0  0  0  0  0  0  0
    3.5676   -2.5603    7.8607 C   0  0  0  0  0  0  0  0  0  0  0  0
    3.1730   -3.7011    6.9547 C   0  0  0  0  0  0  0  0  0  0  0  0
    3.4112   -2.1274    4.2723 C   0  0  0  0  0  0  0  0  0  0  0  0
    3.2923   -1.1968    3.2093 C   0  0  0  0  0  0  0  0  0  0  0  0
    2.6943   -1.2968    2.0292 N   0  0  0  0  0  0  0  0  0  0  0  0
    0.4542    0.1447   -1.0760 H   0  0  0  0  0  0  0  0  0  0  0  0
    0.3110    0.7495    0.5959 H   0  0  0  0  0  0  0  0  0  0  0  0
    0.5182   -0.9921    0.3009 H   0  0  0  0  0  0  0  0  0  0  0  0
    2.6451    1.1695   -0.2976 H   0  0  0  0  0  0  0  0  0  0  0  0
    2.8085   -0.5509   -0.6738 H   0  0  0  0  0  0  0  0  0  0  0  0
    3.9693    1.7842    2.0457 H   0  0  0  0  0  0  0  0  0  0  0  0
    4.9830    1.4239    4.5409 H   0  0  0  0  0  0  0  0  0  0  0  0
    5.2010   -0.1934    6.4361 H   0  0  0  0  0  0  0  0  0  0  0  0
    6.3134   -2.5987    6.8448 H   0  0  0  0  0  0  0  0  0  0  0  0
    5.8991   -3.8036    5.8198 H   0  0  0  0  0  0  0  0  0  0  0  0
    2.8890   -1.7060    7.9360 H   0  0  0  0  0  0  0  0  0  0  0  0
    4.1201   -2.8018    8.7723 H   0  0  0  0  0  0  0  0  0  0  0  0
    2.2202   -3.6280    6.4246 H   0  0  0  0  0  0  0  0  0  0  0  0
    3.4620   -4.7103    7.2569 H   0  0  0  0  0  0  0  0  0  0  0  0
    2.9481   -3.1061    4.1385 H   0  0  0  0  0  0  0  0  0  0  0  0
  1  2  1  0
  1 16  1  0
  1 17  1  0
  1 18  1  0
  2  3  1  0
  2 19  1  0
  2 20  1  0
  3  4  2  0
  3 15  1  0
  4  5  1  0
  4 21  1  0
  5  6  1  0
  5 14  1  0
  6  7  2  0
  6 22  1  0
  7  8  1  0
  7 23  1  0
  8  9  1  0
  8 13  2  0
  9 10  1  1
  9 11  1  0
  9 12  1  0
 10 24  1  0
 10 25  1  0
 11 12  1  0
 11 26  1  0
 11 27  1  0
 12 28  1  0
 12 29  1  0
 13 14  1  0
 13 30  1  0
 14 15  2  0
M  END

