
     RDKit          3D

 56 59  0  0  0  0  0  0  0  0999 V2000
    3.2046    1.5415    0.2998 C   0  0  0  0  0  0  0  0  0  0  0  0
    2.5524    0.2954    0.0873 O   0  0  0  0  0  0  0  0  0  0  0  0
    2.9403   -0.4998   -0.9235 C   0  0  0  0  0  0  0  0  0  0  0  0
    3.9709   -0.2082   -1.8223 C   0  0  0  0  0  0  0  0  0  0  0  0
    4.3191   -1.1090   -2.8241 C   0  0  0  0  0  0  0  0  0  0  0  0
    3.6244   -2.3481   -3.0213 C   0  0  0  0  0  0  0  0  0  0  0  0
    3.9702   -3.2543   -4.1521 C   0  0  0  0  0  0  0  0  0  0  0  0
    4.0992   -4.6486   -3.9485 C   0  0  0  0  0  0  0  0  0  0  0  0
    4.4581   -5.4903   -5.0271 C   0  0  0  0  0  0  0  0  0  0  0  0
    4.6330   -6.8970   -4.9557 C   0  0  0  0  0  0  0  0  0  0  0  0
    4.9612   -7.6609   -6.0781 C   0  0  0  0  0  0  0  0  0  0  0  0
    5.1310   -7.0285   -7.3168 C   0  0  0  0  0  0  0  0  0  0  0  0
    5.4519   -7.6851   -8.4804 O   0  0  0  0  0  0  0  0  0  0  0  0
    5.6224   -9.0808   -8.4715 C   0  0  0  0  0  0  0  0  0  0  0  0
    5.9398   -9.6093   -9.8726 C   0  0  0  0  0  0  0  0  0  0  0  0
    6.1334  -10.8019  -10.0326 O   0  0  0  0  0  0  0  0  0  0  0  0
    5.9688   -8.6475  -10.8399 N   0  0  0  0  0  0  0  0  0  0  0  0
    6.2139   -8.7828  -12.2181 C   0  0  0  0  0  0  0  0  0  0  0  0
    6.4846  -10.0138  -12.8380 C   0  0  0  0  0  0  0  0  0  0  0  0
    6.7151  -10.0571  -14.2158 C   0  0  0  0  0  0  0  0  0  0  0  0
    6.6869   -8.9071  -15.0164 C   0  0  0  0  0  0  0  0  0  0  0  0
    6.9280   -8.9688  -16.5054 C   0  0  0  0  0  0  0  0  0  0  0  0
    6.4163   -7.6845  -14.3790 C   0  0  0  0  0  0  0  0  0  0  0  0
    6.1838   -7.6186  -13.0080 C   0  0  0  0  0  0  0  0  0  0  0  0
    4.9750   -5.6313   -7.4271 C   0  0  0  0  0  0  0  0  0  0  0  0
    4.6476   -4.8790   -6.3091 C   0  0  0  0  0  0  0  0  0  0  0  0
    4.5187   -3.5350   -6.4737 O   0  0  0  0  0  0  0  0  0  0  0  0
    4.1903   -2.6529   -5.4165 C   0  0  0  0  0  0  0  0  0  0  0  0
    4.1422   -1.4603   -5.7058 O   0  0  0  0  0  0  0  0  0  0  0  0
    2.5991   -2.6335   -2.1459 C   0  0  0  0  0  0  0  0  0  0  0  0
    2.2432   -1.7558   -1.0811 C   0  0  0  0  0  0  0  0  0  0  0  0
    1.2552   -2.1968   -0.3170 O   0  0  0  0  0  0  0  0  0  0  0  0
    0.6828   -1.5274    0.8094 C   0  0  0  0  0  0  0  0  0  0  0  0
    2.7118    2.0002    1.1654 H   0  0  0  0  0  0  0  0  0  0  0  0
    3.0957    2.1982   -0.5785 H   0  0  0  0  0  0  0  0  0  0  0  0
    4.2746    1.3943    0.5192 H   0  0  0  0  0  0  0  0  0  0  0  0
    4.5226    0.7270   -1.7351 H   0  0  0  0  0  0  0  0  0  0  0  0
    5.1238   -0.8573   -3.5130 H   0  0  0  0  0  0  0  0  0  0  0  0
    3.9538   -5.0829   -2.9571 H   0  0  0  0  0  0  0  0  0  0  0  0
    4.5000   -7.3931   -3.9908 H   0  0  0  0  0  0  0  0  0  0  0  0
    5.0813   -8.7391   -5.9731 H   0  0  0  0  0  0  0  0  0  0  0  0
    4.7115   -9.6031   -8.1238 H   0  0  0  0  0  0  0  0  0  0  0  0
    6.4510   -9.3898   -7.8073 H   0  0  0  0  0  0  0  0  0  0  0  0
    5.7813   -7.7092  -10.4973 H   0  0  0  0  0  0  0  0  0  0  0  0
    6.5115  -10.9183  -12.2344 H   0  0  0  0  0  0  0  0  0  0  0  0
    6.9249  -11.0258  -14.6792 H   0  0  0  0  0  0  0  0  0  0  0  0
    7.2156   -9.9814  -16.8254 H   0  0  0  0  0  0  0  0  0  0  0  0
    7.7305   -8.2782  -16.8146 H   0  0  0  0  0  0  0  0  0  0  0  0
    6.0249   -8.6846  -17.0730 H   0  0  0  0  0  0  0  0  0  0  0  0
    6.3868   -6.7621  -14.9670 H   0  0  0  0  0  0  0  0  0  0  0  0
    5.9757   -6.6528  -12.5376 H   0  0  0  0  0  0  0  0  0  0  0  0
    5.1116   -5.1346   -8.3882 H   0  0  0  0  0  0  0  0  0  0  0  0
    2.0035   -3.5411   -2.2480 H   0  0  0  0  0  0  0  0  0  0  0  0
   -0.0982   -2.2039    1.1752 H   0  0  0  0  0  0  0  0  0  0  0  0
    0.2480   -0.5648    0.5088 H   0  0  0  0  0  0  0  0  0  0  0  0
    1.4393   -1.3578    1.5873 H   0  0  0  0  0  0  0  0  0  0  0  0
  1  2  1  0
  1 34  1  0
  1 35  1  0
  1 36  1  0
  2  3  1  0
  3  4  2  0
  3 31  1  0
  4  5  1  0
  4 37  1  0
  5  6  2  0
  5 38  1  0
  6  7  1  0
  6 30  1  0
  7  8  2  0
  7 28  1  0
  8  9  1  0
  8 39  1  0
  9 10  2  0
  9 26  1  0
 10 11  1  0
 10 40  1  0
 11 12  2  0
 11 41  1  0
 12 13  1  0
 12 25  1  0
 13 14  1  0
 14 15  1  0
 14 42  1  0
 14 43  1  0
 15 16  2  0
 15 17  1  0
 17 18  1  0
 17 44  1  0
 18 19  2  0
 18 24  1  0
 19 20  1  0
 19 45  1  0
 20 21  2  0
 20 46  1  0
 21 22  1  0
 21 23  1  0
 22 47  1  0
 22 48  1  0
 22 49  1  0
 23 24  2  0
 23 50  1  0
 24 51  1  0
 25 26  2  0
 25 52  1  0
 26 27  1  0
 27 28  1  0
 28 29  2  0
 30 31  2  0
 30 53  1  0
 31 32  1  0
 32 33  1  0
 33 54  1  0
 33 55  1  0
 33 56  1  0
M  END

