
     RDKit          3D

 46 49  0  0  0  0  0  0  0  0999 V2000
    0.9701    0.2540    0.4297 C   0  0  0  0  0  0  0  0  0  0  0  0
    2.3223   -0.0872    0.1608 O   0  0  0  0  0  0  0  0  0  0  0  0
    3.0784   -0.3822    1.2688 C   0  0  0  0  0  0  0  0  0  0  0  0
    3.6747    0.7027    1.9742 C   0  0  0  0  0  0  0  0  0  0  0  0
    3.5953    2.0418    1.4886 C   0  0  0  0  0  0  0  0  0  0  0  0
    4.1715    3.0846    2.1795 C   0  0  0  0  0  0  0  0  0  0  0  0
    4.8625    2.8383    3.3953 C   0  0  0  0  0  0  0  0  0  0  0  0
    4.9686    1.5575    3.8901 C   0  0  0  0  0  0  0  0  0  0  0  0
    4.3832    0.4535    3.2004 C   0  0  0  0  0  0  0  0  0  0  0  0
    4.4869   -0.8728    3.6961 C   0  0  0  0  0  0  0  0  0  0  0  0
    5.0939   -1.0782    4.9198 O   0  0  0  0  0  0  0  0  0  0  0  0
    4.2139   -1.0345    6.0357 C   0  0  0  0  0  0  0  0  0  0  0  0
    3.9844   -1.9267    2.9326 C   0  0  0  0  0  0  0  0  0  0  0  0
    3.2772   -1.6975    1.6909 C   0  0  0  0  0  0  0  0  0  0  0  0
    2.8947   -3.0194    1.1801 C   0  0  0  0  0  0  0  0  0  0  0  0
    2.2754   -3.4957   -0.0104 C   0  0  0  0  0  0  0  0  0  0  0  0
    1.8419   -2.6306   -1.1686 C   0  0  0  0  0  0  0  0  0  0  0  0
    2.0903   -4.8749   -0.1162 C   0  0  0  0  0  0  0  0  0  0  0  0
    2.4854   -5.7836    0.8793 C   0  0  0  0  0  0  0  0  0  0  0  0
    3.1254   -5.3377    2.0323 C   0  0  0  0  0  0  0  0  0  0  0  0
    3.5420   -6.1468    3.0505 O   0  0  0  0  0  0  0  0  0  0  0  0
    3.3311   -7.5349    2.9457 C   0  0  0  0  0  0  0  0  0  0  0  0
    3.3508   -3.9476    2.1579 C   0  0  0  0  0  0  0  0  0  0  0  0
    4.0157   -3.2899    3.1891 N   0  0  0  0  0  0  0  0  0  0  0  0
    4.8543   -3.9470    4.1864 C   0  0  0  0  0  0  0  0  0  0  0  0
    0.4929    0.4667   -0.5376 H   0  0  0  0  0  0  0  0  0  0  0  0
    0.8962    1.1494    1.0716 H   0  0  0  0  0  0  0  0  0  0  0  0
    0.4348   -0.5771    0.9221 H   0  0  0  0  0  0  0  0  0  0  0  0
    3.0904    2.2180    0.5379 H   0  0  0  0  0  0  0  0  0  0  0  0
    4.1109    4.1022    1.7854 H   0  0  0  0  0  0  0  0  0  0  0  0
    5.3270    3.6697    3.9322 H   0  0  0  0  0  0  0  0  0  0  0  0
    5.5257    1.3589    4.8068 H   0  0  0  0  0  0  0  0  0  0  0  0
    4.8283   -1.1677    6.9379 H   0  0  0  0  0  0  0  0  0  0  0  0
    3.4598   -1.8409    5.9899 H   0  0  0  0  0  0  0  0  0  0  0  0
    3.6885   -0.0654    6.0955 H   0  0  0  0  0  0  0  0  0  0  0  0
    2.6004   -1.8850   -1.4381 H   0  0  0  0  0  0  0  0  0  0  0  0
    0.9188   -2.0731   -0.9441 H   0  0  0  0  0  0  0  0  0  0  0  0
    1.6368   -3.2597   -2.0475 H   0  0  0  0  0  0  0  0  0  0  0  0
    1.6206   -5.2722   -1.0196 H   0  0  0  0  0  0  0  0  0  0  0  0
    2.2938   -6.8462    0.7309 H   0  0  0  0  0  0  0  0  0  0  0  0
    2.2567   -7.7837    2.8715 H   0  0  0  0  0  0  0  0  0  0  0  0
    3.7376   -7.9844    3.8620 H   0  0  0  0  0  0  0  0  0  0  0  0
    3.8539   -7.9669    2.0728 H   0  0  0  0  0  0  0  0  0  0  0  0
    5.5174   -4.6777    3.7029 H   0  0  0  0  0  0  0  0  0  0  0  0
    4.2466   -4.4855    4.9285 H   0  0  0  0  0  0  0  0  0  0  0  0
    5.4590   -3.1857    4.6861 H   0  0  0  0  0  0  0  0  0  0  0  0
  1  2  1  0
  1 26  1  0
  1 27  1  0
  1 28  1  0
  2  3  1  0
  3  4  2  0
  3 14  1  0
  4  5  1  0
  4  9  1  0
  5  6  2  0
  5 29  1  0
  6  7  1  0
  6 30  1  0
  7  8  2  0
  7 31  1  0
  8  9  1  0
  8 32  1  0
  9 10  2  0
 10 11  1  0
 10 13  1  0
 11 12  1  0
 12 33  1  0
 12 34  1  0
 12 35  1  0
 13 14  2  0
 13 24  1  0
 14 15  1  0
 15 16  2  0
 15 23  1  0
 16 17  1  0
 16 18  1  0
 17 36  1  0
 17 37  1  0
 17 38  1  0
 18 19  2  0
 18 39  1  0
 19 20  1  0
 19 40  1  0
 20 21  1  0
 20 23  2  0
 21 22  1  0
 22 41  1  0
 22 42  1  0
 22 43  1  0
 23 24  1  0
 24 25  1  0
 25 44  1  0
 25 45  1  0
 25 46  1  0
M  END

