
     RDKit          3D

 27 28  0  0  0  0  0  0  0  0999 V2000
    1.3796    0.6050   -1.0931 C   0  0  0  0  0  0  0  0  0  0  0  0
    2.6381    0.1925   -0.4124 C   0  0  0  0  0  0  0  0  0  0  0  0
    3.5887    1.1609   -0.2650 O   0  0  0  0  0  0  0  0  0  0  0  0
    4.6508    0.6047    0.3700 C   0  0  0  0  0  0  0  0  0  0  0  0
    4.4058   -0.7080    0.6375 C   0  0  0  0  0  0  0  0  0  0  0  0
    3.0847   -0.9906    0.1260 C   0  0  0  0  0  0  0  0  0  0  0  0
    2.3608   -2.3054    0.1777 C   0  0  1  0  0  0  0  0  0  0  0  0
    3.0462   -3.4579   -0.5911 C   0  0  0  0  0  0  0  0  0  0  0  0
    2.4385   -4.6330    0.0108 N   0  0  0  0  0  0  0  0  0  0  0  0
    2.4890   -4.4241    1.4596 C   0  0  2  0  0  0  0  0  0  0  0  0
    1.5430   -5.3581    2.2057 C   0  0  0  0  0  0  0  0  0  0  0  0
    2.1641   -2.9141    1.6024 C   0  0  0  0  0  0  0  0  0  0  0  0
    1.5750    0.9617   -2.1187 H   0  0  0  0  0  0  0  0  0  0  0  0
    0.8810    1.4267   -0.5515 H   0  0  0  0  0  0  0  0  0  0  0  0
    0.6794   -0.2390   -1.1536 H   0  0  0  0  0  0  0  0  0  0  0  0
    5.4959    1.2618    0.5594 H   0  0  0  0  0  0  0  0  0  0  0  0
    5.0801   -1.3999    1.1389 H   0  0  0  0  0  0  0  0  0  0  0  0
    1.3648   -2.1749   -0.2711 H   0  0  0  0  0  0  0  0  0  0  0  0
    4.1485   -3.4015   -0.4427 H   0  0  0  0  0  0  0  0  0  0  0  0
    2.8572   -3.4102   -1.6758 H   0  0  0  0  0  0  0  0  0  0  0  0
    2.8817   -5.5047   -0.2744 H   0  0  0  0  0  0  0  0  0  0  0  0
    3.5196   -4.5877    1.8516 H   0  0  0  0  0  0  0  0  0  0  0  0
    0.5098   -5.2170    1.8502 H   0  0  0  0  0  0  0  0  0  0  0  0
    1.5727   -5.1698    3.2912 H   0  0  0  0  0  0  0  0  0  0  0  0
    1.8158   -6.4145    2.0442 H   0  0  0  0  0  0  0  0  0  0  0  0
    2.8226   -2.4356    2.3424 H   0  0  0  0  0  0  0  0  0  0  0  0
    1.1291   -2.7628    1.9462 H   0  0  0  0  0  0  0  0  0  0  0  0
  1  2  1  0
  1 13  1  0
  1 14  1  0
  1 15  1  0
  2  3  1  0
  2  6  2  0
  3  4  1  0
  4  5  2  0
  4 16  1  0
  5  6  1  0
  5 17  1  0
  6  7  1  0
  7  8  1  0
  7 12  1  0
  7 18  1  6
  8  9  1  0
  8 19  1  0
  8 20  1  0
  9 10  1  0
  9 21  1  0
 10 11  1  0
 10 12  1  0
 10 22  1  1
 11 23  1  0
 11 24  1  0
 11 25  1  0
 12 26  1  0
 12 27  1  0
M  END

