
     RDKit          3D

 48 51  0  0  0  0  0  0  0  0999 V2000
    4.7645    3.1898   -2.9881 C   0  0  0  0  0  0  0  0  0  0  0  0
    5.2771    1.8017   -2.9330 C   0  0  0  0  0  0  0  0  0  0  0  0
    5.8068    0.9782   -3.9025 C   0  0  0  0  0  0  0  0  0  0  0  0
    6.1348   -0.2311   -3.2529 C   0  0  0  0  0  0  0  0  0  0  0  0
    6.7543   -1.4557   -3.7787 C   0  0  0  0  0  0  0  0  0  0  0  0
    5.7611   -0.0474   -1.9077 N   0  0  0  0  0  0  0  0  0  0  0  0
    5.8061   -1.1080   -0.8648 C   0  0  0  0  0  0  0  0  0  0  0  0
    6.3070   -0.8253    0.4035 C   0  0  0  0  0  0  0  0  0  0  0  0
    6.4003   -1.9891    1.2427 C   0  0  0  0  0  0  0  0  0  0  0  0
    5.9768   -3.2142    0.7759 C   0  0  0  0  0  0  0  0  0  0  0  0
    6.3241   -4.6113    1.7894 Cl  0  0  0  0  0  0  0  0  0  0  0  0
    5.4006   -3.3732   -0.5357 C   0  0  0  0  0  0  0  0  0  0  0  0
    5.0794   -4.6013   -1.2733 C   0  0  0  0  0  0  0  0  0  0  0  0
    5.3483   -4.6984   -2.4805 O   0  0  0  0  0  0  0  0  0  0  0  0
    4.4433   -5.6442   -0.6013 N   0  0  0  0  0  0  0  0  0  0  0  0
    3.4077   -5.4220    0.4250 C   0  0  0  0  0  0  0  0  0  0  0  0
    2.7824   -6.8054    0.5327 C   0  0  1  0  0  0  0  0  0  0  0  0
    1.4847   -6.8518    1.0743 O   0  0  0  0  0  0  0  0  0  0  0  0
    1.0305   -8.1948    1.0504 C   0  0  0  0  0  0  0  0  0  0  0  0
    1.0824   -8.8087   -0.3535 C   0  0  0  0  0  0  0  0  0  0  0  0
    2.4132   -8.7013   -0.9495 N   0  0  0  0  0  0  0  0  0  0  0  0
    2.4729   -9.2954   -2.2704 C   0  0  0  0  0  0  0  0  0  0  0  0
    2.8223   -7.3089   -0.9063 C   0  0  2  0  0  0  0  0  0  0  0  0
    4.2432   -6.9207   -1.3096 C   0  0  0  0  0  0  0  0  0  0  0  0
    5.3862   -2.2358   -1.3324 N   0  0  0  0  0  0  0  0  0  0  0  0
    5.2534    1.1157   -1.6983 N   0  0  0  0  0  0  0  0  0  0  0  0
    4.8325    3.6035   -4.0018 H   0  0  0  0  0  0  0  0  0  0  0  0
    5.3299    3.8338   -2.2937 H   0  0  0  0  0  0  0  0  0  0  0  0
    3.7141    3.2192   -2.6528 H   0  0  0  0  0  0  0  0  0  0  0  0
    5.9590    1.1953   -4.9561 H   0  0  0  0  0  0  0  0  0  0  0  0
    6.9737   -1.3512   -4.8484 H   0  0  0  0  0  0  0  0  0  0  0  0
    6.1131   -2.3312   -3.5647 H   0  0  0  0  0  0  0  0  0  0  0  0
    7.6861   -1.6691   -3.2259 H   0  0  0  0  0  0  0  0  0  0  0  0
    6.6418    0.1573    0.7244 H   0  0  0  0  0  0  0  0  0  0  0  0
    6.8615   -1.9229    2.2284 H   0  0  0  0  0  0  0  0  0  0  0  0
    2.6510   -4.6862    0.0952 H   0  0  0  0  0  0  0  0  0  0  0  0
    3.8264   -5.0827    1.3810 H   0  0  0  0  0  0  0  0  0  0  0  0
    3.4514   -7.4618    1.1284 H   0  0  0  0  0  0  0  0  0  0  0  0
   -0.0061   -8.1931    1.4202 H   0  0  0  0  0  0  0  0  0  0  0  0
    1.6451   -8.8111    1.7378 H   0  0  0  0  0  0  0  0  0  0  0  0
    0.3176   -8.3039   -0.9904 H   0  0  0  0  0  0  0  0  0  0  0  0
    0.7979   -9.8727   -0.2866 H   0  0  0  0  0  0  0  0  0  0  0  0
    2.1957  -10.3609   -2.2160 H   0  0  0  0  0  0  0  0  0  0  0  0
    3.4957   -9.2351   -2.6718 H   0  0  0  0  0  0  0  0  0  0  0  0
    1.7901   -8.8049   -3.0029 H   0  0  0  0  0  0  0  0  0  0  0  0
    2.1135   -6.6744   -1.4919 H   0  0  0  0  0  0  0  0  0  0  0  0
    4.3836   -6.7618   -2.3859 H   0  0  0  0  0  0  0  0  0  0  0  0
    4.9640   -7.6884   -0.9680 H   0  0  0  0  0  0  0  0  0  0  0  0
  1  2  1  0
  1 27  1  0
  1 28  1  0
  1 29  1  0
  2  3  1  0
  2 26  2  0
  3  4  2  0
  3 30  1  0
  4  5  1  0
  4  6  1  0
  5 31  1  0
  5 32  1  0
  5 33  1  0
  6  7  1  0
  6 26  1  0
  7  8  2  0
  7 25  1  0
  8  9  1  0
  8 34  1  0
  9 10  2  0
  9 35  1  0
 10 11  1  0
 10 12  1  0
 12 13  1  0
 12 25  2  0
 13 14  2  0
 13 15  1  0
 15 16  1  0
 15 24  1  0
 16 17  1  0
 16 36  1  0
 16 37  1  0
 17 18  1  0
 17 23  1  0
 17 38  1  1
 18 19  1  0
 19 20  1  0
 19 39  1  0
 19 40  1  0
 20 21  1  0
 20 41  1  0
 20 42  1  0
 21 22  1  0
 21 23  1  0
 22 43  1  0
 22 44  1  0
 22 45  1  0
 23 24  1  0
 23 46  1  6
 24 47  1  0
 24 48  1  0
M  END

