
     RDKit          3D

 64 67  0  0  0  0  0  0  0  0999 V2000
    7.2576   -1.3432    5.8566 O   0  0  0  0  0  0  0  0  0  0  0  0
    7.4363   -1.4094    4.6558 C   0  0  0  0  0  0  0  0  0  0  0  0
    6.6133   -0.5481    3.6941 C   0  0  0  0  0  0  0  0  0  0  0  0
    6.4078   -0.9907    2.2393 C   0  0  0  0  0  0  0  0  0  0  0  0
    5.9126    0.1424    1.3034 C   0  0  0  0  0  0  0  0  0  0  0  0
    6.9559    0.8363    0.5480 N   0  0  0  0  0  0  0  0  0  0  0  0
    7.1078    0.7655   -0.8209 C   0  0  0  0  0  0  0  0  0  0  0  0
    7.8649    1.5212   -1.4157 O   0  0  0  0  0  0  0  0  0  0  0  0
    6.3321   -0.2586   -1.6184 C   0  0  0  0  0  0  0  0  0  0  0  0
    5.7245    0.1797   -2.8078 C   0  0  0  0  0  0  0  0  0  0  0  0
    5.0707   -0.7179   -3.6479 C   0  0  0  0  0  0  0  0  0  0  0  0
    5.0411   -2.0882   -3.3404 C   0  0  0  0  0  0  0  0  0  0  0  0
    4.3218   -3.0687   -4.2469 C   0  0  0  0  0  0  0  0  0  0  0  0
    4.7455   -2.9975   -5.6410 N   0  0  0  0  0  0  0  0  0  0  0  0
    5.8177   -3.5241   -6.2705 C   0  0  0  0  0  0  0  0  0  0  0  0
    5.7976   -3.1399   -7.5279 N   0  0  0  0  0  0  0  0  0  0  0  0
    4.6990   -2.3613   -7.6587 N   0  0  0  0  0  0  0  0  0  0  0  0
    4.0631   -2.2662   -6.5434 N   0  0  0  0  0  0  0  0  0  0  0  0
    5.6762   -2.5324   -2.1752 C   0  0  0  0  0  0  0  0  0  0  0  0
    6.3086   -1.6272   -1.3172 C   0  0  0  0  0  0  0  0  0  0  0  0
    7.7876    1.8434    1.2238 C   0  0  0  0  0  0  0  0  0  0  0  0
    9.2028    1.3443    1.5389 C   0  0  0  0  0  0  0  0  0  0  0  0
   10.1299    2.4231    2.1270 C   0  0  0  0  0  0  0  0  0  0  0  0
   11.3766    1.8547    2.6084 N   0  0  0  0  0  0  0  0  0  0  0  0
   11.5178    1.4388    3.8974 C   0  0  0  0  0  0  0  0  0  0  0  0
   10.6856    1.6653    4.7663 O   0  0  0  0  0  0  0  0  0  0  0  0
   12.7829    0.6547    4.1787 C   0  0  0  0  0  0  0  0  0  0  0  0
   13.8990    1.1890    3.6601 N   0  0  0  0  0  0  0  0  0  0  0  0
   15.0899    0.6888    3.9694 C   0  0  0  0  0  0  0  0  0  0  0  0
   15.2376   -0.4014    4.8369 C   0  0  0  0  0  0  0  0  0  0  0  0
   14.0934   -1.0159    5.3274 C   0  0  0  0  0  0  0  0  0  0  0  0
   12.8244   -0.5203    4.9784 C   0  0  0  0  0  0  0  0  0  0  0  0
   11.7750   -1.2606    5.4042 O   0  0  0  0  0  0  0  0  0  0  0  0
   10.5152   -1.1513    4.7584 C   0  0  0  0  0  0  0  0  0  0  0  0
    9.6684   -2.4178    4.8732 C   0  0  0  0  0  0  0  0  0  0  0  0
    8.4545   -2.1585    4.1043 N   0  0  0  0  0  0  0  0  0  0  0  0
    7.1319    0.4275    3.7204 H   0  0  0  0  0  0  0  0  0  0  0  0
    5.6444   -0.3776    4.1867 H   0  0  0  0  0  0  0  0  0  0  0  0
    5.6831   -1.8216    2.2146 H   0  0  0  0  0  0  0  0  0  0  0  0
    7.3389   -1.3862    1.8002 H   0  0  0  0  0  0  0  0  0  0  0  0
    5.3573    0.8901    1.8975 H   0  0  0  0  0  0  0  0  0  0  0  0
    5.1937   -0.2640    0.5829 H   0  0  0  0  0  0  0  0  0  0  0  0
    5.7786    1.2384   -3.0683 H   0  0  0  0  0  0  0  0  0  0  0  0
    4.5903   -0.3577   -4.5615 H   0  0  0  0  0  0  0  0  0  0  0  0
    3.2396   -2.8705   -4.2592 H   0  0  0  0  0  0  0  0  0  0  0  0
    4.4690   -4.1001   -3.8954 H   0  0  0  0  0  0  0  0  0  0  0  0
    6.5614   -4.1618   -5.7963 H   0  0  0  0  0  0  0  0  0  0  0  0
    5.6824   -3.5984   -1.9299 H   0  0  0  0  0  0  0  0  0  0  0  0
    6.8076   -2.0041   -0.4225 H   0  0  0  0  0  0  0  0  0  0  0  0
    7.2717    2.1478    2.1477 H   0  0  0  0  0  0  0  0  0  0  0  0
    7.8504    2.7236    0.5661 H   0  0  0  0  0  0  0  0  0  0  0  0
    9.6486    0.9453    0.6134 H   0  0  0  0  0  0  0  0  0  0  0  0
    9.1447    0.5127    2.2600 H   0  0  0  0  0  0  0  0  0  0  0  0
    9.6461    2.9135    2.9851 H   0  0  0  0  0  0  0  0  0  0  0  0
   10.3460    3.1981    1.3740 H   0  0  0  0  0  0  0  0  0  0  0  0
   12.1556    1.7012    1.9777 H   0  0  0  0  0  0  0  0  0  0  0  0
   15.9638    1.1729    3.5199 H   0  0  0  0  0  0  0  0  0  0  0  0
   16.2301   -0.7766    5.0969 H   0  0  0  0  0  0  0  0  0  0  0  0
   14.1399   -1.9026    5.9635 H   0  0  0  0  0  0  0  0  0  0  0  0
   10.6816   -0.9457    3.6849 H   0  0  0  0  0  0  0  0  0  0  0  0
    9.9550   -0.3062    5.1782 H   0  0  0  0  0  0  0  0  0  0  0  0
    9.3830   -2.6141    5.9150 H   0  0  0  0  0  0  0  0  0  0  0  0
   10.1897   -3.3026    4.4761 H   0  0  0  0  0  0  0  0  0  0  0  0
    8.5826   -2.0829    3.1019 H   0  0  0  0  0  0  0  0  0  0  0  0
  1  2  2  0
  2  3  1  0
  2 36  1  0
  3  4  1  0
  3 37  1  0
  3 38  1  0
  4  5  1  0
  4 39  1  0
  4 40  1  0
  5  6  1  0
  5 41  1  0
  5 42  1  0
  6  7  1  0
  6 21  1  0
  7  8  2  0
  7  9  1  0
  9 10  2  0
  9 20  1  0
 10 11  1  0
 10 43  1  0
 11 12  2  0
 11 44  1  0
 12 13  1  0
 12 19  1  0
 13 14  1  0
 13 45  1  0
 13 46  1  0
 14 15  1  0
 14 18  1  0
 15 16  2  0
 15 47  1  0
 16 17  1  0
 17 18  2  0
 19 20  2  0
 19 48  1  0
 20 49  1  0
 21 22  1  0
 21 50  1  0
 21 51  1  0
 22 23  1  0
 22 52  1  0
 22 53  1  0
 23 24  1  0
 23 54  1  0
 23 55  1  0
 24 25  1  0
 24 56  1  0
 25 26  2  0
 25 27  1  0
 27 28  1  0
 27 32  2  0
 28 29  2  0
 29 30  1  0
 29 57  1  0
 30 31  2  0
 30 58  1  0
 31 32  1  0
 31 59  1  0
 32 33  1  0
 33 34  1  0
 34 35  1  0
 34 60  1  0
 34 61  1  0
 35 36  1  0
 35 62  1  0
 35 63  1  0
 36 64  1  0
M  END

