
     RDKit          3D

 27 28  0  0  0  0  0  0  0  0999 V2000
    2.1832    1.3950    0.0795 C   0  0  0  0  0  0  0  0  0  0  0  0
    1.7822    0.2920    0.8909 O   0  0  0  0  0  0  0  0  0  0  0  0
    2.6548   -0.0461    1.8841 C   0  0  0  0  0  0  0  0  0  0  0  0
    2.6602    0.7216    3.1288 C   0  0  0  0  0  0  0  0  0  0  0  0
    3.6160    0.3933    3.9915 N   0  0  0  0  0  0  0  0  0  0  0  0
    4.5337   -0.5255    3.9006 C   0  0  0  0  0  0  0  0  0  0  0  0
    4.5400   -1.2783    2.7468 N   0  0  0  0  0  0  0  0  0  0  0  0
    3.6336   -1.0466    1.7650 C   0  0  0  0  0  0  0  0  0  0  0  0
    3.7886   -1.8551    0.6542 N   0  0  0  0  0  0  0  0  0  0  0  0
    2.7026   -2.3733   -0.1640 C   0  0  1  0  0  0  0  0  0  0  0  0
    3.2117   -2.8809   -1.5205 C   0  0  0  0  0  0  0  0  0  0  0  0
    2.0361   -3.5651   -2.2149 C   0  0  0  0  0  0  0  0  0  0  0  0
    1.0485   -4.4041   -0.8850 S   0  0  0  0  0  0  0  0  0  0  0  0
    1.9513   -3.5590    0.4780 C   0  0  0  0  0  0  0  0  0  0  0  0
    1.3844    1.5654   -0.6563 H   0  0  0  0  0  0  0  0  0  0  0  0
    3.1315    1.1808   -0.4436 H   0  0  0  0  0  0  0  0  0  0  0  0
    2.3155    2.3055    0.6897 H   0  0  0  0  0  0  0  0  0  0  0  0
    1.9418    1.5045    3.3627 H   0  0  0  0  0  0  0  0  0  0  0  0
    5.2520   -0.7093    4.6984 H   0  0  0  0  0  0  0  0  0  0  0  0
    4.5512   -2.5127    0.7977 H   0  0  0  0  0  0  0  0  0  0  0  0
    1.9823   -1.5624   -0.3306 H   0  0  0  0  0  0  0  0  0  0  0  0
    4.0276   -3.6068   -1.3521 H   0  0  0  0  0  0  0  0  0  0  0  0
    3.6233   -2.0581   -2.1266 H   0  0  0  0  0  0  0  0  0  0  0  0
    2.3572   -4.3142   -2.9527 H   0  0  0  0  0  0  0  0  0  0  0  0
    1.3917   -2.8335   -2.7265 H   0  0  0  0  0  0  0  0  0  0  0  0
    2.6657   -4.2549    0.9484 H   0  0  0  0  0  0  0  0  0  0  0  0
    1.2365   -3.2257    1.2441 H   0  0  0  0  0  0  0  0  0  0  0  0
  1  2  1  0
  1 15  1  0
  1 16  1  0
  1 17  1  0
  2  3  1  0
  3  4  2  0
  3  8  1  0
  4  5  1  0
  4 18  1  0
  5  6  2  0
  6  7  1  0
  6 19  1  0
  7  8  2  0
  8  9  1  0
  9 10  1  0
  9 20  1  0
 10 11  1  0
 10 14  1  0
 10 21  1  6
 11 12  1  0
 11 22  1  0
 11 23  1  0
 12 13  1  0
 12 24  1  0
 12 25  1  0
 13 14  1  0
 14 26  1  0
 14 27  1  0
M  END

