
     RDKit          3D

 39 40  0  0  0  0  0  0  0  0999 V2000
    2.6031   -0.0984    2.0409 C   0  0  0  0  0  0  0  0  0  0  0  0
    3.3032   -0.0650    0.8122 O   0  0  0  0  0  0  0  0  0  0  0  0
    3.3437    1.0825    0.1029 C   0  0  0  0  0  0  0  0  0  0  0  0
    2.8041    2.3018    0.5330 C   0  0  0  0  0  0  0  0  0  0  0  0
    2.8980    3.4507   -0.2656 C   0  0  0  0  0  0  0  0  0  0  0  0
    2.3030    4.8046    0.2038 C   0  0  2  0  0  0  0  0  0  0  0  0
    3.4321    5.8204    0.4464 C   0  0  0  0  0  0  0  0  0  0  0  0
    1.5780    4.6453    1.4752 N   0  0  0  0  0  0  0  0  0  0  0  0
    0.3244    4.1481    1.5887 C   0  0  0  0  0  0  0  0  0  0  0  0
   -0.3047    3.4915    2.9859 S   0  0  0  0  0  0  0  0  0  0  0  0
   -0.4267    4.2370    0.4335 N   0  0  0  0  0  0  0  0  0  0  0  0
   -0.0330    4.9407   -0.6908 C   0  0  0  0  0  0  0  0  0  0  0  0
   -1.0091    5.1623   -1.6233 N   0  0  0  0  0  0  0  0  0  0  0  0
    1.2787    5.3355   -0.8066 C   0  0  0  0  0  0  0  0  0  0  0  0
    1.6612    6.1703   -1.8829 C   0  0  0  0  0  0  0  0  0  0  0  0
    1.9516    6.8577   -2.7796 N   0  0  0  0  0  0  0  0  0  0  0  0
    3.5491    3.3760   -1.5033 C   0  0  0  0  0  0  0  0  0  0  0  0
    4.0870    2.1590   -1.9339 C   0  0  0  0  0  0  0  0  0  0  0  0
    5.0712    2.0624   -3.8121 I   0  0  0  0  0  0  0  0  0  0  0  0
    3.9907    1.0095   -1.1492 C   0  0  0  0  0  0  0  0  0  0  0  0
    4.5630   -0.1768   -1.5454 O   0  0  0  0  0  0  0  0  0  0  0  0
    3.7430   -1.2255   -1.8989 C   0  0  0  0  0  0  0  0  0  0  0  0
    4.5763   -2.4443   -2.1869 C   0  0  0  0  0  0  0  0  0  0  0  0
    2.5514   -1.1341   -1.9641 O   0  0  0  0  0  0  0  0  0  0  0  0
    2.6518   -1.1359    2.3958 H   0  0  0  0  0  0  0  0  0  0  0  0
    1.5465    0.1948    1.9186 H   0  0  0  0  0  0  0  0  0  0  0  0
    3.0700    0.5612    2.7935 H   0  0  0  0  0  0  0  0  0  0  0  0
    2.2975    2.3436    1.4947 H   0  0  0  0  0  0  0  0  0  0  0  0
    4.1309    5.4338    1.2051 H   0  0  0  0  0  0  0  0  0  0  0  0
    3.0164    6.7790    0.7905 H   0  0  0  0  0  0  0  0  0  0  0  0
    4.0038    5.9975   -0.4740 H   0  0  0  0  0  0  0  0  0  0  0  0
    2.1229    4.5995    2.3300 H   0  0  0  0  0  0  0  0  0  0  0  0
   -1.3471    3.8135    0.4796 H   0  0  0  0  0  0  0  0  0  0  0  0
   -1.9484    5.3554   -1.2907 H   0  0  0  0  0  0  0  0  0  0  0  0
   -0.7347    5.6956   -2.4420 H   0  0  0  0  0  0  0  0  0  0  0  0
    3.6276    4.2522   -2.1476 H   0  0  0  0  0  0  0  0  0  0  0  0
    5.3313   -2.2091   -2.9521 H   0  0  0  0  0  0  0  0  0  0  0  0
    3.9289   -3.2612   -2.5263 H   0  0  0  0  0  0  0  0  0  0  0  0
    5.1162   -2.7428   -1.2750 H   0  0  0  0  0  0  0  0  0  0  0  0
  1  2  1  0
  1 25  1  0
  1 26  1  0
  1 27  1  0
  2  3  1  0
  3  4  2  0
  3 20  1  0
  4  5  1  0
  4 28  1  0
  5  6  1  0
  5 17  2  0
  6  7  1  1
  6  8  1  0
  6 14  1  0
  7 29  1  0
  7 30  1  0
  7 31  1  0
  8  9  1  0
  8 32  1  0
  9 10  2  0
  9 11  1  0
 11 12  1  0
 11 33  1  0
 12 13  1  0
 12 14  2  0
 13 34  1  0
 13 35  1  0
 14 15  1  0
 15 16  3  0
 17 18  1  0
 17 36  1  0
 18 19  1  0
 18 20  2  0
 20 21  1  0
 21 22  1  0
 22 23  1  0
 22 24  2  0
 23 37  1  0
 23 38  1  0
 23 39  1  0
M  END

