
     RDKit          3D

 31 32  0  0  0  0  0  0  0  0999 V2000
    0.7003    0.4815    0.3516 C   0  0  0  0  0  0  0  0  0  0  0  0
    2.1416    0.1337    0.0795 C   0  0  0  0  0  0  0  0  0  0  0  0
    3.0767    1.1065   -0.2910 C   0  0  0  0  0  0  0  0  0  0  0  0
    2.7494    2.4161   -0.4590 N   0  0  0  0  0  0  0  0  0  0  0  0
    4.4590    0.7530   -0.5088 C   0  0  0  0  0  0  0  0  0  0  0  0
    4.8884   -0.5638   -0.3750 C   0  0  0  0  0  0  0  0  0  0  0  0
    3.9829   -1.5531   -0.0427 C   0  0  0  0  0  0  0  0  0  0  0  0
    2.5791   -1.2256    0.1656 C   0  0  0  0  0  0  0  0  0  0  0  0
    1.7364   -2.2161    0.4338 N   0  0  0  0  0  0  0  0  0  0  0  0
    2.1047   -3.6643    0.7400 C   0  0  0  0  0  0  0  0  0  0  0  0
    2.5387   -3.8488    1.8831 O   0  0  0  0  0  0  0  0  0  0  0  0
    1.8507   -4.5849   -0.3062 C   0  0  0  0  0  0  0  0  0  0  0  0
    1.3252   -4.2444   -1.6015 C   0  0  0  0  0  0  0  0  0  0  0  0
    1.1249   -5.2364   -2.5381 C   0  0  0  0  0  0  0  0  0  0  0  0
    0.6325   -4.8888   -3.7480 F   0  0  0  0  0  0  0  0  0  0  0  0
    1.3986   -6.5925   -2.3101 C   0  0  0  0  0  0  0  0  0  0  0  0
    1.9044   -6.9152   -1.0327 C   0  0  0  0  0  0  0  0  0  0  0  0
    2.2892   -8.7585   -0.6636 Br  0  0  0  0  0  0  0  0  0  0  0  0
    2.1305   -5.9751   -0.0513 C   0  0  0  0  0  0  0  0  0  0  0  0
    0.5722    1.5395    0.6245 H   0  0  0  0  0  0  0  0  0  0  0  0
    0.3065   -0.0881    1.2089 H   0  0  0  0  0  0  0  0  0  0  0  0
    0.0408    0.2781   -0.5106 H   0  0  0  0  0  0  0  0  0  0  0  0
    1.7930    2.7346   -0.4062 H   0  0  0  0  0  0  0  0  0  0  0  0
    3.4497    3.0889   -0.7373 H   0  0  0  0  0  0  0  0  0  0  0  0
    5.1646    1.5409   -0.7793 H   0  0  0  0  0  0  0  0  0  0  0  0
    5.9391   -0.8137   -0.5290 H   0  0  0  0  0  0  0  0  0  0  0  0
    4.2966   -2.5850    0.0832 H   0  0  0  0  0  0  0  0  0  0  0  0
    0.7774   -1.9583    0.6489 H   0  0  0  0  0  0  0  0  0  0  0  0
    1.0728   -3.2214   -1.8753 H   0  0  0  0  0  0  0  0  0  0  0  0
    1.2207   -7.3377   -3.0819 H   0  0  0  0  0  0  0  0  0  0  0  0
    2.5189   -6.2556    0.9264 H   0  0  0  0  0  0  0  0  0  0  0  0
  1  2  1  0
  1 20  1  0
  1 21  1  0
  1 22  1  0
  2  3  2  0
  2  8  1  0
  3  4  1  0
  3  5  1  0
  4 23  1  0
  4 24  1  0
  5  6  2  0
  5 25  1  0
  6  7  1  0
  6 26  1  0
  7  8  2  0
  7 27  1  0
  8  9  1  0
  9 10  1  0
  9 28  1  0
 10 11  2  0
 10 12  1  0
 12 13  2  0
 12 19  1  0
 13 14  1  0
 13 29  1  0
 14 15  1  0
 14 16  2  0
 16 17  1  0
 16 30  1  0
 17 18  1  0
 17 19  2  0
 19 31  1  0
M  END

