
     RDKit          3D

 73 77  0  0  0  0  0  0  0  0999 V2000
    7.1517    5.6474    0.1063 C   0  0  0  0  0  0  0  0  0  0  0  0
    7.1121    4.1207    0.0274 C   0  0  0  0  0  0  0  0  0  0  0  0
    7.6694    3.5616   -1.2856 C   0  0  0  0  0  0  0  0  0  0  0  0
    7.6340    2.0332   -1.3713 C   0  0  0  0  0  0  0  0  0  0  0  0
    8.1929    1.4763   -2.6844 C   0  0  0  0  0  0  0  0  0  0  0  0
    8.1560   -0.0535   -2.7581 C   0  0  0  0  0  0  0  0  0  0  0  0
    8.7139   -0.5845   -4.0682 C   0  0  0  0  0  0  0  0  0  0  0  0
    8.6440   -2.0123   -4.0437 O   0  0  0  0  0  0  0  0  0  0  0  0
    9.0714   -2.7679   -5.0611 C   0  0  0  0  0  0  0  0  0  0  0  0
    9.6161   -2.1724   -6.2345 C   0  0  0  0  0  0  0  0  0  0  0  0
   10.0578   -2.9372   -7.2918 C   0  0  0  0  0  0  0  0  0  0  0  0
    9.9900   -4.3584   -7.2084 C   0  0  0  0  0  0  0  0  0  0  0  0
   10.4050   -5.2118   -8.2426 C   0  0  0  0  0  0  0  0  0  0  0  0
   10.6796   -6.1080   -9.0532 C   0  0  0  0  0  0  0  0  0  0  0  0
   10.9095   -7.2022   -9.9093 C   0  0  0  0  0  0  0  0  0  0  0  0
   11.5282   -6.9873  -11.1659 C   0  0  0  0  0  0  0  0  0  0  0  0
   11.5958   -7.9898  -12.1251 C   0  0  0  0  0  0  0  0  0  0  0  0
   10.9853   -9.2416  -11.8443 C   0  0  0  0  0  0  0  0  0  0  0  0
   10.3863   -9.4868  -10.6161 C   0  0  0  0  0  0  0  0  0  0  0  0
   10.3731   -8.5278   -9.5758 C   0  0  0  0  0  0  0  0  0  0  0  0
    9.8267   -8.9620   -8.2808 C   0  0  0  0  0  0  0  0  0  0  0  0
    9.1809   -9.9825   -8.1210 O   0  0  0  0  0  0  0  0  0  0  0  0
   10.0965   -8.1839   -7.1708 O   0  0  0  0  0  0  0  0  0  0  0  0
    9.4529   -4.9343   -6.0193 C   0  0  0  0  0  0  0  0  0  0  0  0
    8.9702   -4.1993   -4.9417 C   0  0  0  0  0  0  0  0  0  0  0  0
    8.3892   -4.9999   -3.7540 C   0  0  2  0  0  0  0  0  0  0  0  0
    9.4993   -5.9417   -3.1871 C   0  0  0  0  0  0  0  0  0  0  0  0
    8.9408   -6.8490   -2.0748 C   0  0  1  0  0  0  0  0  0  0  0  0
    8.4066   -5.9844   -0.9197 C   0  0  0  0  0  0  0  0  0  0  0  0
    7.2860   -5.0743   -1.4523 C   0  0  2  0  0  0  0  0  0  0  0  0
    6.1368   -5.9357   -2.0044 C   0  0  0  0  0  0  0  0  0  0  0  0
    6.6706   -6.7999   -3.1593 C   0  0  2  0  0  0  0  0  0  0  0  0
    7.7997   -7.7138   -2.6450 C   0  0  0  0  0  0  0  0  0  0  0  0
    7.2164   -5.8910   -4.2760 C   0  0  0  0  0  0  0  0  0  0  0  0
    7.8411   -4.1637   -2.5664 C   0  0  0  0  0  0  0  0  0  0  0  0
    6.7464    6.0138    1.0627 H   0  0  0  0  0  0  0  0  0  0  0  0
    6.5597    6.1066   -0.7032 H   0  0  0  0  0  0  0  0  0  0  0  0
    8.1833    6.0270    0.0150 H   0  0  0  0  0  0  0  0  0  0  0  0
    6.0719    3.7706    0.1576 H   0  0  0  0  0  0  0  0  0  0  0  0
    7.6797    3.6921    0.8734 H   0  0  0  0  0  0  0  0  0  0  0  0
    8.7106    3.9109   -1.4173 H   0  0  0  0  0  0  0  0  0  0  0  0
    7.1015    3.9885   -2.1334 H   0  0  0  0  0  0  0  0  0  0  0  0
    6.5935    1.6827   -1.2415 H   0  0  0  0  0  0  0  0  0  0  0  0
    8.2019    1.6055   -0.5245 H   0  0  0  0  0  0  0  0  0  0  0  0
    9.2333    1.8275   -2.8148 H   0  0  0  0  0  0  0  0  0  0  0  0
    7.6231    1.9012   -3.5315 H   0  0  0  0  0  0  0  0  0  0  0  0
    7.1198   -0.4137   -2.6411 H   0  0  0  0  0  0  0  0  0  0  0  0
    8.7344   -0.4872   -1.9247 H   0  0  0  0  0  0  0  0  0  0  0  0
    9.7646   -0.2711   -4.2049 H   0  0  0  0  0  0  0  0  0  0  0  0
    8.1325   -0.2034   -4.9270 H   0  0  0  0  0  0  0  0  0  0  0  0
    9.6805   -1.0879   -6.3053 H   0  0  0  0  0  0  0  0  0  0  0  0
   10.4597   -2.4656   -8.1900 H   0  0  0  0  0  0  0  0  0  0  0  0
   11.9252   -5.9915  -11.3810 H   0  0  0  0  0  0  0  0  0  0  0  0
   12.0748   -7.8049  -13.0882 H   0  0  0  0  0  0  0  0  0  0  0  0
   10.9888  -10.0272  -12.6050 H   0  0  0  0  0  0  0  0  0  0  0  0
    9.9250  -10.4530  -10.4025 H   0  0  0  0  0  0  0  0  0  0  0  0
   10.7082   -7.4744   -7.4111 H   0  0  0  0  0  0  0  0  0  0  0  0
    9.4044   -6.0231   -5.9904 H   0  0  0  0  0  0  0  0  0  0  0  0
   10.3314   -5.3283   -2.8000 H   0  0  0  0  0  0  0  0  0  0  0  0
    9.9139   -6.5687   -3.9915 H   0  0  0  0  0  0  0  0  0  0  0  0
    9.7536   -7.5005   -1.7112 H   0  0  0  0  0  0  0  0  0  0  0  0
    9.2212   -5.3743   -0.4912 H   0  0  0  0  0  0  0  0  0  0  0  0
    8.0259   -6.6250   -0.1057 H   0  0  0  0  0  0  0  0  0  0  0  0
    6.9104   -4.4331   -0.6364 H   0  0  0  0  0  0  0  0  0  0  0  0
    5.3132   -5.2912   -2.3583 H   0  0  0  0  0  0  0  0  0  0  0  0
    5.7207   -6.5751   -1.2067 H   0  0  0  0  0  0  0  0  0  0  0  0
    5.8559   -7.4165   -3.5749 H   0  0  0  0  0  0  0  0  0  0  0  0
    8.1761   -8.3501   -3.4637 H   0  0  0  0  0  0  0  0  0  0  0  0
    7.4129   -8.3921   -1.8653 H   0  0  0  0  0  0  0  0  0  0  0  0
    6.4145   -5.2404   -4.6661 H   0  0  0  0  0  0  0  0  0  0  0  0
    7.5542   -6.5153   -5.1172 H   0  0  0  0  0  0  0  0  0  0  0  0
    8.6376   -3.5278   -2.1532 H   0  0  0  0  0  0  0  0  0  0  0  0
    7.0470   -3.4873   -2.9163 H   0  0  0  0  0  0  0  0  0  0  0  0
  1  2  1  0
  1 36  1  0
  1 37  1  0
  1 38  1  0
  2  3  1  0
  2 39  1  0
  2 40  1  0
  3  4  1  0
  3 41  1  0
  3 42  1  0
  4  5  1  0
  4 43  1  0
  4 44  1  0
  5  6  1  0
  5 45  1  0
  5 46  1  0
  6  7  1  0
  6 47  1  0
  6 48  1  0
  7  8  1  0
  7 49  1  0
  7 50  1  0
  8  9  1  0
  9 10  2  0
  9 25  1  0
 10 11  1  0
 10 51  1  0
 11 12  2  0
 11 52  1  0
 12 13  1  0
 12 24  1  0
 13 14  3  0
 14 15  1  0
 15 16  2  0
 15 20  1  0
 16 17  1  0
 16 53  1  0
 17 18  2  0
 17 54  1  0
 18 19  1  0
 18 55  1  0
 19 20  2  0
 19 56  1  0
 20 21  1  0
 21 22  2  0
 21 23  1  0
 23 57  1  0
 24 25  2  0
 24 58  1  0
 26 25  1  6
 26 27  1  0
 26 34  1  0
 26 35  1  0
 27 28  1  0
 27 59  1  0
 27 60  1  0
 28 29  1  0
 28 33  1  0
 28 61  1  1
 29 30  1  0
 29 62  1  0
 29 63  1  0
 30 31  1  0
 30 35  1  0
 30 64  1  1
 31 32  1  0
 31 65  1  0
 31 66  1  0
 32 33  1  0
 32 34  1  0
 32 67  1  6
 33 68  1  0
 33 69  1  0
 34 70  1  0
 34 71  1  0
 35 72  1  0
 35 73  1  0
M  END

