
     RDKit          3D

 31 31  0  0  0  0  0  0  0  0999 V2000
    1.1860   -3.2560    1.1538 C   0  0  0  0  0  0  0  0  0  0  0  0
    2.3008   -2.2622    0.8307 C   0  0  0  0  0  0  0  0  0  0  0  0
    3.6879   -2.8291    1.1100 C   0  0  0  0  0  0  0  0  0  0  0  0
    4.7333   -1.9334    0.6975 O   0  0  0  0  0  0  0  0  0  0  0  0
    5.2881   -1.1096    1.6668 C   0  0  0  0  0  0  0  0  0  0  0  0
    4.4261   -0.1412    1.8296 O   0  0  0  0  0  0  0  0  0  0  0  0
    6.5329   -1.3670    2.2046 C   0  0  0  0  0  0  0  0  0  0  0  0
    7.4120   -2.4594    1.9205 C   0  0  0  0  0  0  0  0  0  0  0  0
    8.5726   -2.2651    2.6876 C   0  0  0  0  0  0  0  0  0  0  0  0
    8.4194   -1.0943    3.4210 C   0  0  0  0  0  0  0  0  0  0  0  0
    7.1793   -0.5483    3.1494 N   0  0  0  0  0  0  0  0  0  0  0  0
    6.7069    0.7697    3.5845 C   0  0  1  0  0  0  0  0  0  0  0  0
    7.0488    1.0353    5.0532 C   0  0  0  0  0  0  0  0  0  0  0  0
    7.2138    1.8841    2.6580 C   0  0  0  0  0  0  0  0  0  0  0  0
    0.1982   -2.8129    0.9553 H   0  0  0  0  0  0  0  0  0  0  0  0
    1.2053   -3.5584    2.2141 H   0  0  0  0  0  0  0  0  0  0  0  0
    1.2659   -4.1718    0.5445 H   0  0  0  0  0  0  0  0  0  0  0  0
    2.1936   -1.3411    1.4277 H   0  0  0  0  0  0  0  0  0  0  0  0
    2.2565   -1.9589   -0.2286 H   0  0  0  0  0  0  0  0  0  0  0  0
    3.8598   -3.7380    0.5063 H   0  0  0  0  0  0  0  0  0  0  0  0
    3.8232   -3.0855    2.1737 H   0  0  0  0  0  0  0  0  0  0  0  0
    7.2004   -3.2726    1.2315 H   0  0  0  0  0  0  0  0  0  0  0  0
    9.4449   -2.9160    2.7193 H   0  0  0  0  0  0  0  0  0  0  0  0
    9.0992   -0.6220    4.1242 H   0  0  0  0  0  0  0  0  0  0  0  0
    5.6086    0.7356    3.5032 H   0  0  0  0  0  0  0  0  0  0  0  0
    8.1325    1.1636    5.2051 H   0  0  0  0  0  0  0  0  0  0  0  0
    6.7046    0.2119    5.6970 H   0  0  0  0  0  0  0  0  0  0  0  0
    6.5604    1.9636    5.3870 H   0  0  0  0  0  0  0  0  0  0  0  0
    8.3136    1.9483    2.6901 H   0  0  0  0  0  0  0  0  0  0  0  0
    6.8016    2.8594    2.9623 H   0  0  0  0  0  0  0  0  0  0  0  0
    6.9083    1.6942    1.6184 H   0  0  0  0  0  0  0  0  0  0  0  0
  1  2  1  0
  1 15  1  0
  1 16  1  0
  1 17  1  0
  2  3  1  0
  2 18  1  0
  2 19  1  0
  3  4  1  0
  3 20  1  0
  3 21  1  0
  4  5  1  0
  5  6  2  0
  5  7  1  0
  7  8  2  0
  7 11  1  0
  8  9  1  0
  8 22  1  0
  9 10  2  0
  9 23  1  0
 10 11  1  0
 10 24  1  0
 11 12  1  0
 12 13  1  0
 12 14  1  0
 12 25  1  6
 13 26  1  0
 13 27  1  0
 13 28  1  0
 14 29  1  0
 14 30  1  0
 14 31  1  0
M  END

