
     RDKit          3D

 45 46  0  0  0  0  0  0  0  0999 V2000
    0.1427    8.0246    4.4628 C   0  0  0  0  0  0  0  0  0  0  0  0
    0.8641    6.8740    4.0774 O   0  0  0  0  0  0  0  0  0  0  0  0
    2.0987    7.0005    3.5432 C   0  0  0  0  0  0  0  0  0  0  0  0
    2.7527    8.2258    3.3643 C   0  0  0  0  0  0  0  0  0  0  0  0
    4.0351    8.2937    2.7861 C   0  0  0  0  0  0  0  0  0  0  0  0
    4.6716    9.4684    2.6066 O   0  0  0  0  0  0  0  0  0  0  0  0
    4.0575   10.6803    2.9797 C   0  0  0  0  0  0  0  0  0  0  0  0
    4.6779    7.0964    2.3779 C   0  0  0  0  0  0  0  0  0  0  0  0
    6.0231    6.9767    1.7540 C   0  0  0  0  0  0  0  0  0  0  0  0
    6.5113    5.9097    1.4344 O   0  0  0  0  0  0  0  0  0  0  0  0
    6.6564    8.1507    1.5573 O   0  0  0  0  0  0  0  0  0  0  0  0
    8.0100    8.1337    1.0597 C   0  0  2  0  0  0  0  0  0  0  0  0
    8.2378    7.1151    0.7121 H   0  0  0  0  0  0  0  0  0  0  0  0
    8.9576    8.5375    2.1750 C   0  0  0  0  0  0  0  0  0  0  0  0
    8.0500    9.1119   -0.1312 C   0  0  0  0  0  0  0  0  0  0  0  0
    8.7139   10.1275   -0.0600 O   0  0  0  0  0  0  0  0  0  0  0  0
    7.2616    8.7885   -1.3625 C   0  0  0  0  0  0  0  0  0  0  0  0
    7.1710    9.7826   -2.3554 C   0  0  0  0  0  0  0  0  0  0  0  0
    6.4752    9.5541   -3.5383 C   0  0  0  0  0  0  0  0  0  0  0  0
    5.8698    8.3106   -3.7281 C   0  0  0  0  0  0  0  0  0  0  0  0
    5.2000    8.0817   -4.8635 F   0  0  0  0  0  0  0  0  0  0  0  0
    5.9459    7.3015   -2.7702 C   0  0  0  0  0  0  0  0  0  0  0  0
    6.6426    7.5446   -1.5855 C   0  0  0  0  0  0  0  0  0  0  0  0
    3.9976    5.8782    2.5785 C   0  0  0  0  0  0  0  0  0  0  0  0
    2.7355    5.7990    3.1438 C   0  0  0  0  0  0  0  0  0  0  0  0
    2.1042    4.5913    3.2466 O   0  0  0  0  0  0  0  0  0  0  0  0
    1.9595    4.0564    4.5528 C   0  0  0  0  0  0  0  0  0  0  0  0
   -0.8244    7.6720    4.8444 H   0  0  0  0  0  0  0  0  0  0  0  0
   -0.0343    8.6996    3.6070 H   0  0  0  0  0  0  0  0  0  0  0  0
    0.6604    8.5851    5.2616 H   0  0  0  0  0  0  0  0  0  0  0  0
    2.2578    9.1424    3.6724 H   0  0  0  0  0  0  0  0  0  0  0  0
    4.7701   11.4762    2.7260 H   0  0  0  0  0  0  0  0  0  0  0  0
    3.8480   10.7214    4.0639 H   0  0  0  0  0  0  0  0  0  0  0  0
    3.1171   10.8540    2.4262 H   0  0  0  0  0  0  0  0  0  0  0  0
    9.9940    8.5518    1.8075 H   0  0  0  0  0  0  0  0  0  0  0  0
    8.8865    7.8185    3.0044 H   0  0  0  0  0  0  0  0  0  0  0  0
    8.7140    9.5438    2.5429 H   0  0  0  0  0  0  0  0  0  0  0  0
    7.6655   10.7385   -2.1727 H   0  0  0  0  0  0  0  0  0  0  0  0
    6.3930   10.3151   -4.3168 H   0  0  0  0  0  0  0  0  0  0  0  0
    5.4621    6.3420   -2.9618 H   0  0  0  0  0  0  0  0  0  0  0  0
    6.7002    6.7463   -0.8434 H   0  0  0  0  0  0  0  0  0  0  0  0
    4.4877    4.9574    2.2605 H   0  0  0  0  0  0  0  0  0  0  0  0
    1.4759    3.0754    4.4423 H   0  0  0  0  0  0  0  0  0  0  0  0
    1.3287    4.6969    5.1914 H   0  0  0  0  0  0  0  0  0  0  0  0
    2.9423    3.9165    5.0397 H   0  0  0  0  0  0  0  0  0  0  0  0
  1  2  1  0
  1 28  1  0
  1 29  1  0
  1 30  1  0
  2  3  1  0
  3  4  2  0
  3 25  1  0
  4  5  1  0
  4 31  1  0
  5  6  1  0
  5  8  2  0
  6  7  1  0
  7 32  1  0
  7 33  1  0
  7 34  1  0
  8  9  1  0
  8 24  1  0
  9 10  2  0
  9 11  1  0
 11 12  1  0
 12 13  1  6
 12 14  1  0
 12 15  1  0
 14 35  1  0
 14 36  1  0
 14 37  1  0
 15 16  2  0
 15 17  1  0
 17 18  2  0
 17 23  1  0
 18 19  1  0
 18 38  1  0
 19 20  2  0
 19 39  1  0
 20 21  1  0
 20 22  1  0
 22 23  2  0
 22 40  1  0
 23 41  1  0
 24 25  2  0
 24 42  1  0
 25 26  1  0
 26 27  1  0
 27 43  1  0
 27 44  1  0
 27 45  1  0
M  END

