
     RDKit          3D

 92 95  0  0  0  0  0  0  0  0999 V2000
    9.7331    0.3134   -2.4018 O   0  0  0  0  0  0  0  0  0  0  0  0
    9.6992    1.2262   -1.6111 C   0  0  0  0  0  0  0  0  0  0  0  0
   10.7739    1.6100   -0.9247 O   0  0  0  0  0  0  0  0  0  0  0  0
    8.4226    2.0195   -1.3232 C   0  0  0  0  0  0  0  0  0  0  0  0
    8.5882    3.5579   -1.5210 C   0  0  1  0  0  0  0  0  0  0  0  0
    7.7129    4.1253   -2.6507 C   0  0  0  0  0  0  0  0  0  0  0  0
    6.1950    4.0586   -2.4414 C   0  0  0  0  0  0  0  0  0  0  0  0
    5.4016    4.5701   -3.6489 C   0  0  0  0  0  0  0  0  0  0  0  0
    3.8831    4.5130   -3.4589 C   0  0  0  0  0  0  0  0  0  0  0  0
    3.0921    5.0162   -4.6696 C   0  0  0  0  0  0  0  0  0  0  0  0
    1.5663    4.9499   -4.4759 C   0  0  0  0  0  0  0  0  0  0  0  0
    0.7846    5.4493   -5.6715 C   0  0  0  0  0  0  0  0  0  0  0  0
    0.4187    4.5777   -6.7101 C   0  0  0  0  0  0  0  0  0  0  0  0
   -0.2703    5.0436   -7.8334 C   0  0  0  0  0  0  0  0  0  0  0  0
   -0.6072    6.3963   -7.9393 C   0  0  0  0  0  0  0  0  0  0  0  0
   -0.2511    7.2762   -6.9129 C   0  0  0  0  0  0  0  0  0  0  0  0
    0.4377    6.8049   -5.7918 C   0  0  0  0  0  0  0  0  0  0  0  0
    8.3878    4.3054   -0.2835 N   0  0  0  0  0  0  0  0  0  0  0  0
    9.2798    4.2082    0.7469 C   0  0  0  0  0  0  0  0  0  0  0  0
   10.2639    3.4419    0.6821 O   0  0  0  0  0  0  0  0  0  0  0  0
    9.0298    5.0214    1.9622 C   0  0  0  0  0  0  0  0  0  0  0  0
    8.1546    6.1361    2.0112 C   0  0  0  0  0  0  0  0  0  0  0  0
    7.9803    6.8525    3.2045 C   0  0  0  0  0  0  0  0  0  0  0  0
    8.6600    6.5005    4.3767 C   0  0  0  0  0  0  0  0  0  0  0  0
    9.5531    5.3985    4.3307 C   0  0  0  0  0  0  0  0  0  0  0  0
   10.2880    4.9665    5.4344 N   0  0  0  0  0  0  0  0  0  0  0  0
   10.3191    5.4444    6.7230 C   0  0  0  0  0  0  0  0  0  0  0  0
    9.6788    6.3830    7.1568 O   0  0  0  0  0  0  0  0  0  0  0  0
   11.2562    4.6570    7.6414 C   0  0  0  0  0  0  0  0  0  0  0  0
   11.9965    3.7067    6.9174 O   0  0  0  0  0  0  0  0  0  0  0  0
   12.5151    2.5928    7.6554 C   0  0  1  0  0  0  0  0  0  0  0  0
   13.0233    1.5725    6.6343 C   0  0  0  0  0  0  0  0  0  0  0  0
   14.2814    2.0634    5.9079 C   0  0  0  0  0  0  0  0  0  0  0  0
   15.3030    2.4710    6.8665 N   0  0  0  0  0  0  0  0  0  0  0  0
   16.5444    1.8979    6.8123 C   0  0  0  0  0  0  0  0  0  0  0  0
   16.8778    1.0522    6.0038 O   0  0  0  0  0  0  0  0  0  0  0  0
   17.3638    2.3797    7.7793 O   0  0  0  0  0  0  0  0  0  0  0  0
   18.7147    1.8749    7.8050 C   0  0  0  0  0  0  0  0  0  0  0  0
   19.6658    2.7420    7.0143 C   0  0  0  0  0  0  0  0  0  0  0  0
   20.4540    3.7056    7.6607 C   0  0  0  0  0  0  0  0  0  0  0  0
   21.3289    4.5178    6.9334 C   0  0  0  0  0  0  0  0  0  0  0  0
   21.4223    4.3758    5.5461 C   0  0  0  0  0  0  0  0  0  0  0  0
   20.6397    3.4184    4.8915 C   0  0  0  0  0  0  0  0  0  0  0  0
   19.7681    2.6051    5.6194 C   0  0  0  0  0  0  0  0  0  0  0  0
   14.8898    3.4805    7.8348 C   0  0  0  0  0  0  0  0  0  0  0  0
   13.6487    3.0117    8.6043 C   0  0  0  0  0  0  0  0  0  0  0  0
    9.7374    4.6761    3.1320 C   0  0  0  0  0  0  0  0  0  0  0  0
   10.5609    2.3460   -0.2862 H   0  0  0  0  0  0  0  0  0  0  0  0
    8.1306    1.8152   -0.2809 H   0  0  0  0  0  0  0  0  0  0  0  0
    7.6360    1.6064   -1.9686 H   0  0  0  0  0  0  0  0  0  0  0  0
    9.6365    3.7433   -1.8052 H   0  0  0  0  0  0  0  0  0  0  0  0
    7.9733    3.5732   -3.5697 H   0  0  0  0  0  0  0  0  0  0  0  0
    8.0120    5.1731   -2.8287 H   0  0  0  0  0  0  0  0  0  0  0  0
    5.8996    4.6502   -1.5538 H   0  0  0  0  0  0  0  0  0  0  0  0
    5.8902    3.0203   -2.2227 H   0  0  0  0  0  0  0  0  0  0  0  0
    5.6812    3.9791   -4.5401 H   0  0  0  0  0  0  0  0  0  0  0  0
    5.7046    5.6097   -3.8728 H   0  0  0  0  0  0  0  0  0  0  0  0
    3.6023    5.1052   -2.5677 H   0  0  0  0  0  0  0  0  0  0  0  0
    3.5829    3.4730   -3.2327 H   0  0  0  0  0  0  0  0  0  0  0  0
    3.3682    4.4279   -5.5630 H   0  0  0  0  0  0  0  0  0  0  0  0
    3.3823    6.0579   -4.8961 H   0  0  0  0  0  0  0  0  0  0  0  0
    1.2918    5.5401   -3.5844 H   0  0  0  0  0  0  0  0  0  0  0  0
    1.2784    3.9070   -4.2572 H   0  0  0  0  0  0  0  0  0  0  0  0
    0.6728    3.5160   -6.6342 H   0  0  0  0  0  0  0  0  0  0  0  0
   -0.5488    4.3459   -8.6277 H   0  0  0  0  0  0  0  0  0  0  0  0
   -1.1486    6.7622   -8.8154 H   0  0  0  0  0  0  0  0  0  0  0  0
   -0.5148    8.3349   -6.9832 H   0  0  0  0  0  0  0  0  0  0  0  0
    0.7067    7.5008   -4.9911 H   0  0  0  0  0  0  0  0  0  0  0  0
    7.5126    4.7923   -0.1426 H   0  0  0  0  0  0  0  0  0  0  0  0
    7.6326    6.4708    1.1121 H   0  0  0  0  0  0  0  0  0  0  0  0
    7.3076    7.7133    3.2231 H   0  0  0  0  0  0  0  0  0  0  0  0
    8.5249    7.0537    5.3024 H   0  0  0  0  0  0  0  0  0  0  0  0
   10.9158    4.1767    5.2855 H   0  0  0  0  0  0  0  0  0  0  0  0
   10.6208    4.1788    8.4134 H   0  0  0  0  0  0  0  0  0  0  0  0
   11.8924    5.3987    8.1582 H   0  0  0  0  0  0  0  0  0  0  0  0
   11.6850    2.1531    8.2427 H   0  0  0  0  0  0  0  0  0  0  0  0
   12.2261    1.3529    5.9060 H   0  0  0  0  0  0  0  0  0  0  0  0
   13.2502    0.6342    7.1666 H   0  0  0  0  0  0  0  0  0  0  0  0
   14.0257    2.9221    5.2608 H   0  0  0  0  0  0  0  0  0  0  0  0
   14.7069    1.2765    5.2743 H   0  0  0  0  0  0  0  0  0  0  0  0
   18.7099    0.8455    7.4219 H   0  0  0  0  0  0  0  0  0  0  0  0
   18.9920    1.8696    8.8682 H   0  0  0  0  0  0  0  0  0  0  0  0
   20.3852    3.8184    8.7468 H   0  0  0  0  0  0  0  0  0  0  0  0
   21.9399    5.2618    7.4512 H   0  0  0  0  0  0  0  0  0  0  0  0
   22.1068    5.0086    4.9751 H   0  0  0  0  0  0  0  0  0  0  0  0
   20.7121    3.3017    3.8070 H   0  0  0  0  0  0  0  0  0  0  0  0
   19.1505    1.8598    5.1129 H   0  0  0  0  0  0  0  0  0  0  0  0
   14.6587    4.4204    7.2996 H   0  0  0  0  0  0  0  0  0  0  0  0
   15.7210    3.6826    8.5177 H   0  0  0  0  0  0  0  0  0  0  0  0
   13.3112    3.8034    9.2931 H   0  0  0  0  0  0  0  0  0  0  0  0
   13.9111    2.1412    9.2288 H   0  0  0  0  0  0  0  0  0  0  0  0
   10.4333    3.8356    3.0810 H   0  0  0  0  0  0  0  0  0  0  0  0
  1  2  2  0
  2  3  1  0
  2  4  1  0
  3 48  1  0
  4  5  1  0
  4 49  1  0
  4 50  1  0
  5  6  1  0
  5 18  1  0
  5 51  1  6
  6  7  1  0
  6 52  1  0
  6 53  1  0
  7  8  1  0
  7 54  1  0
  7 55  1  0
  8  9  1  0
  8 56  1  0
  8 57  1  0
  9 10  1  0
  9 58  1  0
  9 59  1  0
 10 11  1  0
 10 60  1  0
 10 61  1  0
 11 12  1  0
 11 62  1  0
 11 63  1  0
 12 13  2  0
 12 17  1  0
 13 14  1  0
 13 64  1  0
 14 15  2  0
 14 65  1  0
 15 16  1  0
 15 66  1  0
 16 17  2  0
 16 67  1  0
 17 68  1  0
 18 19  1  0
 18 69  1  0
 19 20  2  0
 19 21  1  0
 21 22  2  0
 21 47  1  0
 22 23  1  0
 22 70  1  0
 23 24  2  0
 23 71  1  0
 24 25  1  0
 24 72  1  0
 25 26  1  0
 25 47  2  0
 26 27  1  0
 26 73  1  0
 27 28  2  0
 27 29  1  0
 29 30  1  0
 29 74  1  0
 29 75  1  0
 30 31  1  0
 31 32  1  0
 31 46  1  0
 31 76  1  1
 32 33  1  0
 32 77  1  0
 32 78  1  0
 33 34  1  0
 33 79  1  0
 33 80  1  0
 34 35  1  0
 34 45  1  0
 35 36  2  0
 35 37  1  0
 37 38  1  0
 38 39  1  0
 38 81  1  0
 38 82  1  0
 39 40  2  0
 39 44  1  0
 40 41  1  0
 40 83  1  0
 41 42  2  0
 41 84  1  0
 42 43  1  0
 42 85  1  0
 43 44  2  0
 43 86  1  0
 44 87  1  0
 45 46  1  0
 45 88  1  0
 45 89  1  0
 46 90  1  0
 46 91  1  0
 47 92  1  0
M  END

