
     RDKit          3D

 31 31  0  0  0  0  0  0  0  0999 V2000
    4.0988    4.7997   -3.6872 C   0  0  0  0  0  0  0  0  0  0  0  0
    4.1100    4.9076   -2.2888 O   0  0  0  0  0  0  0  0  0  0  0  0
    4.5685    3.7570   -1.6270 C   0  0  0  0  0  0  0  0  0  0  0  0
    4.5022    3.9939   -0.1159 C   0  0  1  0  0  0  0  0  0  0  0  0
    3.0777    4.1878    0.3796 C   0  0  0  0  0  0  0  0  0  0  0  0
    5.0614    2.8643    0.5538 O   0  0  0  0  0  0  0  0  0  0  0  0
    6.4313    2.9211    0.8313 C   0  0  1  0  0  0  0  0  0  0  0  0
    6.8773    3.6513    2.1154 C   0  0  0  0  0  0  0  0  0  0  0  0
    7.8614    2.4895    2.4310 C   0  0  0  0  0  0  0  0  0  0  0  0
    8.1968    2.0465    3.5571 O   0  0  0  0  0  0  0  0  0  0  0  0
    7.0169    1.5885    1.3606 C   0  0  1  0  0  0  0  0  0  0  0  0
    5.9999    0.7002    2.0673 C   0  0  0  0  0  0  0  0  0  0  0  0
    7.9352    0.8154    0.4242 C   0  0  0  0  0  0  0  0  0  0  0  0
    3.7279    5.7509   -4.0961 H   0  0  0  0  0  0  0  0  0  0  0  0
    3.4348    3.9824   -4.0352 H   0  0  0  0  0  0  0  0  0  0  0  0
    5.1121    4.6109   -4.0970 H   0  0  0  0  0  0  0  0  0  0  0  0
    5.6123    3.5217   -1.9244 H   0  0  0  0  0  0  0  0  0  0  0  0
    3.9514    2.8693   -1.8816 H   0  0  0  0  0  0  0  0  0  0  0  0
    5.0929    4.9017    0.1108 H   0  0  0  0  0  0  0  0  0  0  0  0
    2.4963    3.2646    0.2253 H   0  0  0  0  0  0  0  0  0  0  0  0
    2.5952    5.0052   -0.1751 H   0  0  0  0  0  0  0  0  0  0  0  0
    3.0681    4.4252    1.4539 H   0  0  0  0  0  0  0  0  0  0  0  0
    7.0031    3.2753   -0.0461 H   0  0  0  0  0  0  0  0  0  0  0  0
    6.0651    3.6791    2.8653 H   0  0  0  0  0  0  0  0  0  0  0  0
    7.3537    4.6422    2.0365 H   0  0  0  0  0  0  0  0  0  0  0  0
    5.3773    1.2639    2.7764 H   0  0  0  0  0  0  0  0  0  0  0  0
    6.5133   -0.1005    2.6200 H   0  0  0  0  0  0  0  0  0  0  0  0
    5.3231    0.2461    1.3256 H   0  0  0  0  0  0  0  0  0  0  0  0
    8.7064    1.4655   -0.0149 H   0  0  0  0  0  0  0  0  0  0  0  0
    7.3353    0.3816   -0.3970 H   0  0  0  0  0  0  0  0  0  0  0  0
    8.4384   -0.0078    0.9545 H   0  0  0  0  0  0  0  0  0  0  0  0
  1  2  1  0
  1 14  1  0
  1 15  1  0
  1 16  1  0
  2  3  1  0
  3  4  1  0
  3 17  1  0
  3 18  1  0
  4  5  1  0
  4  6  1  0
  4 19  1  6
  5 20  1  0
  5 21  1  0
  5 22  1  0
  6  7  1  0
  7  8  1  0
  7 11  1  0
  7 23  1  6
  8  9  1  0
  8 24  1  0
  8 25  1  0
  9 10  2  0
  9 11  1  0
 11 12  1  1
 11 13  1  0
 12 26  1  0
 12 27  1  0
 12 28  1  0
 13 29  1  0
 13 30  1  0
 13 31  1  0
M  END

