
     RDKit          3D

 58 60  0  0  0  0  0  0  0  0999 V2000
    1.6789    0.6301   -0.6510 O   0  0  0  0  0  0  0  0  0  0  0  0
    2.8539    0.5132   -0.2893 C   0  0  0  0  0  0  0  0  0  0  0  0
    3.7911    1.4776   -0.5813 N   0  0  0  0  0  0  0  0  0  0  0  0
    3.3760    2.6850   -1.2897 C   0  0  0  0  0  0  0  0  0  0  0  0
    2.4338    3.6101   -0.4822 C   0  0  0  0  0  0  0  0  0  0  0  0
    1.1740    4.0453   -1.2557 C   0  0  1  0  0  0  0  0  0  0  0  0
    0.5626    2.9253   -1.8834 O   0  0  0  0  0  0  0  0  0  0  0  0
    0.1415    4.7497   -0.3461 C   0  0  0  0  0  0  0  0  0  0  0  0
   -0.8031    5.4202   -1.3479 C   0  0  0  0  0  0  0  0  0  0  0  0
    0.1476    5.9890   -2.4260 C   0  0  0  0  0  0  0  0  0  0  0  0
    1.4248    5.1035   -2.3658 C   0  0  0  0  0  0  0  0  0  0  0  0
    3.2896   -0.5991    0.4030 N   0  0  0  0  0  0  0  0  0  0  0  0
    2.2890   -1.4990    0.9656 C   0  0  0  0  0  0  0  0  0  0  0  0
    2.6305   -2.9709    0.7114 C   0  0  0  0  0  0  0  0  0  0  0  0
    4.0711   -3.3599    1.1072 C   0  0  2  0  0  0  0  0  0  0  0  0
    4.3351   -3.5927    2.6161 C   0  0  1  0  0  0  0  0  0  0  0  0
    4.2398   -2.4131    3.4061 O   0  0  0  0  0  0  0  0  0  0  0  0
    3.4919   -4.7403    3.2148 C   0  0  0  0  0  0  0  0  0  0  0  0
    3.9630   -5.1929    4.5788 C   0  0  0  0  0  0  0  0  0  0  0  0
    3.5292   -4.5504    5.7491 C   0  0  0  0  0  0  0  0  0  0  0  0
    3.9975   -4.9477    7.0040 C   0  0  0  0  0  0  0  0  0  0  0  0
    4.9124   -5.9993    7.1123 C   0  0  0  0  0  0  0  0  0  0  0  0
    5.3522   -6.6503    5.9563 C   0  0  0  0  0  0  0  0  0  0  0  0
    4.8808   -6.2485    4.7034 C   0  0  0  0  0  0  0  0  0  0  0  0
    5.0446   -2.3408    0.4825 C   0  0  0  0  0  0  0  0  0  0  0  0
    4.6819   -0.8728    0.7528 C   0  0  0  0  0  0  0  0  0  0  0  0
    4.6069    1.5479    0.0127 H   0  0  0  0  0  0  0  0  0  0  0  0
    2.8614    2.3690   -2.2076 H   0  0  0  0  0  0  0  0  0  0  0  0
    4.2925    3.2115   -1.5949 H   0  0  0  0  0  0  0  0  0  0  0  0
    2.9692    4.5033   -0.1198 H   0  0  0  0  0  0  0  0  0  0  0  0
    2.1010    3.0645    0.4158 H   0  0  0  0  0  0  0  0  0  0  0  0
    0.7765    2.1147   -1.3803 H   0  0  0  0  0  0  0  0  0  0  0  0
    0.6471    5.5085    0.2797 H   0  0  0  0  0  0  0  0  0  0  0  0
   -0.3551    4.0314    0.3255 H   0  0  0  0  0  0  0  0  0  0  0  0
   -1.4530    6.1864   -0.8967 H   0  0  0  0  0  0  0  0  0  0  0  0
   -1.4480    4.6460   -1.7903 H   0  0  0  0  0  0  0  0  0  0  0  0
    0.3997    7.0381   -2.1988 H   0  0  0  0  0  0  0  0  0  0  0  0
   -0.3163    5.9873   -3.4241 H   0  0  0  0  0  0  0  0  0  0  0  0
    2.3092    5.7139   -2.1216 H   0  0  0  0  0  0  0  0  0  0  0  0
    1.6262    4.5888   -3.3162 H   0  0  0  0  0  0  0  0  0  0  0  0
    1.3276   -1.2424    0.5055 H   0  0  0  0  0  0  0  0  0  0  0  0
    2.1855   -1.3036    2.0526 H   0  0  0  0  0  0  0  0  0  0  0  0
    2.5108   -3.1633   -0.3683 H   0  0  0  0  0  0  0  0  0  0  0  0
    1.8879   -3.6072    1.2201 H   0  0  0  0  0  0  0  0  0  0  0  0
    4.2843   -4.3365    0.6374 H   0  0  0  0  0  0  0  0  0  0  0  0
    5.3950   -3.8881    2.7019 H   0  0  0  0  0  0  0  0  0  0  0  0
    3.3067   -2.1816    3.5049 H   0  0  0  0  0  0  0  0  0  0  0  0
    3.5149   -5.5918    2.5153 H   0  0  0  0  0  0  0  0  0  0  0  0
    2.4373   -4.4173    3.2742 H   0  0  0  0  0  0  0  0  0  0  0  0
    2.8110   -3.7292    5.6796 H   0  0  0  0  0  0  0  0  0  0  0  0
    3.6442   -4.4346    7.9023 H   0  0  0  0  0  0  0  0  0  0  0  0
    5.2771   -6.3129    8.0938 H   0  0  0  0  0  0  0  0  0  0  0  0
    6.0626   -7.4780    6.0295 H   0  0  0  0  0  0  0  0  0  0  0  0
    5.2277   -6.7685    3.8051 H   0  0  0  0  0  0  0  0  0  0  0  0
    5.0517   -2.4947   -0.6103 H   0  0  0  0  0  0  0  0  0  0  0  0
    6.0723   -2.5229    0.8385 H   0  0  0  0  0  0  0  0  0  0  0  0
    5.3350   -0.2445    0.1328 H   0  0  0  0  0  0  0  0  0  0  0  0
    4.8700   -0.6332    1.8140 H   0  0  0  0  0  0  0  0  0  0  0  0
  1  2  2  0
  2  3  1  0
  2 12  1  0
  3  4  1  0
  3 27  1  0
  4  5  1  0
  4 28  1  0
  4 29  1  0
  5  6  1  0
  5 30  1  0
  5 31  1  0
  6  7  1  6
  6  8  1  0
  6 11  1  0
  7 32  1  0
  8  9  1  0
  8 33  1  0
  8 34  1  0
  9 10  1  0
  9 35  1  0
  9 36  1  0
 10 11  1  0
 10 37  1  0
 10 38  1  0
 11 39  1  0
 11 40  1  0
 12 13  1  0
 12 26  1  0
 13 14  1  0
 13 41  1  0
 13 42  1  0
 14 15  1  0
 14 43  1  0
 14 44  1  0
 15 16  1  0
 15 25  1  0
 15 45  1  6
 16 17  1  0
 16 18  1  0
 16 46  1  6
 17 47  1  0
 18 19  1  0
 18 48  1  0
 18 49  1  0
 19 20  2  0
 19 24  1  0
 20 21  1  0
 20 50  1  0
 21 22  2  0
 21 51  1  0
 22 23  1  0
 22 52  1  0
 23 24  2  0
 23 53  1  0
 24 54  1  0
 25 26  1  0
 25 55  1  0
 25 56  1  0
 26 57  1  0
 26 58  1  0
M  END

