
     RDKit          3D

 37 39  0  0  0  0  0  0  0  0999 V2000
    2.7758    1.1241   -0.6769 N   0  0  0  0  0  0  0  0  0  0  0  0
    2.6769   -0.2404   -0.1671 C   0  0  0  0  0  0  0  0  0  0  0  0
    3.1294   -0.3653    1.3060 C   0  0  1  0  0  0  0  0  0  0  0  0
    2.6399   -1.6605    1.9336 C   0  0  0  0  0  0  0  0  0  0  0  0
    1.7823   -1.6413    3.0463 C   0  0  0  0  0  0  0  0  0  0  0  0
    1.3075   -2.8261    3.6098 C   0  0  0  0  0  0  0  0  0  0  0  0
    1.6852   -4.0626    3.0811 C   0  0  0  0  0  0  0  0  0  0  0  0
    2.5622   -4.0992    1.9788 C   0  0  0  0  0  0  0  0  0  0  0  0
    3.0239   -2.9066    1.4163 C   0  0  0  0  0  0  0  0  0  0  0  0
    2.9778   -5.2844    1.4351 O   0  0  0  0  0  0  0  0  0  0  0  0
    2.7485   -6.4198    2.2547 C   0  0  0  0  0  0  0  0  0  0  0  0
    1.3503   -6.3691    2.8480 C   0  0  0  0  0  0  0  0  0  0  0  0
    1.1974   -5.2083    3.6486 O   0  0  0  0  0  0  0  0  0  0  0  0
    4.6645   -0.1976    1.4792 C   0  0  1  0  0  0  0  0  0  0  0  0
    5.1586    0.9661    0.8198 O   0  0  0  0  0  0  0  0  0  0  0  0
    5.0870   -0.2113    2.9174 C   0  0  0  0  0  0  0  0  0  0  0  0
    5.9795   -0.9466    3.6443 C   0  0  0  0  0  0  0  0  0  0  0  0
    5.9606   -0.4264    4.9826 C   0  0  0  0  0  0  0  0  0  0  0  0
    5.0540    0.5944    4.9570 C   0  0  0  0  0  0  0  0  0  0  0  0
    4.5089    1.6717    6.1717 Cl  0  0  0  0  0  0  0  0  0  0  0  0
    4.5161    0.7398    3.7259 O   0  0  0  0  0  0  0  0  0  0  0  0
    2.2469    1.2135   -1.5438 H   0  0  0  0  0  0  0  0  0  0  0  0
    3.7481    1.3404   -0.8908 H   0  0  0  0  0  0  0  0  0  0  0  0
    3.2261   -0.9915   -0.7758 H   0  0  0  0  0  0  0  0  0  0  0  0
    1.6167   -0.5390   -0.2027 H   0  0  0  0  0  0  0  0  0  0  0  0
    2.6543    0.4728    1.8432 H   0  0  0  0  0  0  0  0  0  0  0  0
    1.4777   -0.6836    3.4752 H   0  0  0  0  0  0  0  0  0  0  0  0
    0.6314   -2.8177    4.4675 H   0  0  0  0  0  0  0  0  0  0  0  0
    3.6956   -2.9913    0.5590 H   0  0  0  0  0  0  0  0  0  0  0  0
    3.4977   -6.4577    3.0682 H   0  0  0  0  0  0  0  0  0  0  0  0
    2.8776   -7.3073    1.6177 H   0  0  0  0  0  0  0  0  0  0  0  0
    1.1643   -7.2361    3.4991 H   0  0  0  0  0  0  0  0  0  0  0  0
    0.5993   -6.3720    2.0351 H   0  0  0  0  0  0  0  0  0  0  0  0
    5.1749   -1.0431    0.9916 H   0  0  0  0  0  0  0  0  0  0  0  0
    4.6807    1.7284    1.1788 H   0  0  0  0  0  0  0  0  0  0  0  0
    6.5839   -1.7698    3.2692 H   0  0  0  0  0  0  0  0  0  0  0  0
    6.5345   -0.7584    5.8435 H   0  0  0  0  0  0  0  0  0  0  0  0
  1  2  1  0
  1 22  1  0
  1 23  1  0
  2  3  1  0
  2 24  1  0
  2 25  1  0
  3  4  1  0
  3 14  1  0
  3 26  1  1
  4  5  2  0
  4  9  1  0
  5  6  1  0
  5 27  1  0
  6  7  2  0
  6 28  1  0
  7  8  1  0
  7 13  1  0
  8  9  2  0
  8 10  1  0
  9 29  1  0
 10 11  1  0
 11 12  1  0
 11 30  1  0
 11 31  1  0
 12 13  1  0
 12 32  1  0
 12 33  1  0
 14 15  1  0
 14 16  1  0
 14 34  1  6
 15 35  1  0
 16 17  2  0
 16 21  1  0
 17 18  1  0
 17 36  1  0
 18 19  2  0
 18 37  1  0
 19 20  1  0
 19 21  1  0
M  END

