
     RDKit          3D

 74 76  0  0  0  0  0  0  0  0999 V2000
    8.3008   -7.0866    0.3072 C   0  0  0  0  0  0  0  0  0  0  0  0
    8.3628   -5.6316   -0.1099 C   0  0  0  0  0  0  0  0  0  0  0  0
    7.2398   -4.8892   -0.1757 C   0  0  0  0  0  0  0  0  0  0  0  0
    6.9318   -3.4238   -0.4017 C   0  0  2  0  0  0  0  0  0  0  0  0
    6.1277   -3.4188   -1.1627 H   0  0  0  0  0  0  0  0  0  0  0  0
    8.0506   -2.5302   -0.9423 C   0  0  0  0  0  0  0  0  0  0  0  0
    6.2525   -2.8584    0.8879 C   0  0  0  0  0  0  0  0  0  0  0  0
    7.1874   -2.7842    2.1193 C   0  0  1  0  0  0  0  0  0  0  0  0
    7.9860   -3.5179    1.9284 H   0  0  0  0  0  0  0  0  0  0  0  0
    7.8345   -1.3988    2.2826 C   0  0  0  0  0  0  0  0  0  0  0  0
    6.5871   -3.2027    3.4991 C   0  0  1  0  0  0  0  0  0  0  0  0
    6.2622   -2.2971    4.0333 H   0  0  0  0  0  0  0  0  0  0  0  0
    5.3868   -4.1710    3.5082 C   0  0  0  0  0  0  0  0  0  0  0  0
    4.9972   -4.6119    4.8755 C   0  0  0  0  0  0  0  0  0  0  0  0
    5.0590   -5.7875    5.5651 C   0  0  0  0  0  0  0  0  0  0  0  0
    4.5467   -5.6026    6.8404 N   0  0  0  0  0  0  0  0  0  0  0  0
    4.2083   -4.3566    6.8734 C   0  0  0  0  0  0  0  0  0  0  0  0
    4.4474   -3.6835    5.7226 O   0  0  0  0  0  0  0  0  0  0  0  0
    7.6964   -3.6530    4.3205 O   0  0  0  0  0  0  0  0  0  0  0  0
    8.3167   -4.8191    4.0265 C   0  0  0  0  0  0  0  0  0  0  0  0
    7.8094   -5.6959    3.3589 O   0  0  0  0  0  0  0  0  0  0  0  0
    9.7226   -4.8402    4.5403 C   0  0  0  0  0  0  0  0  0  0  0  0
   10.1472   -3.7915    5.5340 C   0  0  0  0  0  0  0  0  0  0  0  0
   10.5263   -5.7444    3.9440 C   0  0  0  0  0  0  0  0  0  0  0  0
   12.0111   -5.9299    4.0766 C   0  0  1  0  0  0  0  0  0  0  0  0
   12.4560   -5.0535    4.5734 H   0  0  0  0  0  0  0  0  0  0  0  0
   12.3012   -7.1607    4.9618 C   0  0  0  0  0  0  0  0  0  0  0  0
   12.6802   -6.1236    2.6915 C   0  0  0  0  0  0  0  0  0  0  0  0
   12.7236   -4.9315    1.6780 C   0  0  2  0  0  0  0  0  0  0  0  0
   13.7819   -4.8081    1.3981 H   0  0  0  0  0  0  0  0  0  0  0  0
   12.2755   -3.5696    2.2295 C   0  0  0  0  0  0  0  0  0  0  0  0
   12.0292   -5.2193    0.3342 C   0  0  1  0  0  0  0  0  0  0  0  0
   12.1117   -4.3248   -0.3009 H   0  0  0  0  0  0  0  0  0  0  0  0
   12.5922   -6.4120   -0.4729 C   0  0  0  0  0  0  0  0  0  0  0  0
   14.0187   -6.2790   -0.8776 C   0  0  0  0  0  0  0  0  0  0  0  0
   14.6594   -5.8791   -2.0154 C   0  0  0  0  0  0  0  0  0  0  0  0
   16.0302   -5.9545   -1.8285 N   0  0  0  0  0  0  0  0  0  0  0  0
   16.1664   -6.3850   -0.6185 C   0  0  0  0  0  0  0  0  0  0  0  0
   14.9972   -6.6061    0.0287 O   0  0  0  0  0  0  0  0  0  0  0  0
   10.6216   -5.4635    0.5663 O   0  0  0  0  0  0  0  0  0  0  0  0
    9.7511   -5.1550   -0.4305 C   0  0  0  0  0  0  0  0  0  0  0  0
   10.1022   -4.6376   -1.4650 O   0  0  0  0  0  0  0  0  0  0  0  0
    8.6916   -7.2103    1.3287 H   0  0  0  0  0  0  0  0  0  0  0  0
    8.8932   -7.7301   -0.3644 H   0  0  0  0  0  0  0  0  0  0  0  0
    7.2621   -7.4466    0.3007 H   0  0  0  0  0  0  0  0  0  0  0  0
    6.3279   -5.4512    0.0674 H   0  0  0  0  0  0  0  0  0  0  0  0
    8.4290   -2.9059   -1.9014 H   0  0  0  0  0  0  0  0  0  0  0  0
    8.9131   -2.4723   -0.2627 H   0  0  0  0  0  0  0  0  0  0  0  0
    7.6713   -1.5059   -1.0881 H   0  0  0  0  0  0  0  0  0  0  0  0
    5.3818   -3.4966    1.0960 H   0  0  0  0  0  0  0  0  0  0  0  0
    5.8433   -1.8594    0.6570 H   0  0  0  0  0  0  0  0  0  0  0  0
    8.3983   -1.0976    1.3894 H   0  0  0  0  0  0  0  0  0  0  0  0
    8.5271   -1.3888    3.1383 H   0  0  0  0  0  0  0  0  0  0  0  0
    7.0645   -0.6296    2.4645 H   0  0  0  0  0  0  0  0  0  0  0  0
    5.5964   -5.0599    2.9044 H   0  0  0  0  0  0  0  0  0  0  0  0
    4.5341   -3.6362    3.0573 H   0  0  0  0  0  0  0  0  0  0  0  0
    5.4456   -6.7453    5.2229 H   0  0  0  0  0  0  0  0  0  0  0  0
    3.7617   -3.7923    7.6908 H   0  0  0  0  0  0  0  0  0  0  0  0
    9.4716   -3.7809    6.4038 H   0  0  0  0  0  0  0  0  0  0  0  0
   10.1031   -2.7812    5.0952 H   0  0  0  0  0  0  0  0  0  0  0  0
   11.1688   -3.9654    5.8982 H   0  0  0  0  0  0  0  0  0  0  0  0
   10.0360   -6.4283    3.2439 H   0  0  0  0  0  0  0  0  0  0  0  0
   11.8681   -7.0389    5.9663 H   0  0  0  0  0  0  0  0  0  0  0  0
   13.3867   -7.3180    5.0709 H   0  0  0  0  0  0  0  0  0  0  0  0
   11.8711   -8.0755    4.5211 H   0  0  0  0  0  0  0  0  0  0  0  0
   12.1913   -6.9924    2.2202 H   0  0  0  0  0  0  0  0  0  0  0  0
   13.7170   -6.4455    2.8786 H   0  0  0  0  0  0  0  0  0  0  0  0
   11.2044   -3.5556    2.4722 H   0  0  0  0  0  0  0  0  0  0  0  0
   12.4652   -2.7793    1.4856 H   0  0  0  0  0  0  0  0  0  0  0  0
   12.8325   -3.3006    3.1395 H   0  0  0  0  0  0  0  0  0  0  0  0
   11.9934   -6.4956   -1.3909 H   0  0  0  0  0  0  0  0  0  0  0  0
   12.4547   -7.3452    0.0962 H   0  0  0  0  0  0  0  0  0  0  0  0
   14.2183   -5.5485   -2.9543 H   0  0  0  0  0  0  0  0  0  0  0  0
   17.0823   -6.5913   -0.0666 H   0  0  0  0  0  0  0  0  0  0  0  0
  1  2  1  0
  1 43  1  0
  1 44  1  0
  1 45  1  0
  2  3  2  0
  2 41  1  0
  3  4  1  0
  3 46  1  0
  4  5  1  6
  4  6  1  0
  4  7  1  0
  6 47  1  0
  6 48  1  0
  6 49  1  0
  7  8  1  0
  7 50  1  0
  7 51  1  0
  8  9  1  6
  8 10  1  0
  8 11  1  0
 10 52  1  0
 10 53  1  0
 10 54  1  0
 11 12  1  1
 11 13  1  0
 11 19  1  0
 13 14  1  0
 13 55  1  0
 13 56  1  0
 14 15  2  0
 14 18  1  0
 15 16  1  0
 15 57  1  0
 16 17  2  0
 17 18  1  0
 17 58  1  0
 19 20  1  0
 20 21  2  0
 20 22  1  0
 22 23  1  0
 22 24  2  0
 23 59  1  0
 23 60  1  0
 23 61  1  0
 24 25  1  0
 24 62  1  0
 25 26  1  1
 25 27  1  0
 25 28  1  0
 27 63  1  0
 27 64  1  0
 27 65  1  0
 28 29  1  0
 28 66  1  0
 28 67  1  0
 29 30  1  6
 29 31  1  0
 29 32  1  0
 31 68  1  0
 31 69  1  0
 31 70  1  0
 32 33  1  6
 32 34  1  0
 32 40  1  0
 34 35  1  0
 34 71  1  0
 34 72  1  0
 35 36  2  0
 35 39  1  0
 36 37  1  0
 36 73  1  0
 37 38  2  0
 38 39  1  0
 38 74  1  0
 40 41  1  0
 41 42  2  0
M  END

