
     RDKit          3D

 35 36  0  0  0  0  0  0  0  0999 V2000
    1.0394   -0.9315    0.2959 C   0  0  0  0  0  0  0  0  0  0  0  0
    2.4137   -0.2401    0.1410 C   0  0  1  0  0  0  0  0  0  0  0  0
    2.9394    0.0461    1.5520 C   0  0  0  0  0  0  0  0  0  0  0  0
    3.1073    1.1456    2.0241 O   0  0  0  0  0  0  0  0  0  0  0  0
    3.1908   -1.0956    2.2222 O   0  0  0  0  0  0  0  0  0  0  0  0
    3.6814   -0.9911    3.5792 C   0  0  0  0  0  0  0  0  0  0  0  0
    2.5611   -0.9706    4.5910 C   0  0  0  0  0  0  0  0  0  0  0  0
    2.0816   -2.1689    5.1419 C   0  0  0  0  0  0  0  0  0  0  0  0
    1.0359   -2.1600    6.0688 C   0  0  0  0  0  0  0  0  0  0  0  0
    0.4561   -0.9480    6.4558 C   0  0  0  0  0  0  0  0  0  0  0  0
    0.9260    0.2519    5.9120 C   0  0  0  0  0  0  0  0  0  0  0  0
    1.9710    0.2418    4.9847 C   0  0  0  0  0  0  0  0  0  0  0  0
    3.4240   -1.1520   -0.6092 C   0  0  0  0  0  0  0  0  0  0  0  0
    3.1265   -1.2250   -2.1084 C   0  0  0  0  0  0  0  0  0  0  0  0
    3.0766    0.0552   -2.7007 O   0  0  0  0  0  0  0  0  0  0  0  0
    2.0737    0.8729   -2.1302 C   0  0  0  0  0  0  0  0  0  0  0  0
    2.2976    1.0924   -0.6335 C   0  0  0  0  0  0  0  0  0  0  0  0
    1.1377   -1.8740    0.8533 H   0  0  0  0  0  0  0  0  0  0  0  0
    0.5886   -1.1570   -0.6814 H   0  0  0  0  0  0  0  0  0  0  0  0
    0.3377   -0.2823    0.8438 H   0  0  0  0  0  0  0  0  0  0  0  0
    4.3024   -0.0886    3.6592 H   0  0  0  0  0  0  0  0  0  0  0  0
    4.3091   -1.8825    3.7133 H   0  0  0  0  0  0  0  0  0  0  0  0
    2.5358   -3.1186    4.8444 H   0  0  0  0  0  0  0  0  0  0  0  0
    0.6751   -3.1008    6.4926 H   0  0  0  0  0  0  0  0  0  0  0  0
   -0.3601   -0.9384    7.1830 H   0  0  0  0  0  0  0  0  0  0  0  0
    0.4766    1.2019    6.2129 H   0  0  0  0  0  0  0  0  0  0  0  0
    2.3326    1.1756    4.5483 H   0  0  0  0  0  0  0  0  0  0  0  0
    3.4264   -2.1624   -0.1712 H   0  0  0  0  0  0  0  0  0  0  0  0
    4.4402   -0.7409   -0.4827 H   0  0  0  0  0  0  0  0  0  0  0  0
    2.1758   -1.7691   -2.2906 H   0  0  0  0  0  0  0  0  0  0  0  0
    3.9226   -1.7823   -2.6262 H   0  0  0  0  0  0  0  0  0  0  0  0
    1.0715    0.4336   -2.3201 H   0  0  0  0  0  0  0  0  0  0  0  0
    2.1117    1.8344   -2.6647 H   0  0  0  0  0  0  0  0  0  0  0  0
    1.4871    1.7102   -0.2138 H   0  0  0  0  0  0  0  0  0  0  0  0
    3.2284    1.6638   -0.4957 H   0  0  0  0  0  0  0  0  0  0  0  0
  1  2  1  0
  1 18  1  0
  1 19  1  0
  1 20  1  0
  2  3  1  1
  2 13  1  0
  2 17  1  0
  3  4  2  0
  3  5  1  0
  5  6  1  0
  6  7  1  0
  6 21  1  0
  6 22  1  0
  7  8  2  0
  7 12  1  0
  8  9  1  0
  8 23  1  0
  9 10  2  0
  9 24  1  0
 10 11  1  0
 10 25  1  0
 11 12  2  0
 11 26  1  0
 12 27  1  0
 13 14  1  0
 13 28  1  0
 13 29  1  0
 14 15  1  0
 14 30  1  0
 14 31  1  0
 15 16  1  0
 16 17  1  0
 16 32  1  0
 16 33  1  0
 17 34  1  0
 17 35  1  0
M  END

