
     RDKit          3D

 79 82  0  0  0  0  0  0  0  0999 V2000
    6.3870   -0.5455    2.7059 C   0  0  0  0  0  0  0  0  0  0  0  0
    5.5589    0.4050    1.8344 C   0  0  0  0  0  0  0  0  0  0  0  0
    4.9816   -0.1826    0.5247 C   0  0  2  0  0  0  0  0  0  0  0  0
    4.4599    0.6376    0.0011 H   0  0  0  0  0  0  0  0  0  0  0  0
    3.9176   -1.2540    0.8250 C   0  0  0  0  0  0  0  0  0  0  0  0
    6.0425   -0.7449   -0.4540 C   0  0  1  0  0  0  0  0  0  0  0  0
    6.6176   -1.5230    0.0862 H   0  0  0  0  0  0  0  0  0  0  0  0
    5.4291   -1.3194   -1.6070 O   0  0  0  0  0  0  0  0  0  0  0  0
    7.1062    0.2064   -1.0468 C   0  0  2  0  0  0  0  0  0  0  0  0
    7.7051   -0.4719   -1.6751 H   0  0  0  0  0  0  0  0  0  0  0  0
    7.9216    0.6862    0.0150 O   0  0  0  0  0  0  0  0  0  0  0  0
    6.5494    1.3399   -1.9666 C   0  0  1  0  0  0  0  0  0  0  0  0
    5.5913    0.9638   -2.3599 H   0  0  0  0  0  0  0  0  0  0  0  0
    6.2837    2.6183   -1.1569 C   0  0  0  0  0  0  0  0  0  0  0  0
    7.4894    1.5569   -3.1857 C   0  0  1  0  0  0  0  0  0  0  0  0
    7.6498    0.3153   -4.0843 C   0  0  0  0  0  0  0  0  0  0  0  0
    8.4616    0.8319   -5.2701 C   0  0  0  0  0  0  0  0  0  0  0  0
    7.9872    2.2912   -5.5147 C   0  0  2  0  0  0  0  0  0  0  0  0
    9.1700    3.2434   -5.8225 C   0  0  1  0  0  0  0  0  0  0  0  0
   10.0180    2.6555   -6.9605 C   0  0  0  0  0  0  0  0  0  0  0  0
   10.9683    3.5974   -7.4616 O   0  0  0  0  0  0  0  0  0  0  0  0
   10.5276    4.3135   -8.5415 C   0  0  0  0  0  0  0  0  0  0  0  0
   10.6338    3.8947   -9.6628 O   0  0  0  0  0  0  0  0  0  0  0  0
    9.9071    5.6343   -8.1574 C   0  0  1  0  0  0  0  0  0  0  0  0
   10.6002    6.1125   -7.4458 H   0  0  0  0  0  0  0  0  0  0  0  0
    9.7873    6.5431   -9.3896 C   0  0  0  0  0  0  0  0  0  0  0  0
    9.2795    7.9377   -9.0267 C   0  0  2  0  0  0  0  0  0  0  0  0
    9.1336    8.5254   -9.9596 H   0  0  0  0  0  0  0  0  0  0  0  0
   10.1663    8.6235   -8.1569 O   0  0  0  0  0  0  0  0  0  0  0  0
    7.9281    7.8036   -8.3242 C   0  0  2  0  0  0  0  0  0  0  0  0
    7.2367    7.3584   -9.0694 H   0  0  0  0  0  0  0  0  0  0  0  0
    7.4130    9.0356   -7.8618 O   0  0  0  0  0  0  0  0  0  0  0  0
    8.0220    6.8882   -7.1033 C   0  0  0  0  0  0  0  0  0  0  0  0
    8.5507    5.4454   -7.3602 C   0  0  1  0  0  0  0  0  0  0  0  0
    7.5160    4.6542   -8.1871 C   0  0  0  0  0  0  0  0  0  0  0  0
    8.8082    4.7743   -5.9455 C   0  0  1  0  0  0  0  0  0  0  0  0
    7.6650    5.0864   -4.9420 C   0  0  0  0  0  0  0  0  0  0  0  0
    7.5640    4.1061   -3.7706 C   0  0  0  0  0  0  0  0  0  0  0  0
    7.1509    2.6898   -4.2282 C   0  0  2  0  0  0  0  0  0  0  0  0
    5.6497    2.6649   -4.5853 C   0  0  0  0  0  0  0  0  0  0  0  0
    6.6662   -0.0503    3.6500 H   0  0  0  0  0  0  0  0  0  0  0  0
    7.3222   -0.8335    2.2034 H   0  0  0  0  0  0  0  0  0  0  0  0
    5.8389   -1.4640    2.9733 H   0  0  0  0  0  0  0  0  0  0  0  0
    6.1819    1.2777    1.5949 H   0  0  0  0  0  0  0  0  0  0  0  0
    4.7043    0.7825    2.4247 H   0  0  0  0  0  0  0  0  0  0  0  0
    3.3520   -1.5310   -0.0786 H   0  0  0  0  0  0  0  0  0  0  0  0
    3.1847   -0.8793    1.5570 H   0  0  0  0  0  0  0  0  0  0  0  0
    4.3613   -2.1720    1.2475 H   0  0  0  0  0  0  0  0  0  0  0  0
    4.9074   -2.0812   -1.3305 H   0  0  0  0  0  0  0  0  0  0  0  0
    8.7162    1.0797   -0.3658 H   0  0  0  0  0  0  0  0  0  0  0  0
    5.7147    2.4043   -0.2430 H   0  0  0  0  0  0  0  0  0  0  0  0
    5.7035    3.3493   -1.7349 H   0  0  0  0  0  0  0  0  0  0  0  0
    7.2198    3.1049   -0.8433 H   0  0  0  0  0  0  0  0  0  0  0  0
    8.4954    1.8038   -2.7852 H   0  0  0  0  0  0  0  0  0  0  0  0
    6.6576   -0.0514   -4.3956 H   0  0  0  0  0  0  0  0  0  0  0  0
    8.1469   -0.5310   -3.5891 H   0  0  0  0  0  0  0  0  0  0  0  0
    8.3746    0.1968   -6.1653 H   0  0  0  0  0  0  0  0  0  0  0  0
    9.5266    0.8287   -4.9830 H   0  0  0  0  0  0  0  0  0  0  0  0
    7.3084    2.3042   -6.3835 H   0  0  0  0  0  0  0  0  0  0  0  0
    9.8208    3.2062   -4.9315 H   0  0  0  0  0  0  0  0  0  0  0  0
    9.3943    2.2869   -7.7931 H   0  0  0  0  0  0  0  0  0  0  0  0
   10.5988    1.7969   -6.5996 H   0  0  0  0  0  0  0  0  0  0  0  0
    9.1298    6.0854  -10.1451 H   0  0  0  0  0  0  0  0  0  0  0  0
   10.7746    6.6199   -9.8760 H   0  0  0  0  0  0  0  0  0  0  0  0
   11.0245    8.6917   -8.5948 H   0  0  0  0  0  0  0  0  0  0  0  0
    7.5881    9.7144   -8.5259 H   0  0  0  0  0  0  0  0  0  0  0  0
    7.0197    6.8578   -6.6554 H   0  0  0  0  0  0  0  0  0  0  0  0
    8.6798    7.3986   -6.3826 H   0  0  0  0  0  0  0  0  0  0  0  0
    7.2754    5.1542   -9.1364 H   0  0  0  0  0  0  0  0  0  0  0  0
    6.5707    4.5543   -7.6317 H   0  0  0  0  0  0  0  0  0  0  0  0
    7.8599    3.6420   -8.4417 H   0  0  0  0  0  0  0  0  0  0  0  0
    9.7035    5.2960   -5.5679 H   0  0  0  0  0  0  0  0  0  0  0  0
    6.6960    5.0891   -5.4653 H   0  0  0  0  0  0  0  0  0  0  0  0
    7.7887    6.1052   -4.5485 H   0  0  0  0  0  0  0  0  0  0  0  0
    6.8378    4.5009   -3.0463 H   0  0  0  0  0  0  0  0  0  0  0  0
    8.5283    4.0618   -3.2352 H   0  0  0  0  0  0  0  0  0  0  0  0
    5.4237    3.3722   -5.3981 H   0  0  0  0  0  0  0  0  0  0  0  0
    5.0156    2.9379   -3.7289 H   0  0  0  0  0  0  0  0  0  0  0  0
    5.3306    1.6700   -4.9315 H   0  0  0  0  0  0  0  0  0  0  0  0
  1  2  1  0
  1 41  1  0
  1 42  1  0
  1 43  1  0
  2  3  1  0
  2 44  1  0
  2 45  1  0
  3  4  1  6
  3  5  1  0
  3  6  1  0
  5 46  1  0
  5 47  1  0
  5 48  1  0
  6  7  1  1
  6  8  1  0
  6  9  1  0
  8 49  1  0
  9 10  1  6
  9 11  1  0
  9 12  1  0
 11 50  1  0
 12 13  1  6
 12 14  1  0
 12 15  1  0
 14 51  1  0
 14 52  1  0
 14 53  1  0
 15 16  1  0
 15 39  1  0
 15 54  1  1
 16 17  1  0
 16 55  1  0
 16 56  1  0
 17 18  1  0
 17 57  1  0
 17 58  1  0
 18 19  1  0
 18 39  1  0
 18 59  1  6
 19 20  1  0
 19 36  1  0
 19 60  1  1
 20 21  1  0
 20 61  1  0
 20 62  1  0
 21 22  1  0
 22 23  2  0
 22 24  1  0
 24 25  1  1
 24 26  1  0
 24 34  1  0
 26 27  1  0
 26 63  1  0
 26 64  1  0
 27 28  1  6
 27 29  1  0
 27 30  1  0
 29 65  1  0
 30 31  1  6
 30 32  1  0
 30 33  1  0
 32 66  1  0
 33 34  1  0
 33 67  1  0
 33 68  1  0
 34 35  1  6
 34 36  1  0
 35 69  1  0
 35 70  1  0
 35 71  1  0
 36 37  1  0
 36 72  1  1
 37 38  1  0
 37 73  1  0
 37 74  1  0
 38 39  1  0
 38 75  1  0
 38 76  1  0
 39 40  1  6
 40 77  1  0
 40 78  1  0
 40 79  1  0
M  END

