
     RDKit          3D

 45 47  0  0  0  0  0  0  0  0999 V2000
    0.4465   -1.6952    0.8421 C   0  0  0  0  0  0  0  0  0  0  0  0
    1.8993   -1.6386    1.1859 C   0  0  0  0  0  0  0  0  0  0  0  0
    2.8696   -1.1741    0.3552 C   0  0  0  0  0  0  0  0  0  0  0  0
    4.2926   -1.0773    0.6276 C   0  0  0  0  0  0  0  0  0  0  0  0
    5.0398   -0.0427   -0.0145 C   0  0  0  0  0  0  0  0  0  0  0  0
    4.5232    1.0285   -0.7591 C   0  0  0  0  0  0  0  0  0  0  0  0
    5.3195    1.9520   -1.4378 C   0  0  0  0  0  0  0  0  0  0  0  0
    4.7986    3.0505   -2.1966 C   0  0  0  0  0  0  0  0  0  0  0  0
    5.6786    3.9539   -2.8582 C   0  0  0  0  0  0  0  0  0  0  0  0
    5.1783    5.0270   -3.5900 C   0  0  0  0  0  0  0  0  0  0  0  0
    6.0812    6.0015   -4.3005 C   0  0  0  0  0  0  0  0  0  0  0  0
    3.7753    5.1659   -3.6390 C   0  0  0  0  0  0  0  0  0  0  0  0
    2.9751    4.2317   -2.9624 C   0  0  0  0  0  0  0  0  0  0  0  0
    3.4449    3.2086   -2.2658 N   0  0  0  0  0  0  0  0  0  0  0  0
    4.9800   -1.9960    1.5184 C   0  0  0  0  0  0  0  0  0  0  0  0
    4.4977   -3.3263    1.7577 C   0  0  0  0  0  0  0  0  0  0  0  0
    5.1727   -4.2049    2.5683 C   0  0  0  0  0  0  0  0  0  0  0  0
    6.3878   -3.8340    3.2301 C   0  0  0  0  0  0  0  0  0  0  0  0
    7.0965   -4.7106    4.0791 C   0  0  0  0  0  0  0  0  0  0  0  0
    8.2751   -4.3087    4.7010 C   0  0  0  0  0  0  0  0  0  0  0  0
    8.7812   -3.0074    4.4862 C   0  0  0  0  0  0  0  0  0  0  0  0
    8.1132   -2.1256    3.6560 C   0  0  0  0  0  0  0  0  0  0  0  0
    6.9016   -2.5077    3.0009 C   0  0  0  0  0  0  0  0  0  0  0  0
    6.1992   -1.6323    2.1480 C   0  0  0  0  0  0  0  0  0  0  0  0
    0.0601   -2.7293    0.9096 H   0  0  0  0  0  0  0  0  0  0  0  0
    0.2464   -1.3214   -0.1738 H   0  0  0  0  0  0  0  0  0  0  0  0
   -0.1554   -1.1024    1.5551 H   0  0  0  0  0  0  0  0  0  0  0  0
    2.1750   -1.9700    2.1933 H   0  0  0  0  0  0  0  0  0  0  0  0
    2.5435   -0.7659   -0.6097 H   0  0  0  0  0  0  0  0  0  0  0  0
    6.1298   -0.1001    0.0674 H   0  0  0  0  0  0  0  0  0  0  0  0
    3.4441    1.1857   -0.8327 H   0  0  0  0  0  0  0  0  0  0  0  0
    6.4087    1.8401   -1.4021 H   0  0  0  0  0  0  0  0  0  0  0  0
    6.7584    3.7953   -2.7831 H   0  0  0  0  0  0  0  0  0  0  0  0
    7.1424    5.7430   -4.1714 H   0  0  0  0  0  0  0  0  0  0  0  0
    5.9314    7.0272   -3.9228 H   0  0  0  0  0  0  0  0  0  0  0  0
    5.8647    6.0256   -5.3819 H   0  0  0  0  0  0  0  0  0  0  0  0
    3.3103    5.9838   -4.1960 H   0  0  0  0  0  0  0  0  0  0  0  0
    1.8822    4.3337   -3.0005 H   0  0  0  0  0  0  0  0  0  0  0  0
    3.5948   -3.6583    1.2443 H   0  0  0  0  0  0  0  0  0  0  0  0
    4.7920   -5.2208    2.7064 H   0  0  0  0  0  0  0  0  0  0  0  0
    6.7036   -5.7176    4.2460 H   0  0  0  0  0  0  0  0  0  0  0  0
    8.8097   -4.9990    5.3583 H   0  0  0  0  0  0  0  0  0  0  0  0
    9.7064   -2.6979    4.9794 H   0  0  0  0  0  0  0  0  0  0  0  0
    8.5057   -1.1186    3.4887 H   0  0  0  0  0  0  0  0  0  0  0  0
    6.5916   -0.6219    2.0164 H   0  0  0  0  0  0  0  0  0  0  0  0
  1  2  1  0
  1 25  1  0
  1 26  1  0
  1 27  1  0
  2  3  2  0
  2 28  1  0
  3  4  1  0
  3 29  1  0
  4  5  2  0
  4 15  1  0
  5  6  1  0
  5 30  1  0
  6  7  2  0
  6 31  1  0
  7  8  1  0
  7 32  1  0
  8  9  2  0
  8 14  1  0
  9 10  1  0
  9 33  1  0
 10 11  1  0
 10 12  2  0
 11 34  1  0
 11 35  1  0
 11 36  1  0
 12 13  1  0
 12 37  1  0
 13 14  2  0
 13 38  1  0
 15 16  2  0
 15 24  1  0
 16 17  1  0
 16 39  1  0
 17 18  2  0
 17 40  1  0
 18 19  1  0
 18 23  1  0
 19 20  2  0
 19 41  1  0
 20 21  1  0
 20 42  1  0
 21 22  2  0
 21 43  1  0
 22 23  1  0
 22 44  1  0
 23 24  2  0
 24 45  1  0
M  END

