
     RDKit          3D

 42 43  0  0  0  0  0  0  0  0999 V2000
    2.8594   -0.2795    2.0932 C   0  0  0  0  0  0  0  0  0  0  0  0
    3.3019   -0.1261    0.6618 C   0  0  0  0  0  0  0  0  0  0  0  0
    3.7799    1.1027    0.0982 C   0  0  0  0  0  0  0  0  0  0  0  0
    4.1406    0.9977   -1.2205 C   0  0  0  0  0  0  0  0  0  0  0  0
    3.9041   -0.6087   -1.8074 S   0  0  0  0  0  0  0  0  0  0  0  0
    3.3164   -1.1547   -0.2602 C   0  0  0  0  0  0  0  0  0  0  0  0
    2.8732   -2.5817   -0.0793 C   0  0  0  0  0  0  0  0  0  0  0  0
    1.4250   -2.6830    0.0919 N   0  0  0  0  0  0  0  0  0  0  0  0
    0.8817   -4.0439    0.0644 C   0  0  1  0  0  0  0  0  0  0  0  0
    1.2747   -4.8232    1.3313 C   0  0  0  0  0  0  0  0  0  0  0  0
   -0.6308   -3.9983   -0.0961 C   0  0  0  0  0  0  0  0  0  0  0  0
   -1.2920   -4.9195   -0.9188 C   0  0  0  0  0  0  0  0  0  0  0  0
   -2.6848   -4.9093   -1.0377 C   0  0  0  0  0  0  0  0  0  0  0  0
   -3.4689   -3.9769   -0.3431 C   0  0  0  0  0  0  0  0  0  0  0  0
   -4.9862   -3.9699   -0.4837 C   0  0  1  0  0  0  0  0  0  0  0  0
   -5.6912   -4.2414    0.8565 C   0  0  0  0  0  0  0  0  0  0  0  0
   -5.4980   -2.6711   -1.1309 C   0  0  0  0  0  0  0  0  0  0  0  0
   -2.8008   -3.0516    0.4769 C   0  0  0  0  0  0  0  0  0  0  0  0
   -1.4107   -3.0614    0.6014 C   0  0  0  0  0  0  0  0  0  0  0  0
    2.4086    0.6521    2.4697 H   0  0  0  0  0  0  0  0  0  0  0  0
    3.7106   -0.5176    2.7557 H   0  0  0  0  0  0  0  0  0  0  0  0
    2.1157   -1.0829    2.1894 H   0  0  0  0  0  0  0  0  0  0  0  0
    3.8491    2.0342    0.6643 H   0  0  0  0  0  0  0  0  0  0  0  0
    4.5325    1.7737   -1.8765 H   0  0  0  0  0  0  0  0  0  0  0  0
    3.3681   -2.9986    0.8143 H   0  0  0  0  0  0  0  0  0  0  0  0
    3.2403   -3.1890   -0.9370 H   0  0  0  0  0  0  0  0  0  0  0  0
    0.9698   -2.1241   -0.6290 H   0  0  0  0  0  0  0  0  0  0  0  0
    1.2859   -4.6118   -0.8050 H   0  0  0  0  0  0  0  0  0  0  0  0
    0.8916   -4.3131    2.2289 H   0  0  0  0  0  0  0  0  0  0  0  0
    2.3676   -4.9205    1.4275 H   0  0  0  0  0  0  0  0  0  0  0  0
    0.8513   -5.8384    1.3015 H   0  0  0  0  0  0  0  0  0  0  0  0
   -0.7095   -5.6565   -1.4799 H   0  0  0  0  0  0  0  0  0  0  0  0
   -3.1725   -5.6394   -1.6908 H   0  0  0  0  0  0  0  0  0  0  0  0
   -5.2452   -4.7996   -1.1646 H   0  0  0  0  0  0  0  0  0  0  0  0
   -5.4891   -3.4407    1.5870 H   0  0  0  0  0  0  0  0  0  0  0  0
   -5.3538   -5.1909    1.3006 H   0  0  0  0  0  0  0  0  0  0  0  0
   -6.7837   -4.2973    0.7195 H   0  0  0  0  0  0  0  0  0  0  0  0
   -5.2857   -1.7948   -0.4965 H   0  0  0  0  0  0  0  0  0  0  0  0
   -6.5891   -2.7135   -1.2840 H   0  0  0  0  0  0  0  0  0  0  0  0
   -5.0229   -2.4970   -2.1091 H   0  0  0  0  0  0  0  0  0  0  0  0
   -3.3743   -2.3046    1.0329 H   0  0  0  0  0  0  0  0  0  0  0  0
   -0.9147   -2.3282    1.2413 H   0  0  0  0  0  0  0  0  0  0  0  0
  1  2  1  0
  1 20  1  0
  1 21  1  0
  1 22  1  0
  2  3  1  0
  2  6  2  0
  3  4  2  0
  3 23  1  0
  4  5  1  0
  4 24  1  0
  5  6  1  0
  6  7  1  0
  7  8  1  0
  7 25  1  0
  7 26  1  0
  8  9  1  0
  8 27  1  0
  9 10  1  0
  9 11  1  0
  9 28  1  6
 10 29  1  0
 10 30  1  0
 10 31  1  0
 11 12  2  0
 11 19  1  0
 12 13  1  0
 12 32  1  0
 13 14  2  0
 13 33  1  0
 14 15  1  0
 14 18  1  0
 15 16  1  0
 15 17  1  0
 15 34  1  6
 16 35  1  0
 16 36  1  0
 16 37  1  0
 17 38  1  0
 17 39  1  0
 17 40  1  0
 18 19  2  0
 18 41  1  0
 19 42  1  0
M  END

