
     RDKit          3D

 29 29  0  0  0  0  0  0  0  0999 V2000
    1.2670    0.3340   -0.0335 C   0  0  0  0  0  0  0  0  0  0  0  0
    3.0620    0.6958   -0.0262 S   0  0  0  0  0  0  0  0  0  0  0  0
    3.4564    0.4992   -1.7635 C   0  0  0  0  0  0  0  0  0  0  0  0
    3.3191    1.5740   -2.6599 C   0  0  0  0  0  0  0  0  0  0  0  0
    3.6505    1.4275   -4.0028 C   0  0  0  0  0  0  0  0  0  0  0  0
    4.1426    0.2012   -4.4855 C   0  0  0  0  0  0  0  0  0  0  0  0
    4.4536    0.1676   -5.8079 O   0  0  0  0  0  0  0  0  0  0  0  0
    4.9012   -1.0372   -6.4453 C   0  0  1  0  0  0  0  0  0  0  0  0
    3.7161   -1.9355   -6.8055 C   0  0  0  0  0  0  0  0  0  0  0  0
    5.6791   -0.5990   -7.6672 C   0  0  0  0  0  0  0  0  0  0  0  0
    5.1167    0.3664   -8.4612 N   0  0  0  0  0  0  0  0  0  0  0  0
    6.7690   -1.2374   -7.9148 N   0  0  0  0  0  0  0  0  0  0  0  0
    7.3423   -0.7701   -9.1137 O   0  0  0  0  0  0  0  0  0  0  0  0
    4.2947   -0.8748   -3.5971 C   0  0  0  0  0  0  0  0  0  0  0  0
    3.9539   -0.7160   -2.2497 C   0  0  0  0  0  0  0  0  0  0  0  0
    0.9246    0.4400    1.0067 H   0  0  0  0  0  0  0  0  0  0  0  0
    1.0690   -0.6929   -0.3743 H   0  0  0  0  0  0  0  0  0  0  0  0
    0.7186    1.0478   -0.6655 H   0  0  0  0  0  0  0  0  0  0  0  0
    2.9512    2.5346   -2.2915 H   0  0  0  0  0  0  0  0  0  0  0  0
    3.5472    2.2589   -4.7033 H   0  0  0  0  0  0  0  0  0  0  0  0
    5.6140   -1.5720   -5.8000 H   0  0  0  0  0  0  0  0  0  0  0  0
    3.0437   -1.4166   -7.5044 H   0  0  0  0  0  0  0  0  0  0  0  0
    3.1445   -2.2163   -5.9084 H   0  0  0  0  0  0  0  0  0  0  0  0
    4.0827   -2.8527   -7.2898 H   0  0  0  0  0  0  0  0  0  0  0  0
    4.5369    1.0414   -7.9746 H   0  0  0  0  0  0  0  0  0  0  0  0
    5.7351    0.7432   -9.1721 H   0  0  0  0  0  0  0  0  0  0  0  0
    8.1622   -1.2751   -9.1673 H   0  0  0  0  0  0  0  0  0  0  0  0
    4.6785   -1.8371   -3.9361 H   0  0  0  0  0  0  0  0  0  0  0  0
    4.0784   -1.5551   -1.5612 H   0  0  0  0  0  0  0  0  0  0  0  0
  1  2  1  0
  1 16  1  0
  1 17  1  0
  1 18  1  0
  2  3  1  0
  3  4  2  0
  3 15  1  0
  4  5  1  0
  4 19  1  0
  5  6  2  0
  5 20  1  0
  6  7  1  0
  6 14  1  0
  7  8  1  0
  8  9  1  0
  8 10  1  0
  8 21  1  1
  9 22  1  0
  9 23  1  0
  9 24  1  0
 10 11  1  0
 10 12  2  0
 11 25  1  0
 11 26  1  0
 12 13  1  0
 13 27  1  0
 14 15  2  0
 14 28  1  0
 15 29  1  0
M  END

