
     RDKit          3D

 28 29  0  0  0  0  0  0  0  0999 V2000
    2.6270    0.8924   -0.2216 O   0  0  0  0  0  0  0  0  0  0  0  0
    2.2557   -0.2663    0.0950 C   0  0  0  0  0  0  0  0  0  0  0  0
    1.0209   -0.4329    0.8222 N   0  0  0  0  0  0  0  0  0  0  0  0
    0.2756    0.5947    1.2240 C   0  0  0  0  0  0  0  0  0  0  0  0
   -0.6141    0.6737    2.1291 N   0  0  0  0  0  0  0  0  0  0  0  0
   -1.3233    1.9117    2.2300 C   0  0  0  0  0  0  0  0  0  0  0  0
   -0.5446    3.0254    1.4749 C   0  0  0  0  0  0  0  0  0  0  0  0
    0.5167    2.1985    0.2756 S   0  0  0  0  0  0  0  0  0  0  0  0
    2.9166   -1.5266   -0.1410 C   0  0  0  0  0  0  0  0  0  0  0  0
    2.4329   -2.6009    0.2875 O   0  0  0  0  0  0  0  0  0  0  0  0
    4.1092   -1.3983   -0.8551 N   0  0  0  0  0  0  0  0  0  0  0  0
    4.9976   -2.3805   -1.2636 C   0  0  0  0  0  0  0  0  0  0  0  0
    4.8165   -3.7536   -0.9842 C   0  0  0  0  0  0  0  0  0  0  0  0
    5.7593   -4.6773   -1.4329 C   0  0  0  0  0  0  0  0  0  0  0  0
    6.8915   -4.2907   -2.1581 C   0  0  0  0  0  0  0  0  0  0  0  0
    7.0582   -2.9298   -2.4274 C   0  0  0  0  0  0  0  0  0  0  0  0
    8.4638   -2.3952   -3.3356 Cl  0  0  0  0  0  0  0  0  0  0  0  0
    6.1379   -1.9792   -1.9955 C   0  0  0  0  0  0  0  0  0  0  0  0
    0.8671   -1.3745    1.1824 H   0  0  0  0  0  0  0  0  0  0  0  0
   -1.4688    2.1801    3.2886 H   0  0  0  0  0  0  0  0  0  0  0  0
   -2.3340    1.8130    1.7924 H   0  0  0  0  0  0  0  0  0  0  0  0
    0.1076    3.5907    2.1644 H   0  0  0  0  0  0  0  0  0  0  0  0
   -1.1745    3.7514    0.9397 H   0  0  0  0  0  0  0  0  0  0  0  0
    4.3331   -0.4410   -1.1058 H   0  0  0  0  0  0  0  0  0  0  0  0
    3.9381   -4.0600   -0.4205 H   0  0  0  0  0  0  0  0  0  0  0  0
    5.6073   -5.7370   -1.2099 H   0  0  0  0  0  0  0  0  0  0  0  0
    7.6262   -5.0169   -2.5066 H   0  0  0  0  0  0  0  0  0  0  0  0
    6.3028   -0.9247   -2.2259 H   0  0  0  0  0  0  0  0  0  0  0  0
  1  2  2  0
  2  3  1  0
  2  9  1  0
  3  4  1  0
  3 19  1  0
  4  5  2  0
  4  8  1  0
  5  6  1  0
  6  7  1  0
  6 20  1  0
  6 21  1  0
  7  8  1  0
  7 22  1  0
  7 23  1  0
  9 10  2  0
  9 11  1  0
 11 12  1  0
 11 24  1  0
 12 13  2  0
 12 18  1  0
 13 14  1  0
 13 25  1  0
 14 15  2  0
 14 26  1  0
 15 16  1  0
 15 27  1  0
 16 17  1  0
 16 18  2  0
 18 28  1  0
M  END

