
     RDKit          3D

 40 40  0  0  0  0  0  0  0  0999 V2000
    3.9068    1.6596   -2.5239 C   0  0  0  0  0  0  0  0  0  0  0  0
    4.0656    0.8276   -1.2741 C   0  0  0  0  0  0  0  0  0  0  0  0
    3.7268    1.3226   -0.0102 C   0  0  0  0  0  0  0  0  0  0  0  0
    3.8885    0.5331    1.1314 C   0  0  0  0  0  0  0  0  0  0  0  0
    4.3846   -0.7748    1.0627 C   0  0  0  0  0  0  0  0  0  0  0  0
    4.5427   -1.5941    2.3205 C   0  0  0  0  0  0  0  0  0  0  0  0
    4.7270   -1.2890   -0.2102 C   0  0  0  0  0  0  0  0  0  0  0  0
    5.2575   -2.6921   -0.3872 C   0  0  0  0  0  0  0  0  0  0  0  0
    4.2221   -3.8177   -0.3172 C   0  0  0  0  0  0  0  0  0  0  0  0
    3.1306   -3.6637    0.1897 O   0  0  0  0  0  0  0  0  0  0  0  0
    4.6476   -5.2075   -0.8354 C   0  0  1  0  0  0  0  0  0  0  0  0
    4.2740   -6.2552    0.1125 N   0  0  0  0  0  0  0  0  0  0  0  0
    4.0743   -5.5164   -2.2689 C   0  0  1  0  0  0  0  0  0  0  0  0
    4.3820   -4.3602   -3.2380 C   0  0  0  0  0  0  0  0  0  0  0  0
    4.7570   -6.7988   -2.7782 C   0  0  0  0  0  0  0  0  0  0  0  0
    2.5513   -5.7369   -2.2077 C   0  0  0  0  0  0  0  0  0  0  0  0
    4.5664   -0.4816   -1.3434 C   0  0  0  0  0  0  0  0  0  0  0  0
    3.5057    2.6582   -2.2956 H   0  0  0  0  0  0  0  0  0  0  0  0
    3.2213    1.1796   -3.2426 H   0  0  0  0  0  0  0  0  0  0  0  0
    4.8708    1.7960   -3.0428 H   0  0  0  0  0  0  0  0  0  0  0  0
    3.3350    2.3392    0.0874 H   0  0  0  0  0  0  0  0  0  0  0  0
    3.6202    0.9463    2.1080 H   0  0  0  0  0  0  0  0  0  0  0  0
    4.2852   -1.0032    3.2116 H   0  0  0  0  0  0  0  0  0  0  0  0
    5.5792   -1.9512    2.4516 H   0  0  0  0  0  0  0  0  0  0  0  0
    3.8892   -2.4800    2.2987 H   0  0  0  0  0  0  0  0  0  0  0  0
    6.0002   -2.9430    0.3949 H   0  0  0  0  0  0  0  0  0  0  0  0
    5.8064   -2.7832   -1.3370 H   0  0  0  0  0  0  0  0  0  0  0  0
    5.7470   -5.2130   -0.9321 H   0  0  0  0  0  0  0  0  0  0  0  0
    3.3321   -6.0603    0.4581 H   0  0  0  0  0  0  0  0  0  0  0  0
    4.8826   -6.2214    0.9302 H   0  0  0  0  0  0  0  0  0  0  0  0
    5.4637   -4.1513   -3.2950 H   0  0  0  0  0  0  0  0  0  0  0  0
    3.8648   -3.4291   -2.9547 H   0  0  0  0  0  0  0  0  0  0  0  0
    4.0465   -4.6208   -4.2547 H   0  0  0  0  0  0  0  0  0  0  0  0
    5.8403   -6.6450   -2.9180 H   0  0  0  0  0  0  0  0  0  0  0  0
    4.3339   -7.1047   -3.7489 H   0  0  0  0  0  0  0  0  0  0  0  0
    4.6187   -7.6182   -2.0589 H   0  0  0  0  0  0  0  0  0  0  0  0
    2.0241   -4.8583   -1.8071 H   0  0  0  0  0  0  0  0  0  0  0  0
    2.3040   -6.6032   -1.5757 H   0  0  0  0  0  0  0  0  0  0  0  0
    2.1595   -5.9411   -3.2173 H   0  0  0  0  0  0  0  0  0  0  0  0
    4.8459   -0.8879   -2.3213 H   0  0  0  0  0  0  0  0  0  0  0  0
  1  2  1  0
  1 18  1  0
  1 19  1  0
  1 20  1  0
  2  3  2  0
  2 17  1  0
  3  4  1  0
  3 21  1  0
  4  5  2  0
  4 22  1  0
  5  6  1  0
  5  7  1  0
  6 23  1  0
  6 24  1  0
  6 25  1  0
  7  8  1  0
  7 17  2  0
  8  9  1  0
  8 26  1  0
  8 27  1  0
  9 10  2  0
  9 11  1  0
 11 12  1  0
 11 13  1  0
 11 28  1  6
 12 29  1  0
 12 30  1  0
 13 14  1  6
 13 15  1  0
 13 16  1  0
 14 31  1  0
 14 32  1  0
 14 33  1  0
 15 34  1  0
 15 35  1  0
 15 36  1  0
 16 37  1  0
 16 38  1  0
 16 39  1  0
 17 40  1  0
M  END

