
     RDKit          3D

 28 29  0  0  0  0  0  0  0  0999 V2000
    2.7209    1.2628   -1.1946 N   0  0  0  0  0  0  0  0  0  0  0  0
    2.3060    0.0852   -0.7268 N   0  0  0  0  0  0  0  0  0  0  0  0
    3.0824   -1.0993   -0.6910 C   0  0  0  0  0  0  0  0  0  0  0  0
    4.3110   -1.2183   -1.3396 C   0  0  0  0  0  0  0  0  0  0  0  0
    4.9657   -2.4512   -1.2632 C   0  0  0  0  0  0  0  0  0  0  0  0
    6.2760   -2.7856   -1.9934 C   0  0  0  0  0  0  0  0  0  0  0  0
    6.4319   -3.9503   -2.3337 O   0  0  0  0  0  0  0  0  0  0  0  0
    7.0820   -1.7387   -2.1939 N   0  0  0  0  0  0  0  0  0  0  0  0
    8.3409   -1.6119   -2.8924 C   0  0  0  0  0  0  0  0  0  0  0  0
    8.9793   -2.6394   -3.5747 C   0  0  0  0  0  0  0  0  0  0  0  0
   10.2115   -2.3379   -4.2268 C   0  0  0  0  0  0  0  0  0  0  0  0
   10.7522   -1.0170   -4.1599 C   0  0  0  0  0  0  0  0  0  0  0  0
   11.7968   -0.5826   -4.6552 O   0  0  0  0  0  0  0  0  0  0  0  0
    9.9513   -0.1139   -3.4167 N   0  0  0  0  0  0  0  0  0  0  0  0
   10.3153    0.8271   -3.3402 H   0  0  0  0  0  0  0  0  0  0  0  0
    8.7613   -0.3518   -2.7777 N   0  0  0  0  0  0  0  0  0  0  0  0
    4.3264   -3.4776   -0.5545 C   0  0  0  0  0  0  0  0  0  0  0  0
    3.1047   -3.2350    0.0705 C   0  0  0  0  0  0  0  0  0  0  0  0
    2.4818   -2.0519    0.0011 N   0  0  0  0  0  0  0  0  0  0  0  0
    1.9964    1.9622   -1.3341 H   0  0  0  0  0  0  0  0  0  0  0  0
    3.4660    1.2374   -1.8863 H   0  0  0  0  0  0  0  0  0  0  0  0
    1.4736    0.0707   -0.1383 H   0  0  0  0  0  0  0  0  0  0  0  0
    4.7572   -0.4001   -1.9073 H   0  0  0  0  0  0  0  0  0  0  0  0
    6.8801   -0.8553   -1.7401 H   0  0  0  0  0  0  0  0  0  0  0  0
    8.5470   -3.6354   -3.5990 H   0  0  0  0  0  0  0  0  0  0  0  0
   10.7723   -3.0882   -4.7798 H   0  0  0  0  0  0  0  0  0  0  0  0
    4.7996   -4.4599   -0.5236 H   0  0  0  0  0  0  0  0  0  0  0  0
    2.5992   -4.0185    0.6418 H   0  0  0  0  0  0  0  0  0  0  0  0
  1  2  1  0
  1 20  1  0
  1 21  1  0
  2  3  1  0
  2 22  1  0
  3  4  2  0
  3 19  1  0
  4  5  1  0
  4 23  1  0
  5  6  1  0
  5 17  2  0
  6  7  2  0
  6  8  1  0
  8  9  1  0
  8 24  1  0
  9 10  1  0
  9 16  2  0
 10 11  2  0
 10 25  1  0
 11 12  1  0
 11 26  1  0
 12 13  2  0
 12 14  1  0
 14 15  1  0
 14 16  1  0
 17 18  1  0
 17 27  1  0
 18 19  2  0
 18 28  1  0
M  END

