
     RDKit          3D

 69 77  0  0  0  0  0  0  0  0999 V2000
   -0.3083   -0.0598    3.0337 C   0  0  0  0  0  0  0  0  0  0  0  0
    0.5077   -1.1735    2.7955 C   0  0  0  0  0  0  0  0  0  0  0  0
    1.6181   -1.0809    1.9603 C   0  0  0  0  0  0  0  0  0  0  0  0
    1.9660    0.1374    1.3205 C   0  0  0  0  0  0  0  0  0  0  0  0
    3.1406    0.2002    0.4504 C   0  0  0  0  0  0  0  0  0  0  0  0
    3.5449    1.3628   -0.2197 C   0  0  0  0  0  0  0  0  0  0  0  0
    4.6801    1.3618   -1.0403 C   0  0  0  0  0  0  0  0  0  0  0  0
    5.1544    2.5430   -1.7629 C   0  0  0  0  0  0  0  0  0  0  0  0
    4.5057    3.8043   -1.7020 C   0  0  0  0  0  0  0  0  0  0  0  0
    4.9879    4.9057   -2.4023 C   0  0  0  0  0  0  0  0  0  0  0  0
    6.1395    4.8047   -3.1976 C   0  0  0  0  0  0  0  0  0  0  0  0
    6.7948    3.5687   -3.2719 C   0  0  0  0  0  0  0  0  0  0  0  0
    6.3168    2.4629   -2.5730 C   0  0  0  0  0  0  0  0  0  0  0  0
    5.4001    0.1839   -1.1801 N   0  0  0  0  0  0  0  0  0  0  0  0
    4.9449   -0.8638   -0.5084 C   0  0  0  0  0  0  0  0  0  0  0  0
    5.7473   -2.1350   -0.6704 C   0  0  0  0  0  0  0  0  0  0  0  0
    6.8773   -2.1649   -1.5010 C   0  0  0  0  0  0  0  0  0  0  0  0
    7.6254   -3.3334   -1.6542 C   0  0  0  0  0  0  0  0  0  0  0  0
    7.2343   -4.4862   -0.9664 C   0  0  0  0  0  0  0  0  0  0  0  0
    8.0078   -5.7018   -1.1167 N   0  0  0  0  0  0  0  0  0  0  0  0
    9.2271   -5.9627   -0.4696 C   0  0  0  0  0  0  0  0  0  0  0  0
    9.9280   -5.1503    0.4211 C   0  0  0  0  0  0  0  0  0  0  0  0
   11.1316   -5.6539    0.9319 C   0  0  0  0  0  0  0  0  0  0  0  0
   11.6078   -6.9201    0.5635 C   0  0  0  0  0  0  0  0  0  0  0  0
   10.8930   -7.7324   -0.3312 C   0  0  0  0  0  0  0  0  0  0  0  0
    9.6927   -7.2469   -0.8501 C   0  0  0  0  0  0  0  0  0  0  0  0
    8.6960   -7.7697   -1.7659 C   0  0  0  0  0  0  0  0  0  0  0  0
    8.5025   -8.9180   -2.4997 C   0  0  0  0  0  0  0  0  0  0  0  0
    9.3243  -10.0010   -2.5444 O   0  0  0  0  0  0  0  0  0  0  0  0
    8.7379  -10.8973   -3.4002 C   0  0  0  0  0  0  0  0  0  0  0  0
    9.2455  -12.1421   -3.7340 C   0  0  0  0  0  0  0  0  0  0  0  0
    8.4852  -12.9033   -4.6305 C   0  0  0  0  0  0  0  0  0  0  0  0
    7.2663  -12.4303   -5.1671 C   0  0  0  0  0  0  0  0  0  0  0  0
    6.7705  -11.1801   -4.8228 C   0  0  0  0  0  0  0  0  0  0  0  0
    7.5163  -10.3902   -3.9204 C   0  0  0  0  0  0  0  0  0  0  0  0
    7.3538   -9.0955   -3.3373 C   0  0  0  0  0  0  0  0  0  0  0  0
    6.3662   -8.0743   -3.4389 C   0  0  0  0  0  0  0  0  0  0  0  0
    6.5201   -6.9087   -2.7220 C   0  0  0  0  0  0  0  0  0  0  0  0
    7.6735   -6.7613   -1.8914 C   0  0  0  0  0  0  0  0  0  0  0  0
    6.1136   -4.4812   -0.1303 C   0  0  0  0  0  0  0  0  0  0  0  0
    5.3762   -3.3040    0.0097 C   0  0  0  0  0  0  0  0  0  0  0  0
    3.8889   -0.9567    0.2862 N   0  0  0  0  0  0  0  0  0  0  0  0
    1.1257    1.2532    1.5751 C   0  0  0  0  0  0  0  0  0  0  0  0
    0.0175    1.1546    2.4106 C   0  0  0  0  0  0  0  0  0  0  0  0
   -1.1791   -0.1336    3.6897 H   0  0  0  0  0  0  0  0  0  0  0  0
    0.2721   -2.1308    3.2711 H   0  0  0  0  0  0  0  0  0  0  0  0
    2.2508   -1.9488    1.7773 H   0  0  0  0  0  0  0  0  0  0  0  0
    2.9690    2.2789   -0.1005 H   0  0  0  0  0  0  0  0  0  0  0  0
    3.6065    3.9276   -1.0953 H   0  0  0  0  0  0  0  0  0  0  0  0
    4.4585    5.8603   -2.3280 H   0  0  0  0  0  0  0  0  0  0  0  0
    6.5157    5.6718   -3.7461 H   0  0  0  0  0  0  0  0  0  0  0  0
    7.6951    3.4674   -3.8860 H   0  0  0  0  0  0  0  0  0  0  0  0
    6.8292    1.5033   -2.6320 H   0  0  0  0  0  0  0  0  0  0  0  0
    7.1470   -1.2457   -2.0212 H   0  0  0  0  0  0  0  0  0  0  0  0
    8.5022   -3.3525   -2.3062 H   0  0  0  0  0  0  0  0  0  0  0  0
    9.5510   -4.1670    0.7033 H   0  0  0  0  0  0  0  0  0  0  0  0
   11.7077   -5.0452    1.6316 H   0  0  0  0  0  0  0  0  0  0  0  0
   12.5499   -7.2817    0.9803 H   0  0  0  0  0  0  0  0  0  0  0  0
   11.2653   -8.7189   -0.6133 H   0  0  0  0  0  0  0  0  0  0  0  0
   10.1863  -12.5035   -3.3179 H   0  0  0  0  0  0  0  0  0  0  0  0
    8.8460  -13.8917   -4.9229 H   0  0  0  0  0  0  0  0  0  0  0  0
    6.7108  -13.0620   -5.8624 H   0  0  0  0  0  0  0  0  0  0  0  0
    5.8292  -10.8152   -5.2375 H   0  0  0  0  0  0  0  0  0  0  0  0
    5.4967   -8.2155   -4.0822 H   0  0  0  0  0  0  0  0  0  0  0  0
    5.7884   -6.1033   -2.7731 H   0  0  0  0  0  0  0  0  0  0  0  0
    5.8261   -5.3865    0.4103 H   0  0  0  0  0  0  0  0  0  0  0  0
    4.4963   -3.2581    0.6515 H   0  0  0  0  0  0  0  0  0  0  0  0
    1.3430    2.2177    1.1121 H   0  0  0  0  0  0  0  0  0  0  0  0
   -0.6041    2.0388    2.5808 H   0  0  0  0  0  0  0  0  0  0  0  0
  1  2  2  0
  1 44  1  0
  1 45  1  0
  2  3  1  0
  2 46  1  0
  3  4  2  0
  3 47  1  0
  4  5  1  0
  4 43  1  0
  5  6  2  0
  5 42  1  0
  6  7  1  0
  6 48  1  0
  7  8  1  0
  7 14  2  0
  8  9  2  0
  8 13  1  0
  9 10  1  0
  9 49  1  0
 10 11  2  0
 10 50  1  0
 11 12  1  0
 11 51  1  0
 12 13  2  0
 12 52  1  0
 13 53  1  0
 14 15  1  0
 15 16  1  0
 15 42  2  0
 16 17  2  0
 16 41  1  0
 17 18  1  0
 17 54  1  0
 18 19  2  0
 18 55  1  0
 19 20  1  0
 19 40  1  0
 20 21  1  0
 20 39  1  0
 21 22  2  0
 21 26  1  0
 22 23  1  0
 22 56  1  0
 23 24  2  0
 23 57  1  0
 24 25  1  0
 24 58  1  0
 25 26  2  0
 25 59  1  0
 26 27  1  0
 27 28  1  0
 27 39  2  0
 28 29  1  0
 28 36  2  0
 29 30  1  0
 30 31  2  0
 30 35  1  0
 31 32  1  0
 31 60  1  0
 32 33  2  0
 32 61  1  0
 33 34  1  0
 33 62  1  0
 34 35  2  0
 34 63  1  0
 35 36  1  0
 36 37  1  0
 37 38  2  0
 37 64  1  0
 38 39  1  0
 38 65  1  0
 40 41  2  0
 40 66  1  0
 41 67  1  0
 43 44  2  0
 43 68  1  0
 44 69  1  0
M  END

