
     RDKit          3D

 34 34  0  0  0  0  0  0  0  0999 V2000
    1.3752    0.7389    0.8792 C   0  0  0  0  0  0  0  0  0  0  0  0
    2.0628    0.0459   -0.1376 O   0  0  0  0  0  0  0  0  0  0  0  0
    2.6913    0.7511   -1.1129 C   0  0  0  0  0  0  0  0  0  0  0  0
    2.7110    2.1436   -1.1837 C   0  0  0  0  0  0  0  0  0  0  0  0
    3.3953    2.7736   -2.2425 C   0  0  0  0  0  0  0  0  0  0  0  0
    3.3612    4.1296   -2.2252 O   0  0  0  0  0  0  0  0  0  0  0  0
    4.0228    4.8461   -3.2458 C   0  0  0  0  0  0  0  0  0  0  0  0
    4.0461    2.0150   -3.2142 C   0  0  0  0  0  0  0  0  0  0  0  0
    4.0249    0.6047   -3.1428 C   0  0  0  0  0  0  0  0  0  0  0  0
    4.7651   -0.1107   -4.2598 C   0  0  0  0  0  0  0  0  0  0  0  0
    5.3072    0.5690   -5.1121 O   0  0  0  0  0  0  0  0  0  0  0  0
    4.8609   -1.6584   -4.3630 C   0  0  1  0  0  0  0  0  0  0  0  0
    3.4555   -2.2841   -4.5222 C   0  0  0  0  0  0  0  0  0  0  0  0
    5.6818   -1.9979   -5.6209 C   0  0  0  0  0  0  0  0  0  0  0  0
    5.5988   -2.2411   -3.1353 C   0  0  0  0  0  0  0  0  0  0  0  0
    3.3490   -0.0198   -2.0916 C   0  0  0  0  0  0  0  0  0  0  0  0
    0.9505   -0.0235    1.5461 H   0  0  0  0  0  0  0  0  0  0  0  0
    0.5540    1.3566    0.4727 H   0  0  0  0  0  0  0  0  0  0  0  0
    2.0510    1.3894    1.4636 H   0  0  0  0  0  0  0  0  0  0  0  0
    2.2165    2.7781   -0.4495 H   0  0  0  0  0  0  0  0  0  0  0  0
    3.8646    5.9116   -3.0311 H   0  0  0  0  0  0  0  0  0  0  0  0
    3.6102    4.6151   -4.2439 H   0  0  0  0  0  0  0  0  0  0  0  0
    5.1074    4.6381   -3.2559 H   0  0  0  0  0  0  0  0  0  0  0  0
    4.5824    2.4663   -4.0460 H   0  0  0  0  0  0  0  0  0  0  0  0
    2.9357   -1.8614   -5.3969 H   0  0  0  0  0  0  0  0  0  0  0  0
    2.8091   -2.1376   -3.6474 H   0  0  0  0  0  0  0  0  0  0  0  0
    3.5536   -3.3695   -4.6876 H   0  0  0  0  0  0  0  0  0  0  0  0
    5.2083   -1.5978   -6.5288 H   0  0  0  0  0  0  0  0  0  0  0  0
    5.7681   -3.0914   -5.7233 H   0  0  0  0  0  0  0  0  0  0  0  0
    6.6933   -1.5706   -5.5672 H   0  0  0  0  0  0  0  0  0  0  0  0
    5.0627   -2.0877   -2.1900 H   0  0  0  0  0  0  0  0  0  0  0  0
    6.5991   -1.7914   -3.0294 H   0  0  0  0  0  0  0  0  0  0  0  0
    5.7358   -3.3264   -3.2706 H   0  0  0  0  0  0  0  0  0  0  0  0
    3.2960   -1.0988   -1.9769 H   0  0  0  0  0  0  0  0  0  0  0  0
  1  2  1  0
  1 17  1  0
  1 18  1  0
  1 19  1  0
  2  3  1  0
  3  4  2  0
  3 16  1  0
  4  5  1  0
  4 20  1  0
  5  6  1  0
  5  8  2  0
  6  7  1  0
  7 21  1  0
  7 22  1  0
  7 23  1  0
  8  9  1  0
  8 24  1  0
  9 10  1  0
  9 16  2  0
 10 11  2  0
 12 10  1  1
 12 13  1  0
 12 14  1  0
 12 15  1  0
 13 25  1  0
 13 26  1  0
 13 27  1  0
 14 28  1  0
 14 29  1  0
 14 30  1  0
 15 31  1  0
 15 32  1  0
 15 33  1  0
 16 34  1  0
M  END

