
     RDKit          3D

 36 36  0  0  0  0  0  0  0  0999 V2000
    1.2595   -1.7479    6.3878 C   0  0  0  0  0  0  0  0  0  0  0  0
    2.6791   -1.6711    6.2046 N   0  0  0  0  0  0  0  0  0  0  0  0
    3.3179   -1.2263    4.9914 C   0  0  0  0  0  0  0  0  0  0  0  0
    4.8296   -1.1998    4.9833 C   0  0  0  0  0  0  0  0  0  0  0  0
    5.2996   -0.6091    3.2366 S   0  0  1  0  0  0  0  0  0  0  0  0
    4.6802   -1.7047    2.4444 O   0  0  0  0  0  0  0  0  0  0  0  0
    4.6539    0.7298    3.2576 O   0  0  0  0  0  0  0  0  0  0  0  0
    6.9629   -0.5207    3.0219 C   0  0  0  0  0  0  0  0  0  0  0  0
    7.7076   -1.7173    2.6915 C   0  0  0  0  0  0  0  0  0  0  0  0
    9.0871   -1.7130    2.7295 C   0  0  0  0  0  0  0  0  0  0  0  0
    9.8777   -2.9505    2.3802 C   0  0  0  0  0  0  0  0  0  0  0  0
    9.7792   -0.5248    3.1169 C   0  0  0  0  0  0  0  0  0  0  0  0
   11.1667   -0.5431    3.2150 O   0  0  0  0  0  0  0  0  0  0  0  0
   11.8716   -0.1562    2.0542 C   0  0  0  0  0  0  0  0  0  0  0  0
    9.0640    0.6489    3.5074 C   0  0  0  0  0  0  0  0  0  0  0  0
    9.8310    1.8653    3.9660 C   0  0  0  0  0  0  0  0  0  0  0  0
    7.6844    0.6507    3.4719 C   0  0  0  0  0  0  0  0  0  0  0  0
    0.9698   -1.1157    7.2430 H   0  0  0  0  0  0  0  0  0  0  0  0
    0.9811   -2.7849    6.6365 H   0  0  0  0  0  0  0  0  0  0  0  0
    0.7416   -1.4214    5.4799 H   0  0  0  0  0  0  0  0  0  0  0  0
    3.2691   -1.9548    6.9864 H   0  0  0  0  0  0  0  0  0  0  0  0
    2.9103   -0.2249    4.7556 H   0  0  0  0  0  0  0  0  0  0  0  0
    2.9427   -1.8709    4.1726 H   0  0  0  0  0  0  0  0  0  0  0  0
    5.2713   -2.1959    5.1303 H   0  0  0  0  0  0  0  0  0  0  0  0
    5.2450   -0.4829    5.7059 H   0  0  0  0  0  0  0  0  0  0  0  0
    7.1666   -2.6109    2.3771 H   0  0  0  0  0  0  0  0  0  0  0  0
    9.2154   -3.8184    2.2437 H   0  0  0  0  0  0  0  0  0  0  0  0
   10.6119   -3.1870    3.1674 H   0  0  0  0  0  0  0  0  0  0  0  0
   10.4544   -2.8237    1.4470 H   0  0  0  0  0  0  0  0  0  0  0  0
   12.9475   -0.2136    2.2846 H   0  0  0  0  0  0  0  0  0  0  0  0
   11.6314    0.8784    1.7451 H   0  0  0  0  0  0  0  0  0  0  0  0
   11.6591   -0.8204    1.1953 H   0  0  0  0  0  0  0  0  0  0  0  0
   10.5596    1.6022    4.7503 H   0  0  0  0  0  0  0  0  0  0  0  0
    9.1524    2.6365    4.3601 H   0  0  0  0  0  0  0  0  0  0  0  0
   10.4118    2.3225    3.1456 H   0  0  0  0  0  0  0  0  0  0  0  0
    7.1262    1.5467    3.7468 H   0  0  0  0  0  0  0  0  0  0  0  0
  1  2  1  0
  1 18  1  0
  1 19  1  0
  1 20  1  0
  2  3  1  0
  2 21  1  0
  3  4  1  0
  3 22  1  0
  3 23  1  0
  5  4  1  1
  4 24  1  0
  4 25  1  0
  5  6  2  0
  5  7  2  0
  5  8  1  0
  8  9  2  0
  8 17  1  0
  9 10  1  0
  9 26  1  0
 10 11  1  0
 10 12  2  0
 11 27  1  0
 11 28  1  0
 11 29  1  0
 12 13  1  0
 12 15  1  0
 13 14  1  0
 14 30  1  0
 14 31  1  0
 14 32  1  0
 15 16  1  0
 15 17  2  0
 16 33  1  0
 16 34  1  0
 16 35  1  0
 17 36  1  0
M  END

