
     RDKit          3D

 48 51  0  0  0  0  0  0  0  0999 V2000
    3.6522   -0.0358   -0.0748 O   0  0  0  0  0  0  0  0  0  0  0  0
    3.8736    1.1147   -0.4082 C   0  0  0  0  0  0  0  0  0  0  0  0
    3.0146    2.3254    0.0016 C   0  0  1  0  0  0  0  0  0  0  0  0
    3.3588    2.7149    1.4512 C   0  0  0  0  0  0  0  0  0  0  0  0
    4.4082    3.3176    1.6467 O   0  0  0  0  0  0  0  0  0  0  0  0
    2.5057    2.3920    2.4750 N   0  0  0  0  0  0  0  0  0  0  0  0
    2.8075    2.9116    3.8142 C   0  0  0  0  0  0  0  0  0  0  0  0
    1.7497    3.9398    4.2151 C   0  0  0  0  0  0  0  0  0  0  0  0
    0.4270    3.3344    4.1319 N   0  0  0  0  0  0  0  0  0  0  0  0
    0.1232    2.8008    2.8144 C   0  0  0  0  0  0  0  0  0  0  0  0
    1.1751    1.7591    2.3834 C   0  0  2  0  0  0  0  0  0  0  0  0
    1.1298    0.4196    3.1275 C   0  0  0  0  0  0  0  0  0  0  0  0
    1.8288   -0.6766    2.5977 C   0  0  0  0  0  0  0  0  0  0  0  0
    1.7622   -1.9054    3.2533 C   0  0  0  0  0  0  0  0  0  0  0  0
    0.9948   -2.0023    4.4183 C   0  0  0  0  0  0  0  0  0  0  0  0
    0.3281   -0.9711    4.9381 N   0  0  0  0  0  0  0  0  0  0  0  0
    0.4002    0.2069    4.3091 C   0  0  0  0  0  0  0  0  0  0  0  0
    3.4595    3.4196   -0.9831 C   0  0  0  0  0  0  0  0  0  0  0  0
    4.8879    3.0203   -1.3762 C   0  0  0  0  0  0  0  0  0  0  0  0
    4.9145    1.5647   -1.1887 N   0  0  0  0  0  0  0  0  0  0  0  0
    5.9915    0.7797   -1.6710 C   0  0  0  0  0  0  0  0  0  0  0  0
    5.9288   -0.6283   -1.7123 C   0  0  0  0  0  0  0  0  0  0  0  0
    7.0026   -1.3672   -2.2076 C   0  0  0  0  0  0  0  0  0  0  0  0
    8.1424   -0.7116   -2.6660 C   0  0  0  0  0  0  0  0  0  0  0  0
    9.1710   -1.4284   -3.1448 F   0  0  0  0  0  0  0  0  0  0  0  0
    8.2304    0.6758   -2.6345 C   0  0  0  0  0  0  0  0  0  0  0  0
    7.1575    1.4175   -2.1365 C   0  0  0  0  0  0  0  0  0  0  0  0
    1.9626    2.0506   -0.1306 H   0  0  0  0  0  0  0  0  0  0  0  0
    3.8072    3.3584    3.7838 H   0  0  0  0  0  0  0  0  0  0  0  0
    2.8078    2.0752    4.5314 H   0  0  0  0  0  0  0  0  0  0  0  0
    1.8602    4.8306    3.5557 H   0  0  0  0  0  0  0  0  0  0  0  0
    1.9317    4.2701    5.2506 H   0  0  0  0  0  0  0  0  0  0  0  0
   -0.2975    3.9785    4.4403 H   0  0  0  0  0  0  0  0  0  0  0  0
    0.1090    3.5862    2.0239 H   0  0  0  0  0  0  0  0  0  0  0  0
   -0.8743    2.3341    2.8298 H   0  0  0  0  0  0  0  0  0  0  0  0
    0.9815    1.5286    1.3299 H   0  0  0  0  0  0  0  0  0  0  0  0
    2.4170   -0.5694    1.6812 H   0  0  0  0  0  0  0  0  0  0  0  0
    2.2930   -2.7775    2.8638 H   0  0  0  0  0  0  0  0  0  0  0  0
    0.9182   -2.9569    4.9538 H   0  0  0  0  0  0  0  0  0  0  0  0
   -0.1299    1.0407    4.7769 H   0  0  0  0  0  0  0  0  0  0  0  0
    3.4261    4.4272   -0.5498 H   0  0  0  0  0  0  0  0  0  0  0  0
    2.8062    3.3987   -1.8690 H   0  0  0  0  0  0  0  0  0  0  0  0
    5.6299    3.5040   -0.7224 H   0  0  0  0  0  0  0  0  0  0  0  0
    5.1190    3.2696   -2.4232 H   0  0  0  0  0  0  0  0  0  0  0  0
    5.0412   -1.1352   -1.3435 H   0  0  0  0  0  0  0  0  0  0  0  0
    6.9615   -2.4578   -2.2432 H   0  0  0  0  0  0  0  0  0  0  0  0
    9.1365    1.1671   -2.9941 H   0  0  0  0  0  0  0  0  0  0  0  0
    7.2481    2.5026   -2.1050 H   0  0  0  0  0  0  0  0  0  0  0  0
  1  2  2  0
  2  3  1  0
  2 20  1  0
  3  4  1  0
  3 18  1  0
  3 28  1  1
  4  5  2  0
  4  6  1  0
  6  7  1  0
  6 11  1  0
  7  8  1  0
  7 29  1  0
  7 30  1  0
  8  9  1  0
  8 31  1  0
  8 32  1  0
  9 10  1  0
  9 33  1  0
 10 11  1  0
 10 34  1  0
 10 35  1  0
 11 12  1  0
 11 36  1  6
 12 13  2  0
 12 17  1  0
 13 14  1  0
 13 37  1  0
 14 15  2  0
 14 38  1  0
 15 16  1  0
 15 39  1  0
 16 17  2  0
 17 40  1  0
 18 19  1  0
 18 41  1  0
 18 42  1  0
 19 20  1  0
 19 43  1  0
 19 44  1  0
 20 21  1  0
 21 22  2  0
 21 27  1  0
 22 23  1  0
 22 45  1  0
 23 24  2  0
 23 46  1  0
 24 25  1  0
 24 26  1  0
 26 27  2  0
 26 47  1  0
 27 48  1  0
M  END

