
     RDKit          3D

 78 85  0  0  0  0  0  0  0  0999 V2000
    0.3360    0.7597    3.7188 C   0  0  0  0  0  0  0  0  0  0  0  0
    0.0424    1.4991    2.5686 C   0  0  0  0  0  0  0  0  0  0  0  0
    0.8877    1.4494    1.4588 C   0  0  0  0  0  0  0  0  0  0  0  0
    2.0545    0.6655    1.4896 C   0  0  0  0  0  0  0  0  0  0  0  0
    2.9247    0.6259    0.3637 N   0  0  0  0  0  0  0  0  0  0  0  0
    3.2754    1.8456   -0.2805 C   0  0  0  0  0  0  0  0  0  0  0  0
    3.6357    2.9723    0.4798 C   0  0  0  0  0  0  0  0  0  0  0  0
    3.9638    4.1734   -0.1514 C   0  0  0  0  0  0  0  0  0  0  0  0
    3.9541    4.2686   -1.5466 C   0  0  0  0  0  0  0  0  0  0  0  0
    3.6025    3.1482   -2.3065 C   0  0  0  0  0  0  0  0  0  0  0  0
    3.2568    1.9482   -1.6831 C   0  0  0  0  0  0  0  0  0  0  0  0
    3.4323   -0.6041   -0.1037 C   0  0  0  0  0  0  0  0  0  0  0  0
    2.6550   -1.7790   -0.0405 C   0  0  0  0  0  0  0  0  0  0  0  0
    3.1618   -2.9919   -0.4934 C   0  0  0  0  0  0  0  0  0  0  0  0
    4.4563   -3.0861   -1.0382 C   0  0  0  0  0  0  0  0  0  0  0  0
    5.0219   -4.3443   -1.5253 C   0  0  0  0  0  0  0  0  0  0  0  0
    6.2035   -4.4627   -2.0771 N   0  0  0  0  0  0  0  0  0  0  0  0
    6.4792   -5.7423   -2.4347 C   0  0  0  0  0  0  0  0  0  0  0  0
    5.5034   -6.6877   -2.1689 C   0  0  0  0  0  0  0  0  0  0  0  0
    5.5080   -8.1085   -2.4313 C   0  0  0  0  0  0  0  0  0  0  0  0
    4.5245   -9.0510   -2.1834 C   0  0  0  0  0  0  0  0  0  0  0  0
    4.8018  -10.3309   -2.5384 N   0  0  0  0  0  0  0  0  0  0  0  0
    5.9917  -10.4524   -3.0715 C   0  0  0  0  0  0  0  0  0  0  0  0
    6.5615  -11.7122   -3.5498 C   0  0  0  0  0  0  0  0  0  0  0  0
    5.8250  -12.9053   -3.4000 C   0  0  0  0  0  0  0  0  0  0  0  0
    6.3320  -14.1220   -3.8371 C   0  0  0  0  0  0  0  0  0  0  0  0
    7.5981  -14.1988   -4.4557 C   0  0  0  0  0  0  0  0  0  0  0  0
    8.1124  -15.4331   -4.9063 N   0  0  0  0  0  0  0  0  0  0  0  0
    7.2453  -16.4163   -5.4599 C   0  0  0  0  0  0  0  0  0  0  0  0
    6.2533  -16.0562   -6.3895 C   0  0  0  0  0  0  0  0  0  0  0  0
    5.4059  -17.0262   -6.9275 C   0  0  0  0  0  0  0  0  0  0  0  0
    5.5427  -18.3699   -6.5642 C   0  0  0  0  0  0  0  0  0  0  0  0
    6.5346  -18.7333   -5.6476 C   0  0  0  0  0  0  0  0  0  0  0  0
    7.3753  -17.7673   -5.0921 C   0  0  0  0  0  0  0  0  0  0  0  0
    9.5060  -15.7071   -4.8193 C   0  0  0  0  0  0  0  0  0  0  0  0
   10.2226  -15.4107   -3.6458 C   0  0  0  0  0  0  0  0  0  0  0  0
   11.5901  -15.6799   -3.5680 C   0  0  0  0  0  0  0  0  0  0  0  0
   12.2622  -16.2634   -4.6470 C   0  0  0  0  0  0  0  0  0  0  0  0
   11.5509  -16.5693   -5.8115 C   0  0  0  0  0  0  0  0  0  0  0  0
   10.1865  -16.2885   -5.9039 C   0  0  0  0  0  0  0  0  0  0  0  0
    8.3346  -13.0068   -4.6121 C   0  0  0  0  0  0  0  0  0  0  0  0
    7.8262  -11.7931   -4.1627 C   0  0  0  0  0  0  0  0  0  0  0  0
    6.8739   -8.9227   -3.1623 S   0  0  0  0  0  0  0  0  0  0  0  0
    4.1501   -5.8783   -1.4097 S   0  0  0  0  0  0  0  0  0  0  0  0
    5.2277   -1.9078   -1.1083 C   0  0  0  0  0  0  0  0  0  0  0  0
    4.7316   -0.6955   -0.6475 C   0  0  0  0  0  0  0  0  0  0  0  0
    2.3520   -0.0683    2.6518 C   0  0  0  0  0  0  0  0  0  0  0  0
    1.4931   -0.0256    3.7512 C   0  0  0  0  0  0  0  0  0  0  0  0
   -0.3307    0.7962    4.5835 H   0  0  0  0  0  0  0  0  0  0  0  0
   -0.8610    2.1134    2.5278 H   0  0  0  0  0  0  0  0  0  0  0  0
    0.6486    2.0193    0.5588 H   0  0  0  0  0  0  0  0  0  0  0  0
    3.6566    2.8998    1.5689 H   0  0  0  0  0  0  0  0  0  0  0  0
    4.2419    5.0394    0.4550 H   0  0  0  0  0  0  0  0  0  0  0  0
    4.2176    5.2082   -2.0378 H   0  0  0  0  0  0  0  0  0  0  0  0
    3.5832    3.2104   -3.3978 H   0  0  0  0  0  0  0  0  0  0  0  0
    2.9697    1.0814   -2.2816 H   0  0  0  0  0  0  0  0  0  0  0  0
    1.6424   -1.7347    0.3629 H   0  0  0  0  0  0  0  0  0  0  0  0
    2.5255   -3.8793   -0.4348 H   0  0  0  0  0  0  0  0  0  0  0  0
    7.4353   -5.9762   -2.9085 H   0  0  0  0  0  0  0  0  0  0  0  0
    3.5602   -8.8140   -1.7282 H   0  0  0  0  0  0  0  0  0  0  0  0
    4.8477  -12.8548   -2.9174 H   0  0  0  0  0  0  0  0  0  0  0  0
    5.7466  -15.0320   -3.6962 H   0  0  0  0  0  0  0  0  0  0  0  0
    6.1511  -15.0112   -6.6885 H   0  0  0  0  0  0  0  0  0  0  0  0
    4.6400  -16.7287   -7.6485 H   0  0  0  0  0  0  0  0  0  0  0  0
    4.8820  -19.1276   -6.9922 H   0  0  0  0  0  0  0  0  0  0  0  0
    6.6492  -19.7790   -5.3503 H   0  0  0  0  0  0  0  0  0  0  0  0
    8.1400  -18.0545   -4.3678 H   0  0  0  0  0  0  0  0  0  0  0  0
    9.7005  -14.9689   -2.7949 H   0  0  0  0  0  0  0  0  0  0  0  0
   12.1315  -15.4434   -2.6482 H   0  0  0  0  0  0  0  0  0  0  0  0
   13.3312  -16.4791   -4.5801 H   0  0  0  0  0  0  0  0  0  0  0  0
   12.0644  -17.0210   -6.6643 H   0  0  0  0  0  0  0  0  0  0  0  0
    9.6384  -16.5188   -6.8194 H   0  0  0  0  0  0  0  0  0  0  0  0
    9.3113  -13.0363   -5.0972 H   0  0  0  0  0  0  0  0  0  0  0  0
    8.4229  -10.8889   -4.3105 H   0  0  0  0  0  0  0  0  0  0  0  0
    6.2362   -1.9714   -1.5202 H   0  0  0  0  0  0  0  0  0  0  0  0
    5.3567    0.1973   -0.6997 H   0  0  0  0  0  0  0  0  0  0  0  0
    3.2614   -0.6714    2.6880 H   0  0  0  0  0  0  0  0  0  0  0  0
    1.7392   -0.6018    4.6470 H   0  0  0  0  0  0  0  0  0  0  0  0
  1  2  2  0
  1 48  1  0
  1 49  1  0
  2  3  1  0
  2 50  1  0
  3  4  2  0
  3 51  1  0
  4  5  1  0
  4 47  1  0
  5  6  1  0
  5 12  1  0
  6  7  2  0
  6 11  1  0
  7  8  1  0
  7 52  1  0
  8  9  2  0
  8 53  1  0
  9 10  1  0
  9 54  1  0
 10 11  2  0
 10 55  1  0
 11 56  1  0
 12 13  2  0
 12 46  1  0
 13 14  1  0
 13 57  1  0
 14 15  2  0
 14 58  1  0
 15 16  1  0
 15 45  1  0
 16 17  2  0
 16 44  1  0
 17 18  1  0
 18 19  2  0
 18 59  1  0
 19 20  1  0
 19 44  1  0
 20 21  2  0
 20 43  1  0
 21 22  1  0
 21 60  1  0
 22 23  2  0
 23 24  1  0
 23 43  1  0
 24 25  2  0
 24 42  1  0
 25 26  1  0
 25 61  1  0
 26 27  2  0
 26 62  1  0
 27 28  1  0
 27 41  1  0
 28 29  1  0
 28 35  1  0
 29 30  2  0
 29 34  1  0
 30 31  1  0
 30 63  1  0
 31 32  2  0
 31 64  1  0
 32 33  1  0
 32 65  1  0
 33 34  2  0
 33 66  1  0
 34 67  1  0
 35 36  2  0
 35 40  1  0
 36 37  1  0
 36 68  1  0
 37 38  2  0
 37 69  1  0
 38 39  1  0
 38 70  1  0
 39 40  2  0
 39 71  1  0
 40 72  1  0
 41 42  2  0
 41 73  1  0
 42 74  1  0
 45 46  2  0
 45 75  1  0
 46 76  1  0
 47 48  2  0
 47 77  1  0
 48 78  1  0
M  END

