
     RDKit          3D

 36 38  0  0  0  0  0  0  0  0999 V2000
    1.5538   -0.2227    0.2339 C   0  0  0  0  0  0  0  0  0  0  0  0
    2.7611   -0.0585   -0.5027 O   0  0  0  0  0  0  0  0  0  0  0  0
    3.2283    1.1412   -0.7979 C   0  0  0  0  0  0  0  0  0  0  0  0
    2.6084    2.3544   -0.4321 C   0  0  0  0  0  0  0  0  0  0  0  0
    3.2115    3.5389   -0.8098 C   0  0  0  0  0  0  0  0  0  0  0  0
    2.4371    5.1917   -0.3554 Br  0  0  0  0  0  0  0  0  0  0  0  0
    4.4362    3.5495   -1.5538 C   0  0  0  0  0  0  0  0  0  0  0  0
    5.0645    2.3804   -1.9254 C   0  0  0  0  0  0  0  0  0  0  0  0
    6.3330    2.4097   -2.6987 C   0  0  0  0  0  0  0  0  0  0  0  0
    6.8499    1.2775   -3.0083 N   0  0  0  0  0  0  0  0  0  0  0  0
    7.9571    1.0829   -3.6837 N   0  0  0  0  0  0  0  0  0  0  0  0
    8.3797   -0.2477   -3.9414 C   0  0  0  0  0  0  0  0  0  0  0  0
    7.6349   -1.2297   -3.4779 N   0  0  0  0  0  0  0  0  0  0  0  0
    8.3456   -2.7076   -3.9122 S   0  0  1  0  0  0  0  0  0  0  0  0
    8.7869   -3.4144   -2.7047 O   0  0  0  0  0  0  0  0  0  0  0  0
    7.4630   -3.4238   -4.8399 O   0  0  0  0  0  0  0  0  0  0  0  0
    9.7275   -1.9518   -4.7723 C   0  0  0  0  0  0  0  0  0  0  0  0
   10.7865   -2.5422   -5.4308 C   0  0  0  0  0  0  0  0  0  0  0  0
   11.7508   -1.7116   -6.0339 C   0  0  0  0  0  0  0  0  0  0  0  0
   11.6161   -0.3045   -5.9536 C   0  0  0  0  0  0  0  0  0  0  0  0
   10.5509    0.2912   -5.2915 C   0  0  0  0  0  0  0  0  0  0  0  0
    9.5687   -0.5341   -4.6775 C   0  0  0  0  0  0  0  0  0  0  0  0
    4.4680    1.1331   -1.5515 C   0  0  0  0  0  0  0  0  0  0  0  0
    4.9684   -0.0298   -1.8467 O   0  0  0  0  0  0  0  0  0  0  0  0
    1.4082   -1.3041    0.3334 H   0  0  0  0  0  0  0  0  0  0  0  0
    0.7018    0.2179   -0.3080 H   0  0  0  0  0  0  0  0  0  0  0  0
    1.6402    0.2335    1.2330 H   0  0  0  0  0  0  0  0  0  0  0  0
    1.6790    2.3611    0.1329 H   0  0  0  0  0  0  0  0  0  0  0  0
    4.8730    4.5110   -1.8286 H   0  0  0  0  0  0  0  0  0  0  0  0
    6.7713    3.3821   -2.9720 H   0  0  0  0  0  0  0  0  0  0  0  0
    8.5046    1.8691   -4.0245 H   0  0  0  0  0  0  0  0  0  0  0  0
   10.8726   -3.6305   -5.4821 H   0  0  0  0  0  0  0  0  0  0  0  0
   12.5993   -2.1505   -6.5614 H   0  0  0  0  0  0  0  0  0  0  0  0
   12.3708    0.3304   -6.4257 H   0  0  0  0  0  0  0  0  0  0  0  0
   10.4837    1.3828   -5.2534 H   0  0  0  0  0  0  0  0  0  0  0  0
    5.8323    0.0853   -2.3769 H   0  0  0  0  0  0  0  0  0  0  0  0
  1  2  1  0
  1 25  1  0
  1 26  1  0
  1 27  1  0
  2  3  1  0
  3  4  2  0
  3 23  1  0
  4  5  1  0
  4 28  1  0
  5  6  1  0
  5  7  2  0
  7  8  1  0
  7 29  1  0
  8  9  1  0
  8 23  2  0
  9 10  2  0
  9 30  1  0
 10 11  1  0
 11 12  1  0
 11 31  1  0
 12 13  2  0
 12 22  1  0
 14 13  1  1
 14 15  2  0
 14 16  2  0
 14 17  1  0
 17 18  1  0
 17 22  2  0
 18 19  2  0
 18 32  1  0
 19 20  1  0
 19 33  1  0
 20 21  2  0
 20 34  1  0
 21 22  1  0
 21 35  1  0
 23 24  1  0
 24 36  1  0
M  END

