
     RDKit          3D

 45 46  0  0  0  0  0  0  0  0999 V2000
    6.4894   -2.9602   -2.0313 C   0  0  0  0  0  0  0  0  0  0  0  0
    6.9516   -1.5716   -1.5672 C   0  0  1  0  0  0  0  0  0  0  0  0
    8.0964   -1.0570   -2.4510 C   0  0  0  0  0  0  0  0  0  0  0  0
    5.8225   -0.5208   -1.5311 C   0  0  0  0  0  0  0  0  0  0  0  0
    4.5919   -0.8259   -0.6570 C   0  0  2  0  0  0  0  0  0  0  0  0
    3.9843    0.0922   -0.5961 H   0  0  0  0  0  0  0  0  0  0  0  0
    4.9131   -1.1710    0.7254 N   0  0  0  0  0  0  0  0  0  0  0  0
    4.4917   -0.3790    1.7716 C   0  0  0  0  0  0  0  0  0  0  0  0
    3.6854    0.5238    1.6593 O   0  0  0  0  0  0  0  0  0  0  0  0
    5.1089   -0.7521    3.1322 C   0  0  0  0  0  0  0  0  0  0  0  0
    6.5039   -0.3611    3.2672 N   0  0  0  0  0  0  0  0  0  0  0  0
    7.5147   -1.1162    2.7493 C   0  0  0  0  0  0  0  0  0  0  0  0
    7.2648   -2.1234    2.0804 O   0  0  0  0  0  0  0  0  0  0  0  0
    8.9178   -0.6845    3.0367 C   0  0  0  0  0  0  0  0  0  0  0  0
    9.2496    0.6273    3.4687 C   0  0  0  0  0  0  0  0  0  0  0  0
   10.5632    0.9963    3.7293 C   0  0  0  0  0  0  0  0  0  0  0  0
   11.5610    0.0263    3.5550 C   0  0  0  0  0  0  0  0  0  0  0  0
   12.9211    0.0957    3.7339 N   0  0  0  0  0  0  0  0  0  0  0  0
   13.4304    0.9125    4.0437 H   0  0  0  0  0  0  0  0  0  0  0  0
   13.4888   -1.1264    3.4215 C   0  0  0  0  0  0  0  0  0  0  0  0
   12.5086   -2.0064    3.0360 C   0  0  0  0  0  0  0  0  0  0  0  0
   11.2587   -1.2971    3.1103 C   0  0  0  0  0  0  0  0  0  0  0  0
    9.9238   -1.6363    2.8451 C   0  0  0  0  0  0  0  0  0  0  0  0
    3.6453   -1.8500   -1.3201 C   0  0  0  0  0  0  0  0  0  0  0  0
    3.3519   -1.7980   -2.4842 O   0  0  0  0  0  0  0  0  0  0  0  0
    3.1411   -2.7831   -0.4971 O   0  0  0  0  0  0  0  0  0  0  0  0
    7.3439   -3.6546   -2.0754 H   0  0  0  0  0  0  0  0  0  0  0  0
    6.0295   -2.9187   -3.0317 H   0  0  0  0  0  0  0  0  0  0  0  0
    5.7491   -3.4076   -1.3496 H   0  0  0  0  0  0  0  0  0  0  0  0
    7.3556   -1.6799   -0.5440 H   0  0  0  0  0  0  0  0  0  0  0  0
    7.7653   -0.9399   -3.4972 H   0  0  0  0  0  0  0  0  0  0  0  0
    8.9477   -1.7566   -2.4464 H   0  0  0  0  0  0  0  0  0  0  0  0
    8.4664   -0.0773   -2.1066 H   0  0  0  0  0  0  0  0  0  0  0  0
    5.4424   -0.3521   -2.5518 H   0  0  0  0  0  0  0  0  0  0  0  0
    6.2474    0.4374   -1.1879 H   0  0  0  0  0  0  0  0  0  0  0  0
    5.7340   -1.7538    0.9244 H   0  0  0  0  0  0  0  0  0  0  0  0
    5.0268   -1.8404    3.2881 H   0  0  0  0  0  0  0  0  0  0  0  0
    4.5200   -0.2310    3.8966 H   0  0  0  0  0  0  0  0  0  0  0  0
    6.7233    0.4230    3.8666 H   0  0  0  0  0  0  0  0  0  0  0  0
    8.4725    1.3892    3.5672 H   0  0  0  0  0  0  0  0  0  0  0  0
   10.8054    2.0131    4.0471 H   0  0  0  0  0  0  0  0  0  0  0  0
   14.5646   -1.2715    3.5009 H   0  0  0  0  0  0  0  0  0  0  0  0
   12.6581   -3.0402    2.7329 H   0  0  0  0  0  0  0  0  0  0  0  0
    9.6440   -2.6304    2.4923 H   0  0  0  0  0  0  0  0  0  0  0  0
    3.5261   -2.6241    0.3844 H   0  0  0  0  0  0  0  0  0  0  0  0
  1  2  1  0
  1 27  1  0
  1 28  1  0
  1 29  1  0
  2  3  1  0
  2  4  1  0
  2 30  1  1
  3 31  1  0
  3 32  1  0
  3 33  1  0
  4  5  1  0
  4 34  1  0
  4 35  1  0
  5  6  1  1
  5  7  1  0
  5 24  1  0
  7  8  1  0
  7 36  1  0
  8  9  2  0
  8 10  1  0
 10 11  1  0
 10 37  1  0
 10 38  1  0
 11 12  1  0
 11 39  1  0
 12 13  2  0
 12 14  1  0
 14 15  2  0
 14 23  1  0
 15 16  1  0
 15 40  1  0
 16 17  2  0
 16 41  1  0
 17 18  1  0
 17 22  1  0
 18 19  1  0
 18 20  1  0
 20 21  2  0
 20 42  1  0
 21 22  1  0
 21 43  1  0
 22 23  2  0
 23 44  1  0
 24 25  2  0
 24 26  1  0
 26 45  1  0
M  END

