
     RDKit          3D

 50 53  0  0  0  0  0  0  0  0999 V2000
    1.6980   -0.3369    2.6551 C   0  0  0  0  0  0  0  0  0  0  0  0
    1.2633   -1.5350    3.4334 C   0  0  0  0  0  0  0  0  0  0  0  0
    0.5273   -1.4667    4.5118 N   0  0  0  0  0  0  0  0  0  0  0  0
    0.3505   -2.7493    4.9383 O   0  0  0  0  0  0  0  0  0  0  0  0
    0.9793   -3.6356    4.1229 N   0  0  0  0  0  0  0  0  0  0  0  0
    1.5541   -2.9248    3.1884 C   0  0  0  0  0  0  0  0  0  0  0  0
    2.3263   -3.5363    2.0563 C   0  0  0  0  0  0  0  0  0  0  0  0
    1.5184   -3.4648    0.7470 C   0  0  0  0  0  0  0  0  0  0  0  0
    1.6472   -2.4940    0.0125 O   0  0  0  0  0  0  0  0  0  0  0  0
    0.6437   -4.4808    0.4723 N   0  0  0  0  0  0  0  0  0  0  0  0
   -0.1874   -4.4141   -0.7287 C   0  0  0  0  0  0  0  0  0  0  0  0
   -0.0728   -5.7187   -1.5157 C   0  0  0  0  0  0  0  0  0  0  0  0
   -0.3445   -6.8472   -0.7025 O   0  0  0  0  0  0  0  0  0  0  0  0
    0.5249   -6.9216    0.4090 C   0  0  2  0  0  0  0  0  0  0  0  0
    0.2581   -8.1774    1.2104 C   0  0  0  0  0  0  0  0  0  0  0  0
   -0.7428   -9.0966    0.8768 C   0  0  0  0  0  0  0  0  0  0  0  0
   -0.8927  -10.2181    1.6953 C   0  0  0  0  0  0  0  0  0  0  0  0
   -0.0578  -10.3772    2.8033 C   0  0  0  0  0  0  0  0  0  0  0  0
    0.9122   -9.3972    3.0604 C   0  0  0  0  0  0  0  0  0  0  0  0
    1.8459   -9.4733    4.2589 C   0  0  0  0  0  0  0  0  0  0  0  0
    3.3029   -9.3560    3.8774 C   0  0  0  0  0  0  0  0  0  0  0  0
    3.9621   -8.1240    3.7841 C   0  0  0  0  0  0  0  0  0  0  0  0
    3.2818   -7.0062    4.0855 F   0  0  0  0  0  0  0  0  0  0  0  0
    5.2992   -8.0059    3.4102 C   0  0  0  0  0  0  0  0  0  0  0  0
    6.0191   -9.1633    3.1046 C   0  0  0  0  0  0  0  0  0  0  0  0
    5.4068  -10.4168    3.1761 C   0  0  0  0  0  0  0  0  0  0  0  0
    4.0683  -10.4827    3.5542 C   0  0  0  0  0  0  0  0  0  0  0  0
    3.4745  -11.6870    3.6212 F   0  0  0  0  0  0  0  0  0  0  0  0
    1.0577   -8.3330    2.2679 N   0  0  0  0  0  0  0  0  0  0  0  0
    0.3891   -5.6636    1.2844 C   0  0  0  0  0  0  0  0  0  0  0  0
    1.1575    0.5551    2.9984 H   0  0  0  0  0  0  0  0  0  0  0  0
    1.5243   -0.4944    1.5805 H   0  0  0  0  0  0  0  0  0  0  0  0
    2.7784   -0.1602    2.7890 H   0  0  0  0  0  0  0  0  0  0  0  0
    2.6310   -4.5526    2.3354 H   0  0  0  0  0  0  0  0  0  0  0  0
    3.2315   -2.9438    1.8655 H   0  0  0  0  0  0  0  0  0  0  0  0
    0.1411   -3.5551   -1.3271 H   0  0  0  0  0  0  0  0  0  0  0  0
   -1.2408   -4.2547   -0.4318 H   0  0  0  0  0  0  0  0  0  0  0  0
    0.9443   -5.8019   -1.9496 H   0  0  0  0  0  0  0  0  0  0  0  0
   -0.8024   -5.7353   -2.3391 H   0  0  0  0  0  0  0  0  0  0  0  0
    1.5775   -6.9661    0.0564 H   0  0  0  0  0  0  0  0  0  0  0  0
   -1.3681   -8.9254    0.0009 H   0  0  0  0  0  0  0  0  0  0  0  0
   -1.6568  -10.9670    1.4700 H   0  0  0  0  0  0  0  0  0  0  0  0
   -0.1524  -11.2463    3.4578 H   0  0  0  0  0  0  0  0  0  0  0  0
    1.6797  -10.4147    4.7996 H   0  0  0  0  0  0  0  0  0  0  0  0
    1.5923   -8.6439    4.9379 H   0  0  0  0  0  0  0  0  0  0  0  0
    5.7538   -7.0149    3.3668 H   0  0  0  0  0  0  0  0  0  0  0  0
    7.0680   -9.0877    2.8093 H   0  0  0  0  0  0  0  0  0  0  0  0
    5.9419  -11.3388    2.9442 H   0  0  0  0  0  0  0  0  0  0  0  0
    1.0723   -5.7367    2.1345 H   0  0  0  0  0  0  0  0  0  0  0  0
   -0.6397   -5.6232    1.6869 H   0  0  0  0  0  0  0  0  0  0  0  0
  1  2  1  0
  1 31  1  0
  1 32  1  0
  1 33  1  0
  2  3  2  0
  2  6  1  0
  3  4  1  0
  4  5  1  0
  5  6  2  0
  6  7  1  0
  7  8  1  0
  7 34  1  0
  7 35  1  0
  8  9  2  0
  8 10  1  0
 10 11  1  0
 10 30  1  0
 11 12  1  0
 11 36  1  0
 11 37  1  0
 12 13  1  0
 12 38  1  0
 12 39  1  0
 13 14  1  0
 14 15  1  0
 14 30  1  0
 14 40  1  6
 15 16  2  0
 15 29  1  0
 16 17  1  0
 16 41  1  0
 17 18  2  0
 17 42  1  0
 18 19  1  0
 18 43  1  0
 19 20  1  0
 19 29  2  0
 20 21  1  0
 20 44  1  0
 20 45  1  0
 21 22  2  0
 21 27  1  0
 22 23  1  0
 22 24  1  0
 24 25  2  0
 24 46  1  0
 25 26  1  0
 25 47  1  0
 26 27  2  0
 26 48  1  0
 27 28  1  0
 30 49  1  0
 30 50  1  0
M  END

