
     RDKit          3D

 54 57  0  0  0  0  0  0  0  0999 V2000
    9.7594    4.8673   -1.8492 C   0  0  0  0  0  0  0  0  0  0  0  0
    8.6512    5.4978   -1.2743 O   0  0  0  0  0  0  0  0  0  0  0  0
    7.9527    4.8401   -0.2904 C   0  0  0  0  0  0  0  0  0  0  0  0
    8.2912    3.5933    0.1997 C   0  0  0  0  0  0  0  0  0  0  0  0
    7.5138    2.9868    1.2640 C   0  0  0  0  0  0  0  0  0  0  0  0
    6.3466    3.6984    1.7231 C   0  0  0  0  0  0  0  0  0  0  0  0
    5.4835    3.0928    2.7865 C   0  0  0  0  0  0  0  0  0  0  0  0
    6.0763    3.0188    4.1316 N   0  0  0  0  0  0  0  0  0  0  0  0
    5.3591    2.6467    5.3373 C   0  0  1  0  0  0  0  0  0  0  0  0
    6.4457    1.9041    6.1476 C   0  0  0  0  0  0  0  0  0  0  0  0
    7.7846    2.5153    5.6396 C   0  0  0  0  0  0  0  0  0  0  0  0
    7.3636    3.5323    4.5540 C   0  0  2  0  0  0  0  0  0  0  0  0
    7.0673    4.9645    5.0983 C   0  0  0  0  0  0  0  0  0  0  0  0
    6.0294    4.9834    6.2449 C   0  0  2  0  0  0  0  0  0  0  0  0
    6.6355    4.7252    7.5589 N   0  0  0  0  0  0  0  0  0  0  0  0
    7.4241    5.7209    8.1334 C   0  0  0  0  0  0  0  0  0  0  0  0
    7.7444    6.7250    7.5241 O   0  0  0  0  0  0  0  0  0  0  0  0
    7.8110    5.4238    9.4288 N   0  0  0  0  0  0  0  0  0  0  0  0
    8.5809    6.2050   10.3124 C   0  0  0  0  0  0  0  0  0  0  0  0
    9.0713    7.4841    9.9948 C   0  0  0  0  0  0  0  0  0  0  0  0
    9.8204    8.1817   10.9447 C   0  0  0  0  0  0  0  0  0  0  0  0
   10.0997    7.6457   12.2038 C   0  0  0  0  0  0  0  0  0  0  0  0
    9.6067    6.3737   12.5034 C   0  0  0  0  0  0  0  0  0  0  0  0
    9.9320    5.6605   14.0676 Cl  0  0  0  0  0  0  0  0  0  0  0  0
    8.8542    5.6529   11.5770 C   0  0  0  0  0  0  0  0  0  0  0  0
    4.8819    3.9879    5.9760 C   0  0  0  0  0  0  0  0  0  0  0  0
    6.0290    4.9475    1.2097 C   0  0  0  0  0  0  0  0  0  0  0  0
    6.8196    5.5650    0.2054 C   0  0  0  0  0  0  0  0  0  0  0  0
   10.1635    5.5525   -2.6094 H   0  0  0  0  0  0  0  0  0  0  0  0
    9.4892    3.9113   -2.3386 H   0  0  0  0  0  0  0  0  0  0  0  0
   10.5520    4.6533   -1.1054 H   0  0  0  0  0  0  0  0  0  0  0  0
    9.1544    3.0545   -0.1925 H   0  0  0  0  0  0  0  0  0  0  0  0
    7.6379    1.9216    1.4825 H   0  0  0  0  0  0  0  0  0  0  0  0
    5.2107    2.0373    2.5757 H   0  0  0  0  0  0  0  0  0  0  0  0
    4.5244    3.6270    2.9124 H   0  0  0  0  0  0  0  0  0  0  0  0
    4.4857    2.0288    5.0867 H   0  0  0  0  0  0  0  0  0  0  0  0
    6.3953    0.8280    5.9277 H   0  0  0  0  0  0  0  0  0  0  0  0
    6.2973    2.0224    7.2284 H   0  0  0  0  0  0  0  0  0  0  0  0
    8.4203    1.7398    5.1904 H   0  0  0  0  0  0  0  0  0  0  0  0
    8.3552    3.0030    6.4378 H   0  0  0  0  0  0  0  0  0  0  0  0
    8.0276    3.5894    3.6834 H   0  0  0  0  0  0  0  0  0  0  0  0
    6.6940    5.5682    4.2587 H   0  0  0  0  0  0  0  0  0  0  0  0
    8.0073    5.4249    5.4275 H   0  0  0  0  0  0  0  0  0  0  0  0
    5.6005    6.0002    6.2602 H   0  0  0  0  0  0  0  0  0  0  0  0
    6.0672    4.1849    8.2026 H   0  0  0  0  0  0  0  0  0  0  0  0
    7.5769    4.5005    9.7738 H   0  0  0  0  0  0  0  0  0  0  0  0
    8.8671    7.9092    9.0156 H   0  0  0  0  0  0  0  0  0  0  0  0
   10.1998    9.1749   10.6914 H   0  0  0  0  0  0  0  0  0  0  0  0
   10.6866    8.1950   12.9406 H   0  0  0  0  0  0  0  0  0  0  0  0
    8.4824    4.6615   11.8460 H   0  0  0  0  0  0  0  0  0  0  0  0
    4.1662    4.4553    5.2831 H   0  0  0  0  0  0  0  0  0  0  0  0
    4.3186    3.7615    6.8959 H   0  0  0  0  0  0  0  0  0  0  0  0
    5.1446    5.4770    1.5840 H   0  0  0  0  0  0  0  0  0  0  0  0
    6.5649    6.5283   -0.2322 H   0  0  0  0  0  0  0  0  0  0  0  0
  1  2  1  0
  1 29  1  0
  1 30  1  0
  1 31  1  0
  2  3  1  0
  3  4  2  0
  3 28  1  0
  4  5  1  0
  4 32  1  0
  5  6  2  0
  5 33  1  0
  6  7  1  0
  6 27  1  0
  7  8  1  0
  7 34  1  0
  7 35  1  0
  8  9  1  0
  8 12  1  0
  9 10  1  0
  9 26  1  0
  9 36  1  6
 10 11  1  0
 10 37  1  0
 10 38  1  0
 11 12  1  0
 11 39  1  0
 11 40  1  0
 12 13  1  0
 12 41  1  6
 13 14  1  0
 13 42  1  0
 13 43  1  0
 14 15  1  0
 14 26  1  0
 14 44  1  1
 15 16  1  0
 15 45  1  0
 16 17  2  0
 16 18  1  0
 18 19  1  0
 18 46  1  0
 19 20  2  0
 19 25  1  0
 20 21  1  0
 20 47  1  0
 21 22  2  0
 21 48  1  0
 22 23  1  0
 22 49  1  0
 23 24  1  0
 23 25  2  0
 25 50  1  0
 26 51  1  0
 26 52  1  0
 27 28  2  0
 27 53  1  0
 28 54  1  0
M  END

