
     RDKit          3D

 53 57  0  0  0  0  0  0  0  0999 V2000
    0.6749    0.0302    0.1920 O   0  0  0  0  0  0  0  0  0  0  0  0
    1.8954    0.0275    0.0700 C   0  0  0  0  0  0  0  0  0  0  0  0
    2.7000    1.2594   -0.0285 C   0  0  0  0  0  0  0  0  0  0  0  0
    2.1065    2.5366    0.0123 C   0  0  0  0  0  0  0  0  0  0  0  0
    2.8571    3.6916   -0.0894 C   0  0  0  0  0  0  0  0  0  0  0  0
    4.2745    3.6349   -0.2393 C   0  0  0  0  0  0  0  0  0  0  0  0
    5.0217    4.8039   -0.3802 N   0  0  0  0  0  0  0  0  0  0  0  0
    6.4346    4.7211   -0.7337 C   0  0  0  0  0  0  0  0  0  0  0  0
    6.9199    6.0014   -1.4233 C   0  0  0  0  0  0  0  0  0  0  0  0
    6.6035    7.2516   -0.6000 C   0  0  0  0  0  0  0  0  0  0  0  0
    5.1127    7.2825   -0.2549 C   0  0  0  0  0  0  0  0  0  0  0  0
    4.6841    5.9812    0.4243 C   0  0  0  0  0  0  0  0  0  0  0  0
    4.8755    2.3620   -0.2718 C   0  0  0  0  0  0  0  0  0  0  0  0
    4.0954    1.2048   -0.1768 C   0  0  0  0  0  0  0  0  0  0  0  0
    4.7722    0.0209   -0.2178 O   0  0  0  0  0  0  0  0  0  0  0  0
    4.0953   -1.1599   -0.1247 C   0  0  0  0  0  0  0  0  0  0  0  0
    4.8733   -2.3207   -0.1875 C   0  0  0  0  0  0  0  0  0  0  0  0
    4.2717   -3.5908   -0.1037 C   0  0  0  0  0  0  0  0  0  0  0  0
    5.0257   -4.7642   -0.1171 N   0  0  0  0  0  0  0  0  0  0  0  0
    6.4807   -4.6905   -0.0441 C   0  0  0  0  0  0  0  0  0  0  0  0
    7.0820   -5.9787    0.5296 C   0  0  0  0  0  0  0  0  0  0  0  0
    6.6061   -7.2205   -0.2272 C   0  0  0  0  0  0  0  0  0  0  0  0
    5.0765   -7.2428   -0.2774 C   0  0  0  0  0  0  0  0  0  0  0  0
    4.5318   -5.9335   -0.8496 C   0  0  0  0  0  0  0  0  0  0  0  0
    2.8527   -3.6409    0.0313 C   0  0  0  0  0  0  0  0  0  0  0  0
    2.1022   -2.4825    0.0829 C   0  0  0  0  0  0  0  0  0  0  0  0
    2.6979   -1.2081    0.0067 C   0  0  0  0  0  0  0  0  0  0  0  0
    1.0196    2.5781    0.1123 H   0  0  0  0  0  0  0  0  0  0  0  0
    2.3472    4.6550   -0.0909 H   0  0  0  0  0  0  0  0  0  0  0  0
    6.5787    3.8741   -1.4177 H   0  0  0  0  0  0  0  0  0  0  0  0
    7.0580    4.5204    0.1661 H   0  0  0  0  0  0  0  0  0  0  0  0
    6.4278    6.0771   -2.4087 H   0  0  0  0  0  0  0  0  0  0  0  0
    8.0031    5.9153   -1.6105 H   0  0  0  0  0  0  0  0  0  0  0  0
    6.8995    8.1622   -1.1462 H   0  0  0  0  0  0  0  0  0  0  0  0
    7.1950    7.2386    0.3344 H   0  0  0  0  0  0  0  0  0  0  0  0
    4.5195    7.4189   -1.1760 H   0  0  0  0  0  0  0  0  0  0  0  0
    4.8788    8.1297    0.4109 H   0  0  0  0  0  0  0  0  0  0  0  0
    3.6062    5.9972    0.6201 H   0  0  0  0  0  0  0  0  0  0  0  0
    5.1825    5.9069    1.4164 H   0  0  0  0  0  0  0  0  0  0  0  0
    5.9527    2.2299   -0.3489 H   0  0  0  0  0  0  0  0  0  0  0  0
    5.9451   -2.1931   -0.3245 H   0  0  0  0  0  0  0  0  0  0  0  0
    6.7600   -3.8499    0.6051 H   0  0  0  0  0  0  0  0  0  0  0  0
    6.9197   -4.4861   -1.0462 H   0  0  0  0  0  0  0  0  0  0  0  0
    6.7879   -6.0609    1.5905 H   0  0  0  0  0  0  0  0  0  0  0  0
    8.1815   -5.8988    0.5056 H   0  0  0  0  0  0  0  0  0  0  0  0
    6.9973   -8.1370    0.2440 H   0  0  0  0  0  0  0  0  0  0  0  0
    7.0057   -7.2009   -1.2581 H   0  0  0  0  0  0  0  0  0  0  0  0
    4.6720   -7.3861    0.7398 H   0  0  0  0  0  0  0  0  0  0  0  0
    4.7137   -8.0828   -0.8927 H   0  0  0  0  0  0  0  0  0  0  0  0
    3.4364   -5.9438   -0.8328 H   0  0  0  0  0  0  0  0  0  0  0  0
    4.8289   -5.8524   -1.9188 H   0  0  0  0  0  0  0  0  0  0  0  0
    2.3489   -4.6022    0.1328 H   0  0  0  0  0  0  0  0  0  0  0  0
    1.0168   -2.5191    0.2002 H   0  0  0  0  0  0  0  0  0  0  0  0
  1  2  2  0
  2  3  1  0
  2 27  1  0
  3  4  2  0
  3 14  1  0
  4  5  1  0
  4 28  1  0
  5  6  2  0
  5 29  1  0
  6  7  1  0
  6 13  1  0
  7  8  1  0
  7 12  1  0
  8  9  1  0
  8 30  1  0
  8 31  1  0
  9 10  1  0
  9 32  1  0
  9 33  1  0
 10 11  1  0
 10 34  1  0
 10 35  1  0
 11 12  1  0
 11 36  1  0
 11 37  1  0
 12 38  1  0
 12 39  1  0
 13 14  2  0
 13 40  1  0
 14 15  1  0
 15 16  1  0
 16 17  1  0
 16 27  2  0
 17 18  2  0
 17 41  1  0
 18 19  1  0
 18 25  1  0
 19 20  1  0
 19 24  1  0
 20 21  1  0
 20 42  1  0
 20 43  1  0
 21 22  1  0
 21 44  1  0
 21 45  1  0
 22 23  1  0
 22 46  1  0
 22 47  1  0
 23 24  1  0
 23 48  1  0
 23 49  1  0
 24 50  1  0
 24 51  1  0
 25 26  2  0
 25 52  1  0
 26 27  1  0
 26 53  1  0
M  END

