
     RDKit          3D

 34 34  0  0  0  0  0  0  0  0999 V2000
    1.7088    1.5584   -0.7002 C   0  0  0  0  0  0  0  0  0  0  0  0
    2.6226    0.4000   -0.2948 C   0  0  0  0  0  0  0  0  0  0  0  0
    3.4691   -0.1253   -1.4609 C   0  0  0  0  0  0  0  0  0  0  0  0
    4.4889   -1.2189   -1.0752 C   0  0  1  0  0  0  0  0  0  0  0  0
    3.8148   -2.4985   -0.5463 C   0  0  0  0  0  0  0  0  0  0  0  0
    5.4102   -1.5283   -2.2746 C   0  0  0  0  0  0  0  0  0  0  0  0
    4.9168   -2.2291   -3.2402 O   0  0  0  0  0  0  0  0  0  0  0  0
    6.9028   -1.7694   -2.0074 C   0  0  1  0  0  0  0  0  0  0  0  0
    7.2514   -2.9514   -1.2750 N   0  0  0  0  0  0  0  0  0  0  0  0
    7.3085   -3.0163    0.0945 C   0  0  0  0  0  0  0  0  0  0  0  0
    7.2327   -2.0797    0.8581 O   0  0  0  0  0  0  0  0  0  0  0  0
    7.4808   -4.3031    0.4811 O   0  0  0  0  0  0  0  0  0  0  0  0
    7.5953   -4.5183    1.8849 C   0  0  0  0  0  0  0  0  0  0  0  0
    7.8761   -1.3343   -3.0776 C   0  0  0  0  0  0  0  0  0  0  0  0
    7.7625   -0.5447   -1.7994 C   0  0  0  0  0  0  0  0  0  0  0  0
    1.1087    1.9165    0.1516 H   0  0  0  0  0  0  0  0  0  0  0  0
    1.0090    1.2556   -1.4971 H   0  0  0  0  0  0  0  0  0  0  0  0
    2.2905    2.4142   -1.0818 H   0  0  0  0  0  0  0  0  0  0  0  0
    2.0095   -0.4161    0.1242 H   0  0  0  0  0  0  0  0  0  0  0  0
    3.2919    0.7257    0.5226 H   0  0  0  0  0  0  0  0  0  0  0  0
    4.0218    0.7174   -1.9104 H   0  0  0  0  0  0  0  0  0  0  0  0
    2.8096   -0.5141   -2.2578 H   0  0  0  0  0  0  0  0  0  0  0  0
    5.1622   -0.8240   -0.2972 H   0  0  0  0  0  0  0  0  0  0  0  0
    3.0914   -2.8913   -1.2782 H   0  0  0  0  0  0  0  0  0  0  0  0
    3.2828   -2.3023    0.3977 H   0  0  0  0  0  0  0  0  0  0  0  0
    4.5508   -3.2923   -0.3501 H   0  0  0  0  0  0  0  0  0  0  0  0
    7.2529   -3.8377   -1.7702 H   0  0  0  0  0  0  0  0  0  0  0  0
    7.7270   -5.5996    2.0172 H   0  0  0  0  0  0  0  0  0  0  0  0
    6.6902   -4.1792    2.4115 H   0  0  0  0  0  0  0  0  0  0  0  0
    8.4608   -3.9781    2.2985 H   0  0  0  0  0  0  0  0  0  0  0  0
    7.4580   -0.9031   -3.9895 H   0  0  0  0  0  0  0  0  0  0  0  0
    8.7634   -1.9569   -3.2209 H   0  0  0  0  0  0  0  0  0  0  0  0
    7.2613    0.4244   -1.8383 H   0  0  0  0  0  0  0  0  0  0  0  0
    8.5508   -0.6251   -1.0481 H   0  0  0  0  0  0  0  0  0  0  0  0
  1  2  1  0
  1 16  1  0
  1 17  1  0
  1 18  1  0
  2  3  1  0
  2 19  1  0
  2 20  1  0
  3  4  1  0
  3 21  1  0
  3 22  1  0
  4  5  1  0
  4  6  1  0
  4 23  1  1
  5 24  1  0
  5 25  1  0
  5 26  1  0
  6  7  2  0
  8  6  1  1
  8  9  1  0
  8 14  1  0
  8 15  1  0
  9 10  1  0
  9 27  1  0
 10 11  2  0
 10 12  1  0
 12 13  1  0
 13 28  1  0
 13 29  1  0
 13 30  1  0
 14 15  1  0
 14 31  1  0
 14 32  1  0
 15 33  1  0
 15 34  1  0
M  END

