
     RDKit          3D

 48 49  0  0  0  0  0  0  0  0999 V2000
    0.6469    0.0917   -0.8016 C   0  0  0  0  0  0  0  0  0  0  0  0
    1.7447    0.3832   -1.8101 C   0  0  0  0  0  0  0  0  0  0  0  0
    2.5001   -0.7968   -2.1404 O   0  0  0  0  0  0  0  0  0  0  0  0
    3.5105   -1.1258   -1.3026 C   0  0  0  0  0  0  0  0  0  0  0  0
    3.8194   -0.4763   -0.3255 O   0  0  0  0  0  0  0  0  0  0  0  0
    4.1372   -2.2860   -1.6922 N   0  0  0  0  0  0  0  0  0  0  0  0
    5.2960   -2.7540   -0.9395 C   0  0  0  0  0  0  0  0  0  0  0  0
    5.1532   -4.2357   -0.5852 C   0  0  0  0  0  0  0  0  0  0  0  0
    4.8535   -5.1014   -1.8231 C   0  0  2  0  0  0  0  0  0  0  0  0
    6.0192   -5.2108   -2.7178 N   0  0  0  0  0  0  0  0  0  0  0  0
    7.0726   -5.9956   -2.4902 C   0  0  0  0  0  0  0  0  0  0  0  0
    7.2022   -6.7273   -1.5225 O   0  0  0  0  0  0  0  0  0  0  0  0
    8.2544   -5.9232   -3.5792 C   0  0  1  0  0  0  0  0  0  0  0  0
    8.4383   -6.9835   -3.8369 H   0  0  0  0  0  0  0  0  0  0  0  0
    7.8103   -5.1869   -4.6927 N   0  0  0  0  0  0  0  0  0  0  0  0
    9.5425   -5.3666   -2.8765 C   0  0  0  0  0  0  0  0  0  0  0  0
   10.4049   -6.4746   -2.3704 C   0  0  0  0  0  0  0  0  0  0  0  0
   10.8535   -7.4764   -3.3359 C   0  0  0  0  0  0  0  0  0  0  0  0
   11.6328   -8.5565   -2.8429 C   0  0  0  0  0  0  0  0  0  0  0  0
   11.9129   -8.7006   -1.4945 C   0  0  0  0  0  0  0  0  0  0  0  0
   11.4439   -7.7277   -0.5413 C   0  0  0  0  0  0  0  0  0  0  0  0
   10.6933   -6.6377   -1.0181 C   0  0  0  0  0  0  0  0  0  0  0  0
    3.6642   -4.5230   -2.6051 C   0  0  0  0  0  0  0  0  0  0  0  0
    3.8225   -3.0253   -2.9046 C   0  0  0  0  0  0  0  0  0  0  0  0
    0.0453    0.9990   -0.6315 H   0  0  0  0  0  0  0  0  0  0  0  0
    1.0777   -0.2174    0.1621 H   0  0  0  0  0  0  0  0  0  0  0  0
   -0.0251   -0.7019   -1.1648 H   0  0  0  0  0  0  0  0  0  0  0  0
    2.4339    1.1505   -1.4287 H   0  0  0  0  0  0  0  0  0  0  0  0
    1.3272    0.7204   -2.7701 H   0  0  0  0  0  0  0  0  0  0  0  0
    5.3833   -2.1365   -0.0377 H   0  0  0  0  0  0  0  0  0  0  0  0
    6.2164   -2.5944   -1.5361 H   0  0  0  0  0  0  0  0  0  0  0  0
    4.3206   -4.3625    0.1261 H   0  0  0  0  0  0  0  0  0  0  0  0
    6.0629   -4.5998   -0.0828 H   0  0  0  0  0  0  0  0  0  0  0  0
    4.6132   -6.1246   -1.4954 H   0  0  0  0  0  0  0  0  0  0  0  0
    6.0907   -4.6739   -3.5828 H   0  0  0  0  0  0  0  0  0  0  0  0
    7.5239   -5.6929   -5.5260 H   0  0  0  0  0  0  0  0  0  0  0  0
    8.2854   -4.3079   -4.8872 H   0  0  0  0  0  0  0  0  0  0  0  0
    9.2735   -4.6525   -2.0806 H   0  0  0  0  0  0  0  0  0  0  0  0
   10.0565   -4.7805   -3.6706 H   0  0  0  0  0  0  0  0  0  0  0  0
   10.8412   -7.2545   -4.4094 H   0  0  0  0  0  0  0  0  0  0  0  0
   12.0254   -9.2955   -3.5509 H   0  0  0  0  0  0  0  0  0  0  0  0
   12.4963   -9.5595   -1.1498 H   0  0  0  0  0  0  0  0  0  0  0  0
   11.6769   -7.8238    0.5201 H   0  0  0  0  0  0  0  0  0  0  0  0
   10.3174   -5.8940   -0.3043 H   0  0  0  0  0  0  0  0  0  0  0  0
    2.7610   -4.6663   -1.9915 H   0  0  0  0  0  0  0  0  0  0  0  0
    3.5110   -5.0846   -3.5416 H   0  0  0  0  0  0  0  0  0  0  0  0
    2.9007   -2.6253   -3.3392 H   0  0  0  0  0  0  0  0  0  0  0  0
    4.6227   -2.8635   -3.6583 H   0  0  0  0  0  0  0  0  0  0  0  0
  1  2  1  0
  1 25  1  0
  1 26  1  0
  1 27  1  0
  2  3  1  0
  2 28  1  0
  2 29  1  0
  3  4  1  0
  4  5  2  0
  4  6  1  0
  6  7  1  0
  6 24  1  0
  7  8  1  0
  7 30  1  0
  7 31  1  0
  8  9  1  0
  8 32  1  0
  8 33  1  0
  9 10  1  0
  9 23  1  0
  9 34  1  1
 10 11  1  0
 10 35  1  0
 11 12  2  0
 11 13  1  0
 13 14  1  6
 13 15  1  0
 13 16  1  0
 15 36  1  0
 15 37  1  0
 16 17  1  0
 16 38  1  0
 16 39  1  0
 17 18  2  0
 17 22  1  0
 18 19  1  0
 18 40  1  0
 19 20  2  0
 19 41  1  0
 20 21  1  0
 20 42  1  0
 21 22  2  0
 21 43  1  0
 22 44  1  0
 23 24  1  0
 23 45  1  0
 23 46  1  0
 24 47  1  0
 24 48  1  0
M  END

