
     RDKit          3D

 43 44  0  0  0  0  0  0  0  0999 V2000
    1.8100   -0.1947   -0.8315 C   0  0  0  0  0  0  0  0  0  0  0  0
    1.5776   -0.3061    0.5581 O   0  0  0  0  0  0  0  0  0  0  0  0
    2.4812   -1.0569    1.4128 C   0  0  1  0  0  0  0  0  0  0  0  0
    2.0419   -0.5511    2.8403 C   0  0  1  0  0  0  0  0  0  0  0  0
    0.6472   -0.2292    2.8247 N   0  0  0  0  0  0  0  0  0  0  0  0
    2.3769   -1.3452    4.1193 C   0  0  0  0  0  0  0  0  0  0  0  0
    1.9283   -0.6297    5.3801 C   0  0  0  0  0  0  0  0  0  0  0  0
    0.5183   -0.7518    5.7563 C   0  0  0  0  0  0  0  0  0  0  0  0
    0.0963    0.0071    6.9003 C   0  0  0  0  0  0  0  0  0  0  0  0
   -1.6003   -0.1444    7.3852 Cl  0  0  0  0  0  0  0  0  0  0  0  0
    0.9201    0.8651    7.5842 C   0  0  0  0  0  0  0  0  0  0  0  0
    2.2961    0.9922    7.2049 C   0  0  0  0  0  0  0  0  0  0  0  0
    2.7348    0.2340    6.0933 C   0  0  0  0  0  0  0  0  0  0  0  0
    4.4296    0.4956    5.5805 Cl  0  0  0  0  0  0  0  0  0  0  0  0
    2.1895   -2.5580    1.1721 C   0  0  0  0  0  0  0  0  0  0  0  0
    3.1131   -3.6385    1.7571 C   0  0  0  0  0  0  0  0  0  0  0  0
    4.6062   -3.5359    1.4096 C   0  0  0  0  0  0  0  0  0  0  0  0
    5.3928   -2.5178    2.2465 C   0  0  0  0  0  0  0  0  0  0  0  0
    5.0928   -1.0145    2.0083 C   0  0  0  0  0  0  0  0  0  0  0  0
    3.9288   -0.6476    1.0740 C   0  0  0  0  0  0  0  0  0  0  0  0
    0.8976    0.2393   -1.2649 H   0  0  0  0  0  0  0  0  0  0  0  0
    1.9859   -1.1727   -1.3120 H   0  0  0  0  0  0  0  0  0  0  0  0
    2.6565    0.4721   -1.0657 H   0  0  0  0  0  0  0  0  0  0  0  0
    2.5137    0.4555    2.9433 H   0  0  0  0  0  0  0  0  0  0  0  0
    0.1494   -0.2175    3.7357 H   0  0  0  0  0  0  0  0  0  0  0  0
    0.2709    0.0984    1.9329 H   0  0  0  0  0  0  0  0  0  0  0  0
    3.4557   -1.5291    4.1404 H   0  0  0  0  0  0  0  0  0  0  0  0
    1.8797   -2.3280    4.0680 H   0  0  0  0  0  0  0  0  0  0  0  0
    0.0043   -1.7058    5.5591 H   0  0  0  0  0  0  0  0  0  0  0  0
    0.5227    1.4619    8.4077 H   0  0  0  0  0  0  0  0  0  0  0  0
    2.9896    1.6121    7.7683 H   0  0  0  0  0  0  0  0  0  0  0  0
    2.1982   -2.6847    0.0763 H   0  0  0  0  0  0  0  0  0  0  0  0
    1.1512   -2.7616    1.4835 H   0  0  0  0  0  0  0  0  0  0  0  0
    2.7291   -4.6001    1.3768 H   0  0  0  0  0  0  0  0  0  0  0  0
    3.0080   -3.6960    2.8512 H   0  0  0  0  0  0  0  0  0  0  0  0
    4.7331   -3.3406    0.3289 H   0  0  0  0  0  0  0  0  0  0  0  0
    5.0601   -4.5261    1.5812 H   0  0  0  0  0  0  0  0  0  0  0  0
    6.4681   -2.6893    2.0778 H   0  0  0  0  0  0  0  0  0  0  0  0
    5.2286   -2.7605    3.3100 H   0  0  0  0  0  0  0  0  0  0  0  0
    5.9810   -0.5461    1.5539 H   0  0  0  0  0  0  0  0  0  0  0  0
    4.9703   -0.5003    2.9732 H   0  0  0  0  0  0  0  0  0  0  0  0
    4.1464   -1.0422    0.0690 H   0  0  0  0  0  0  0  0  0  0  0  0
    3.9234    0.4512    0.9734 H   0  0  0  0  0  0  0  0  0  0  0  0
  1  2  1  0
  1 21  1  0
  1 22  1  0
  1 23  1  0
  3  2  1  6
  3  4  1  0
  3 15  1  0
  3 20  1  0
  4  5  1  0
  4  6  1  0
  4 24  1  1
  5 25  1  0
  5 26  1  0
  6  7  1  0
  6 27  1  0
  6 28  1  0
  7  8  2  0
  7 13  1  0
  8  9  1  0
  8 29  1  0
  9 10  1  0
  9 11  2  0
 11 12  1  0
 11 30  1  0
 12 13  2  0
 12 31  1  0
 13 14  1  0
 15 16  1  0
 15 32  1  0
 15 33  1  0
 16 17  1  0
 16 34  1  0
 16 35  1  0
 17 18  1  0
 17 36  1  0
 17 37  1  0
 18 19  1  0
 18 38  1  0
 18 39  1  0
 19 20  1  0
 19 40  1  0
 19 41  1  0
 20 42  1  0
 20 43  1  0
M  END

