
     RDKit          3D

 80 88  0  0  0  0  0  0  0  0999 V2000
    1.0048   -0.8325   -0.0454 C   0  0  0  0  0  0  0  0  0  0  0  0
    2.1419   -0.0133    0.1012 O   0  0  0  0  0  0  0  0  0  0  0  0
    2.9861   -0.2290    1.1418 C   0  0  0  0  0  0  0  0  0  0  0  0
    4.1078    0.6149    1.2200 C   0  0  0  0  0  0  0  0  0  0  0  0
    5.0293    0.4675    2.2498 C   0  0  0  0  0  0  0  0  0  0  0  0
    4.8751   -0.5225    3.2437 C   0  0  0  0  0  0  0  0  0  0  0  0
    5.8640   -0.6828    4.3421 C   0  0  0  0  0  0  0  0  0  0  0  0
    6.4964    0.4466    4.9183 C   0  0  0  0  0  0  0  0  0  0  0  0
    7.4222    0.3397    5.9550 C   0  0  0  0  0  0  0  0  0  0  0  0
    7.7224   -0.9373    6.4420 C   0  0  0  0  0  0  0  0  0  0  0  0
    7.1207   -2.0900    5.8753 C   0  0  0  0  0  0  0  0  0  0  0  0
    6.1976   -1.9551    4.8326 C   0  0  0  0  0  0  0  0  0  0  0  0
    7.6811   -3.2390    6.5640 C   0  0  0  0  0  0  0  0  0  0  0  0
    7.4591   -4.6170    6.4639 C   0  0  0  0  0  0  0  0  0  0  0  0
    8.1342   -5.5063    7.3147 C   0  0  0  0  0  0  0  0  0  0  0  0
    7.9119   -6.9730    7.2193 C   0  0  0  0  0  0  0  0  0  0  0  0
    7.7222   -7.6066    5.9726 C   0  0  0  0  0  0  0  0  0  0  0  0
    7.5098   -8.9765    5.8768 C   0  0  0  0  0  0  0  0  0  0  0  0
    7.4792   -9.7748    7.0337 C   0  0  0  0  0  0  0  0  0  0  0  0
    7.2657  -11.1015    6.8429 O   0  0  0  0  0  0  0  0  0  0  0  0
    7.2297  -11.9617    7.9583 C   0  0  0  0  0  0  0  0  0  0  0  0
    7.6667   -9.1675    8.2842 C   0  0  0  0  0  0  0  0  0  0  0  0
    7.8786   -7.7872    8.3626 C   0  0  0  0  0  0  0  0  0  0  0  0
    9.0290   -4.9704    8.2736 C   0  0  0  0  0  0  0  0  0  0  0  0
    9.2676   -3.6025    8.3945 C   0  0  0  0  0  0  0  0  0  0  0  0
    8.5971   -2.7367    7.5233 C   0  0  0  0  0  0  0  0  0  0  0  0
    8.6219   -1.3352    7.4436 N   0  0  0  0  0  0  0  0  0  0  0  0
    9.4065   -0.4761    8.2368 C   0  0  0  0  0  0  0  0  0  0  0  0
    8.8473    0.6176    8.9159 C   0  0  0  0  0  0  0  0  0  0  0  0
    9.6751    1.4293    9.6823 C   0  0  0  0  0  0  0  0  0  0  0  0
   11.0478    1.1320    9.7682 C   0  0  0  0  0  0  0  0  0  0  0  0
   11.8967    2.0531   10.6289 C   0  0  0  0  0  0  0  0  0  0  0  0
   11.3168    2.9816   11.1750 O   0  0  0  0  0  0  0  0  0  0  0  0
   13.3733    1.8796   10.8399 C   0  0  0  0  0  0  0  0  0  0  0  0
   14.1781    0.8664   10.2638 C   0  0  0  0  0  0  0  0  0  0  0  0
   15.5438    0.7988   10.5257 C   0  0  0  0  0  0  0  0  0  0  0  0
   16.1239    1.7494   11.3731 C   0  0  0  0  0  0  0  0  0  0  0  0
   17.8164    1.8435   11.8338 S   0  0  0  0  0  0  0  0  0  0  0  0
   17.5055    3.2672   12.8321 C   0  0  0  0  0  0  0  0  0  0  0  0
   18.4544    3.9720   13.5812 C   0  0  0  0  0  0  0  0  0  0  0  0
   18.0321    5.0796   14.3166 C   0  0  0  0  0  0  0  0  0  0  0  0
   16.6842    5.4782   14.3048 C   0  0  0  0  0  0  0  0  0  0  0  0
   15.7434    4.7731   13.5575 C   0  0  0  0  0  0  0  0  0  0  0  0
   16.1438    3.6538   12.8087 C   0  0  0  0  0  0  0  0  0  0  0  0
   15.3429    2.7757   11.9645 C   0  0  0  0  0  0  0  0  0  0  0  0
   13.9748    2.8262   11.6878 C   0  0  0  0  0  0  0  0  0  0  0  0
   11.5745    0.0851    9.1197 N   0  0  0  0  0  0  0  0  0  0  0  0
   10.7912   -0.6874    8.3759 C   0  0  0  0  0  0  0  0  0  0  0  0
    3.7468   -1.3529    3.1500 C   0  0  0  0  0  0  0  0  0  0  0  0
    2.8109   -1.2193    2.1196 C   0  0  0  0  0  0  0  0  0  0  0  0
    0.4819   -0.4850   -0.9467 H   0  0  0  0  0  0  0  0  0  0  0  0
    0.3205   -0.7480    0.8184 H   0  0  0  0  0  0  0  0  0  0  0  0
    1.2769   -1.8955   -0.1781 H   0  0  0  0  0  0  0  0  0  0  0  0
    4.2388    1.3755    0.4474 H   0  0  0  0  0  0  0  0  0  0  0  0
    5.9052    1.1202    2.2700 H   0  0  0  0  0  0  0  0  0  0  0  0
    6.2360    1.4425    4.5535 H   0  0  0  0  0  0  0  0  0  0  0  0
    7.8899    1.2352    6.3666 H   0  0  0  0  0  0  0  0  0  0  0  0
    5.7567   -2.8461    4.3802 H   0  0  0  0  0  0  0  0  0  0  0  0
    6.7337   -4.9981    5.7417 H   0  0  0  0  0  0  0  0  0  0  0  0
    7.7675   -7.0145    5.0554 H   0  0  0  0  0  0  0  0  0  0  0  0
    7.3740   -9.4624    4.9084 H   0  0  0  0  0  0  0  0  0  0  0  0
    7.0523  -12.9733    7.5689 H   0  0  0  0  0  0  0  0  0  0  0  0
    6.4127  -11.6997    8.6550 H   0  0  0  0  0  0  0  0  0  0  0  0
    8.1847  -11.9560    8.5148 H   0  0  0  0  0  0  0  0  0  0  0  0
    7.6399   -9.7527    9.2038 H   0  0  0  0  0  0  0  0  0  0  0  0
    7.9960   -7.3337    9.3498 H   0  0  0  0  0  0  0  0  0  0  0  0
    9.5714   -5.6535    8.9309 H   0  0  0  0  0  0  0  0  0  0  0  0
    9.9628   -3.2319    9.1491 H   0  0  0  0  0  0  0  0  0  0  0  0
    7.7749    0.8122    8.8528 H   0  0  0  0  0  0  0  0  0  0  0  0
    9.2894    2.2858   10.2347 H   0  0  0  0  0  0  0  0  0  0  0  0
   13.7116    0.1353    9.6083 H   0  0  0  0  0  0  0  0  0  0  0  0
   16.1498    0.0110   10.0726 H   0  0  0  0  0  0  0  0  0  0  0  0
   19.5021    3.6630   13.5906 H   0  0  0  0  0  0  0  0  0  0  0  0
   18.7595    5.6418   14.9074 H   0  0  0  0  0  0  0  0  0  0  0  0
   16.3722    6.3485   14.8871 H   0  0  0  0  0  0  0  0  0  0  0  0
   14.6967    5.0868   13.5519 H   0  0  0  0  0  0  0  0  0  0  0  0
   13.3410    3.6005   12.1231 H   0  0  0  0  0  0  0  0  0  0  0  0
   11.2680   -1.5194    7.8471 H   0  0  0  0  0  0  0  0  0  0  0  0
    3.5737   -2.1136    3.9151 H   0  0  0  0  0  0  0  0  0  0  0  0
    1.9471   -1.8842    2.0988 H   0  0  0  0  0  0  0  0  0  0  0  0
  1  2  1  0
  1 51  1  0
  1 52  1  0
  1 53  1  0
  2  3  1  0
  3  4  2  0
  3 50  1  0
  4  5  1  0
  4 54  1  0
  5  6  2  0
  5 55  1  0
  6  7  1  0
  6 49  1  0
  7  8  2  0
  7 12  1  0
  8  9  1  0
  8 56  1  0
  9 10  2  0
  9 57  1  0
 10 11  1  0
 10 27  1  0
 11 12  2  0
 11 13  1  0
 12 58  1  0
 13 14  2  0
 13 26  1  0
 14 15  1  0
 14 59  1  0
 15 16  1  0
 15 24  2  0
 16 17  2  0
 16 23  1  0
 17 18  1  0
 17 60  1  0
 18 19  2  0
 18 61  1  0
 19 20  1  0
 19 22  1  0
 20 21  1  0
 21 62  1  0
 21 63  1  0
 21 64  1  0
 22 23  2  0
 22 65  1  0
 23 66  1  0
 24 25  1  0
 24 67  1  0
 25 26  2  0
 25 68  1  0
 26 27  1  0
 27 28  1  0
 28 29  2  0
 28 48  1  0
 29 30  1  0
 29 69  1  0
 30 31  2  0
 30 70  1  0
 31 32  1  0
 31 47  1  0
 32 33  2  0
 32 34  1  0
 34 35  2  0
 34 46  1  0
 35 36  1  0
 35 71  1  0
 36 37  2  0
 36 72  1  0
 37 38  1  0
 37 45  1  0
 38 39  1  0
 39 40  1  0
 39 44  2  0
 40 41  2  0
 40 73  1  0
 41 42  1  0
 41 74  1  0
 42 43  2  0
 42 75  1  0
 43 44  1  0
 43 76  1  0
 44 45  1  0
 45 46  2  0
 46 77  1  0
 47 48  2  0
 48 78  1  0
 49 50  2  0
 49 79  1  0
 50 80  1  0
M  END

