
     RDKit          3D

110121  0  0  0  0  0  0  0  0999 V2000
    0.7644    0.2655   -0.5134 O   0  0  0  0  0  0  0  0  0  0  0  0
    0.8747    0.1879    0.6995 C   0  0  0  0  0  0  0  0  0  0  0  0
    1.8997   -0.7318    1.2993 C   0  0  0  0  0  0  0  0  0  0  0  0
    3.0410   -1.0335    0.5354 C   0  0  0  0  0  0  0  0  0  0  0  0
    4.0055   -1.9151    1.0123 C   0  0  0  0  0  0  0  0  0  0  0  0
    3.8498   -2.5575    2.2573 C   0  0  0  0  0  0  0  0  0  0  0  0
    4.8588   -3.5405    2.7560 C   0  0  0  0  0  0  0  0  0  0  0  0
    6.1999   -3.2633    2.7892 C   0  0  0  0  0  0  0  0  0  0  0  0
    7.2350   -4.3136    3.0403 C   0  0  0  0  0  0  0  0  0  0  0  0
    7.2453   -5.5166    2.3101 C   0  0  0  0  0  0  0  0  0  0  0  0
    8.2342   -6.4781    2.5271 C   0  0  0  0  0  0  0  0  0  0  0  0
    9.2314   -6.2602    3.4827 C   0  0  0  0  0  0  0  0  0  0  0  0
    9.2394   -5.0660    4.2105 C   0  0  0  0  0  0  0  0  0  0  0  0
    8.2583   -4.0988    3.9838 C   0  0  0  0  0  0  0  0  0  0  0  0
    6.7403   -1.8863    2.5802 C   0  0  0  0  0  0  0  0  0  0  0  0
    6.2168   -0.7778    3.2767 C   0  0  0  0  0  0  0  0  0  0  0  0
    6.7549    0.4935    3.1088 C   0  0  0  0  0  0  0  0  0  0  0  0
    7.8168    0.7152    2.2137 C   0  0  0  0  0  0  0  0  0  0  0  0
    8.3814    2.1042    2.1261 C   0  0  0  0  0  0  0  0  0  0  0  0
    8.2816    2.8605    3.0790 O   0  0  0  0  0  0  0  0  0  0  0  0
    9.0685    2.5740    0.8739 C   0  0  0  0  0  0  0  0  0  0  0  0
   10.0090    3.6130    0.9935 C   0  0  0  0  0  0  0  0  0  0  0  0
   10.6402    4.1411   -0.1278 C   0  0  0  0  0  0  0  0  0  0  0  0
   10.3349    3.6476   -1.4089 C   0  0  0  0  0  0  0  0  0  0  0  0
   10.9785    4.1789   -2.5521 N   0  0  0  0  0  0  0  0  0  0  0  0
   12.3638    4.2847   -2.7359 C   0  0  0  0  0  0  0  0  0  0  0  0
   13.4102    3.8824   -1.8959 C   0  0  0  0  0  0  0  0  0  0  0  0
   14.7179    4.0833   -2.3405 C   0  0  0  0  0  0  0  0  0  0  0  0
   14.9861    4.6652   -3.5934 C   0  0  0  0  0  0  0  0  0  0  0  0
   13.9419    5.0498   -4.4332 C   0  0  0  0  0  0  0  0  0  0  0  0
   12.6186    4.8583   -4.0105 C   0  0  0  0  0  0  0  0  0  0  0  0
   11.3285    5.1133   -4.6216 C   0  0  0  0  0  0  0  0  0  0  0  0
   10.9337    5.6749   -5.8443 C   0  0  0  0  0  0  0  0  0  0  0  0
    9.5744    5.8049   -6.1252 C   0  0  0  0  0  0  0  0  0  0  0  0
    8.6088    5.3873   -5.1906 C   0  0  0  0  0  0  0  0  0  0  0  0
    8.9750    4.8248   -3.9668 C   0  0  0  0  0  0  0  0  0  0  0  0
   10.3418    4.6807   -3.6953 C   0  0  0  0  0  0  0  0  0  0  0  0
    9.3810    2.6263   -1.5405 C   0  0  0  0  0  0  0  0  0  0  0  0
    8.7548    2.0988   -0.4107 C   0  0  0  0  0  0  0  0  0  0  0  0
    8.3563   -0.3884    1.5300 C   0  0  0  0  0  0  0  0  0  0  0  0
    7.8373   -1.6682    1.7251 C   0  0  0  0  0  0  0  0  0  0  0  0
    4.2906   -4.8474    3.2099 C   0  0  0  0  0  0  0  0  0  0  0  0
    4.6333   -5.3989    4.4587 C   0  0  0  0  0  0  0  0  0  0  0  0
    4.0725   -6.6030    4.8887 C   0  0  0  0  0  0  0  0  0  0  0  0
    3.1603   -7.2852    4.0776 C   0  0  0  0  0  0  0  0  0  0  0  0
    2.8035   -6.7459    2.8377 C   0  0  0  0  0  0  0  0  0  0  0  0
    3.3540   -5.5348    2.4137 C   0  0  0  0  0  0  0  0  0  0  0  0
    2.6797   -2.2934    2.9939 C   0  0  0  0  0  0  0  0  0  0  0  0
    1.7296   -1.3818    2.5343 C   0  0  0  0  0  0  0  0  0  0  0  0
   -0.0151    1.0176    1.5827 C   0  0  0  0  0  0  0  0  0  0  0  0
   -1.2531    1.4354    1.0624 C   0  0  0  0  0  0  0  0  0  0  0  0
   -2.0993    2.2575    1.7996 C   0  0  0  0  0  0  0  0  0  0  0  0
   -1.7187    2.6972    3.0801 C   0  0  0  0  0  0  0  0  0  0  0  0
   -2.5764    3.5343    3.8334 N   0  0  0  0  0  0  0  0  0  0  0  0
   -3.9173    3.2682    4.1413 C   0  0  0  0  0  0  0  0  0  0  0  0
   -4.7011    2.1496    3.8300 C   0  0  0  0  0  0  0  0  0  0  0  0
   -6.0186    2.1276    4.2902 C   0  0  0  0  0  0  0  0  0  0  0  0
   -6.5494    3.1877    5.0484 C   0  0  0  0  0  0  0  0  0  0  0  0
   -5.7615    4.2923    5.3689 C   0  0  0  0  0  0  0  0  0  0  0  0
   -4.4343    4.3391    4.9190 C   0  0  0  0  0  0  0  0  0  0  0  0
   -3.3577    5.2965    5.0834 C   0  0  0  0  0  0  0  0  0  0  0  0
   -3.2615    6.5408    5.7230 C   0  0  0  0  0  0  0  0  0  0  0  0
   -2.0560    7.2392    5.6736 C   0  0  0  0  0  0  0  0  0  0  0  0
   -0.9510    6.7086    4.9824 C   0  0  0  0  0  0  0  0  0  0  0  0
   -1.0203    5.4726    4.3377 C   0  0  0  0  0  0  0  0  0  0  0  0
   -2.2283    4.7663    4.4036 C   0  0  0  0  0  0  0  0  0  0  0  0
   -0.4758    2.3025    3.5992 C   0  0  0  0  0  0  0  0  0  0  0  0
    0.3653    1.4736    2.8562 C   0  0  0  0  0  0  0  0  0  0  0  0
    3.1494   -0.5636   -0.4442 H   0  0  0  0  0  0  0  0  0  0  0  0
    4.8897   -2.1280    0.4085 H   0  0  0  0  0  0  0  0  0  0  0  0
    6.4717   -5.6943    1.5605 H   0  0  0  0  0  0  0  0  0  0  0  0
    8.2265   -7.4027    1.9440 H   0  0  0  0  0  0  0  0  0  0  0  0
   10.0034   -7.0146    3.6548 H   0  0  0  0  0  0  0  0  0  0  0  0
   10.0170   -4.8841    4.9569 H   0  0  0  0  0  0  0  0  0  0  0  0
    8.2782   -3.1650    4.5509 H   0  0  0  0  0  0  0  0  0  0  0  0
    5.3878   -0.9261    3.9711 H   0  0  0  0  0  0  0  0  0  0  0  0
    6.3675    1.3430    3.6746 H   0  0  0  0  0  0  0  0  0  0  0  0
   10.2200    4.0097    1.9884 H   0  0  0  0  0  0  0  0  0  0  0  0
   11.3597    4.9553   -0.0234 H   0  0  0  0  0  0  0  0  0  0  0  0
   13.2169    3.4209   -0.9266 H   0  0  0  0  0  0  0  0  0  0  0  0
   15.5493    3.7784   -1.6998 H   0  0  0  0  0  0  0  0  0  0  0  0
   16.0215    4.8102   -3.9104 H   0  0  0  0  0  0  0  0  0  0  0  0
   14.1507    5.4911   -5.4110 H   0  0  0  0  0  0  0  0  0  0  0  0
   11.6835    6.0107   -6.5651 H   0  0  0  0  0  0  0  0  0  0  0  0
    9.2537    6.2398   -7.0747 H   0  0  0  0  0  0  0  0  0  0  0  0
    7.5476    5.5076   -5.4232 H   0  0  0  0  0  0  0  0  0  0  0  0
    8.2158    4.5168   -3.2467 H   0  0  0  0  0  0  0  0  0  0  0  0
    9.1406    2.2388   -2.5319 H   0  0  0  0  0  0  0  0  0  0  0  0
    8.0043    1.3169   -0.5382 H   0  0  0  0  0  0  0  0  0  0  0  0
    9.2110   -0.2571    0.8639 H   0  0  0  0  0  0  0  0  0  0  0  0
    8.2874   -2.5155    1.2033 H   0  0  0  0  0  0  0  0  0  0  0  0
    5.3429   -4.8724    5.0999 H   0  0  0  0  0  0  0  0  0  0  0  0
    4.3483   -7.0095    5.8652 H   0  0  0  0  0  0  0  0  0  0  0  0
    2.7238   -8.2293    4.4133 H   0  0  0  0  0  0  0  0  0  0  0  0
    2.0884   -7.2692    2.1976 H   0  0  0  0  0  0  0  0  0  0  0  0
    3.0617   -5.1170    1.4473 H   0  0  0  0  0  0  0  0  0  0  0  0
    2.5164   -2.8076    3.9438 H   0  0  0  0  0  0  0  0  0  0  0  0
    0.8326   -1.2020    3.1300 H   0  0  0  0  0  0  0  0  0  0  0  0
   -1.5283    1.1138    0.0561 H   0  0  0  0  0  0  0  0  0  0  0  0
   -3.0529    2.5844    1.3812 H   0  0  0  0  0  0  0  0  0  0  0  0
   -4.2998    1.3161    3.2520 H   0  0  0  0  0  0  0  0  0  0  0  0
   -6.6482    1.2651    4.0571 H   0  0  0  0  0  0  0  0  0  0  0  0
   -7.5855    3.1398    5.3917 H   0  0  0  0  0  0  0  0  0  0  0  0
   -6.1705    5.1103    5.9672 H   0  0  0  0  0  0  0  0  0  0  0  0
   -4.1233    6.9589    6.2493 H   0  0  0  0  0  0  0  0  0  0  0  0
   -1.9678    8.2089    6.1689 H   0  0  0  0  0  0  0  0  0  0  0  0
   -0.0173    7.2755    4.9443 H   0  0  0  0  0  0  0  0  0  0  0  0
   -0.1595    5.0798    3.7950 H   0  0  0  0  0  0  0  0  0  0  0  0
   -0.1757    2.6397    4.5928 H   0  0  0  0  0  0  0  0  0  0  0  0
    1.3341    1.1925    3.2724 H   0  0  0  0  0  0  0  0  0  0  0  0
  1  2  2  0
  2  3  1  0
  2 50  1  0
  3  4  2  0
  3 49  1  0
  4  5  1  0
  4 69  1  0
  5  6  2  0
  5 70  1  0
  6  7  1  0
  6 48  1  0
  7  8  2  0
  7 42  1  0
  8  9  1  0
  8 15  1  0
  9 10  2  0
  9 14  1  0
 10 11  1  0
 10 71  1  0
 11 12  2  0
 11 72  1  0
 12 13  1  0
 12 73  1  0
 13 14  2  0
 13 74  1  0
 14 75  1  0
 15 16  2  0
 15 41  1  0
 16 17  1  0
 16 76  1  0
 17 18  2  0
 17 77  1  0
 18 19  1  0
 18 40  1  0
 19 20  2  0
 19 21  1  0
 21 22  2  0
 21 39  1  0
 22 23  1  0
 22 78  1  0
 23 24  2  0
 23 79  1  0
 24 25  1  0
 24 38  1  0
 25 26  1  0
 25 37  1  0
 26 27  2  0
 26 31  1  0
 27 28  1  0
 27 80  1  0
 28 29  2  0
 28 81  1  0
 29 30  1  0
 29 82  1  0
 30 31  2  0
 30 83  1  0
 31 32  1  0
 32 33  1  0
 32 37  2  0
 33 34  2  0
 33 84  1  0
 34 35  1  0
 34 85  1  0
 35 36  2  0
 35 86  1  0
 36 37  1  0
 36 87  1  0
 38 39  2  0
 38 88  1  0
 39 89  1  0
 40 41  2  0
 40 90  1  0
 41 91  1  0
 42 43  2  0
 42 47  1  0
 43 44  1  0
 43 92  1  0
 44 45  2  0
 44 93  1  0
 45 46  1  0
 45 94  1  0
 46 47  2  0
 46 95  1  0
 47 96  1  0
 48 49  2  0
 48 97  1  0
 49 98  1  0
 50 51  2  0
 50 68  1  0
 51 52  1  0
 51 99  1  0
 52 53  2  0
 52100  1  0
 53 54  1  0
 53 67  1  0
 54 55  1  0
 54 66  1  0
 55 56  2  0
 55 60  1  0
 56 57  1  0
 56101  1  0
 57 58  2  0
 57102  1  0
 58 59  1  0
 58103  1  0
 59 60  2  0
 59104  1  0
 60 61  1  0
 61 62  1  0
 61 66  2  0
 62 63  2  0
 62105  1  0
 63 64  1  0
 63106  1  0
 64 65  2  0
 64107  1  0
 65 66  1  0
 65108  1  0
 67 68  2  0
 67109  1  0
 68110  1  0
M  END

