
     RDKit          3D

 63 65  0  0  0  0  0  0  0  0999 V2000
    8.2590    0.6778   -1.5955 C   0  0  0  0  0  0  0  0  0  0  0  0
    8.0189    0.8933   -0.1012 C   0  0  0  0  0  0  0  0  0  0  0  0
    6.7064    1.4432    0.1967 N   0  0  0  0  0  0  0  0  0  0  0  0
    6.5120    2.7150    0.6526 C   0  0  0  0  0  0  0  0  0  0  0  0
    7.4286    3.4876    0.8956 O   0  0  0  0  0  0  0  0  0  0  0  0
    5.0354    3.1271    0.8392 C   0  0  2  0  0  0  0  0  0  0  0  0
    4.4002    2.2222    0.7951 H   0  0  0  0  0  0  0  0  0  0  0  0
    4.6149    4.1491   -0.2286 C   0  0  0  0  0  0  0  0  0  0  0  0
    5.0868    5.4959    0.3480 C   0  0  1  0  0  0  0  0  0  0  0  0
    6.1469    5.6473    0.0645 H   0  0  0  0  0  0  0  0  0  0  0  0
    4.2436    6.5951   -0.1141 N   0  0  0  0  0  0  0  0  0  0  0  0
    4.7413    7.9202    0.2162 C   0  0  0  0  0  0  0  0  0  0  0  0
    3.8080    9.0254   -0.2373 C   0  0  0  0  0  0  0  0  0  0  0  0
    2.4231    8.8177   -0.3122 C   0  0  0  0  0  0  0  0  0  0  0  0
    1.5650    9.8487   -0.7006 C   0  0  0  0  0  0  0  0  0  0  0  0
    2.0813   11.1092   -1.0167 C   0  0  0  0  0  0  0  0  0  0  0  0
    1.1794   12.2232   -1.4811 C   0  0  1  0  0  0  0  0  0  0  0  0
   -0.1167   11.9682   -1.2315 F   0  0  0  0  0  0  0  0  0  0  0  0
    1.4825   13.3919   -0.8836 F   0  0  0  0  0  0  0  0  0  0  0  0
    1.2910   12.4323   -2.8090 F   0  0  0  0  0  0  0  0  0  0  0  0
    3.4627   11.3309   -0.9418 C   0  0  0  0  0  0  0  0  0  0  0  0
    4.3138   10.2950   -0.5609 C   0  0  0  0  0  0  0  0  0  0  0  0
    5.0297    5.2831    1.8807 C   0  0  0  0  0  0  0  0  0  0  0  0
    4.7818    3.8510    2.0720 N   0  0  0  0  0  0  0  0  0  0  0  0
    5.2448    3.2611    3.3122 C   0  0  0  0  0  0  0  0  0  0  0  0
    4.4163    3.6620    4.5219 C   0  0  0  0  0  0  0  0  0  0  0  0
    3.0691    4.0366    4.3897 C   0  0  0  0  0  0  0  0  0  0  0  0
    2.3157    4.3706    5.5113 C   0  0  0  0  0  0  0  0  0  0  0  0
    2.8830    4.3249    6.7906 C   0  0  0  0  0  0  0  0  0  0  0  0
    4.2199    3.9394    6.9445 C   0  0  0  0  0  0  0  0  0  0  0  0
    4.8555    3.8332    8.1439 O   0  0  0  0  0  0  0  0  0  0  0  0
    4.1370    4.0926    9.3275 C   0  0  0  0  0  0  0  0  0  0  0  0
    4.9918    3.6133    5.8010 C   0  0  0  0  0  0  0  0  0  0  0  0
    6.2811    3.1688    5.9288 O   0  0  0  0  0  0  0  0  0  0  0  0
    7.2517    4.0935    6.3994 C   0  0  0  0  0  0  0  0  0  0  0  0
    9.2605    0.2518   -1.7680 H   0  0  0  0  0  0  0  0  0  0  0  0
    8.1923    1.6293   -2.1459 H   0  0  0  0  0  0  0  0  0  0  0  0
    7.5218   -0.0192   -2.0284 H   0  0  0  0  0  0  0  0  0  0  0  0
    8.7466    1.6086    0.3080 H   0  0  0  0  0  0  0  0  0  0  0  0
    8.1472   -0.0577    0.4456 H   0  0  0  0  0  0  0  0  0  0  0  0
    5.8914    0.8657    0.0260 H   0  0  0  0  0  0  0  0  0  0  0  0
    3.5160    4.1595   -0.3020 H   0  0  0  0  0  0  0  0  0  0  0  0
    5.0331    3.9316   -1.2239 H   0  0  0  0  0  0  0  0  0  0  0  0
    4.1259    6.5285   -1.1258 H   0  0  0  0  0  0  0  0  0  0  0  0
    5.7604    8.1198   -0.1846 H   0  0  0  0  0  0  0  0  0  0  0  0
    4.8438    7.9810    1.3158 H   0  0  0  0  0  0  0  0  0  0  0  0
    2.0280    7.8308   -0.0652 H   0  0  0  0  0  0  0  0  0  0  0  0
    0.4888    9.6755   -0.7537 H   0  0  0  0  0  0  0  0  0  0  0  0
    3.8710   12.3145   -1.1845 H   0  0  0  0  0  0  0  0  0  0  0  0
    5.3917   10.4745   -0.5141 H   0  0  0  0  0  0  0  0  0  0  0  0
    4.2141    5.8808    2.3251 H   0  0  0  0  0  0  0  0  0  0  0  0
    5.9785    5.5948    2.3571 H   0  0  0  0  0  0  0  0  0  0  0  0
    6.3110    3.4858    3.5063 H   0  0  0  0  0  0  0  0  0  0  0  0
    5.1916    2.1616    3.2073 H   0  0  0  0  0  0  0  0  0  0  0  0
    2.6359    4.0662    3.3883 H   0  0  0  0  0  0  0  0  0  0  0  0
    1.2700    4.6687    5.4006 H   0  0  0  0  0  0  0  0  0  0  0  0
    2.2763    4.5803    7.6595 H   0  0  0  0  0  0  0  0  0  0  0  0
    4.8343    3.9267   10.1600 H   0  0  0  0  0  0  0  0  0  0  0  0
    3.2752    3.4105    9.4419 H   0  0  0  0  0  0  0  0  0  0  0  0
    3.7710    5.1347    9.3706 H   0  0  0  0  0  0  0  0  0  0  0  0
    8.2197    3.5731    6.3736 H   0  0  0  0  0  0  0  0  0  0  0  0
    7.0405    4.4173    7.4301 H   0  0  0  0  0  0  0  0  0  0  0  0
    7.3087    4.9812    5.7432 H   0  0  0  0  0  0  0  0  0  0  0  0
  1  2  1  0
  1 36  1  0
  1 37  1  0
  1 38  1  0
  2  3  1  0
  2 39  1  0
  2 40  1  0
  3  4  1  0
  3 41  1  0
  4  5  2  0
  4  6  1  0
  6  7  1  1
  6  8  1  0
  6 24  1  0
  8  9  1  0
  8 42  1  0
  8 43  1  0
  9 10  1  6
  9 11  1  0
  9 23  1  0
 11 12  1  0
 11 44  1  0
 12 13  1  0
 12 45  1  0
 12 46  1  0
 13 14  2  0
 13 22  1  0
 14 15  1  0
 14 47  1  0
 15 16  2  0
 15 48  1  0
 16 17  1  0
 16 21  1  0
 17 18  1  6
 17 19  1  0
 17 20  1  0
 21 22  2  0
 21 49  1  0
 22 50  1  0
 23 24  1  0
 23 51  1  0
 23 52  1  0
 24 25  1  0
 25 26  1  0
 25 53  1  0
 25 54  1  0
 26 27  2  0
 26 33  1  0
 27 28  1  0
 27 55  1  0
 28 29  2  0
 28 56  1  0
 29 30  1  0
 29 57  1  0
 30 31  1  0
 30 33  2  0
 31 32  1  0
 32 58  1  0
 32 59  1  0
 32 60  1  0
 33 34  1  0
 34 35  1  0
 35 61  1  0
 35 62  1  0
 35 63  1  0
M  END

