
     RDKit          3D

 35 36  0  0  0  0  0  0  0  0999 V2000
    1.7161   -1.5974    1.2081 C   0  0  0  0  0  0  0  0  0  0  0  0
    2.8121   -0.6773    0.7614 C   0  0  0  0  0  0  0  0  0  0  0  0
    3.8938   -0.1789    1.5189 C   0  0  0  0  0  0  0  0  0  0  0  0
    4.5960    0.6275    0.6058 C   0  0  0  0  0  0  0  0  0  0  0  0
    5.7449    1.4213    0.6641 C   0  0  0  0  0  0  0  0  0  0  0  0
    6.4518    1.5730    1.7745 O   0  0  0  0  0  0  0  0  0  0  0  0
    6.2026    2.0907   -0.4233 N   0  0  0  0  0  0  0  0  0  0  0  0
    7.2670    3.0798   -0.3865 C   0  0  0  0  0  0  0  0  0  0  0  0
    6.8074    4.4800    0.0781 C   0  0  0  0  0  0  0  0  0  0  0  0
    7.9354    5.4844    0.0958 C   0  0  0  0  0  0  0  0  0  0  0  0
    8.5601    5.8607    1.2950 C   0  0  0  0  0  0  0  0  0  0  0  0
    9.6168    6.7744    1.3121 C   0  0  0  0  0  0  0  0  0  0  0  0
   10.0792    7.3271    0.1152 C   0  0  0  0  0  0  0  0  0  0  0  0
    9.4839    6.9637   -1.0949 C   0  0  0  0  0  0  0  0  0  0  0  0
    8.4236    6.0557   -1.0916 C   0  0  0  0  0  0  0  0  0  0  0  0
    7.8648    5.6299   -2.3043 O   0  0  0  0  0  0  0  0  0  0  0  0
    7.0556    6.4796   -2.9990 C   0  0  1  0  0  0  0  0  0  0  0  0
    6.0032    6.8802   -2.2454 F   0  0  0  0  0  0  0  0  0  0  0  0
    7.7061    7.6043   -3.3799 F   0  0  0  0  0  0  0  0  0  0  0  0
    3.9452    0.5865   -0.6108 O   0  0  0  0  0  0  0  0  0  0  0  0
    2.8224   -0.2411   -0.4905 N   0  0  0  0  0  0  0  0  0  0  0  0
    1.1417   -1.1551    2.0376 H   0  0  0  0  0  0  0  0  0  0  0  0
    2.1249   -2.5572    1.5622 H   0  0  0  0  0  0  0  0  0  0  0  0
    1.0299   -1.7955    0.3733 H   0  0  0  0  0  0  0  0  0  0  0  0
    4.1283   -0.3727    2.5612 H   0  0  0  0  0  0  0  0  0  0  0  0
    5.5722    2.0618   -1.2189 H   0  0  0  0  0  0  0  0  0  0  0  0
    7.6948    3.1473   -1.3971 H   0  0  0  0  0  0  0  0  0  0  0  0
    8.0611    2.7094    0.2807 H   0  0  0  0  0  0  0  0  0  0  0  0
    6.3809    4.3918    1.0889 H   0  0  0  0  0  0  0  0  0  0  0  0
    6.0039    4.8303   -0.5881 H   0  0  0  0  0  0  0  0  0  0  0  0
    8.1998    5.4311    2.2338 H   0  0  0  0  0  0  0  0  0  0  0  0
   10.0797    7.0531    2.2616 H   0  0  0  0  0  0  0  0  0  0  0  0
   10.9081    8.0389    0.1183 H   0  0  0  0  0  0  0  0  0  0  0  0
    9.8342    7.3716   -2.0430 H   0  0  0  0  0  0  0  0  0  0  0  0
    6.6919    5.9474   -3.8916 H   0  0  0  0  0  0  0  0  0  0  0  0
  1  2  1  0
  1 22  1  0
  1 23  1  0
  1 24  1  0
  2  3  1  0
  2 21  2  0
  3  4  2  0
  3 25  1  0
  4  5  1  0
  4 20  1  0
  5  6  2  0
  5  7  1  0
  7  8  1  0
  7 26  1  0
  8  9  1  0
  8 27  1  0
  8 28  1  0
  9 10  1  0
  9 29  1  0
  9 30  1  0
 10 11  2  0
 10 15  1  0
 11 12  1  0
 11 31  1  0
 12 13  2  0
 12 32  1  0
 13 14  1  0
 13 33  1  0
 14 15  2  0
 14 34  1  0
 15 16  1  0
 16 17  1  0
 17 18  1  0
 17 19  1  0
 17 35  1  6
 20 21  1  0
M  END

