
     RDKit          3D

 64 67  0  0  0  0  0  0  0  0999 V2000
    2.0180   -1.1306   -0.5711 C   0  0  0  0  0  0  0  0  0  0  0  0
    1.4783   -1.1441    0.6821 C   0  0  0  0  0  0  0  0  0  0  0  0
    1.9277   -0.3741    1.7247 N   0  0  0  0  0  0  0  0  0  0  0  0
    3.0749    0.4938    1.6671 C   0  0  0  0  0  0  0  0  0  0  0  0
    3.6522    0.8108    3.0789 C   0  0  1  0  0  0  0  0  0  0  0  0
    2.5468    1.5063    3.8995 C   0  0  0  0  0  0  0  0  0  0  0  0
    2.1115    2.7993    3.5490 C   0  0  0  0  0  0  0  0  0  0  0  0
    1.0942    3.4385    4.2581 C   0  0  0  0  0  0  0  0  0  0  0  0
    0.4722    2.8100    5.3405 C   0  0  0  0  0  0  0  0  0  0  0  0
    0.8941    1.5280    5.6892 C   0  0  0  0  0  0  0  0  0  0  0  0
    0.1373    0.7061    7.0382 Cl  0  0  0  0  0  0  0  0  0  0  0  0
    1.9143    0.8784    4.9848 C   0  0  0  0  0  0  0  0  0  0  0  0
    4.1502   -0.4930    3.7585 C   0  0  0  0  0  0  0  0  0  0  0  0
    5.4228   -1.0713    3.1140 C   0  0  0  0  0  0  0  0  0  0  0  0
    6.5312   -0.1223    3.0369 N   0  0  0  0  0  0  0  0  0  0  0  0
    7.2548    0.0909    4.2832 C   0  0  0  0  0  0  0  0  0  0  0  0
    8.0710   -1.1149    4.7194 C   0  0  0  0  0  0  0  0  0  0  0  0
    8.7895   -1.8718    3.7802 C   0  0  0  0  0  0  0  0  0  0  0  0
    9.5798   -2.9485    4.1877 C   0  0  0  0  0  0  0  0  0  0  0  0
    9.6663   -3.2872    5.5429 C   0  0  0  0  0  0  0  0  0  0  0  0
    8.9523   -2.5432    6.4856 C   0  0  0  0  0  0  0  0  0  0  0  0
    8.1581   -1.4677    6.0735 C   0  0  0  0  0  0  0  0  0  0  0  0
    6.1202    1.0854    2.3359 C   0  0  0  0  0  0  0  0  0  0  0  0
    4.8715    1.7678    2.9282 C   0  0  0  0  0  0  0  0  0  0  0  0
    0.2660   -1.9683    0.9794 C   0  0  0  0  0  0  0  0  0  0  0  0
   -0.8997   -1.7738    0.2013 C   0  0  0  0  0  0  0  0  0  0  0  0
   -0.9287   -0.9031   -0.8270 O   0  0  0  0  0  0  0  0  0  0  0  0
   -2.0784   -2.4835    0.4880 C   0  0  0  0  0  0  0  0  0  0  0  0
   -2.0863   -3.4021    1.5294 C   0  0  0  0  0  0  0  0  0  0  0  0
   -0.9440   -3.6341    2.3054 C   0  0  0  0  0  0  0  0  0  0  0  0
    0.2272   -2.9139    2.0335 C   0  0  0  0  0  0  0  0  0  0  0  0
    1.3816   -3.0773    2.7377 O   0  0  0  0  0  0  0  0  0  0  0  0
    1.4468   -4.0704    3.7372 C   0  0  0  0  0  0  0  0  0  0  0  0
    2.8475   -0.4775   -0.8461 H   0  0  0  0  0  0  0  0  0  0  0  0
    1.6934   -1.8668   -1.3072 H   0  0  0  0  0  0  0  0  0  0  0  0
    1.3166   -0.2893    2.5274 H   0  0  0  0  0  0  0  0  0  0  0  0
    2.8438    1.4494    1.1523 H   0  0  0  0  0  0  0  0  0  0  0  0
    3.8443   -0.0007    1.0540 H   0  0  0  0  0  0  0  0  0  0  0  0
    2.5692    3.3199    2.7060 H   0  0  0  0  0  0  0  0  0  0  0  0
    0.7771    4.4427    3.9653 H   0  0  0  0  0  0  0  0  0  0  0  0
   -0.3243    3.2992    5.9031 H   0  0  0  0  0  0  0  0  0  0  0  0
    2.2009   -0.1222    5.3038 H   0  0  0  0  0  0  0  0  0  0  0  0
    3.3595   -1.2585    3.7281 H   0  0  0  0  0  0  0  0  0  0  0  0
    4.3567   -0.2812    4.8204 H   0  0  0  0  0  0  0  0  0  0  0  0
    5.1996   -1.4250    2.0924 H   0  0  0  0  0  0  0  0  0  0  0  0
    5.7497   -1.9581    3.6780 H   0  0  0  0  0  0  0  0  0  0  0  0
    6.6097    0.4028    5.1338 H   0  0  0  0  0  0  0  0  0  0  0  0
    7.9467    0.9354    4.1130 H   0  0  0  0  0  0  0  0  0  0  0  0
    8.7085   -1.6080    2.7231 H   0  0  0  0  0  0  0  0  0  0  0  0
   10.1328   -3.5284    3.4437 H   0  0  0  0  0  0  0  0  0  0  0  0
   10.2847   -4.1305    5.8612 H   0  0  0  0  0  0  0  0  0  0  0  0
    9.0075   -2.8033    7.5461 H   0  0  0  0  0  0  0  0  0  0  0  0
    7.5964   -0.8929    6.8163 H   0  0  0  0  0  0  0  0  0  0  0  0
    5.9340    0.8208    1.2794 H   0  0  0  0  0  0  0  0  0  0  0  0
    6.9587    1.8006    2.3282 H   0  0  0  0  0  0  0  0  0  0  0  0
    4.6079    2.6346    2.3002 H   0  0  0  0  0  0  0  0  0  0  0  0
    5.1151    2.1732    3.9247 H   0  0  0  0  0  0  0  0  0  0  0  0
   -0.0200   -0.5601   -0.9526 H   0  0  0  0  0  0  0  0  0  0  0  0
   -2.9602   -2.2991   -0.1274 H   0  0  0  0  0  0  0  0  0  0  0  0
   -2.9998   -3.9618    1.7474 H   0  0  0  0  0  0  0  0  0  0  0  0
   -0.9776   -4.3676    3.1095 H   0  0  0  0  0  0  0  0  0  0  0  0
    2.4690   -4.0420    4.1383 H   0  0  0  0  0  0  0  0  0  0  0  0
    1.2505   -5.0769    3.3272 H   0  0  0  0  0  0  0  0  0  0  0  0
    0.7351   -3.8770    4.5597 H   0  0  0  0  0  0  0  0  0  0  0  0
  1  2  2  0
  1 34  1  0
  1 35  1  0
  2  3  1  0
  2 25  1  0
  3  4  1  0
  3 36  1  0
  5  4  1  6
  4 37  1  0
  4 38  1  0
  5  6  1  0
  5 13  1  0
  5 24  1  0
  6  7  2  0
  6 12  1  0
  7  8  1  0
  7 39  1  0
  8  9  2  0
  8 40  1  0
  9 10  1  0
  9 41  1  0
 10 11  1  0
 10 12  2  0
 12 42  1  0
 13 14  1  0
 13 43  1  0
 13 44  1  0
 14 15  1  0
 14 45  1  0
 14 46  1  0
 15 16  1  0
 15 23  1  0
 16 17  1  0
 16 47  1  0
 16 48  1  0
 17 18  2  0
 17 22  1  0
 18 19  1  0
 18 49  1  0
 19 20  2  0
 19 50  1  0
 20 21  1  0
 20 51  1  0
 21 22  2  0
 21 52  1  0
 22 53  1  0
 23 24  1  0
 23 54  1  0
 23 55  1  0
 24 56  1  0
 24 57  1  0
 25 26  2  0
 25 31  1  0
 26 27  1  0
 26 28  1  0
 27 58  1  0
 28 29  2  0
 28 59  1  0
 29 30  1  0
 29 60  1  0
 30 31  2  0
 30 61  1  0
 31 32  1  0
 32 33  1  0
 33 62  1  0
 33 63  1  0
 33 64  1  0
M  END

