
     RDKit          3D

 48 48  0  0  0  0  0  0  0  0999 V2000
    3.0477   -0.0828    1.5320 C   0  0  0  0  0  0  0  0  0  0  0  0
    2.9938   -0.4770    0.0552 C   0  0  0  0  0  0  0  0  0  0  0  0
    3.1396    0.6929   -0.9213 C   0  0  0  0  0  0  0  0  0  0  0  0
    4.4280    1.3545   -0.7954 N   0  0  0  0  0  0  0  0  0  0  0  0
    4.6894    2.4069   -1.7657 C   0  0  1  0  0  0  0  0  0  0  0  0
    4.0355    3.7541   -1.3437 C   0  0  0  0  0  0  0  0  0  0  0  0
    4.5745    4.3954   -0.0876 C   0  0  0  0  0  0  0  0  0  0  0  0
    4.2297    3.9290    1.1914 C   0  0  0  0  0  0  0  0  0  0  0  0
    4.7389    4.5504    2.3284 C   0  0  0  0  0  0  0  0  0  0  0  0
    4.3894    4.0814    3.5378 F   0  0  0  0  0  0  0  0  0  0  0  0
    5.5964    5.6458    2.2498 C   0  0  0  0  0  0  0  0  0  0  0  0
    5.9509    6.1231    0.9865 C   0  0  0  0  0  0  0  0  0  0  0  0
    5.4420    5.4947   -0.1471 C   0  0  0  0  0  0  0  0  0  0  0  0
    5.8103    5.9714   -1.3577 F   0  0  0  0  0  0  0  0  0  0  0  0
    6.2344    2.5475   -2.0414 C   0  0  1  0  0  0  0  0  0  0  0  0
    6.9786    1.5348   -1.3751 O   0  0  0  0  0  0  0  0  0  0  0  0
    7.4949    1.8843   -0.1083 C   0  0  0  0  0  0  0  0  0  0  0  0
    6.6286    2.5058   -3.5506 C   0  0  1  0  0  0  0  0  0  0  0  0
    5.8869    3.6086   -4.3298 C   0  0  0  0  0  0  0  0  0  0  0  0
    8.1434    2.7732   -3.6553 C   0  0  0  0  0  0  0  0  0  0  0  0
    6.3214    1.1252   -4.1604 C   0  0  0  0  0  0  0  0  0  0  0  0
    2.9254   -0.9615    2.1853 H   0  0  0  0  0  0  0  0  0  0  0  0
    2.2434    0.6300    1.7821 H   0  0  0  0  0  0  0  0  0  0  0  0
    4.0055    0.3971    1.7823 H   0  0  0  0  0  0  0  0  0  0  0  0
    2.0387   -0.9861   -0.1618 H   0  0  0  0  0  0  0  0  0  0  0  0
    3.7834   -1.2212   -0.1608 H   0  0  0  0  0  0  0  0  0  0  0  0
    2.3333    1.4242   -0.7241 H   0  0  0  0  0  0  0  0  0  0  0  0
    2.9597    0.3239   -1.9580 H   0  0  0  0  0  0  0  0  0  0  0  0
    5.1856    0.6749   -0.8518 H   0  0  0  0  0  0  0  0  0  0  0  0
    4.2004    2.1495   -2.7287 H   0  0  0  0  0  0  0  0  0  0  0  0
    2.9564    3.5739   -1.2116 H   0  0  0  0  0  0  0  0  0  0  0  0
    4.1310    4.4614   -2.1787 H   0  0  0  0  0  0  0  0  0  0  0  0
    3.5671    3.0714    1.3053 H   0  0  0  0  0  0  0  0  0  0  0  0
    5.9704    6.1098    3.1641 H   0  0  0  0  0  0  0  0  0  0  0  0
    6.6179    6.9789    0.8664 H   0  0  0  0  0  0  0  0  0  0  0  0
    6.5657    3.5277   -1.6582 H   0  0  0  0  0  0  0  0  0  0  0  0
    8.0716    1.0216    0.2580 H   0  0  0  0  0  0  0  0  0  0  0  0
    6.6948    2.1145    0.6170 H   0  0  0  0  0  0  0  0  0  0  0  0
    8.1724    2.7567   -0.1755 H   0  0  0  0  0  0  0  0  0  0  0  0
    6.0650    4.6024   -3.8880 H   0  0  0  0  0  0  0  0  0  0  0  0
    4.7993    3.4409   -4.3657 H   0  0  0  0  0  0  0  0  0  0  0  0
    6.2438    3.6373   -5.3720 H   0  0  0  0  0  0  0  0  0  0  0  0
    8.4024    3.7624   -3.2422 H   0  0  0  0  0  0  0  0  0  0  0  0
    8.4676    2.7569   -4.7084 H   0  0  0  0  0  0  0  0  0  0  0  0
    8.7172    2.0124   -3.1073 H   0  0  0  0  0  0  0  0  0  0  0  0
    5.2432    0.8981   -4.1518 H   0  0  0  0  0  0  0  0  0  0  0  0
    6.8438    0.3299   -3.6085 H   0  0  0  0  0  0  0  0  0  0  0  0
    6.6544    1.0885   -5.2104 H   0  0  0  0  0  0  0  0  0  0  0  0
  1  2  1  0
  1 22  1  0
  1 23  1  0
  1 24  1  0
  2  3  1  0
  2 25  1  0
  2 26  1  0
  3  4  1  0
  3 27  1  0
  3 28  1  0
  4  5  1  0
  4 29  1  0
  5  6  1  0
  5 15  1  0
  5 30  1  6
  6  7  1  0
  6 31  1  0
  6 32  1  0
  7  8  2  0
  7 13  1  0
  8  9  1  0
  8 33  1  0
  9 10  1  0
  9 11  2  0
 11 12  1  0
 11 34  1  0
 12 13  2  0
 12 35  1  0
 13 14  1  0
 15 16  1  0
 15 18  1  0
 15 36  1  1
 16 17  1  0
 17 37  1  0
 17 38  1  0
 17 39  1  0
 18 19  1  6
 18 20  1  0
 18 21  1  0
 19 40  1  0
 19 41  1  0
 19 42  1  0
 20 43  1  0
 20 44  1  0
 20 45  1  0
 21 46  1  0
 21 47  1  0
 21 48  1  0
M  END

