
     RDKit          3D

 71 75  0  0  0  0  0  0  0  0999 V2000
   -0.3769   -2.0400    1.0231 C   0  0  0  0  0  0  0  0  0  0  0  0
    0.5659   -0.9937    1.0800 O   0  0  0  0  0  0  0  0  0  0  0  0
    1.7801   -1.2196    1.6433 C   0  0  0  0  0  0  0  0  0  0  0  0
    2.6480   -0.1230    1.6847 C   0  0  0  0  0  0  0  0  0  0  0  0
    3.9208   -0.2546    2.2534 C   0  0  0  0  0  0  0  0  0  0  0  0
    4.6870    0.8637    2.2594 O   0  0  0  0  0  0  0  0  0  0  0  0
    5.9680    0.8194    2.8512 C   0  0  0  0  0  0  0  0  0  0  0  0
    4.3377   -1.4929    2.7721 C   0  0  0  0  0  0  0  0  0  0  0  0
    3.4637   -2.5863    2.7212 C   0  0  0  0  0  0  0  0  0  0  0  0
    3.9250   -3.9094    3.3471 C   0  0  1  0  0  0  0  0  0  0  0  0
    5.0209   -3.9552    3.2410 H   0  0  0  0  0  0  0  0  0  0  0  0
    3.6616   -3.9637    4.7755 N   0  0  0  0  0  0  0  0  0  0  0  0
    4.6041   -3.6529    5.7091 C   0  0  0  0  0  0  0  0  0  0  0  0
    5.6920   -3.1743    5.4258 O   0  0  0  0  0  0  0  0  0  0  0  0
    4.1886   -3.9147    7.1629 C   0  0  1  0  0  0  0  0  0  0  0  0
    5.1321   -4.0116    7.7245 H   0  0  0  0  0  0  0  0  0  0  0  0
    3.4204   -2.7020    7.7144 C   0  0  0  0  0  0  0  0  0  0  0  0
    3.4245   -5.1607    7.2534 N   0  0  0  0  0  0  0  0  0  0  0  0
    3.0825   -5.7430    8.4469 C   0  0  0  0  0  0  0  0  0  0  0  0
    3.2886   -5.1946    9.5183 O   0  0  0  0  0  0  0  0  0  0  0  0
    2.4342   -7.1394    8.3423 C   0  0  2  0  0  0  0  0  0  0  0  0
    3.5101   -8.1884    7.9400 C   0  0  0  0  0  0  0  0  0  0  0  0
    2.8855   -9.5963    7.8823 C   0  0  1  0  0  0  0  0  0  0  0  0
    2.3169   -9.9637    9.2665 C   0  0  0  0  0  0  0  0  0  0  0  0
    1.2358   -8.9402    9.6647 C   0  0  2  0  0  0  0  0  0  0  0  0
    0.0994   -8.9604    8.6248 C   0  0  0  0  0  0  0  0  0  0  0  0
    0.6667   -8.5904    7.2415 C   0  0  2  0  0  0  0  0  0  0  0  0
    1.7500   -9.6110    6.8399 C   0  0  0  0  0  0  0  0  0  0  0  0
    1.2889   -7.1804    7.2944 C   0  0  0  0  0  0  0  0  0  0  0  0
    1.8584   -7.5333    9.7216 C   0  0  0  0  0  0  0  0  0  0  0  0
    3.2995   -5.1327    2.7219 C   0  0  0  0  0  0  0  0  0  0  0  0
    2.3965   -5.8935    3.3130 N   0  0  0  0  0  0  0  0  0  0  0  0
    2.0776   -6.8735    2.4064 C   0  0  0  0  0  0  0  0  0  0  0  0
    2.8010   -6.6972    1.2503 C   0  0  0  0  0  0  0  0  0  0  0  0
    3.5811   -5.5757    1.4585 N   0  0  0  0  0  0  0  0  0  0  0  0
    4.5522   -5.0161    0.5333 C   0  0  0  0  0  0  0  0  0  0  0  0
    2.1852   -2.4626    2.1631 C   0  0  0  0  0  0  0  0  0  0  0  0
   -1.2730   -1.6271    0.5404 H   0  0  0  0  0  0  0  0  0  0  0  0
   -0.6495   -2.4055    2.0294 H   0  0  0  0  0  0  0  0  0  0  0  0
   -0.0112   -2.8942    0.4248 H   0  0  0  0  0  0  0  0  0  0  0  0
    2.3297    0.8379    1.2795 H   0  0  0  0  0  0  0  0  0  0  0  0
    6.3862    1.8311    2.7637 H   0  0  0  0  0  0  0  0  0  0  0  0
    6.6369    0.1099    2.3319 H   0  0  0  0  0  0  0  0  0  0  0  0
    5.9192    0.5406    3.9185 H   0  0  0  0  0  0  0  0  0  0  0  0
    5.3103   -1.6179    3.2469 H   0  0  0  0  0  0  0  0  0  0  0  0
    2.7695   -4.3673    5.0455 H   0  0  0  0  0  0  0  0  0  0  0  0
    4.0382   -1.7973    7.6112 H   0  0  0  0  0  0  0  0  0  0  0  0
    3.1925   -2.8640    8.7755 H   0  0  0  0  0  0  0  0  0  0  0  0
    2.4790   -2.5492    7.1634 H   0  0  0  0  0  0  0  0  0  0  0  0
    3.3927   -5.7476    6.4274 H   0  0  0  0  0  0  0  0  0  0  0  0
    4.3363   -8.1650    8.6708 H   0  0  0  0  0  0  0  0  0  0  0  0
    3.9461   -7.9344    6.9579 H   0  0  0  0  0  0  0  0  0  0  0  0
    3.6637  -10.3238    7.5940 H   0  0  0  0  0  0  0  0  0  0  0  0
    3.1250   -9.9730   10.0181 H   0  0  0  0  0  0  0  0  0  0  0  0
    1.8904  -10.9816    9.2426 H   0  0  0  0  0  0  0  0  0  0  0  0
    0.8330   -9.1968   10.6593 H   0  0  0  0  0  0  0  0  0  0  0  0
   -0.6922   -8.2475    8.9137 H   0  0  0  0  0  0  0  0  0  0  0  0
   -0.3685   -9.9597    8.5878 H   0  0  0  0  0  0  0  0  0  0  0  0
   -0.1438   -8.5966    6.4925 H   0  0  0  0  0  0  0  0  0  0  0  0
    2.1484   -9.3681    5.8391 H   0  0  0  0  0  0  0  0  0  0  0  0
    1.3122  -10.6221    6.7717 H   0  0  0  0  0  0  0  0  0  0  0  0
    0.5202   -6.4341    7.5593 H   0  0  0  0  0  0  0  0  0  0  0  0
    1.6561   -6.9111    6.2895 H   0  0  0  0  0  0  0  0  0  0  0  0
    2.6588   -7.4887   10.4757 H   0  0  0  0  0  0  0  0  0  0  0  0
    1.1068   -6.7887   10.0306 H   0  0  0  0  0  0  0  0  0  0  0  0
    1.3476   -7.6501    2.6295 H   0  0  0  0  0  0  0  0  0  0  0  0
    2.8370   -7.2556    0.3179 H   0  0  0  0  0  0  0  0  0  0  0  0
    4.3700   -5.4236   -0.4698 H   0  0  0  0  0  0  0  0  0  0  0  0
    5.5822   -5.2684    0.8338 H   0  0  0  0  0  0  0  0  0  0  0  0
    4.4522   -3.9224    0.4901 H   0  0  0  0  0  0  0  0  0  0  0  0
    1.5180   -3.3237    2.1495 H   0  0  0  0  0  0  0  0  0  0  0  0
  1  2  1  0
  1 38  1  0
  1 39  1  0
  1 40  1  0
  2  3  1  0
  3  4  2  0
  3 37  1  0
  4  5  1  0
  4 41  1  0
  5  6  1  0
  5  8  2  0
  6  7  1  0
  7 42  1  0
  7 43  1  0
  7 44  1  0
  8  9  1  0
  8 45  1  0
  9 10  1  0
  9 37  2  0
 10 11  1  1
 10 12  1  0
 10 31  1  0
 12 13  1  0
 12 46  1  0
 13 14  2  0
 13 15  1  0
 15 16  1  1
 15 17  1  0
 15 18  1  0
 17 47  1  0
 17 48  1  0
 17 49  1  0
 18 19  1  0
 18 50  1  0
 19 20  2  0
 21 19  1  1
 21 22  1  0
 21 29  1  0
 21 30  1  0
 22 23  1  0
 22 51  1  0
 22 52  1  0
 23 24  1  0
 23 28  1  0
 23 53  1  6
 24 25  1  0
 24 54  1  0
 24 55  1  0
 25 26  1  0
 25 30  1  0
 25 56  1  1
 26 27  1  0
 26 57  1  0
 26 58  1  0
 27 28  1  0
 27 29  1  0
 27 59  1  6
 28 60  1  0
 28 61  1  0
 29 62  1  0
 29 63  1  0
 30 64  1  0
 30 65  1  0
 31 32  2  0
 31 35  1  0
 32 33  1  0
 33 34  2  0
 33 66  1  0
 34 35  1  0
 34 67  1  0
 35 36  1  0
 36 68  1  0
 36 69  1  0
 36 70  1  0
 37 71  1  0
M  END

