
     RDKit          3D

 40 41  0  0  0  0  0  0  0  0999 V2000
    1.4454    0.9623   -1.3162 C   0  0  0  0  0  0  0  0  0  0  0  0
    2.7700    0.6747   -0.8757 O   0  0  0  0  0  0  0  0  0  0  0  0
    3.5072    1.7276   -0.4763 C   0  0  0  0  0  0  0  0  0  0  0  0
    3.0912    2.8643   -0.4853 O   0  0  0  0  0  0  0  0  0  0  0  0
    4.8793    1.3355   -0.0332 C   0  0  0  0  0  0  0  0  0  0  0  0
    5.7359    2.3567    0.4017 C   0  0  0  0  0  0  0  0  0  0  0  0
    7.0254    2.0376    0.8264 C   0  0  0  0  0  0  0  0  0  0  0  0
    7.4286    0.7112    0.8029 C   0  0  0  0  0  0  0  0  0  0  0  0
    8.6763    0.3843    1.2089 F   0  0  0  0  0  0  0  0  0  0  0  0
    6.5949   -0.3395    0.3729 C   0  0  0  0  0  0  0  0  0  0  0  0
    7.1463   -1.6253    0.3946 N   0  0  0  0  0  0  0  0  0  0  0  0
    6.5185   -2.8162    0.0534 C   0  0  0  0  0  0  0  0  0  0  0  0
    5.3291   -2.8797   -0.2199 O   0  0  0  0  0  0  0  0  0  0  0  0
    7.3391   -3.9327    0.0472 N   0  0  0  0  0  0  0  0  0  0  0  0
    6.7076   -5.2441   -0.0512 C   0  0  0  0  0  0  0  0  0  0  0  0
    7.2952   -6.0622   -1.2034 C   0  0  0  0  0  0  0  0  0  0  0  0
    8.8340   -6.1794   -1.0895 C   0  0  2  0  0  0  0  0  0  0  0  0
    9.2581   -7.1245    0.0413 C   0  0  0  0  0  0  0  0  0  0  0  0
    9.9001   -6.7967    1.0028 O   0  0  0  0  0  0  0  0  0  0  0  0
    8.8593   -8.4099   -0.0976 O   0  0  0  0  0  0  0  0  0  0  0  0
    9.4497   -4.7818   -0.9266 C   0  0  0  0  0  0  0  0  0  0  0  0
    8.7923   -3.9600    0.1945 C   0  0  0  0  0  0  0  0  0  0  0  0
    5.2991   -0.0045   -0.0473 C   0  0  0  0  0  0  0  0  0  0  0  0
    1.0016   -0.0000   -1.5997 H   0  0  0  0  0  0  0  0  0  0  0  0
    1.4587    1.6464   -2.1785 H   0  0  0  0  0  0  0  0  0  0  0  0
    0.8578    1.4318   -0.5122 H   0  0  0  0  0  0  0  0  0  0  0  0
    5.3768    3.3865    0.4017 H   0  0  0  0  0  0  0  0  0  0  0  0
    7.7279    2.7971    1.1745 H   0  0  0  0  0  0  0  0  0  0  0  0
    8.0769   -1.6656    0.7874 H   0  0  0  0  0  0  0  0  0  0  0  0
    5.6334   -5.0823   -0.1978 H   0  0  0  0  0  0  0  0  0  0  0  0
    6.8430   -5.7881    0.9046 H   0  0  0  0  0  0  0  0  0  0  0  0
    7.0501   -5.5684   -2.1579 H   0  0  0  0  0  0  0  0  0  0  0  0
    6.8116   -7.0538   -1.2276 H   0  0  0  0  0  0  0  0  0  0  0  0
    9.2209   -6.6293   -2.0227 H   0  0  0  0  0  0  0  0  0  0  0  0
    8.3778   -8.5333   -0.9280 H   0  0  0  0  0  0  0  0  0  0  0  0
    9.3297   -4.2410   -1.8801 H   0  0  0  0  0  0  0  0  0  0  0  0
   10.5272   -4.8653   -0.7213 H   0  0  0  0  0  0  0  0  0  0  0  0
    9.2020   -2.9431    0.1444 H   0  0  0  0  0  0  0  0  0  0  0  0
    9.0713   -4.3903    1.1722 H   0  0  0  0  0  0  0  0  0  0  0  0
    4.6281   -0.7934   -0.3737 H   0  0  0  0  0  0  0  0  0  0  0  0
  1  2  1  0
  1 24  1  0
  1 25  1  0
  1 26  1  0
  2  3  1  0
  3  4  2  0
  3  5  1  0
  5  6  2  0
  5 23  1  0
  6  7  1  0
  6 27  1  0
  7  8  2  0
  7 28  1  0
  8  9  1  0
  8 10  1  0
 10 11  1  0
 10 23  2  0
 11 12  1  0
 11 29  1  0
 12 13  2  0
 12 14  1  0
 14 15  1  0
 14 22  1  0
 15 16  1  0
 15 30  1  0
 15 31  1  0
 16 17  1  0
 16 32  1  0
 16 33  1  0
 17 18  1  0
 17 21  1  0
 17 34  1  6
 18 19  2  0
 18 20  1  0
 20 35  1  0
 21 22  1  0
 21 36  1  0
 21 37  1  0
 22 38  1  0
 22 39  1  0
 23 40  1  0
M  END

