
     RDKit          3D

 33 35  0  0  0  0  0  0  0  0999 V2000
    3.4069   -0.0035   -0.8938 C   0  0  0  0  0  0  0  0  0  0  0  0
    2.6361   -0.3684    0.2279 O   0  0  0  0  0  0  0  0  0  0  0  0
    2.8189    0.4351    1.3590 C   0  0  1  0  0  0  0  0  0  0  0  0
    2.1163    1.8047    1.3269 C   0  0  0  0  0  0  0  0  0  0  0  0
    1.9904    2.1608    2.8162 C   0  0  2  0  0  0  0  0  0  0  0  0
    3.2201    2.9670    3.2908 C   0  0  0  0  0  0  0  0  0  0  0  0
    3.4912    4.0412    2.8266 O   0  0  0  0  0  0  0  0  0  0  0  0
    3.9587    2.3726    4.2348 O   0  0  0  0  0  0  0  0  0  0  0  0
    1.8727    0.8503    3.4998 N   0  0  0  0  0  0  0  0  0  0  0  0
    0.9528    0.6348    4.5144 C   0  0  0  0  0  0  0  0  0  0  0  0
    0.1664   -0.9029    4.7228 S   0  0  0  0  0  0  0  0  0  0  0  0
   -0.7327   -0.4817    6.0479 N   0  0  0  0  0  0  0  0  0  0  0  0
   -0.4841    0.7941    6.3483 C   0  0  0  0  0  0  0  0  0  0  0  0
   -1.1064    1.4788    7.4417 C   0  0  0  0  0  0  0  0  0  0  0  0
   -0.7623    2.7799    7.7036 C   0  0  0  0  0  0  0  0  0  0  0  0
    0.2119    3.4663    6.9108 C   0  0  0  0  0  0  0  0  0  0  0  0
    0.8259    2.8503    5.8477 C   0  0  0  0  0  0  0  0  0  0  0  0
    0.4849    1.4977    5.5238 C   0  0  0  0  0  0  0  0  0  0  0  0
    2.1550   -0.2444    2.5601 C   0  0  0  0  0  0  0  0  0  0  0  0
    3.2080   -0.7425   -1.6826 H   0  0  0  0  0  0  0  0  0  0  0  0
    4.4908   -0.0111   -0.6652 H   0  0  0  0  0  0  0  0  0  0  0  0
    3.1424    0.9996   -1.2787 H   0  0  0  0  0  0  0  0  0  0  0  0
    3.9027    0.5780    1.5541 H   0  0  0  0  0  0  0  0  0  0  0  0
    1.1192    1.6709    0.8783 H   0  0  0  0  0  0  0  0  0  0  0  0
    2.6516    2.5871    0.7730 H   0  0  0  0  0  0  0  0  0  0  0  0
    1.1065    2.7865    3.0083 H   0  0  0  0  0  0  0  0  0  0  0  0
    3.5300    1.5159    4.4326 H   0  0  0  0  0  0  0  0  0  0  0  0
   -1.8390    0.9382    8.0437 H   0  0  0  0  0  0  0  0  0  0  0  0
   -1.2315    3.3077    8.5380 H   0  0  0  0  0  0  0  0  0  0  0  0
    0.4741    4.4965    7.1620 H   0  0  0  0  0  0  0  0  0  0  0  0
    1.5746    3.3986    5.2765 H   0  0  0  0  0  0  0  0  0  0  0  0
    1.2204   -0.7219    2.2076 H   0  0  0  0  0  0  0  0  0  0  0  0
    2.7812   -1.0222    3.0245 H   0  0  0  0  0  0  0  0  0  0  0  0
  1  2  1  0
  1 20  1  0
  1 21  1  0
  1 22  1  0
  2  3  1  0
  3  4  1  0
  3 19  1  0
  3 23  1  1
  4  5  1  0
  4 24  1  0
  4 25  1  0
  5  6  1  0
  5  9  1  0
  5 26  1  6
  6  7  2  0
  6  8  1  0
  8 27  1  0
  9 10  1  0
  9 19  1  0
 10 11  1  0
 10 18  2  0
 11 12  1  0
 12 13  2  0
 13 14  1  0
 13 18  1  0
 14 15  2  0
 14 28  1  0
 15 16  1  0
 15 29  1  0
 16 17  2  0
 16 30  1  0
 17 18  1  0
 17 31  1  0
 19 32  1  0
 19 33  1  0
M  END

