
     RDKit          3D

112116  0  0  0  0  0  0  0  0999 V2000
    3.1503    2.5830    2.4108 C   0  0  0  0  0  0  0  0  0  0  0  0
    3.4014    1.3484    1.5441 C   0  0  0  0  0  0  0  0  0  0  0  0
    4.0975    0.2094    2.2962 C   0  0  0  0  0  0  0  0  0  0  0  0
    4.3173   -1.0268    1.4124 C   0  0  0  0  0  0  0  0  0  0  0  0
    5.0344   -2.1432    2.0307 N   0  0  0  0  0  0  0  0  0  0  0  0
    4.2430   -3.2116    2.6431 C   0  0  0  0  0  0  0  0  0  0  0  0
    4.4481   -3.4377    4.1509 C   0  0  0  0  0  0  0  0  0  0  0  0
    4.0507   -2.2693    5.0561 C   0  0  0  0  0  0  0  0  0  0  0  0
    4.2167   -2.5849    6.5436 C   0  0  0  0  0  0  0  0  0  0  0  0
    6.3997   -2.2764    1.8678 C   0  0  0  0  0  0  0  0  0  0  0  0
    7.2032   -1.1916    1.4128 C   0  0  0  0  0  0  0  0  0  0  0  0
    8.5690   -1.3255    1.2350 C   0  0  0  0  0  0  0  0  0  0  0  0
    9.2376   -2.5495    1.4966 C   0  0  0  0  0  0  0  0  0  0  0  0
   10.6327   -2.6815    1.3219 C   0  0  0  0  0  0  0  0  0  0  0  0
   11.8469   -2.7974    1.1792 C   0  0  0  0  0  0  0  0  0  0  0  0
   13.2462   -2.9155    1.0397 C   0  0  0  0  0  0  0  0  0  0  0  0
   14.0453   -1.7706    0.9142 C   0  0  0  0  0  0  0  0  0  0  0  0
   15.4443   -1.8293    0.8032 C   0  0  0  0  0  0  0  0  0  0  0  0
   16.1931   -0.6537    0.6092 C   0  0  0  0  0  0  0  0  0  0  0  0
   16.8619    0.3545    0.4090 C   0  0  0  0  0  0  0  0  0  0  0  0
   17.6439    1.5026    0.1726 C   0  0  0  0  0  0  0  0  0  0  0  0
   17.1755    2.8001    0.4929 C   0  0  0  0  0  0  0  0  0  0  0  0
   15.9648    2.9459    1.0316 F   0  0  0  0  0  0  0  0  0  0  0  0
   17.9481    3.9353    0.2713 C   0  0  0  0  0  0  0  0  0  0  0  0
   17.4813    5.1424    0.5918 F   0  0  0  0  0  0  0  0  0  0  0  0
   19.2246    3.8129   -0.2904 C   0  0  0  0  0  0  0  0  0  0  0  0
   19.9672    4.8969   -0.5051 F   0  0  0  0  0  0  0  0  0  0  0  0
   19.7155    2.5455   -0.6268 C   0  0  0  0  0  0  0  0  0  0  0  0
   20.9246    2.4333   -1.1745 F   0  0  0  0  0  0  0  0  0  0  0  0
   18.9361    1.4145   -0.4032 C   0  0  0  0  0  0  0  0  0  0  0  0
   19.4178    0.2279   -0.7597 F   0  0  0  0  0  0  0  0  0  0  0  0
   16.1025   -3.1326    0.8728 C   0  0  0  0  0  0  0  0  0  0  0  0
   17.5027   -3.2390    0.8753 C   0  0  0  0  0  0  0  0  0  0  0  0
   18.7282   -3.3082    0.9106 C   0  0  0  0  0  0  0  0  0  0  0  0
   20.1328   -3.3672    0.9591 C   0  0  0  0  0  0  0  0  0  0  0  0
   20.9153   -2.2231    1.2630 C   0  0  0  0  0  0  0  0  0  0  0  0
   20.3117   -1.0689    1.5377 F   0  0  0  0  0  0  0  0  0  0  0  0
   22.3047   -2.2745    1.3012 C   0  0  0  0  0  0  0  0  0  0  0  0
   23.0112   -1.1826    1.5936 F   0  0  0  0  0  0  0  0  0  0  0  0
   22.9703   -3.4803    1.0471 C   0  0  0  0  0  0  0  0  0  0  0  0
   24.3012   -3.5335    1.0850 F   0  0  0  0  0  0  0  0  0  0  0  0
   22.2278   -4.6309    0.7535 C   0  0  0  0  0  0  0  0  0  0  0  0
   22.8612   -5.7797    0.5111 F   0  0  0  0  0  0  0  0  0  0  0  0
   20.8393   -4.5720    0.7147 C   0  0  0  0  0  0  0  0  0  0  0  0
   20.1589   -5.6838    0.4299 F   0  0  0  0  0  0  0  0  0  0  0  0
   15.2938   -4.2818    0.9590 C   0  0  0  0  0  0  0  0  0  0  0  0
   13.8980   -4.2194    1.0326 C   0  0  0  0  0  0  0  0  0  0  0  0
   13.1351   -5.4076    1.0861 C   0  0  0  0  0  0  0  0  0  0  0  0
   12.4740   -6.4421    1.1104 C   0  0  0  0  0  0  0  0  0  0  0  0
   11.7055   -7.6245    1.1288 C   0  0  0  0  0  0  0  0  0  0  0  0
   12.2985   -8.8941    1.3576 C   0  0  0  0  0  0  0  0  0  0  0  0
   11.5464  -10.0540    1.3767 C   0  0  0  0  0  0  0  0  0  0  0  0
   10.1358  -10.0328    1.1618 C   0  0  0  0  0  0  0  0  0  0  0  0
    9.3850  -11.1864    1.1779 N   0  0  0  0  0  0  0  0  0  0  0  0
    9.9856  -12.4796    1.5160 C   0  0  0  0  0  0  0  0  0  0  0  0
   10.2120  -12.7174    3.0186 C   0  0  0  0  0  0  0  0  0  0  0  0
    8.9388  -12.7362    3.8702 C   0  0  0  0  0  0  0  0  0  0  0  0
    9.2137  -13.0090    5.3501 C   0  0  0  0  0  0  0  0  0  0  0  0
    7.9552  -11.1650    0.8619 C   0  0  0  0  0  0  0  0  0  0  0  0
    7.6220  -11.0791   -0.6373 C   0  0  0  0  0  0  0  0  0  0  0  0
    8.0993  -12.2691   -1.4756 C   0  0  0  0  0  0  0  0  0  0  0  0
    7.7152  -12.1521   -2.9515 C   0  0  0  0  0  0  0  0  0  0  0  0
    9.5437   -8.7560    0.9273 C   0  0  0  0  0  0  0  0  0  0  0  0
   10.3018   -7.5994    0.9133 C   0  0  0  0  0  0  0  0  0  0  0  0
    8.4401   -3.6312    1.9506 C   0  0  0  0  0  0  0  0  0  0  0  0
    7.0727   -3.5030    2.1320 C   0  0  0  0  0  0  0  0  0  0  0  0
    2.6525    3.3812    1.8383 H   0  0  0  0  0  0  0  0  0  0  0  0
    4.0941    2.9950    2.8046 H   0  0  0  0  0  0  0  0  0  0  0  0
    2.5089    2.3434    3.2752 H   0  0  0  0  0  0  0  0  0  0  0  0
    4.0099    1.6323    0.6660 H   0  0  0  0  0  0  0  0  0  0  0  0
    2.4415    0.9822    1.1358 H   0  0  0  0  0  0  0  0  0  0  0  0
    3.4966   -0.0727    3.1769 H   0  0  0  0  0  0  0  0  0  0  0  0
    5.0680    0.5587    2.6895 H   0  0  0  0  0  0  0  0  0  0  0  0
    4.8496   -0.7326    0.4940 H   0  0  0  0  0  0  0  0  0  0  0  0
    3.3373   -1.4070    1.0786 H   0  0  0  0  0  0  0  0  0  0  0  0
    4.4285   -4.1626    2.1091 H   0  0  0  0  0  0  0  0  0  0  0  0
    3.1857   -2.9671    2.4634 H   0  0  0  0  0  0  0  0  0  0  0  0
    5.4985   -3.7069    4.3503 H   0  0  0  0  0  0  0  0  0  0  0  0
    3.8526   -4.3289    4.4213 H   0  0  0  0  0  0  0  0  0  0  0  0
    3.0009   -1.9879    4.8529 H   0  0  0  0  0  0  0  0  0  0  0  0
    4.6597   -1.3865    4.7999 H   0  0  0  0  0  0  0  0  0  0  0  0
    3.5925   -3.4424    6.8463 H   0  0  0  0  0  0  0  0  0  0  0  0
    3.9297   -1.7267    7.1714 H   0  0  0  0  0  0  0  0  0  0  0  0
    5.2628   -2.8369    6.7843 H   0  0  0  0  0  0  0  0  0  0  0  0
    6.7511   -0.2207    1.2155 H   0  0  0  0  0  0  0  0  0  0  0  0
    9.1520   -0.4688    0.8910 H   0  0  0  0  0  0  0  0  0  0  0  0
   13.5619   -0.7925    0.8921 H   0  0  0  0  0  0  0  0  0  0  0  0
   15.7789   -5.2591    0.9784 H   0  0  0  0  0  0  0  0  0  0  0  0
   13.3759   -8.9504    1.5239 H   0  0  0  0  0  0  0  0  0  0  0  0
   12.0612  -10.9952    1.5596 H   0  0  0  0  0  0  0  0  0  0  0  0
   10.9370  -12.5963    0.9733 H   0  0  0  0  0  0  0  0  0  0  0  0
    9.3196  -13.2600    1.1209 H   0  0  0  0  0  0  0  0  0  0  0  0
   10.9038  -11.9533    3.4124 H   0  0  0  0  0  0  0  0  0  0  0  0
   10.7369  -13.6845    3.1203 H   0  0  0  0  0  0  0  0  0  0  0  0
    8.2459  -13.5029    3.4767 H   0  0  0  0  0  0  0  0  0  0  0  0
    8.4158  -11.7692    3.7691 H   0  0  0  0  0  0  0  0  0  0  0  0
    9.7070  -13.9846    5.4936 H   0  0  0  0  0  0  0  0  0  0  0  0
    8.2822  -13.0174    5.9374 H   0  0  0  0  0  0  0  0  0  0  0  0
    9.8734  -12.2388    5.7828 H   0  0  0  0  0  0  0  0  0  0  0  0
    7.4729  -10.3324    1.3988 H   0  0  0  0  0  0  0  0  0  0  0  0
    7.5166  -12.0828    1.2788 H   0  0  0  0  0  0  0  0  0  0  0  0
    8.0400  -10.1473   -1.0550 H   0  0  0  0  0  0  0  0  0  0  0  0
    6.5241  -10.9859   -0.7224 H   0  0  0  0  0  0  0  0  0  0  0  0
    7.6801  -13.2034   -1.0583 H   0  0  0  0  0  0  0  0  0  0  0  0
    9.1963  -12.3604   -1.3912 H   0  0  0  0  0  0  0  0  0  0  0  0
    6.6214  -12.0937   -3.0788 H   0  0  0  0  0  0  0  0  0  0  0  0
    8.0718  -13.0188   -3.5297 H   0  0  0  0  0  0  0  0  0  0  0  0
    8.1497  -11.2469   -3.4069 H   0  0  0  0  0  0  0  0  0  0  0  0
    8.4735   -8.6701    0.7488 H   0  0  0  0  0  0  0  0  0  0  0  0
    9.8157   -6.6402    0.7236 H   0  0  0  0  0  0  0  0  0  0  0  0
    8.9227   -4.5870    2.1660 H   0  0  0  0  0  0  0  0  0  0  0  0
    6.5160   -4.3737    2.4740 H   0  0  0  0  0  0  0  0  0  0  0  0
  1  2  1  0
  1 67  1  0
  1 68  1  0
  1 69  1  0
  2  3  1  0
  2 70  1  0
  2 71  1  0
  3  4  1  0
  3 72  1  0
  3 73  1  0
  4  5  1  0
  4 74  1  0
  4 75  1  0
  5  6  1  0
  5 10  1  0
  6  7  1  0
  6 76  1  0
  6 77  1  0
  7  8  1  0
  7 78  1  0
  7 79  1  0
  8  9  1  0
  8 80  1  0
  8 81  1  0
  9 82  1  0
  9 83  1  0
  9 84  1  0
 10 11  2  0
 10 66  1  0
 11 12  1  0
 11 85  1  0
 12 13  2  0
 12 86  1  0
 13 14  1  0
 13 65  1  0
 14 15  3  0
 15 16  1  0
 16 17  2  0
 16 47  1  0
 17 18  1  0
 17 87  1  0
 18 19  1  0
 18 32  2  0
 19 20  3  0
 20 21  1  0
 21 22  2  0
 21 30  1  0
 22 23  1  0
 22 24  1  0
 24 25  1  0
 24 26  2  0
 26 27  1  0
 26 28  1  0
 28 29  1  0
 28 30  2  0
 30 31  1  0
 32 33  1  0
 32 46  1  0
 33 34  3  0
 34 35  1  0
 35 36  2  0
 35 44  1  0
 36 37  1  0
 36 38  1  0
 38 39  1  0
 38 40  2  0
 40 41  1  0
 40 42  1  0
 42 43  1  0
 42 44  2  0
 44 45  1  0
 46 47  2  0
 46 88  1  0
 47 48  1  0
 48 49  3  0
 49 50  1  0
 50 51  2  0
 50 64  1  0
 51 52  1  0
 51 89  1  0
 52 53  2  0
 52 90  1  0
 53 54  1  0
 53 63  1  0
 54 55  1  0
 54 59  1  0
 55 56  1  0
 55 91  1  0
 55 92  1  0
 56 57  1  0
 56 93  1  0
 56 94  1  0
 57 58  1  0
 57 95  1  0
 57 96  1  0
 58 97  1  0
 58 98  1  0
 58 99  1  0
 59 60  1  0
 59100  1  0
 59101  1  0
 60 61  1  0
 60102  1  0
 60103  1  0
 61 62  1  0
 61104  1  0
 61105  1  0
 62106  1  0
 62107  1  0
 62108  1  0
 63 64  2  0
 63109  1  0
 64110  1  0
 65 66  2  0
 65111  1  0
 66112  1  0
M  END

