
     RDKit          3D

 50 53  0  0  0  0  0  0  0  0999 V2000
    5.2350   -3.1574   -2.2241 C   0  0  0  0  0  0  0  0  0  0  0  0
    4.2226   -2.7572   -3.2979 C   0  0  1  0  0  0  0  0  0  0  0  0
    2.7780   -3.0891   -2.9220 C   0  0  0  0  0  0  0  0  0  0  0  0
    4.3492   -1.3138   -3.6024 N   0  0  0  0  0  0  0  0  0  0  0  0
    4.6915   -0.7608   -4.7734 C   0  0  0  0  0  0  0  0  0  0  0  0
    4.6734    0.6452   -4.5740 C   0  0  0  0  0  0  0  0  0  0  0  0
    4.9295    1.7466   -5.3817 C   0  0  0  0  0  0  0  0  0  0  0  0
    4.7983    3.0481   -4.7864 C   0  0  0  0  0  0  0  0  0  0  0  0
    5.0129    4.1944   -5.4668 N   0  0  0  0  0  0  0  0  0  0  0  0
    5.4308    4.3477   -6.8554 C   0  0  0  0  0  0  0  0  0  0  0  0
    5.6990    3.3502   -7.5008 O   0  0  0  0  0  0  0  0  0  0  0  0
    5.4852    5.6178   -7.2832 N   0  0  0  0  0  0  0  0  0  0  0  0
    5.9900    5.8672   -8.6601 C   0  0  0  0  0  0  0  0  0  0  0  0
    5.1031    6.8620   -9.4018 C   0  0  0  0  0  0  0  0  0  0  0  0
    4.9479    8.0548   -8.6154 N   0  0  0  0  0  0  0  0  0  0  0  0
    4.6839    9.3120   -9.2834 C   0  0  0  0  0  0  0  0  0  0  0  0
    4.9795    9.3234  -10.5701 N   0  0  0  0  0  0  0  0  0  0  0  0
    4.7645   10.5554  -11.2049 C   0  0  0  0  0  0  0  0  0  0  0  0
    4.2707   11.6423  -10.4898 C   0  0  0  0  0  0  0  0  0  0  0  0
    3.9900   11.4910   -9.1352 C   0  0  0  0  0  0  0  0  0  0  0  0
    4.2032   10.2602   -8.4967 N   0  0  0  0  0  0  0  0  0  0  0  0
    4.3250    7.8102   -7.3509 C   0  0  0  0  0  0  0  0  0  0  0  0
    5.1870    6.8541   -6.5255 C   0  0  0  0  0  0  0  0  0  0  0  0
    4.4134    3.1684   -3.3961 C   0  0  0  0  0  0  0  0  0  0  0  0
    4.1642    2.0781   -2.6099 C   0  0  0  0  0  0  0  0  0  0  0  0
    4.2916    0.7784   -3.1940 C   0  0  0  0  0  0  0  0  0  0  0  0
    4.1006   -0.4059   -2.6245 N   0  0  0  0  0  0  0  0  0  0  0  0
    5.1710   -4.2407   -2.0459 H   0  0  0  0  0  0  0  0  0  0  0  0
    5.0258   -2.6360   -1.2786 H   0  0  0  0  0  0  0  0  0  0  0  0
    6.2639   -2.9210   -2.5350 H   0  0  0  0  0  0  0  0  0  0  0  0
    4.4773   -3.2598   -4.2441 H   0  0  0  0  0  0  0  0  0  0  0  0
    2.4866   -2.5679   -1.9984 H   0  0  0  0  0  0  0  0  0  0  0  0
    2.6824   -4.1719   -2.7555 H   0  0  0  0  0  0  0  0  0  0  0  0
    2.0794   -2.8021   -3.7224 H   0  0  0  0  0  0  0  0  0  0  0  0
    4.9210   -1.3567   -5.6537 H   0  0  0  0  0  0  0  0  0  0  0  0
    5.2252    1.6815   -6.4256 H   0  0  0  0  0  0  0  0  0  0  0  0
    4.8807    5.0487   -4.9385 H   0  0  0  0  0  0  0  0  0  0  0  0
    6.0451    4.9018   -9.1740 H   0  0  0  0  0  0  0  0  0  0  0  0
    7.0087    6.2803   -8.5652 H   0  0  0  0  0  0  0  0  0  0  0  0
    4.1267    6.3733   -9.6326 H   0  0  0  0  0  0  0  0  0  0  0  0
    5.5587    7.1432  -10.3598 H   0  0  0  0  0  0  0  0  0  0  0  0
    5.0020   10.6093  -12.2686 H   0  0  0  0  0  0  0  0  0  0  0  0
    4.1021   12.6030  -10.9870 H   0  0  0  0  0  0  0  0  0  0  0  0
    3.5987   12.3035   -8.5209 H   0  0  0  0  0  0  0  0  0  0  0  0
    3.3046    7.3645   -7.4482 H   0  0  0  0  0  0  0  0  0  0  0  0
    4.2132    8.7735   -6.8353 H   0  0  0  0  0  0  0  0  0  0  0  0
    4.6564    6.6325   -5.5884 H   0  0  0  0  0  0  0  0  0  0  0  0
    6.1443    7.3430   -6.2760 H   0  0  0  0  0  0  0  0  0  0  0  0
    4.3218    4.1712   -2.9746 H   0  0  0  0  0  0  0  0  0  0  0  0
    3.8743    2.1837   -1.5639 H   0  0  0  0  0  0  0  0  0  0  0  0
  1  2  1  0
  1 28  1  0
  1 29  1  0
  1 30  1  0
  2  3  1  0
  2  4  1  0
  2 31  1  6
  3 32  1  0
  3 33  1  0
  3 34  1  0
  4  5  1  0
  4 27  1  0
  5  6  2  0
  5 35  1  0
  6  7  1  0
  6 26  1  0
  7  8  2  0
  7 36  1  0
  8  9  1  0
  8 24  1  0
  9 10  1  0
  9 37  1  0
 10 11  2  0
 10 12  1  0
 12 13  1  0
 12 23  1  0
 13 14  1  0
 13 38  1  0
 13 39  1  0
 14 15  1  0
 14 40  1  0
 14 41  1  0
 15 16  1  0
 15 22  1  0
 16 17  2  0
 16 21  1  0
 17 18  1  0
 18 19  2  0
 18 42  1  0
 19 20  1  0
 19 43  1  0
 20 21  2  0
 20 44  1  0
 22 23  1  0
 22 45  1  0
 22 46  1  0
 23 47  1  0
 23 48  1  0
 24 25  2  0
 24 49  1  0
 25 26  1  0
 25 50  1  0
 26 27  2  0
M  END

