
     RDKit          3D

 29 29  0  0  0  0  0  0  0  0999 V2000
    2.3426    1.6201    0.5023 C   0  0  0  0  0  0  0  0  0  0  0  0
    2.4000    0.4605   -0.3204 O   0  0  0  0  0  0  0  0  0  0  0  0
    3.0285    0.5251   -1.5065 C   0  0  0  0  0  0  0  0  0  0  0  0
    3.0395   -0.6661   -2.2658 C   0  0  0  0  0  0  0  0  0  0  0  0
    3.6904   -0.6665   -3.5410 C   0  0  0  0  0  0  0  0  0  0  0  0
    4.2745    0.5757   -3.9102 C   0  0  0  0  0  0  0  0  0  0  0  0
    4.9509    0.7877   -5.0983 N   0  0  0  0  0  0  0  0  0  0  0  0
    5.2054   -0.0756   -6.1471 C   0  0  0  0  0  0  0  0  0  0  0  0
    4.8604   -1.2369   -6.2196 O   0  0  0  0  0  0  0  0  0  0  0  0
    6.0069    0.5569   -7.2858 C   0  0  0  0  0  0  0  0  0  0  0  0
    6.2892    1.9107   -7.0189 O   0  0  0  0  0  0  0  0  0  0  0  0
    7.0629    2.5621   -7.9851 C   0  0  0  0  0  0  0  0  0  0  0  0
    7.2619    4.0043   -7.5503 C   0  0  1  0  0  0  0  0  0  0  0  0
    7.8820    4.0799   -6.3662 F   0  0  0  0  0  0  0  0  0  0  0  0
    8.0159    4.6420   -8.4594 F   0  0  0  0  0  0  0  0  0  0  0  0
    6.0957    4.6531   -7.4459 F   0  0  0  0  0  0  0  0  0  0  0  0
    4.1986    1.7139   -3.0531 C   0  0  0  0  0  0  0  0  0  0  0  0
    3.5768    1.7059   -1.8455 N   0  0  0  0  0  0  0  0  0  0  0  0
    1.7906    1.3204    1.4022 H   0  0  0  0  0  0  0  0  0  0  0  0
    1.8258    2.4422   -0.0151 H   0  0  0  0  0  0  0  0  0  0  0  0
    3.3538    1.9662    0.7632 H   0  0  0  0  0  0  0  0  0  0  0  0
    2.5521   -1.5534   -1.8625 H   0  0  0  0  0  0  0  0  0  0  0  0
    3.7421   -1.5374   -4.1843 H   0  0  0  0  0  0  0  0  0  0  0  0
    5.3303    1.7241   -5.2403 H   0  0  0  0  0  0  0  0  0  0  0  0
    5.4162    0.4373   -8.2148 H   0  0  0  0  0  0  0  0  0  0  0  0
    6.9340   -0.0372   -7.4070 H   0  0  0  0  0  0  0  0  0  0  0  0
    6.5703    2.5703   -8.9759 H   0  0  0  0  0  0  0  0  0  0  0  0
    8.0619    2.0994   -8.0982 H   0  0  0  0  0  0  0  0  0  0  0  0
    4.6604    2.6565   -3.3700 H   0  0  0  0  0  0  0  0  0  0  0  0
  1  2  1  0
  1 19  1  0
  1 20  1  0
  1 21  1  0
  2  3  1  0
  3  4  2  0
  3 18  1  0
  4  5  1  0
  4 22  1  0
  5  6  2  0
  5 23  1  0
  6  7  1  0
  6 17  1  0
  7  8  1  0
  7 24  1  0
  8  9  2  0
  8 10  1  0
 10 11  1  0
 10 25  1  0
 10 26  1  0
 11 12  1  0
 12 13  1  0
 12 27  1  0
 12 28  1  0
 13 14  1  1
 13 15  1  0
 13 16  1  0
 17 18  2  0
 17 29  1  0
M  END

