
     RDKit          3D

 54 57  0  0  0  0  0  0  0  0999 V2000
    2.7984    0.5798    6.1884 C   0  0  0  0  0  0  0  0  0  0  0  0
    3.9027   -0.0289    5.3367 C   0  0  0  0  0  0  0  0  0  0  0  0
    4.4145    0.8260    4.2889 N   0  0  0  0  0  0  0  0  0  0  0  0
    4.4690    2.2735    4.3309 C   0  0  0  0  0  0  0  0  0  0  0  0
    5.0871    2.6784    2.9849 C   0  0  0  0  0  0  0  0  0  0  0  0
    5.9091    1.4404    2.5849 C   0  0  0  0  0  0  0  0  0  0  0  0
    5.0553    0.2678    3.0870 C   0  0  2  0  0  0  0  0  0  0  0  0
    5.6308   -0.6081    3.4064 H   0  0  0  0  0  0  0  0  0  0  0  0
    3.9731   -0.2531    2.0853 C   0  0  0  0  0  0  0  0  0  0  0  0
    4.3434   -1.5060    1.5046 N   0  0  0  0  0  0  0  0  0  0  0  0
    4.1873   -2.6597    2.2480 C   0  0  0  0  0  0  0  0  0  0  0  0
    4.0912   -2.5361    3.5107 O   0  0  0  0  0  0  0  0  0  0  0  0
    4.1616   -3.9243    1.5704 C   0  0  0  0  0  0  0  0  0  0  0  0
    4.1140   -5.1499    2.3328 C   0  0  0  0  0  0  0  0  0  0  0  0
    4.0885   -5.1082    3.6789 O   0  0  0  0  0  0  0  0  0  0  0  0
    4.0915   -6.3987    1.6993 C   0  0  0  0  0  0  0  0  0  0  0  0
    4.0478   -7.6231    2.4435 C   0  0  0  0  0  0  0  0  0  0  0  0
    3.9973   -8.8205    1.7635 C   0  0  0  0  0  0  0  0  0  0  0  0
    3.9563   -9.9748    2.4691 F   0  0  0  0  0  0  0  0  0  0  0  0
    3.9754   -8.8965    0.3713 C   0  0  0  0  0  0  0  0  0  0  0  0
    4.0194   -7.6995   -0.3904 C   0  0  0  0  0  0  0  0  0  0  0  0
    4.0946   -6.4625    0.2582 C   0  0  0  0  0  0  0  0  0  0  0  0
    4.1627   -5.2490   -0.4684 N   0  0  0  0  0  0  0  0  0  0  0  0
    4.1988   -3.9911    0.1283 C   0  0  0  0  0  0  0  0  0  0  0  0
    4.2684   -2.9827   -0.6177 O   0  0  0  0  0  0  0  0  0  0  0  0
    4.2924   -5.2846   -1.9369 C   0  0  1  0  0  0  0  0  0  0  0  0
    3.8450   -4.3484   -2.2927 H   0  0  0  0  0  0  0  0  0  0  0  0
    5.7694   -5.2768   -2.3555 C   0  0  0  0  0  0  0  0  0  0  0  0
    3.5002   -6.4654   -2.5030 C   0  0  0  0  0  0  0  0  0  0  0  0
    3.9658   -7.7866   -1.8982 C   0  0  0  0  0  0  0  0  0  0  0  0
    2.4751   -0.1690    6.9240 H   0  0  0  0  0  0  0  0  0  0  0  0
    1.9206    0.8447    5.5796 H   0  0  0  0  0  0  0  0  0  0  0  0
    3.1263    1.4714    6.7444 H   0  0  0  0  0  0  0  0  0  0  0  0
    3.6253   -0.9791    4.8480 H   0  0  0  0  0  0  0  0  0  0  0  0
    4.7831   -0.2871    5.9614 H   0  0  0  0  0  0  0  0  0  0  0  0
    5.0971    2.5616    5.1956 H   0  0  0  0  0  0  0  0  0  0  0  0
    3.4662    2.6838    4.5278 H   0  0  0  0  0  0  0  0  0  0  0  0
    5.6861    3.5948    3.0664 H   0  0  0  0  0  0  0  0  0  0  0  0
    4.2881    2.8710    2.2526 H   0  0  0  0  0  0  0  0  0  0  0  0
    6.8851    1.4477    3.0964 H   0  0  0  0  0  0  0  0  0  0  0  0
    6.1001    1.3690    1.5071 H   0  0  0  0  0  0  0  0  0  0  0  0
    3.8503    0.4901    1.2820 H   0  0  0  0  0  0  0  0  0  0  0  0
    3.0002   -0.3140    2.6089 H   0  0  0  0  0  0  0  0  0  0  0  0
    4.2951   -1.6845    0.4848 H   0  0  0  0  0  0  0  0  0  0  0  0
    4.0735   -4.1489    3.9206 H   0  0  0  0  0  0  0  0  0  0  0  0
    4.0507   -7.5972    3.5312 H   0  0  0  0  0  0  0  0  0  0  0  0
    3.9148   -9.8689   -0.1185 H   0  0  0  0  0  0  0  0  0  0  0  0
    6.3176   -6.1397   -1.9465 H   0  0  0  0  0  0  0  0  0  0  0  0
    6.2519   -4.3574   -1.9935 H   0  0  0  0  0  0  0  0  0  0  0  0
    5.8586   -5.3011   -3.4544 H   0  0  0  0  0  0  0  0  0  0  0  0
    3.5995   -6.4722   -3.6008 H   0  0  0  0  0  0  0  0  0  0  0  0
    2.4312   -6.3128   -2.2761 H   0  0  0  0  0  0  0  0  0  0  0  0
    4.9582   -8.0604   -2.3035 H   0  0  0  0  0  0  0  0  0  0  0  0
    3.2886   -8.6046   -2.1956 H   0  0  0  0  0  0  0  0  0  0  0  0
  1  2  1  0
  1 31  1  0
  1 32  1  0
  1 33  1  0
  2  3  1  0
  2 34  1  0
  2 35  1  0
  3  4  1  0
  3  7  1  0
  4  5  1  0
  4 36  1  0
  4 37  1  0
  5  6  1  0
  5 38  1  0
  5 39  1  0
  6  7  1  0
  6 40  1  0
  6 41  1  0
  7  8  1  1
  7  9  1  0
  9 10  1  0
  9 42  1  0
  9 43  1  0
 10 11  1  0
 10 44  1  0
 11 12  2  0
 11 13  1  0
 13 14  2  0
 13 24  1  0
 14 15  1  0
 14 16  1  0
 15 45  1  0
 16 17  2  0
 16 22  1  0
 17 18  1  0
 17 46  1  0
 18 19  1  0
 18 20  2  0
 20 21  1  0
 20 47  1  0
 21 22  2  0
 21 30  1  0
 22 23  1  0
 23 24  1  0
 23 26  1  0
 24 25  2  0
 26 27  1  6
 26 28  1  0
 26 29  1  0
 28 48  1  0
 28 49  1  0
 28 50  1  0
 29 30  1  0
 29 51  1  0
 29 52  1  0
 30 53  1  0
 30 54  1  0
M  END

