
     RDKit          3D

 38 39  0  0  0  0  0  0  0  0999 V2000
    0.8145   -2.6239   -0.3137 C   0  0  0  0  0  0  0  0  0  0  0  0
    2.3240   -2.4754   -0.1058 C   0  0  0  0  0  0  0  0  0  0  0  0
    2.9402   -1.2235   -0.7696 C   0  0  1  0  0  0  0  0  0  0  0  0
    2.4824    0.0845   -0.1168 C   0  0  0  0  0  0  0  0  0  0  0  0
    4.4190   -1.2696   -0.8619 N   0  0  0  0  0  0  0  0  0  0  0  0
    5.1401   -1.4625    0.3942 C   0  0  0  0  0  0  0  0  0  0  0  0
    6.3825   -0.5562    0.4672 C   0  0  0  0  0  0  0  0  0  0  0  0
    7.2817   -0.7159    1.2469 O   0  0  0  0  0  0  0  0  0  0  0  0
    6.3206    0.4561   -0.4081 O   0  0  0  0  0  0  0  0  0  0  0  0
    4.9505   -2.1399   -1.9335 C   0  0  0  0  0  0  0  0  0  0  0  0
    4.5902   -1.7175   -3.3272 C   0  0  0  0  0  0  0  0  0  0  0  0
    3.7206   -2.3731   -4.1756 C   0  0  0  0  0  0  0  0  0  0  0  0
    3.6472   -1.7238   -5.3870 N   0  0  0  0  0  0  0  0  0  0  0  0
    3.0946   -1.9980   -6.1891 H   0  0  0  0  0  0  0  0  0  0  0  0
    4.4770   -0.6261   -5.3586 C   0  0  0  0  0  0  0  0  0  0  0  0
    4.6634    0.2227   -6.3627 N   0  0  0  0  0  0  0  0  0  0  0  0
    5.5306    1.2049   -6.1160 C   0  0  0  0  0  0  0  0  0  0  0  0
    6.2208    1.3586   -4.8954 C   0  0  0  0  0  0  0  0  0  0  0  0
    6.0100    0.4577   -3.8526 C   0  0  0  0  0  0  0  0  0  0  0  0
    5.0947   -0.5863   -4.0724 C   0  0  0  0  0  0  0  0  0  0  0  0
    0.4472   -3.5660    0.1229 H   0  0  0  0  0  0  0  0  0  0  0  0
    0.5558   -2.6326   -1.3861 H   0  0  0  0  0  0  0  0  0  0  0  0
    0.2472   -1.8050    0.1558 H   0  0  0  0  0  0  0  0  0  0  0  0
    2.8254   -3.3721   -0.5089 H   0  0  0  0  0  0  0  0  0  0  0  0
    2.5454   -2.4668    0.9763 H   0  0  0  0  0  0  0  0  0  0  0  0
    2.5951   -1.2008   -1.8161 H   0  0  0  0  0  0  0  0  0  0  0  0
    2.7883    0.1516    0.9406 H   0  0  0  0  0  0  0  0  0  0  0  0
    1.3862    0.1740   -0.1432 H   0  0  0  0  0  0  0  0  0  0  0  0
    2.9020    0.9516   -0.6491 H   0  0  0  0  0  0  0  0  0  0  0  0
    5.4616   -2.5030    0.5813 H   0  0  0  0  0  0  0  0  0  0  0  0
    4.5063   -1.1766    1.2473 H   0  0  0  0  0  0  0  0  0  0  0  0
    5.4817    0.2795   -0.9074 H   0  0  0  0  0  0  0  0  0  0  0  0
    4.6373   -3.1932   -1.7825 H   0  0  0  0  0  0  0  0  0  0  0  0
    6.0483   -2.1363   -1.8290 H   0  0  0  0  0  0  0  0  0  0  0  0
    3.1456   -3.2803   -3.9950 H   0  0  0  0  0  0  0  0  0  0  0  0
    5.7012    1.9197   -6.9291 H   0  0  0  0  0  0  0  0  0  0  0  0
    6.9212    2.1881   -4.7774 H   0  0  0  0  0  0  0  0  0  0  0  0
    6.5446    0.5663   -2.9059 H   0  0  0  0  0  0  0  0  0  0  0  0
  1  2  1  0
  1 21  1  0
  1 22  1  0
  1 23  1  0
  2  3  1  0
  2 24  1  0
  2 25  1  0
  3  4  1  0
  3  5  1  0
  3 26  1  6
  4 27  1  0
  4 28  1  0
  4 29  1  0
  5  6  1  0
  5 10  1  0
  6  7  1  0
  6 30  1  0
  6 31  1  0
  7  8  2  0
  7  9  1  0
  9 32  1  0
 10 11  1  0
 10 33  1  0
 10 34  1  0
 11 12  2  0
 11 20  1  0
 12 13  1  0
 12 35  1  0
 13 14  1  0
 13 15  1  0
 15 16  1  0
 15 20  2  0
 16 17  2  0
 17 18  1  0
 17 36  1  0
 18 19  2  0
 18 37  1  0
 19 20  1  0
 19 38  1  0
M  END

