
     RDKit          3D

 49 52  0  0  0  0  0  0  0  0999 V2000
    5.9408   13.4964    2.3437 C   0  0  0  0  0  0  0  0  0  0  0  0
    6.5399   12.2615    1.6381 C   0  0  0  0  0  0  0  0  0  0  0  0
    6.4151   11.0179    2.4668 C   0  0  0  0  0  0  0  0  0  0  0  0
    5.2373   10.2218    2.4070 C   0  0  0  0  0  0  0  0  0  0  0  0
    5.0764    9.0998    3.1859 C   0  0  0  0  0  0  0  0  0  0  0  0
    6.1260    8.7103    4.0912 C   0  0  0  0  0  0  0  0  0  0  0  0
    6.0754    7.6260    4.9010 N   0  0  0  0  0  0  0  0  0  0  0  0
    4.9871    6.7354    5.0482 C   0  0  0  0  0  0  0  0  0  0  0  0
    3.9380    6.8650    4.4616 O   0  0  0  0  0  0  0  0  0  0  0  0
    5.1794    5.6019    6.0455 C   0  0  0  0  0  0  0  0  0  0  0  0
    6.5278    5.2308    6.2163 O   0  0  0  0  0  0  0  0  0  0  0  0
    7.1191    5.5478    7.4132 C   0  0  0  0  0  0  0  0  0  0  0  0
    6.5159    6.0213    8.3352 O   0  0  0  0  0  0  0  0  0  0  0  0
    8.5942    5.1802    7.4039 C   0  0  0  0  0  0  0  0  0  0  0  0
    9.4063    6.2888    7.8327 N   0  0  0  0  0  0  0  0  0  0  0  0
   10.3399    6.1622    8.8670 C   0  0  0  0  0  0  0  0  0  0  0  0
   11.1743    7.0748    9.2300 N   0  0  0  0  0  0  0  0  0  0  0  0
   11.1277    8.2534    8.5359 C   0  0  0  0  0  0  0  0  0  0  0  0
   10.1879    8.4615    7.4747 C   0  0  0  0  0  0  0  0  0  0  0  0
   10.3298    9.7300    6.9443 O   0  0  0  0  0  0  0  0  0  0  0  0
   11.3506   10.3296    7.6537 C   0  0  0  0  0  0  0  0  0  0  0  0
   11.8223   11.6118    7.4451 C   0  0  0  0  0  0  0  0  0  0  0  0
   12.8777   12.0594    8.2722 C   0  0  0  0  0  0  0  0  0  0  0  0
   13.4124   11.2222    9.2623 C   0  0  0  0  0  0  0  0  0  0  0  0
   12.9292    9.9257    9.4678 C   0  0  0  0  0  0  0  0  0  0  0  0
   11.8758    9.4569    8.6512 C   0  0  0  0  0  0  0  0  0  0  0  0
    9.2836    7.5043    7.0698 C   0  0  0  0  0  0  0  0  0  0  0  0
    8.3964    7.5312    6.1511 O   0  0  0  0  0  0  0  0  0  0  0  0
    7.3235    9.5142    4.1554 C   0  0  0  0  0  0  0  0  0  0  0  0
    7.4455   10.6294    3.3636 C   0  0  0  0  0  0  0  0  0  0  0  0
    6.0505   14.3837    1.7031 H   0  0  0  0  0  0  0  0  0  0  0  0
    6.4506   13.6979    3.2979 H   0  0  0  0  0  0  0  0  0  0  0  0
    4.8693   13.3574    2.5546 H   0  0  0  0  0  0  0  0  0  0  0  0
    7.6024   12.4483    1.4176 H   0  0  0  0  0  0  0  0  0  0  0  0
    6.0263   12.1101    0.6748 H   0  0  0  0  0  0  0  0  0  0  0  0
    4.4403   10.5089    1.7174 H   0  0  0  0  0  0  0  0  0  0  0  0
    4.1739    8.4988    3.1323 H   0  0  0  0  0  0  0  0  0  0  0  0
    6.9561    7.4594    5.4767 H   0  0  0  0  0  0  0  0  0  0  0  0
    4.6061    4.7442    5.6667 H   0  0  0  0  0  0  0  0  0  0  0  0
    4.7441    5.9234    7.0078 H   0  0  0  0  0  0  0  0  0  0  0  0
    8.8653    4.8291    6.3956 H   0  0  0  0  0  0  0  0  0  0  0  0
    8.7320    4.3480    8.1113 H   0  0  0  0  0  0  0  0  0  0  0  0
   10.3216    5.1943    9.3810 H   0  0  0  0  0  0  0  0  0  0  0  0
   11.3908   12.2480    6.6705 H   0  0  0  0  0  0  0  0  0  0  0  0
   13.2769   13.0670    8.1363 H   0  0  0  0  0  0  0  0  0  0  0  0
   14.2280   11.5933    9.8893 H   0  0  0  0  0  0  0  0  0  0  0  0
   13.3505    9.2804   10.2408 H   0  0  0  0  0  0  0  0  0  0  0  0
    8.1045    9.2023    4.8508 H   0  0  0  0  0  0  0  0  0  0  0  0
    8.3554   11.2288    3.4245 H   0  0  0  0  0  0  0  0  0  0  0  0
  1  2  1  0
  1 31  1  0
  1 32  1  0
  1 33  1  0
  2  3  1  0
  2 34  1  0
  2 35  1  0
  3  4  2  0
  3 30  1  0
  4  5  1  0
  4 36  1  0
  5  6  2  0
  5 37  1  0
  6  7  1  0
  6 29  1  0
  7  8  1  0
  7 38  1  0
  8  9  2  0
  8 10  1  0
 10 11  1  0
 10 39  1  0
 10 40  1  0
 11 12  1  0
 12 13  2  0
 12 14  1  0
 14 15  1  0
 14 41  1  0
 14 42  1  0
 15 16  1  0
 15 27  1  0
 16 17  2  0
 16 43  1  0
 17 18  1  0
 18 19  2  0
 18 26  1  0
 19 20  1  0
 19 27  1  0
 20 21  1  0
 21 22  1  0
 21 26  2  0
 22 23  2  0
 22 44  1  0
 23 24  1  0
 23 45  1  0
 24 25  2  0
 24 46  1  0
 25 26  1  0
 25 47  1  0
 27 28  2  0
 29 30  2  0
 29 48  1  0
 30 49  1  0
M  END

