
     RDKit          3D

 48 48  0  0  0  0  0  0  0  0999 V2000
    2.4597    3.0122   -0.5746 C   0  0  0  0  0  0  0  0  0  0  0  0
    2.2517    2.3903    0.8142 C   0  0  1  0  0  0  0  0  0  0  0  0
    0.7605    2.1453    1.0888 C   0  0  0  0  0  0  0  0  0  0  0  0
    3.1050    1.1107    1.0582 C   0  0  1  0  0  0  0  0  0  0  0  0
    2.8385   -0.0073    0.0280 C   0  0  0  0  0  0  0  0  0  0  0  0
    3.1891   -1.4208    0.5043 C   0  0  0  0  0  0  0  0  0  0  0  0
    2.9673   -2.3845   -0.5641 N   0  0  0  0  0  0  0  0  0  0  0  0
    4.6234    1.3944    1.1226 C   0  0  0  0  0  0  0  0  0  0  0  0
    5.1159    2.3716    2.2039 C   0  0  0  0  0  0  0  0  0  0  0  0
    4.7613    1.9160    3.6240 C   0  0  0  0  0  0  0  0  0  0  0  0
    3.7637    2.5787    4.0591 O   0  0  0  0  0  0  0  0  0  0  0  0
    5.3472    0.9670    4.2979 N   0  0  0  0  0  0  0  0  0  0  0  0
    6.5138    0.2283    3.8070 C   0  0  0  0  0  0  0  0  0  0  0  0
    4.9302    0.6385    5.7152 C   0  0  0  0  0  0  0  0  0  0  0  0
    5.7263    1.3746    6.8084 C   0  0  0  0  0  0  0  0  0  0  0  0
    5.3605    0.8861    8.1720 C   0  0  0  0  0  0  0  0  0  0  0  0
    4.7345    1.6333    9.2148 C   0  0  0  0  0  0  0  0  0  0  0  0
    4.9657    1.1288   10.4953 C   0  0  0  0  0  0  0  0  0  0  0  0
    5.7725   -0.0203   10.5339 C   0  0  0  0  0  0  0  0  0  0  0  0
    6.3196   -0.4542    8.8956 S   0  0  0  0  0  0  0  0  0  0  0  0
    1.8925    3.9518   -0.6628 H   0  0  0  0  0  0  0  0  0  0  0  0
    2.1091    2.3422   -1.3757 H   0  0  0  0  0  0  0  0  0  0  0  0
    3.5157    3.2513   -0.7807 H   0  0  0  0  0  0  0  0  0  0  0  0
    2.5704    3.1407    1.5589 H   0  0  0  0  0  0  0  0  0  0  0  0
    0.3154    1.4442    0.3649 H   0  0  0  0  0  0  0  0  0  0  0  0
    0.1956    3.0877    1.0158 H   0  0  0  0  0  0  0  0  0  0  0  0
    0.5968    1.7369    2.0990 H   0  0  0  0  0  0  0  0  0  0  0  0
    2.7979    0.7158    2.0455 H   0  0  0  0  0  0  0  0  0  0  0  0
    3.3885    0.1861   -0.9080 H   0  0  0  0  0  0  0  0  0  0  0  0
    1.7701   -0.0016   -0.2434 H   0  0  0  0  0  0  0  0  0  0  0  0
    2.6235   -1.6298    1.4406 H   0  0  0  0  0  0  0  0  0  0  0  0
    4.2576   -1.4732    0.7796 H   0  0  0  0  0  0  0  0  0  0  0  0
    1.9747   -2.4357   -0.7980 H   0  0  0  0  0  0  0  0  0  0  0  0
    3.2388   -3.3222   -0.2700 H   0  0  0  0  0  0  0  0  0  0  0  0
    4.9576    1.8142    0.1594 H   0  0  0  0  0  0  0  0  0  0  0  0
    5.1624    0.4423    1.2354 H   0  0  0  0  0  0  0  0  0  0  0  0
    4.6974    3.3771    2.0615 H   0  0  0  0  0  0  0  0  0  0  0  0
    6.2096    2.4826    2.1903 H   0  0  0  0  0  0  0  0  0  0  0  0
    6.8327    0.5629    2.8150 H   0  0  0  0  0  0  0  0  0  0  0  0
    6.2593   -0.8391    3.7602 H   0  0  0  0  0  0  0  0  0  0  0  0
    7.3373    0.3655    4.5184 H   0  0  0  0  0  0  0  0  0  0  0  0
    5.0741   -0.4448    5.8140 H   0  0  0  0  0  0  0  0  0  0  0  0
    3.8526    0.8268    5.8096 H   0  0  0  0  0  0  0  0  0  0  0  0
    5.5511    2.4634    6.7215 H   0  0  0  0  0  0  0  0  0  0  0  0
    6.8108    1.2224    6.6040 H   0  0  0  0  0  0  0  0  0  0  0  0
    4.1144    2.5115    9.0170 H   0  0  0  0  0  0  0  0  0  0  0  0
    4.5512    1.5776   11.4018 H   0  0  0  0  0  0  0  0  0  0  0  0
    6.1844   -0.5344   11.3991 H   0  0  0  0  0  0  0  0  0  0  0  0
  1  2  1  0
  1 21  1  0
  1 22  1  0
  1 23  1  0
  2  3  1  0
  2  4  1  0
  2 24  1  1
  3 25  1  0
  3 26  1  0
  3 27  1  0
  4  5  1  0
  4  8  1  0
  4 28  1  1
  5  6  1  0
  5 29  1  0
  5 30  1  0
  6  7  1  0
  6 31  1  0
  6 32  1  0
  7 33  1  0
  7 34  1  0
  8  9  1  0
  8 35  1  0
  8 36  1  0
  9 10  1  0
  9 37  1  0
  9 38  1  0
 10 11  2  0
 10 12  1  0
 12 13  1  0
 12 14  1  0
 13 39  1  0
 13 40  1  0
 13 41  1  0
 14 15  1  0
 14 42  1  0
 14 43  1  0
 15 16  1  0
 15 44  1  0
 15 45  1  0
 16 17  2  0
 16 20  1  0
 17 18  1  0
 17 46  1  0
 18 19  2  0
 18 47  1  0
 19 20  1  0
 19 48  1  0
M  END

