
     RDKit          3D

 39 41  0  0  0  0  0  0  0  0999 V2000
    2.6750   -0.4611    1.5645 C   0  0  0  0  0  0  0  0  0  0  0  0
    3.0009    0.0292    0.2390 N   0  0  0  0  0  0  0  0  0  0  0  0
    3.4718    1.3903    0.1345 C   0  0  0  0  0  0  0  0  0  0  0  0
    3.2464   -0.8702   -0.7905 C   0  0  0  0  0  0  0  0  0  0  0  0
    3.8249   -0.4658   -2.0233 C   0  0  0  0  0  0  0  0  0  0  0  0
    4.0004   -1.4070   -3.0258 C   0  0  0  0  0  0  0  0  0  0  0  0
    3.6194   -2.7506   -2.8313 C   0  0  0  0  0  0  0  0  0  0  0  0
    3.8187   -3.6961   -3.8405 N   0  0  0  0  0  0  0  0  0  0  0  0
    3.2171   -5.0260   -3.8102 C   0  0  2  0  0  0  0  0  0  0  0  0
    4.0933   -6.0335   -3.0396 C   0  0  0  0  0  0  0  0  0  0  0  0
    5.2965   -6.4095   -3.8865 C   0  0  0  0  0  0  0  0  0  0  0  0
    4.9063   -7.0438   -5.1046 O   0  0  0  0  0  0  0  0  0  0  0  0
    3.8639   -6.5035   -5.7803 C   0  0  0  0  0  0  0  0  0  0  0  0
    3.6398   -6.9765   -7.0851 C   0  0  0  0  0  0  0  0  0  0  0  0
    2.5858   -6.4840   -7.8470 C   0  0  0  0  0  0  0  0  0  0  0  0
    1.7404   -5.5079   -7.3036 C   0  0  0  0  0  0  0  0  0  0  0  0
    0.2902   -4.8257   -8.3416 Br  0  0  0  0  0  0  0  0  0  0  0  0
    1.9469   -5.0400   -6.0083 C   0  0  0  0  0  0  0  0  0  0  0  0
    3.0049   -5.5322   -5.2274 C   0  0  0  0  0  0  0  0  0  0  0  0
    3.0785   -3.0489   -1.5678 C   0  0  0  0  0  0  0  0  0  0  0  0
    2.9070   -2.1492   -0.5987 N   0  0  0  0  0  0  0  0  0  0  0  0
    1.9935    0.2437    2.0682 H   0  0  0  0  0  0  0  0  0  0  0  0
    3.5733   -0.5865    2.2041 H   0  0  0  0  0  0  0  0  0  0  0  0
    2.1856   -1.4372    1.4766 H   0  0  0  0  0  0  0  0  0  0  0  0
    3.0788    1.9725    0.9801 H   0  0  0  0  0  0  0  0  0  0  0  0
    3.1118    1.8736   -0.7889 H   0  0  0  0  0  0  0  0  0  0  0  0
    4.5788    1.4778    0.1508 H   0  0  0  0  0  0  0  0  0  0  0  0
    4.1367    0.5628   -2.1990 H   0  0  0  0  0  0  0  0  0  0  0  0
    4.4471   -1.1034   -3.9779 H   0  0  0  0  0  0  0  0  0  0  0  0
    3.9246   -3.3040   -4.7685 H   0  0  0  0  0  0  0  0  0  0  0  0
    2.2257   -4.9703   -3.3206 H   0  0  0  0  0  0  0  0  0  0  0  0
    3.5052   -6.9366   -2.8032 H   0  0  0  0  0  0  0  0  0  0  0  0
    4.4330   -5.5973   -2.0885 H   0  0  0  0  0  0  0  0  0  0  0  0
    5.9567   -7.1252   -3.3775 H   0  0  0  0  0  0  0  0  0  0  0  0
    5.8800   -5.5001   -4.1221 H   0  0  0  0  0  0  0  0  0  0  0  0
    4.3158   -7.7356   -7.4835 H   0  0  0  0  0  0  0  0  0  0  0  0
    2.4194   -6.8535   -8.8602 H   0  0  0  0  0  0  0  0  0  0  0  0
    1.2751   -4.2898   -5.5844 H   0  0  0  0  0  0  0  0  0  0  0  0
    2.7741   -4.0710   -1.3191 H   0  0  0  0  0  0  0  0  0  0  0  0
  1  2  1  0
  1 22  1  0
  1 23  1  0
  1 24  1  0
  2  3  1  0
  2  4  1  0
  3 25  1  0
  3 26  1  0
  3 27  1  0
  4  5  2  0
  4 21  1  0
  5  6  1  0
  5 28  1  0
  6  7  2  0
  6 29  1  0
  7  8  1  0
  7 20  1  0
  8  9  1  0
  8 30  1  0
  9 10  1  0
  9 19  1  0
  9 31  1  1
 10 11  1  0
 10 32  1  0
 10 33  1  0
 11 12  1  0
 11 34  1  0
 11 35  1  0
 12 13  1  0
 13 14  2  0
 13 19  1  0
 14 15  1  0
 14 36  1  0
 15 16  2  0
 15 37  1  0
 16 17  1  0
 16 18  1  0
 18 19  2  0
 18 38  1  0
 20 21  2  0
 20 39  1  0
M  END

