
     RDKit          3D

 37 38  0  0  0  0  0  0  0  0999 V2000
    1.5545    1.8253   -3.6915 C   0  0  0  0  0  0  0  0  0  0  0  0
    2.6646    1.2602   -3.0303 O   0  0  0  0  0  0  0  0  0  0  0  0
    3.1582    1.8639   -1.9097 C   0  0  0  0  0  0  0  0  0  0  0  0
    2.6000    3.0131   -1.3342 C   0  0  0  0  0  0  0  0  0  0  0  0
    3.1711    3.5614   -0.1793 C   0  0  0  0  0  0  0  0  0  0  0  0
    4.2937    2.9732    0.4001 C   0  0  0  0  0  0  0  0  0  0  0  0
    4.8468    1.8281   -0.1857 C   0  0  0  0  0  0  0  0  0  0  0  0
    4.3023    1.2561   -1.3395 C   0  0  0  0  0  0  0  0  0  0  0  0
    4.8895    0.0122   -1.9621 C   0  0  0  0  0  0  0  0  0  0  0  0
    4.0946   -1.2615   -1.6142 C   0  0  0  0  0  0  0  0  0  0  0  0
    4.5711   -2.4413   -2.3365 N   0  0  0  0  0  0  0  0  0  0  0  0
    3.8835   -2.7484   -3.5841 C   0  0  0  0  0  0  0  0  0  0  0  0
    4.6835   -3.7120   -4.4755 C   0  0  2  0  0  0  0  0  0  0  0  0
    3.8913   -4.0967   -5.6491 C   0  0  0  0  0  0  0  0  0  0  0  0
    3.2582   -4.4059   -6.5690 N   0  0  0  0  0  0  0  0  0  0  0  0
    5.1390   -4.9244   -3.6445 C   0  0  0  0  0  0  0  0  0  0  0  0
    6.0457   -4.4345   -2.5182 C   0  0  0  0  0  0  0  0  0  0  0  0
    5.5526   -3.2081   -1.7526 C   0  0  0  0  0  0  0  0  0  0  0  0
    6.0518   -2.9073   -0.6800 O   0  0  0  0  0  0  0  0  0  0  0  0
    1.3514    1.1896   -4.5641 H   0  0  0  0  0  0  0  0  0  0  0  0
    1.7633    2.8529   -4.0389 H   0  0  0  0  0  0  0  0  0  0  0  0
    0.6570    1.8443   -3.0475 H   0  0  0  0  0  0  0  0  0  0  0  0
    1.7226    3.4876   -1.7740 H   0  0  0  0  0  0  0  0  0  0  0  0
    2.7270    4.4572    0.2626 H   0  0  0  0  0  0  0  0  0  0  0  0
    4.7414    3.4002    1.3003 H   0  0  0  0  0  0  0  0  0  0  0  0
    5.7310    1.3637    0.2603 H   0  0  0  0  0  0  0  0  0  0  0  0
    5.9248   -0.1247   -1.6159 H   0  0  0  0  0  0  0  0  0  0  0  0
    4.9136    0.1278   -3.0580 H   0  0  0  0  0  0  0  0  0  0  0  0
    3.0317   -1.1163   -1.8596 H   0  0  0  0  0  0  0  0  0  0  0  0
    4.1786   -1.4632   -0.5382 H   0  0  0  0  0  0  0  0  0  0  0  0
    3.7001   -1.8075   -4.1278 H   0  0  0  0  0  0  0  0  0  0  0  0
    2.8894   -3.1914   -3.3779 H   0  0  0  0  0  0  0  0  0  0  0  0
    5.5807   -3.1855   -4.8491 H   0  0  0  0  0  0  0  0  0  0  0  0
    5.6626   -5.6556   -4.2788 H   0  0  0  0  0  0  0  0  0  0  0  0
    4.2478   -5.4328   -3.2391 H   0  0  0  0  0  0  0  0  0  0  0  0
    7.0395   -4.1639   -2.9168 H   0  0  0  0  0  0  0  0  0  0  0  0
    6.2275   -5.2179   -1.7680 H   0  0  0  0  0  0  0  0  0  0  0  0
  1  2  1  0
  1 20  1  0
  1 21  1  0
  1 22  1  0
  2  3  1  0
  3  4  2  0
  3  8  1  0
  4  5  1  0
  4 23  1  0
  5  6  2  0
  5 24  1  0
  6  7  1  0
  6 25  1  0
  7  8  2  0
  7 26  1  0
  8  9  1  0
  9 10  1  0
  9 27  1  0
  9 28  1  0
 10 11  1  0
 10 29  1  0
 10 30  1  0
 11 12  1  0
 11 18  1  0
 12 13  1  0
 12 31  1  0
 12 32  1  0
 13 14  1  0
 13 16  1  0
 13 33  1  6
 14 15  3  0
 16 17  1  0
 16 34  1  0
 16 35  1  0
 17 18  1  0
 17 36  1  0
 17 37  1  0
 18 19  2  0
M  END

