
     RDKit          3D

 52 54  0  0  0  0  0  0  0  0999 V2000
   15.0785    2.4829   -9.4396 C   0  0  0  0  0  0  0  0  0  0  0  0
   14.5718    2.1463   -8.3931 C   0  0  0  0  0  0  0  0  0  0  0  0
   13.9698    1.7059   -7.1376 C   0  0  0  0  0  0  0  0  0  0  0  0
   13.1536    2.7515   -6.5952 O   0  0  0  0  0  0  0  0  0  0  0  0
   12.4075    2.4017   -5.5053 C   0  0  0  0  0  0  0  0  0  0  0  0
   12.7452    2.8457   -4.2183 C   0  0  0  0  0  0  0  0  0  0  0  0
   14.3140    3.9048   -3.9854 Br  0  0  0  0  0  0  0  0  0  0  0  0
   11.9554    2.5268   -3.1121 C   0  0  0  0  0  0  0  0  0  0  0  0
   10.8113    1.7330   -3.2650 C   0  0  0  0  0  0  0  0  0  0  0  0
    9.9546    1.3563   -2.0450 C   0  0  2  0  0  0  0  0  0  0  0  0
    9.0412    0.8902   -2.4410 H   0  0  0  0  0  0  0  0  0  0  0  0
    9.5806    2.5543   -1.1915 C   0  0  0  0  0  0  0  0  0  0  0  0
    8.5948    3.5243   -1.6453 C   0  0  0  0  0  0  0  0  0  0  0  0
    8.2741    4.5573   -1.0629 O   0  0  0  0  0  0  0  0  0  0  0  0
    8.0233    3.1719   -2.8167 O   0  0  0  0  0  0  0  0  0  0  0  0
    7.0510    4.0683   -3.3442 C   0  0  0  0  0  0  0  0  0  0  0  0
   10.1900    2.7737    0.0227 C   0  0  0  0  0  0  0  0  0  0  0  0
   10.0412    3.8551    0.8095 N   0  0  0  0  0  0  0  0  0  0  0  0
   11.0531    1.8697    0.5758 O   0  0  0  0  0  0  0  0  0  0  0  0
   11.1809    0.6265    0.0183 C   0  0  0  0  0  0  0  0  0  0  0  0
   10.6641    0.3206   -1.1933 C   0  0  0  0  0  0  0  0  0  0  0  0
   10.7904   -1.0610   -1.7190 C   0  0  0  0  0  0  0  0  0  0  0  0
   10.2268   -1.4012   -2.7438 O   0  0  0  0  0  0  0  0  0  0  0  0
   11.6801   -2.0218   -0.9390 C   0  0  0  0  0  0  0  0  0  0  0  0
   11.6367   -1.7719    0.5702 C   0  0  0  0  0  0  0  0  0  0  0  0
   11.9535   -0.3101    0.8985 C   0  0  0  0  0  0  0  0  0  0  0  0
   10.4693    1.2790   -4.5440 C   0  0  0  0  0  0  0  0  0  0  0  0
   11.2474    1.6110   -5.6551 C   0  0  0  0  0  0  0  0  0  0  0  0
   10.9101    1.1261   -6.8892 O   0  0  0  0  0  0  0  0  0  0  0  0
   10.3560    2.0692   -7.8179 C   0  0  0  0  0  0  0  0  0  0  0  0
   10.0885    1.3473   -9.1228 C   0  0  0  0  0  0  0  0  0  0  0  0
   15.5294    2.7876  -10.3653 H   0  0  0  0  0  0  0  0  0  0  0  0
   14.7645    1.4445   -6.4141 H   0  0  0  0  0  0  0  0  0  0  0  0
   13.3580    0.8041   -7.3149 H   0  0  0  0  0  0  0  0  0  0  0  0
   12.2413    2.9046   -2.1292 H   0  0  0  0  0  0  0  0  0  0  0  0
    6.7220    3.6347   -4.2970 H   0  0  0  0  0  0  0  0  0  0  0  0
    7.4838    5.0667   -3.5094 H   0  0  0  0  0  0  0  0  0  0  0  0
    6.1959    4.1723   -2.6586 H   0  0  0  0  0  0  0  0  0  0  0  0
    9.3480    4.5345    0.4882 H   0  0  0  0  0  0  0  0  0  0  0  0
   10.3680    3.8164    1.7655 H   0  0  0  0  0  0  0  0  0  0  0  0
   12.7110   -1.8789   -1.3159 H   0  0  0  0  0  0  0  0  0  0  0  0
   11.3833   -3.0468   -1.2042 H   0  0  0  0  0  0  0  0  0  0  0  0
   12.3413   -2.4367    1.0937 H   0  0  0  0  0  0  0  0  0  0  0  0
   10.6294   -2.0149    0.9500 H   0  0  0  0  0  0  0  0  0  0  0  0
   13.0330   -0.1054    0.7635 H   0  0  0  0  0  0  0  0  0  0  0  0
   11.7286   -0.0736    1.9508 H   0  0  0  0  0  0  0  0  0  0  0  0
    9.5949    0.6444   -4.6946 H   0  0  0  0  0  0  0  0  0  0  0  0
   11.0592    2.9064   -7.9642 H   0  0  0  0  0  0  0  0  0  0  0  0
    9.4201    2.4799   -7.3946 H   0  0  0  0  0  0  0  0  0  0  0  0
   11.0251    0.9657   -9.5579 H   0  0  0  0  0  0  0  0  0  0  0  0
    9.6262    2.0344   -9.8487 H   0  0  0  0  0  0  0  0  0  0  0  0
    9.4085    0.4957   -8.9652 H   0  0  0  0  0  0  0  0  0  0  0  0
  1  2  3  0
  1 32  1  0
  2  3  1  0
  3  4  1  0
  3 33  1  0
  3 34  1  0
  4  5  1  0
  5  6  2  0
  5 28  1  0
  6  7  1  0
  6  8  1  0
  8  9  2  0
  8 35  1  0
  9 10  1  0
  9 27  1  0
 10 11  1  6
 10 12  1  0
 10 21  1  0
 12 13  1  0
 12 17  2  0
 13 14  2  0
 13 15  1  0
 15 16  1  0
 16 36  1  0
 16 37  1  0
 16 38  1  0
 17 18  1  0
 17 19  1  0
 18 39  1  0
 18 40  1  0
 19 20  1  0
 20 21  2  0
 20 26  1  0
 21 22  1  0
 22 23  2  0
 22 24  1  0
 24 25  1  0
 24 41  1  0
 24 42  1  0
 25 26  1  0
 25 43  1  0
 25 44  1  0
 26 45  1  0
 26 46  1  0
 27 28  2  0
 27 47  1  0
 28 29  1  0
 29 30  1  0
 30 31  1  0
 30 48  1  0
 30 49  1  0
 31 50  1  0
 31 51  1  0
 31 52  1  0
M  END

