
     RDKit          3D

 39 40  0  0  0  0  0  0  0  0999 V2000
    3.0810   -1.8023    1.2350 O   0  0  0  0  0  0  0  0  0  0  0  0
    3.1644   -0.6123    1.1062 C   0  0  0  0  0  0  0  0  0  0  0  0
    2.1005    0.1947    1.0210 O   0  0  0  0  0  0  0  0  0  0  0  0
    4.5229    0.0823    1.0277 C   0  0  0  0  0  0  0  0  0  0  0  0
    4.3296    1.4801    0.8789 O   0  0  0  0  0  0  0  0  0  0  0  0
    5.3775    2.3365    0.7807 C   0  0  0  0  0  0  0  0  0  0  0  0
    6.7212    1.8936    0.8227 C   0  0  0  0  0  0  0  0  0  0  0  0
    7.7697    2.8579    0.7142 C   0  0  0  0  0  0  0  0  0  0  0  0
    7.4192    4.2284    0.5653 C   0  0  0  0  0  0  0  0  0  0  0  0
    8.3670    5.2323    0.4449 N   0  0  0  0  0  0  0  0  0  0  0  0
    9.7676    5.1906    0.4421 C   0  0  0  0  0  0  0  0  0  0  0  0
   10.3944    4.1631    0.6029 O   0  0  0  0  0  0  0  0  0  0  0  0
   10.4050    6.5652    0.2127 C   0  0  1  0  0  0  0  0  0  0  0  0
   11.8975    6.5845    0.5960 C   0  0  0  0  0  0  0  0  0  0  0  0
   12.8060    5.8784   -0.4222 C   0  0  0  0  0  0  0  0  0  0  0  0
   12.5738    6.3886   -1.8496 C   0  0  0  0  0  0  0  0  0  0  0  0
   11.0944    6.2909   -2.2427 C   0  0  0  0  0  0  0  0  0  0  0  0
   10.2046    7.0479   -1.2489 C   0  0  0  0  0  0  0  0  0  0  0  0
    6.0596    4.6658    0.5234 C   0  0  0  0  0  0  0  0  0  0  0  0
    5.0170    3.7028    0.6340 C   0  0  0  0  0  0  0  0  0  0  0  0
    2.4172    1.1107    0.9220 H   0  0  0  0  0  0  0  0  0  0  0  0
    5.0827   -0.3340    0.1727 H   0  0  0  0  0  0  0  0  0  0  0  0
    5.0885   -0.1444    1.9477 H   0  0  0  0  0  0  0  0  0  0  0  0
    6.9696    0.8408    0.9377 H   0  0  0  0  0  0  0  0  0  0  0  0
    8.8133    2.5637    0.7499 H   0  0  0  0  0  0  0  0  0  0  0  0
    7.9701    6.1617    0.3391 H   0  0  0  0  0  0  0  0  0  0  0  0
    9.8679    7.2690    0.8756 H   0  0  0  0  0  0  0  0  0  0  0  0
   12.0294    6.1388    1.5944 H   0  0  0  0  0  0  0  0  0  0  0  0
   12.2003    7.6435    0.6793 H   0  0  0  0  0  0  0  0  0  0  0  0
   12.6124    4.7953   -0.3824 H   0  0  0  0  0  0  0  0  0  0  0  0
   13.8598    6.0246   -0.1316 H   0  0  0  0  0  0  0  0  0  0  0  0
   13.1955    5.8222   -2.5626 H   0  0  0  0  0  0  0  0  0  0  0  0
   12.8973    7.4440   -1.9256 H   0  0  0  0  0  0  0  0  0  0  0  0
   10.7926    5.2286   -2.2797 H   0  0  0  0  0  0  0  0  0  0  0  0
   10.9355    6.6928   -3.2572 H   0  0  0  0  0  0  0  0  0  0  0  0
    9.1442    6.9703   -1.5451 H   0  0  0  0  0  0  0  0  0  0  0  0
   10.4545    8.1230   -1.2830 H   0  0  0  0  0  0  0  0  0  0  0  0
    5.8285    5.7262    0.4031 H   0  0  0  0  0  0  0  0  0  0  0  0
    3.9645    3.9812    0.6076 H   0  0  0  0  0  0  0  0  0  0  0  0
  1  2  2  0
  2  3  1  0
  2  4  1  0
  3 21  1  0
  4  5  1  0
  4 22  1  0
  4 23  1  0
  5  6  1  0
  6  7  2  0
  6 20  1  0
  7  8  1  0
  7 24  1  0
  8  9  2  0
  8 25  1  0
  9 10  1  0
  9 19  1  0
 10 11  1  0
 10 26  1  0
 11 12  2  0
 11 13  1  0
 13 14  1  0
 13 18  1  0
 13 27  1  1
 14 15  1  0
 14 28  1  0
 14 29  1  0
 15 16  1  0
 15 30  1  0
 15 31  1  0
 16 17  1  0
 16 32  1  0
 16 33  1  0
 17 18  1  0
 17 34  1  0
 17 35  1  0
 18 36  1  0
 18 37  1  0
 19 20  2  0
 19 38  1  0
 20 39  1  0
M  END

