
     RDKit          3D

 51 53  0  0  0  0  0  0  0  0999 V2000
    1.3015   -0.1600    1.5920 C   0  0  0  0  0  0  0  0  0  0  0  0
    2.6653   -0.1729    0.9449 C   0  0  0  0  0  0  0  0  0  0  0  0
    3.0843    0.8538    0.0871 C   0  0  0  0  0  0  0  0  0  0  0  0
    4.3450    0.8174   -0.5084 C   0  0  0  0  0  0  0  0  0  0  0  0
    5.2499   -0.2324   -0.2751 C   0  0  0  0  0  0  0  0  0  0  0  0
    4.8267   -1.2784    0.5740 C   0  0  0  0  0  0  0  0  0  0  0  0
    3.5585   -1.2275    1.1680 C   0  0  0  0  0  0  0  0  0  0  0  0
    5.7406   -2.4562    0.8737 C   0  0  0  0  0  0  0  0  0  0  0  0
    6.8466   -2.6174   -0.0522 N   0  0  0  0  0  0  0  0  0  0  0  0
    7.5124   -1.3539   -0.3068 C   0  0  0  0  0  0  0  0  0  0  0  0
    6.6255   -0.2593   -0.9699 C   0  0  1  0  0  0  0  0  0  0  0  0
    6.4201   -0.5650   -2.4830 C   0  0  0  0  0  0  0  0  0  0  0  0
    7.6870   -0.4019   -3.3307 C   0  0  0  0  0  0  0  0  0  0  0  0
    8.3058    0.8988   -3.1100 N   0  0  0  0  0  0  0  0  0  0  0  0
    8.6465    1.6711   -4.1915 C   0  0  0  0  0  0  0  0  0  0  0  0
    8.4182    1.3573   -5.3459 O   0  0  0  0  0  0  0  0  0  0  0  0
    9.2576    2.8155   -3.8091 O   0  0  0  0  0  0  0  0  0  0  0  0
    9.7090    3.8113   -4.7835 C   0  0  1  0  0  0  0  0  0  0  0  0
    8.5133    4.3637   -5.5669 C   0  0  0  0  0  0  0  0  0  0  0  0
   10.3231    4.8987   -3.8987 C   0  0  0  0  0  0  0  0  0  0  0  0
   10.7710    3.2024   -5.7055 C   0  0  0  0  0  0  0  0  0  0  0  0
    8.6036    1.2215   -1.7193 C   0  0  0  0  0  0  0  0  0  0  0  0
    7.3407    1.1129   -0.8549 C   0  0  0  0  0  0  0  0  0  0  0  0
    0.7662    0.7795    1.3896 H   0  0  0  0  0  0  0  0  0  0  0  0
    1.3737   -0.2784    2.6858 H   0  0  0  0  0  0  0  0  0  0  0  0
    0.6737   -0.9882    1.2208 H   0  0  0  0  0  0  0  0  0  0  0  0
    2.4148    1.6935   -0.1208 H   0  0  0  0  0  0  0  0  0  0  0  0
    4.6238    1.6360   -1.1757 H   0  0  0  0  0  0  0  0  0  0  0  0
    3.2565   -2.0499    1.8266 H   0  0  0  0  0  0  0  0  0  0  0  0
    5.1540   -3.3889    0.9046 H   0  0  0  0  0  0  0  0  0  0  0  0
    6.1571   -2.3319    1.8931 H   0  0  0  0  0  0  0  0  0  0  0  0
    6.5238   -3.0356   -0.9237 H   0  0  0  0  0  0  0  0  0  0  0  0
    8.4093   -1.5440   -0.9150 H   0  0  0  0  0  0  0  0  0  0  0  0
    7.8768   -0.9696    0.6634 H   0  0  0  0  0  0  0  0  0  0  0  0
    5.6443    0.1108   -2.8778 H   0  0  0  0  0  0  0  0  0  0  0  0
    6.0258   -1.5883   -2.6071 H   0  0  0  0  0  0  0  0  0  0  0  0
    8.4183   -1.1996   -3.0957 H   0  0  0  0  0  0  0  0  0  0  0  0
    7.4529   -0.4844   -4.3989 H   0  0  0  0  0  0  0  0  0  0  0  0
    7.7523    4.7592   -4.8756 H   0  0  0  0  0  0  0  0  0  0  0  0
    8.0561    3.5836   -6.1883 H   0  0  0  0  0  0  0  0  0  0  0  0
    8.8440    5.1887   -6.2175 H   0  0  0  0  0  0  0  0  0  0  0  0
    9.5711    5.3063   -3.2059 H   0  0  0  0  0  0  0  0  0  0  0  0
   10.7084    5.7227   -4.5182 H   0  0  0  0  0  0  0  0  0  0  0  0
   11.1555    4.4910   -3.3050 H   0  0  0  0  0  0  0  0  0  0  0  0
   10.3410    2.4079   -6.3277 H   0  0  0  0  0  0  0  0  0  0  0  0
   11.5969    2.7815   -5.1107 H   0  0  0  0  0  0  0  0  0  0  0  0
   11.1867    3.9839   -6.3609 H   0  0  0  0  0  0  0  0  0  0  0  0
    9.0076    2.2378   -1.6720 H   0  0  0  0  0  0  0  0  0  0  0  0
    9.3935    0.5418   -1.3455 H   0  0  0  0  0  0  0  0  0  0  0  0
    6.6582    1.9173   -1.1684 H   0  0  0  0  0  0  0  0  0  0  0  0
    7.5984    1.3103    0.1994 H   0  0  0  0  0  0  0  0  0  0  0  0
  1  2  1  0
  1 24  1  0
  1 25  1  0
  1 26  1  0
  2  3  2  0
  2  7  1  0
  3  4  1  0
  3 27  1  0
  4  5  2  0
  4 28  1  0
  5  6  1  0
  5 11  1  0
  6  7  2  0
  6  8  1  0
  7 29  1  0
  8  9  1  0
  8 30  1  0
  8 31  1  0
  9 10  1  0
  9 32  1  0
 11 10  1  1
 10 33  1  0
 10 34  1  0
 11 12  1  0
 11 23  1  0
 12 13  1  0
 12 35  1  0
 12 36  1  0
 13 14  1  0
 13 37  1  0
 13 38  1  0
 14 15  1  0
 14 22  1  0
 15 16  2  0
 15 17  1  0
 18 17  1  1
 18 19  1  0
 18 20  1  0
 18 21  1  0
 19 39  1  0
 19 40  1  0
 19 41  1  0
 20 42  1  0
 20 43  1  0
 20 44  1  0
 21 45  1  0
 21 46  1  0
 21 47  1  0
 22 23  1  0
 22 48  1  0
 22 49  1  0
 23 50  1  0
 23 51  1  0
M  END

