
     RDKit          3D

164186  0  0  0  0  0  0  0  0999 V2000
    9.1315   -8.4545   11.2547 F   0  0  0  0  0  0  0  0  0  0  0  0
    8.4553   -8.3611   10.1127 C   0  0  1  0  0  0  0  0  0  0  0  0
    9.3249   -8.4809    9.1016 F   0  0  0  0  0  0  0  0  0  0  0  0
    7.5804   -9.3625   10.0377 F   0  0  0  0  0  0  0  0  0  0  0  0
    7.7341   -6.9876   10.0005 C   0  0  1  0  0  0  0  0  0  0  0  0
    8.6613   -6.0335   10.2624 F   0  0  0  0  0  0  0  0  0  0  0  0
    7.3247   -6.8440    8.7292 F   0  0  0  0  0  0  0  0  0  0  0  0
    6.5177   -6.7940   10.9636 C   0  0  1  0  0  0  0  0  0  0  0  0
    5.4901   -7.5254   10.4774 F   0  0  0  0  0  0  0  0  0  0  0  0
    6.8651   -7.2994   12.1657 F   0  0  0  0  0  0  0  0  0  0  0  0
    6.1108   -5.3281   11.0985 C   0  0  0  0  0  0  0  0  0  0  0  0
    6.5335   -4.6886   12.1366 N   0  0  0  0  0  0  0  0  0  0  0  0
    6.2026   -3.3638   12.2953 C   0  0  0  0  0  0  0  0  0  0  0  0
    6.6445   -2.6145   13.3908 C   0  0  0  0  0  0  0  0  0  0  0  0
    7.5575   -3.0080   14.4735 C   0  0  0  0  0  0  0  0  0  0  0  0
    7.1969   -2.5601   15.7645 C   0  0  0  0  0  0  0  0  0  0  0  0
    7.9108   -2.9147   16.8975 C   0  0  0  0  0  0  0  0  0  0  0  0
    9.0641   -3.7155   16.7986 C   0  0  0  0  0  0  0  0  0  0  0  0
    9.8167   -4.1073   17.9574 C   0  0  0  0  0  0  0  0  0  0  0  0
   10.9466   -4.8642   17.8470 C   0  0  0  0  0  0  0  0  0  0  0  0
   11.4313   -5.2895   16.5627 C   0  0  0  0  0  0  0  0  0  0  0  0
   12.5991   -6.0630   16.4256 C   0  0  0  0  0  0  0  0  0  0  0  0
   13.0528   -6.4565   15.1659 C   0  0  0  0  0  0  0  0  0  0  0  0
   12.3535   -6.0849   14.0171 C   0  0  0  0  0  0  0  0  0  0  0  0
   11.1800   -5.3135   14.1064 C   0  0  0  0  0  0  0  0  0  0  0  0
   10.4455   -4.8926   12.9481 C   0  0  0  0  0  0  0  0  0  0  0  0
    9.3007   -4.1576   13.0527 C   0  0  0  0  0  0  0  0  0  0  0  0
    8.7579   -3.7704   14.3276 C   0  0  0  0  0  0  0  0  0  0  0  0
    9.5033   -4.1316   15.5019 C   0  0  0  0  0  0  0  0  0  0  0  0
   10.7013   -4.9099   15.3906 C   0  0  0  0  0  0  0  0  0  0  0  0
    5.7813   -1.3779   13.4001 C   0  0  0  0  0  0  0  0  0  0  0  0
    6.0444   -0.7098   12.2222 C   0  0  0  0  0  0  0  0  0  0  0  0
    7.2568    0.1176   11.9192 C   0  0  1  0  0  0  0  0  0  0  0  0
    8.3280    0.1761   13.0150 C   0  0  0  0  0  0  0  0  0  0  0  0
    9.4031    1.2781   12.7654 C   0  0  2  0  0  0  0  0  0  0  0  0
    8.9366    2.6738   13.1882 C   0  0  0  0  0  0  0  0  0  0  0  0
    8.6430    3.6882   12.2641 C   0  0  0  0  0  0  0  0  0  0  0  0
    8.1760    4.9418   12.6552 C   0  0  0  0  0  0  0  0  0  0  0  0
    7.9822    5.2512   14.0082 C   0  0  0  0  0  0  0  0  0  0  0  0
    7.4850    6.5311   14.4384 C   0  0  0  0  0  0  0  0  0  0  0  0
    7.3177    6.8181   15.7601 C   0  0  0  0  0  0  0  0  0  0  0  0
    7.6397    5.8510   16.7758 C   0  0  0  0  0  0  0  0  0  0  0  0
    7.4810    6.1277   18.1457 C   0  0  0  0  0  0  0  0  0  0  0  0
    7.8070    5.1748   19.1129 C   0  0  0  0  0  0  0  0  0  0  0  0
    8.2988    3.9259   18.7344 C   0  0  0  0  0  0  0  0  0  0  0  0
    8.4717    3.6038   17.3751 C   0  0  0  0  0  0  0  0  0  0  0  0
    8.9826    2.3339   16.9445 C   0  0  0  0  0  0  0  0  0  0  0  0
    9.1340    2.0344   15.6217 C   0  0  0  0  0  0  0  0  0  0  0  0
    8.7939    2.9720   14.5775 C   0  0  0  0  0  0  0  0  0  0  0  0
    8.3056    4.2587   14.9866 C   0  0  0  0  0  0  0  0  0  0  0  0
    8.1389    4.5694   16.3754 C   0  0  0  0  0  0  0  0  0  0  0  0
    9.9541    1.0647   11.3357 C   0  0  2  0  0  0  0  0  0  0  0  0
   10.9282    2.0644   10.9070 N   0  0  0  0  0  0  0  0  0  0  0  0
   11.7326    1.6741    9.7633 C   0  0  1  0  0  0  0  0  0  0  0  0
   13.0968    1.0939   10.2342 C   0  0  1  0  0  0  0  0  0  0  0  0
   13.7150    2.0639   10.9673 F   0  0  0  0  0  0  0  0  0  0  0  0
   12.9070    0.0316   11.0511 F   0  0  0  0  0  0  0  0  0  0  0  0
   14.1220    0.6278    9.1610 C   0  0  1  0  0  0  0  0  0  0  0  0
   15.2591    0.2727    9.7885 F   0  0  0  0  0  0  0  0  0  0  0  0
   13.6294   -0.4552    8.5196 F   0  0  0  0  0  0  0  0  0  0  0  0
   14.5025    1.6644    8.0700 C   0  0  1  0  0  0  0  0  0  0  0  0
   13.4390    1.9161    7.2869 F   0  0  0  0  0  0  0  0  0  0  0  0
   14.9071    2.8110    8.6111 F   0  0  0  0  0  0  0  0  0  0  0  0
   15.4757    1.1766    7.3088 F   0  0  0  0  0  0  0  0  0  0  0  0
   11.0132    0.6852    8.9928 N   0  0  0  0  0  0  0  0  0  0  0  0
    9.5792    0.9023    8.8346 C   0  0  1  0  0  0  0  0  0  0  0  0
    8.9397   -0.1220    7.8470 C   0  0  1  0  0  0  0  0  0  0  0  0
    9.4754   -1.5554    7.7967 C   0  0  0  0  0  0  0  0  0  0  0  0
   10.1026   -2.1689    8.8916 C   0  0  0  0  0  0  0  0  0  0  0  0
   10.5253   -3.4954    8.8609 C   0  0  0  0  0  0  0  0  0  0  0  0
   10.3539   -4.2832    7.7144 C   0  0  0  0  0  0  0  0  0  0  0  0
   10.7625   -5.6613    7.6654 C   0  0  0  0  0  0  0  0  0  0  0  0
   10.6103   -6.4048    6.5342 C   0  0  0  0  0  0  0  0  0  0  0  0
   10.0407   -5.8335    5.3432 C   0  0  0  0  0  0  0  0  0  0  0  0
    9.8888   -6.5773    4.1584 C   0  0  0  0  0  0  0  0  0  0  0  0
    9.3313   -6.0010    3.0150 C   0  0  0  0  0  0  0  0  0  0  0  0
    8.9078   -4.6718    3.0301 C   0  0  0  0  0  0  0  0  0  0  0  0
    9.0378   -3.8908    4.1933 C   0  0  0  0  0  0  0  0  0  0  0  0
    8.6102   -2.5225    4.2519 C   0  0  0  0  0  0  0  0  0  0  0  0
    8.7383   -1.7809    5.3903 C   0  0  0  0  0  0  0  0  0  0  0  0
    9.3195   -2.3168    6.5991 C   0  0  0  0  0  0  0  0  0  0  0  0
    9.7598   -3.6841    6.5600 C   0  0  0  0  0  0  0  0  0  0  0  0
    9.6134   -4.4660    5.3682 C   0  0  0  0  0  0  0  0  0  0  0  0
    7.3959   -0.0688    8.0303 C   0  0  0  0  0  0  0  0  0  0  0  0
    6.9010   -0.3885    9.4271 C   0  0  0  0  0  0  0  0  0  0  0  0
    7.8896   -0.1434   10.5418 C   0  0  1  0  0  0  0  0  0  0  0  0
    8.8841    0.9793   10.2327 C   0  0  1  0  0  0  0  0  0  0  0  0
    5.6970   -0.9470    9.6884 C   0  0  0  0  0  0  0  0  0  0  0  0
    4.8593   -1.6140    8.6721 C   0  0  0  0  0  0  0  0  0  0  0  0
    4.5003   -2.9148    8.8512 C   0  0  0  0  0  0  0  0  0  0  0  0
    3.6134   -3.6383    7.8878 C   0  0  0  0  0  0  0  0  0  0  0  0
    2.2378   -3.3619    7.9507 C   0  0  0  0  0  0  0  0  0  0  0  0
    1.3271   -3.9767    7.0950 C   0  0  0  0  0  0  0  0  0  0  0  0
    1.7636   -4.8952    6.1265 C   0  0  0  0  0  0  0  0  0  0  0  0
    0.8521   -5.5469    5.2235 C   0  0  0  0  0  0  0  0  0  0  0  0
    1.2962   -6.4261    4.2807 C   0  0  0  0  0  0  0  0  0  0  0  0
    2.6953   -6.7356    4.1500 C   0  0  0  0  0  0  0  0  0  0  0  0
    3.1761   -7.6349    3.1809 C   0  0  0  0  0  0  0  0  0  0  0  0
    4.5407   -7.9115    3.0777 C   0  0  0  0  0  0  0  0  0  0  0  0
    5.4545   -7.2995    3.9367 C   0  0  0  0  0  0  0  0  0  0  0  0
    5.0198   -6.3948    4.9233 C   0  0  0  0  0  0  0  0  0  0  0  0
    5.9315   -5.7447    5.8243 C   0  0  0  0  0  0  0  0  0  0  0  0
    5.4922   -4.8699    6.7738 C   0  0  0  0  0  0  0  0  0  0  0  0
    4.0952   -4.5568    6.9208 C   0  0  0  0  0  0  0  0  0  0  0  0
    3.1616   -5.1856    6.0322 C   0  0  0  0  0  0  0  0  0  0  0  0
    3.6247   -6.1045    5.0375 C   0  0  0  0  0  0  0  0  0  0  0  0
    5.0456   -3.5943   10.0506 C   0  0  0  0  0  0  0  0  0  0  0  0
    5.4396   -4.8239    9.9962 N   0  0  0  0  0  0  0  0  0  0  0  0
    5.1221   -2.7926   11.3372 C   0  0  2  0  0  0  0  0  0  0  0  0
    5.1855   -1.2113   11.0904 C   0  0  1  0  0  0  0  0  0  0  0  0
    6.3113   -1.9279   15.8580 H   0  0  0  0  0  0  0  0  0  0  0  0
    7.5795   -2.5732   17.8817 H   0  0  0  0  0  0  0  0  0  0  0  0
    9.4606   -3.7838   18.9392 H   0  0  0  0  0  0  0  0  0  0  0  0
   11.5066   -5.1575   18.7391 H   0  0  0  0  0  0  0  0  0  0  0  0
   13.1507   -6.3540   17.3235 H   0  0  0  0  0  0  0  0  0  0  0  0
   13.9616   -7.0574   15.0788 H   0  0  0  0  0  0  0  0  0  0  0  0
   12.7135   -6.3910   13.0313 H   0  0  0  0  0  0  0  0  0  0  0  0
   10.8149   -5.1829   11.9617 H   0  0  0  0  0  0  0  0  0  0  0  0
    8.7819   -3.8588   12.1466 H   0  0  0  0  0  0  0  0  0  0  0  0
    4.7218   -1.6795   13.4759 H   0  0  0  0  0  0  0  0  0  0  0  0
    6.8095    1.1362   11.8545 H   0  0  0  0  0  0  0  0  0  0  0  0
    8.8375   -0.7995   13.0692 H   0  0  0  0  0  0  0  0  0  0  0  0
    7.8424    0.3264   13.9885 H   0  0  0  0  0  0  0  0  0  0  0  0
   10.2489    1.0289   13.4282 H   0  0  0  0  0  0  0  0  0  0  0  0
    8.8168    3.5117   11.2054 H   0  0  0  0  0  0  0  0  0  0  0  0
    7.9586    5.6988   11.8967 H   0  0  0  0  0  0  0  0  0  0  0  0
    7.2422    7.2749   13.6746 H   0  0  0  0  0  0  0  0  0  0  0  0
    6.9374    7.7944   16.0724 H   0  0  0  0  0  0  0  0  0  0  0  0
    7.0976    7.1061   18.4477 H   0  0  0  0  0  0  0  0  0  0  0  0
    7.6774    5.4103   20.1723 H   0  0  0  0  0  0  0  0  0  0  0  0
    8.5564    3.1824   19.4935 H   0  0  0  0  0  0  0  0  0  0  0  0
    9.2556    1.5964   17.7042 H   0  0  0  0  0  0  0  0  0  0  0  0
    9.5310    1.0547   15.3583 H   0  0  0  0  0  0  0  0  0  0  0  0
   10.4223    0.0639   11.3902 H   0  0  0  0  0  0  0  0  0  0  0  0
   11.4861    2.4646   11.6559 H   0  0  0  0  0  0  0  0  0  0  0  0
   11.9872    2.5947    9.1910 H   0  0  0  0  0  0  0  0  0  0  0  0
   11.4685    0.4824    8.1079 H   0  0  0  0  0  0  0  0  0  0  0  0
    9.3905    1.8859    8.3548 H   0  0  0  0  0  0  0  0  0  0  0  0
    9.1303    0.3042    6.8508 H   0  0  0  0  0  0  0  0  0  0  0  0
   10.3039   -1.5867    9.7869 H   0  0  0  0  0  0  0  0  0  0  0  0
   11.0045   -3.9275    9.7425 H   0  0  0  0  0  0  0  0  0  0  0  0
   11.1920   -6.1065    8.5658 H   0  0  0  0  0  0  0  0  0  0  0  0
   10.9167   -7.4538    6.5153 H   0  0  0  0  0  0  0  0  0  0  0  0
   10.2175   -7.6199    4.1427 H   0  0  0  0  0  0  0  0  0  0  0  0
    9.2256   -6.5949    2.1036 H   0  0  0  0  0  0  0  0  0  0  0  0
    8.4666   -4.2245    2.1356 H   0  0  0  0  0  0  0  0  0  0  0  0
    8.1705   -2.0757    3.3561 H   0  0  0  0  0  0  0  0  0  0  0  0
    8.3924   -0.7476    5.3706 H   0  0  0  0  0  0  0  0  0  0  0  0
    6.9136   -0.7143    7.2845 H   0  0  0  0  0  0  0  0  0  0  0  0
    7.0782    0.9663    7.7950 H   0  0  0  0  0  0  0  0  0  0  0  0
    8.4617   -1.0843   10.6351 H   0  0  0  0  0  0  0  0  0  0  0  0
    8.3057    1.9134   10.2382 H   0  0  0  0  0  0  0  0  0  0  0  0
    4.5827   -1.1097    7.7411 H   0  0  0  0  0  0  0  0  0  0  0  0
    1.8770   -2.6491    8.6966 H   0  0  0  0  0  0  0  0  0  0  0  0
    0.2617   -3.7444    7.1732 H   0  0  0  0  0  0  0  0  0  0  0  0
   -0.2138   -5.3191    5.3099 H   0  0  0  0  0  0  0  0  0  0  0  0
    0.5903   -6.9130    3.6021 H   0  0  0  0  0  0  0  0  0  0  0  0
    2.4652   -8.1178    2.5049 H   0  0  0  0  0  0  0  0  0  0  0  0
    4.8954   -8.6129    2.3180 H   0  0  0  0  0  0  0  0  0  0  0  0
    6.5225   -7.5145    3.8511 H   0  0  0  0  0  0  0  0  0  0  0  0
    6.9969   -5.9692    5.7409 H   0  0  0  0  0  0  0  0  0  0  0  0
    6.2065   -4.4051    7.4522 H   0  0  0  0  0  0  0  0  0  0  0  0
    4.1447   -2.9790   11.8296 H   0  0  0  0  0  0  0  0  0  0  0  0
    4.1469   -0.8401   11.1572 H   0  0  0  0  0  0  0  0  0  0  0  0
  2  1  1  1
  2  3  1  0
  2  4  1  0
  2  5  1  0
  5  6  1  1
  5  7  1  0
  5  8  1  0
  8  9  1  6
  8 10  1  0
  8 11  1  0
 11 12  2  0
 11108  1  0
 12 13  1  0
 13 14  2  0
 13109  1  0
 14 15  1  0
 14 31  1  0
 15 16  2  0
 15 28  1  0
 16 17  1  0
 16111  1  0
 17 18  2  0
 17112  1  0
 18 19  1  0
 18 29  1  0
 19 20  2  0
 19113  1  0
 20 21  1  0
 20114  1  0
 21 22  2  0
 21 30  1  0
 22 23  1  0
 22115  1  0
 23 24  2  0
 23116  1  0
 24 25  1  0
 24117  1  0
 25 26  2  0
 25 30  1  0
 26 27  1  0
 26118  1  0
 27 28  2  0
 27119  1  0
 28 29  1  0
 29 30  2  0
 31 32  2  0
 31120  1  0
 32 33  1  0
 32110  1  0
 33 34  1  0
 33 86  1  0
 33121  1  6
 34 35  1  0
 34122  1  0
 34123  1  0
 35 36  1  0
 35 52  1  0
 35124  1  1
 36 37  2  0
 36 49  1  0
 37 38  1  0
 37125  1  0
 38 39  2  0
 38126  1  0
 39 40  1  0
 39 50  1  0
 40 41  2  0
 40127  1  0
 41 42  1  0
 41128  1  0
 42 43  2  0
 42 51  1  0
 43 44  1  0
 43129  1  0
 44 45  2  0
 44130  1  0
 45 46  1  0
 45131  1  0
 46 47  2  0
 46 51  1  0
 47 48  1  0
 47132  1  0
 48 49  2  0
 48133  1  0
 49 50  1  0
 50 51  2  0
 52 53  1  0
 52 87  1  0
 52134  1  1
 53 54  1  0
 53135  1  0
 54 55  1  0
 54 65  1  0
 54136  1  6
 55 56  1  1
 55 57  1  0
 55 58  1  0
 58 59  1  1
 58 60  1  0
 58 61  1  0
 61 62  1  6
 61 63  1  0
 61 64  1  0
 65 66  1  0
 65137  1  0
 66 67  1  0
 66 87  1  0
 66138  1  6
 67 68  1  0
 67 84  1  0
 67139  1  6
 68 69  2  0
 68 81  1  0
 69 70  1  0
 69140  1  0
 70 71  2  0
 70141  1  0
 71 72  1  0
 71 82  1  0
 72 73  2  0
 72142  1  0
 73 74  1  0
 73143  1  0
 74 75  2  0
 74 83  1  0
 75 76  1  0
 75144  1  0
 76 77  2  0
 76145  1  0
 77 78  1  0
 77146  1  0
 78 79  2  0
 78 83  1  0
 79 80  1  0
 79147  1  0
 80 81  2  0
 80148  1  0
 81 82  1  0
 82 83  2  0
 84 85  1  0
 84149  1  0
 84150  1  0
 85 86  1  0
 85 88  2  0
 86 87  1  0
 86151  1  1
 87152  1  6
 88 89  1  0
 88110  1  0
 89 90  2  0
 89153  1  0
 90 91  1  0
 90107  1  0
 91 92  2  0
 91104  1  0
 92 93  1  0
 92154  1  0
 93 94  2  0
 93155  1  0
 94 95  1  0
 94105  1  0
 95 96  2  0
 95156  1  0
 96 97  1  0
 96157  1  0
 97 98  2  0
 97106  1  0
 98 99  1  0
 98158  1  0
 99100  2  0
 99159  1  0
100101  1  0
100160  1  0
101102  2  0
101106  1  0
102103  1  0
102161  1  0
103104  2  0
103162  1  0
104105  1  0
105106  2  0
107108  2  0
107109  1  0
109110  1  0
109163  1  1
110164  1  6
M  END

