
     RDKit          3D

 35 36  0  0  0  0  0  0  0  0999 V2000
    2.9431    2.6139    1.0176 C   0  0  0  0  0  0  0  0  0  0  0  0
    3.4557    1.2756    0.4860 C   0  0  0  0  0  0  0  0  0  0  0  0
    3.9611    1.3573   -0.9541 C   0  0  0  0  0  0  0  0  0  0  0  0
    4.4833    0.0651   -1.3948 N   0  0  0  0  0  0  0  0  0  0  0  0
    4.9899   -0.0238   -2.7538 C   0  0  1  0  0  0  0  0  0  0  0  0
    3.9469    0.3323   -3.7626 C   0  0  0  0  0  0  0  0  0  0  0  0
    3.1136    0.5934   -4.5266 N   0  0  0  0  0  0  0  0  0  0  0  0
    6.2511    0.8446   -3.0026 C   0  0  0  0  0  0  0  0  0  0  0  0
    6.8915    0.2215   -4.2459 C   0  0  0  0  0  0  0  0  0  0  0  0
    6.6920   -1.3051   -4.0624 C   0  0  2  0  0  0  0  0  0  0  0  0
    6.5028   -2.0258   -5.3214 N   0  0  0  0  0  0  0  0  0  0  0  0
    5.4808   -1.8810   -6.2257 C   0  0  0  0  0  0  0  0  0  0  0  0
    5.7474   -2.7721   -7.2509 C   0  0  0  0  0  0  0  0  0  0  0  0
    6.8966   -3.4571   -7.0048 N   0  0  0  0  0  0  0  0  0  0  0  0
    7.3345   -2.9975   -5.8454 C   0  0  0  0  0  0  0  0  0  0  0  0
    8.5200   -3.4227   -5.1748 C   0  0  0  0  0  0  0  0  0  0  0  0
    9.4787   -3.7497   -4.6056 N   0  0  0  0  0  0  0  0  0  0  0  0
    5.5139   -1.4571   -3.0562 C   0  0  0  0  0  0  0  0  0  0  0  0
    2.5800    2.5185    2.0525 H   0  0  0  0  0  0  0  0  0  0  0  0
    2.1100    2.9991    0.4068 H   0  0  0  0  0  0  0  0  0  0  0  0
    3.7379    3.3783    1.0141 H   0  0  0  0  0  0  0  0  0  0  0  0
    2.6466    0.5235    0.5399 H   0  0  0  0  0  0  0  0  0  0  0  0
    4.2717    0.8945    1.1230 H   0  0  0  0  0  0  0  0  0  0  0  0
    4.7761    2.0989   -1.0094 H   0  0  0  0  0  0  0  0  0  0  0  0
    3.1481    1.7358   -1.6107 H   0  0  0  0  0  0  0  0  0  0  0  0
    3.7829   -0.6609   -1.2415 H   0  0  0  0  0  0  0  0  0  0  0  0
    6.8946    0.7273   -2.1155 H   0  0  0  0  0  0  0  0  0  0  0  0
    6.0284    1.9139   -3.1249 H   0  0  0  0  0  0  0  0  0  0  0  0
    7.9505    0.4907   -4.3683 H   0  0  0  0  0  0  0  0  0  0  0  0
    6.3644    0.5572   -5.1526 H   0  0  0  0  0  0  0  0  0  0  0  0
    7.5959   -1.7397   -3.6156 H   0  0  0  0  0  0  0  0  0  0  0  0
    4.6640   -1.1785   -6.0737 H   0  0  0  0  0  0  0  0  0  0  0  0
    5.1573   -2.9445   -8.1499 H   0  0  0  0  0  0  0  0  0  0  0  0
    5.8812   -1.8615   -2.1020 H   0  0  0  0  0  0  0  0  0  0  0  0
    4.7298   -2.1306   -3.4287 H   0  0  0  0  0  0  0  0  0  0  0  0
  1  2  1  0
  1 19  1  0
  1 20  1  0
  1 21  1  0
  2  3  1  0
  2 22  1  0
  2 23  1  0
  3  4  1  0
  3 24  1  0
  3 25  1  0
  4  5  1  0
  4 26  1  0
  5  6  1  6
  5  8  1  0
  5 18  1  0
  6  7  3  0
  8  9  1  0
  8 27  1  0
  8 28  1  0
  9 10  1  0
  9 29  1  0
  9 30  1  0
 10 11  1  0
 10 18  1  0
 10 31  1  1
 11 12  1  0
 11 15  1  0
 12 13  2  0
 12 32  1  0
 13 14  1  0
 13 33  1  0
 14 15  2  0
 15 16  1  0
 16 17  3  0
 18 34  1  0
 18 35  1  0
M  END

