
     RDKit          3D

 37 39  0  0  0  0  0  0  0  0999 V2000
    0.9891    0.0185    0.5368 O   0  0  0  0  0  0  0  0  0  0  0  0
    2.1824    0.1699    0.4348 C   0  0  0  0  0  0  0  0  0  0  0  0
    2.7736    1.3080   -0.1457 N   0  0  0  0  0  0  0  0  0  0  0  0
    2.1682    2.3178   -0.8853 C   0  0  0  0  0  0  0  0  0  0  0  0
    0.7196    2.2070   -1.6739 S   0  0  0  0  0  0  0  0  0  0  0  0
    2.9278    3.4651   -0.9826 N   0  0  0  0  0  0  0  0  0  0  0  0
    4.1004    3.8602   -0.2996 C   0  0  0  0  0  0  0  0  0  0  0  0
    5.1100    4.5178   -1.0201 C   0  0  0  0  0  0  0  0  0  0  0  0
    6.2493    4.9679   -0.3590 C   0  0  0  0  0  0  0  0  0  0  0  0
    7.5128    5.8021   -1.2456 Cl  0  0  0  0  0  0  0  0  0  0  0  0
    6.4539    4.7642    1.0193 C   0  0  0  0  0  0  0  0  0  0  0  0
    7.5533    5.1754    1.6682 O   0  0  0  0  0  0  0  0  0  0  0  0
    5.4306    4.0974    1.7215 C   0  0  0  0  0  0  0  0  0  0  0  0
    5.6229    3.8412    3.4305 Cl  0  0  0  0  0  0  0  0  0  0  0  0
    4.2668    3.6682    1.0834 C   0  0  0  0  0  0  0  0  0  0  0  0
    3.2043   -0.8234    0.9327 C   0  0  0  0  0  0  0  0  0  0  0  0
    4.3271   -1.0812    0.1603 C   0  0  0  0  0  0  0  0  0  0  0  0
    5.2903   -2.0317    0.5623 C   0  0  0  0  0  0  0  0  0  0  0  0
    5.1369   -2.7107    1.7498 C   0  0  0  0  0  0  0  0  0  0  0  0
    4.0067   -2.4845    2.5831 C   0  0  0  0  0  0  0  0  0  0  0  0
    3.8124   -3.1630    3.8273 C   0  0  0  0  0  0  0  0  0  0  0  0
    5.1031   -4.4280    4.4569 Br  0  0  0  0  0  0  0  0  0  0  0  0
    2.7039   -2.9349    4.6135 C   0  0  0  0  0  0  0  0  0  0  0  0
    1.7253   -2.0082    4.1880 C   0  0  0  0  0  0  0  0  0  0  0  0
    1.8636   -1.3257    2.9991 C   0  0  0  0  0  0  0  0  0  0  0  0
    3.0013   -1.5351    2.1685 C   0  0  0  0  0  0  0  0  0  0  0  0
    3.7662    1.4192    0.0403 H   0  0  0  0  0  0  0  0  0  0  0  0
    2.5462    4.1119   -1.6669 H   0  0  0  0  0  0  0  0  0  0  0  0
    5.0108    4.6780   -2.0945 H   0  0  0  0  0  0  0  0  0  0  0  0
    8.1411    5.6167    1.0326 H   0  0  0  0  0  0  0  0  0  0  0  0
    3.4834    3.2049    1.6821 H   0  0  0  0  0  0  0  0  0  0  0  0
    4.4583   -0.5662   -0.7944 H   0  0  0  0  0  0  0  0  0  0  0  0
    6.1561   -2.2275   -0.0743 H   0  0  0  0  0  0  0  0  0  0  0  0
    5.8835   -3.4400    2.0655 H   0  0  0  0  0  0  0  0  0  0  0  0
    2.5836   -3.4689    5.5571 H   0  0  0  0  0  0  0  0  0  0  0  0
    0.8463   -1.8388    4.8145 H   0  0  0  0  0  0  0  0  0  0  0  0
    1.0902   -0.6341    2.6719 H   0  0  0  0  0  0  0  0  0  0  0  0
  1  2  2  0
  2  3  1  0
  2 16  1  0
  3  4  1  0
  3 27  1  0
  4  5  2  0
  4  6  1  0
  6  7  1  0
  6 28  1  0
  7  8  2  0
  7 15  1  0
  8  9  1  0
  8 29  1  0
  9 10  1  0
  9 11  2  0
 11 12  1  0
 11 13  1  0
 12 30  1  0
 13 14  1  0
 13 15  2  0
 15 31  1  0
 16 17  2  0
 16 26  1  0
 17 18  1  0
 17 32  1  0
 18 19  2  0
 18 33  1  0
 19 20  1  0
 19 34  1  0
 20 21  1  0
 20 26  2  0
 21 22  1  0
 21 23  2  0
 23 24  1  0
 23 35  1  0
 24 25  2  0
 24 36  1  0
 25 26  1  0
 25 37  1  0
M  END

