
     RDKit          3D

 55 58  0  0  0  0  0  0  0  0999 V2000
    4.6668   -3.4211    2.2077 C   0  0  0  0  0  0  0  0  0  0  0  0
    3.8223   -2.4035    2.7727 O   0  0  0  0  0  0  0  0  0  0  0  0
    4.3129   -1.3904    3.4498 C   0  0  0  0  0  0  0  0  0  0  0  0
    5.7011   -1.1919    3.7099 C   0  0  0  0  0  0  0  0  0  0  0  0
    6.0941   -0.0857    4.4222 C   0  0  0  0  0  0  0  0  0  0  0  0
    5.1420    0.8708    4.9063 C   0  0  0  0  0  0  0  0  0  0  0  0
    5.6407    2.0838    5.6086 C   0  0  0  0  0  0  0  0  0  0  0  0
    6.3203    3.0824    4.5953 C   0  0  0  0  0  0  0  0  0  0  0  0
    7.2484    3.9761    5.2065 N   0  0  0  0  0  0  0  0  0  0  0  0
    7.0047    5.3174    5.3513 C   0  0  0  0  0  0  0  0  0  0  0  0
    5.9673    5.9111    5.1052 O   0  0  0  0  0  0  0  0  0  0  0  0
    8.1876    5.8840    5.8355 N   0  0  0  0  0  0  0  0  0  0  0  0
    8.3927    7.2317    5.8558 N   0  0  0  0  0  0  0  0  0  0  0  0
    8.5285    8.1583    4.4290 S   0  0  1  0  0  0  0  0  0  0  0  0
    6.8698    8.6590    3.9358 C   0  0  0  0  0  0  0  0  0  0  0  0
    9.2336    9.3720    4.8347 O   0  0  0  0  0  0  0  0  0  0  0  0
    9.0429    7.2329    3.4195 O   0  0  0  0  0  0  0  0  0  0  0  0
    9.3111    4.9444    5.7049 C   0  0  0  0  0  0  0  0  0  0  0  0
    8.5902    3.5808    5.7236 C   0  0  2  0  0  0  0  0  0  0  0  0
    9.2106    2.4246    4.9826 C   0  0  0  0  0  0  0  0  0  0  0  0
    9.3695    1.1985    5.6386 C   0  0  0  0  0  0  0  0  0  0  0  0
    9.7935    0.0537    4.9419 C   0  0  0  0  0  0  0  0  0  0  0  0
   10.0665    0.0911    3.5441 C   0  0  0  0  0  0  0  0  0  0  0  0
   10.4106   -1.0538    2.9020 N   0  0  0  0  0  0  0  0  0  0  0  0
   10.7051   -0.9726    1.5856 C   0  0  0  0  0  0  0  0  0  0  0  0
   10.6656    0.2047    0.8474 C   0  0  0  0  0  0  0  0  0  0  0  0
   10.2811    1.4015    1.4834 C   0  0  0  0  0  0  0  0  0  0  0  0
    9.9567    1.3736    2.8663 C   0  0  0  0  0  0  0  0  0  0  0  0
    9.5211    2.5074    3.6030 C   0  0  0  0  0  0  0  0  0  0  0  0
    3.7612    0.6570    4.6389 C   0  0  0  0  0  0  0  0  0  0  0  0
    3.3451   -0.4477    3.9341 C   0  0  0  0  0  0  0  0  0  0  0  0
    3.9898   -4.1150    1.6991 H   0  0  0  0  0  0  0  0  0  0  0  0
    5.2159   -3.9432    3.0038 H   0  0  0  0  0  0  0  0  0  0  0  0
    5.3667   -2.9767    1.4868 H   0  0  0  0  0  0  0  0  0  0  0  0
    6.4534   -1.8903    3.3467 H   0  0  0  0  0  0  0  0  0  0  0  0
    7.1568    0.0724    4.6189 H   0  0  0  0  0  0  0  0  0  0  0  0
    6.4184    1.7731    6.3205 H   0  0  0  0  0  0  0  0  0  0  0  0
    4.8376    2.5947    6.1584 H   0  0  0  0  0  0  0  0  0  0  0  0
    5.5421    3.6889    4.1103 H   0  0  0  0  0  0  0  0  0  0  0  0
    6.8494    2.5010    3.8267 H   0  0  0  0  0  0  0  0  0  0  0  0
    8.0863    7.7431    6.6818 H   0  0  0  0  0  0  0  0  0  0  0  0
    6.4662    9.3185    4.7148 H   0  0  0  0  0  0  0  0  0  0  0  0
    6.2525    7.7615    3.8161 H   0  0  0  0  0  0  0  0  0  0  0  0
    6.9972    9.2117    2.9945 H   0  0  0  0  0  0  0  0  0  0  0  0
   10.0139    5.0498    6.5426 H   0  0  0  0  0  0  0  0  0  0  0  0
    9.8443    5.1152    4.7567 H   0  0  0  0  0  0  0  0  0  0  0  0
    8.4642    3.2775    6.7813 H   0  0  0  0  0  0  0  0  0  0  0  0
    9.1604    1.1298    6.7119 H   0  0  0  0  0  0  0  0  0  0  0  0
    9.9363   -0.9013    5.4520 H   0  0  0  0  0  0  0  0  0  0  0  0
   10.9953   -1.9128    1.0988 H   0  0  0  0  0  0  0  0  0  0  0  0
   10.9317    0.1957   -0.2131 H   0  0  0  0  0  0  0  0  0  0  0  0
   10.2344    2.3451    0.9345 H   0  0  0  0  0  0  0  0  0  0  0  0
    9.4149    3.4577    3.0709 H   0  0  0  0  0  0  0  0  0  0  0  0
    3.0290    1.3812    5.0001 H   0  0  0  0  0  0  0  0  0  0  0  0
    2.2939   -0.6391    3.7152 H   0  0  0  0  0  0  0  0  0  0  0  0
  1  2  1  0
  1 32  1  0
  1 33  1  0
  1 34  1  0
  2  3  1  0
  3  4  2  0
  3 31  1  0
  4  5  1  0
  4 35  1  0
  5  6  2  0
  5 36  1  0
  6  7  1  0
  6 30  1  0
  7  8  1  0
  7 37  1  0
  7 38  1  0
  8  9  1  0
  8 39  1  0
  8 40  1  0
  9 10  1  0
  9 19  1  0
 10 11  2  0
 10 12  1  0
 12 13  1  0
 12 18  1  0
 14 13  1  1
 13 41  1  0
 14 15  1  0
 14 16  2  0
 14 17  2  0
 15 42  1  0
 15 43  1  0
 15 44  1  0
 18 19  1  0
 18 45  1  0
 18 46  1  0
 19 20  1  0
 19 47  1  1
 20 21  2  0
 20 29  1  0
 21 22  1  0
 21 48  1  0
 22 23  2  0
 22 49  1  0
 23 24  1  0
 23 28  1  0
 24 25  2  0
 25 26  1  0
 25 50  1  0
 26 27  2  0
 26 51  1  0
 27 28  1  0
 27 52  1  0
 28 29  2  0
 29 53  1  0
 30 31  2  0
 30 54  1  0
 31 55  1  0
M  END

