
     RDKit          3D

 37 37  0  0  0  0  0  0  0  0999 V2000
    2.9813   -1.5092    0.0933 C   0  0  0  0  0  0  0  0  0  0  0  0
    2.4796   -0.0622   -0.0141 C   0  0  1  0  0  0  0  0  0  0  0  0
    0.9486   -0.0206   -0.1129 C   0  0  0  0  0  0  0  0  0  0  0  0
    2.9980    0.8627    1.1230 C   0  0  1  0  0  0  0  0  0  0  0  0
    2.4512    0.4670    2.4188 N   0  0  0  0  0  0  0  0  0  0  0  0
    1.4902    1.1800    3.0809 C   0  0  0  0  0  0  0  0  0  0  0  0
    0.9951    2.2038    2.6304 O   0  0  0  0  0  0  0  0  0  0  0  0
    1.0515    0.6276    4.4152 C   0  0  0  0  0  0  0  0  0  0  0  0
    1.8099   -0.2685    5.1863 C   0  0  0  0  0  0  0  0  0  0  0  0
    1.3445   -0.7254    6.4209 C   0  0  0  0  0  0  0  0  0  0  0  0
    0.1084   -0.2753    6.8801 C   0  0  0  0  0  0  0  0  0  0  0  0
   -0.3453   -0.7123    8.0618 F   0  0  0  0  0  0  0  0  0  0  0  0
   -0.6632    0.6239    6.1448 C   0  0  0  0  0  0  0  0  0  0  0  0
   -0.1808    1.0763    4.9183 C   0  0  0  0  0  0  0  0  0  0  0  0
    4.5426    1.0067    1.2114 C   0  0  1  0  0  0  0  0  0  0  0  0
    5.1775    1.3686   -0.1386 C   0  0  0  0  0  0  0  0  0  0  0  0
    4.9382    2.0432    2.2729 C   0  0  0  0  0  0  0  0  0  0  0  0
    2.6062   -2.1127   -0.7487 H   0  0  0  0  0  0  0  0  0  0  0  0
    2.6206   -1.9961    1.0162 H   0  0  0  0  0  0  0  0  0  0  0  0
    4.0803   -1.5787    0.0825 H   0  0  0  0  0  0  0  0  0  0  0  0
    2.8748    0.3592   -0.9535 H   0  0  0  0  0  0  0  0  0  0  0  0
    0.4769   -0.4818    0.7699 H   0  0  0  0  0  0  0  0  0  0  0  0
    0.6016   -0.5735   -1.0007 H   0  0  0  0  0  0  0  0  0  0  0  0
    0.5749    1.0123   -0.1823 H   0  0  0  0  0  0  0  0  0  0  0  0
    2.5788    1.8642    0.9396 H   0  0  0  0  0  0  0  0  0  0  0  0
    2.7382   -0.4259    2.7991 H   0  0  0  0  0  0  0  0  0  0  0  0
    2.7938   -0.6036    4.8485 H   0  0  0  0  0  0  0  0  0  0  0  0
    1.9269   -1.4148    7.0349 H   0  0  0  0  0  0  0  0  0  0  0  0
   -1.6229    0.9577    6.5444 H   0  0  0  0  0  0  0  0  0  0  0  0
   -0.7482    1.7926    4.3216 H   0  0  0  0  0  0  0  0  0  0  0  0
    4.9563    0.0293    1.5273 H   0  0  0  0  0  0  0  0  0  0  0  0
    4.7347    2.2929   -0.5480 H   0  0  0  0  0  0  0  0  0  0  0  0
    5.0599    0.5767   -0.8929 H   0  0  0  0  0  0  0  0  0  0  0  0
    6.2580    1.5473   -0.0189 H   0  0  0  0  0  0  0  0  0  0  0  0
    4.5634    3.0448    2.0035 H   0  0  0  0  0  0  0  0  0  0  0  0
    6.0341    2.1087    2.3662 H   0  0  0  0  0  0  0  0  0  0  0  0
    4.5307    1.7931    3.2632 H   0  0  0  0  0  0  0  0  0  0  0  0
  1  2  1  0
  1 18  1  0
  1 19  1  0
  1 20  1  0
  2  3  1  0
  2  4  1  0
  2 21  1  6
  3 22  1  0
  3 23  1  0
  3 24  1  0
  4  5  1  0
  4 15  1  0
  4 25  1  6
  5  6  1  0
  5 26  1  0
  6  7  2  0
  6  8  1  0
  8  9  2  0
  8 14  1  0
  9 10  1  0
  9 27  1  0
 10 11  2  0
 10 28  1  0
 11 12  1  0
 11 13  1  0
 13 14  2  0
 13 29  1  0
 14 30  1  0
 15 16  1  0
 15 17  1  0
 15 31  1  1
 16 32  1  0
 16 33  1  0
 16 34  1  0
 17 35  1  0
 17 36  1  0
 17 37  1  0
M  END

