
     RDKit          3D

 42 44  0  0  0  0  0  0  0  0999 V2000
    0.9144    0.6357   -0.6849 C   0  0  0  0  0  0  0  0  0  0  0  0
    2.2525    0.1177   -0.1572 C   0  0  1  0  0  0  0  0  0  0  0  0
    2.5312    0.5497    1.1441 O   0  0  0  0  0  0  0  0  0  0  0  0
    3.6202    1.5810    1.2438 C   0  0  0  0  0  0  0  0  0  0  0  0
    4.3342    1.7224    0.2457 O   0  0  0  0  0  0  0  0  0  0  0  0
    3.6486    2.1896    2.5127 C   0  0  0  0  0  0  0  0  0  0  0  0
    4.6960    3.1397    2.8055 C   0  0  0  0  0  0  0  0  0  0  0  0
    4.7798    3.7580    4.0392 C   0  0  0  0  0  0  0  0  0  0  0  0
    3.8403    3.4893    5.0579 C   0  0  0  0  0  0  0  0  0  0  0  0
    3.8987    4.0850    6.3027 O   0  0  0  0  0  0  0  0  0  0  0  0
    2.7972    2.5786    4.7942 C   0  0  0  0  0  0  0  0  0  0  0  0
    2.6932    1.9459    3.5684 C   0  0  0  0  0  0  0  0  0  0  0  0
    2.3303   -1.4035   -0.2084 C   0  0  0  0  0  0  0  0  0  0  0  0
    1.9702   -2.1016   -1.1253 O   0  0  0  0  0  0  0  0  0  0  0  0
    2.9157   -1.9260    0.9796 N   0  0  0  0  0  0  0  0  0  0  0  0
    3.2449   -3.1919    1.3012 C   0  0  0  0  0  0  0  0  0  0  0  0
    3.0227   -4.2982    0.3957 C   0  0  0  0  0  0  0  0  0  0  0  0
    3.3865   -5.5683    0.7641 C   0  0  0  0  0  0  0  0  0  0  0  0
    3.9859   -5.8081    2.0233 C   0  0  0  0  0  0  0  0  0  0  0  0
    4.1691   -4.7193    2.9499 C   0  0  0  0  0  0  0  0  0  0  0  0
    3.8170   -3.4388    2.5793 C   0  0  0  0  0  0  0  0  0  0  0  0
    4.6902   -4.9465    4.1671 O   0  0  0  0  0  0  0  0  0  0  0  0
    4.6788   -6.3075    4.6023 C   0  0  0  0  0  0  0  0  0  0  0  0
    5.1854   -7.2096    3.5001 C   0  0  0  0  0  0  0  0  0  0  0  0
    4.3860   -7.0406    2.3138 O   0  0  0  0  0  0  0  0  0  0  0  0
    0.9573    1.7318   -0.7425 H   0  0  0  0  0  0  0  0  0  0  0  0
    0.0929    0.3579   -0.0060 H   0  0  0  0  0  0  0  0  0  0  0  0
    0.7037    0.2348   -1.6870 H   0  0  0  0  0  0  0  0  0  0  0  0
    3.0737    0.4697   -0.8168 H   0  0  0  0  0  0  0  0  0  0  0  0
    5.4248    3.3612    2.0246 H   0  0  0  0  0  0  0  0  0  0  0  0
    5.5883    4.4738    4.2318 H   0  0  0  0  0  0  0  0  0  0  0  0
    4.6334    4.7098    6.2958 H   0  0  0  0  0  0  0  0  0  0  0  0
    2.0616    2.3926    5.5812 H   0  0  0  0  0  0  0  0  0  0  0  0
    1.8613    1.2670    3.3830 H   0  0  0  0  0  0  0  0  0  0  0  0
    3.0684   -1.1478    1.6394 H   0  0  0  0  0  0  0  0  0  0  0  0
    2.5719   -4.0872   -0.5709 H   0  0  0  0  0  0  0  0  0  0  0  0
    3.2472   -6.4182    0.0947 H   0  0  0  0  0  0  0  0  0  0  0  0
    3.9724   -2.6233    3.2849 H   0  0  0  0  0  0  0  0  0  0  0  0
    3.6527   -6.5864    4.8995 H   0  0  0  0  0  0  0  0  0  0  0  0
    5.3294   -6.3624    5.4843 H   0  0  0  0  0  0  0  0  0  0  0  0
    5.1105   -8.2699    3.7723 H   0  0  0  0  0  0  0  0  0  0  0  0
    6.2309   -6.9764    3.2405 H   0  0  0  0  0  0  0  0  0  0  0  0
  1  2  1  0
  1 26  1  0
  1 27  1  0
  1 28  1  0
  2  3  1  0
  2 13  1  0
  2 29  1  6
  3  4  1  0
  4  5  2  0
  4  6  1  0
  6  7  2  0
  6 12  1  0
  7  8  1  0
  7 30  1  0
  8  9  2  0
  8 31  1  0
  9 10  1  0
  9 11  1  0
 10 32  1  0
 11 12  2  0
 11 33  1  0
 12 34  1  0
 13 14  2  0
 13 15  1  0
 15 16  1  0
 15 35  1  0
 16 17  2  0
 16 21  1  0
 17 18  1  0
 17 36  1  0
 18 19  2  0
 18 37  1  0
 19 20  1  0
 19 25  1  0
 20 21  2  0
 20 22  1  0
 21 38  1  0
 22 23  1  0
 23 24  1  0
 23 39  1  0
 23 40  1  0
 24 25  1  0
 24 41  1  0
 24 42  1  0
M  END

