
     RDKit          3D

 44 45  0  0  0  0  0  0  0  0999 V2000
    1.1126   -0.6249    0.2726 C   0  0  0  0  0  0  0  0  0  0  0  0
    2.6400   -0.6182    0.4421 C   0  0  1  0  0  0  0  0  0  0  0  0
    3.2856    0.2166   -0.6723 C   0  0  0  0  0  0  0  0  0  0  0  0
    3.0650   -0.1243    1.8537 C   0  0  1  0  0  0  0  0  0  0  0  0
    2.8533    0.9628    1.9030 H   0  0  0  0  0  0  0  0  0  0  0  0
    2.3990   -0.8981    2.9050 N   0  0  0  0  0  0  0  0  0  0  0  0
    4.5932   -0.2409    2.0284 C   0  0  0  0  0  0  0  0  0  0  0  0
    5.3573    0.6388    1.6509 O   0  0  0  0  0  0  0  0  0  0  0  0
    4.9975   -1.4099    2.5883 N   0  0  0  0  0  0  0  0  0  0  0  0
    6.3946   -1.7154    2.8563 C   0  0  0  0  0  0  0  0  0  0  0  0
    6.8508   -1.3518    4.2571 C   0  0  0  0  0  0  0  0  0  0  0  0
    7.0792   -2.3294    5.2329 C   0  0  0  0  0  0  0  0  0  0  0  0
    7.4844   -2.0037    6.5304 C   0  0  0  0  0  0  0  0  0  0  0  0
    7.6712   -0.6551    6.8771 C   0  0  0  0  0  0  0  0  0  0  0  0
    8.0814   -0.2311    8.1558 N   0  0  0  0  0  0  0  0  0  0  0  0
    8.3563   -0.9826    9.2764 C   0  0  0  0  0  0  0  0  0  0  0  0
    8.2748   -2.1999    9.3207 O   0  0  0  0  0  0  0  0  0  0  0  0
    8.7723   -0.1714   10.4707 C   0  0  1  0  0  0  0  0  0  0  0  0
    8.3590   -0.6911   11.8356 C   0  0  0  0  0  0  0  0  0  0  0  0
    9.7855   -0.7984   11.4108 C   0  0  0  0  0  0  0  0  0  0  0  0
    7.4442    0.3363    5.9026 C   0  0  0  0  0  0  0  0  0  0  0  0
    7.0422   -0.0061    4.6153 C   0  0  0  0  0  0  0  0  0  0  0  0
    0.8448   -0.9098   -0.7572 H   0  0  0  0  0  0  0  0  0  0  0  0
    0.6870    0.3765    0.4584 H   0  0  0  0  0  0  0  0  0  0  0  0
    0.6096   -1.3451    0.9374 H   0  0  0  0  0  0  0  0  0  0  0  0
    2.9962   -1.6607    0.3517 H   0  0  0  0  0  0  0  0  0  0  0  0
    2.9105    1.2539   -0.6508 H   0  0  0  0  0  0  0  0  0  0  0  0
    3.0370   -0.2075   -1.6582 H   0  0  0  0  0  0  0  0  0  0  0  0
    4.3784    0.2651   -0.5774 H   0  0  0  0  0  0  0  0  0  0  0  0
    1.3964   -0.9529    2.7391 H   0  0  0  0  0  0  0  0  0  0  0  0
    2.5160   -0.4395    3.8091 H   0  0  0  0  0  0  0  0  0  0  0  0
    4.2517   -1.9916    2.9649 H   0  0  0  0  0  0  0  0  0  0  0  0
    6.9836   -1.1552    2.1152 H   0  0  0  0  0  0  0  0  0  0  0  0
    6.5585   -2.7900    2.6780 H   0  0  0  0  0  0  0  0  0  0  0  0
    6.9433   -3.3852    4.9786 H   0  0  0  0  0  0  0  0  0  0  0  0
    7.6596   -2.7747    7.2768 H   0  0  0  0  0  0  0  0  0  0  0  0
    8.1877    0.7711    8.2579 H   0  0  0  0  0  0  0  0  0  0  0  0
    8.8157    0.9146   10.3415 H   0  0  0  0  0  0  0  0  0  0  0  0
    7.7642   -1.6081   11.8337 H   0  0  0  0  0  0  0  0  0  0  0  0
    8.0837    0.0495   12.5913 H   0  0  0  0  0  0  0  0  0  0  0  0
   10.1503   -1.7877   11.1229 H   0  0  0  0  0  0  0  0  0  0  0  0
   10.5266   -0.1345   11.8641 H   0  0  0  0  0  0  0  0  0  0  0  0
    7.5918    1.3903    6.1595 H   0  0  0  0  0  0  0  0  0  0  0  0
    6.8714    0.7745    3.8695 H   0  0  0  0  0  0  0  0  0  0  0  0
  1  2  1  0
  1 23  1  0
  1 24  1  0
  1 25  1  0
  2  3  1  0
  2  4  1  0
  2 26  1  6
  3 27  1  0
  3 28  1  0
  3 29  1  0
  4  5  1  6
  4  6  1  0
  4  7  1  0
  6 30  1  0
  6 31  1  0
  7  8  2  0
  7  9  1  0
  9 10  1  0
  9 32  1  0
 10 11  1  0
 10 33  1  0
 10 34  1  0
 11 12  2  0
 11 22  1  0
 12 13  1  0
 12 35  1  0
 13 14  2  0
 13 36  1  0
 14 15  1  0
 14 21  1  0
 15 16  1  0
 15 37  1  0
 16 17  2  0
 16 18  1  0
 18 19  1  0
 18 20  1  0
 18 38  1  6
 19 20  1  0
 19 39  1  0
 19 40  1  0
 20 41  1  0
 20 42  1  0
 21 22  2  0
 21 43  1  0
 22 44  1  0
M  END

