
     RDKit          3D

 69 74  0  0  0  0  0  0  0  0999 V2000
    2.5640   -0.3926   -1.4853 C   0  0  0  0  0  0  0  0  0  0  0  0
    2.1223    0.0448   -0.2205 O   0  0  0  0  0  0  0  0  0  0  0  0
    2.8220    1.0058    0.4317 C   0  0  0  0  0  0  0  0  0  0  0  0
    3.9895    1.6106   -0.0539 C   0  0  0  0  0  0  0  0  0  0  0  0
    4.6290    2.5900    0.7144 C   0  0  0  0  0  0  0  0  0  0  0  0
    4.1371    2.9967    1.9594 C   0  0  0  0  0  0  0  0  0  0  0  0
    4.8496    4.1187    2.6962 C   0  0  1  0  0  0  0  0  0  0  0  0
    5.8150    4.2658    2.1757 H   0  0  0  0  0  0  0  0  0  0  0  0
    4.1230    5.4807    2.5578 C   0  0  1  0  0  0  0  0  0  0  0  0
    4.0962    5.7107    1.4845 H   0  0  0  0  0  0  0  0  0  0  0  0
    2.6258    5.5503    2.9562 C   0  0  0  0  0  0  0  0  0  0  0  0
    1.8080    5.9976    2.1698 O   0  0  0  0  0  0  0  0  0  0  0  0
    2.3412    5.1524    4.2327 N   0  0  0  0  0  0  0  0  0  0  0  0
    1.1032    5.1687    4.9156 C   0  0  0  0  0  0  0  0  0  0  0  0
   -0.1081    5.5773    4.3349 C   0  0  0  0  0  0  0  0  0  0  0  0
   -1.2879    5.5653    5.0771 C   0  0  0  0  0  0  0  0  0  0  0  0
   -1.3235    5.1411    6.4271 C   0  0  0  0  0  0  0  0  0  0  0  0
   -2.5051    5.1191    7.1545 N   0  0  0  0  0  0  0  0  0  0  0  0
   -2.4789    4.7748    8.5587 C   0  0  0  0  0  0  0  0  0  0  0  0
   -3.7214    5.6361    6.5662 C   0  0  0  0  0  0  0  0  0  0  0  0
   -0.0920    4.7409    7.0002 C   0  0  0  0  0  0  0  0  0  0  0  0
    1.0851    4.7561    6.2574 C   0  0  0  0  0  0  0  0  0  0  0  0
    4.9031    6.5608    3.2775 C   0  0  0  0  0  0  0  0  0  0  0  0
    4.8379    7.9013    2.8727 C   0  0  0  0  0  0  0  0  0  0  0  0
    5.5484    8.8833    3.5648 C   0  0  0  0  0  0  0  0  0  0  0  0
    6.3284    8.5387    4.6765 C   0  0  0  0  0  0  0  0  0  0  0  0
    6.3890    7.2111    5.0933 C   0  0  0  0  0  0  0  0  0  0  0  0
    5.6796    6.2184    4.3983 C   0  0  0  0  0  0  0  0  0  0  0  0
    5.7606    4.8109    4.9092 C   0  0  0  0  0  0  0  0  0  0  0  0
    6.3121    4.5440    5.9618 O   0  0  0  0  0  0  0  0  0  0  0  0
    5.1437    3.8247    4.1278 N   0  0  0  0  0  0  0  0  0  0  0  0
    5.4048    2.4632    4.5235 C   0  0  0  0  0  0  0  0  0  0  0  0
    4.6376    1.8762    5.5317 C   0  0  0  0  0  0  0  0  0  0  0  0
    4.8771    0.5593    5.9676 C   0  0  0  0  0  0  0  0  0  0  0  0
    5.9052   -0.1291    5.3506 C   0  0  0  0  0  0  0  0  0  0  0  0
    6.6764    0.4559    4.3425 C   0  0  0  0  0  0  0  0  0  0  0  0
    6.4582    1.7494    3.9101 C   0  0  0  0  0  0  0  0  0  0  0  0
    7.5995   -0.4495    3.8969 O   0  0  0  0  0  0  0  0  0  0  0  0
    7.5087   -1.5693    4.7736 C   0  0  0  0  0  0  0  0  0  0  0  0
    6.3271   -1.4138    5.5538 O   0  0  0  0  0  0  0  0  0  0  0  0
    2.9629    2.3782    2.4300 C   0  0  0  0  0  0  0  0  0  0  0  0
    2.3183    1.3993    1.6844 C   0  0  0  0  0  0  0  0  0  0  0  0
    1.8492   -1.1563   -1.8202 H   0  0  0  0  0  0  0  0  0  0  0  0
    3.5717   -0.8440   -1.4365 H   0  0  0  0  0  0  0  0  0  0  0  0
    2.5795    0.4298   -2.2234 H   0  0  0  0  0  0  0  0  0  0  0  0
    4.4134    1.3288   -1.0178 H   0  0  0  0  0  0  0  0  0  0  0  0
    5.5425    3.0470    0.3222 H   0  0  0  0  0  0  0  0  0  0  0  0
    3.1218    4.7717    4.7575 H   0  0  0  0  0  0  0  0  0  0  0  0
   -0.1149    5.9080    3.2988 H   0  0  0  0  0  0  0  0  0  0  0  0
   -2.2000    5.8960    4.5814 H   0  0  0  0  0  0  0  0  0  0  0  0
   -2.0729    3.7607    8.7267 H   0  0  0  0  0  0  0  0  0  0  0  0
   -3.5018    4.7880    8.9574 H   0  0  0  0  0  0  0  0  0  0  0  0
   -1.8711    5.4773    9.1633 H   0  0  0  0  0  0  0  0  0  0  0  0
   -3.6479    6.7097    6.3017 H   0  0  0  0  0  0  0  0  0  0  0  0
   -4.5488    5.5217    7.2787 H   0  0  0  0  0  0  0  0  0  0  0  0
   -3.9986    5.0896    5.6466 H   0  0  0  0  0  0  0  0  0  0  0  0
   -0.0415    4.4159    8.0386 H   0  0  0  0  0  0  0  0  0  0  0  0
    2.0178    4.4504    6.7421 H   0  0  0  0  0  0  0  0  0  0  0  0
    4.2211    8.1704    2.0114 H   0  0  0  0  0  0  0  0  0  0  0  0
    5.4944    9.9243    3.2357 H   0  0  0  0  0  0  0  0  0  0  0  0
    6.8844    9.3086    5.2169 H   0  0  0  0  0  0  0  0  0  0  0  0
    6.9782    6.9086    5.9609 H   0  0  0  0  0  0  0  0  0  0  0  0
    3.8395    2.4568    5.9963 H   0  0  0  0  0  0  0  0  0  0  0  0
    4.2776    0.0990    6.7539 H   0  0  0  0  0  0  0  0  0  0  0  0
    7.0761    2.1946    3.1304 H   0  0  0  0  0  0  0  0  0  0  0  0
    8.3949   -1.5945    5.4387 H   0  0  0  0  0  0  0  0  0  0  0  0
    7.4457   -2.4987    4.1845 H   0  0  0  0  0  0  0  0  0  0  0  0
    2.5440    2.6573    3.3966 H   0  0  0  0  0  0  0  0  0  0  0  0
    1.4100    0.9181    2.0519 H   0  0  0  0  0  0  0  0  0  0  0  0
  1  2  1  0
  1 43  1  0
  1 44  1  0
  1 45  1  0
  2  3  1  0
  3  4  2  0
  3 42  1  0
  4  5  1  0
  4 46  1  0
  5  6  2  0
  5 47  1  0
  6  7  1  0
  6 41  1  0
  7  8  1  6
  7  9  1  0
  7 31  1  0
  9 10  1  6
  9 11  1  0
  9 23  1  0
 11 12  2  0
 11 13  1  0
 13 14  1  0
 13 48  1  0
 14 15  2  0
 14 22  1  0
 15 16  1  0
 15 49  1  0
 16 17  2  0
 16 50  1  0
 17 18  1  0
 17 21  1  0
 18 19  1  0
 18 20  1  0
 19 51  1  0
 19 52  1  0
 19 53  1  0
 20 54  1  0
 20 55  1  0
 20 56  1  0
 21 22  2  0
 21 57  1  0
 22 58  1  0
 23 24  2  0
 23 28  1  0
 24 25  1  0
 24 59  1  0
 25 26  2  0
 25 60  1  0
 26 27  1  0
 26 61  1  0
 27 28  2  0
 27 62  1  0
 28 29  1  0
 29 30  2  0
 29 31  1  0
 31 32  1  0
 32 33  2  0
 32 37  1  0
 33 34  1  0
 33 63  1  0
 34 35  2  0
 34 64  1  0
 35 36  1  0
 35 40  1  0
 36 37  2  0
 36 38  1  0
 37 65  1  0
 38 39  1  0
 39 40  1  0
 39 66  1  0
 39 67  1  0
 41 42  2  0
 41 68  1  0
 42 69  1  0
M  END

