
     RDKit          3D

 86 88  0  0  0  0  0  0  0  0999 V2000
   18.9216   13.0382    2.9983 C   0  0  0  0  0  0  0  0  0  0  0  0
   17.4171   13.8777    3.6008 S   0  0  0  0  0  0  0  0  0  0  0  0
   16.6899   12.5938    4.7100 C   0  0  0  0  0  0  0  0  0  0  0  0
   15.2649   12.1948    4.3201 C   0  0  0  0  0  0  0  0  0  0  0  0
   15.1830   11.4048    3.0099 C   0  0  1  0  0  0  0  0  0  0  0  0
   15.7461   10.0646    3.1323 N   0  0  0  0  0  0  0  0  0  0  0  0
   16.7820    9.6231    2.3658 C   0  0  0  0  0  0  0  0  0  0  0  0
   17.3421   10.3317    1.5350 O   0  0  0  0  0  0  0  0  0  0  0  0
   17.3373    8.1994    2.6567 C   0  0  1  0  0  0  0  0  0  0  0  0
   17.6530    7.5082    1.3187 C   0  0  0  0  0  0  0  0  0  0  0  0
   18.6429    8.3999    3.4585 C   0  0  0  0  0  0  0  0  0  0  0  0
   16.3997    7.3214    3.4922 C   0  0  0  0  0  0  0  0  0  0  0  0
   15.1659    7.1656    2.7971 O   0  0  0  0  0  0  0  0  0  0  0  0
   14.1460    6.7608    3.6928 N   0  0  0  0  0  0  0  0  0  0  0  0
   13.6896    8.0554    4.1979 O   0  0  0  0  0  0  0  0  0  0  0  0
   13.1602    6.2542    2.9266 O   0  0  0  0  0  0  0  0  0  0  0  0
   13.7409   11.3153    2.5017 C   0  0  0  0  0  0  0  0  0  0  0  0
   12.7566   11.6186    3.1288 O   0  0  0  0  0  0  0  0  0  0  0  0
   13.7150   10.8566    1.2387 O   0  0  0  0  0  0  0  0  0  0  0  0
   12.4404   10.6034    0.6197 C   0  0  1  0  0  0  0  0  0  0  0  0
   11.8498   11.8596    0.0249 C   0  0  0  0  0  0  0  0  0  0  0  0
   12.7352    9.7027   -0.4217 O   0  0  0  0  0  0  0  0  0  0  0  0
   12.9240    8.3963   -0.0815 C   0  0  0  0  0  0  0  0  0  0  0  0
   12.4419    7.9134    0.9338 O   0  0  0  0  0  0  0  0  0  0  0  0
   13.6650    7.7437   -1.0048 N   0  0  0  0  0  0  0  0  0  0  0  0
   13.9329    6.3213   -0.8381 C   0  0  0  0  0  0  0  0  0  0  0  0
   14.3337    8.4543   -2.1035 C   0  0  0  0  0  0  0  0  0  0  0  0
   15.6487    9.0942   -1.6396 C   0  0  0  0  0  0  0  0  0  0  0  0
   16.3409    9.9811   -2.6866 C   0  0  2  0  0  0  0  0  0  0  0  0
   17.2477   10.4040   -2.2174 H   0  0  0  0  0  0  0  0  0  0  0  0
   15.4961   11.0496   -3.1018 O   0  0  0  0  0  0  0  0  0  0  0  0
   15.4072   12.2072   -2.3832 C   0  0  0  0  0  0  0  0  0  0  0  0
   16.0382   12.4452   -1.1737 C   0  0  0  0  0  0  0  0  0  0  0  0
   15.8775   13.6979   -0.5259 C   0  0  0  0  0  0  0  0  0  0  0  0
   15.0999   14.6925   -1.0742 C   0  0  0  0  0  0  0  0  0  0  0  0
   14.4298   14.4755   -2.3121 C   0  0  0  0  0  0  0  0  0  0  0  0
   13.6110   15.4726   -2.9134 C   0  0  0  0  0  0  0  0  0  0  0  0
   12.9654   15.2403   -4.1101 C   0  0  0  0  0  0  0  0  0  0  0  0
   13.1072   13.9917   -4.7637 C   0  0  0  0  0  0  0  0  0  0  0  0
   13.8949   13.0014   -4.2112 C   0  0  0  0  0  0  0  0  0  0  0  0
   14.5757   13.2153   -2.9814 C   0  0  0  0  0  0  0  0  0  0  0  0
   16.7594    9.2468   -3.9414 C   0  0  0  0  0  0  0  0  0  0  0  0
   16.6248    9.6450   -5.2483 C   0  0  0  0  0  0  0  0  0  0  0  0
   17.1875    8.7168   -6.1800 C   0  0  0  0  0  0  0  0  0  0  0  0
   17.7470    7.6257   -5.5703 C   0  0  0  0  0  0  0  0  0  0  0  0
   17.5928    7.7147   -3.8463 S   0  0  0  0  0  0  0  0  0  0  0  0
   19.4162   13.7488    2.3200 H   0  0  0  0  0  0  0  0  0  0  0  0
   18.6699   12.1253    2.4393 H   0  0  0  0  0  0  0  0  0  0  0  0
   19.6101   12.8113    3.8267 H   0  0  0  0  0  0  0  0  0  0  0  0
   16.6955   12.9966    5.7343 H   0  0  0  0  0  0  0  0  0  0  0  0
   17.3586   11.7197    4.7002 H   0  0  0  0  0  0  0  0  0  0  0  0
   14.6367   13.0943    4.2278 H   0  0  0  0  0  0  0  0  0  0  0  0
   14.8151   11.5985    5.1332 H   0  0  0  0  0  0  0  0  0  0  0  0
   15.7687   11.9193    2.2333 H   0  0  0  0  0  0  0  0  0  0  0  0
   15.1832    9.3913    3.6505 H   0  0  0  0  0  0  0  0  0  0  0  0
   18.2843    8.1576    0.6979 H   0  0  0  0  0  0  0  0  0  0  0  0
   16.7286    7.2838    0.7682 H   0  0  0  0  0  0  0  0  0  0  0  0
   18.1837    6.5598    1.4981 H   0  0  0  0  0  0  0  0  0  0  0  0
   19.3493    9.0124    2.8805 H   0  0  0  0  0  0  0  0  0  0  0  0
   19.1197    7.4295    3.6709 H   0  0  0  0  0  0  0  0  0  0  0  0
   18.4540    8.9062    4.4189 H   0  0  0  0  0  0  0  0  0  0  0  0
   16.2131    7.7791    4.4779 H   0  0  0  0  0  0  0  0  0  0  0  0
   16.8643    6.3341    3.6667 H   0  0  0  0  0  0  0  0  0  0  0  0
   13.3025    7.8216    5.0565 H   0  0  0  0  0  0  0  0  0  0  0  0
   12.9165    6.9239    2.2278 H   0  0  0  0  0  0  0  0  0  0  0  0
   11.7855   10.1320    1.3645 H   0  0  0  0  0  0  0  0  0  0  0  0
   12.5547   12.3143   -0.6860 H   0  0  0  0  0  0  0  0  0  0  0  0
   11.6272   12.5734    0.8295 H   0  0  0  0  0  0  0  0  0  0  0  0
   10.9151   11.6146   -0.5007 H   0  0  0  0  0  0  0  0  0  0  0  0
   13.6872    6.0123    0.1838 H   0  0  0  0  0  0  0  0  0  0  0  0
   15.0006    6.1188   -1.0141 H   0  0  0  0  0  0  0  0  0  0  0  0
   13.3441    5.7180   -1.5507 H   0  0  0  0  0  0  0  0  0  0  0  0
   13.6641    9.2249   -2.5018 H   0  0  0  0  0  0  0  0  0  0  0  0
   14.5108    7.7247   -2.9072 H   0  0  0  0  0  0  0  0  0  0  0  0
   16.3615    8.3144   -1.3253 H   0  0  0  0  0  0  0  0  0  0  0  0
   15.4485    9.7065   -0.7492 H   0  0  0  0  0  0  0  0  0  0  0  0
   16.6413   11.6847   -0.6775 H   0  0  0  0  0  0  0  0  0  0  0  0
   16.3791   13.8588    0.4323 H   0  0  0  0  0  0  0  0  0  0  0  0
   14.9832   15.6533   -0.5668 H   0  0  0  0  0  0  0  0  0  0  0  0
   13.5022   16.4343   -2.4043 H   0  0  0  0  0  0  0  0  0  0  0  0
   12.3410   16.0189   -4.5561 H   0  0  0  0  0  0  0  0  0  0  0  0
   12.5889   13.8126   -5.7093 H   0  0  0  0  0  0  0  0  0  0  0  0
   14.0009   12.0363   -4.7075 H   0  0  0  0  0  0  0  0  0  0  0  0
   16.1414   10.5809   -5.5258 H   0  0  0  0  0  0  0  0  0  0  0  0
   17.1754    8.8589   -7.2619 H   0  0  0  0  0  0  0  0  0  0  0  0
   18.2423    6.7707   -6.0283 H   0  0  0  0  0  0  0  0  0  0  0  0
  1  2  1  0
  1 47  1  0
  1 48  1  0
  1 49  1  0
  2  3  1  0
  3  4  1  0
  3 50  1  0
  3 51  1  0
  4  5  1  0
  4 52  1  0
  4 53  1  0
  5  6  1  0
  5 17  1  0
  5 54  1  6
  6  7  1  0
  6 55  1  0
  7  8  2  0
  9  7  1  6
  9 10  1  0
  9 11  1  0
  9 12  1  0
 10 56  1  0
 10 57  1  0
 10 58  1  0
 11 59  1  0
 11 60  1  0
 11 61  1  0
 12 13  1  0
 12 62  1  0
 12 63  1  0
 13 14  1  0
 14 15  1  0
 14 16  1  0
 15 64  1  0
 16 65  1  0
 17 18  2  0
 17 19  1  0
 19 20  1  0
 20 21  1  0
 20 22  1  0
 20 66  1  1
 21 67  1  0
 21 68  1  0
 21 69  1  0
 22 23  1  0
 23 24  2  0
 23 25  1  0
 25 26  1  0
 25 27  1  0
 26 70  1  0
 26 71  1  0
 26 72  1  0
 27 28  1  0
 27 73  1  0
 27 74  1  0
 28 29  1  0
 28 75  1  0
 28 76  1  0
 29 30  1  1
 29 31  1  0
 29 42  1  0
 31 32  1  0
 32 33  2  0
 32 41  1  0
 33 34  1  0
 33 77  1  0
 34 35  2  0
 34 78  1  0
 35 36  1  0
 35 79  1  0
 36 37  1  0
 36 41  2  0
 37 38  2  0
 37 80  1  0
 38 39  1  0
 38 81  1  0
 39 40  2  0
 39 82  1  0
 40 41  1  0
 40 83  1  0
 42 43  2  0
 42 46  1  0
 43 44  1  0
 43 84  1  0
 44 45  2  0
 44 85  1  0
 45 46  1  0
 45 86  1  0
M  END

