
     RDKit          3D

 39 39  0  0  0  0  0  0  0  0999 V2000
    4.3991   -2.6213   -0.1754 C   0  0  0  0  0  0  0  0  0  0  0  0
    4.4738   -1.1024   -0.0205 C   0  0  0  0  0  0  0  0  0  0  0  0
    4.4752   -0.3231   -1.3484 C   0  0  1  0  0  0  0  0  0  0  0  0
    3.2358   -0.5677   -2.2486 C   0  0  0  0  0  0  0  0  0  0  0  0
    1.8912   -0.1813   -1.6319 C   0  0  0  0  0  0  0  0  0  0  0  0
    4.6483    1.0898   -1.0544 N   0  0  0  0  0  0  0  0  0  0  0  0
    5.1741    2.0679   -1.8719 C   0  0  0  0  0  0  0  0  0  0  0  0
    5.0678    3.4089   -1.4196 C   0  0  0  0  0  0  0  0  0  0  0  0
    5.5628    4.4580   -2.2423 C   0  0  0  0  0  0  0  0  0  0  0  0
    6.1921    4.1390   -3.4671 C   0  0  0  0  0  0  0  0  0  0  0  0
    6.6891    5.1337   -4.3094 N   0  0  0  0  0  0  0  0  0  0  0  0
    6.7236    6.5131   -4.1702 C   0  0  0  0  0  0  0  0  0  0  0  0
    7.3543    7.2406   -5.3502 C   0  0  0  0  0  0  0  0  0  0  0  0
    6.2979    7.1202   -3.2074 O   0  0  0  0  0  0  0  0  0  0  0  0
    6.3594    2.7798   -3.9186 C   0  0  0  0  0  0  0  0  0  0  0  0
    6.9965    2.4018   -5.2205 C   0  0  0  0  0  0  0  0  0  0  0  0
    5.7946    1.7444   -3.1015 C   0  0  0  0  0  0  0  0  0  0  0  0
    4.4968   -3.1158    0.8035 H   0  0  0  0  0  0  0  0  0  0  0  0
    5.2102   -2.9995   -0.8195 H   0  0  0  0  0  0  0  0  0  0  0  0
    3.4440   -2.9491   -0.6145 H   0  0  0  0  0  0  0  0  0  0  0  0
    5.3950   -0.8340    0.5238 H   0  0  0  0  0  0  0  0  0  0  0  0
    3.6345   -0.7532    0.6084 H   0  0  0  0  0  0  0  0  0  0  0  0
    5.3603   -0.6429   -1.9221 H   0  0  0  0  0  0  0  0  0  0  0  0
    3.2298   -1.6314   -2.5404 H   0  0  0  0  0  0  0  0  0  0  0  0
    3.3988    0.0066   -3.1749 H   0  0  0  0  0  0  0  0  0  0  0  0
    1.6455   -0.7853   -0.7431 H   0  0  0  0  0  0  0  0  0  0  0  0
    1.0771   -0.3273   -2.3588 H   0  0  0  0  0  0  0  0  0  0  0  0
    1.8749    0.8799   -1.3350 H   0  0  0  0  0  0  0  0  0  0  0  0
    4.2245    1.4271   -0.1952 H   0  0  0  0  0  0  0  0  0  0  0  0
    4.5598    3.6314   -0.4785 H   0  0  0  0  0  0  0  0  0  0  0  0
    5.4659    5.4987   -1.9509 H   0  0  0  0  0  0  0  0  0  0  0  0
    7.0755    4.7853   -5.1784 H   0  0  0  0  0  0  0  0  0  0  0  0
    7.7146    6.5815   -6.1539 H   0  0  0  0  0  0  0  0  0  0  0  0
    8.1957    7.8452   -4.9785 H   0  0  0  0  0  0  0  0  0  0  0  0
    6.6144    7.9415   -5.7664 H   0  0  0  0  0  0  0  0  0  0  0  0
    6.2768    2.2960   -6.0664 H   0  0  0  0  0  0  0  0  0  0  0  0
    7.4943    1.4183   -5.1312 H   0  0  0  0  0  0  0  0  0  0  0  0
    7.7837    3.0999   -5.5588 H   0  0  0  0  0  0  0  0  0  0  0  0
    5.9038    0.7067   -3.4156 H   0  0  0  0  0  0  0  0  0  0  0  0
  1  2  1  0
  1 18  1  0
  1 19  1  0
  1 20  1  0
  2  3  1  0
  2 21  1  0
  2 22  1  0
  3  4  1  0
  3  6  1  0
  3 23  1  6
  4  5  1  0
  4 24  1  0
  4 25  1  0
  5 26  1  0
  5 27  1  0
  5 28  1  0
  6  7  1  0
  6 29  1  0
  7  8  2  0
  7 17  1  0
  8  9  1  0
  8 30  1  0
  9 10  2  0
  9 31  1  0
 10 11  1  0
 10 15  1  0
 11 12  1  0
 11 32  1  0
 12 13  1  0
 12 14  2  0
 13 33  1  0
 13 34  1  0
 13 35  1  0
 15 16  1  0
 15 17  2  0
 16 36  1  0
 16 37  1  0
 16 38  1  0
 17 39  1  0
M  END

