
     RDKit          3D

 42 45  0  0  0  0  0  0  0  0999 V2000
    1.8449   -0.7101   -1.1040 O   0  0  0  0  0  0  0  0  0  0  0  0
    2.6832   -0.3494   -0.3184 C   0  0  0  0  0  0  0  0  0  0  0  0
    3.3280    1.0293   -0.2931 C   0  0  0  0  0  0  0  0  0  0  0  0
    3.7569    1.5755    1.0987 C   0  0  1  0  0  0  0  0  0  0  0  0
    2.5832    2.1851    1.8746 C   0  0  0  0  0  0  0  0  0  0  0  0
    1.5808    1.3877    2.4538 C   0  0  0  0  0  0  0  0  0  0  0  0
    0.4997    1.9935    3.0995 C   0  0  0  0  0  0  0  0  0  0  0  0
    0.4010    3.3827    3.1754 C   0  0  0  0  0  0  0  0  0  0  0  0
    1.4014    4.1817    2.6008 C   0  0  0  0  0  0  0  0  0  0  0  0
    1.3709    5.5341    2.6350 O   0  0  0  0  0  0  0  0  0  0  0  0
    2.4896    3.5767    1.9548 C   0  0  0  0  0  0  0  0  0  0  0  0
    4.4076    0.4544    1.8361 C   0  0  0  0  0  0  0  0  0  0  0  0
    4.0874   -0.9182    1.5784 C   0  0  0  0  0  0  0  0  0  0  0  0
    4.8179   -1.7207    2.5035 C   0  0  0  0  0  0  0  0  0  0  0  0
    4.6990   -3.1927    2.5280 C   0  0  0  0  0  0  0  0  0  0  0  0
    3.9374   -3.7693    1.7779 O   0  0  0  0  0  0  0  0  0  0  0  0
    5.4505   -3.8825    3.3999 O   0  0  0  0  0  0  0  0  0  0  0  0
    5.5673   -0.8055    3.2371 C   0  0  0  0  0  0  0  0  0  0  0  0
    5.3066    0.4914    2.8324 N   0  0  0  0  0  0  0  0  0  0  0  0
    5.9369    1.7157    3.3739 C   0  0  0  0  0  0  0  0  0  0  0  0
    5.6121    2.0310    4.7489 C   0  0  0  0  0  0  0  0  0  0  0  0
    6.5190    2.6786    5.5556 C   0  0  0  0  0  0  0  0  0  0  0  0
    7.8457    2.9840    5.1183 C   0  0  0  0  0  0  0  0  0  0  0  0
    8.1831    2.5712    3.8158 C   0  0  0  0  0  0  0  0  0  0  0  0
    9.4301    2.8592    3.3738 F   0  0  0  0  0  0  0  0  0  0  0  0
    7.3236    1.9271    2.9601 C   0  0  0  0  0  0  0  0  0  0  0  0
    3.2175   -1.2762    0.6126 N   0  0  0  0  0  0  0  0  0  0  0  0
    2.6425    1.7210   -0.7980 H   0  0  0  0  0  0  0  0  0  0  0  0
    4.2251    0.9376   -0.9335 H   0  0  0  0  0  0  0  0  0  0  0  0
    4.5002    2.3700    0.9555 H   0  0  0  0  0  0  0  0  0  0  0  0
    1.6318    0.2982    2.4157 H   0  0  0  0  0  0  0  0  0  0  0  0
   -0.2781    1.3741    3.5526 H   0  0  0  0  0  0  0  0  0  0  0  0
   -0.4481    3.8505    3.6828 H   0  0  0  0  0  0  0  0  0  0  0  0
    0.5996    5.8344    3.1338 H   0  0  0  0  0  0  0  0  0  0  0  0
    3.2638    4.2206    1.5334 H   0  0  0  0  0  0  0  0  0  0  0  0
    6.0089   -3.3020    3.9355 H   0  0  0  0  0  0  0  0  0  0  0  0
    6.2873   -0.9534    4.0409 H   0  0  0  0  0  0  0  0  0  0  0  0
    4.6065    1.8182    5.1246 H   0  0  0  0  0  0  0  0  0  0  0  0
    6.2106    2.9878    6.5591 H   0  0  0  0  0  0  0  0  0  0  0  0
    8.5820    3.4751    5.7509 H   0  0  0  0  0  0  0  0  0  0  0  0
    7.6680    1.6898    1.9506 H   0  0  0  0  0  0  0  0  0  0  0  0
    2.9666   -2.2676    0.5413 H   0  0  0  0  0  0  0  0  0  0  0  0
  1  2  2  0
  2  3  1  0
  2 27  1  0
  3  4  1  0
  3 28  1  0
  3 29  1  0
  4  5  1  0
  4 12  1  0
  4 30  1  6
  5  6  2  0
  5 11  1  0
  6  7  1  0
  6 31  1  0
  7  8  2  0
  7 32  1  0
  8  9  1  0
  8 33  1  0
  9 10  1  0
  9 11  2  0
 10 34  1  0
 11 35  1  0
 12 13  2  0
 12 19  1  0
 13 14  1  0
 13 27  1  0
 14 15  1  0
 14 18  2  0
 15 16  2  0
 15 17  1  0
 17 36  1  0
 18 19  1  0
 18 37  1  0
 19 20  1  0
 20 21  2  0
 20 26  1  0
 21 22  1  0
 21 38  1  0
 22 23  2  0
 22 39  1  0
 23 24  1  0
 23 40  1  0
 24 25  1  0
 24 26  2  0
 26 41  1  0
 27 42  1  0
M  END

