
     RDKit          3D

 36 37  0  0  0  0  0  0  0  0999 V2000
    0.9692    0.3519    0.1044 C   0  0  0  0  0  0  0  0  0  0  0  0
    2.5714   -0.4283    0.4010 S   0  0  1  0  0  0  0  0  0  0  0  0
    2.3542   -1.5443    1.3340 O   0  0  0  0  0  0  0  0  0  0  0  0
    3.2070   -0.6497   -0.9039 O   0  0  0  0  0  0  0  0  0  0  0  0
    3.5320    0.8402    1.2887 C   0  0  0  0  0  0  0  0  0  0  0  0
    4.9363    0.3132    1.5701 C   0  0  0  0  0  0  0  0  0  0  0  0
    5.7388    1.2291    2.5100 C   0  0  1  0  0  0  0  0  0  0  0  0
    5.2307    1.3273    3.8787 N   0  0  0  0  0  0  0  0  0  0  0  0
    7.2354    0.8140    2.4838 C   0  0  0  0  0  0  0  0  0  0  0  0
    7.7604    0.4334    1.4506 O   0  0  0  0  0  0  0  0  0  0  0  0
    7.8544    0.9702    3.6873 N   0  0  0  0  0  0  0  0  0  0  0  0
    9.2001    0.7479    4.0316 C   0  0  0  0  0  0  0  0  0  0  0  0
    9.5729    1.0162    5.3738 C   0  0  0  0  0  0  0  0  0  0  0  0
   10.8761    0.8270    5.8127 C   0  0  0  0  0  0  0  0  0  0  0  0
   11.8322    0.3610    4.9004 C   0  0  0  0  0  0  0  0  0  0  0  0
   13.5300    0.0400    5.1943 S   0  0  0  0  0  0  0  0  0  0  0  0
   13.7531   -0.4531    3.5338 C   0  0  0  0  0  0  0  0  0  0  0  0
   12.6121   -0.3815    2.7926 C   0  0  0  0  0  0  0  0  0  0  0  0
   11.4791    0.0869    3.5533 C   0  0  0  0  0  0  0  0  0  0  0  0
   10.1529    0.2834    3.1207 C   0  0  0  0  0  0  0  0  0  0  0  0
    0.3806   -0.4122   -0.4219 H   0  0  0  0  0  0  0  0  0  0  0  0
    1.1035    1.2353   -0.5335 H   0  0  0  0  0  0  0  0  0  0  0  0
    0.4968    0.6025    1.0633 H   0  0  0  0  0  0  0  0  0  0  0  0
    2.9731    1.0469    2.2150 H   0  0  0  0  0  0  0  0  0  0  0  0
    3.5442    1.7416    0.6558 H   0  0  0  0  0  0  0  0  0  0  0  0
    5.4911    0.1936    0.6298 H   0  0  0  0  0  0  0  0  0  0  0  0
    4.8601   -0.6896    2.0250 H   0  0  0  0  0  0  0  0  0  0  0  0
    5.7357    2.2515    2.0888 H   0  0  0  0  0  0  0  0  0  0  0  0
    4.8730    0.4292    4.2080 H   0  0  0  0  0  0  0  0  0  0  0  0
    4.4798    2.0082    3.9683 H   0  0  0  0  0  0  0  0  0  0  0  0
    7.2180    1.2967    4.4152 H   0  0  0  0  0  0  0  0  0  0  0  0
    8.8163    1.3798    6.0749 H   0  0  0  0  0  0  0  0  0  0  0  0
   11.1426    1.0396    6.8504 H   0  0  0  0  0  0  0  0  0  0  0  0
   14.7405   -0.7736    3.2026 H   0  0  0  0  0  0  0  0  0  0  0  0
   12.5593   -0.6500    1.7364 H   0  0  0  0  0  0  0  0  0  0  0  0
    9.8606    0.0797    2.0926 H   0  0  0  0  0  0  0  0  0  0  0  0
  2  1  1  6
  1 21  1  0
  1 22  1  0
  1 23  1  0
  2  3  2  0
  2  4  2  0
  2  5  1  0
  5  6  1  0
  5 24  1  0
  5 25  1  0
  6  7  1  0
  6 26  1  0
  6 27  1  0
  7  8  1  0
  7  9  1  0
  7 28  1  6
  8 29  1  0
  8 30  1  0
  9 10  2  0
  9 11  1  0
 11 12  1  0
 11 31  1  0
 12 13  2  0
 12 20  1  0
 13 14  1  0
 13 32  1  0
 14 15  2  0
 14 33  1  0
 15 16  1  0
 15 19  1  0
 16 17  1  0
 17 18  2  0
 17 34  1  0
 18 19  1  0
 18 35  1  0
 19 20  2  0
 20 36  1  0
M  END

