
     RDKit          3D

 46 47  0  0  0  0  0  0  0  0999 V2000
    6.0797   -6.1529   -0.2356 C   0  0  0  0  0  0  0  0  0  0  0  0
    6.2419   -4.8700    0.3783 O   0  0  0  0  0  0  0  0  0  0  0  0
    6.3410   -3.8181   -0.4473 C   0  0  0  0  0  0  0  0  0  0  0  0
    6.4172   -3.9189   -1.6501 O   0  0  0  0  0  0  0  0  0  0  0  0
    6.4242   -2.5020    0.2767 C   0  0  0  0  0  0  0  0  0  0  0  0
    7.2935   -1.5632   -0.3043 C   0  0  0  0  0  0  0  0  0  0  0  0
    7.4898   -0.3098    0.2706 C   0  0  0  0  0  0  0  0  0  0  0  0
    6.7923    0.0295    1.4327 C   0  0  0  0  0  0  0  0  0  0  0  0
    5.8996   -0.8787    2.0014 C   0  0  0  0  0  0  0  0  0  0  0  0
    5.6984   -2.1526    1.4420 C   0  0  0  0  0  0  0  0  0  0  0  0
    4.6669   -3.0732    2.0626 C   0  0  1  0  0  0  0  0  0  0  0  0
    4.8522   -3.3738    3.5417 C   0  0  0  0  0  0  0  0  0  0  0  0
    4.5381   -2.4198    4.4147 N   0  0  0  0  0  0  0  0  0  0  0  0
    4.6809   -2.7118    5.7110 C   0  0  0  0  0  0  0  0  0  0  0  0
    4.3353   -1.8055    6.6272 O   0  0  0  0  0  0  0  0  0  0  0  0
    3.8038   -0.5585    6.1803 C   0  0  0  0  0  0  0  0  0  0  0  0
    5.1780   -3.9448    6.1459 C   0  0  0  0  0  0  0  0  0  0  0  0
    5.4960   -4.8567    5.1340 C   0  0  0  0  0  0  0  0  0  0  0  0
    5.9841   -6.0482    5.4894 O   0  0  0  0  0  0  0  0  0  0  0  0
    6.2857   -6.9899    4.4631 C   0  0  0  0  0  0  0  0  0  0  0  0
    5.3216   -4.5823    3.8368 N   0  0  0  0  0  0  0  0  0  0  0  0
    2.9453   -2.4232    1.8286 S   0  0  1  0  0  0  0  0  0  0  0  0
    2.0357   -3.3885    2.4338 O   0  0  0  0  0  0  0  0  0  0  0  0
    2.8302   -0.9900    2.1060 O   0  0  0  0  0  0  0  0  0  0  0  0
    2.7657   -2.4637    0.1255 N   0  0  0  0  0  0  0  0  0  0  0  0
    2.7306   -3.6235   -0.6561 C   0  0  0  0  0  0  0  0  0  0  0  0
    2.2196   -3.4305   -1.9078 N   0  0  0  0  0  0  0  0  0  0  0  0
    3.1597   -4.6900   -0.2561 O   0  0  0  0  0  0  0  0  0  0  0  0
    6.1199   -6.8830    0.5817 H   0  0  0  0  0  0  0  0  0  0  0  0
    6.8836   -6.3389   -0.9625 H   0  0  0  0  0  0  0  0  0  0  0  0
    5.1040   -6.2002   -0.7389 H   0  0  0  0  0  0  0  0  0  0  0  0
    7.8179   -1.8461   -1.2188 H   0  0  0  0  0  0  0  0  0  0  0  0
    8.1826    0.4001   -0.1881 H   0  0  0  0  0  0  0  0  0  0  0  0
    6.9328    1.0104    1.8938 H   0  0  0  0  0  0  0  0  0  0  0  0
    5.3283   -0.6048    2.8879 H   0  0  0  0  0  0  0  0  0  0  0  0
    4.6160   -4.0316    1.5389 H   0  0  0  0  0  0  0  0  0  0  0  0
    3.4599   -0.0411    7.0850 H   0  0  0  0  0  0  0  0  0  0  0  0
    2.9722   -0.7056    5.4763 H   0  0  0  0  0  0  0  0  0  0  0  0
    4.5795    0.0419    5.6793 H   0  0  0  0  0  0  0  0  0  0  0  0
    5.2996   -4.1827    7.2013 H   0  0  0  0  0  0  0  0  0  0  0  0
    6.6896   -7.8709    4.9781 H   0  0  0  0  0  0  0  0  0  0  0  0
    7.0278   -6.5863    3.7578 H   0  0  0  0  0  0  0  0  0  0  0  0
    5.3818   -7.2626    3.8973 H   0  0  0  0  0  0  0  0  0  0  0  0
    2.5936   -1.5400   -0.2612 H   0  0  0  0  0  0  0  0  0  0  0  0
    1.6557   -2.6257   -2.1466 H   0  0  0  0  0  0  0  0  0  0  0  0
    2.1687   -4.2452   -2.5064 H   0  0  0  0  0  0  0  0  0  0  0  0
  1  2  1  0
  1 29  1  0
  1 30  1  0
  1 31  1  0
  2  3  1  0
  3  4  2  0
  3  5  1  0
  5  6  2  0
  5 10  1  0
  6  7  1  0
  6 32  1  0
  7  8  2  0
  7 33  1  0
  8  9  1  0
  8 34  1  0
  9 10  2  0
  9 35  1  0
 10 11  1  0
 11 12  1  0
 11 22  1  0
 11 36  1  6
 12 13  2  0
 12 21  1  0
 13 14  1  0
 14 15  1  0
 14 17  2  0
 15 16  1  0
 16 37  1  0
 16 38  1  0
 16 39  1  0
 17 18  1  0
 17 40  1  0
 18 19  1  0
 18 21  2  0
 19 20  1  0
 20 41  1  0
 20 42  1  0
 20 43  1  0
 22 23  2  0
 22 24  2  0
 22 25  1  6
 25 26  1  0
 25 44  1  0
 26 27  1  0
 26 28  2  0
 27 45  1  0
 27 46  1  0
M  END

