
     RDKit          3D

 41 42  0  0  0  0  0  0  0  0999 V2000
    3.6051    3.3062   -5.0541 C   0  0  0  0  0  0  0  0  0  0  0  0
    4.6238    2.7668   -4.0631 C   0  0  0  0  0  0  0  0  0  0  0  0
    5.1806    3.4625   -3.2413 O   0  0  0  0  0  0  0  0  0  0  0  0
    4.8244    1.3977   -4.1500 N   0  0  0  0  0  0  0  0  0  0  0  0
    5.6997    0.6488   -3.3291 C   0  0  0  0  0  0  0  0  0  0  0  0
    6.6858   -0.1572   -3.9180 C   0  0  0  0  0  0  0  0  0  0  0  0
    7.5646   -0.9134   -3.1416 C   0  0  0  0  0  0  0  0  0  0  0  0
    7.4821   -0.8549   -1.7475 C   0  0  0  0  0  0  0  0  0  0  0  0
    6.5000   -0.0685   -1.1442 C   0  0  0  0  0  0  0  0  0  0  0  0
    5.5970    0.6650   -1.9204 C   0  0  0  0  0  0  0  0  0  0  0  0
    4.6640    1.4214   -1.2620 O   0  0  0  0  0  0  0  0  0  0  0  0
    3.3205    1.2347   -1.4560 C   0  0  0  0  0  0  0  0  0  0  0  0
    2.7596    0.0054   -1.8248 C   0  0  0  0  0  0  0  0  0  0  0  0
    1.3732   -0.1085   -1.9484 C   0  0  0  0  0  0  0  0  0  0  0  0
    0.5185    0.9795   -1.7060 C   0  0  0  0  0  0  0  0  0  0  0  0
   -0.9819    0.8193   -1.7906 C   0  0  0  0  0  0  0  0  0  0  0  0
   -1.6129    0.2711   -0.4955 C   0  0  1  0  0  0  0  0  0  0  0  0
   -1.4994    1.1178    0.6963 N   0  0  0  0  0  0  0  0  0  0  0  0
   -3.1010   -0.0974   -0.7083 C   0  0  0  0  0  0  0  0  0  0  0  0
   -3.5340   -0.5308   -1.7443 O   0  0  0  0  0  0  0  0  0  0  0  0
   -3.8410    0.0797    0.3870 O   0  0  0  0  0  0  0  0  0  0  0  0
    1.1083    2.2008   -1.3377 C   0  0  0  0  0  0  0  0  0  0  0  0
    2.4921    2.3370   -1.2165 C   0  0  0  0  0  0  0  0  0  0  0  0
    3.7978    4.3753   -5.2092 H   0  0  0  0  0  0  0  0  0  0  0  0
    2.5950    3.1938   -4.6271 H   0  0  0  0  0  0  0  0  0  0  0  0
    3.6265    2.7817   -6.0222 H   0  0  0  0  0  0  0  0  0  0  0  0
    4.4358    0.9185   -4.9541 H   0  0  0  0  0  0  0  0  0  0  0  0
    6.7675   -0.1663   -5.0081 H   0  0  0  0  0  0  0  0  0  0  0  0
    8.3245   -1.5306   -3.6262 H   0  0  0  0  0  0  0  0  0  0  0  0
    8.1763   -1.4274   -1.1279 H   0  0  0  0  0  0  0  0  0  0  0  0
    6.4006   -0.0140   -0.0584 H   0  0  0  0  0  0  0  0  0  0  0  0
    3.4043   -0.8555   -2.0120 H   0  0  0  0  0  0  0  0  0  0  0  0
    0.9462   -1.0724   -2.2421 H   0  0  0  0  0  0  0  0  0  0  0  0
   -1.2591    0.1300   -2.6015 H   0  0  0  0  0  0  0  0  0  0  0  0
   -1.4573    1.7868   -2.0291 H   0  0  0  0  0  0  0  0  0  0  0  0
   -1.1201   -0.6877   -0.2543 H   0  0  0  0  0  0  0  0  0  0  0  0
   -1.6196    2.1039    0.4571 H   0  0  0  0  0  0  0  0  0  0  0  0
   -0.5842    1.0327    1.1359 H   0  0  0  0  0  0  0  0  0  0  0  0
   -3.2185    0.4776    1.0446 H   0  0  0  0  0  0  0  0  0  0  0  0
    0.4742    3.0749   -1.1609 H   0  0  0  0  0  0  0  0  0  0  0  0
    2.9562    3.2888   -0.9530 H   0  0  0  0  0  0  0  0  0  0  0  0
  1  2  1  0
  1 24  1  0
  1 25  1  0
  1 26  1  0
  2  3  2  0
  2  4  1  0
  4  5  1  0
  4 27  1  0
  5  6  2  0
  5 10  1  0
  6  7  1  0
  6 28  1  0
  7  8  2  0
  7 29  1  0
  8  9  1  0
  8 30  1  0
  9 10  2  0
  9 31  1  0
 10 11  1  0
 11 12  1  0
 12 13  2  0
 12 23  1  0
 13 14  1  0
 13 32  1  0
 14 15  2  0
 14 33  1  0
 15 16  1  0
 15 22  1  0
 16 17  1  0
 16 34  1  0
 16 35  1  0
 17 18  1  0
 17 19  1  0
 17 36  1  1
 18 37  1  0
 18 38  1  0
 19 20  2  0
 19 21  1  0
 21 39  1  0
 22 23  2  0
 22 40  1  0
 23 41  1  0
M  END

