
     RDKit          3D

 67 75  0  0  0  0  0  0  0  0999 V2000
    0.8213    0.0982    0.1215 F   0  0  0  0  0  0  0  0  0  0  0  0
    2.1462    0.0391    0.1186 C   0  0  0  0  0  0  0  0  0  0  0  0
    2.8466    1.2356   -0.0515 C   0  0  0  0  0  0  0  0  0  0  0  0
    2.1590    2.3576   -0.2251 F   0  0  0  0  0  0  0  0  0  0  0  0
    4.2482    1.2733   -0.0269 C   0  0  0  0  0  0  0  0  0  0  0  0
    4.9490    2.4774   -0.1872 N   0  0  0  0  0  0  0  0  0  0  0  0
    5.8810    2.7561   -1.2007 C   0  0  0  0  0  0  0  0  0  0  0  0
    6.2985    1.9570   -2.2690 C   0  0  0  0  0  0  0  0  0  0  0  0
    7.2334    2.4954   -3.1548 C   0  0  0  0  0  0  0  0  0  0  0  0
    7.7376    3.7977   -2.9852 C   0  0  0  0  0  0  0  0  0  0  0  0
    7.3088    4.5927   -1.9228 C   0  0  0  0  0  0  0  0  0  0  0  0
    6.3703    4.0750   -1.0191 C   0  0  0  0  0  0  0  0  0  0  0  0
    5.7081    4.6154    0.1549 C   0  0  0  0  0  0  0  0  0  0  0  0
    5.7850    5.8420    0.8294 C   0  0  0  0  0  0  0  0  0  0  0  0
    5.0025    6.0419    1.9663 C   0  0  0  0  0  0  0  0  0  0  0  0
    4.1495    5.0271    2.4367 C   0  0  0  0  0  0  0  0  0  0  0  0
    4.0556    3.7968    1.7835 C   0  0  0  0  0  0  0  0  0  0  0  0
    4.8365    3.6069    0.6398 C   0  0  0  0  0  0  0  0  0  0  0  0
    4.9158    0.0487    0.1473 C   0  0  0  0  0  0  0  0  0  0  0  0
    6.2458    0.0493    0.1659 F   0  0  0  0  0  0  0  0  0  0  0  0
    4.2411   -1.1690    0.2892 C   0  0  0  0  0  0  0  0  0  0  0  0
    5.0007   -2.3530    0.4021 N   0  0  0  0  0  0  0  0  0  0  0  0
    5.0974   -3.3501   -0.5759 C   0  0  0  0  0  0  0  0  0  0  0  0
    4.5030   -3.4114   -1.8404 C   0  0  0  0  0  0  0  0  0  0  0  0
    4.7750   -4.5306   -2.6300 C   0  0  0  0  0  0  0  0  0  0  0  0
    5.6185   -5.5604   -2.1743 C   0  0  0  0  0  0  0  0  0  0  0  0
    6.2093   -5.4906   -0.9127 C   0  0  0  0  0  0  0  0  0  0  0  0
    5.9511   -4.3790   -0.0981 C   0  0  0  0  0  0  0  0  0  0  0  0
    6.3855   -3.9816    1.2293 C   0  0  0  0  0  0  0  0  0  0  0  0
    7.2133   -4.5699    2.1969 C   0  0  0  0  0  0  0  0  0  0  0  0
    7.4225   -3.9068    3.4061 C   0  0  0  0  0  0  0  0  0  0  0  0
    6.8122   -2.6635    3.6576 C   0  0  0  0  0  0  0  0  0  0  0  0
    5.9843   -2.0566    2.7117 C   0  0  0  0  0  0  0  0  0  0  0  0
    5.7815   -2.7256    1.5010 C   0  0  0  0  0  0  0  0  0  0  0  0
    2.8212   -1.1802    0.2934 C   0  0  0  0  0  0  0  0  0  0  0  0
    2.0496   -2.4085    0.4914 C   0  0  0  0  0  0  0  0  0  0  0  0
    0.8863   -2.7218    0.0005 N   0  0  0  0  0  0  0  0  0  0  0  0
    0.5749   -3.9675    0.4839 N   0  0  0  0  0  0  0  0  0  0  0  0
    1.5664   -4.3415    1.2440 C   0  0  0  0  0  0  0  0  0  0  0  0
    1.7243   -5.5846    1.9905 C   0  0  0  0  0  0  0  0  0  0  0  0
    0.6886   -6.5371    1.9581 C   0  0  0  0  0  0  0  0  0  0  0  0
    0.8219   -7.7318    2.6628 C   0  0  0  0  0  0  0  0  0  0  0  0
    1.9827   -7.9875    3.4030 C   0  0  0  0  0  0  0  0  0  0  0  0
    3.0131   -7.0425    3.4359 C   0  0  0  0  0  0  0  0  0  0  0  0
    2.8899   -5.8429    2.7334 C   0  0  0  0  0  0  0  0  0  0  0  0
    2.5369   -3.3924    1.2934 O   0  0  0  0  0  0  0  0  0  0  0  0
    5.9135    0.9464   -2.4138 H   0  0  0  0  0  0  0  0  0  0  0  0
    7.5784    1.8898   -3.9965 H   0  0  0  0  0  0  0  0  0  0  0  0
    8.4694    4.1887   -3.6960 H   0  0  0  0  0  0  0  0  0  0  0  0
    7.6953    5.6071   -1.7976 H   0  0  0  0  0  0  0  0  0  0  0  0
    6.4517    6.6297    0.4698 H   0  0  0  0  0  0  0  0  0  0  0  0
    5.0525    6.9939    2.4999 H   0  0  0  0  0  0  0  0  0  0  0  0
    3.5462    5.2019    3.3309 H   0  0  0  0  0  0  0  0  0  0  0  0
    3.3909    3.0172    2.1588 H   0  0  0  0  0  0  0  0  0  0  0  0
    3.8478   -2.6165   -2.2019 H   0  0  0  0  0  0  0  0  0  0  0  0
    4.3218   -4.6049   -3.6216 H   0  0  0  0  0  0  0  0  0  0  0  0
    5.8110   -6.4223   -2.8173 H   0  0  0  0  0  0  0  0  0  0  0  0
    6.8662   -6.2913   -0.5639 H   0  0  0  0  0  0  0  0  0  0  0  0
    7.6883   -5.5351    2.0045 H   0  0  0  0  0  0  0  0  0  0  0  0
    8.0672   -4.3537    4.1665 H   0  0  0  0  0  0  0  0  0  0  0  0
    6.9893   -2.1605    4.6115 H   0  0  0  0  0  0  0  0  0  0  0  0
    5.5148   -1.0923    2.9153 H   0  0  0  0  0  0  0  0  0  0  0  0
   -0.2092   -6.3225    1.3757 H   0  0  0  0  0  0  0  0  0  0  0  0
    0.0162   -8.4694    2.6359 H   0  0  0  0  0  0  0  0  0  0  0  0
    2.0836   -8.9257    3.9545 H   0  0  0  0  0  0  0  0  0  0  0  0
    3.9209   -7.2398    4.0110 H   0  0  0  0  0  0  0  0  0  0  0  0
    3.6963   -5.1077    2.7544 H   0  0  0  0  0  0  0  0  0  0  0  0
  1  2  1  0
  2  3  2  0
  2 35  1  0
  3  4  1  0
  3  5  1  0
  5  6  1  0
  5 19  2  0
  6  7  1  0
  6 18  1  0
  7  8  2  0
  7 12  1  0
  8  9  1  0
  8 47  1  0
  9 10  2  0
  9 48  1  0
 10 11  1  0
 10 49  1  0
 11 12  2  0
 11 50  1  0
 12 13  1  0
 13 14  1  0
 13 18  2  0
 14 15  2  0
 14 51  1  0
 15 16  1  0
 15 52  1  0
 16 17  2  0
 16 53  1  0
 17 18  1  0
 17 54  1  0
 19 20  1  0
 19 21  1  0
 21 22  1  0
 21 35  2  0
 22 23  1  0
 22 34  1  0
 23 24  2  0
 23 28  1  0
 24 25  1  0
 24 55  1  0
 25 26  2  0
 25 56  1  0
 26 27  1  0
 26 57  1  0
 27 28  2  0
 27 58  1  0
 28 29  1  0
 29 30  1  0
 29 34  2  0
 30 31  2  0
 30 59  1  0
 31 32  1  0
 31 60  1  0
 32 33  2  0
 32 61  1  0
 33 34  1  0
 33 62  1  0
 35 36  1  0
 36 37  2  0
 36 46  1  0
 37 38  1  0
 38 39  2  0
 39 40  1  0
 39 46  1  0
 40 41  2  0
 40 45  1  0
 41 42  1  0
 41 63  1  0
 42 43  2  0
 42 64  1  0
 43 44  1  0
 43 65  1  0
 44 45  2  0
 44 66  1  0
 45 67  1  0
M  END

