
     RDKit          3D

 84 87  0  0  0  0  0  0  0  0999 V2000
    1.3010   -0.3966    0.3925 C   0  0  0  0  0  0  0  0  0  0  0  0
    2.3976    0.6061    0.0347 C   0  0  1  0  0  0  0  0  0  0  0  0
    2.4639    1.8264    0.9894 C   0  0  0  0  0  0  0  0  0  0  0  0
    1.1184    2.5352    1.1703 C   0  0  0  0  0  0  0  0  0  0  0  0
    0.7101    3.0387    0.0550 O   0  0  0  0  0  0  0  0  0  0  0  0
    0.3920    2.6285    2.3785 C   0  0  0  0  0  0  0  0  0  0  0  0
   -0.8695    3.3215    2.3865 C   0  0  0  0  0  0  0  0  0  0  0  0
   -1.6090    3.4366    3.5513 C   0  0  0  0  0  0  0  0  0  0  0  0
   -1.1507    2.8825    4.7597 C   0  0  0  0  0  0  0  0  0  0  0  0
    0.0814    2.2018    4.7723 C   0  0  0  0  0  0  0  0  0  0  0  0
    0.8415    2.0700    3.6221 C   0  0  0  0  0  0  0  0  0  0  0  0
    3.7371   -0.0018   -0.0452 N   0  0  0  0  0  0  0  0  0  0  0  0
    4.1536   -1.0476    0.8792 C   0  0  0  0  0  0  0  0  0  0  0  0
    4.2189   -2.3995    0.1753 C   0  0  0  0  0  0  0  0  0  0  0  0
    3.4289   -3.2933    0.4197 O   0  0  0  0  0  0  0  0  0  0  0  0
    5.2044   -2.5197   -0.7858 N   0  0  0  0  0  0  0  0  0  0  0  0
    5.2774   -3.8000   -1.4911 C   0  0  0  0  0  0  0  0  0  0  0  0
    6.2209   -1.5500   -1.0096 C   0  0  0  0  0  0  0  0  0  0  0  0
    7.5330   -2.0019   -1.2405 C   0  0  0  0  0  0  0  0  0  0  0  0
    8.5729   -1.1192   -1.5229 C   0  0  0  0  0  0  0  0  0  0  0  0
    8.3418    0.2640   -1.6003 C   0  0  0  0  0  0  0  0  0  0  0  0
    9.4578    1.2418   -1.9069 C   0  0  0  0  0  0  0  0  0  0  0  0
    9.8952    2.1205   -0.7137 C   0  0  0  0  0  0  0  0  0  0  0  0
   10.3798    1.3654    0.5308 C   0  0  0  0  0  0  0  0  0  0  0  0
   11.5808    0.4658    0.2710 C   0  0  0  0  0  0  0  0  0  0  0  0
   11.9914   -0.1077    1.5203 O   0  0  0  0  0  0  0  0  0  0  0  0
   12.3471   -1.4046    1.6305 C   0  0  0  0  0  0  0  0  0  0  0  0
   11.9532   -2.0627    2.8093 C   0  0  0  0  0  0  0  0  0  0  0  0
   12.3227   -3.3849    3.0234 C   0  0  0  0  0  0  0  0  0  0  0  0
   13.0851   -4.0286    2.0420 C   0  0  0  0  0  0  0  0  0  0  0  0
   13.4713   -3.4132    0.9281 N   0  0  0  0  0  0  0  0  0  0  0  0
   13.1288   -2.1444    0.7119 C   0  0  0  0  0  0  0  0  0  0  0  0
   13.6733   -1.5438   -0.4693 N   0  0  0  0  0  0  0  0  0  0  0  0
   13.1116   -1.7548   -1.7116 C   0  0  0  0  0  0  0  0  0  0  0  0
   11.9429   -2.0301   -1.9014 O   0  0  0  0  0  0  0  0  0  0  0  0
   14.0437   -1.5614   -2.6601 O   0  0  0  0  0  0  0  0  0  0  0  0
   13.7544   -1.6976   -4.0938 C   0  0  1  0  0  0  0  0  0  0  0  0
   12.7042   -0.6677   -4.5209 C   0  0  0  0  0  0  0  0  0  0  0  0
   15.1067   -1.3920   -4.7402 C   0  0  0  0  0  0  0  0  0  0  0  0
   13.3161   -3.1329   -4.4000 C   0  0  0  0  0  0  0  0  0  0  0  0
    7.0351    0.7104   -1.3869 C   0  0  0  0  0  0  0  0  0  0  0  0
    5.9718   -0.1556   -1.0809 C   0  0  0  0  0  0  0  0  0  0  0  0
    4.6258    0.5110   -0.9645 C   0  0  0  0  0  0  0  0  0  0  0  0
    4.3560    1.4977   -1.6366 O   0  0  0  0  0  0  0  0  0  0  0  0
    0.3185    0.0630    0.2114 H   0  0  0  0  0  0  0  0  0  0  0  0
    1.3269   -0.7018    1.4499 H   0  0  0  0  0  0  0  0  0  0  0  0
    1.3773   -1.3035   -0.2243 H   0  0  0  0  0  0  0  0  0  0  0  0
    2.2057    1.0012   -0.9719 H   0  0  0  0  0  0  0  0  0  0  0  0
    3.1805    2.5447    0.5608 H   0  0  0  0  0  0  0  0  0  0  0  0
    2.8201    1.5299    1.9851 H   0  0  0  0  0  0  0  0  0  0  0  0
   -1.2412    3.7599    1.4587 H   0  0  0  0  0  0  0  0  0  0  0  0
   -2.5643    3.9684    3.5261 H   0  0  0  0  0  0  0  0  0  0  0  0
   -1.7399    2.9785    5.6738 H   0  0  0  0  0  0  0  0  0  0  0  0
    0.4507    1.7665    5.7049 H   0  0  0  0  0  0  0  0  0  0  0  0
    1.7905    1.5352    3.6793 H   0  0  0  0  0  0  0  0  0  0  0  0
    3.4189   -1.1496    1.6831 H   0  0  0  0  0  0  0  0  0  0  0  0
    5.1263   -0.7981    1.3344 H   0  0  0  0  0  0  0  0  0  0  0  0
    4.2704   -4.2331   -1.5164 H   0  0  0  0  0  0  0  0  0  0  0  0
    5.9384   -4.5197   -0.9794 H   0  0  0  0  0  0  0  0  0  0  0  0
    5.6460   -3.6371   -2.5126 H   0  0  0  0  0  0  0  0  0  0  0  0
    7.7487   -3.0696   -1.1924 H   0  0  0  0  0  0  0  0  0  0  0  0
    9.5781   -1.5183   -1.6860 H   0  0  0  0  0  0  0  0  0  0  0  0
    9.1333    1.9138   -2.7196 H   0  0  0  0  0  0  0  0  0  0  0  0
   10.3225    0.6840   -2.2999 H   0  0  0  0  0  0  0  0  0  0  0  0
    9.0526    2.7690   -0.4193 H   0  0  0  0  0  0  0  0  0  0  0  0
   10.6907    2.8031   -1.0633 H   0  0  0  0  0  0  0  0  0  0  0  0
    9.5632    0.7483    0.9425 H   0  0  0  0  0  0  0  0  0  0  0  0
   10.6487    2.0914    1.3164 H   0  0  0  0  0  0  0  0  0  0  0  0
   12.4204    1.0423   -0.1546 H   0  0  0  0  0  0  0  0  0  0  0  0
   11.3268   -0.3364   -0.4335 H   0  0  0  0  0  0  0  0  0  0  0  0
   11.3595   -1.5013    3.5338 H   0  0  0  0  0  0  0  0  0  0  0  0
   12.0248   -3.9111    3.9333 H   0  0  0  0  0  0  0  0  0  0  0  0
   13.4010   -5.0702    2.1679 H   0  0  0  0  0  0  0  0  0  0  0  0
   14.6887   -1.5002   -0.4861 H   0  0  0  0  0  0  0  0  0  0  0  0
   13.0176    0.3461   -4.2262 H   0  0  0  0  0  0  0  0  0  0  0  0
   11.7277   -0.8842   -4.0696 H   0  0  0  0  0  0  0  0  0  0  0  0
   12.5948   -0.6840   -5.6164 H   0  0  0  0  0  0  0  0  0  0  0  0
   15.4392   -0.3749   -4.4827 H   0  0  0  0  0  0  0  0  0  0  0  0
   15.0306   -1.4678   -5.8354 H   0  0  0  0  0  0  0  0  0  0  0  0
   15.8711   -2.1034   -4.3932 H   0  0  0  0  0  0  0  0  0  0  0  0
   12.3592   -3.3674   -3.9166 H   0  0  0  0  0  0  0  0  0  0  0  0
   14.0754   -3.8488   -4.0488 H   0  0  0  0  0  0  0  0  0  0  0  0
   13.2026   -3.2613   -5.4877 H   0  0  0  0  0  0  0  0  0  0  0  0
    6.7929    1.7716   -1.4803 H   0  0  0  0  0  0  0  0  0  0  0  0
  1  2  1  0
  1 45  1  0
  1 46  1  0
  1 47  1  0
  2  3  1  0
  2 12  1  0
  2 48  1  6
  3  4  1  0
  3 49  1  0
  3 50  1  0
  4  5  2  0
  4  6  1  0
  6  7  2  0
  6 11  1  0
  7  8  1  0
  7 51  1  0
  8  9  2  0
  8 52  1  0
  9 10  1  0
  9 53  1  0
 10 11  2  0
 10 54  1  0
 11 55  1  0
 12 13  1  0
 12 43  1  0
 13 14  1  0
 13 56  1  0
 13 57  1  0
 14 15  2  0
 14 16  1  0
 16 17  1  0
 16 18  1  0
 17 58  1  0
 17 59  1  0
 17 60  1  0
 18 19  1  0
 18 42  2  0
 19 20  2  0
 19 61  1  0
 20 21  1  0
 20 62  1  0
 21 22  1  0
 21 41  2  0
 22 23  1  0
 22 63  1  0
 22 64  1  0
 23 24  1  0
 23 65  1  0
 23 66  1  0
 24 25  1  0
 24 67  1  0
 24 68  1  0
 25 26  1  0
 25 69  1  0
 25 70  1  0
 26 27  1  0
 27 28  2  0
 27 32  1  0
 28 29  1  0
 28 71  1  0
 29 30  2  0
 29 72  1  0
 30 31  1  0
 30 73  1  0
 31 32  2  0
 32 33  1  0
 33 34  1  0
 33 74  1  0
 34 35  2  0
 34 36  1  0
 37 36  1  1
 37 38  1  0
 37 39  1  0
 37 40  1  0
 38 75  1  0
 38 76  1  0
 38 77  1  0
 39 78  1  0
 39 79  1  0
 39 80  1  0
 40 81  1  0
 40 82  1  0
 40 83  1  0
 41 42  1  0
 41 84  1  0
 42 43  1  0
 43 44  2  0
M  END

