
     RDKit          3D

 40 42  0  0  0  0  0  0  0  0999 V2000
    2.0192    2.0907    0.5856 C   0  0  0  0  0  0  0  0  0  0  0  0
    1.6142    1.2837    1.8188 C   0  0  0  0  0  0  0  0  0  0  0  0
    2.2347   -0.1292    1.8841 C   0  0  0  0  0  0  0  0  0  0  0  0
    3.7257   -0.1410    2.0668 C   0  0  0  0  0  0  0  0  0  0  0  0
    4.5998   -0.1294    1.1012 N   0  0  0  0  0  0  0  0  0  0  0  0
    5.8909   -0.0973    1.5705 C   0  0  0  0  0  0  0  0  0  0  0  0
    7.0159   -0.0727    0.5614 C   0  0  0  0  0  0  0  0  0  0  0  0
    8.3398   -0.1658    1.1414 N   0  0  0  0  0  0  0  0  0  0  0  0
    9.1053    0.9252    1.5025 C   0  0  0  0  0  0  0  0  0  0  0  0
   10.2552    0.4699    2.1124 C   0  0  0  0  0  0  0  0  0  0  0  0
   10.1830   -0.9536    2.1329 C   0  0  0  0  0  0  0  0  0  0  0  0
    8.9926   -1.3245    1.5300 C   0  0  0  0  0  0  0  0  0  0  0  0
    8.4273   -2.6981    1.3077 C   0  0  0  0  0  0  0  0  0  0  0  0
    9.4675   -3.7091    1.4039 N   0  0  0  0  0  0  0  0  0  0  0  0
    9.0092   -5.0599    1.2739 C   0  0  1  0  0  0  0  0  0  0  0  0
    9.8671   -6.1489    1.8590 C   0  0  0  0  0  0  0  0  0  0  0  0
    8.5651   -5.7790    2.5243 C   0  0  0  0  0  0  0  0  0  0  0  0
    6.0206   -0.0818    2.9356 C   0  0  0  0  0  0  0  0  0  0  0  0
    4.4539   -0.1132    3.6691 S   0  0  0  0  0  0  0  0  0  0  0  0
    1.5627    3.0931    0.6033 H   0  0  0  0  0  0  0  0  0  0  0  0
    1.6941    1.5901   -0.3415 H   0  0  0  0  0  0  0  0  0  0  0  0
    3.1111    2.2145    0.5223 H   0  0  0  0  0  0  0  0  0  0  0  0
    0.5164    1.1707    1.8436 H   0  0  0  0  0  0  0  0  0  0  0  0
    1.8851    1.8342    2.7369 H   0  0  0  0  0  0  0  0  0  0  0  0
    2.0173   -0.6727    0.9500 H   0  0  0  0  0  0  0  0  0  0  0  0
    1.7643   -0.6924    2.7063 H   0  0  0  0  0  0  0  0  0  0  0  0
    6.9567    0.8603   -0.0226 H   0  0  0  0  0  0  0  0  0  0  0  0
    6.8614   -0.8901   -0.1603 H   0  0  0  0  0  0  0  0  0  0  0  0
    8.7620    1.9352    1.2870 H   0  0  0  0  0  0  0  0  0  0  0  0
   11.0641    1.0906    2.4938 H   0  0  0  0  0  0  0  0  0  0  0  0
   10.9131   -1.6505    2.5375 H   0  0  0  0  0  0  0  0  0  0  0  0
    7.8858   -2.7300    0.3334 H   0  0  0  0  0  0  0  0  0  0  0  0
    7.6602   -2.9320    2.0701 H   0  0  0  0  0  0  0  0  0  0  0  0
   10.2123   -3.5103    0.7365 H   0  0  0  0  0  0  0  0  0  0  0  0
    8.4552   -5.3183    0.3536 H   0  0  0  0  0  0  0  0  0  0  0  0
   10.7900   -5.8302    2.3507 H   0  0  0  0  0  0  0  0  0  0  0  0
    9.9334   -7.1009    1.3250 H   0  0  0  0  0  0  0  0  0  0  0  0
    8.6234   -5.2140    3.4586 H   0  0  0  0  0  0  0  0  0  0  0  0
    7.7234   -6.4737    2.4541 H   0  0  0  0  0  0  0  0  0  0  0  0
    6.9357   -0.0612    3.5240 H   0  0  0  0  0  0  0  0  0  0  0  0
  1  2  1  0
  1 20  1  0
  1 21  1  0
  1 22  1  0
  2  3  1  0
  2 23  1  0
  2 24  1  0
  3  4  1  0
  3 25  1  0
  3 26  1  0
  4  5  2  0
  4 19  1  0
  5  6  1  0
  6  7  1  0
  6 18  2  0
  7  8  1  0
  7 27  1  0
  7 28  1  0
  8  9  1  0
  8 12  1  0
  9 10  2  0
  9 29  1  0
 10 11  1  0
 10 30  1  0
 11 12  2  0
 11 31  1  0
 12 13  1  0
 13 14  1  0
 13 32  1  0
 13 33  1  0
 14 15  1  0
 14 34  1  0
 15 16  1  0
 15 17  1  0
 15 35  1  6
 16 17  1  0
 16 36  1  0
 16 37  1  0
 17 38  1  0
 17 39  1  0
 18 19  1  0
 18 40  1  0
M  END

