
     RDKit          3D

 31 32  0  0  0  0  0  0  0  0999 V2000
    1.0994    0.0008    0.0897 C   0  0  0  0  0  0  0  0  0  0  0  0
    2.6030   -0.0637   -0.0456 C   0  0  0  0  0  0  0  0  0  0  0  0
    3.3166    1.0931   -0.3787 C   0  0  0  0  0  0  0  0  0  0  0  0
    4.7096    1.0788   -0.4490 C   0  0  0  0  0  0  0  0  0  0  0  0
    5.4168   -0.1077   -0.2668 C   0  0  0  0  0  0  0  0  0  0  0  0
    4.7029   -1.2989   -0.0034 C   0  0  0  0  0  0  0  0  0  0  0  0
    3.3021   -1.2731    0.1905 C   0  0  0  0  0  0  0  0  0  0  0  0
    2.5463   -2.4742    0.7153 C   0  0  0  0  0  0  0  0  0  0  0  0
    5.4520   -2.5137    0.0716 N   0  0  0  0  0  0  0  0  0  0  0  0
    4.9638   -3.7515   -0.5426 C   0  0  0  0  0  0  0  0  0  0  0  0
    6.7745   -2.5208    0.4795 C   0  0  0  0  0  0  0  0  0  0  0  0
    7.4316   -3.5475    0.5129 O   0  0  0  0  0  0  0  0  0  0  0  0
    7.3907   -1.1488    0.8104 C   0  0  1  0  0  0  0  0  0  0  0  0
    8.8335   -1.1857    0.9337 N   0  0  0  0  0  0  0  0  0  0  0  0
    6.9232   -0.1656   -0.2690 C   0  0  0  0  0  0  0  0  0  0  0  0
    0.7185    0.9785   -0.2389 H   0  0  0  0  0  0  0  0  0  0  0  0
    0.7728   -0.1452    1.1342 H   0  0  0  0  0  0  0  0  0  0  0  0
    0.5963   -0.7754   -0.5101 H   0  0  0  0  0  0  0  0  0  0  0  0
    2.7741    2.0260   -0.5530 H   0  0  0  0  0  0  0  0  0  0  0  0
    5.2582    2.0021   -0.6544 H   0  0  0  0  0  0  0  0  0  0  0  0
    2.0721   -3.0718   -0.0823 H   0  0  0  0  0  0  0  0  0  0  0  0
    1.7398   -2.1557    1.3911 H   0  0  0  0  0  0  0  0  0  0  0  0
    3.2005   -3.1439    1.2875 H   0  0  0  0  0  0  0  0  0  0  0  0
    4.5872   -4.4745    0.1968 H   0  0  0  0  0  0  0  0  0  0  0  0
    5.7986   -4.2313   -1.0716 H   0  0  0  0  0  0  0  0  0  0  0  0
    4.1642   -3.5134   -1.2543 H   0  0  0  0  0  0  0  0  0  0  0  0
    6.9665   -0.8132    1.7757 H   0  0  0  0  0  0  0  0  0  0  0  0
    9.2285   -1.5685    0.0718 H   0  0  0  0  0  0  0  0  0  0  0  0
    9.0851   -1.8726    1.6460 H   0  0  0  0  0  0  0  0  0  0  0  0
    7.3055   -0.5042   -1.2523 H   0  0  0  0  0  0  0  0  0  0  0  0
    7.3574    0.8270   -0.0822 H   0  0  0  0  0  0  0  0  0  0  0  0
  1  2  1  0
  1 16  1  0
  1 17  1  0
  1 18  1  0
  2  3  2  0
  2  7  1  0
  3  4  1  0
  3 19  1  0
  4  5  2  0
  4 20  1  0
  5  6  1  0
  5 15  1  0
  6  7  2  0
  6  9  1  0
  7  8  1  0
  8 21  1  0
  8 22  1  0
  8 23  1  0
  9 10  1  0
  9 11  1  0
 10 24  1  0
 10 25  1  0
 10 26  1  0
 11 12  2  0
 11 13  1  0
 13 14  1  0
 13 15  1  0
 13 27  1  1
 14 28  1  0
 14 29  1  0
 15 30  1  0
 15 31  1  0
M  END

