
     RDKit          3D

 21 22  0  0  0  0  0  0  0  0999 V2000
    1.6646   -0.5760   -0.8220 O   0  0  0  0  0  0  0  0  0  0  0  0
    2.2769    0.0829   -0.0192 C   0  0  0  0  0  0  0  0  0  0  0  0
    2.4087    1.4042   -0.0983 O   0  0  0  0  0  0  0  0  0  0  0  0
    2.9771   -0.5024    1.1983 C   0  0  0  0  0  0  0  0  0  0  0  0
    3.5891    0.4130    1.9644 N   0  0  0  0  0  0  0  0  0  0  0  0
    4.2261   -0.0121    3.0523 C   0  0  0  0  0  0  0  0  0  0  0  0
    4.2963   -1.2778    3.4539 N   0  0  0  0  0  0  0  0  0  0  0  0
    3.6824   -2.1937    2.7005 C   0  0  0  0  0  0  0  0  0  0  0  0
    2.9961   -1.8704    1.5088 C   0  0  0  0  0  0  0  0  0  0  0  0
    2.3535   -2.9693    0.6954 C   0  0  0  0  0  0  0  0  0  0  0  0
    2.8985   -4.3350    1.1093 C   0  0  0  0  0  0  0  0  0  0  0  0
    2.8685   -4.4859    2.5161 O   0  0  0  0  0  0  0  0  0  0  0  0
    3.7664   -3.6299    3.1699 C   0  0  0  0  0  0  0  0  0  0  0  0
    2.9432    1.6685    0.6859 H   0  0  0  0  0  0  0  0  0  0  0  0
    4.7285    0.7431    3.6673 H   0  0  0  0  0  0  0  0  0  0  0  0
    2.4983   -2.7859   -0.3784 H   0  0  0  0  0  0  0  0  0  0  0  0
    1.2615   -2.9380    0.8525 H   0  0  0  0  0  0  0  0  0  0  0  0
    3.9331   -4.4685    0.7292 H   0  0  0  0  0  0  0  0  0  0  0  0
    2.2829   -5.1429    0.6886 H   0  0  0  0  0  0  0  0  0  0  0  0
    4.8190   -3.9682    3.0471 H   0  0  0  0  0  0  0  0  0  0  0  0
    3.5457   -3.6635    4.2478 H   0  0  0  0  0  0  0  0  0  0  0  0
  1  2  2  0
  2  3  1  0
  2  4  1  0
  3 14  1  0
  4  5  2  0
  4  9  1  0
  5  6  1  0
  6  7  2  0
  6 15  1  0
  7  8  1  0
  8  9  2  0
  8 13  1  0
  9 10  1  0
 10 11  1  0
 10 16  1  0
 10 17  1  0
 11 12  1  0
 11 18  1  0
 11 19  1  0
 12 13  1  0
 13 20  1  0
 13 21  1  0
M  END

