
     RDKit          3D

 35 36  0  0  0  0  0  0  0  0999 V2000
    3.8925   -2.2812   -1.6877 C   0  0  0  0  0  0  0  0  0  0  0  0
    4.1830   -1.1156   -0.8002 C   0  0  0  0  0  0  0  0  0  0  0  0
    4.6040    0.1080   -1.3056 C   0  0  0  0  0  0  0  0  0  0  0  0
    4.8495    1.2255   -0.4946 C   0  0  0  0  0  0  0  0  0  0  0  0
    5.2929    2.5250   -1.1337 C   0  0  1  0  0  0  0  0  0  0  0  0
    5.5859    2.2695   -2.5023 O   0  0  0  0  0  0  0  0  0  0  0  0
    4.3367    3.6766   -0.9353 C   0  0  0  0  0  0  0  0  0  0  0  0
    2.9257    3.5147   -1.2411 C   0  0  0  0  0  0  0  0  0  0  0  0
    2.0977    4.6588   -1.1345 C   0  0  0  0  0  0  0  0  0  0  0  0
    2.5803    5.8876   -0.7344 C   0  0  0  0  0  0  0  0  0  0  0  0
    3.9920    6.0431   -0.4096 C   0  0  0  0  0  0  0  0  0  0  0  0
    4.5261    7.3598   -0.0477 C   0  0  1  0  0  0  0  0  0  0  0  0
    3.7821    7.9977    0.9040 F   0  0  0  0  0  0  0  0  0  0  0  0
    5.7973    7.3033    0.4282 F   0  0  0  0  0  0  0  0  0  0  0  0
    4.5688    8.2652   -1.0821 F   0  0  0  0  0  0  0  0  0  0  0  0
    4.8313    4.9116   -0.5498 C   0  0  0  0  0  0  0  0  0  0  0  0
    4.7050    1.1052    0.9552 C   0  0  0  0  0  0  0  0  0  0  0  0
    4.9783    2.2522    1.8711 C   0  0  0  0  0  0  0  0  0  0  0  0
    4.2920   -0.1148    1.4767 C   0  0  0  0  0  0  0  0  0  0  0  0
    4.0314   -1.2037    0.6379 C   0  0  0  0  0  0  0  0  0  0  0  0
    3.5228   -2.6824    1.3347 Cl  0  0  0  0  0  0  0  0  0  0  0  0
    4.0682   -2.0249   -2.7394 H   0  0  0  0  0  0  0  0  0  0  0  0
    2.8472   -2.6132   -1.5717 H   0  0  0  0  0  0  0  0  0  0  0  0
    4.5222   -3.1465   -1.4207 H   0  0  0  0  0  0  0  0  0  0  0  0
    4.7446    0.2423   -2.3772 H   0  0  0  0  0  0  0  0  0  0  0  0
    6.2435    2.7771   -0.6126 H   0  0  0  0  0  0  0  0  0  0  0  0
    5.2772    3.0534   -2.9783 H   0  0  0  0  0  0  0  0  0  0  0  0
    2.5227    2.5712   -1.6069 H   0  0  0  0  0  0  0  0  0  0  0  0
    1.0338    4.5630   -1.3759 H   0  0  0  0  0  0  0  0  0  0  0  0
    1.9110    6.7452   -0.6515 H   0  0  0  0  0  0  0  0  0  0  0  0
    5.8968    5.0237   -0.3297 H   0  0  0  0  0  0  0  0  0  0  0  0
    4.2869    3.0788    1.6492 H   0  0  0  0  0  0  0  0  0  0  0  0
    5.9884    2.6594    1.7094 H   0  0  0  0  0  0  0  0  0  0  0  0
    4.8787    1.9542    2.9231 H   0  0  0  0  0  0  0  0  0  0  0  0
    4.1683   -0.2364    2.5531 H   0  0  0  0  0  0  0  0  0  0  0  0
  1  2  1  0
  1 22  1  0
  1 23  1  0
  1 24  1  0
  2  3  2  0
  2 20  1  0
  3  4  1  0
  3 25  1  0
  4  5  1  0
  4 17  2  0
  5  6  1  0
  5  7  1  0
  5 26  1  1
  6 27  1  0
  7  8  2  0
  7 16  1  0
  8  9  1  0
  8 28  1  0
  9 10  2  0
  9 29  1  0
 10 11  1  0
 10 30  1  0
 11 12  1  0
 11 16  2  0
 12 13  1  1
 12 14  1  0
 12 15  1  0
 16 31  1  0
 17 18  1  0
 17 19  1  0
 18 32  1  0
 18 33  1  0
 18 34  1  0
 19 20  2  0
 19 35  1  0
 20 21  1  0
M  END

