
     RDKit          3D

 24 24  0  0  0  0  0  0  0  0999 V2000
    0.8824    0.0598   -0.5000 C   0  0  0  0  0  0  0  0  0  0  0  0
    2.3337    0.1503   -0.0663 C   0  0  1  0  0  0  0  0  0  0  0  0
    2.5271    0.4179    1.4140 C   0  0  0  0  0  0  0  0  0  0  0  0
    3.3525   -0.7098   -0.7844 C   0  0  0  0  0  0  0  0  0  0  0  0
    3.3020    0.7727   -1.0563 C   0  0  2  0  0  0  0  0  0  0  0  0
    4.3872    1.5936   -0.6189 N   0  0  0  0  0  0  0  0  0  0  0  0
    4.2324    2.9087   -0.3042 C   0  0  0  0  0  0  0  0  0  0  0  0
    3.1617    3.4909   -0.2677 O   0  0  0  0  0  0  0  0  0  0  0  0
    5.5514    3.6435   -0.0211 C   0  0  0  0  0  0  0  0  0  0  0  0
    6.6802    2.7481    0.2134 N   0  0  0  0  0  0  0  0  0  0  0  0
    0.3622   -0.7604    0.0237 H   0  0  0  0  0  0  0  0  0  0  0  0
    0.7911   -0.1248   -1.5823 H   0  0  0  0  0  0  0  0  0  0  0  0
    0.3520    0.9996   -0.2742 H   0  0  0  0  0  0  0  0  0  0  0  0
    2.0815   -0.3907    2.0177 H   0  0  0  0  0  0  0  0  0  0  0  0
    2.0447    1.3671    1.6977 H   0  0  0  0  0  0  0  0  0  0  0  0
    3.5918    0.4913    1.6793 H   0  0  0  0  0  0  0  0  0  0  0  0
    3.0177   -1.3899   -1.5733 H   0  0  0  0  0  0  0  0  0  0  0  0
    4.2006   -1.0831   -0.2011 H   0  0  0  0  0  0  0  0  0  0  0  0
    2.8548    1.0897   -2.0074 H   0  0  0  0  0  0  0  0  0  0  0  0
    5.3509    1.2703   -0.6764 H   0  0  0  0  0  0  0  0  0  0  0  0
    5.3370    4.3638    0.7907 H   0  0  0  0  0  0  0  0  0  0  0  0
    5.7569    4.2505   -0.9190 H   0  0  0  0  0  0  0  0  0  0  0  0
    6.7108    2.4467    1.1874 H   0  0  0  0  0  0  0  0  0  0  0  0
    7.5669    3.2113    0.0228 H   0  0  0  0  0  0  0  0  0  0  0  0
  2  1  1  6
  1 11  1  0
  1 12  1  0
  1 13  1  0
  2  3  1  0
  2  4  1  0
  2  5  1  0
  3 14  1  0
  3 15  1  0
  3 16  1  0
  4  5  1  0
  4 17  1  0
  4 18  1  0
  5  6  1  0
  5 19  1  6
  6  7  1  0
  6 20  1  0
  7  8  2  0
  7  9  1  0
  9 10  1  0
  9 21  1  0
  9 22  1  0
 10 23  1  0
 10 24  1  0
M  END

