
     RDKit          3D

 63 66  0  0  0  0  0  0  0  0999 V2000
    6.0368    4.7725   -5.5267 C   0  0  0  0  0  0  0  0  0  0  0  0
    7.0435    4.3031   -6.5619 C   0  0  0  0  0  0  0  0  0  0  0  0
    8.0237    3.4118   -5.9871 O   0  0  0  0  0  0  0  0  0  0  0  0
    7.8107    2.1187   -5.8183 C   0  0  0  0  0  0  0  0  0  0  0  0
    6.6382    1.4230   -6.2338 C   0  0  0  0  0  0  0  0  0  0  0  0
    6.5350    0.0752   -5.9956 C   0  0  0  0  0  0  0  0  0  0  0  0
    7.5873   -0.6349   -5.3375 C   0  0  0  0  0  0  0  0  0  0  0  0
    7.3941   -1.9193   -5.1937 O   0  0  0  0  0  0  0  0  0  0  0  0
    8.3446   -2.7810   -4.6034 C   0  0  0  0  0  0  0  0  0  0  0  0
    9.4353   -3.1524   -5.3862 C   0  0  0  0  0  0  0  0  0  0  0  0
   10.3281   -4.1342   -4.9566 C   0  0  0  0  0  0  0  0  0  0  0  0
   10.0638   -4.7356   -3.7198 C   0  0  0  0  0  0  0  0  0  0  0  0
   11.1675   -6.0266   -3.1263 S   0  0  1  0  0  0  0  0  0  0  0  0
   10.5343   -6.6316   -1.9476 O   0  0  0  0  0  0  0  0  0  0  0  0
   11.5673   -6.8438   -4.2763 O   0  0  0  0  0  0  0  0  0  0  0  0
   12.5417   -5.1683   -2.6512 N   0  0  0  0  0  0  0  0  0  0  0  0
   12.5811   -4.6395   -1.2816 C   0  0  0  0  0  0  0  0  0  0  0  0
   13.3422   -5.5909   -0.3575 C   0  0  0  0  0  0  0  0  0  0  0  0
   14.6286   -5.8788   -0.8751 O   0  0  0  0  0  0  0  0  0  0  0  0
   14.5668   -6.4844   -2.1521 C   0  0  0  0  0  0  0  0  0  0  0  0
   13.8556   -5.5811   -3.1597 C   0  0  0  0  0  0  0  0  0  0  0  0
    8.9752   -4.3791   -2.9374 C   0  0  0  0  0  0  0  0  0  0  0  0
    8.0620   -3.3672   -3.3427 C   0  0  0  0  0  0  0  0  0  0  0  0
    6.9891   -3.0662   -2.5497 N   0  0  0  0  0  0  0  0  0  0  0  0
    6.4477   -1.7515   -2.2842 C   0  0  0  0  0  0  0  0  0  0  0  0
    7.0430   -0.7579   -2.7675 O   0  0  0  0  0  0  0  0  0  0  0  0
    5.2970   -1.7298   -1.4381 C   0  0  0  0  0  0  0  0  0  0  0  0
    4.5515   -2.8907   -1.0313 C   0  0  0  0  0  0  0  0  0  0  0  0
    3.4722   -2.7818   -0.1640 C   0  0  0  0  0  0  0  0  0  0  0  0
    3.0419   -1.5438    0.3533 C   0  0  0  0  0  0  0  0  0  0  0  0
    1.8806   -1.4328    1.3067 C   0  0  0  0  0  0  0  0  0  0  0  0
    3.7598   -0.3907   -0.0666 C   0  0  0  0  0  0  0  0  0  0  0  0
    4.8353   -0.4696   -0.9268 C   0  0  0  0  0  0  0  0  0  0  0  0
    8.7613    0.0647   -4.9190 C   0  0  0  0  0  0  0  0  0  0  0  0
    8.8642    1.4062   -5.1634 C   0  0  0  0  0  0  0  0  0  0  0  0
    5.3629    5.5119   -5.9856 H   0  0  0  0  0  0  0  0  0  0  0  0
    6.5471    5.2509   -4.6779 H   0  0  0  0  0  0  0  0  0  0  0  0
    5.4240    3.9446   -5.1396 H   0  0  0  0  0  0  0  0  0  0  0  0
    7.6440    5.1413   -6.9394 H   0  0  0  0  0  0  0  0  0  0  0  0
    6.5660    3.8159   -7.4257 H   0  0  0  0  0  0  0  0  0  0  0  0
    5.8204    1.9471   -6.7253 H   0  0  0  0  0  0  0  0  0  0  0  0
    5.6492   -0.4902   -6.2831 H   0  0  0  0  0  0  0  0  0  0  0  0
    9.5571   -2.6904   -6.3686 H   0  0  0  0  0  0  0  0  0  0  0  0
   11.1707   -4.4478   -5.5718 H   0  0  0  0  0  0  0  0  0  0  0  0
   11.5587   -4.4753   -0.9142 H   0  0  0  0  0  0  0  0  0  0  0  0
   13.0921   -3.6610   -1.3140 H   0  0  0  0  0  0  0  0  0  0  0  0
   12.7520   -6.5205   -0.2363 H   0  0  0  0  0  0  0  0  0  0  0  0
   13.4896   -5.1352    0.6340 H   0  0  0  0  0  0  0  0  0  0  0  0
   14.0348   -7.4565   -2.0966 H   0  0  0  0  0  0  0  0  0  0  0  0
   15.6043   -6.6760   -2.4681 H   0  0  0  0  0  0  0  0  0  0  0  0
   13.7258   -6.0921   -4.1222 H   0  0  0  0  0  0  0  0  0  0  0  0
   14.4524   -4.6658   -3.3231 H   0  0  0  0  0  0  0  0  0  0  0  0
    8.8128   -4.8914   -1.9874 H   0  0  0  0  0  0  0  0  0  0  0  0
    6.8272   -3.7339   -1.8018 H   0  0  0  0  0  0  0  0  0  0  0  0
    4.7931   -3.8753   -1.4397 H   0  0  0  0  0  0  0  0  0  0  0  0
    2.9279   -3.6905    0.1153 H   0  0  0  0  0  0  0  0  0  0  0  0
    1.3809   -2.4045    1.4470 H   0  0  0  0  0  0  0  0  0  0  0  0
    1.1159   -0.7182    0.9506 H   0  0  0  0  0  0  0  0  0  0  0  0
    2.1921   -1.0803    2.3084 H   0  0  0  0  0  0  0  0  0  0  0  0
    3.4487    0.5911    0.3077 H   0  0  0  0  0  0  0  0  0  0  0  0
    5.3759    0.4283   -1.2305 H   0  0  0  0  0  0  0  0  0  0  0  0
    9.5374   -0.4720   -4.3803 H   0  0  0  0  0  0  0  0  0  0  0  0
    9.7353    1.9786   -4.8424 H   0  0  0  0  0  0  0  0  0  0  0  0
  1  2  1  0
  1 36  1  0
  1 37  1  0
  1 38  1  0
  2  3  1  0
  2 39  1  0
  2 40  1  0
  3  4  1  0
  4  5  2  0
  4 35  1  0
  5  6  1  0
  5 41  1  0
  6  7  2  0
  6 42  1  0
  7  8  1  0
  7 34  1  0
  8  9  1  0
  9 10  2  0
  9 23  1  0
 10 11  1  0
 10 43  1  0
 11 12  2  0
 11 44  1  0
 13 12  1  6
 12 22  1  0
 13 14  2  0
 13 15  2  0
 13 16  1  0
 16 17  1  0
 16 21  1  0
 17 18  1  0
 17 45  1  0
 17 46  1  0
 18 19  1  0
 18 47  1  0
 18 48  1  0
 19 20  1  0
 20 21  1  0
 20 49  1  0
 20 50  1  0
 21 51  1  0
 21 52  1  0
 22 23  2  0
 22 53  1  0
 23 24  1  0
 24 25  1  0
 24 54  1  0
 25 26  2  0
 25 27  1  0
 27 28  2  0
 27 33  1  0
 28 29  1  0
 28 55  1  0
 29 30  2  0
 29 56  1  0
 30 31  1  0
 30 32  1  0
 31 57  1  0
 31 58  1  0
 31 59  1  0
 32 33  2  0
 32 60  1  0
 33 61  1  0
 34 35  2  0
 34 62  1  0
 35 63  1  0
M  END

