
     RDKit          3D

 44 45  0  0  0  0  0  0  0  0999 V2000
    1.6971   -1.8091    1.5170 C   0  0  0  0  0  0  0  0  0  0  0  0
    1.5738   -1.0514    0.2080 C   0  0  0  0  0  0  0  0  0  0  0  0
    2.0197   -1.7550   -1.0065 N   0  0  0  0  0  0  0  0  0  0  0  0
    2.0008   -1.0043   -2.2403 C   0  0  0  0  0  0  0  0  0  0  0  0
    3.4028   -0.3539   -2.4691 C   0  0  0  0  0  0  0  0  0  0  0  0
    4.3970   -1.3410   -2.3787 O   0  0  0  0  0  0  0  0  0  0  0  0
    4.3998   -1.9802   -1.1226 C   0  0  2  0  0  0  0  0  0  0  0  0
    5.6373   -2.8726   -0.9582 C   0  0  0  0  0  0  0  0  0  0  0  0
    6.8284   -2.1411   -0.6455 N   0  0  0  0  0  0  0  0  0  0  0  0
    7.1008   -1.7018    0.7235 C   0  0  1  0  0  0  0  0  0  0  0  0
    8.5807   -1.9294    1.0470 C   0  0  0  0  0  0  0  0  0  0  0  0
    9.3917   -1.0536    0.2730 O   0  0  0  0  0  0  0  0  0  0  0  0
    9.0914    0.3339    0.3666 C   0  0  2  0  0  0  0  0  0  0  0  0
    9.8059    0.9950   -0.8036 C   0  0  0  0  0  0  0  0  0  0  0  0
    9.5612    0.9143    1.7097 C   0  0  0  0  0  0  0  0  0  0  0  0
    7.7015    0.5697    0.1612 O   0  0  0  0  0  0  0  0  0  0  0  0
    6.8347   -0.2117    0.9694 C   0  0  0  0  0  0  0  0  0  0  0  0
    3.0448   -2.7599   -0.9661 C   0  0  0  0  0  0  0  0  0  0  0  0
    1.1407   -1.2391    2.2841 H   0  0  0  0  0  0  0  0  0  0  0  0
    2.7719   -1.8359    1.8325 H   0  0  0  0  0  0  0  0  0  0  0  0
    1.2781   -2.8268    1.4835 H   0  0  0  0  0  0  0  0  0  0  0  0
    2.2155   -0.1324    0.2941 H   0  0  0  0  0  0  0  0  0  0  0  0
    0.5366   -0.7323    0.0084 H   0  0  0  0  0  0  0  0  0  0  0  0
    1.2245   -0.2248   -2.1971 H   0  0  0  0  0  0  0  0  0  0  0  0
    1.7843   -1.6898   -3.0750 H   0  0  0  0  0  0  0  0  0  0  0  0
    3.5579    0.4329   -1.7048 H   0  0  0  0  0  0  0  0  0  0  0  0
    3.4439    0.0818   -3.4786 H   0  0  0  0  0  0  0  0  0  0  0  0
    4.3938   -1.2271   -0.3021 H   0  0  0  0  0  0  0  0  0  0  0  0
    5.7712   -3.4630   -1.8830 H   0  0  0  0  0  0  0  0  0  0  0  0
    5.4282   -3.5761   -0.1329 H   0  0  0  0  0  0  0  0  0  0  0  0
    7.0997   -1.4515   -1.3414 H   0  0  0  0  0  0  0  0  0  0  0  0
    6.4456   -2.2752    1.4147 H   0  0  0  0  0  0  0  0  0  0  0  0
    8.8916   -2.9491    0.7743 H   0  0  0  0  0  0  0  0  0  0  0  0
    8.7542   -1.7887    2.1328 H   0  0  0  0  0  0  0  0  0  0  0  0
   10.8912    0.8380   -0.7267 H   0  0  0  0  0  0  0  0  0  0  0  0
    9.5924    2.0735   -0.8161 H   0  0  0  0  0  0  0  0  0  0  0  0
    9.4488    0.5494   -1.7428 H   0  0  0  0  0  0  0  0  0  0  0  0
   10.6439    0.7573    1.8234 H   0  0  0  0  0  0  0  0  0  0  0  0
    9.0595    0.4464    2.5690 H   0  0  0  0  0  0  0  0  0  0  0  0
    9.3498    1.9934    1.7436 H   0  0  0  0  0  0  0  0  0  0  0  0
    5.7781    0.0698    0.7454 H   0  0  0  0  0  0  0  0  0  0  0  0
    6.9770    0.0007    2.0489 H   0  0  0  0  0  0  0  0  0  0  0  0
    3.0416   -3.2928   -0.0068 H   0  0  0  0  0  0  0  0  0  0  0  0
    2.9256   -3.4618   -1.8055 H   0  0  0  0  0  0  0  0  0  0  0  0
  1  2  1  0
  1 19  1  0
  1 20  1  0
  1 21  1  0
  2  3  1  0
  2 22  1  0
  2 23  1  0
  3  4  1  0
  3 18  1  0
  4  5  1  0
  4 24  1  0
  4 25  1  0
  5  6  1  0
  5 26  1  0
  5 27  1  0
  6  7  1  0
  7  8  1  0
  7 18  1  0
  7 28  1  1
  8  9  1  0
  8 29  1  0
  8 30  1  0
  9 10  1  0
  9 31  1  0
 10 11  1  0
 10 17  1  0
 10 32  1  1
 11 12  1  0
 11 33  1  0
 11 34  1  0
 12 13  1  0
 13 14  1  6
 13 15  1  0
 13 16  1  0
 14 35  1  0
 14 36  1  0
 14 37  1  0
 15 38  1  0
 15 39  1  0
 15 40  1  0
 16 17  1  0
 17 41  1  0
 17 42  1  0
 18 43  1  0
 18 44  1  0
M  END

