
     RDKit          3D

 41 42  0  0  0  0  0  0  0  0999 V2000
    0.6952    0.8795    1.3609 C   0  0  0  0  0  0  0  0  0  0  0  0
    2.1795    0.8136    1.5470 C   0  0  0  0  0  0  0  0  0  0  0  0
    2.9668   -0.1877    1.1162 C   0  0  0  0  0  0  0  0  0  0  0  0
    4.4329   -0.2652    1.2436 C   0  0  0  0  0  0  0  0  0  0  0  0
    5.2404    0.8784    1.3581 C   0  0  0  0  0  0  0  0  0  0  0  0
    6.6406    0.7952    1.4070 C   0  0  0  0  0  0  0  0  0  0  0  0
    7.4712    2.0136    1.5203 C   0  0  0  0  0  0  0  0  0  0  0  0
    8.7266    2.1529    0.9551 C   0  0  0  0  0  0  0  0  0  0  0  0
    9.4231    3.3720    1.1128 C   0  0  0  0  0  0  0  0  0  0  0  0
    8.8860    4.4385    1.8121 C   0  0  0  0  0  0  0  0  0  0  0  0
    9.5993    5.6670    1.9642 C   0  0  0  0  0  0  0  0  0  0  0  0
   10.2006    6.6552    2.0720 N   0  0  0  0  0  0  0  0  0  0  0  0
    7.5599    4.3309    2.4300 C   0  0  0  0  0  0  0  0  0  0  0  0
    6.9805    5.1802    3.0795 O   0  0  0  0  0  0  0  0  0  0  0  0
    6.9586    3.0719    2.2149 N   0  0  0  0  0  0  0  0  0  0  0  0
    6.0624    2.9718    2.6848 H   0  0  0  0  0  0  0  0  0  0  0  0
    7.2466   -0.4704    1.3122 C   0  0  0  0  0  0  0  0  0  0  0  0
    6.4795   -1.6303    1.2043 C   0  0  0  0  0  0  0  0  0  0  0  0
    7.1533   -2.9871    1.0567 C   0  0  0  0  0  0  0  0  0  0  0  0
    8.4809   -3.0128    1.5198 O   0  0  0  0  0  0  0  0  0  0  0  0
    8.6108   -3.1794    2.9122 C   0  0  0  0  0  0  0  0  0  0  0  0
    5.0771   -1.5239    1.1832 C   0  0  0  0  0  0  0  0  0  0  0  0
    4.3408   -2.6733    1.0433 O   0  0  0  0  0  0  0  0  0  0  0  0
    3.7102   -3.1724    2.2176 C   0  0  0  0  0  0  0  0  0  0  0  0
    0.1742    0.9580    2.3314 H   0  0  0  0  0  0  0  0  0  0  0  0
    0.3080   -0.0038    0.8306 H   0  0  0  0  0  0  0  0  0  0  0  0
    0.4087    1.7776    0.7852 H   0  0  0  0  0  0  0  0  0  0  0  0
    2.6310    1.6565    2.0857 H   0  0  0  0  0  0  0  0  0  0  0  0
    2.5021   -1.0427    0.6133 H   0  0  0  0  0  0  0  0  0  0  0  0
    4.7545    1.8564    1.3369 H   0  0  0  0  0  0  0  0  0  0  0  0
    9.1526    1.3438    0.3652 H   0  0  0  0  0  0  0  0  0  0  0  0
   10.4122    3.4829    0.6615 H   0  0  0  0  0  0  0  0  0  0  0  0
    8.3322   -0.5728    1.3453 H   0  0  0  0  0  0  0  0  0  0  0  0
    7.1906   -3.2475   -0.0154 H   0  0  0  0  0  0  0  0  0  0  0  0
    6.5444   -3.7699    1.5448 H   0  0  0  0  0  0  0  0  0  0  0  0
    9.6854   -3.2092    3.1436 H   0  0  0  0  0  0  0  0  0  0  0  0
    8.1507   -4.1285    3.2520 H   0  0  0  0  0  0  0  0  0  0  0  0
    8.1511   -2.3499    3.4836 H   0  0  0  0  0  0  0  0  0  0  0  0
    4.4549   -3.4390    2.9888 H   0  0  0  0  0  0  0  0  0  0  0  0
    3.1587   -4.0760    1.9234 H   0  0  0  0  0  0  0  0  0  0  0  0
    3.0046   -2.4407    2.6462 H   0  0  0  0  0  0  0  0  0  0  0  0
  1  2  1  0
  1 25  1  0
  1 26  1  0
  1 27  1  0
  2  3  2  0
  2 28  1  0
  3  4  1  0
  3 29  1  0
  4  5  2  0
  4 22  1  0
  5  6  1  0
  5 30  1  0
  6  7  1  0
  6 17  2  0
  7  8  2  0
  7 15  1  0
  8  9  1  0
  8 31  1  0
  9 10  2  0
  9 32  1  0
 10 11  1  0
 10 13  1  0
 11 12  3  0
 13 14  2  0
 13 15  1  0
 15 16  1  0
 17 18  1  0
 17 33  1  0
 18 19  1  0
 18 22  2  0
 19 20  1  0
 19 34  1  0
 19 35  1  0
 20 21  1  0
 21 36  1  0
 21 37  1  0
 21 38  1  0
 22 23  1  0
 23 24  1  0
 24 39  1  0
 24 40  1  0
 24 41  1  0
M  END

