
     RDKit          3D

 31 33  0  0  0  0  0  0  0  0999 V2000
    0.8707    0.1761    0.0039 C   0  0  0  0  0  0  0  0  0  0  0  0
    2.3561    0.0317    0.1276 C   0  0  0  0  0  0  0  0  0  0  0  0
    3.1941    1.1222    0.4024 C   0  0  0  0  0  0  0  0  0  0  0  0
    4.5782    0.9676    0.5252 C   0  0  0  0  0  0  0  0  0  0  0  0
    5.2190   -0.2903    0.3783 C   0  0  0  0  0  0  0  0  0  0  0  0
    4.4099   -1.3718    0.0968 C   0  0  0  0  0  0  0  0  0  0  0  0
    2.9877   -1.2410   -0.0283 C   0  0  0  0  0  0  0  0  0  0  0  0
    2.4869   -2.5247   -0.2982 C   0  0  0  0  0  0  0  0  0  0  0  0
    3.6187   -3.3934   -0.3355 C   0  0  0  0  0  0  0  0  0  0  0  0
    4.7404   -2.7234   -0.1075 N   0  0  0  0  0  0  0  0  0  0  0  0
    6.1318   -3.3316   -0.1237 C   0  0  0  0  0  0  0  0  0  0  0  0
    6.9379   -3.1363    1.1071 C   0  0  0  0  0  0  0  0  0  0  0  0
    8.1323   -2.4200    1.0641 C   0  0  0  0  0  0  0  0  0  0  0  0
    8.9722   -2.2141    2.0792 N   0  0  0  0  0  0  0  0  0  0  0  0
    8.6032   -2.7926    3.2895 C   0  0  0  0  0  0  0  0  0  0  0  0
    7.4497   -3.5426    3.4235 C   0  0  0  0  0  0  0  0  0  0  0  0
    7.0500   -4.3234    5.1427 Br  0  0  0  0  0  0  0  0  0  0  0  0
    6.5507   -3.7641    2.3680 C   0  0  0  0  0  0  0  0  0  0  0  0
    0.5528    1.2193    0.1320 H   0  0  0  0  0  0  0  0  0  0  0  0
    0.3531   -0.4370    0.7610 H   0  0  0  0  0  0  0  0  0  0  0  0
    0.5202   -0.1736   -0.9818 H   0  0  0  0  0  0  0  0  0  0  0  0
    2.7533    2.1129    0.5294 H   0  0  0  0  0  0  0  0  0  0  0  0
    5.1940    1.8403    0.7505 H   0  0  0  0  0  0  0  0  0  0  0  0
    6.2931   -0.3925    0.5077 H   0  0  0  0  0  0  0  0  0  0  0  0
    1.4539   -2.8330   -0.4416 H   0  0  0  0  0  0  0  0  0  0  0  0
    3.6366   -4.4669   -0.5165 H   0  0  0  0  0  0  0  0  0  0  0  0
    6.6334   -2.8973   -1.0023 H   0  0  0  0  0  0  0  0  0  0  0  0
    5.9290   -4.3965   -0.3455 H   0  0  0  0  0  0  0  0  0  0  0  0
    8.4375   -1.9788    0.0991 H   0  0  0  0  0  0  0  0  0  0  0  0
    9.2690   -2.6325    4.1400 H   0  0  0  0  0  0  0  0  0  0  0  0
    5.6700   -4.3914    2.4809 H   0  0  0  0  0  0  0  0  0  0  0  0
  1  2  1  0
  1 19  1  0
  1 20  1  0
  1 21  1  0
  2  3  2  0
  2  7  1  0
  3  4  1  0
  3 22  1  0
  4  5  2  0
  4 23  1  0
  5  6  1  0
  5 24  1  0
  6  7  2  0
  6 10  1  0
  7  8  1  0
  8  9  2  0
  8 25  1  0
  9 10  1  0
  9 26  1  0
 10 11  1  0
 11 12  1  0
 11 27  1  0
 11 28  1  0
 12 13  2  0
 12 18  1  0
 13 14  1  0
 13 29  1  0
 14 15  2  0
 15 16  1  0
 15 30  1  0
 16 17  1  0
 16 18  2  0
 18 31  1  0
M  END

