
     RDKit          3D

 42 43  0  0  0  0  0  0  0  0999 V2000
    1.8164    1.1089   -0.0558 C   0  0  0  0  0  0  0  0  0  0  0  0
    3.1110    0.2724   -0.1566 C   0  0  1  0  0  0  0  0  0  0  0  0
    3.2078   -0.7296    1.0136 C   0  0  0  0  0  0  0  0  0  0  0  0
    3.2328   -0.4096   -1.4978 C   0  0  0  0  0  0  0  0  0  0  0  0
    4.3002   -0.0564   -2.3709 C   0  0  0  0  0  0  0  0  0  0  0  0
    4.4295   -0.6807   -3.6456 C   0  0  0  0  0  0  0  0  0  0  0  0
    3.4638   -1.6635   -4.0119 C   0  0  0  0  0  0  0  0  0  0  0  0
    3.6544   -2.2116   -5.2320 O   0  0  0  0  0  0  0  0  0  0  0  0
    2.7596   -3.1680   -5.7758 C   0  0  0  0  0  0  0  0  0  0  0  0
    3.1676   -3.5525   -7.1964 C   0  0  0  0  0  0  0  0  0  0  0  0
    2.4529   -4.3026   -7.8392 O   0  0  0  0  0  0  0  0  0  0  0  0
    4.3370   -3.0174   -7.6308 N   0  0  0  0  0  0  0  0  0  0  0  0
    4.8507   -3.2191   -8.9681 C   0  0  0  0  0  0  0  0  0  0  0  0
    5.0793   -1.8846   -9.7086 C   0  0  0  0  0  0  0  0  0  0  0  0
    6.0414   -0.9696   -9.0155 C   0  0  0  0  0  0  0  0  0  0  0  0
    5.8553    0.0431   -8.0922 C   0  0  0  0  0  0  0  0  0  0  0  0
    7.0581    0.5533   -7.6685 N   0  0  0  0  0  0  0  0  0  0  0  0
    7.9739   -0.1280   -8.3142 C   0  0  0  0  0  0  0  0  0  0  0  0
    7.4156   -1.0668   -9.1391 N   0  0  0  0  0  0  0  0  0  0  0  0
    7.9154   -1.7015   -9.7506 H   0  0  0  0  0  0  0  0  0  0  0  0
    2.3852   -2.0409   -3.1638 C   0  0  0  0  0  0  0  0  0  0  0  0
    2.2763   -1.4010   -1.8917 C   0  0  0  0  0  0  0  0  0  0  0  0
    1.7825    1.6444    0.9076 H   0  0  0  0  0  0  0  0  0  0  0  0
    0.9188    0.4738   -0.1210 H   0  0  0  0  0  0  0  0  0  0  0  0
    1.7626    1.8534   -0.8648 H   0  0  0  0  0  0  0  0  0  0  0  0
    3.9616    0.9690   -0.0670 H   0  0  0  0  0  0  0  0  0  0  0  0
    2.3706   -1.4452    1.0049 H   0  0  0  0  0  0  0  0  0  0  0  0
    3.1822   -0.1937    1.9770 H   0  0  0  0  0  0  0  0  0  0  0  0
    4.1448   -1.3054    0.9660 H   0  0  0  0  0  0  0  0  0  0  0  0
    5.0196    0.7025   -2.0586 H   0  0  0  0  0  0  0  0  0  0  0  0
    5.2231   -0.4240   -4.3471 H   0  0  0  0  0  0  0  0  0  0  0  0
    1.7321   -2.7683   -5.8103 H   0  0  0  0  0  0  0  0  0  0  0  0
    2.7447   -4.0825   -5.1571 H   0  0  0  0  0  0  0  0  0  0  0  0
    4.8250   -2.3775   -7.0108 H   0  0  0  0  0  0  0  0  0  0  0  0
    4.1163   -3.8367   -9.5045 H   0  0  0  0  0  0  0  0  0  0  0  0
    5.7978   -3.7890   -8.9294 H   0  0  0  0  0  0  0  0  0  0  0  0
    4.1131   -1.3673   -9.8133 H   0  0  0  0  0  0  0  0  0  0  0  0
    5.4299   -2.1075  -10.7316 H   0  0  0  0  0  0  0  0  0  0  0  0
    4.9060    0.4297   -7.7211 H   0  0  0  0  0  0  0  0  0  0  0  0
    9.0530    0.0086   -8.2349 H   0  0  0  0  0  0  0  0  0  0  0  0
    1.6687   -2.8042   -3.4614 H   0  0  0  0  0  0  0  0  0  0  0  0
    1.4609   -1.6735   -1.2214 H   0  0  0  0  0  0  0  0  0  0  0  0
  1  2  1  0
  1 23  1  0
  1 24  1  0
  1 25  1  0
  2  3  1  0
  2  4  1  0
  2 26  1  1
  3 27  1  0
  3 28  1  0
  3 29  1  0
  4  5  2  0
  4 22  1  0
  5  6  1  0
  5 30  1  0
  6  7  2  0
  6 31  1  0
  7  8  1  0
  7 21  1  0
  8  9  1  0
  9 10  1  0
  9 32  1  0
  9 33  1  0
 10 11  2  0
 10 12  1  0
 12 13  1  0
 12 34  1  0
 13 14  1  0
 13 35  1  0
 13 36  1  0
 14 15  1  0
 14 37  1  0
 14 38  1  0
 15 16  2  0
 15 19  1  0
 16 17  1  0
 16 39  1  0
 17 18  2  0
 18 19  1  0
 18 40  1  0
 19 20  1  0
 21 22  2  0
 21 41  1  0
 22 42  1  0
M  END

