
     RDKit          3D

 35 35  0  0  0  0  0  0  0  0999 V2000
    2.7051    0.6120    1.3326 C   0  0  0  0  0  0  0  0  0  0  0  0
    3.2122   -0.1837    0.2861 O   0  0  0  0  0  0  0  0  0  0  0  0
    3.4276    0.3961   -0.9446 C   0  0  0  0  0  0  0  0  0  0  0  0
    3.1303    1.6957   -1.2763 C   0  0  0  0  0  0  0  0  0  0  0  0
    3.3618    2.1798   -2.6110 C   0  0  0  0  0  0  0  0  0  0  0  0
    3.0394    3.6064   -2.9523 C   0  0  0  0  0  0  0  0  0  0  0  0
    3.8835    1.2780   -3.5599 C   0  0  0  0  0  0  0  0  0  0  0  0
    4.2085   -0.0423   -3.2806 C   0  0  0  0  0  0  0  0  0  0  0  0
    4.7848   -0.9647   -4.3177 C   0  0  0  0  0  0  0  0  0  0  0  0
    4.0198   -0.4977   -1.9063 C   0  0  0  0  0  0  0  0  0  0  0  0
    4.1311   -2.1447   -1.4598 S   0  0  0  0  0  0  0  0  0  0  0  0
    2.4626   -3.0431   -1.7430 C   0  0  0  0  0  0  0  0  0  0  0  0
    2.2808   -4.1722   -0.7324 C   0  0  1  0  0  0  0  0  0  0  0  0
    1.7305   -3.6616    0.6089 C   0  0  0  0  0  0  0  0  0  0  0  0
    1.4633   -5.3136   -1.3717 C   0  0  0  0  0  0  0  0  0  0  0  0
    1.4265   -5.5152   -2.5548 O   0  0  0  0  0  0  0  0  0  0  0  0
    0.8067   -6.1250   -0.5190 O   0  0  0  0  0  0  0  0  0  0  0  0
    2.6229   -0.0363    2.2162 H   0  0  0  0  0  0  0  0  0  0  0  0
    1.7073    1.0205    1.0901 H   0  0  0  0  0  0  0  0  0  0  0  0
    3.3822    1.4530    1.5643 H   0  0  0  0  0  0  0  0  0  0  0  0
    2.7184    2.3755   -0.5293 H   0  0  0  0  0  0  0  0  0  0  0  0
    3.6200    4.3268   -2.3426 H   0  0  0  0  0  0  0  0  0  0  0  0
    1.9726    3.8513   -2.7794 H   0  0  0  0  0  0  0  0  0  0  0  0
    3.2564    3.8258   -4.0093 H   0  0  0  0  0  0  0  0  0  0  0  0
    4.0595    1.6367   -4.5801 H   0  0  0  0  0  0  0  0  0  0  0  0
    4.9391   -0.4384   -5.2709 H   0  0  0  0  0  0  0  0  0  0  0  0
    4.1316   -1.8331   -4.5360 H   0  0  0  0  0  0  0  0  0  0  0  0
    5.7644   -1.3783   -4.0055 H   0  0  0  0  0  0  0  0  0  0  0  0
    2.5351   -3.4367   -2.7715 H   0  0  0  0  0  0  0  0  0  0  0  0
    1.6827   -2.2702   -1.7022 H   0  0  0  0  0  0  0  0  0  0  0  0
    3.2766   -4.6284   -0.5444 H   0  0  0  0  0  0  0  0  0  0  0  0
    0.6844   -3.3292    0.5130 H   0  0  0  0  0  0  0  0  0  0  0  0
    2.3175   -2.7987    0.9569 H   0  0  0  0  0  0  0  0  0  0  0  0
    1.7881   -4.4220    1.4070 H   0  0  0  0  0  0  0  0  0  0  0  0
    0.9210   -5.8304    0.3955 H   0  0  0  0  0  0  0  0  0  0  0  0
  1  2  1  0
  1 18  1  0
  1 19  1  0
  1 20  1  0
  2  3  1  0
  3  4  2  0
  3 10  1  0
  4  5  1  0
  4 21  1  0
  5  6  1  0
  5  7  2  0
  6 22  1  0
  6 23  1  0
  6 24  1  0
  7  8  1  0
  7 25  1  0
  8  9  1  0
  8 10  2  0
  9 26  1  0
  9 27  1  0
  9 28  1  0
 10 11  1  0
 11 12  1  0
 12 13  1  0
 12 29  1  0
 12 30  1  0
 13 14  1  0
 13 15  1  0
 13 31  1  6
 14 32  1  0
 14 33  1  0
 14 34  1  0
 15 16  2  0
 15 17  1  0
 17 35  1  0
M  END

