
     RDKit          3D

125136  0  0  0  0  0  0  0  0999 V2000
    1.4575    1.0532   -0.0839 C   0  0  0  0  0  0  0  0  0  0  0  0
    2.6316    1.0892   -0.8579 O   0  0  0  0  0  0  0  0  0  0  0  0
    3.0841   -0.0400   -1.4669 C   0  0  0  0  0  0  0  0  0  0  0  0
    2.4749   -1.2911   -1.2938 C   0  0  0  0  0  0  0  0  0  0  0  0
    2.9758   -2.4150   -1.9726 C   0  0  0  0  0  0  0  0  0  0  0  0
    4.0622   -2.2530   -2.8592 C   0  0  0  0  0  0  0  0  0  0  0  0
    4.6883   -1.0188   -2.9911 C   0  0  0  0  0  0  0  0  0  0  0  0
    4.2319    0.1144   -2.2966 C   0  0  0  0  0  0  0  0  0  0  0  0
    4.9492    1.4070   -2.4480 C   0  0  0  0  0  0  0  0  0  0  0  0
    4.2875    2.6371   -2.6327 C   0  0  0  0  0  0  0  0  0  0  0  0
    4.9938    3.8206   -2.8295 C   0  0  0  0  0  0  0  0  0  0  0  0
    6.4016    3.8329   -2.8259 C   0  0  0  0  0  0  0  0  0  0  0  0
    7.1218    5.0383   -3.0134 N   0  0  0  0  0  0  0  0  0  0  0  0
    6.6640    6.2464   -2.4232 C   0  0  0  0  0  0  0  0  0  0  0  0
    6.1712    6.2606   -1.1051 C   0  0  0  0  0  0  0  0  0  0  0  0
    5.7180    7.4505   -0.5334 C   0  0  0  0  0  0  0  0  0  0  0  0
    5.7623    8.6489   -1.2533 C   0  0  0  0  0  0  0  0  0  0  0  0
    6.2598    8.6413   -2.5604 C   0  0  0  0  0  0  0  0  0  0  0  0
    6.6993    7.4532   -3.1463 C   0  0  0  0  0  0  0  0  0  0  0  0
    8.3120    5.0416   -3.7902 C   0  0  0  0  0  0  0  0  0  0  0  0
    8.3710    4.3488   -5.0133 C   0  0  0  0  0  0  0  0  0  0  0  0
    9.5447    4.3480   -5.7686 C   0  0  0  0  0  0  0  0  0  0  0  0
   10.6732    5.0488   -5.3306 C   0  0  0  0  0  0  0  0  0  0  0  0
   10.6163    5.7463   -4.1197 C   0  0  0  0  0  0  0  0  0  0  0  0
    9.4518    5.7387   -3.3499 C   0  0  0  0  0  0  0  0  0  0  0  0
    7.0729    2.6125   -2.6295 C   0  0  0  0  0  0  0  0  0  0  0  0
    6.3578    1.4300   -2.4558 C   0  0  0  0  0  0  0  0  0  0  0  0
    4.3170   -3.5220   -3.6304 C   0  0  0  0  0  0  0  0  0  0  0  0
    3.2314   -4.4311   -3.1205 C   0  0  0  0  0  0  0  0  0  0  0  0
    2.8824   -5.6977   -3.5521 C   0  0  0  0  0  0  0  0  0  0  0  0
    1.8069   -6.3835   -2.9646 C   0  0  0  0  0  0  0  0  0  0  0  0
    1.1266   -5.8400   -1.8906 C   0  0  0  0  0  0  0  0  0  0  0  0
    1.5096   -4.5628   -1.3760 C   0  0  0  0  0  0  0  0  0  0  0  0
    2.4974   -3.8111   -2.0623 C   0  0  0  0  0  0  0  0  0  0  0  0
    0.7440   -4.3592   -0.1278 C   0  0  0  0  0  0  0  0  0  0  0  0
    0.8584   -3.4100    0.9017 C   0  0  0  0  0  0  0  0  0  0  0  0
    0.0415   -3.5076    2.0372 C   0  0  0  0  0  0  0  0  0  0  0  0
    0.1425   -2.6522    3.0907 O   0  0  0  0  0  0  0  0  0  0  0  0
    1.2262   -1.7576    3.1713 C   0  0  0  0  0  0  0  0  0  0  0  0
   -0.9299   -4.5417    2.1625 C   0  0  0  0  0  0  0  0  0  0  0  0
   -1.8137   -4.6664    3.3507 C   0  0  0  0  0  0  0  0  0  0  0  0
   -2.4686   -3.5597    3.9263 C   0  0  0  0  0  0  0  0  0  0  0  0
   -3.3298   -3.7067    5.0101 C   0  0  0  0  0  0  0  0  0  0  0  0
   -3.5796   -4.9748    5.5679 C   0  0  0  0  0  0  0  0  0  0  0  0
   -4.4588   -5.1259    6.6694 N   0  0  0  0  0  0  0  0  0  0  0  0
   -5.6705   -4.3868    6.7210 C   0  0  0  0  0  0  0  0  0  0  0  0
   -6.4614   -4.2238    5.5685 C   0  0  0  0  0  0  0  0  0  0  0  0
   -7.6496   -3.4935    5.6245 C   0  0  0  0  0  0  0  0  0  0  0  0
   -8.0814   -2.9269    6.8281 C   0  0  0  0  0  0  0  0  0  0  0  0
   -7.3027   -3.0930    7.9780 C   0  0  0  0  0  0  0  0  0  0  0  0
   -6.1045   -3.8070    7.9276 C   0  0  0  0  0  0  0  0  0  0  0  0
   -4.1378   -6.0304    7.7170 C   0  0  0  0  0  0  0  0  0  0  0  0
   -2.8289   -6.0973    8.2293 C   0  0  0  0  0  0  0  0  0  0  0  0
   -2.5159   -6.9925    9.2534 C   0  0  0  0  0  0  0  0  0  0  0  0
   -3.5002   -7.8238    9.7978 C   0  0  0  0  0  0  0  0  0  0  0  0
   -4.8044   -7.7550    9.2974 C   0  0  0  0  0  0  0  0  0  0  0  0
   -5.1226   -6.8748    8.2619 C   0  0  0  0  0  0  0  0  0  0  0  0
   -2.9295   -6.0865    5.0033 C   0  0  0  0  0  0  0  0  0  0  0  0
   -2.0639   -5.9286    3.9232 C   0  0  0  0  0  0  0  0  0  0  0  0
   -0.9953   -5.4990    1.1362 C   0  0  0  0  0  0  0  0  0  0  0  0
   -0.1636   -5.4299    0.0244 C   0  0  0  0  0  0  0  0  0  0  0  0
   -0.0114   -6.4238   -1.0976 C   0  0  0  0  0  0  0  0  0  0  0  0
    1.6566   -7.6922   -3.6603 C   0  0  0  0  0  0  0  0  0  0  0  0
    0.8664   -8.5871   -3.4483 O   0  0  0  0  0  0  0  0  0  0  0  0
    2.6535   -7.7155   -4.6508 N   0  0  0  0  0  0  0  0  0  0  0  0
    2.8785   -8.8475   -5.5404 C   0  0  0  0  0  0  0  0  0  0  0  0
    1.8383   -8.9880   -6.6599 C   0  0  0  0  0  0  0  0  0  0  0  0
    1.7341   -7.8220   -7.6602 C   0  0  1  0  0  0  0  0  0  0  0  0
    3.0402   -7.5785   -8.4289 C   0  0  0  0  0  0  0  0  0  0  0  0
    0.5633   -8.0619   -8.6228 C   0  0  0  0  0  0  0  0  0  0  0  0
    3.4433   -6.5530   -4.6351 C   0  0  0  0  0  0  0  0  0  0  0  0
    4.3830   -6.3337   -5.3704 O   0  0  0  0  0  0  0  0  0  0  0  0
    1.2767    2.0813    0.2577 H   0  0  0  0  0  0  0  0  0  0  0  0
    1.5684    0.4013    0.8006 H   0  0  0  0  0  0  0  0  0  0  0  0
    0.5855    0.7090   -0.6684 H   0  0  0  0  0  0  0  0  0  0  0  0
    1.5898   -1.3793   -0.6701 H   0  0  0  0  0  0  0  0  0  0  0  0
    5.5266   -0.9063   -3.6830 H   0  0  0  0  0  0  0  0  0  0  0  0
    3.1983    2.6636   -2.6482 H   0  0  0  0  0  0  0  0  0  0  0  0
    4.4494    4.7521   -2.9945 H   0  0  0  0  0  0  0  0  0  0  0  0
    6.1469    5.3322   -0.5316 H   0  0  0  0  0  0  0  0  0  0  0  0
    5.3395    7.4417    0.4922 H   0  0  0  0  0  0  0  0  0  0  0  0
    5.4132    9.5796   -0.7999 H   0  0  0  0  0  0  0  0  0  0  0  0
    6.2951    9.5685   -3.1384 H   0  0  0  0  0  0  0  0  0  0  0  0
    7.0739    7.4530   -4.1716 H   0  0  0  0  0  0  0  0  0  0  0  0
    7.4896    3.8110   -5.3677 H   0  0  0  0  0  0  0  0  0  0  0  0
    9.5717    3.8042   -6.7166 H   0  0  0  0  0  0  0  0  0  0  0  0
   11.5884    5.0513   -5.9274 H   0  0  0  0  0  0  0  0  0  0  0  0
   11.4922    6.2932   -3.7608 H   0  0  0  0  0  0  0  0  0  0  0  0
    9.4186    6.2740   -2.3991 H   0  0  0  0  0  0  0  0  0  0  0  0
    8.1639    2.5944   -2.6056 H   0  0  0  0  0  0  0  0  0  0  0  0
    6.9095    0.5020   -2.2867 H   0  0  0  0  0  0  0  0  0  0  0  0
    5.3149   -3.9566   -3.4408 H   0  0  0  0  0  0  0  0  0  0  0  0
    4.2587   -3.3778   -4.7225 H   0  0  0  0  0  0  0  0  0  0  0  0
    1.6153   -2.6327    0.8480 H   0  0  0  0  0  0  0  0  0  0  0  0
    1.1494   -1.2605    4.1477 H   0  0  0  0  0  0  0  0  0  0  0  0
    1.1885   -0.9877    2.3803 H   0  0  0  0  0  0  0  0  0  0  0  0
    2.1970   -2.2806    3.1075 H   0  0  0  0  0  0  0  0  0  0  0  0
   -2.2961   -2.5632    3.5193 H   0  0  0  0  0  0  0  0  0  0  0  0
   -3.8202   -2.8284    5.4340 H   0  0  0  0  0  0  0  0  0  0  0  0
   -6.1395   -4.6753    4.6283 H   0  0  0  0  0  0  0  0  0  0  0  0
   -8.2508   -3.3790    4.7186 H   0  0  0  0  0  0  0  0  0  0  0  0
   -9.0156   -2.3619    6.8696 H   0  0  0  0  0  0  0  0  0  0  0  0
   -7.6230   -2.6507    8.9251 H   0  0  0  0  0  0  0  0  0  0  0  0
   -5.4960   -3.9215    8.8267 H   0  0  0  0  0  0  0  0  0  0  0  0
   -2.0582   -5.4424    7.8186 H   0  0  0  0  0  0  0  0  0  0  0  0
   -1.4933   -7.0298    9.6383 H   0  0  0  0  0  0  0  0  0  0  0  0
   -3.2532   -8.5187   10.6038 H   0  0  0  0  0  0  0  0  0  0  0  0
   -5.5833   -8.4035    9.7075 H   0  0  0  0  0  0  0  0  0  0  0  0
   -6.1398   -6.8365    7.8677 H   0  0  0  0  0  0  0  0  0  0  0  0
   -3.1013   -7.0807    5.4195 H   0  0  0  0  0  0  0  0  0  0  0  0
   -1.5624   -6.8112    3.5193 H   0  0  0  0  0  0  0  0  0  0  0  0
   -1.7162   -6.3154    1.2241 H   0  0  0  0  0  0  0  0  0  0  0  0
   -0.9180   -6.5167   -1.7224 H   0  0  0  0  0  0  0  0  0  0  0  0
    0.2102   -7.4441   -0.7421 H   0  0  0  0  0  0  0  0  0  0  0  0
    2.8655   -9.7612   -4.9257 H   0  0  0  0  0  0  0  0  0  0  0  0
    3.8926   -8.7245   -5.9457 H   0  0  0  0  0  0  0  0  0  0  0  0
    0.8544   -9.1580   -6.1922 H   0  0  0  0  0  0  0  0  0  0  0  0
    2.0794   -9.9152   -7.2122 H   0  0  0  0  0  0  0  0  0  0  0  0
    1.5058   -6.9051   -7.0844 H   0  0  0  0  0  0  0  0  0  0  0  0
    3.3464   -8.4838   -8.9825 H   0  0  0  0  0  0  0  0  0  0  0  0
    3.8635   -7.2857   -7.7603 H   0  0  0  0  0  0  0  0  0  0  0  0
    2.9143   -6.7690   -9.1664 H   0  0  0  0  0  0  0  0  0  0  0  0
    0.7337   -8.9656   -9.2336 H   0  0  0  0  0  0  0  0  0  0  0  0
    0.4336   -7.2141   -9.3148 H   0  0  0  0  0  0  0  0  0  0  0  0
   -0.3858   -8.2022   -8.0802 H   0  0  0  0  0  0  0  0  0  0  0  0
  1  2  1  0
  1 73  1  0
  1 74  1  0
  1 75  1  0
  2  3  1  0
  3  4  2  0
  3  8  1  0
  4  5  1  0
  4 76  1  0
  5  6  2  0
  5 34  1  0
  6  7  1  0
  6 28  1  0
  7  8  2  0
  7 77  1  0
  8  9  1  0
  9 10  2  0
  9 27  1  0
 10 11  1  0
 10 78  1  0
 11 12  2  0
 11 79  1  0
 12 13  1  0
 12 26  1  0
 13 14  1  0
 13 20  1  0
 14 15  2  0
 14 19  1  0
 15 16  1  0
 15 80  1  0
 16 17  2  0
 16 81  1  0
 17 18  1  0
 17 82  1  0
 18 19  2  0
 18 83  1  0
 19 84  1  0
 20 21  2  0
 20 25  1  0
 21 22  1  0
 21 85  1  0
 22 23  2  0
 22 86  1  0
 23 24  1  0
 23 87  1  0
 24 25  2  0
 24 88  1  0
 25 89  1  0
 26 27  2  0
 26 90  1  0
 27 91  1  0
 28 29  1  0
 28 92  1  0
 28 93  1  0
 29 30  1  0
 29 34  2  0
 30 31  2  0
 30 71  1  0
 31 32  1  0
 31 63  1  0
 32 33  2  0
 32 62  1  0
 33 34  1  0
 33 35  1  0
 35 36  2  0
 35 61  1  0
 36 37  1  0
 36 94  1  0
 37 38  1  0
 37 40  2  0
 38 39  1  0
 39 95  1  0
 39 96  1  0
 39 97  1  0
 40 41  1  0
 40 60  1  0
 41 42  2  0
 41 59  1  0
 42 43  1  0
 42 98  1  0
 43 44  2  0
 43 99  1  0
 44 45  1  0
 44 58  1  0
 45 46  1  0
 45 52  1  0
 46 47  2  0
 46 51  1  0
 47 48  1  0
 47100  1  0
 48 49  2  0
 48101  1  0
 49 50  1  0
 49102  1  0
 50 51  2  0
 50103  1  0
 51104  1  0
 52 53  2  0
 52 57  1  0
 53 54  1  0
 53105  1  0
 54 55  2  0
 54106  1  0
 55 56  1  0
 55107  1  0
 56 57  2  0
 56108  1  0
 57109  1  0
 58 59  2  0
 58110  1  0
 59111  1  0
 60 61  2  0
 60112  1  0
 61 62  1  0
 62113  1  0
 62114  1  0
 63 64  2  0
 63 65  1  0
 65 66  1  0
 65 71  1  0
 66 67  1  0
 66115  1  0
 66116  1  0
 67 68  1  0
 67117  1  0
 67118  1  0
 68 69  1  0
 68 70  1  0
 68119  1  1
 69120  1  0
 69121  1  0
 69122  1  0
 70123  1  0
 70124  1  0
 70125  1  0
 71 72  2  0
M  END

