
     RDKit          3D

 54 56  0  0  0  0  0  0  0  0999 V2000
    1.8384   -0.4115    1.1098 C   0  0  0  0  0  0  0  0  0  0  0  0
    3.2312   -0.1721    0.5274 C   0  0  0  0  0  0  0  0  0  0  0  0
    3.1991    0.5248   -0.8436 C   0  0  1  0  0  0  0  0  0  0  0  0
    2.6064    1.8551   -0.7305 N   0  0  0  0  0  0  0  0  0  0  0  0
    1.7513    2.3352   -1.7541 C   0  0  0  0  0  0  0  0  0  0  0  0
    1.3785    1.5681   -2.6614 O   0  0  0  0  0  0  0  0  0  0  0  0
    1.3380    3.7197   -1.6647 C   0  0  0  0  0  0  0  0  0  0  0  0
    0.5423    4.2792   -2.7322 C   0  0  0  0  0  0  0  0  0  0  0  0
    0.1123    5.5871   -2.7057 C   0  0  0  0  0  0  0  0  0  0  0  0
    0.4321    6.4535   -1.6236 C   0  0  0  0  0  0  0  0  0  0  0  0
    1.2070    5.9173   -0.5539 C   0  0  0  0  0  0  0  0  0  0  0  0
    1.5992    6.8108    0.5914 C   0  0  0  0  0  0  0  0  0  0  0  0
    2.8054    7.6542    0.3637 N   0  0  0  0  0  0  0  0  0  0  0  0
    3.6148    7.5558   -0.8142 C   0  0  0  0  0  0  0  0  0  0  0  0
    3.3431    8.8298   -1.6868 C   0  0  0  0  0  0  0  0  0  0  0  0
    3.5843    9.9815   -0.9179 O   0  0  0  0  0  0  0  0  0  0  0  0
    2.7609   10.0774    0.2039 C   0  0  0  0  0  0  0  0  0  0  0  0
    3.0066    8.8423    1.1388 C   0  0  0  0  0  0  0  0  0  0  0  0
    1.6363    4.5972   -0.5704 C   0  0  0  0  0  0  0  0  0  0  0  0
    4.5501    0.5654   -1.5635 C   0  0  0  0  0  0  0  0  0  0  0  0
    4.5738    0.7843   -2.9526 C   0  0  0  0  0  0  0  0  0  0  0  0
    5.7815    0.8626   -3.6484 C   0  0  0  0  0  0  0  0  0  0  0  0
    7.0149    0.7293   -2.9912 C   0  0  0  0  0  0  0  0  0  0  0  0
    8.3242    0.8126   -3.7402 C   0  0  0  0  0  0  0  0  0  0  0  0
    6.9903    0.5133   -1.6056 C   0  0  0  0  0  0  0  0  0  0  0  0
    5.7828    0.4314   -0.9053 C   0  0  0  0  0  0  0  0  0  0  0  0
    1.8934   -0.8748    2.1084 H   0  0  0  0  0  0  0  0  0  0  0  0
    1.2464   -1.0783    0.4614 H   0  0  0  0  0  0  0  0  0  0  0  0
    1.2861    0.5365    1.1961 H   0  0  0  0  0  0  0  0  0  0  0  0
    3.7646   -1.1330    0.4262 H   0  0  0  0  0  0  0  0  0  0  0  0
    3.8250    0.4332    1.2378 H   0  0  0  0  0  0  0  0  0  0  0  0
    2.5053   -0.0249   -1.4976 H   0  0  0  0  0  0  0  0  0  0  0  0
    3.2292    2.5489   -0.3302 H   0  0  0  0  0  0  0  0  0  0  0  0
    0.2905    3.6157   -3.5610 H   0  0  0  0  0  0  0  0  0  0  0  0
   -0.4973    5.9680   -3.5311 H   0  0  0  0  0  0  0  0  0  0  0  0
    0.0225    7.4649   -1.5763 H   0  0  0  0  0  0  0  0  0  0  0  0
    1.8354    6.2420    1.5070 H   0  0  0  0  0  0  0  0  0  0  0  0
    0.7960    7.5165    0.8667 H   0  0  0  0  0  0  0  0  0  0  0  0
    3.3692    6.6419   -1.3635 H   0  0  0  0  0  0  0  0  0  0  0  0
    4.6774    7.5740   -0.5252 H   0  0  0  0  0  0  0  0  0  0  0  0
    2.3073    8.7909   -2.0581 H   0  0  0  0  0  0  0  0  0  0  0  0
    4.0400    8.8358   -2.5337 H   0  0  0  0  0  0  0  0  0  0  0  0
    1.6910   10.1073   -0.0721 H   0  0  0  0  0  0  0  0  0  0  0  0
    3.0221   10.9959    0.7466 H   0  0  0  0  0  0  0  0  0  0  0  0
    2.3247    8.8624    1.9990 H   0  0  0  0  0  0  0  0  0  0  0  0
    4.0502    8.8914    1.4876 H   0  0  0  0  0  0  0  0  0  0  0  0
    2.1878    4.2135    0.2932 H   0  0  0  0  0  0  0  0  0  0  0  0
    3.6210    0.8983   -3.4766 H   0  0  0  0  0  0  0  0  0  0  0  0
    5.7658    1.0262   -4.7306 H   0  0  0  0  0  0  0  0  0  0  0  0
    8.1634    0.9164   -4.8239 H   0  0  0  0  0  0  0  0  0  0  0  0
    8.9411   -0.0872   -3.5775 H   0  0  0  0  0  0  0  0  0  0  0  0
    8.9265    1.6763   -3.4086 H   0  0  0  0  0  0  0  0  0  0  0  0
    7.9339    0.3987   -1.0617 H   0  0  0  0  0  0  0  0  0  0  0  0
    5.8132    0.2520    0.1718 H   0  0  0  0  0  0  0  0  0  0  0  0
  1  2  1  0
  1 27  1  0
  1 28  1  0
  1 29  1  0
  2  3  1  0
  2 30  1  0
  2 31  1  0
  3  4  1  0
  3 20  1  0
  3 32  1  6
  4  5  1  0
  4 33  1  0
  5  6  2  0
  5  7  1  0
  7  8  2  0
  7 19  1  0
  8  9  1  0
  8 34  1  0
  9 10  2  0
  9 35  1  0
 10 11  1  0
 10 36  1  0
 11 12  1  0
 11 19  2  0
 12 13  1  0
 12 37  1  0
 12 38  1  0
 13 14  1  0
 13 18  1  0
 14 15  1  0
 14 39  1  0
 14 40  1  0
 15 16  1  0
 15 41  1  0
 15 42  1  0
 16 17  1  0
 17 18  1  0
 17 43  1  0
 17 44  1  0
 18 45  1  0
 18 46  1  0
 19 47  1  0
 20 21  2  0
 20 26  1  0
 21 22  1  0
 21 48  1  0
 22 23  2  0
 22 49  1  0
 23 24  1  0
 23 25  1  0
 24 50  1  0
 24 51  1  0
 24 52  1  0
 25 26  2  0
 25 53  1  0
 26 54  1  0
M  END

