
     RDKit          3D

 62 64  0  0  0  0  0  0  0  0999 V2000
   -1.0444    2.4625    9.3042 C   0  0  0  0  0  0  0  0  0  0  0  0
    0.0814    1.6017    9.1292 O   0  0  0  0  0  0  0  0  0  0  0  0
    1.2431    2.0572    8.6862 C   0  0  0  0  0  0  0  0  0  0  0  0
    1.4979    3.4128    8.3402 C   0  0  0  0  0  0  0  0  0  0  0  0
    2.7542    3.7620    7.8897 C   0  0  0  0  0  0  0  0  0  0  0  0
    3.7899    2.7860    7.7726 C   0  0  0  0  0  0  0  0  0  0  0  0
    5.1368    3.1764    7.2971 C   0  0  0  0  0  0  0  0  0  0  0  0
    5.3544    4.4560    7.0424 N   0  0  0  0  0  0  0  0  0  0  0  0
    6.6945    4.4733    6.6644 O   0  0  0  0  0  0  0  0  0  0  0  0
    7.1360    3.1095    6.6405 C   0  0  0  0  0  0  0  0  0  0  0  0
    8.5809    2.9290    7.0191 C   0  0  0  0  0  0  0  0  0  0  0  0
    9.0541    1.5830    6.6904 N   0  0  0  0  0  0  0  0  0  0  0  0
    8.9351    1.1567    5.3051 C   0  0  0  0  0  0  0  0  0  0  0  0
    9.3633    0.7202    7.7089 C   0  0  0  0  0  0  0  0  0  0  0  0
    9.4220    1.0612    8.8834 O   0  0  0  0  0  0  0  0  0  0  0  0
    9.6512   -0.7320    7.3098 C   0  0  0  0  0  0  0  0  0  0  0  0
    9.9073   -1.6176    8.5261 C   0  0  0  0  0  0  0  0  0  0  0  0
   10.1615   -3.0750    8.1395 C   0  0  0  0  0  0  0  0  0  0  0  0
   10.4438   -3.9857    9.2658 N   0  0  0  0  0  0  0  0  0  0  0  0
   11.7830   -4.3659    9.5951 C   0  0  0  0  0  0  0  0  0  0  0  0
   12.2219   -5.6888    9.3953 C   0  0  0  0  0  0  0  0  0  0  0  0
   13.5313   -6.0505    9.6830 C   0  0  0  0  0  0  0  0  0  0  0  0
   14.4482   -5.0968   10.1620 C   0  0  0  0  0  0  0  0  0  0  0  0
   15.7065   -5.5441   10.4003 O   0  0  0  0  0  0  0  0  0  0  0  0
   16.6812   -4.6441   10.8756 C   0  0  0  0  0  0  0  0  0  0  0  0
   14.0230   -3.7749   10.3612 C   0  0  0  0  0  0  0  0  0  0  0  0
   12.6953   -3.4248   10.0888 C   0  0  0  0  0  0  0  0  0  0  0  0
    9.1639   -4.5816   10.1809 S   0  0  1  0  0  0  0  0  0  0  0  0
    9.1830   -3.6220   11.7079 C   0  0  0  0  0  0  0  0  0  0  0  0
    7.9363   -4.2421    9.4556 O   0  0  0  0  0  0  0  0  0  0  0  0
    9.4545   -5.9645   10.5655 O   0  0  0  0  0  0  0  0  0  0  0  0
    6.1295    2.3131    7.1365 N   0  0  0  0  0  0  0  0  0  0  0  0
    3.5276    1.4390    8.1196 C   0  0  0  0  0  0  0  0  0  0  0  0
    2.2783    1.0723    8.5682 C   0  0  0  0  0  0  0  0  0  0  0  0
   -1.8541    1.8255    9.6768 H   0  0  0  0  0  0  0  0  0  0  0  0
   -1.3372    2.9166    8.3452 H   0  0  0  0  0  0  0  0  0  0  0  0
   -0.8189    3.2493   10.0403 H   0  0  0  0  0  0  0  0  0  0  0  0
    0.7176    4.1681    8.4274 H   0  0  0  0  0  0  0  0  0  0  0  0
    2.9971    4.7881    7.6133 H   0  0  0  0  0  0  0  0  0  0  0  0
    8.7525    3.0628    8.1017 H   0  0  0  0  0  0  0  0  0  0  0  0
    9.1889    3.6839    6.4895 H   0  0  0  0  0  0  0  0  0  0  0  0
    8.8635    2.0490    4.6696 H   0  0  0  0  0  0  0  0  0  0  0  0
    8.0268    0.5569    5.1212 H   0  0  0  0  0  0  0  0  0  0  0  0
    9.8138    0.5764    4.9835 H   0  0  0  0  0  0  0  0  0  0  0  0
   10.5182   -0.7560    6.6246 H   0  0  0  0  0  0  0  0  0  0  0  0
    8.8016   -1.1230    6.7229 H   0  0  0  0  0  0  0  0  0  0  0  0
    9.0327   -1.5628    9.1923 H   0  0  0  0  0  0  0  0  0  0  0  0
   10.7549   -1.2097    9.0985 H   0  0  0  0  0  0  0  0  0  0  0  0
   11.0307   -3.1532    7.4670 H   0  0  0  0  0  0  0  0  0  0  0  0
    9.2938   -3.4705    7.5903 H   0  0  0  0  0  0  0  0  0  0  0  0
   11.5119   -6.4294    9.0269 H   0  0  0  0  0  0  0  0  0  0  0  0
   13.8793   -7.0751    9.5367 H   0  0  0  0  0  0  0  0  0  0  0  0
   17.6107   -5.2185   10.9870 H   0  0  0  0  0  0  0  0  0  0  0  0
   16.4054   -4.2181   11.8575 H   0  0  0  0  0  0  0  0  0  0  0  0
   16.8566   -3.8145   10.1668 H   0  0  0  0  0  0  0  0  0  0  0  0
   14.7063   -3.0120   10.7344 H   0  0  0  0  0  0  0  0  0  0  0  0
   12.3685   -2.3967   10.2575 H   0  0  0  0  0  0  0  0  0  0  0  0
    9.0062   -2.5651   11.4727 H   0  0  0  0  0  0  0  0  0  0  0  0
   10.1534   -3.7663   12.2004 H   0  0  0  0  0  0  0  0  0  0  0  0
    8.3744   -4.0248   12.3330 H   0  0  0  0  0  0  0  0  0  0  0  0
    4.3429    0.7225    8.0179 H   0  0  0  0  0  0  0  0  0  0  0  0
    2.0363    0.0450    8.8457 H   0  0  0  0  0  0  0  0  0  0  0  0
  1  2  1  0
  1 35  1  0
  1 36  1  0
  1 37  1  0
  2  3  1  0
  3  4  2  0
  3 34  1  0
  4  5  1  0
  4 38  1  0
  5  6  2  0
  5 39  1  0
  6  7  1  0
  6 33  1  0
  7  8  2  0
  7 32  1  0
  8  9  1  0
  9 10  1  0
 10 11  1  0
 10 32  2  0
 11 12  1  0
 11 40  1  0
 11 41  1  0
 12 13  1  0
 12 14  1  0
 13 42  1  0
 13 43  1  0
 13 44  1  0
 14 15  2  0
 14 16  1  0
 16 17  1  0
 16 45  1  0
 16 46  1  0
 17 18  1  0
 17 47  1  0
 17 48  1  0
 18 19  1  0
 18 49  1  0
 18 50  1  0
 19 20  1  0
 28 19  1  6
 20 21  2  0
 20 27  1  0
 21 22  1  0
 21 51  1  0
 22 23  2  0
 22 52  1  0
 23 24  1  0
 23 26  1  0
 24 25  1  0
 25 53  1  0
 25 54  1  0
 25 55  1  0
 26 27  2  0
 26 56  1  0
 27 57  1  0
 28 29  1  0
 28 30  2  0
 28 31  2  0
 29 58  1  0
 29 59  1  0
 29 60  1  0
 33 34  2  0
 33 61  1  0
 34 62  1  0
M  END

