
     RDKit          3D

 97101  0  0  0  0  0  0  0  0999 V2000
   31.6259   18.6810   12.4662 C   0  0  0  0  0  0  0  0  0  0  0  0
   31.0001   18.4682   11.0867 C   0  0  0  0  0  0  0  0  0  0  0  0
   30.3214   17.1015   10.9358 C   0  0  0  0  0  0  0  0  0  0  0  0
   29.7268   16.8136    9.5499 C   0  0  0  0  0  0  0  0  0  0  0  0
   28.5413   17.7056    9.1662 C   0  0  0  0  0  0  0  0  0  0  0  0
   27.9326   17.4091    7.8023 C   0  0  0  0  0  0  0  0  0  0  0  0
   27.3903   16.0700    7.7654 O   0  0  0  0  0  0  0  0  0  0  0  0
   26.0833   15.8572    7.8955 C   0  0  0  0  0  0  0  0  0  0  0  0
   25.0506   16.7682    7.5623 C   0  0  0  0  0  0  0  0  0  0  0  0
   24.6628   16.9178    6.1688 C   0  0  0  0  0  0  0  0  0  0  0  0
   23.5536   16.1940    5.8075 N   0  0  0  0  0  0  0  0  0  0  0  0
   23.1322   15.4875    6.4111 H   0  0  0  0  0  0  0  0  0  0  0  0
   23.3588   16.2007    4.4488 C   0  0  0  0  0  0  0  0  0  0  0  0
   24.3384   17.0834    3.9174 C   0  0  0  0  0  0  0  0  0  0  0  0
   25.1694   17.5089    4.9592 C   0  0  0  0  0  0  0  0  0  0  0  0
   26.3066   18.4782    4.8229 C   0  0  0  0  0  0  0  0  0  0  0  0
   25.9608   19.8879    5.3428 C   0  0  0  0  0  0  0  0  0  0  0  0
   27.0798   20.7422    5.4234 O   0  0  0  0  0  0  0  0  0  0  0  0
   27.4907   21.3094    4.2067 C   0  0  0  0  0  0  0  0  0  0  0  0
   22.4727   15.2773    3.8430 C   0  0  0  0  0  0  0  0  0  0  0  0
   21.9327   14.2605    4.5793 N   0  0  0  0  0  0  0  0  0  0  0  0
   21.2066   13.5267    3.7256 C   0  0  0  0  0  0  0  0  0  0  0  0
   20.4741   12.3230    4.0685 C   0  0  0  0  0  0  0  0  0  0  0  0
   20.3979   11.6181    5.2301 C   0  0  0  0  0  0  0  0  0  0  0  0
   21.0993   11.8616    6.4942 C   0  0  0  0  0  0  0  0  0  0  0  0
   22.4713   11.9872    6.5681 N   0  0  0  0  0  0  0  0  0  0  0  0
   23.0586   12.0979    5.7503 H   0  0  0  0  0  0  0  0  0  0  0  0
   22.8534   12.3460    7.8353 C   0  0  0  0  0  0  0  0  0  0  0  0
   21.6926   12.4021    8.6127 C   0  0  0  0  0  0  0  0  0  0  0  0
   20.5871   12.0763    7.7835 C   0  0  0  0  0  0  0  0  0  0  0  0
   19.1436   12.0029    8.1931 C   0  0  0  0  0  0  0  0  0  0  0  0
   18.8341   10.8142    9.1020 C   0  0  0  0  0  0  0  0  0  0  0  0
   17.4685   10.8421    9.4408 O   0  0  0  0  0  0  0  0  0  0  0  0
   17.0683    9.7895   10.2720 C   0  0  0  0  0  0  0  0  0  0  0  0
   24.2031   12.8797    8.0681 C   0  0  0  0  0  0  0  0  0  0  0  0
   24.3431   14.2131    8.1114 N   0  0  0  0  0  0  0  0  0  0  0  0
   25.6917   14.5013    8.2367 C   0  0  0  0  0  0  0  0  0  0  0  0
   26.4521   13.3078    8.2502 C   0  0  0  0  0  0  0  0  0  0  0  0
   27.9339   13.1118    8.3362 C   0  0  0  0  0  0  0  0  0  0  0  0
   28.5077   11.9171    7.5767 C   0  0  0  0  0  0  0  0  0  0  0  0
   28.1015   10.7128    8.1833 O   0  0  0  0  0  0  0  0  0  0  0  0
   28.6184    9.5634    7.5642 C   0  0  0  0  0  0  0  0  0  0  0  0
   25.4625   12.2517    8.1267 C   0  0  0  0  0  0  0  0  0  0  0  0
   21.2514   14.0871    2.3695 C   0  0  0  0  0  0  0  0  0  0  0  0
   20.5372   13.5388    1.1682 C   0  0  0  0  0  0  0  0  0  0  0  0
   20.7415   14.3403   -0.1087 C   0  0  0  0  0  0  0  0  0  0  0  0
   20.0240   13.7173   -1.1471 O   0  0  0  0  0  0  0  0  0  0  0  0
   20.1274   14.3720   -2.3802 C   0  0  0  0  0  0  0  0  0  0  0  0
   22.0706   15.1915    2.4596 C   0  0  0  0  0  0  0  0  0  0  0  0
   32.1089   19.6682   12.5438 H   0  0  0  0  0  0  0  0  0  0  0  0
   32.3923   17.9174   12.6813 H   0  0  0  0  0  0  0  0  0  0  0  0
   30.8671   18.6187   13.2642 H   0  0  0  0  0  0  0  0  0  0  0  0
   31.7786   18.5719   10.3083 H   0  0  0  0  0  0  0  0  0  0  0  0
   30.2717   19.2751   10.8927 H   0  0  0  0  0  0  0  0  0  0  0  0
   29.5273   17.0020   11.6995 H   0  0  0  0  0  0  0  0  0  0  0  0
   31.0599   16.3141   11.1702 H   0  0  0  0  0  0  0  0  0  0  0  0
   29.4015   15.7609    9.5170 H   0  0  0  0  0  0  0  0  0  0  0  0
   30.5185   16.9127    8.7834 H   0  0  0  0  0  0  0  0  0  0  0  0
   28.8474   18.7659    9.1431 H   0  0  0  0  0  0  0  0  0  0  0  0
   27.7469   17.6324    9.9301 H   0  0  0  0  0  0  0  0  0  0  0  0
   28.6970   17.4417    7.0117 H   0  0  0  0  0  0  0  0  0  0  0  0
   27.1345   18.1238    7.5693 H   0  0  0  0  0  0  0  0  0  0  0  0
   24.1622   16.4081    8.0856 H   0  0  0  0  0  0  0  0  0  0  0  0
   24.4414   17.3486    2.8664 H   0  0  0  0  0  0  0  0  0  0  0  0
   26.6043   18.5278    3.7634 H   0  0  0  0  0  0  0  0  0  0  0  0
   27.1937   18.1378    5.3759 H   0  0  0  0  0  0  0  0  0  0  0  0
   25.5590   19.8065    6.3655 H   0  0  0  0  0  0  0  0  0  0  0  0
   25.1650   20.3357    4.7136 H   0  0  0  0  0  0  0  0  0  0  0  0
   28.3101   22.0104    4.4254 H   0  0  0  0  0  0  0  0  0  0  0  0
   26.6706   21.8729    3.7167 H   0  0  0  0  0  0  0  0  0  0  0  0
   27.8658   20.5591    3.4828 H   0  0  0  0  0  0  0  0  0  0  0  0
   19.8756   11.9211    3.2449 H   0  0  0  0  0  0  0  0  0  0  0  0
   19.7142   10.7607    5.2240 H   0  0  0  0  0  0  0  0  0  0  0  0
   21.6610   12.6677    9.6678 H   0  0  0  0  0  0  0  0  0  0  0  0
   18.4975   11.9361    7.3037 H   0  0  0  0  0  0  0  0  0  0  0  0
   18.8454   12.9229    8.7246 H   0  0  0  0  0  0  0  0  0  0  0  0
   19.4643   10.8558   10.0162 H   0  0  0  0  0  0  0  0  0  0  0  0
   19.0918    9.8641    8.5863 H   0  0  0  0  0  0  0  0  0  0  0  0
   15.9931    9.9065   10.4748 H   0  0  0  0  0  0  0  0  0  0  0  0
   17.6101    9.7915   11.2409 H   0  0  0  0  0  0  0  0  0  0  0  0
   17.2303    8.7978    9.8000 H   0  0  0  0  0  0  0  0  0  0  0  0
   28.2062   12.9803    9.4033 H   0  0  0  0  0  0  0  0  0  0  0  0
   28.4439   14.0249    8.0024 H   0  0  0  0  0  0  0  0  0  0  0  0
   29.6154   11.9915    7.5841 H   0  0  0  0  0  0  0  0  0  0  0  0
   28.1915   11.9473    6.5125 H   0  0  0  0  0  0  0  0  0  0  0  0
   28.2905    9.4763    6.5086 H   0  0  0  0  0  0  0  0  0  0  0  0
   28.2516    8.6881    8.1196 H   0  0  0  0  0  0  0  0  0  0  0  0
   29.7271    9.5520    7.5784 H   0  0  0  0  0  0  0  0  0  0  0  0
   25.6964   11.1901    8.0972 H   0  0  0  0  0  0  0  0  0  0  0  0
   19.4508   13.4778    1.3604 H   0  0  0  0  0  0  0  0  0  0  0  0
   20.8569   12.4994    0.9706 H   0  0  0  0  0  0  0  0  0  0  0  0
   21.8222   14.3951   -0.3603 H   0  0  0  0  0  0  0  0  0  0  0  0
   20.3940   15.3856    0.0336 H   0  0  0  0  0  0  0  0  0  0  0  0
   19.5338   13.8073   -3.1146 H   0  0  0  0  0  0  0  0  0  0  0  0
   21.1761   14.4225   -2.7409 H   0  0  0  0  0  0  0  0  0  0  0  0
   19.7369   15.4100   -2.3369 H   0  0  0  0  0  0  0  0  0  0  0  0
   22.3476   15.8862    1.6684 H   0  0  0  0  0  0  0  0  0  0  0  0
  1  2  1  0
  1 50  1  0
  1 51  1  0
  1 52  1  0
  2  3  1  0
  2 53  1  0
  2 54  1  0
  3  4  1  0
  3 55  1  0
  3 56  1  0
  4  5  1  0
  4 57  1  0
  4 58  1  0
  5  6  1  0
  5 59  1  0
  5 60  1  0
  6  7  1  0
  6 61  1  0
  6 62  1  0
  7  8  1  0
  8  9  2  0
  8 37  1  0
  9 10  1  0
  9 63  1  0
 10 11  1  0
 10 15  2  0
 11 12  1  0
 11 13  1  0
 13 14  2  0
 13 20  1  0
 14 15  1  0
 14 64  1  0
 15 16  1  0
 16 17  1  0
 16 65  1  0
 16 66  1  0
 17 18  1  0
 17 67  1  0
 17 68  1  0
 18 19  1  0
 19 69  1  0
 19 70  1  0
 19 71  1  0
 20 21  2  0
 20 49  1  0
 21 22  1  0
 22 23  2  0
 22 44  1  0
 23 24  1  0
 23 72  1  0
 24 25  2  0
 24 73  1  0
 25 26  1  0
 25 30  1  0
 26 27  1  0
 26 28  1  0
 28 29  1  0
 28 35  2  0
 29 30  2  0
 29 74  1  0
 30 31  1  0
 31 32  1  0
 31 75  1  0
 31 76  1  0
 32 33  1  0
 32 77  1  0
 32 78  1  0
 33 34  1  0
 34 79  1  0
 34 80  1  0
 34 81  1  0
 35 36  1  0
 35 43  1  0
 36 37  2  0
 37 38  1  0
 38 39  1  0
 38 43  2  0
 39 40  1  0
 39 82  1  0
 39 83  1  0
 40 41  1  0
 40 84  1  0
 40 85  1  0
 41 42  1  0
 42 86  1  0
 42 87  1  0
 42 88  1  0
 43 89  1  0
 44 45  1  0
 44 49  2  0
 45 46  1  0
 45 90  1  0
 45 91  1  0
 46 47  1  0
 46 92  1  0
 46 93  1  0
 47 48  1  0
 48 94  1  0
 48 95  1  0
 48 96  1  0
 49 97  1  0
M  END

