
     RDKit          3D

126134  0  0  0  0  0  0  0  0999 V2000
   11.1567   -6.7400   -5.7638 C   0  0  0  0  0  0  0  0  0  0  0  0
   11.2588   -6.2180   -7.2084 C   0  0  1  0  0  0  0  0  0  0  0  0
   12.6821   -5.6502   -7.4155 C   0  0  0  0  0  0  0  0  0  0  0  0
   11.0361   -7.4098   -8.1684 C   0  0  0  0  0  0  0  0  0  0  0  0
   10.2186   -5.1183   -7.5070 C   0  0  0  0  0  0  0  0  0  0  0  0
    9.3030   -4.6699   -6.5513 C   0  0  0  0  0  0  0  0  0  0  0  0
    8.3723   -3.6490   -6.8440 C   0  0  0  0  0  0  0  0  0  0  0  0
    7.4087   -3.1736   -5.8219 C   0  0  0  0  0  0  0  0  0  0  0  0
    7.2417   -1.7708   -5.6219 C   0  0  0  0  0  0  0  0  0  0  0  0
    6.1798   -1.0845   -4.9608 C   0  0  0  0  0  0  0  0  0  0  0  0
    6.5064    0.3038   -5.0032 C   0  0  0  0  0  0  0  0  0  0  0  0
    5.7477    1.4004   -4.4749 C   0  0  0  0  0  0  0  0  0  0  0  0
    5.9749    2.7704   -5.0113 C   0  0  0  0  0  0  0  0  0  0  0  0
    7.2587    3.3285   -5.0739 C   0  0  0  0  0  0  0  0  0  0  0  0
    7.4732    4.6165   -5.5904 C   0  0  0  0  0  0  0  0  0  0  0  0
    8.9108    5.1728   -5.6462 C   0  0  1  0  0  0  0  0  0  0  0  0
    9.7603    4.2705   -6.5721 C   0  0  0  0  0  0  0  0  0  0  0  0
    8.9636    6.6118   -6.1890 C   0  0  0  0  0  0  0  0  0  0  0  0
    9.5216    5.1724   -4.2259 C   0  0  0  0  0  0  0  0  0  0  0  0
    6.3617    5.3313   -6.0545 C   0  0  0  0  0  0  0  0  0  0  0  0
    5.0546    4.8041   -6.0245 C   0  0  0  0  0  0  0  0  0  0  0  0
    3.8815    5.6403   -6.5776 C   0  0  1  0  0  0  0  0  0  0  0  0
    4.1361    5.9628   -8.0684 C   0  0  0  0  0  0  0  0  0  0  0  0
    2.5354    4.9005   -6.4718 C   0  0  0  0  0  0  0  0  0  0  0  0
    3.7687    6.9602   -5.7798 C   0  0  0  0  0  0  0  0  0  0  0  0
    4.8820    3.5224   -5.4951 C   0  0  0  0  0  0  0  0  0  0  0  0
    4.8227    1.2467   -3.4167 C   0  0  0  0  0  0  0  0  0  0  0  0
    4.1560    2.2991   -2.6934 C   0  0  0  0  0  0  0  0  0  0  0  0
    3.4837    1.7459   -1.6317 C   0  0  0  0  0  0  0  0  0  0  0  0
    3.6950    0.3243   -1.6619 C   0  0  0  0  0  0  0  0  0  0  0  0
    4.4915    0.0745   -2.7585 N   0  0  0  0  0  0  0  0  0  0  0  0
    4.8355   -0.8645   -2.9322 H   0  0  0  0  0  0  0  0  0  0  0  0
    3.2519   -0.6412   -0.7437 C   0  0  0  0  0  0  0  0  0  0  0  0
    2.4493   -0.1363    0.4136 C   0  0  0  0  0  0  0  0  0  0  0  0
    1.1639    0.4007    0.2250 C   0  0  0  0  0  0  0  0  0  0  0  0
    0.4130    0.8819    1.3007 C   0  0  0  0  0  0  0  0  0  0  0  0
    0.9520    0.8309    2.5884 C   0  0  0  0  0  0  0  0  0  0  0  0
   -0.0625    1.4863    4.0639 Br  0  0  0  0  0  0  0  0  0  0  0  0
    2.2278    0.3024    2.8063 C   0  0  0  0  0  0  0  0  0  0  0  0
    2.9641   -0.1786    1.7218 C   0  0  0  0  0  0  0  0  0  0  0  0
    3.4857   -2.0511   -0.8285 C   0  0  0  0  0  0  0  0  0  0  0  0
    4.1638   -2.7062   -1.8236 N   0  0  0  0  0  0  0  0  0  0  0  0
    4.0204   -4.0455   -1.5529 C   0  0  0  0  0  0  0  0  0  0  0  0
    4.4967   -5.1342   -2.3475 C   0  0  0  0  0  0  0  0  0  0  0  0
    4.0571   -6.5126   -1.9777 C   0  0  0  0  0  0  0  0  0  0  0  0
    2.6939   -6.8639   -1.9801 C   0  0  0  0  0  0  0  0  0  0  0  0
    2.2765   -8.1552   -1.6542 C   0  0  0  0  0  0  0  0  0  0  0  0
    3.2304   -9.1177   -1.3091 C   0  0  0  0  0  0  0  0  0  0  0  0
    2.6698  -10.8827   -0.8577 Br  0  0  0  0  0  0  0  0  0  0  0  0
    4.5903   -8.7981   -1.2921 C   0  0  0  0  0  0  0  0  0  0  0  0
    4.9933   -7.5040   -1.6296 C   0  0  0  0  0  0  0  0  0  0  0  0
    5.3328   -5.0364   -3.4783 C   0  0  0  0  0  0  0  0  0  0  0  0
    5.6892   -6.0727   -4.4054 C   0  0  0  0  0  0  0  0  0  0  0  0
    6.5138   -5.5279   -5.3635 C   0  0  0  0  0  0  0  0  0  0  0  0
    6.6900   -4.1345   -5.0714 C   0  0  0  0  0  0  0  0  0  0  0  0
    5.9528   -3.8901   -3.9261 N   0  0  0  0  0  0  0  0  0  0  0  0
    5.8925   -3.0166   -3.4139 H   0  0  0  0  0  0  0  0  0  0  0  0
    3.2678   -4.2402   -0.3277 C   0  0  0  0  0  0  0  0  0  0  0  0
    2.9281   -2.9965    0.1209 C   0  0  0  0  0  0  0  0  0  0  0  0
    7.6996    0.4877   -5.6729 N   0  0  0  0  0  0  0  0  0  0  0  0
    8.1340   -0.7112   -6.0275 C   0  0  0  0  0  0  0  0  0  0  0  0
    8.3817   -3.0770   -8.1264 C   0  0  0  0  0  0  0  0  0  0  0  0
    9.2759   -3.5067   -9.1195 C   0  0  0  0  0  0  0  0  0  0  0  0
    9.2287   -2.8547  -10.5173 C   0  0  1  0  0  0  0  0  0  0  0  0
    9.4967   -1.3378  -10.3826 C   0  0  0  0  0  0  0  0  0  0  0  0
   10.2786   -3.4455  -11.4754 C   0  0  0  0  0  0  0  0  0  0  0  0
    7.8303   -3.0768  -11.1393 C   0  0  0  0  0  0  0  0  0  0  0  0
   10.1805   -4.5238   -8.7847 C   0  0  0  0  0  0  0  0  0  0  0  0
   11.9113   -7.5248   -5.5974 H   0  0  0  0  0  0  0  0  0  0  0  0
   10.1699   -7.1810   -5.5533 H   0  0  0  0  0  0  0  0  0  0  0  0
   11.3399   -5.9442   -5.0251 H   0  0  0  0  0  0  0  0  0  0  0  0
   13.4394   -6.4225   -7.2023 H   0  0  0  0  0  0  0  0  0  0  0  0
   12.8679   -4.7970   -6.7439 H   0  0  0  0  0  0  0  0  0  0  0  0
   12.8420   -5.3046   -8.4482 H   0  0  0  0  0  0  0  0  0  0  0  0
   11.7749   -8.2046   -7.9733 H   0  0  0  0  0  0  0  0  0  0  0  0
   11.1380   -7.1141   -9.2236 H   0  0  0  0  0  0  0  0  0  0  0  0
   10.0307   -7.8411   -8.0374 H   0  0  0  0  0  0  0  0  0  0  0  0
    9.3093   -5.0836   -5.5443 H   0  0  0  0  0  0  0  0  0  0  0  0
    5.2280   -1.5213   -4.6691 H   0  0  0  0  0  0  0  0  0  0  0  0
    8.0950    2.7306   -4.7199 H   0  0  0  0  0  0  0  0  0  0  0  0
    9.3687    4.2877   -7.6018 H   0  0  0  0  0  0  0  0  0  0  0  0
    9.7587    3.2224   -6.2369 H   0  0  0  0  0  0  0  0  0  0  0  0
   10.8058    4.6205   -6.5989 H   0  0  0  0  0  0  0  0  0  0  0  0
    8.5804    6.6786   -7.2193 H   0  0  0  0  0  0  0  0  0  0  0  0
   10.0064    6.9663   -6.2034 H   0  0  0  0  0  0  0  0  0  0  0  0
    8.3859    7.3098   -5.5624 H   0  0  0  0  0  0  0  0  0  0  0  0
    9.5625    4.1600   -3.7973 H   0  0  0  0  0  0  0  0  0  0  0  0
    8.9322    5.8036   -3.5414 H   0  0  0  0  0  0  0  0  0  0  0  0
   10.5514    5.5658   -4.2500 H   0  0  0  0  0  0  0  0  0  0  0  0
    6.5082    6.3301   -6.4643 H   0  0  0  0  0  0  0  0  0  0  0  0
    4.2232    5.0391   -8.6623 H   0  0  0  0  0  0  0  0  0  0  0  0
    5.0616    6.5410   -8.2114 H   0  0  0  0  0  0  0  0  0  0  0  0
    3.3048    6.5575   -8.4820 H   0  0  0  0  0  0  0  0  0  0  0  0
    2.5348    3.9617   -7.0474 H   0  0  0  0  0  0  0  0  0  0  0  0
    1.7292    5.5344   -6.8736 H   0  0  0  0  0  0  0  0  0  0  0  0
    2.2770    4.6610   -5.4283 H   0  0  0  0  0  0  0  0  0  0  0  0
    4.6897    7.5592   -5.8444 H   0  0  0  0  0  0  0  0  0  0  0  0
    3.5725    6.7620   -4.7139 H   0  0  0  0  0  0  0  0  0  0  0  0
    2.9417    7.5773   -6.1687 H   0  0  0  0  0  0  0  0  0  0  0  0
    3.8941    3.0646   -5.4722 H   0  0  0  0  0  0  0  0  0  0  0  0
    4.2280    3.3537   -2.9408 H   0  0  0  0  0  0  0  0  0  0  0  0
    2.9107    2.2734   -0.8743 H   0  0  0  0  0  0  0  0  0  0  0  0
    0.7379    0.4324   -0.7805 H   0  0  0  0  0  0  0  0  0  0  0  0
   -0.5867    1.2887    1.1386 H   0  0  0  0  0  0  0  0  0  0  0  0
    2.6447    0.2707    3.8144 H   0  0  0  0  0  0  0  0  0  0  0  0
    3.9630   -0.5865    1.8925 H   0  0  0  0  0  0  0  0  0  0  0  0
    1.9483   -6.1148   -2.2551 H   0  0  0  0  0  0  0  0  0  0  0  0
    1.2165   -8.4140   -1.6728 H   0  0  0  0  0  0  0  0  0  0  0  0
    5.3290   -9.5514   -1.0129 H   0  0  0  0  0  0  0  0  0  0  0  0
    6.0563   -7.2536   -1.6072 H   0  0  0  0  0  0  0  0  0  0  0  0
    5.3263   -7.0957   -4.3612 H   0  0  0  0  0  0  0  0  0  0  0  0
    6.9282   -6.0299   -6.2334 H   0  0  0  0  0  0  0  0  0  0  0  0
    3.0326   -5.1949    0.1347 H   0  0  0  0  0  0  0  0  0  0  0  0
    2.3427   -2.7498    1.0023 H   0  0  0  0  0  0  0  0  0  0  0  0
    9.0892   -0.8414   -6.5393 H   0  0  0  0  0  0  0  0  0  0  0  0
    7.6545   -2.2944   -8.3484 H   0  0  0  0  0  0  0  0  0  0  0  0
   10.4926   -1.1495   -9.9506 H   0  0  0  0  0  0  0  0  0  0  0  0
    8.7544   -0.8424   -9.7388 H   0  0  0  0  0  0  0  0  0  0  0  0
    9.4579   -0.8508  -11.3710 H   0  0  0  0  0  0  0  0  0  0  0  0
   11.3053   -3.2935  -11.1071 H   0  0  0  0  0  0  0  0  0  0  0  0
   10.2053   -2.9513  -12.4569 H   0  0  0  0  0  0  0  0  0  0  0  0
   10.1281   -4.5243  -11.6382 H   0  0  0  0  0  0  0  0  0  0  0  0
    7.0315   -2.6347  -10.5248 H   0  0  0  0  0  0  0  0  0  0  0  0
    7.6128   -4.1511  -11.2503 H   0  0  0  0  0  0  0  0  0  0  0  0
    7.7766   -2.6136  -12.1382 H   0  0  0  0  0  0  0  0  0  0  0  0
   10.8887   -4.8684   -9.5370 H   0  0  0  0  0  0  0  0  0  0  0  0
  2  1  1  1
  1 69  1  0
  1 70  1  0
  1 71  1  0
  2  3  1  0
  2  4  1  0
  2  5  1  0
  3 72  1  0
  3 73  1  0
  3 74  1  0
  4 75  1  0
  4 76  1  0
  4 77  1  0
  5  6  2  0
  5 68  1  0
  6  7  1  0
  6 78  1  0
  7  8  1  0
  7 62  2  0
  8  9  1  0
  8 55  2  0
  9 10  2  0
  9 61  1  0
 10 11  1  0
 10 79  1  0
 11 12  2  0
 11 60  1  0
 12 13  1  0
 12 27  1  0
 13 14  2  0
 13 26  1  0
 14 15  1  0
 14 80  1  0
 15 16  1  0
 15 20  2  0
 16 17  1  6
 16 18  1  0
 16 19  1  0
 17 81  1  0
 17 82  1  0
 17 83  1  0
 18 84  1  0
 18 85  1  0
 18 86  1  0
 19 87  1  0
 19 88  1  0
 19 89  1  0
 20 21  1  0
 20 90  1  0
 21 22  1  0
 21 26  2  0
 22 23  1  6
 22 24  1  0
 22 25  1  0
 23 91  1  0
 23 92  1  0
 23 93  1  0
 24 94  1  0
 24 95  1  0
 24 96  1  0
 25 97  1  0
 25 98  1  0
 25 99  1  0
 26100  1  0
 27 28  2  0
 27 31  1  0
 28 29  1  0
 28101  1  0
 29 30  2  0
 29102  1  0
 30 31  1  0
 30 33  1  0
 31 32  1  0
 33 34  1  0
 33 41  2  0
 34 35  2  0
 34 40  1  0
 35 36  1  0
 35103  1  0
 36 37  2  0
 36104  1  0
 37 38  1  0
 37 39  1  0
 39 40  2  0
 39105  1  0
 40106  1  0
 41 42  1  0
 41 59  1  0
 42 43  2  0
 43 44  1  0
 43 58  1  0
 44 45  1  0
 44 52  2  0
 45 46  2  0
 45 51  1  0
 46 47  1  0
 46107  1  0
 47 48  2  0
 47108  1  0
 48 49  1  0
 48 50  1  0
 50 51  2  0
 50109  1  0
 51110  1  0
 52 53  1  0
 52 56  1  0
 53 54  2  0
 53111  1  0
 54 55  1  0
 54112  1  0
 55 56  1  0
 56 57  1  0
 58 59  2  0
 58113  1  0
 59114  1  0
 60 61  2  0
 61115  1  0
 62 63  1  0
 62116  1  0
 63 64  1  0
 63 68  2  0
 64 65  1  1
 64 66  1  0
 64 67  1  0
 65117  1  0
 65118  1  0
 65119  1  0
 66120  1  0
 66121  1  0
 66122  1  0
 67123  1  0
 67124  1  0
 67125  1  0
 68126  1  0
M  END

