
     RDKit          3D

 33 35  0  0  0  0  0  0  0  0999 V2000
    2.1834    0.2232   -0.6563 C   0  0  0  0  0  0  0  0  0  0  0  0
    3.5309    0.3675    0.0826 C   0  0  1  0  0  0  0  0  0  0  0  0
    3.4147    0.0663    1.5034 N   0  0  0  0  0  0  0  0  0  0  0  0
    2.9381    0.9045    2.4881 C   0  0  0  0  0  0  0  0  0  0  0  0
    2.9388    0.4500    3.8434 C   0  0  0  0  0  0  0  0  0  0  0  0
    2.4886    1.2482    4.8706 C   0  0  0  0  0  0  0  0  0  0  0  0
    1.9971    2.5823    4.6099 C   0  0  0  0  0  0  0  0  0  0  0  0
    1.5468    3.4100    5.6593 C   0  0  0  0  0  0  0  0  0  0  0  0
    1.4244    3.2625    7.0652 C   0  0  0  0  0  0  0  0  0  0  0  0
    0.9090    4.3933    7.6004 N   0  0  0  0  0  0  0  0  0  0  0  0
    0.7193    5.2063    6.5853 C   0  0  0  0  0  0  0  0  0  0  0  0
    1.0785    4.6918    5.3682 O   0  0  0  0  0  0  0  0  0  0  0  0
    1.9870    3.0281    3.2368 C   0  0  0  0  0  0  0  0  0  0  0  0
    2.4443    2.2163    2.2178 C   0  0  0  0  0  0  0  0  0  0  0  0
    4.6093   -0.4982   -0.5172 C   0  0  0  0  0  0  0  0  0  0  0  0
    4.5836   -1.9271   -0.7175 C   0  0  0  0  0  0  0  0  0  0  0  0
    5.7875   -2.2530   -1.2724 C   0  0  0  0  0  0  0  0  0  0  0  0
    6.5481   -1.1441   -1.4364 O   0  0  0  0  0  0  0  0  0  0  0  0
    5.8327   -0.0898   -0.9769 C   0  0  0  0  0  0  0  0  0  0  0  0
    1.4142    0.8614   -0.1965 H   0  0  0  0  0  0  0  0  0  0  0  0
    1.8272   -0.8179   -0.6183 H   0  0  0  0  0  0  0  0  0  0  0  0
    2.2956    0.5140   -1.7126 H   0  0  0  0  0  0  0  0  0  0  0  0
    3.8594    1.4191   -0.0134 H   0  0  0  0  0  0  0  0  0  0  0  0
    3.7971   -0.8225    1.8068 H   0  0  0  0  0  0  0  0  0  0  0  0
    3.3078   -0.5573    4.0606 H   0  0  0  0  0  0  0  0  0  0  0  0
    2.5022    0.8709    5.8948 H   0  0  0  0  0  0  0  0  0  0  0  0
    1.6882    2.3954    7.6701 H   0  0  0  0  0  0  0  0  0  0  0  0
    0.3196    6.2185    6.5966 H   0  0  0  0  0  0  0  0  0  0  0  0
    1.6092    4.0271    3.0162 H   0  0  0  0  0  0  0  0  0  0  0  0
    2.4232    2.5912    1.1934 H   0  0  0  0  0  0  0  0  0  0  0  0
    3.7735   -2.6175   -0.4897 H   0  0  0  0  0  0  0  0  0  0  0  0
    6.2280   -3.1913   -1.6002 H   0  0  0  0  0  0  0  0  0  0  0  0
    6.3119    0.8844   -1.0389 H   0  0  0  0  0  0  0  0  0  0  0  0
  1  2  1  0
  1 20  1  0
  1 21  1  0
  1 22  1  0
  2  3  1  0
  2 15  1  0
  2 23  1  1
  3  4  1  0
  3 24  1  0
  4  5  2  0
  4 14  1  0
  5  6  1  0
  5 25  1  0
  6  7  2  0
  6 26  1  0
  7  8  1  0
  7 13  1  0
  8  9  2  0
  8 12  1  0
  9 10  1  0
  9 27  1  0
 10 11  2  0
 11 12  1  0
 11 28  1  0
 13 14  2  0
 13 29  1  0
 14 30  1  0
 15 16  1  0
 15 19  2  0
 16 17  2  0
 16 31  1  0
 17 18  1  0
 17 32  1  0
 18 19  1  0
 19 33  1  0
M  END

