
     RDKit          3D

 67 70  0  0  0  0  0  0  0  0999 V2000
    1.4077    0.5561    1.1380 C   0  0  0  0  0  0  0  0  0  0  0  0
    2.8948    0.2870    1.0657 C   0  0  0  0  0  0  0  0  0  0  0  0
    3.5602    1.5229    0.7430 O   0  0  0  0  0  0  0  0  0  0  0  0
    4.8949    1.5680    0.6370 C   0  0  0  0  0  0  0  0  0  0  0  0
    5.5795    2.7455    0.3699 C   0  0  0  0  0  0  0  0  0  0  0  0
    5.1727    4.1521    0.1517 C   0  0  0  0  0  0  0  0  0  0  0  0
    6.0333    5.0017   -0.0605 O   0  0  0  0  0  0  0  0  0  0  0  0
    3.8381    4.4057    0.2099 N   0  0  0  0  0  0  0  0  0  0  0  0
    3.2849    5.7361    0.0139 C   0  0  2  0  0  0  0  0  0  0  0  0
    2.1879    6.0356    1.0455 C   0  0  0  0  0  0  0  0  0  0  0  0
    1.5757    7.4211    0.8177 C   0  0  0  0  0  0  0  0  0  0  0  0
    1.1096    7.5704   -0.5589 N   0  0  0  0  0  0  0  0  0  0  0  0
   -0.1867    7.9146   -0.8042 C   0  0  0  0  0  0  0  0  0  0  0  0
   -1.0071    8.1021    0.0882 O   0  0  0  0  0  0  0  0  0  0  0  0
   -0.6601    8.0839   -2.2578 C   0  0  0  0  0  0  0  0  0  0  0  0
   -2.0065    8.4223   -2.2702 O   0  0  0  0  0  0  0  0  0  0  0  0
    2.1237    7.3315   -1.5796 C   0  0  0  0  0  0  0  0  0  0  0  0
    2.7506    5.9413   -1.4158 C   0  0  0  0  0  0  0  0  0  0  0  0
    6.9387    2.4627    0.3134 N   0  0  0  0  0  0  0  0  0  0  0  0
    7.6279    3.1906    0.1386 H   0  0  0  0  0  0  0  0  0  0  0  0
    7.1614    1.1541    0.5309 C   0  0  0  0  0  0  0  0  0  0  0  0
    8.3640    0.5617    0.5613 N   0  0  0  0  0  0  0  0  0  0  0  0
    8.4102   -0.7275    0.7982 C   0  0  0  0  0  0  0  0  0  0  0  0
    9.7535   -1.4163    0.8389 C   0  0  0  0  0  0  0  0  0  0  0  0
   10.9486   -0.4946    0.6135 C   0  0  0  0  0  0  0  0  0  0  0  0
    7.1853   -1.5156    1.0152 C   0  0  0  0  0  0  0  0  0  0  0  0
    7.2389   -2.8244    1.2279 N   0  0  0  0  0  0  0  0  0  0  0  0
    6.0285   -3.6850    1.5961 C   0  0  0  0  0  0  0  0  0  0  0  0
    5.6747   -3.5563    2.7795 O   0  0  0  0  0  0  0  0  0  0  0  0
    5.5097   -4.4818    0.5483 C   0  0  0  0  0  0  0  0  0  0  0  0
    4.3734   -5.3181    0.8374 C   0  0  0  0  0  0  0  0  0  0  0  0
    3.8103   -6.1206   -0.1375 C   0  0  0  0  0  0  0  0  0  0  0  0
    4.3268   -6.1541   -1.4503 C   0  0  0  0  0  0  0  0  0  0  0  0
    5.4436   -5.3509   -1.7507 C   0  0  0  0  0  0  0  0  0  0  0  0
    6.0287   -4.5390   -0.7918 C   0  0  0  0  0  0  0  0  0  0  0  0
    5.9133   -0.8501    0.9973 C   0  0  0  0  0  0  0  0  0  0  0  0
    5.8933    0.5097    0.7449 C   0  0  0  0  0  0  0  0  0  0  0  0
    0.8765   -0.3752    1.3848 H   0  0  0  0  0  0  0  0  0  0  0  0
    1.0260    0.9242    0.1735 H   0  0  0  0  0  0  0  0  0  0  0  0
    1.1788    1.2998    1.9166 H   0  0  0  0  0  0  0  0  0  0  0  0
    3.1258   -0.4575    0.2861 H   0  0  0  0  0  0  0  0  0  0  0  0
    3.2793   -0.0848    2.0299 H   0  0  0  0  0  0  0  0  0  0  0  0
    3.2088    3.6226    0.3639 H   0  0  0  0  0  0  0  0  0  0  0  0
    4.1240    6.4335    0.1665 H   0  0  0  0  0  0  0  0  0  0  0  0
    2.6038    5.9748    2.0641 H   0  0  0  0  0  0  0  0  0  0  0  0
    1.3915    5.2732    0.9699 H   0  0  0  0  0  0  0  0  0  0  0  0
    2.3326    8.2009    1.0275 H   0  0  0  0  0  0  0  0  0  0  0  0
    0.7190    7.5968    1.4791 H   0  0  0  0  0  0  0  0  0  0  0  0
   -0.4763    7.1407   -2.8130 H   0  0  0  0  0  0  0  0  0  0  0  0
   -0.0393    8.8627   -2.7479 H   0  0  0  0  0  0  0  0  0  0  0  0
   -2.2565    8.4673   -1.3261 H   0  0  0  0  0  0  0  0  0  0  0  0
    2.9123    8.1037   -1.4920 H   0  0  0  0  0  0  0  0  0  0  0  0
    1.6886    7.4358   -2.5803 H   0  0  0  0  0  0  0  0  0  0  0  0
    3.5716    5.8164   -2.1395 H   0  0  0  0  0  0  0  0  0  0  0  0
    1.9916    5.1701   -1.6371 H   0  0  0  0  0  0  0  0  0  0  0  0
    9.7539   -2.2254    0.0846 H   0  0  0  0  0  0  0  0  0  0  0  0
    9.8530   -1.9276    1.8157 H   0  0  0  0  0  0  0  0  0  0  0  0
   10.8908   -0.0023   -0.3680 H   0  0  0  0  0  0  0  0  0  0  0  0
   11.8851   -1.0698    0.6599 H   0  0  0  0  0  0  0  0  0  0  0  0
   10.9892    0.2982    1.3744 H   0  0  0  0  0  0  0  0  0  0  0  0
    8.1571   -3.2412    1.3596 H   0  0  0  0  0  0  0  0  0  0  0  0
    3.9734   -5.3015    1.8525 H   0  0  0  0  0  0  0  0  0  0  0  0
    2.9480   -6.7442    0.1184 H   0  0  0  0  0  0  0  0  0  0  0  0
    3.8772   -6.7928   -2.2126 H   0  0  0  0  0  0  0  0  0  0  0  0
    5.8659   -5.3693   -2.7601 H   0  0  0  0  0  0  0  0  0  0  0  0
    6.8990   -3.9409   -1.0681 H   0  0  0  0  0  0  0  0  0  0  0  0
    5.0295   -1.4413    1.2126 H   0  0  0  0  0  0  0  0  0  0  0  0
  1  2  1  0
  1 38  1  0
  1 39  1  0
  1 40  1  0
  2  3  1  0
  2 41  1  0
  2 42  1  0
  3  4  1  0
  4  5  2  0
  4 37  1  0
  5  6  1  0
  5 19  1  0
  6  7  2  0
  6  8  1  0
  8  9  1  0
  8 43  1  0
  9 10  1  0
  9 18  1  0
  9 44  1  1
 10 11  1  0
 10 45  1  0
 10 46  1  0
 11 12  1  0
 11 47  1  0
 11 48  1  0
 12 13  1  0
 12 17  1  0
 13 14  2  0
 13 15  1  0
 15 16  1  0
 15 49  1  0
 15 50  1  0
 16 51  1  0
 17 18  1  0
 17 52  1  0
 17 53  1  0
 18 54  1  0
 18 55  1  0
 19 20  1  0
 19 21  1  0
 21 22  1  0
 21 37  2  0
 22 23  2  0
 23 24  1  0
 23 26  1  0
 24 25  1  0
 24 56  1  0
 24 57  1  0
 25 58  1  0
 25 59  1  0
 25 60  1  0
 26 27  1  0
 26 36  2  0
 27 28  1  0
 27 61  1  0
 28 29  2  0
 28 30  1  0
 30 31  2  0
 30 35  1  0
 31 32  1  0
 31 62  1  0
 32 33  2  0
 32 63  1  0
 33 34  1  0
 33 64  1  0
 34 35  2  0
 34 65  1  0
 35 66  1  0
 36 37  1  0
 36 67  1  0
M  END

