
     RDKit          3D

 60 63  0  0  0  0  0  0  0  0999 V2000
    2.4553   -3.4776   -4.9176 C   0  0  0  0  0  0  0  0  0  0  0  0
    2.7661   -2.1454   -4.2851 C   0  0  0  0  0  0  0  0  0  0  0  0
    3.0656   -1.0506   -5.1114 C   0  0  0  0  0  0  0  0  0  0  0  0
    3.3630    0.2114   -4.5952 C   0  0  0  0  0  0  0  0  0  0  0  0
    3.3690    0.4134   -3.2127 C   0  0  0  0  0  0  0  0  0  0  0  0
    3.0768   -0.6519   -2.3667 C   0  0  0  0  0  0  0  0  0  0  0  0
    2.7746   -1.9297   -2.8811 C   0  0  0  0  0  0  0  0  0  0  0  0
    2.4796   -2.9988   -1.9220 C   0  0  0  0  0  0  0  0  0  0  0  0
    2.1501   -4.2491   -2.1169 N   0  0  0  0  0  0  0  0  0  0  0  0
    2.0086   -4.7389   -0.8410 C   0  0  0  0  0  0  0  0  0  0  0  0
    1.6164   -6.1528   -0.5109 C   0  0  0  0  0  0  0  0  0  0  0  0
    0.2242   -6.4291   -0.8446 N   0  0  0  0  0  0  0  0  0  0  0  0
   -0.0280   -6.7594   -2.2508 C   0  0  0  0  0  0  0  0  0  0  0  0
    0.2570   -8.2406   -2.5625 C   0  0  0  0  0  0  0  0  0  0  0  0
   -0.4367   -9.1659   -1.6696 N   0  0  0  0  0  0  0  0  0  0  0  0
   -1.8040   -9.4709   -2.0181 C   0  0  0  0  0  0  0  0  0  0  0  0
   -2.2661  -10.8370   -1.4716 C   0  0  0  0  0  0  0  0  0  0  0  0
   -1.5772  -11.4921   -0.7058 O   0  0  0  0  0  0  0  0  0  0  0  0
   -3.5034  -11.2829   -1.8767 N   0  0  0  0  0  0  0  0  0  0  0  0
   -4.4472  -10.5508   -2.7150 C   0  0  0  0  0  0  0  0  0  0  0  0
   -5.5908   -9.8751   -1.9450 C   0  0  0  0  0  0  0  0  0  0  0  0
   -6.3883  -10.7851   -0.9955 C   0  0  0  0  0  0  0  0  0  0  0  0
   -5.5911  -11.2848    0.2240 C   0  0  0  0  0  0  0  0  0  0  0  0
   -4.6759  -12.5057    0.0031 C   0  0  0  0  0  0  0  0  0  0  0  0
   -3.9667  -12.5709   -1.3609 C   0  0  0  0  0  0  0  0  0  0  0  0
   -0.1796   -8.8366   -0.2656 C   0  0  0  0  0  0  0  0  0  0  0  0
   -0.4697   -7.3593    0.0497 C   0  0  0  0  0  0  0  0  0  0  0  0
    2.2416   -3.8551    0.0957 N   0  0  0  0  0  0  0  0  0  0  0  0
    2.5538   -2.7018   -0.6098 O   0  0  0  0  0  0  0  0  0  0  0  0
    2.5356   -3.4090   -6.0121 H   0  0  0  0  0  0  0  0  0  0  0  0
    1.4423   -3.8207   -4.6583 H   0  0  0  0  0  0  0  0  0  0  0  0
    3.1342   -4.2656   -4.5595 H   0  0  0  0  0  0  0  0  0  0  0  0
    3.0644   -1.2003   -6.1943 H   0  0  0  0  0  0  0  0  0  0  0  0
    3.5906    1.0367   -5.2748 H   0  0  0  0  0  0  0  0  0  0  0  0
    3.6003    1.3958   -2.7948 H   0  0  0  0  0  0  0  0  0  0  0  0
    3.0783   -0.5064   -1.2857 H   0  0  0  0  0  0  0  0  0  0  0  0
    1.7521   -6.2709    0.5730 H   0  0  0  0  0  0  0  0  0  0  0  0
    2.3443   -6.8328   -1.0022 H   0  0  0  0  0  0  0  0  0  0  0  0
    0.5774   -6.0993   -2.8897 H   0  0  0  0  0  0  0  0  0  0  0  0
   -1.0880   -6.5323   -2.4709 H   0  0  0  0  0  0  0  0  0  0  0  0
    1.3432   -8.4284   -2.4662 H   0  0  0  0  0  0  0  0  0  0  0  0
   -0.0062   -8.4723   -3.6084 H   0  0  0  0  0  0  0  0  0  0  0  0
   -1.8731   -9.5001   -3.1178 H   0  0  0  0  0  0  0  0  0  0  0  0
   -2.5515   -8.7085   -1.6965 H   0  0  0  0  0  0  0  0  0  0  0  0
   -4.8733  -11.2676   -3.4404 H   0  0  0  0  0  0  0  0  0  0  0  0
   -3.9148   -9.7989   -3.3122 H   0  0  0  0  0  0  0  0  0  0  0  0
   -6.2746   -9.4289   -2.6890 H   0  0  0  0  0  0  0  0  0  0  0  0
   -5.1807   -9.0320   -1.3603 H   0  0  0  0  0  0  0  0  0  0  0  0
   -6.8143  -11.6388   -1.5550 H   0  0  0  0  0  0  0  0  0  0  0  0
   -7.2551  -10.2073   -0.6333 H   0  0  0  0  0  0  0  0  0  0  0  0
   -6.2927  -11.5305    1.0386 H   0  0  0  0  0  0  0  0  0  0  0  0
   -4.9876  -10.4418    0.6043 H   0  0  0  0  0  0  0  0  0  0  0  0
   -5.2606  -13.4364    0.1104 H   0  0  0  0  0  0  0  0  0  0  0  0
   -3.9171  -12.5239    0.8011 H   0  0  0  0  0  0  0  0  0  0  0  0
   -4.6479  -12.9888   -2.1191 H   0  0  0  0  0  0  0  0  0  0  0  0
   -3.0994  -13.2416   -1.2856 H   0  0  0  0  0  0  0  0  0  0  0  0
    0.8836   -9.0560   -0.0540 H   0  0  0  0  0  0  0  0  0  0  0  0
   -0.7648   -9.5108    0.3743 H   0  0  0  0  0  0  0  0  0  0  0  0
   -0.2047   -7.1252    1.0938 H   0  0  0  0  0  0  0  0  0  0  0  0
   -1.5553   -7.1672   -0.0452 H   0  0  0  0  0  0  0  0  0  0  0  0
  1  2  1  0
  1 30  1  0
  1 31  1  0
  1 32  1  0
  2  3  2  0
  2  7  1  0
  3  4  1  0
  3 33  1  0
  4  5  2  0
  4 34  1  0
  5  6  1  0
  5 35  1  0
  6  7  2  0
  6 36  1  0
  7  8  1  0
  8  9  2  0
  8 29  1  0
  9 10  1  0
 10 11  1  0
 10 28  2  0
 11 12  1  0
 11 37  1  0
 11 38  1  0
 12 13  1  0
 12 27  1  0
 13 14  1  0
 13 39  1  0
 13 40  1  0
 14 15  1  0
 14 41  1  0
 14 42  1  0
 15 16  1  0
 15 26  1  0
 16 17  1  0
 16 43  1  0
 16 44  1  0
 17 18  2  0
 17 19  1  0
 19 20  1  0
 19 25  1  0
 20 21  1  0
 20 45  1  0
 20 46  1  0
 21 22  1  0
 21 47  1  0
 21 48  1  0
 22 23  1  0
 22 49  1  0
 22 50  1  0
 23 24  1  0
 23 51  1  0
 23 52  1  0
 24 25  1  0
 24 53  1  0
 24 54  1  0
 25 55  1  0
 25 56  1  0
 26 27  1  0
 26 57  1  0
 26 58  1  0
 27 59  1  0
 27 60  1  0
 28 29  1  0
M  END

