
     RDKit          3D

 61 65  0  0  0  0  0  0  0  0999 V2000
    1.5090    1.0908    2.2359 C   0  0  0  0  0  0  0  0  0  0  0  0
    2.9200    0.8278    1.7619 C   0  0  0  0  0  0  0  0  0  0  0  0
    3.0300   -0.5850    1.4522 O   0  0  0  0  0  0  0  0  0  0  0  0
    4.1533   -1.0895    0.9913 C   0  0  0  0  0  0  0  0  0  0  0  0
    5.3372   -0.3729    0.7580 C   0  0  0  0  0  0  0  0  0  0  0  0
    6.4637   -1.0039    0.2561 C   0  0  0  0  0  0  0  0  0  0  0  0
    7.7782   -0.2455    0.0742 C   0  0  1  0  0  0  0  0  0  0  0  0
    7.6479    1.2571    0.0151 C   0  0  0  0  0  0  0  0  0  0  0  0
    7.0562    2.3422   -0.6522 C   0  0  0  0  0  0  0  0  0  0  0  0
    6.1999    2.3575   -1.8523 C   0  0  0  0  0  0  0  0  0  0  0  0
    6.0614    1.2371   -2.6892 C   0  0  0  0  0  0  0  0  0  0  0  0
    5.2444    1.2737   -3.8225 C   0  0  0  0  0  0  0  0  0  0  0  0
    4.5338    2.4317   -4.1717 C   0  0  0  0  0  0  0  0  0  0  0  0
    3.6672    2.4870   -5.4073 C   0  0  0  0  0  0  0  0  0  0  0  0
    4.6783    3.5546   -3.3383 C   0  0  0  0  0  0  0  0  0  0  0  0
    5.4915    3.5240   -2.2072 C   0  0  0  0  0  0  0  0  0  0  0  0
    7.3584    3.5136   -0.0373 N   0  0  0  0  0  0  0  0  0  0  0  0
    8.1144    3.1627    1.0637 N   0  0  0  0  0  0  0  0  0  0  0  0
    8.6551    3.8823    1.5236 H   0  0  0  0  0  0  0  0  0  0  0  0
    8.3543    1.8035    1.1028 C   0  0  0  0  0  0  0  0  0  0  0  0
    8.9724    0.8264    1.9167 C   0  0  0  0  0  0  0  0  0  0  0  0
    9.7499    0.8571    2.8812 O   0  0  0  0  0  0  0  0  0  0  0  0
    8.5635   -0.4647    1.3070 N   0  0  0  0  0  0  0  0  0  0  0  0
    9.5220   -1.5559    1.4002 C   0  0  0  0  0  0  0  0  0  0  0  0
   10.6243   -1.5486    0.3539 C   0  0  0  0  0  0  0  0  0  0  0  0
   11.5920   -0.5252    0.3578 C   0  0  0  0  0  0  0  0  0  0  0  0
   12.5898   -0.4869   -0.6137 C   0  0  0  0  0  0  0  0  0  0  0  0
   12.6677   -1.4607   -1.6266 C   0  0  0  0  0  0  0  0  0  0  0  0
   13.7538   -1.3975   -2.6734 C   0  0  0  0  0  0  0  0  0  0  0  0
   11.7085   -2.4811   -1.6244 C   0  0  0  0  0  0  0  0  0  0  0  0
   10.7043   -2.5224   -0.6492 C   0  0  0  0  0  0  0  0  0  0  0  0
    6.3981   -2.4078   -0.0460 C   0  0  0  0  0  0  0  0  0  0  0  0
    5.2533   -3.1456    0.1734 C   0  0  0  0  0  0  0  0  0  0  0  0
    4.1119   -2.5141    0.7008 C   0  0  0  0  0  0  0  0  0  0  0  0
    2.9697   -3.1364    0.9527 O   0  0  0  0  0  0  0  0  0  0  0  0
    1.4012    2.1589    2.4763 H   0  0  0  0  0  0  0  0  0  0  0  0
    1.2792    0.5070    3.1396 H   0  0  0  0  0  0  0  0  0  0  0  0
    0.7764    0.8361    1.4556 H   0  0  0  0  0  0  0  0  0  0  0  0
    3.6674    1.0681    2.5342 H   0  0  0  0  0  0  0  0  0  0  0  0
    3.1645    1.3980    0.8521 H   0  0  0  0  0  0  0  0  0  0  0  0
    5.3930    0.6959    0.9527 H   0  0  0  0  0  0  0  0  0  0  0  0
    8.2988   -0.6662   -0.8116 H   0  0  0  0  0  0  0  0  0  0  0  0
    6.6213    0.3252   -2.4681 H   0  0  0  0  0  0  0  0  0  0  0  0
    5.1669    0.3851   -4.4570 H   0  0  0  0  0  0  0  0  0  0  0  0
    3.5361    1.4901   -5.8553 H   0  0  0  0  0  0  0  0  0  0  0  0
    4.1082    3.1404   -6.1804 H   0  0  0  0  0  0  0  0  0  0  0  0
    2.6655    2.8908   -5.1841 H   0  0  0  0  0  0  0  0  0  0  0  0
    4.1428    4.4771   -3.5861 H   0  0  0  0  0  0  0  0  0  0  0  0
    5.6041    4.4043   -1.5722 H   0  0  0  0  0  0  0  0  0  0  0  0
    9.0036   -2.5312    1.3817 H   0  0  0  0  0  0  0  0  0  0  0  0
    9.9654   -1.4454    2.4021 H   0  0  0  0  0  0  0  0  0  0  0  0
   11.5542    0.2307    1.1461 H   0  0  0  0  0  0  0  0  0  0  0  0
   13.3327    0.3166   -0.5862 H   0  0  0  0  0  0  0  0  0  0  0  0
   13.6861   -0.4692   -3.2658 H   0  0  0  0  0  0  0  0  0  0  0  0
   13.6947   -2.2454   -3.3724 H   0  0  0  0  0  0  0  0  0  0  0  0
   14.7566   -1.4098   -2.2138 H   0  0  0  0  0  0  0  0  0  0  0  0
   11.7472   -3.2583   -2.3939 H   0  0  0  0  0  0  0  0  0  0  0  0
    9.9802   -3.3447   -0.6632 H   0  0  0  0  0  0  0  0  0  0  0  0
    7.2789   -2.8942   -0.4659 H   0  0  0  0  0  0  0  0  0  0  0  0
    5.2162   -4.2131   -0.0592 H   0  0  0  0  0  0  0  0  0  0  0  0
    3.0339   -4.0789    0.7328 H   0  0  0  0  0  0  0  0  0  0  0  0
  1  2  1  0
  1 36  1  0
  1 37  1  0
  1 38  1  0
  2  3  1  0
  2 39  1  0
  2 40  1  0
  3  4  1  0
  4  5  2  0
  4 34  1  0
  5  6  1  0
  5 41  1  0
  6  7  1  0
  6 32  2  0
  7  8  1  0
  7 23  1  0
  7 42  1  6
  8  9  1  0
  8 20  2  0
  9 10  1  0
  9 17  2  0
 10 11  2  0
 10 16  1  0
 11 12  1  0
 11 43  1  0
 12 13  2  0
 12 44  1  0
 13 14  1  0
 13 15  1  0
 14 45  1  0
 14 46  1  0
 14 47  1  0
 15 16  2  0
 15 48  1  0
 16 49  1  0
 17 18  1  0
 18 19  1  0
 18 20  1  0
 20 21  1  0
 21 22  2  0
 21 23  1  0
 23 24  1  0
 24 25  1  0
 24 50  1  0
 24 51  1  0
 25 26  2  0
 25 31  1  0
 26 27  1  0
 26 52  1  0
 27 28  2  0
 27 53  1  0
 28 29  1  0
 28 30  1  0
 29 54  1  0
 29 55  1  0
 29 56  1  0
 30 31  2  0
 30 57  1  0
 31 58  1  0
 32 33  1  0
 32 59  1  0
 33 34  2  0
 33 60  1  0
 34 35  1  0
 35 61  1  0
M  END

