
     RDKit          3D

 37 37  0  0  0  0  0  0  0  0999 V2000
    1.4276   -0.0933   -1.3464 C   0  0  0  0  0  0  0  0  0  0  0  0
    2.4431    0.8318   -1.8344 N   0  0  0  0  0  0  0  0  0  0  0  0
    2.4956    1.1943   -3.2239 C   0  0  0  0  0  0  0  0  0  0  0  0
    1.9635    2.6542   -3.3663 C   0  0  0  0  0  0  0  0  0  0  0  0
    2.6502    3.5204   -2.5119 O   0  0  0  0  0  0  0  0  0  0  0  0
    2.5490    3.1326   -1.1584 C   0  0  0  0  0  0  0  0  0  0  0  0
    3.1403    1.7188   -0.9216 C   0  0  2  0  0  0  0  0  0  0  0  0
    4.6769    1.6701   -1.0458 C   0  0  0  0  0  0  0  0  0  0  0  0
    5.3224    1.8420    0.3322 C   0  0  0  0  0  0  0  0  0  0  0  0
    5.0012    0.6973    1.0712 O   0  0  0  0  0  0  0  0  0  0  0  0
    4.9006    0.7346    2.5152 C   0  0  1  0  0  0  0  0  0  0  0  0
    3.8075    1.7092    2.9839 C   0  0  0  0  0  0  0  0  0  0  0  0
    4.4872   -0.6980    2.8653 C   0  0  0  0  0  0  0  0  0  0  0  0
    6.2674    1.0865    3.1183 C   0  0  0  0  0  0  0  0  0  0  0  0
    1.6877   -1.1077   -1.6988 H   0  0  0  0  0  0  0  0  0  0  0  0
    0.4516    0.1962   -1.7914 H   0  0  0  0  0  0  0  0  0  0  0  0
    1.4138   -0.0376   -0.2217 H   0  0  0  0  0  0  0  0  0  0  0  0
    1.8739    0.4967   -3.8131 H   0  0  0  0  0  0  0  0  0  0  0  0
    3.5401    1.1594   -3.5690 H   0  0  0  0  0  0  0  0  0  0  0  0
    0.8764    2.6430   -3.1472 H   0  0  0  0  0  0  0  0  0  0  0  0
    2.1206    2.9907   -4.4012 H   0  0  0  0  0  0  0  0  0  0  0  0
    1.4931    3.1331   -0.8165 H   0  0  0  0  0  0  0  0  0  0  0  0
    3.1136    3.8583   -0.5553 H   0  0  0  0  0  0  0  0  0  0  0  0
    2.8340    1.3809    0.1021 H   0  0  0  0  0  0  0  0  0  0  0  0
    5.0437    2.4339   -1.7509 H   0  0  0  0  0  0  0  0  0  0  0  0
    4.9876    0.6842   -1.4256 H   0  0  0  0  0  0  0  0  0  0  0  0
    4.9539    2.7704    0.8100 H   0  0  0  0  0  0  0  0  0  0  0  0
    6.4174    1.9625    0.2074 H   0  0  0  0  0  0  0  0  0  0  0  0
    2.8403    1.4586    2.4855 H   0  0  0  0  0  0  0  0  0  0  0  0
    4.0562    2.7641    2.7706 H   0  0  0  0  0  0  0  0  0  0  0  0
    3.6811    1.6202    4.0780 H   0  0  0  0  0  0  0  0  0  0  0  0
    3.5179   -0.9167    2.3748 H   0  0  0  0  0  0  0  0  0  0  0  0
    4.3743   -0.8162    3.9554 H   0  0  0  0  0  0  0  0  0  0  0  0
    5.2432   -1.4139    2.5033 H   0  0  0  0  0  0  0  0  0  0  0  0
    6.5693    2.1171    2.8652 H   0  0  0  0  0  0  0  0  0  0  0  0
    7.0408    0.3922    2.7487 H   0  0  0  0  0  0  0  0  0  0  0  0
    6.2334    1.0160    4.2170 H   0  0  0  0  0  0  0  0  0  0  0  0
  1  2  1  0
  1 15  1  0
  1 16  1  0
  1 17  1  0
  2  3  1  0
  2  7  1  0
  3  4  1  0
  3 18  1  0
  3 19  1  0
  4  5  1  0
  4 20  1  0
  4 21  1  0
  5  6  1  0
  6  7  1  0
  6 22  1  0
  6 23  1  0
  7  8  1  0
  7 24  1  1
  8  9  1  0
  8 25  1  0
  8 26  1  0
  9 10  1  0
  9 27  1  0
  9 28  1  0
 11 10  1  6
 11 12  1  0
 11 13  1  0
 11 14  1  0
 12 29  1  0
 12 30  1  0
 12 31  1  0
 13 32  1  0
 13 33  1  0
 13 34  1  0
 14 35  1  0
 14 36  1  0
 14 37  1  0
M  END

