
     RDKit          3D

 48 50  0  0  0  0  0  0  0  0999 V2000
    1.1567   -0.0891    0.4238 C   0  0  0  0  0  0  0  0  0  0  0  0
    2.6497   -0.0478    0.3278 C   0  0  0  0  0  0  0  0  0  0  0  0
    3.4529    1.0972    0.4842 C   0  0  0  0  0  0  0  0  0  0  0  0
    3.1587    2.4787    0.7683 C   0  0  0  0  0  0  0  0  0  0  0  0
    1.9800    2.8727    0.9353 O   0  0  0  0  0  0  0  0  0  0  0  0
    4.2722    3.3174    0.8378 N   0  0  0  0  0  0  0  0  0  0  0  0
    4.3379    4.7550    1.0948 C   0  0  1  0  0  0  0  0  0  0  0  0
    3.6838    5.6560    0.0140 C   0  0  0  0  0  0  0  0  0  0  0  0
    2.1789    5.8969    0.1943 C   0  0  0  0  0  0  0  0  0  0  0  0
    1.8623    6.4067    1.6069 C   0  0  0  0  0  0  0  0  0  0  0  0
    2.3890    5.4404    2.6766 C   0  0  0  0  0  0  0  0  0  0  0  0
    3.8956    5.1981    2.5145 C   0  0  0  0  0  0  0  0  0  0  0  0
    4.8433    0.7309    0.3037 O   0  0  0  0  0  0  0  0  0  0  0  0
    4.8847   -0.5710    0.0223 C   0  0  0  0  0  0  0  0  0  0  0  0
    3.5915   -1.1107    0.0293 C   0  0  0  0  0  0  0  0  0  0  0  0
    3.4369   -2.5076   -0.1686 C   0  0  0  0  0  0  0  0  0  0  0  0
    2.2023   -3.0157   -0.0925 N   0  0  0  0  0  0  0  0  0  0  0  0
    2.0220   -4.3135   -0.1477 N   0  0  0  0  0  0  0  0  0  0  0  0
    0.7138   -4.8936   -0.1216 C   0  0  0  0  0  0  0  0  0  0  0  0
   -0.2785   -3.9865   -0.0477 N   0  0  0  0  0  0  0  0  0  0  0  0
    0.6274   -6.1025   -0.1674 O   0  0  0  0  0  0  0  0  0  0  0  0
    4.6726   -3.3595   -0.3807 C   0  0  0  0  0  0  0  0  0  0  0  0
    5.8691   -2.5841   -0.9558 C   0  0  0  0  0  0  0  0  0  0  0  0
    6.1595   -1.2956   -0.1757 C   0  0  0  0  0  0  0  0  0  0  0  0
    0.7980    0.9256    0.6421 H   0  0  0  0  0  0  0  0  0  0  0  0
    0.7998   -0.7595    1.2276 H   0  0  0  0  0  0  0  0  0  0  0  0
    0.6811   -0.4268   -0.5169 H   0  0  0  0  0  0  0  0  0  0  0  0
    5.1627    2.8669    0.6796 H   0  0  0  0  0  0  0  0  0  0  0  0
    5.4202    4.9587    1.0403 H   0  0  0  0  0  0  0  0  0  0  0  0
    3.8979    5.2289   -0.9799 H   0  0  0  0  0  0  0  0  0  0  0  0
    4.2036    6.6322    0.0544 H   0  0  0  0  0  0  0  0  0  0  0  0
    1.6414    4.9518    0.0291 H   0  0  0  0  0  0  0  0  0  0  0  0
    1.8330    6.6246   -0.5611 H   0  0  0  0  0  0  0  0  0  0  0  0
    0.7739    6.5455    1.7245 H   0  0  0  0  0  0  0  0  0  0  0  0
    2.3197    7.4057    1.7523 H   0  0  0  0  0  0  0  0  0  0  0  0
    1.8590    4.4816    2.5810 H   0  0  0  0  0  0  0  0  0  0  0  0
    2.1905    5.8423    3.6860 H   0  0  0  0  0  0  0  0  0  0  0  0
    4.2560    4.4553    3.2454 H   0  0  0  0  0  0  0  0  0  0  0  0
    4.4298    6.1416    2.7361 H   0  0  0  0  0  0  0  0  0  0  0  0
    2.7771   -5.0053   -0.1871 H   0  0  0  0  0  0  0  0  0  0  0  0
   -0.0691   -2.9949    0.0049 H   0  0  0  0  0  0  0  0  0  0  0  0
   -1.2318   -4.3219   -0.0112 H   0  0  0  0  0  0  0  0  0  0  0  0
    4.4444   -4.2106   -1.0437 H   0  0  0  0  0  0  0  0  0  0  0  0
    4.9470   -3.7974    0.6011 H   0  0  0  0  0  0  0  0  0  0  0  0
    5.6490   -2.3267   -2.0048 H   0  0  0  0  0  0  0  0  0  0  0  0
    6.7532   -3.2403   -0.9610 H   0  0  0  0  0  0  0  0  0  0  0  0
    6.8865   -0.6614   -0.7115 H   0  0  0  0  0  0  0  0  0  0  0  0
    6.6346   -1.5342    0.8018 H   0  0  0  0  0  0  0  0  0  0  0  0
  1  2  1  0
  1 25  1  0
  1 26  1  0
  1 27  1  0
  2  3  2  0
  2 15  1  0
  3  4  1  0
  3 13  1  0
  4  5  2  0
  4  6  1  0
  6  7  1  0
  6 28  1  0
  7  8  1  0
  7 12  1  0
  7 29  1  1
  8  9  1  0
  8 30  1  0
  8 31  1  0
  9 10  1  0
  9 32  1  0
  9 33  1  0
 10 11  1  0
 10 34  1  0
 10 35  1  0
 11 12  1  0
 11 36  1  0
 11 37  1  0
 12 38  1  0
 12 39  1  0
 13 14  1  0
 14 15  2  0
 14 24  1  0
 15 16  1  0
 16 17  2  0
 16 22  1  0
 17 18  1  0
 18 19  1  0
 18 40  1  0
 19 20  1  0
 19 21  2  0
 20 41  1  0
 20 42  1  0
 22 23  1  0
 22 43  1  0
 22 44  1  0
 23 24  1  0
 23 45  1  0
 23 46  1  0
 24 47  1  0
 24 48  1  0
M  END

