
     RDKit          3D

 68 72  0  0  0  0  0  0  0  0999 V2000
    3.8708    1.4853   -4.9898 C   0  0  0  0  0  0  0  0  0  0  0  0
    4.8978    1.4615   -4.0240 O   0  0  0  0  0  0  0  0  0  0  0  0
    5.1256    0.3234   -3.3214 C   0  0  0  0  0  0  0  0  0  0  0  0
    6.1539    0.3850   -2.3618 C   0  0  0  0  0  0  0  0  0  0  0  0
    6.4434   -0.7329   -1.5893 C   0  0  0  0  0  0  0  0  0  0  0  0
    5.7259   -1.9266   -1.7550 C   0  0  0  0  0  0  0  0  0  0  0  0
    4.7096   -1.9989   -2.7093 C   0  0  0  0  0  0  0  0  0  0  0  0
    3.8878   -3.2637   -2.9488 C   0  0  2  0  0  0  0  0  0  0  0  0
    2.8424   -2.9576   -3.0837 H   0  0  0  0  0  0  0  0  0  0  0  0
    3.8941   -4.2989   -1.8327 C   0  0  0  0  0  0  0  0  0  0  0  0
    4.8713   -5.3261   -1.7080 C   0  0  0  0  0  0  0  0  0  0  0  0
    4.7235   -6.3757   -0.6417 C   0  0  0  0  0  0  0  0  0  0  0  0
    4.0235   -5.8371    0.6179 C   0  0  2  0  0  0  0  0  0  0  0  0
    4.6504   -5.0266    1.0228 H   0  0  0  0  0  0  0  0  0  0  0  0
    3.8510   -6.8784    1.7076 C   0  0  0  0  0  0  0  0  0  0  0  0
    4.4021   -6.6757    2.9810 C   0  0  0  0  0  0  0  0  0  0  0  0
    4.2569   -7.6290    3.9923 C   0  0  0  0  0  0  0  0  0  0  0  0
    3.5488   -8.8193    3.7720 C   0  0  0  0  0  0  0  0  0  0  0  0
    3.3779   -9.8508    4.8596 C   0  0  0  0  0  0  0  0  0  0  0  0
    2.9910   -9.0193    2.4973 C   0  0  0  0  0  0  0  0  0  0  0  0
    3.1359   -8.0700    1.4865 C   0  0  0  0  0  0  0  0  0  0  0  0
    2.6690   -5.2159    0.2321 C   0  0  0  0  0  0  0  0  0  0  0  0
    2.8432   -4.2238   -0.9302 C   0  0  0  0  0  0  0  0  0  0  0  0
    1.8902   -3.3587   -0.9234 O   0  0  0  0  0  0  0  0  0  0  0  0
    5.9598   -5.5179   -2.5397 N   0  0  0  0  0  0  0  0  0  0  0  0
    6.4289   -4.9013   -3.6868 C   0  0  0  0  0  0  0  0  0  0  0  0
    7.7835   -5.1098   -4.0503 C   0  0  0  0  0  0  0  0  0  0  0  0
    8.3286   -4.5180   -5.1805 C   0  0  0  0  0  0  0  0  0  0  0  0
    7.5502   -3.6709   -5.9851 C   0  0  0  0  0  0  0  0  0  0  0  0
    6.2156   -3.4582   -5.6408 C   0  0  0  0  0  0  0  0  0  0  0  0
    5.6337   -4.0859   -4.5341 C   0  0  0  0  0  0  0  0  0  0  0  0
    4.2505   -3.8991   -4.2414 N   0  0  0  0  0  0  0  0  0  0  0  0
    3.2377   -4.3576   -5.0400 C   0  0  0  0  0  0  0  0  0  0  0  0
    2.0570   -4.1333   -4.7513 O   0  0  0  0  0  0  0  0  0  0  0  0
    3.5948   -5.1688   -6.2807 C   0  0  0  0  0  0  0  0  0  0  0  0
    2.4620   -6.0929   -6.7679 C   0  0  0  0  0  0  0  0  0  0  0  0
    1.3507   -5.4238   -7.5883 C   0  0  0  0  0  0  0  0  0  0  0  0
    1.0927   -5.7683   -8.7150 O   0  0  0  0  0  0  0  0  0  0  0  0
    0.6797   -4.4467   -6.9772 O   0  0  0  0  0  0  0  0  0  0  0  0
    4.4074   -0.8672   -3.4893 C   0  0  0  0  0  0  0  0  0  0  0  0
    3.8671    2.4965   -5.4182 H   0  0  0  0  0  0  0  0  0  0  0  0
    2.8807    1.2821   -4.5436 H   0  0  0  0  0  0  0  0  0  0  0  0
    4.0499    0.7555   -5.8002 H   0  0  0  0  0  0  0  0  0  0  0  0
    6.6989    1.3236   -2.2435 H   0  0  0  0  0  0  0  0  0  0  0  0
    7.2395   -0.6784   -0.8421 H   0  0  0  0  0  0  0  0  0  0  0  0
    5.9551   -2.7949   -1.1359 H   0  0  0  0  0  0  0  0  0  0  0  0
    5.7150   -6.7733   -0.3575 H   0  0  0  0  0  0  0  0  0  0  0  0
    4.1544   -7.2475   -1.0275 H   0  0  0  0  0  0  0  0  0  0  0  0
    4.9595   -5.7569    3.1854 H   0  0  0  0  0  0  0  0  0  0  0  0
    4.7037   -7.4424    4.9730 H   0  0  0  0  0  0  0  0  0  0  0  0
    3.9344   -9.5780    5.7683 H   0  0  0  0  0  0  0  0  0  0  0  0
    3.7309  -10.8424    4.5312 H   0  0  0  0  0  0  0  0  0  0  0  0
    2.3165   -9.9649    5.1379 H   0  0  0  0  0  0  0  0  0  0  0  0
    2.4316   -9.9372    2.2935 H   0  0  0  0  0  0  0  0  0  0  0  0
    2.6848   -8.2661    0.5098 H   0  0  0  0  0  0  0  0  0  0  0  0
    2.2187   -4.6933    1.0890 H   0  0  0  0  0  0  0  0  0  0  0  0
    1.9425   -5.9814   -0.0908 H   0  0  0  0  0  0  0  0  0  0  0  0
    6.6147   -6.1998   -2.1706 H   0  0  0  0  0  0  0  0  0  0  0  0
    8.4060   -5.7470   -3.4145 H   0  0  0  0  0  0  0  0  0  0  0  0
    9.3764   -4.7033   -5.4296 H   0  0  0  0  0  0  0  0  0  0  0  0
    7.9803   -3.1784   -6.8589 H   0  0  0  0  0  0  0  0  0  0  0  0
    5.5906   -2.7952   -6.2425 H   0  0  0  0  0  0  0  0  0  0  0  0
    4.4924   -5.7676   -6.0687 H   0  0  0  0  0  0  0  0  0  0  0  0
    3.8934   -4.4778   -7.0873 H   0  0  0  0  0  0  0  0  0  0  0  0
    2.0037   -6.6024   -5.9031 H   0  0  0  0  0  0  0  0  0  0  0  0
    2.8887   -6.8646   -7.4213 H   0  0  0  0  0  0  0  0  0  0  0  0
    1.0458   -4.3034   -6.0661 H   0  0  0  0  0  0  0  0  0  0  0  0
    3.6004   -0.9319   -4.2204 H   0  0  0  0  0  0  0  0  0  0  0  0
  1  2  1  0
  1 41  1  0
  1 42  1  0
  1 43  1  0
  2  3  1  0
  3  4  2  0
  3 40  1  0
  4  5  1  0
  4 44  1  0
  5  6  2  0
  5 45  1  0
  6  7  1  0
  6 46  1  0
  7  8  1  0
  7 40  2  0
  8  9  1  6
  8 10  1  0
  8 32  1  0
 10 11  2  0
 10 23  1  0
 11 12  1  0
 11 25  1  0
 12 13  1  0
 12 47  1  0
 12 48  1  0
 13 14  1  1
 13 15  1  0
 13 22  1  0
 15 16  2  0
 15 21  1  0
 16 17  1  0
 16 49  1  0
 17 18  2  0
 17 50  1  0
 18 19  1  0
 18 20  1  0
 19 51  1  0
 19 52  1  0
 19 53  1  0
 20 21  2  0
 20 54  1  0
 21 55  1  0
 22 23  1  0
 22 56  1  0
 22 57  1  0
 23 24  2  0
 25 26  1  0
 25 58  1  0
 26 27  1  0
 26 31  2  0
 27 28  2  0
 27 59  1  0
 28 29  1  0
 28 60  1  0
 29 30  2  0
 29 61  1  0
 30 31  1  0
 30 62  1  0
 31 32  1  0
 32 33  1  0
 33 34  2  0
 33 35  1  0
 35 36  1  0
 35 63  1  0
 35 64  1  0
 36 37  1  0
 36 65  1  0
 36 66  1  0
 37 38  2  0
 37 39  1  0
 39 67  1  0
 40 68  1  0
M  END

