
     RDKit          3D

 38 38  0  0  0  0  0  0  0  0999 V2000
    3.1647   -3.4909   -0.1722 C   0  0  0  0  0  0  0  0  0  0  0  0
    2.4743   -2.1424   -0.3794 C   0  0  0  0  0  0  0  0  0  0  0  0
    2.8969   -1.0441    0.6103 C   0  0  0  0  0  0  0  0  0  0  0  0
    4.3206   -0.7066    0.5932 N   0  0  0  0  0  0  0  0  0  0  0  0
    4.8117    0.1479   -0.4664 C   0  0  0  0  0  0  0  0  0  0  0  0
    4.5582    1.6500   -0.2637 C   0  0  0  0  0  0  0  0  0  0  0  0
    5.2060    2.2361    0.9898 C   0  0  0  0  0  0  0  0  0  0  0  0
    5.1337   -1.3233    1.5264 C   0  0  0  0  0  0  0  0  0  0  0  0
    4.6576   -2.0313    2.4481 O   0  0  0  0  0  0  0  0  0  0  0  0
    6.5931   -1.1788    1.4637 C   0  0  0  0  0  0  0  0  0  0  0  0
    7.2384   -0.4938    0.5787 O   0  0  0  0  0  0  0  0  0  0  0  0
    7.2456   -1.8217    2.4793 N   0  0  0  0  0  0  0  0  0  0  0  0
    8.5975   -1.9322    2.7679 C   0  0  0  0  0  0  0  0  0  0  0  0
    9.6125   -1.3386    1.9876 C   0  0  0  0  0  0  0  0  0  0  0  0
   10.9527   -1.5001    2.3325 C   0  0  0  0  0  0  0  0  0  0  0  0
   11.3062   -2.2503    3.4584 C   0  0  0  0  0  0  0  0  0  0  0  0
   12.9917   -2.4457    3.8870 Cl  0  0  0  0  0  0  0  0  0  0  0  0
   10.3120   -2.8432    4.2454 C   0  0  0  0  0  0  0  0  0  0  0  0
    8.9732   -2.6849    3.9041 C   0  0  0  0  0  0  0  0  0  0  0  0
    2.7658   -4.2463   -0.8677 H   0  0  0  0  0  0  0  0  0  0  0  0
    3.0265   -3.8604    0.8557 H   0  0  0  0  0  0  0  0  0  0  0  0
    4.2496   -3.4195   -0.3499 H   0  0  0  0  0  0  0  0  0  0  0  0
    1.3807   -2.2601   -0.2769 H   0  0  0  0  0  0  0  0  0  0  0  0
    2.6377   -1.7936   -1.4150 H   0  0  0  0  0  0  0  0  0  0  0  0
    2.6610   -1.3590    1.6381 H   0  0  0  0  0  0  0  0  0  0  0  0
    2.3255   -0.1246    0.4010 H   0  0  0  0  0  0  0  0  0  0  0  0
    4.3898   -0.1878   -1.4303 H   0  0  0  0  0  0  0  0  0  0  0  0
    5.9133   -0.0085   -0.5435 H   0  0  0  0  0  0  0  0  0  0  0  0
    3.4676    1.8315   -0.2458 H   0  0  0  0  0  0  0  0  0  0  0  0
    4.9341    2.1684   -1.1629 H   0  0  0  0  0  0  0  0  0  0  0  0
    4.7988    1.7781    1.9051 H   0  0  0  0  0  0  0  0  0  0  0  0
    5.0295    3.3212    1.0549 H   0  0  0  0  0  0  0  0  0  0  0  0
    6.2942    2.0651    0.9870 H   0  0  0  0  0  0  0  0  0  0  0  0
    6.5687   -2.2934    3.0856 H   0  0  0  0  0  0  0  0  0  0  0  0
    9.3425   -0.7496    1.1104 H   0  0  0  0  0  0  0  0  0  0  0  0
   11.7320   -1.0382    1.7238 H   0  0  0  0  0  0  0  0  0  0  0  0
   10.5905   -3.4275    5.1240 H   0  0  0  0  0  0  0  0  0  0  0  0
    8.2010   -3.1509    4.5221 H   0  0  0  0  0  0  0  0  0  0  0  0
  1  2  1  0
  1 20  1  0
  1 21  1  0
  1 22  1  0
  2  3  1  0
  2 23  1  0
  2 24  1  0
  3  4  1  0
  3 25  1  0
  3 26  1  0
  4  5  1  0
  4  8  1  0
  5  6  1  0
  5 27  1  0
  5 28  1  0
  6  7  1  0
  6 29  1  0
  6 30  1  0
  7 31  1  0
  7 32  1  0
  7 33  1  0
  8  9  2  0
  8 10  1  0
 10 11  2  0
 10 12  1  0
 12 13  1  0
 12 34  1  0
 13 14  2  0
 13 19  1  0
 14 15  1  0
 14 35  1  0
 15 16  2  0
 15 36  1  0
 16 17  1  0
 16 18  1  0
 18 19  2  0
 18 37  1  0
 19 38  1  0
M  END

