
     RDKit          3D

 33 33  0  0  0  0  0  0  0  0999 V2000
    1.1544    0.0927    0.5797 F   0  0  0  0  0  0  0  0  0  0  0  0
    2.3029    0.3554   -0.0398 C   0  0  1  0  0  0  0  0  0  0  0  0
    2.0578    1.1482   -1.0786 F   0  0  0  0  0  0  0  0  0  0  0  0
    3.1171    0.9830    0.8091 F   0  0  0  0  0  0  0  0  0  0  0  0
    2.9381   -0.9890   -0.5092 C   0  0  1  0  0  0  0  0  0  0  0  0
    2.9124   -1.8386    0.5301 F   0  0  0  0  0  0  0  0  0  0  0  0
    2.1703   -1.4772   -1.5010 F   0  0  0  0  0  0  0  0  0  0  0  0
    4.4116   -0.8534   -1.0089 C   0  0  1  0  0  0  0  0  0  0  0  0
    4.5080    0.2418   -1.7851 F   0  0  0  0  0  0  0  0  0  0  0  0
    5.2048   -0.7002    0.0666 F   0  0  0  0  0  0  0  0  0  0  0  0
    4.8942   -2.0905   -1.8378 C   0  0  1  0  0  0  0  0  0  0  0  0
    4.4601   -3.2128   -1.2360 F   0  0  0  0  0  0  0  0  0  0  0  0
    4.3512   -2.0092   -3.0639 F   0  0  0  0  0  0  0  0  0  0  0  0
    6.4508   -2.1738   -1.9616 C   0  0  1  0  0  0  0  0  0  0  0  0
    6.9455   -0.9402   -2.1998 F   0  0  0  0  0  0  0  0  0  0  0  0
    6.9386   -2.6120   -0.7824 F   0  0  0  0  0  0  0  0  0  0  0  0
    6.9667   -3.1180   -3.0879 C   0  0  1  0  0  0  0  0  0  0  0  0
    6.2807   -4.2897   -3.0037 F   0  0  0  0  0  0  0  0  0  0  0  0
    6.6612   -2.5502   -4.2825 F   0  0  0  0  0  0  0  0  0  0  0  0
    8.4610   -3.3720   -2.9975 C   0  0  0  0  0  0  0  0  0  0  0  0
    8.9495   -4.2365   -4.1517 C   0  0  0  0  0  0  0  0  0  0  0  0
   10.3564   -4.4206   -3.9430 O   0  0  0  0  0  0  0  0  0  0  0  0
   11.0379   -5.1431   -4.8173 C   0  0  0  0  0  0  0  0  0  0  0  0
   12.3543   -5.2671   -4.5539 N   0  0  0  0  0  0  0  0  0  0  0  0
   13.0631   -5.9706   -5.3922 N   0  0  0  0  0  0  0  0  0  0  0  0
   12.4291   -6.5122   -6.4443 C   0  0  0  0  0  0  0  0  0  0  0  0
   13.3840   -7.4364   -7.5396 Cl  0  0  0  0  0  0  0  0  0  0  0  0
   11.1323   -6.3939   -6.7079 N   0  0  0  0  0  0  0  0  0  0  0  0
   10.4104   -5.6845   -5.8657 N   0  0  0  0  0  0  0  0  0  0  0  0
    8.6771   -3.8630   -2.0385 H   0  0  0  0  0  0  0  0  0  0  0  0
    8.9806   -2.4023   -3.0036 H   0  0  0  0  0  0  0  0  0  0  0  0
    8.7754   -3.7542   -5.1250 H   0  0  0  0  0  0  0  0  0  0  0  0
    8.4427   -5.2131   -4.1698 H   0  0  0  0  0  0  0  0  0  0  0  0
  2  1  1  1
  2  3  1  0
  2  4  1  0
  2  5  1  0
  5  6  1  1
  5  7  1  0
  5  8  1  0
  8  9  1  6
  8 10  1  0
  8 11  1  0
 11 12  1  1
 11 13  1  0
 11 14  1  0
 14 15  1  6
 14 16  1  0
 14 17  1  0
 17 18  1  6
 17 19  1  0
 17 20  1  0
 20 21  1  0
 20 30  1  0
 20 31  1  0
 21 22  1  0
 21 32  1  0
 21 33  1  0
 22 23  1  0
 23 24  2  0
 23 29  1  0
 24 25  1  0
 25 26  2  0
 26 27  1  0
 26 28  1  0
 28 29  2  0
M  END

