
     RDKit          3D

 37 39  0  0  0  0  0  0  0  0999 V2000
    1.4656    0.2925    0.8350 C   0  0  0  0  0  0  0  0  0  0  0  0
    2.8648   -0.0306    0.4022 C   0  0  0  0  0  0  0  0  0  0  0  0
    3.8044    1.0421    0.2195 C   0  0  0  0  0  0  0  0  0  0  0  0
    5.1310    0.8095   -0.1837 C   0  0  0  0  0  0  0  0  0  0  0  0
    5.5556   -0.4792   -0.4144 C   0  0  0  0  0  0  0  0  0  0  0  0
    4.6289   -1.5771   -0.2386 C   0  0  0  0  0  0  0  0  0  0  0  0
    5.1202   -2.7472   -0.4806 O   0  0  0  0  0  0  0  0  0  0  0  0
    4.3598   -4.0037   -0.3682 C   0  0  0  0  0  0  0  0  0  0  0  0
    5.2774   -5.1492   -0.7282 C   0  0  0  0  0  0  0  0  0  0  0  0
    4.5586   -6.4975   -0.6453 C   0  0  0  0  0  0  0  0  0  0  0  0
    5.4992   -7.6268   -0.9445 C   0  0  0  0  0  0  0  0  0  0  0  0
    6.7629   -7.5340   -1.1554 N   0  0  0  0  0  0  0  0  0  0  0  0
    7.1553   -8.8653   -1.3701 C   0  0  0  0  0  0  0  0  0  0  0  0
    8.4874   -9.2364   -1.6436 C   0  0  0  0  0  0  0  0  0  0  0  0
    9.0099  -10.5338   -1.8768 C   0  0  0  0  0  0  0  0  0  0  0  0
   10.3961  -10.5377   -2.1165 C   0  0  0  0  0  0  0  0  0  0  0  0
   10.9886   -9.2863   -2.0813 C   0  0  0  0  0  0  0  0  0  0  0  0
    9.7980   -8.0341   -1.7373 S   0  0  0  0  0  0  0  0  0  0  0  0
    6.1113   -9.7364   -1.2828 N   0  0  0  0  0  0  0  0  0  0  0  0
    4.9919   -8.8584   -0.9916 O   0  0  0  0  0  0  0  0  0  0  0  0
    3.2829   -1.3253    0.1728 C   0  0  0  0  0  0  0  0  0  0  0  0
    1.4758    0.8268    1.7989 H   0  0  0  0  0  0  0  0  0  0  0  0
    0.8497   -0.6090    0.9427 H   0  0  0  0  0  0  0  0  0  0  0  0
    0.9826    0.9614    0.1042 H   0  0  0  0  0  0  0  0  0  0  0  0
    3.4703    2.0650    0.4016 H   0  0  0  0  0  0  0  0  0  0  0  0
    5.8166    1.6474   -0.3118 H   0  0  0  0  0  0  0  0  0  0  0  0
    6.5701   -0.7231   -0.7281 H   0  0  0  0  0  0  0  0  0  0  0  0
    3.5002   -3.9167   -1.0502 H   0  0  0  0  0  0  0  0  0  0  0  0
    3.9948   -4.0633    0.6684 H   0  0  0  0  0  0  0  0  0  0  0  0
    6.1503   -5.1584   -0.0592 H   0  0  0  0  0  0  0  0  0  0  0  0
    5.6763   -5.0038   -1.7432 H   0  0  0  0  0  0  0  0  0  0  0  0
    3.7101   -6.5381   -1.3523 H   0  0  0  0  0  0  0  0  0  0  0  0
    4.1207   -6.6484    0.3589 H   0  0  0  0  0  0  0  0  0  0  0  0
    8.3756  -11.4192   -1.8645 H   0  0  0  0  0  0  0  0  0  0  0  0
   10.9662  -11.4492   -2.3151 H   0  0  0  0  0  0  0  0  0  0  0  0
   12.0320   -9.0215   -2.2331 H   0  0  0  0  0  0  0  0  0  0  0  0
    2.5919   -2.1552    0.3041 H   0  0  0  0  0  0  0  0  0  0  0  0
  1  2  1  0
  1 22  1  0
  1 23  1  0
  1 24  1  0
  2  3  2  0
  2 21  1  0
  3  4  1  0
  3 25  1  0
  4  5  2  0
  4 26  1  0
  5  6  1  0
  5 27  1  0
  6  7  1  0
  6 21  2  0
  7  8  1  0
  8  9  1  0
  8 28  1  0
  8 29  1  0
  9 10  1  0
  9 30  1  0
  9 31  1  0
 10 11  1  0
 10 32  1  0
 10 33  1  0
 11 12  2  0
 11 20  1  0
 12 13  1  0
 13 14  1  0
 13 19  2  0
 14 15  2  0
 14 18  1  0
 15 16  1  0
 15 34  1  0
 16 17  2  0
 16 35  1  0
 17 18  1  0
 17 36  1  0
 19 20  1  0
 21 37  1  0
M  END

