
     RDKit          3D

 74 79  0  0  0  0  0  0  0  0999 V2000
    5.3134   -2.9761    9.7992 C   0  0  0  0  0  0  0  0  0  0  0  0
    5.7916   -3.0728    8.3639 C   0  0  0  0  0  0  0  0  0  0  0  0
    5.7953   -1.7606    7.8115 O   0  0  0  0  0  0  0  0  0  0  0  0
    6.1913   -1.5668    6.5372 C   0  0  0  0  0  0  0  0  0  0  0  0
    6.1731   -0.2358    6.0802 C   0  0  0  0  0  0  0  0  0  0  0  0
    6.5754    0.0295    4.7822 C   0  0  0  0  0  0  0  0  0  0  0  0
    6.5529    1.3030    4.3520 F   0  0  0  0  0  0  0  0  0  0  0  0
    6.9982   -0.9574    3.8794 C   0  0  0  0  0  0  0  0  0  0  0  0
    7.4670   -0.6246    2.4828 C   0  0  0  0  0  0  0  0  0  0  0  0
    8.8738   -0.2483    2.4100 N   0  0  0  0  0  0  0  0  0  0  0  0
    9.8071   -1.1971    2.5440 N   0  0  0  0  0  0  0  0  0  0  0  0
   10.9939   -0.6059    2.4814 C   0  0  0  0  0  0  0  0  0  0  0  0
   12.2304   -1.3965    2.6031 C   0  0  0  0  0  0  0  0  0  0  0  0
   13.3956   -0.7582    2.4502 N   0  0  0  0  0  0  0  0  0  0  0  0
   14.5122   -1.4975    2.5717 C   0  0  0  0  0  0  0  0  0  0  0  0
   15.8248   -0.7424    2.4367 C   0  0  0  0  0  0  0  0  0  0  0  0
   16.9674   -1.5949    2.1541 N   0  0  0  0  0  0  0  0  0  0  0  0
   17.1020   -1.9982    0.7507 C   0  0  0  0  0  0  0  0  0  0  0  0
   17.8070   -0.9341   -0.0958 C   0  0  0  0  0  0  0  0  0  0  0  0
   19.0613   -0.5897    0.4655 O   0  0  0  0  0  0  0  0  0  0  0  0
   18.9380   -0.1107    1.7918 C   0  0  0  0  0  0  0  0  0  0  0  0
   18.2576   -1.1541    2.6833 C   0  0  0  0  0  0  0  0  0  0  0  0
   14.4707   -2.8582    2.8431 C   0  0  0  0  0  0  0  0  0  0  0  0
   13.1865   -3.4374    2.9870 C   0  0  0  0  0  0  0  0  0  0  0  0
   13.0787   -4.7837    3.2670 N   0  0  0  0  0  0  0  0  0  0  0  0
   11.9614   -5.5886    3.5052 C   0  0  0  0  0  0  0  0  0  0  0  0
   10.6197   -5.1417    3.4618 C   0  0  0  0  0  0  0  0  0  0  0  0
    9.6235   -6.0724    3.7321 C   0  0  0  0  0  0  0  0  0  0  0  0
    9.8350   -7.3630    4.0289 N   0  0  0  0  0  0  0  0  0  0  0  0
   11.0962   -7.7722    4.0624 C   0  0  0  0  0  0  0  0  0  0  0  0
   11.3686   -9.0621    4.3533 O   0  0  0  0  0  0  0  0  0  0  0  0
   10.2720   -9.9279    4.6014 C   0  0  0  0  0  0  0  0  0  0  0  0
   12.1953   -6.9362    3.8115 C   0  0  0  0  0  0  0  0  0  0  0  0
   12.0871   -2.7025    2.8613 N   0  0  0  0  0  0  0  0  0  0  0  0
   10.8359    0.8143    2.2999 C   0  0  0  0  0  0  0  0  0  0  0  0
   11.6922    1.9258    2.1637 C   0  0  0  0  0  0  0  0  0  0  0  0
   11.1213    3.1820    2.0103 C   0  0  0  0  0  0  0  0  0  0  0  0
    9.7156    3.3543    1.9940 C   0  0  0  0  0  0  0  0  0  0  0  0
    8.8480    2.2780    2.1255 C   0  0  0  0  0  0  0  0  0  0  0  0
    9.4290    1.0053    2.2723 C   0  0  0  0  0  0  0  0  0  0  0  0
    6.9929   -2.2623    4.3783 C   0  0  0  0  0  0  0  0  0  0  0  0
    7.3677   -3.2600    3.5637 F   0  0  0  0  0  0  0  0  0  0  0  0
    6.6017   -2.5954    5.6741 C   0  0  0  0  0  0  0  0  0  0  0  0
    5.2978   -3.9754   10.2607 H   0  0  0  0  0  0  0  0  0  0  0  0
    4.2975   -2.5551    9.8438 H   0  0  0  0  0  0  0  0  0  0  0  0
    5.9811   -2.3301   10.3892 H   0  0  0  0  0  0  0  0  0  0  0  0
    5.1259   -3.7260    7.7698 H   0  0  0  0  0  0  0  0  0  0  0  0
    6.8098   -3.5011    8.3151 H   0  0  0  0  0  0  0  0  0  0  0  0
    5.8522    0.5693    6.7407 H   0  0  0  0  0  0  0  0  0  0  0  0
    6.8826    0.2095    2.0738 H   0  0  0  0  0  0  0  0  0  0  0  0
    7.3275   -1.4972    1.8311 H   0  0  0  0  0  0  0  0  0  0  0  0
   15.9982   -0.2291    3.3987 H   0  0  0  0  0  0  0  0  0  0  0  0
   15.6536    0.0682    1.6998 H   0  0  0  0  0  0  0  0  0  0  0  0
   16.1082   -2.2300    0.3355 H   0  0  0  0  0  0  0  0  0  0  0  0
   17.6996   -2.9268    0.7103 H   0  0  0  0  0  0  0  0  0  0  0  0
   17.1699   -0.0294   -0.1893 H   0  0  0  0  0  0  0  0  0  0  0  0
   18.0029   -1.3097   -1.1124 H   0  0  0  0  0  0  0  0  0  0  0  0
   18.3627    0.8399    1.8051 H   0  0  0  0  0  0  0  0  0  0  0  0
   19.9566    0.1084    2.1497 H   0  0  0  0  0  0  0  0  0  0  0  0
   18.1248   -0.7652    3.7059 H   0  0  0  0  0  0  0  0  0  0  0  0
   18.9217   -2.0354    2.7496 H   0  0  0  0  0  0  0  0  0  0  0  0
   15.3982   -3.4240    2.9417 H   0  0  0  0  0  0  0  0  0  0  0  0
   13.9658   -5.2670    3.3422 H   0  0  0  0  0  0  0  0  0  0  0  0
   10.3775   -4.1093    3.2254 H   0  0  0  0  0  0  0  0  0  0  0  0
    8.5782   -5.7445    3.7061 H   0  0  0  0  0  0  0  0  0  0  0  0
   10.7075  -10.9149    4.8086 H   0  0  0  0  0  0  0  0  0  0  0  0
    9.5995   -9.9866    3.7309 H   0  0  0  0  0  0  0  0  0  0  0  0
    9.6772   -9.5889    5.4646 H   0  0  0  0  0  0  0  0  0  0  0  0
   13.2037   -7.3535    3.8617 H   0  0  0  0  0  0  0  0  0  0  0  0
   12.7714    1.7767    2.1812 H   0  0  0  0  0  0  0  0  0  0  0  0
   11.7642    4.0593    1.9032 H   0  0  0  0  0  0  0  0  0  0  0  0
    9.3032    4.3602    1.8804 H   0  0  0  0  0  0  0  0  0  0  0  0
    7.7669    2.4217    2.1342 H   0  0  0  0  0  0  0  0  0  0  0  0
    6.6327   -3.6416    5.9713 H   0  0  0  0  0  0  0  0  0  0  0  0
  1  2  1  0
  1 44  1  0
  1 45  1  0
  1 46  1  0
  2  3  1  0
  2 47  1  0
  2 48  1  0
  3  4  1  0
  4  5  2  0
  4 43  1  0
  5  6  1  0
  5 49  1  0
  6  7  1  0
  6  8  2  0
  8  9  1  0
  8 41  1  0
  9 10  1  0
  9 50  1  0
  9 51  1  0
 10 11  1  0
 10 40  1  0
 11 12  2  0
 12 13  1  0
 12 35  1  0
 13 14  2  0
 13 34  1  0
 14 15  1  0
 15 16  1  0
 15 23  2  0
 16 17  1  0
 16 52  1  0
 16 53  1  0
 17 18  1  0
 17 22  1  0
 18 19  1  0
 18 54  1  0
 18 55  1  0
 19 20  1  0
 19 56  1  0
 19 57  1  0
 20 21  1  0
 21 22  1  0
 21 58  1  0
 21 59  1  0
 22 60  1  0
 22 61  1  0
 23 24  1  0
 23 62  1  0
 24 25  1  0
 24 34  2  0
 25 26  1  0
 25 63  1  0
 26 27  2  0
 26 33  1  0
 27 28  1  0
 27 64  1  0
 28 29  2  0
 28 65  1  0
 29 30  1  0
 30 31  1  0
 30 33  2  0
 31 32  1  0
 32 66  1  0
 32 67  1  0
 32 68  1  0
 33 69  1  0
 35 36  1  0
 35 40  2  0
 36 37  2  0
 36 70  1  0
 37 38  1  0
 37 71  1  0
 38 39  2  0
 38 72  1  0
 39 40  1  0
 39 73  1  0
 41 42  1  0
 41 43  2  0
 43 74  1  0
M  END

