
     RDKit          3D

 80 84  0  0  0  0  0  0  0  0999 V2000
    1.0947    0.0883    0.0878 C   0  0  0  0  0  0  0  0  0  0  0  0
    2.9816    0.1144    0.1736 Si  0  0  1  0  0  4  0  0  0  0  0  0
    3.6681   -1.6435    0.1956 C   0  0  0  0  0  0  0  0  0  0  0  0
    3.6899    1.0874   -1.2819 C   0  0  0  0  0  0  0  0  0  0  0  0
    3.4853    0.9593    1.7424 C   0  0  0  0  0  0  0  0  0  0  0  0
    3.8182    1.5151    2.7873 C   0  0  0  0  0  0  0  0  0  0  0  0
    4.2019    2.1568    3.9894 C   0  0  0  0  0  0  0  0  0  0  0  0
    4.7371    1.4007    5.0393 C   0  0  0  0  0  0  0  0  0  0  0  0
    5.1355    1.9860    6.2500 C   0  0  0  0  0  0  0  0  0  0  0  0
    5.6647    1.1729    7.2805 C   0  0  0  0  0  0  0  0  0  0  0  0
    6.1210    0.4636    8.1752 C   0  0  0  0  0  0  0  0  0  0  0  0
    6.7957   -0.6119    9.5241 Si  0  0  1  0  0  4  0  0  0  0  0  0
    7.4696   -2.1922    8.7422 C   0  0  0  0  0  0  0  0  0  0  0  0
    8.1693    0.3329   10.4095 C   0  0  0  0  0  0  0  0  0  0  0  0
    5.3910   -1.0114   10.7223 C   0  0  0  0  0  0  0  0  0  0  0  0
    4.9957    3.4188    6.4308 C   0  0  0  0  0  0  0  0  0  0  0  0
    5.3796    4.0582    7.6275 C   0  0  0  0  0  0  0  0  0  0  0  0
    5.2396    5.4299    7.7958 C   0  0  0  0  0  0  0  0  0  0  0  0
    4.7101    6.2533    6.7722 C   0  0  0  0  0  0  0  0  0  0  0  0
    4.5875    7.6958    6.9158 C   0  0  0  0  0  0  0  0  0  0  0  0
    4.9161    8.3942    8.1936 C   0  0  0  0  0  0  0  0  0  0  0  0
    4.7930    7.8246    9.2805 O   0  0  0  0  0  0  0  0  0  0  0  0
    5.3944    9.8176    8.1704 C   0  0  0  0  0  0  0  0  0  0  0  0
    6.1209   10.3869    7.1062 C   0  0  0  0  0  0  0  0  0  0  0  0
    6.6056   11.6942    7.1946 C   0  0  0  0  0  0  0  0  0  0  0  0
    6.3709   12.4566    8.3431 C   0  0  0  0  0  0  0  0  0  0  0  0
    5.6622   11.8963    9.4137 C   0  0  0  0  0  0  0  0  0  0  0  0
    5.1905   10.5880    9.3329 C   0  0  0  0  0  0  0  0  0  0  0  0
    4.0455    8.4273    5.8572 C   0  0  0  0  0  0  0  0  0  0  0  0
    3.6185    7.8349    4.6550 C   0  0  0  0  0  0  0  0  0  0  0  0
    3.0538    8.6463    3.6438 C   0  0  0  0  0  0  0  0  0  0  0  0
    2.5630    9.3553    2.7663 C   0  0  0  0  0  0  0  0  0  0  0  0
    1.8115   10.4306    1.4585 Si  0  0  1  0  0  4  0  0  0  0  0  0
    3.1576   11.5607    0.7666 C   0  0  0  0  0  0  0  0  0  0  0  0
    1.1194    9.3162    0.1010 C   0  0  0  0  0  0  0  0  0  0  0  0
    0.4359   11.4537    2.2490 C   0  0  0  0  0  0  0  0  0  0  0  0
    3.7568    6.4058    4.4726 C   0  0  0  0  0  0  0  0  0  0  0  0
    3.3624    5.7655    3.2777 C   0  0  0  0  0  0  0  0  0  0  0  0
    3.5023    4.3948    3.1136 C   0  0  0  0  0  0  0  0  0  0  0  0
    4.0442    3.5944    4.1426 C   0  0  0  0  0  0  0  0  0  0  0  0
    4.4495    4.2117    5.3711 C   0  0  0  0  0  0  0  0  0  0  0  0
    4.3068    5.6285    5.5423 C   0  0  0  0  0  0  0  0  0  0  0  0
    0.7575   -0.4023   -0.8410 H   0  0  0  0  0  0  0  0  0  0  0  0
    0.6816    1.1097    0.1024 H   0  0  0  0  0  0  0  0  0  0  0  0
    0.6650   -0.4625    0.9398 H   0  0  0  0  0  0  0  0  0  0  0  0
    3.3815   -2.1838   -0.7224 H   0  0  0  0  0  0  0  0  0  0  0  0
    3.2817   -2.2106    1.0577 H   0  0  0  0  0  0  0  0  0  0  0  0
    4.7682   -1.6401    0.2581 H   0  0  0  0  0  0  0  0  0  0  0  0
    3.4094    0.6126   -2.2373 H   0  0  0  0  0  0  0  0  0  0  0  0
    4.7897    1.1319   -1.2337 H   0  0  0  0  0  0  0  0  0  0  0  0
    3.3095    2.1215   -1.2927 H   0  0  0  0  0  0  0  0  0  0  0  0
    4.8477    0.3232    4.9117 H   0  0  0  0  0  0  0  0  0  0  0  0
    8.2746   -1.9687    8.0238 H   0  0  0  0  0  0  0  0  0  0  0  0
    6.6783   -2.7392    8.2047 H   0  0  0  0  0  0  0  0  0  0  0  0
    7.8808   -2.8627    9.5156 H   0  0  0  0  0  0  0  0  0  0  0  0
    8.9829    0.5973    9.7152 H   0  0  0  0  0  0  0  0  0  0  0  0
    8.5992   -0.2787   11.2207 H   0  0  0  0  0  0  0  0  0  0  0  0
    7.7878    1.2658   10.8550 H   0  0  0  0  0  0  0  0  0  0  0  0
    4.5728   -1.5448   10.2125 H   0  0  0  0  0  0  0  0  0  0  0  0
    4.9724   -0.0928   11.1638 H   0  0  0  0  0  0  0  0  0  0  0  0
    5.7543   -1.6502   11.5453 H   0  0  0  0  0  0  0  0  0  0  0  0
    5.7931    3.4550    8.4374 H   0  0  0  0  0  0  0  0  0  0  0  0
    5.5234    5.8911    8.7390 H   0  0  0  0  0  0  0  0  0  0  0  0
    6.3360    9.7964    6.2136 H   0  0  0  0  0  0  0  0  0  0  0  0
    7.1774   12.1165    6.3641 H   0  0  0  0  0  0  0  0  0  0  0  0
    6.7471   13.4809    8.4086 H   0  0  0  0  0  0  0  0  0  0  0  0
    5.4829   12.4846   10.3177 H   0  0  0  0  0  0  0  0  0  0  0  0
    4.6571   10.1284   10.1671 H   0  0  0  0  0  0  0  0  0  0  0  0
    3.9071    9.5026    5.9670 H   0  0  0  0  0  0  0  0  0  0  0  0
    3.9808   10.9774    0.3240 H   0  0  0  0  0  0  0  0  0  0  0  0
    3.5817   12.2018    1.5559 H   0  0  0  0  0  0  0  0  0  0  0  0
    2.7432   12.2159   -0.0183 H   0  0  0  0  0  0  0  0  0  0  0  0
    1.9136    8.7001   -0.3509 H   0  0  0  0  0  0  0  0  0  0  0  0
    0.6609    9.9191   -0.7009 H   0  0  0  0  0  0  0  0  0  0  0  0
    0.3475    8.6381    0.4989 H   0  0  0  0  0  0  0  0  0  0  0  0
    0.8293   12.0883    3.0592 H   0  0  0  0  0  0  0  0  0  0  0  0
   -0.3473   10.8065    2.6751 H   0  0  0  0  0  0  0  0  0  0  0  0
   -0.0354   12.1113    1.4991 H   0  0  0  0  0  0  0  0  0  0  0  0
    2.9414    6.3706    2.4728 H   0  0  0  0  0  0  0  0  0  0  0  0
    3.1926    3.9190    2.1821 H   0  0  0  0  0  0  0  0  0  0  0  0
  1  2  1  0
  1 43  1  0
  1 44  1  0
  1 45  1  0
  2  3  1  0
  2  4  1  0
  2  5  1  1
  3 46  1  0
  3 47  1  0
  3 48  1  0
  4 49  1  0
  4 50  1  0
  4 51  1  0
  5  6  3  0
  6  7  1  0
  7  8  2  0
  7 40  1  0
  8  9  1  0
  8 52  1  0
  9 10  1  0
  9 16  2  0
 10 11  3  0
 12 11  1  6
 12 13  1  0
 12 14  1  0
 12 15  1  0
 13 53  1  0
 13 54  1  0
 13 55  1  0
 14 56  1  0
 14 57  1  0
 14 58  1  0
 15 59  1  0
 15 60  1  0
 15 61  1  0
 16 17  1  0
 16 41  1  0
 17 18  2  0
 17 62  1  0
 18 19  1  0
 18 63  1  0
 19 20  2  0
 19 42  1  0
 20 21  1  0
 20 29  1  0
 21 22  2  0
 21 23  1  0
 23 24  2  0
 23 28  1  0
 24 25  1  0
 24 64  1  0
 25 26  2  0
 25 65  1  0
 26 27  1  0
 26 66  1  0
 27 28  2  0
 27 67  1  0
 28 68  1  0
 29 30  2  0
 29 69  1  0
 30 31  1  0
 30 37  1  0
 31 32  3  0
 33 32  1  1
 33 34  1  0
 33 35  1  0
 33 36  1  0
 34 70  1  0
 34 71  1  0
 34 72  1  0
 35 73  1  0
 35 74  1  0
 35 75  1  0
 36 76  1  0
 36 77  1  0
 36 78  1  0
 37 38  2  0
 37 42  1  0
 38 39  1  0
 38 79  1  0
 39 40  2  0
 39 80  1  0
 40 41  1  0
 41 42  2  0
M  END

