
     RDKit          3D

 55 58  0  0  0  0  0  0  0  0999 V2000
    1.6829   -0.0450   -1.1409 O   0  0  0  0  0  0  0  0  0  0  0  0
    2.5574    0.3060   -0.3566 C   0  0  0  0  0  0  0  0  0  0  0  0
    2.9603    1.6272   -0.2723 N   0  0  0  0  0  0  0  0  0  0  0  0
    2.2778    2.6342   -1.0672 C   0  0  0  0  0  0  0  0  0  0  0  0
    0.8838    3.0498   -0.5374 C   0  0  1  0  0  0  0  0  0  0  0  0
    0.9261    3.8377    0.7998 C   0  0  0  0  0  0  0  0  0  0  0  0
    0.9118    5.3373    0.4138 C   0  0  0  0  0  0  0  0  0  0  0  0
    0.2463    5.3370   -0.9466 C   0  0  0  0  0  0  0  0  0  0  0  0
   -0.2893    6.4063   -1.6679 C   0  0  0  0  0  0  0  0  0  0  0  0
   -0.8551    6.1661   -2.9264 C   0  0  0  0  0  0  0  0  0  0  0  0
   -0.8813    4.8703   -3.4569 C   0  0  0  0  0  0  0  0  0  0  0  0
   -0.3415    3.7984   -2.7353 C   0  0  0  0  0  0  0  0  0  0  0  0
    0.2184    4.0370   -1.4776 C   0  0  0  0  0  0  0  0  0  0  0  0
    3.2018   -0.5891    0.4840 N   0  0  0  0  0  0  0  0  0  0  0  0
    2.7498   -1.9764    0.4965 C   0  0  0  0  0  0  0  0  0  0  0  0
    3.8045   -2.9120   -0.1013 C   0  0  0  0  0  0  0  0  0  0  0  0
    5.1596   -2.7245    0.5894 C   0  0  0  0  0  0  0  0  0  0  0  0
    5.5920   -1.2415    0.5773 C   0  0  2  0  0  0  0  0  0  0  0  0
    6.8756   -1.0510    1.3874 C   0  0  0  0  0  0  0  0  0  0  0  0
    6.8368   -0.8544    2.5971 O   0  0  0  0  0  0  0  0  0  0  0  0
    8.0630   -1.1333    0.7201 N   0  0  0  0  0  0  0  0  0  0  0  0
    9.3276   -0.9558    1.4468 C   0  0  0  0  0  0  0  0  0  0  0  0
   10.3600   -0.7658    0.3302 C   0  0  0  0  0  0  0  0  0  0  0  0
    9.7823   -1.5973   -0.8239 C   0  0  0  0  0  0  0  0  0  0  0  0
    8.2718   -1.3424   -0.7180 C   0  0  0  0  0  0  0  0  0  0  0  0
    4.4687   -0.3583    1.1635 C   0  0  0  0  0  0  0  0  0  0  0  0
    3.4014    1.9395    0.5828 H   0  0  0  0  0  0  0  0  0  0  0  0
    2.1589    2.2299   -2.0819 H   0  0  0  0  0  0  0  0  0  0  0  0
    2.9345    3.5175   -1.1392 H   0  0  0  0  0  0  0  0  0  0  0  0
    0.2979    2.1222   -0.4468 H   0  0  0  0  0  0  0  0  0  0  0  0
    1.7859    3.5657    1.4336 H   0  0  0  0  0  0  0  0  0  0  0  0
    0.0212    3.6042    1.3835 H   0  0  0  0  0  0  0  0  0  0  0  0
    1.9357    5.7489    0.3401 H   0  0  0  0  0  0  0  0  0  0  0  0
    0.3818    5.9605    1.1522 H   0  0  0  0  0  0  0  0  0  0  0  0
   -0.2749    7.4196   -1.2560 H   0  0  0  0  0  0  0  0  0  0  0  0
   -1.2843    6.9947   -3.4962 H   0  0  0  0  0  0  0  0  0  0  0  0
   -1.3313    4.6941   -4.4375 H   0  0  0  0  0  0  0  0  0  0  0  0
   -0.3679    2.7855   -3.1474 H   0  0  0  0  0  0  0  0  0  0  0  0
    1.8107   -2.0251   -0.0665 H   0  0  0  0  0  0  0  0  0  0  0  0
    2.5464   -2.2714    1.5442 H   0  0  0  0  0  0  0  0  0  0  0  0
    3.8981   -2.6982   -1.1803 H   0  0  0  0  0  0  0  0  0  0  0  0
    3.4694   -3.9585   -0.0069 H   0  0  0  0  0  0  0  0  0  0  0  0
    5.9307   -3.3529    0.1129 H   0  0  0  0  0  0  0  0  0  0  0  0
    5.0941   -3.0542    1.6416 H   0  0  0  0  0  0  0  0  0  0  0  0
    5.7468   -0.9319   -0.4694 H   0  0  0  0  0  0  0  0  0  0  0  0
    9.5450   -1.8482    2.0618 H   0  0  0  0  0  0  0  0  0  0  0  0
    9.2528   -0.1046    2.1393 H   0  0  0  0  0  0  0  0  0  0  0  0
   11.3709   -1.0794    0.6295 H   0  0  0  0  0  0  0  0  0  0  0  0
   10.4137    0.2972    0.0403 H   0  0  0  0  0  0  0  0  0  0  0  0
    9.9933   -2.6675   -0.6613 H   0  0  0  0  0  0  0  0  0  0  0  0
   10.1851   -1.3251   -1.8107 H   0  0  0  0  0  0  0  0  0  0  0  0
    7.6803   -2.1882   -1.1005 H   0  0  0  0  0  0  0  0  0  0  0  0
    7.9817   -0.4459   -1.2980 H   0  0  0  0  0  0  0  0  0  0  0  0
    4.7661    0.6941    1.0826 H   0  0  0  0  0  0  0  0  0  0  0  0
    4.3765   -0.5827    2.2396 H   0  0  0  0  0  0  0  0  0  0  0  0
  1  2  2  0
  2  3  1  0
  2 14  1  0
  3  4  1  0
  3 27  1  0
  4  5  1  0
  4 28  1  0
  4 29  1  0
  5  6  1  0
  5 13  1  0
  5 30  1  1
  6  7  1  0
  6 31  1  0
  6 32  1  0
  7  8  1  0
  7 33  1  0
  7 34  1  0
  8  9  1  0
  8 13  2  0
  9 10  2  0
  9 35  1  0
 10 11  1  0
 10 36  1  0
 11 12  2  0
 11 37  1  0
 12 13  1  0
 12 38  1  0
 14 15  1  0
 14 26  1  0
 15 16  1  0
 15 39  1  0
 15 40  1  0
 16 17  1  0
 16 41  1  0
 16 42  1  0
 17 18  1  0
 17 43  1  0
 17 44  1  0
 18 19  1  0
 18 26  1  0
 18 45  1  6
 19 20  2  0
 19 21  1  0
 21 22  1  0
 21 25  1  0
 22 23  1  0
 22 46  1  0
 22 47  1  0
 23 24  1  0
 23 48  1  0
 23 49  1  0
 24 25  1  0
 24 50  1  0
 24 51  1  0
 25 52  1  0
 25 53  1  0
 26 54  1  0
 26 55  1  0
M  END

