
     RDKit          3D

 83 91  0  0  0  0  0  0  0  0999 V2000
   -0.3069   -1.1895    3.7973 C   0  0  0  0  0  0  0  0  0  0  0  0
    1.1903   -1.1367    4.1042 C   0  0  0  0  0  0  0  0  0  0  0  0
    2.0747   -1.4761    2.9003 C   0  0  0  0  0  0  0  0  0  0  0  0
    3.5747   -1.4302    3.2046 C   0  0  0  0  0  0  0  0  0  0  0  0
    4.4538   -1.7633    1.9955 C   0  0  0  0  0  0  0  0  0  0  0  0
    5.9596   -1.7331    2.2952 C   0  0  0  0  0  0  0  0  0  0  0  0
    6.3765   -2.7259    3.2889 N   0  0  0  0  0  0  0  0  0  0  0  0
    7.1779   -2.3399    4.3835 C   0  0  0  0  0  0  0  0  0  0  0  0
    8.0418   -1.2310    4.3381 C   0  0  0  0  0  0  0  0  0  0  0  0
    8.7968   -0.8490    5.4463 C   0  0  0  0  0  0  0  0  0  0  0  0
    8.7655   -1.5876    6.6434 C   0  0  0  0  0  0  0  0  0  0  0  0
    9.5883   -1.2334    7.8218 C   0  0  0  0  0  0  0  0  0  0  0  0
   10.0718   -2.1937    8.6952 C   0  0  0  0  0  0  0  0  0  0  0  0
   10.8404   -1.8931    9.8536 C   0  0  0  0  0  0  0  0  0  0  0  0
   11.1947   -0.6090   10.2297 C   0  0  0  0  0  0  0  0  0  0  0  0
   12.0164   -0.3449   11.4362 C   0  0  0  0  0  0  0  0  0  0  0  0
   13.0193   -1.2575   11.8224 C   0  0  0  0  0  0  0  0  0  0  0  0
   13.7801   -1.0494   12.9734 C   0  0  0  0  0  0  0  0  0  0  0  0
   13.5585    0.0793   13.7681 C   0  0  0  0  0  0  0  0  0  0  0  0
   12.5732    0.9979   13.3947 C   0  0  0  0  0  0  0  0  0  0  0  0
   11.8135    0.7938   12.2415 C   0  0  0  0  0  0  0  0  0  0  0  0
   10.7196    0.4354    9.3565 C   0  0  0  0  0  0  0  0  0  0  0  0
   10.9345    1.7449    9.5115 N   0  0  0  0  0  0  0  0  0  0  0  0
   10.2028    2.5132    8.2649 S   0  0  0  0  0  0  0  0  0  0  0  0
    9.5842    1.2188    7.4748 N   0  0  0  0  0  0  0  0  0  0  0  0
    9.9314    0.1267    8.1618 C   0  0  0  0  0  0  0  0  0  0  0  0
    7.9293   -2.7219    6.6758 C   0  0  0  0  0  0  0  0  0  0  0  0
    7.1438   -3.0836    5.5839 C   0  0  0  0  0  0  0  0  0  0  0  0
    5.9930   -4.4362    5.7295 S   0  0  0  0  0  0  0  0  0  0  0  0
    6.1003   -5.0335    4.0540 C   0  0  0  0  0  0  0  0  0  0  0  0
    5.9787   -6.3960    3.7911 C   0  0  0  0  0  0  0  0  0  0  0  0
    5.9272   -6.8925    2.4728 C   0  0  0  0  0  0  0  0  0  0  0  0
    5.8125   -8.3477    2.2284 C   0  0  0  0  0  0  0  0  0  0  0  0
    6.3667   -9.2814    3.0886 C   0  0  0  0  0  0  0  0  0  0  0  0
    6.2673  -10.6874    2.8979 C   0  0  0  0  0  0  0  0  0  0  0  0
    5.6075  -11.2741    1.8317 C   0  0  0  0  0  0  0  0  0  0  0  0
    5.5186  -12.7470    1.6810 C   0  0  0  0  0  0  0  0  0  0  0  0
    5.4256  -13.5694    2.8224 C   0  0  0  0  0  0  0  0  0  0  0  0
    5.3777  -14.9593    2.7088 C   0  0  0  0  0  0  0  0  0  0  0  0
    5.4201  -15.5633    1.4487 C   0  0  0  0  0  0  0  0  0  0  0  0
    5.5045  -14.7617    0.3065 C   0  0  0  0  0  0  0  0  0  0  0  0
    5.5483  -13.3709    0.4176 C   0  0  0  0  0  0  0  0  0  0  0  0
    5.0143  -10.3497    0.8975 C   0  0  0  0  0  0  0  0  0  0  0  0
    4.3139  -10.6774   -0.1922 N   0  0  0  0  0  0  0  0  0  0  0  0
    3.8306   -9.2834   -0.9019 S   0  0  0  0  0  0  0  0  0  0  0  0
    4.4861   -8.2060    0.1427 N   0  0  0  0  0  0  0  0  0  0  0  0
    5.1153   -8.9025    1.0934 C   0  0  0  0  0  0  0  0  0  0  0  0
    6.0204   -5.9543    1.4286 C   0  0  0  0  0  0  0  0  0  0  0  0
    6.1829   -4.5942    1.6879 C   0  0  0  0  0  0  0  0  0  0  0  0
    6.2194   -4.0977    3.0031 C   0  0  0  0  0  0  0  0  0  0  0  0
   -0.9118   -0.9434    4.6847 H   0  0  0  0  0  0  0  0  0  0  0  0
   -0.6108   -2.1934    3.4558 H   0  0  0  0  0  0  0  0  0  0  0  0
   -0.5791   -0.4758    3.0013 H   0  0  0  0  0  0  0  0  0  0  0  0
    1.4234   -1.8322    4.9307 H   0  0  0  0  0  0  0  0  0  0  0  0
    1.4558   -0.1305    4.4768 H   0  0  0  0  0  0  0  0  0  0  0  0
    1.8446   -0.7798    2.0717 H   0  0  0  0  0  0  0  0  0  0  0  0
    1.8097   -2.4829    2.5267 H   0  0  0  0  0  0  0  0  0  0  0  0
    3.8054   -2.1322    4.0246 H   0  0  0  0  0  0  0  0  0  0  0  0
    3.8410   -0.4255    3.5832 H   0  0  0  0  0  0  0  0  0  0  0  0
    4.2680   -1.0352    1.1853 H   0  0  0  0  0  0  0  0  0  0  0  0
    4.1672   -2.7471    1.5884 H   0  0  0  0  0  0  0  0  0  0  0  0
    6.2062   -0.7449    2.7033 H   0  0  0  0  0  0  0  0  0  0  0  0
    6.5396   -1.8344    1.3592 H   0  0  0  0  0  0  0  0  0  0  0  0
    8.1378   -0.6525    3.4187 H   0  0  0  0  0  0  0  0  0  0  0  0
    9.4364    0.0287    5.3705 H   0  0  0  0  0  0  0  0  0  0  0  0
    9.8700   -3.2463    8.4867 H   0  0  0  0  0  0  0  0  0  0  0  0
   11.1518   -2.7300   10.4823 H   0  0  0  0  0  0  0  0  0  0  0  0
   13.2231   -2.1298   11.1973 H   0  0  0  0  0  0  0  0  0  0  0  0
   14.5572   -1.7686   13.2453 H   0  0  0  0  0  0  0  0  0  0  0  0
   14.1545    0.2448   14.6691 H   0  0  0  0  0  0  0  0  0  0  0  0
   12.3919    1.8847   14.0076 H   0  0  0  0  0  0  0  0  0  0  0  0
   11.0529    1.5214   11.9609 H   0  0  0  0  0  0  0  0  0  0  0  0
    7.8508   -3.3187    7.5867 H   0  0  0  0  0  0  0  0  0  0  0  0
    5.8795   -7.0793    4.6369 H   0  0  0  0  0  0  0  0  0  0  0  0
    6.9411   -8.9301    3.9483 H   0  0  0  0  0  0  0  0  0  0  0  0
    6.7698  -11.3305    3.6235 H   0  0  0  0  0  0  0  0  0  0  0  0
    5.3635  -13.1118    3.8122 H   0  0  0  0  0  0  0  0  0  0  0  0
    5.2968  -15.5730    3.6098 H   0  0  0  0  0  0  0  0  0  0  0  0
    5.3810  -16.6518    1.3574 H   0  0  0  0  0  0  0  0  0  0  0  0
    5.5370  -15.2230   -0.6840 H   0  0  0  0  0  0  0  0  0  0  0  0
    5.6084  -12.7595   -0.4821 H   0  0  0  0  0  0  0  0  0  0  0  0
    5.9816   -6.2929    0.3944 H   0  0  0  0  0  0  0  0  0  0  0  0
    6.2830   -3.9107    0.8447 H   0  0  0  0  0  0  0  0  0  0  0  0
  1  2  1  0
  1 51  1  0
  1 52  1  0
  1 53  1  0
  2  3  1  0
  2 54  1  0
  2 55  1  0
  3  4  1  0
  3 56  1  0
  3 57  1  0
  4  5  1  0
  4 58  1  0
  4 59  1  0
  5  6  1  0
  5 60  1  0
  5 61  1  0
  6  7  1  0
  6 62  1  0
  6 63  1  0
  7  8  1  0
  7 50  1  0
  8  9  1  0
  8 28  2  0
  9 10  2  0
  9 64  1  0
 10 11  1  0
 10 65  1  0
 11 12  1  0
 11 27  2  0
 12 13  2  0
 12 26  1  0
 13 14  1  0
 13 66  1  0
 14 15  2  0
 14 67  1  0
 15 16  1  0
 15 22  1  0
 16 17  2  0
 16 21  1  0
 17 18  1  0
 17 68  1  0
 18 19  2  0
 18 69  1  0
 19 20  1  0
 19 70  1  0
 20 21  2  0
 20 71  1  0
 21 72  1  0
 22 23  2  0
 22 26  1  0
 23 24  1  0
 24 25  1  0
 25 26  2  0
 27 28  1  0
 27 73  1  0
 28 29  1  0
 29 30  1  0
 30 31  1  0
 30 50  2  0
 31 32  2  0
 31 74  1  0
 32 33  1  0
 32 48  1  0
 33 34  2  0
 33 47  1  0
 34 35  1  0
 34 75  1  0
 35 36  2  0
 35 76  1  0
 36 37  1  0
 36 43  1  0
 37 38  2  0
 37 42  1  0
 38 39  1  0
 38 77  1  0
 39 40  2  0
 39 78  1  0
 40 41  1  0
 40 79  1  0
 41 42  2  0
 41 80  1  0
 42 81  1  0
 43 44  2  0
 43 47  1  0
 44 45  1  0
 45 46  1  0
 46 47  2  0
 48 49  2  0
 48 82  1  0
 49 50  1  0
 49 83  1  0
M  END

