
     RDKit          3D

 48 51  0  0  0  0  0  0  0  0999 V2000
    1.9805    1.9044   -1.2468 O   0  0  0  0  0  0  0  0  0  0  0  0
    2.9138    1.4851   -0.5208 C   0  0  0  0  0  0  0  0  0  0  0  0
    3.9496    0.7832   -1.3760 N   0  0  0  0  0  0  0  0  0  0  0  0
    3.8046   -0.4551   -1.8650 C   0  0  0  0  0  0  0  0  0  0  0  0
    3.4524   -1.5310   -0.9830 C   0  0  0  0  0  0  0  0  0  0  0  0
    3.4705   -2.8291   -1.4478 C   0  0  0  0  0  0  0  0  0  0  0  0
    3.8047   -3.1007   -2.7920 C   0  0  0  0  0  0  0  0  0  0  0  0
    4.0703   -2.0514   -3.6876 C   0  0  0  0  0  0  0  0  0  0  0  0
    4.0287   -0.7317   -3.2644 C   0  0  0  0  0  0  0  0  0  0  0  0
    4.0892    0.3517   -4.3245 C   0  0  0  0  0  0  0  0  0  0  0  0
    4.7339    0.1838   -5.3452 O   0  0  0  0  0  0  0  0  0  0  0  0
    3.3286    1.4613   -4.0770 N   0  0  0  0  0  0  0  0  0  0  0  0
    3.1998    2.5044   -5.0582 C   0  0  1  0  0  0  0  0  0  0  0  0
    2.5109    3.7684   -4.6337 C   0  0  0  0  0  0  0  0  0  0  0  0
    3.9936    3.7819   -4.9119 C   0  0  0  0  0  0  0  0  0  0  0  0
    3.1709    1.6033    0.8400 C   0  0  0  0  0  0  0  0  0  0  0  0
    2.4568    2.2618    1.8683 C   0  0  0  0  0  0  0  0  0  0  0  0
    3.2051    2.0664    3.0465 C   0  0  0  0  0  0  0  0  0  0  0  0
    4.3124    1.3079    2.7282 C   0  0  0  0  0  0  0  0  0  0  0  0
    5.4588    0.8184    3.5193 C   0  0  0  0  0  0  0  0  0  0  0  0
    6.6230    1.6178    3.2690 O   0  0  0  0  0  0  0  0  0  0  0  0
    7.7873    1.3074    3.8899 C   0  0  0  0  0  0  0  0  0  0  0  0
    7.9508    0.2645    4.8171 C   0  0  0  0  0  0  0  0  0  0  0  0
    9.2025    0.0353    5.4042 C   0  0  0  0  0  0  0  0  0  0  0  0
   10.2799    0.8433    5.0662 C   0  0  0  0  0  0  0  0  0  0  0  0
   11.4810    0.6211    5.6311 F   0  0  0  0  0  0  0  0  0  0  0  0
   10.1378    1.8853    4.1482 C   0  0  0  0  0  0  0  0  0  0  0  0
    8.8956    2.1132    3.5638 C   0  0  0  0  0  0  0  0  0  0  0  0
    4.3002    1.0103    1.3813 O   0  0  0  0  0  0  0  0  0  0  0  0
    4.4086    1.4379   -2.0086 H   0  0  0  0  0  0  0  0  0  0  0  0
    3.2611   -1.2975    0.0628 H   0  0  0  0  0  0  0  0  0  0  0  0
    3.2470   -3.6528   -0.7671 H   0  0  0  0  0  0  0  0  0  0  0  0
    3.8276   -4.1329   -3.1473 H   0  0  0  0  0  0  0  0  0  0  0  0
    4.2646   -2.2471   -4.7438 H   0  0  0  0  0  0  0  0  0  0  0  0
    2.6777    1.4883   -3.2855 H   0  0  0  0  0  0  0  0  0  0  0  0
    3.0497    2.1276   -6.0750 H   0  0  0  0  0  0  0  0  0  0  0  0
    2.1893    3.8292   -3.5892 H   0  0  0  0  0  0  0  0  0  0  0  0
    1.8330    4.2464   -5.3456 H   0  0  0  0  0  0  0  0  0  0  0  0
    4.6719    3.8582   -4.0576 H   0  0  0  0  0  0  0  0  0  0  0  0
    4.3580    4.2581   -5.8263 H   0  0  0  0  0  0  0  0  0  0  0  0
    1.5305    2.8133    1.7406 H   0  0  0  0  0  0  0  0  0  0  0  0
    2.9693    2.4445    4.0401 H   0  0  0  0  0  0  0  0  0  0  0  0
    5.6876   -0.2337    3.2636 H   0  0  0  0  0  0  0  0  0  0  0  0
    5.1967    0.8607    4.5913 H   0  0  0  0  0  0  0  0  0  0  0  0
    7.1157   -0.3773    5.0963 H   0  0  0  0  0  0  0  0  0  0  0  0
    9.3439   -0.7712    6.1266 H   0  0  0  0  0  0  0  0  0  0  0  0
   11.0026    2.5052    3.9028 H   0  0  0  0  0  0  0  0  0  0  0  0
    8.7519    2.9205    2.8431 H   0  0  0  0  0  0  0  0  0  0  0  0
  1  2  2  0
  2  3  1  0
  2 16  1  0
  3  4  1  0
  3 30  1  0
  4  5  2  0
  4  9  1  0
  5  6  1  0
  5 31  1  0
  6  7  2  0
  6 32  1  0
  7  8  1  0
  7 33  1  0
  8  9  2  0
  8 34  1  0
  9 10  1  0
 10 11  2  0
 10 12  1  0
 12 13  1  0
 12 35  1  0
 13 14  1  0
 13 15  1  0
 13 36  1  6
 14 15  1  0
 14 37  1  0
 14 38  1  0
 15 39  1  0
 15 40  1  0
 16 17  2  0
 16 29  1  0
 17 18  1  0
 17 41  1  0
 18 19  2  0
 18 42  1  0
 19 20  1  0
 19 29  1  0
 20 21  1  0
 20 43  1  0
 20 44  1  0
 21 22  1  0
 22 23  2  0
 22 28  1  0
 23 24  1  0
 23 45  1  0
 24 25  2  0
 24 46  1  0
 25 26  1  0
 25 27  1  0
 27 28  2  0
 27 47  1  0
 28 48  1  0
M  END

