
     RDKit          3D

 52 54  0  0  0  0  0  0  0  0999 V2000
    0.6814    3.0083    9.6711 C   0  0  0  0  0  0  0  0  0  0  0  0
    0.4964    2.3959    8.2958 C   0  0  0  0  0  0  0  0  0  0  0  0
   -0.5556    1.8795    7.9766 O   0  0  0  0  0  0  0  0  0  0  0  0
    1.6477    2.4387    7.3224 C   0  0  0  0  0  0  0  0  0  0  0  0
    2.8920    3.0155    7.6354 C   0  0  0  0  0  0  0  0  0  0  0  0
    3.9245    3.0274    6.6987 C   0  0  0  0  0  0  0  0  0  0  0  0
    3.7096    2.4517    5.4429 C   0  0  0  0  0  0  0  0  0  0  0  0
    5.0389    2.4803    4.2272 S   0  0  1  0  0  0  0  0  0  0  0  0
    4.4432    2.0778    2.9458 O   0  0  0  0  0  0  0  0  0  0  0  0
    5.7397    3.7612    4.3659 O   0  0  0  0  0  0  0  0  0  0  0  0
    6.0887    1.2859    4.7805 N   0  0  0  0  0  0  0  0  0  0  0  0
    5.8494   -0.0917    4.3231 C   0  0  0  0  0  0  0  0  0  0  0  0
    6.5949   -0.3983    3.0179 C   0  0  0  0  0  0  0  0  0  0  0  0
    8.1008   -0.0475    3.0834 C   0  0  2  0  0  0  0  0  0  0  0  0
    8.8857   -1.0679    3.9106 C   0  0  0  0  0  0  0  0  0  0  0  0
    8.5862   -1.3467    5.0633 O   0  0  0  0  0  0  0  0  0  0  0  0
    9.9584   -1.6226    3.2542 N   0  0  0  0  0  0  0  0  0  0  0  0
   10.8953   -2.5560    3.7287 C   0  0  0  0  0  0  0  0  0  0  0  0
   10.8955   -3.1260    5.0098 C   0  0  0  0  0  0  0  0  0  0  0  0
   11.8821   -4.0530    5.3888 C   0  0  0  0  0  0  0  0  0  0  0  0
   11.8485   -4.6497    6.7759 C   0  0  0  0  0  0  0  0  0  0  0  0
   12.8768   -4.4085    4.4686 C   0  0  0  0  0  0  0  0  0  0  0  0
   12.8937   -3.8516    3.1844 C   0  0  0  0  0  0  0  0  0  0  0  0
   11.9119   -2.9419    2.8356 C   0  0  0  0  0  0  0  0  0  0  0  0
   11.9054   -2.3877    1.6004 F   0  0  0  0  0  0  0  0  0  0  0  0
    8.2982    1.3828    3.6479 C   0  0  0  0  0  0  0  0  0  0  0  0
    7.5105    1.6242    4.9407 C   0  0  0  0  0  0  0  0  0  0  0  0
    2.4765    1.8879    5.1027 C   0  0  0  0  0  0  0  0  0  0  0  0
    1.4524    1.8801    6.0489 C   0  0  0  0  0  0  0  0  0  0  0  0
   -0.2479    2.8818   10.2406 H   0  0  0  0  0  0  0  0  0  0  0  0
    0.9211    4.0815    9.5964 H   0  0  0  0  0  0  0  0  0  0  0  0
    1.5109    2.5247   10.2120 H   0  0  0  0  0  0  0  0  0  0  0  0
    3.0638    3.4663    8.6143 H   0  0  0  0  0  0  0  0  0  0  0  0
    4.8861    3.4877    6.9320 H   0  0  0  0  0  0  0  0  0  0  0  0
    4.7697   -0.2461    4.1885 H   0  0  0  0  0  0  0  0  0  0  0  0
    6.1895   -0.7629    5.1251 H   0  0  0  0  0  0  0  0  0  0  0  0
    6.1358    0.1970    2.2130 H   0  0  0  0  0  0  0  0  0  0  0  0
    6.4614   -1.4614    2.7565 H   0  0  0  0  0  0  0  0  0  0  0  0
    8.4948   -0.0601    2.0536 H   0  0  0  0  0  0  0  0  0  0  0  0
   10.1156   -1.3262    2.2980 H   0  0  0  0  0  0  0  0  0  0  0  0
   10.1115   -2.8318    5.7046 H   0  0  0  0  0  0  0  0  0  0  0  0
   10.9227   -5.2259    6.9402 H   0  0  0  0  0  0  0  0  0  0  0  0
   11.8782   -3.8650    7.5497 H   0  0  0  0  0  0  0  0  0  0  0  0
   12.6995   -5.3251    6.9468 H   0  0  0  0  0  0  0  0  0  0  0  0
   13.6495   -5.1275    4.7512 H   0  0  0  0  0  0  0  0  0  0  0  0
   13.6588   -4.1135    2.4510 H   0  0  0  0  0  0  0  0  0  0  0  0
    7.9564    2.1072    2.8896 H   0  0  0  0  0  0  0  0  0  0  0  0
    9.3696    1.5816    3.8204 H   0  0  0  0  0  0  0  0  0  0  0  0
    7.5910    2.6745    5.2461 H   0  0  0  0  0  0  0  0  0  0  0  0
    7.9013    0.9921    5.7526 H   0  0  0  0  0  0  0  0  0  0  0  0
    2.3309    1.4775    4.1022 H   0  0  0  0  0  0  0  0  0  0  0  0
    0.4765    1.4474    5.8209 H   0  0  0  0  0  0  0  0  0  0  0  0
  1  2  1  0
  1 30  1  0
  1 31  1  0
  1 32  1  0
  2  3  2  0
  2  4  1  0
  4  5  2  0
  4 29  1  0
  5  6  1  0
  5 33  1  0
  6  7  2  0
  6 34  1  0
  8  7  1  1
  7 28  1  0
  8  9  2  0
  8 10  2  0
  8 11  1  0
 11 12  1  0
 11 27  1  0
 12 13  1  0
 12 35  1  0
 12 36  1  0
 13 14  1  0
 13 37  1  0
 13 38  1  0
 14 15  1  0
 14 26  1  0
 14 39  1  6
 15 16  2  0
 15 17  1  0
 17 18  1  0
 17 40  1  0
 18 19  2  0
 18 24  1  0
 19 20  1  0
 19 41  1  0
 20 21  1  0
 20 22  2  0
 21 42  1  0
 21 43  1  0
 21 44  1  0
 22 23  1  0
 22 45  1  0
 23 24  2  0
 23 46  1  0
 24 25  1  0
 26 27  1  0
 26 47  1  0
 26 48  1  0
 27 49  1  0
 27 50  1  0
 28 29  2  0
 28 51  1  0
 29 52  1  0
M  END

