
     RDKit          3D

 35 36  0  0  0  0  0  0  0  0999 V2000
    3.9765   -1.4224    0.9950 F   0  0  0  0  0  0  0  0  0  0  0  0
    5.2709   -1.7673    0.5462 C   0  0  1  0  0  0  0  0  0  0  0  0
    5.4143   -3.0593    0.8820 F   0  0  0  0  0  0  0  0  0  0  0  0
    5.3465   -1.6482   -0.7848 O   0  0  0  0  0  0  0  0  0  0  0  0
    5.6559   -0.3461   -1.2998 C   0  0  0  0  0  0  0  0  0  0  0  0
    6.9512    0.1011   -1.2548 C   0  0  0  0  0  0  0  0  0  0  0  0
    7.2814    1.4060   -1.7262 C   0  0  0  0  0  0  0  0  0  0  0  0
    6.2037    2.2002   -2.2084 C   0  0  0  0  0  0  0  0  0  0  0  0
    6.5686    3.8430   -2.7469 Cl  0  0  0  0  0  0  0  0  0  0  0  0
    4.9017    1.7601   -2.2534 C   0  0  0  0  0  0  0  0  0  0  0  0
    4.5416    0.4392   -1.7694 C   0  0  0  0  0  0  0  0  0  0  0  0
    3.3472   -0.2397   -2.3795 C   0  0  0  0  0  0  0  0  0  0  0  0
    2.5406   -1.0151   -1.4402 N   0  0  0  0  0  0  0  0  0  0  0  0
    1.4422   -1.8563   -1.8331 C   0  0  1  0  0  0  0  0  0  0  0  0
    1.8777   -3.3557   -1.8527 C   0  0  0  0  0  0  0  0  0  0  0  0
    1.9261   -3.9715   -0.4535 C   0  0  0  0  0  0  0  0  0  0  0  0
    0.7098   -3.7739    0.2403 O   0  0  0  0  0  0  0  0  0  0  0  0
    0.4214   -2.4085    0.4450 C   0  0  0  0  0  0  0  0  0  0  0  0
    0.2317   -1.6774   -0.8872 C   0  0  0  0  0  0  0  0  0  0  0  0
    5.9678   -1.1295    1.1121 H   0  0  0  0  0  0  0  0  0  0  0  0
    7.7277   -0.5441   -0.8336 H   0  0  0  0  0  0  0  0  0  0  0  0
    8.3065    1.7670   -1.7532 H   0  0  0  0  0  0  0  0  0  0  0  0
    4.1291    2.4334   -2.6332 H   0  0  0  0  0  0  0  0  0  0  0  0
    3.5425   -0.9376   -3.2245 H   0  0  0  0  0  0  0  0  0  0  0  0
    2.6505    0.5100   -2.7993 H   0  0  0  0  0  0  0  0  0  0  0  0
    2.8690   -1.0380   -0.4677 H   0  0  0  0  0  0  0  0  0  0  0  0
    1.1747   -1.5572   -2.8570 H   0  0  0  0  0  0  0  0  0  0  0  0
    2.8467   -3.4636   -2.3631 H   0  0  0  0  0  0  0  0  0  0  0  0
    1.1191   -3.8791   -2.4558 H   0  0  0  0  0  0  0  0  0  0  0  0
    2.7754   -3.5673    0.1283 H   0  0  0  0  0  0  0  0  0  0  0  0
    2.0741   -5.0584   -0.5349 H   0  0  0  0  0  0  0  0  0  0  0  0
    1.2193   -1.9318    1.0512 H   0  0  0  0  0  0  0  0  0  0  0  0
   -0.5058   -2.3594    1.0344 H   0  0  0  0  0  0  0  0  0  0  0  0
    0.0218   -0.6079   -0.7264 H   0  0  0  0  0  0  0  0  0  0  0  0
   -0.6399   -2.1072   -1.4055 H   0  0  0  0  0  0  0  0  0  0  0  0
  1  2  1  0
  2  3  1  0
  2  4  1  0
  2 20  1  6
  4  5  1  0
  5  6  2  0
  5 11  1  0
  6  7  1  0
  6 21  1  0
  7  8  2  0
  7 22  1  0
  8  9  1  0
  8 10  1  0
 10 11  2  0
 10 23  1  0
 11 12  1  0
 12 13  1  0
 12 24  1  0
 12 25  1  0
 13 14  1  0
 13 26  1  0
 14 15  1  0
 14 19  1  0
 14 27  1  1
 15 16  1  0
 15 28  1  0
 15 29  1  0
 16 17  1  0
 16 30  1  0
 16 31  1  0
 17 18  1  0
 18 19  1  0
 18 32  1  0
 18 33  1  0
 19 34  1  0
 19 35  1  0
M  END

