
     RDKit          3D

 71 73  0  0  0  0  0  0  0  0999 V2000
    4.0237   -4.9604    5.7284 C   0  0  0  0  0  0  0  0  0  0  0  0
    4.3751   -4.2929    4.4827 N   0  0  0  0  0  0  0  0  0  0  0  0
    3.8348   -2.9486    4.2835 C   0  0  1  0  0  0  0  0  0  0  0  0
    4.1719   -2.0004    5.4419 C   0  0  0  0  0  0  0  0  0  0  0  0
    4.3772   -2.3298    2.9823 C   0  0  0  0  0  0  0  0  0  0  0  0
    3.8365   -1.3584    2.4698 O   0  0  0  0  0  0  0  0  0  0  0  0
    5.4963   -2.9252    2.4885 N   0  0  0  0  0  0  0  0  0  0  0  0
    6.2201   -2.3769    1.3525 C   0  0  1  0  0  0  0  0  0  0  0  0
    7.1739   -1.2813    1.8772 C   0  0  0  0  0  0  0  0  0  0  0  0
    8.0731   -1.5605    2.6639 O   0  0  0  0  0  0  0  0  0  0  0  0
    6.9431    0.0065    1.4897 N   0  0  0  0  0  0  0  0  0  0  0  0
    5.9354    0.4955    0.5347 C   0  0  0  0  0  0  0  0  0  0  0  0
    6.4729    1.8725    0.1385 C   0  0  0  0  0  0  0  0  0  0  0  0
    7.1929    2.3808    1.4003 C   0  0  2  0  0  0  0  0  0  0  0  0
    7.7432    1.0940    2.0706 C   0  0  1  0  0  0  0  0  0  0  0  0
    7.4912    1.3025    3.5751 C   0  0  1  0  0  0  0  0  0  0  0  0
    8.5843    2.0735    4.0379 O   0  0  0  0  0  0  0  0  0  0  0  0
    8.6674    2.2337    5.4389 C   0  0  0  0  0  0  0  0  0  0  0  0
    9.9999    2.8420    5.8079 C   0  0  0  0  0  0  0  0  0  0  0  0
   10.0862    3.8461    6.7814 C   0  0  0  0  0  0  0  0  0  0  0  0
   11.3210    4.3810    7.1604 C   0  0  0  0  0  0  0  0  0  0  0  0
   12.4742    3.9061    6.5425 C   0  0  0  0  0  0  0  0  0  0  0  0
   13.6649    4.4169    6.8937 F   0  0  0  0  0  0  0  0  0  0  0  0
   12.4219    2.9156    5.5626 C   0  0  0  0  0  0  0  0  0  0  0  0
   11.1818    2.3870    5.2023 C   0  0  0  0  0  0  0  0  0  0  0  0
    6.1754    2.0857    3.5866 C   0  0  0  0  0  0  0  0  0  0  0  0
    6.2977    2.9536    2.4149 N   0  0  0  0  0  0  0  0  0  0  0  0
    5.9031    4.2692    2.4920 C   0  0  0  0  0  0  0  0  0  0  0  0
    6.2995    5.1760    1.3365 C   0  0  0  0  0  0  0  0  0  0  0  0
    5.2789    4.6932    3.4517 O   0  0  0  0  0  0  0  0  0  0  0  0
    6.9386   -3.4826    0.5124 C   0  0  1  0  0  0  0  0  0  0  0  0
    5.8585   -4.3482   -0.1648 C   0  0  0  0  0  0  0  0  0  0  0  0
    7.7927   -2.8031   -0.5755 C   0  0  0  0  0  0  0  0  0  0  0  0
    7.8441   -4.3792    1.3798 C   0  0  0  0  0  0  0  0  0  0  0  0
    4.3670   -6.0053    5.6852 H   0  0  0  0  0  0  0  0  0  0  0  0
    2.9342   -4.9689    5.9483 H   0  0  0  0  0  0  0  0  0  0  0  0
    4.5315   -4.4895    6.5835 H   0  0  0  0  0  0  0  0  0  0  0  0
    4.0776   -4.8777    3.7024 H   0  0  0  0  0  0  0  0  0  0  0  0
    2.7303   -2.9456    4.1618 H   0  0  0  0  0  0  0  0  0  0  0  0
    5.2595   -1.9742    5.6185 H   0  0  0  0  0  0  0  0  0  0  0  0
    3.6737   -2.3048    6.3740 H   0  0  0  0  0  0  0  0  0  0  0  0
    3.8273   -0.9878    5.1897 H   0  0  0  0  0  0  0  0  0  0  0  0
    5.9458   -3.5977    3.1062 H   0  0  0  0  0  0  0  0  0  0  0  0
    5.4538   -1.9225    0.7145 H   0  0  0  0  0  0  0  0  0  0  0  0
    4.9411    0.5453    1.0086 H   0  0  0  0  0  0  0  0  0  0  0  0
    5.8554   -0.1695   -0.3357 H   0  0  0  0  0  0  0  0  0  0  0  0
    5.6788    2.5507   -0.2024 H   0  0  0  0  0  0  0  0  0  0  0  0
    7.2077    1.7721   -0.6775 H   0  0  0  0  0  0  0  0  0  0  0  0
    7.9995    3.0866    1.1559 H   0  0  0  0  0  0  0  0  0  0  0  0
    8.8157    0.9220    1.8995 H   0  0  0  0  0  0  0  0  0  0  0  0
    7.4362    0.3448    4.1183 H   0  0  0  0  0  0  0  0  0  0  0  0
    8.5559    1.2430    5.9299 H   0  0  0  0  0  0  0  0  0  0  0  0
    7.8486    2.8721    5.8224 H   0  0  0  0  0  0  0  0  0  0  0  0
    9.1744    4.2237    7.2526 H   0  0  0  0  0  0  0  0  0  0  0  0
   11.3997    5.1645    7.9165 H   0  0  0  0  0  0  0  0  0  0  0  0
   13.3489    2.5731    5.0982 H   0  0  0  0  0  0  0  0  0  0  0  0
   11.1229    1.6155    4.4320 H   0  0  0  0  0  0  0  0  0  0  0  0
    6.0191    2.7033    4.4805 H   0  0  0  0  0  0  0  0  0  0  0  0
    5.3162    1.3965    3.4989 H   0  0  0  0  0  0  0  0  0  0  0  0
    6.0245    4.7606    0.3558 H   0  0  0  0  0  0  0  0  0  0  0  0
    7.3894    5.3438    1.3321 H   0  0  0  0  0  0  0  0  0  0  0  0
    5.7965    6.1400    1.4789 H   0  0  0  0  0  0  0  0  0  0  0  0
    5.2399   -3.7531   -0.8569 H   0  0  0  0  0  0  0  0  0  0  0  0
    5.1857   -4.8035    0.5779 H   0  0  0  0  0  0  0  0  0  0  0  0
    6.3227   -5.1628   -0.7436 H   0  0  0  0  0  0  0  0  0  0  0  0
    7.1902   -2.1215   -1.1991 H   0  0  0  0  0  0  0  0  0  0  0  0
    8.2283   -3.5604   -1.2464 H   0  0  0  0  0  0  0  0  0  0  0  0
    8.6259   -2.2294   -0.1409 H   0  0  0  0  0  0  0  0  0  0  0  0
    7.2604   -4.9662    2.1082 H   0  0  0  0  0  0  0  0  0  0  0  0
    8.5844   -3.7858    1.9329 H   0  0  0  0  0  0  0  0  0  0  0  0
    8.3732   -5.1045    0.7407 H   0  0  0  0  0  0  0  0  0  0  0  0
  1  2  1  0
  1 35  1  0
  1 36  1  0
  1 37  1  0
  2  3  1  0
  2 38  1  0
  3  4  1  0
  3  5  1  0
  3 39  1  6
  4 40  1  0
  4 41  1  0
  4 42  1  0
  5  6  2  0
  5  7  1  0
  7  8  1  0
  7 43  1  0
  8  9  1  0
  8 31  1  0
  8 44  1  6
  9 10  2  0
  9 11  1  0
 11 12  1  0
 11 15  1  0
 12 13  1  0
 12 45  1  0
 12 46  1  0
 13 14  1  0
 13 47  1  0
 13 48  1  0
 14 15  1  0
 14 27  1  0
 14 49  1  6
 15 16  1  0
 15 50  1  1
 16 17  1  0
 16 26  1  0
 16 51  1  1
 17 18  1  0
 18 19  1  0
 18 52  1  0
 18 53  1  0
 19 20  2  0
 19 25  1  0
 20 21  1  0
 20 54  1  0
 21 22  2  0
 21 55  1  0
 22 23  1  0
 22 24  1  0
 24 25  2  0
 24 56  1  0
 25 57  1  0
 26 27  1  0
 26 58  1  0
 26 59  1  0
 27 28  1  0
 28 29  1  0
 28 30  2  0
 29 60  1  0
 29 61  1  0
 29 62  1  0
 31 32  1  6
 31 33  1  0
 31 34  1  0
 32 63  1  0
 32 64  1  0
 32 65  1  0
 33 66  1  0
 33 67  1  0
 33 68  1  0
 34 69  1  0
 34 70  1  0
 34 71  1  0
M  END

