
     RDKit          3D

 37 38  0  0  0  0  0  0  0  0999 V2000
    1.7177    1.2319    0.1208 O   0  0  0  0  0  0  0  0  0  0  0  0
    1.9334    0.0386    0.0158 C   0  0  0  0  0  0  0  0  0  0  0  0
    2.6872   -0.5543   -1.1678 C   0  0  0  0  0  0  0  0  0  0  0  0
    1.7564   -0.9805   -2.3232 C   0  0  0  0  0  0  0  0  0  0  0  0
    0.8947    0.1419   -2.9047 C   0  0  1  0  0  0  0  0  0  0  0  0
    1.6783    1.3223   -3.5375 C   0  0  0  0  0  0  0  0  0  0  0  0
    0.8397    1.7473   -4.7718 C   0  0  0  0  0  0  0  0  0  0  0  0
   -0.3914    0.9656   -4.6568 N   0  0  0  0  0  0  0  0  0  0  0  0
   -0.0322   -0.3034   -4.0470 C   0  0  0  0  0  0  0  0  0  0  0  0
    1.4830   -0.9020    0.9266 N   0  0  0  0  0  0  0  0  0  0  0  0
    0.7084   -0.7150    2.0820 C   0  0  0  0  0  0  0  0  0  0  0  0
    0.2776    0.5511    2.5163 C   0  0  0  0  0  0  0  0  0  0  0  0
   -0.4940    0.6413    3.6766 C   0  0  0  0  0  0  0  0  0  0  0  0
   -1.0317    2.2161    4.2069 Cl  0  0  0  0  0  0  0  0  0  0  0  0
   -0.8520   -0.4831    4.4219 C   0  0  0  0  0  0  0  0  0  0  0  0
   -0.4134   -1.7351    3.9791 C   0  0  0  0  0  0  0  0  0  0  0  0
   -0.7344   -2.9641    4.7966 C   0  0  1  0  0  0  0  0  0  0  0  0
   -1.9379   -2.8714    5.3851 F   0  0  0  0  0  0  0  0  0  0  0  0
   -0.7345   -4.0799    4.0445 F   0  0  0  0  0  0  0  0  0  0  0  0
    0.1690   -3.1526    5.7769 F   0  0  0  0  0  0  0  0  0  0  0  0
    0.3554   -1.8576    2.8226 C   0  0  0  0  0  0  0  0  0  0  0  0
    3.2909   -1.4196   -0.8448 H   0  0  0  0  0  0  0  0  0  0  0  0
    3.3843    0.2234   -1.5106 H   0  0  0  0  0  0  0  0  0  0  0  0
    1.0999   -1.8000   -1.9774 H   0  0  0  0  0  0  0  0  0  0  0  0
    2.3856   -1.4116   -3.1221 H   0  0  0  0  0  0  0  0  0  0  0  0
    0.2510    0.5518   -2.1100 H   0  0  0  0  0  0  0  0  0  0  0  0
    2.6852    1.0009   -3.8522 H   0  0  0  0  0  0  0  0  0  0  0  0
    1.8108    2.1390   -2.8140 H   0  0  0  0  0  0  0  0  0  0  0  0
    1.4082    1.5285   -5.7015 H   0  0  0  0  0  0  0  0  0  0  0  0
    0.6164    2.8273   -4.7807 H   0  0  0  0  0  0  0  0  0  0  0  0
   -0.8878    0.8673   -5.5392 H   0  0  0  0  0  0  0  0  0  0  0  0
    0.5190   -0.9952   -4.7289 H   0  0  0  0  0  0  0  0  0  0  0  0
   -0.9252   -0.8413   -3.6860 H   0  0  0  0  0  0  0  0  0  0  0  0
    1.7394   -1.8635    0.7356 H   0  0  0  0  0  0  0  0  0  0  0  0
    0.5441    1.4381    1.9482 H   0  0  0  0  0  0  0  0  0  0  0  0
   -1.4615   -0.3832    5.3195 H   0  0  0  0  0  0  0  0  0  0  0  0
    0.6751   -2.8477    2.4911 H   0  0  0  0  0  0  0  0  0  0  0  0
  1  2  2  0
  2  3  1  0
  2 10  1  0
  3  4  1  0
  3 22  1  0
  3 23  1  0
  4  5  1  0
  4 24  1  0
  4 25  1  0
  5  6  1  0
  5  9  1  0
  5 26  1  1
  6  7  1  0
  6 27  1  0
  6 28  1  0
  7  8  1  0
  7 29  1  0
  7 30  1  0
  8  9  1  0
  8 31  1  0
  9 32  1  0
  9 33  1  0
 10 11  1  0
 10 34  1  0
 11 12  2  0
 11 21  1  0
 12 13  1  0
 12 35  1  0
 13 14  1  0
 13 15  2  0
 15 16  1  0
 15 36  1  0
 16 17  1  0
 16 21  2  0
 17 18  1  1
 17 19  1  0
 17 20  1  0
 21 37  1  0
M  END

