
     RDKit          3D

 34 35  0  0  0  0  0  0  0  0999 V2000
    1.7005   -1.0351   -0.5913 C   0  0  0  0  0  0  0  0  0  0  0  0
    3.0139   -0.5235   -0.5943 O   0  0  0  0  0  0  0  0  0  0  0  0
    3.2661    0.6560   -1.2152 C   0  0  0  0  0  0  0  0  0  0  0  0
    2.3023    1.4343   -1.8718 C   0  0  0  0  0  0  0  0  0  0  0  0
    2.6796    2.6371   -2.4821 C   0  0  0  0  0  0  0  0  0  0  0  0
    3.9995    3.0966   -2.4523 C   0  0  0  0  0  0  0  0  0  0  0  0
    4.3936    4.4092   -3.1119 C   0  0  1  0  0  0  0  0  0  0  0  0
    4.8701    5.4491   -2.0797 C   0  0  0  0  0  0  0  0  0  0  0  0
    5.4063    4.1549   -4.1342 N   0  0  0  0  0  0  0  0  0  0  0  0
    5.6091    4.9397   -5.2483 C   0  0  0  0  0  0  0  0  0  0  0  0
    5.0229    6.2032   -5.4666 C   0  0  0  0  0  0  0  0  0  0  0  0
    5.2990    6.9340   -6.6285 C   0  0  0  0  0  0  0  0  0  0  0  0
    6.1595    6.4358   -7.6068 C   0  0  0  0  0  0  0  0  0  0  0  0
    6.7497    5.1777   -7.4159 C   0  0  0  0  0  0  0  0  0  0  0  0
    6.4711    4.4651   -6.2641 C   0  0  0  0  0  0  0  0  0  0  0  0
    7.0257    3.2434   -6.0753 F   0  0  0  0  0  0  0  0  0  0  0  0
    4.9537    2.3033   -1.7854 C   0  0  0  0  0  0  0  0  0  0  0  0
    4.5995    1.1030   -1.1802 C   0  0  0  0  0  0  0  0  0  0  0  0
    1.7348   -1.9836   -0.0386 H   0  0  0  0  0  0  0  0  0  0  0  0
    1.3325   -1.2315   -1.6147 H   0  0  0  0  0  0  0  0  0  0  0  0
    0.9936   -0.3525   -0.0856 H   0  0  0  0  0  0  0  0  0  0  0  0
    1.2603    1.1174   -1.9206 H   0  0  0  0  0  0  0  0  0  0  0  0
    1.9159    3.2281   -2.9958 H   0  0  0  0  0  0  0  0  0  0  0  0
    3.4880    4.8114   -3.6046 H   0  0  0  0  0  0  0  0  0  0  0  0
    5.7455    5.0755   -1.5267 H   0  0  0  0  0  0  0  0  0  0  0  0
    4.0703    5.6678   -1.3548 H   0  0  0  0  0  0  0  0  0  0  0  0
    5.1614    6.3907   -2.5692 H   0  0  0  0  0  0  0  0  0  0  0  0
    5.7284    3.1993   -4.2221 H   0  0  0  0  0  0  0  0  0  0  0  0
    4.3471    6.6221   -4.7205 H   0  0  0  0  0  0  0  0  0  0  0  0
    4.8280    7.9112   -6.7623 H   0  0  0  0  0  0  0  0  0  0  0  0
    6.3734    7.0101   -8.5103 H   0  0  0  0  0  0  0  0  0  0  0  0
    7.4251    4.7373   -8.1527 H   0  0  0  0  0  0  0  0  0  0  0  0
    5.9965    2.6298   -1.7382 H   0  0  0  0  0  0  0  0  0  0  0  0
    5.3390    0.4864   -0.6651 H   0  0  0  0  0  0  0  0  0  0  0  0
  1  2  1  0
  1 19  1  0
  1 20  1  0
  1 21  1  0
  2  3  1  0
  3  4  2  0
  3 18  1  0
  4  5  1  0
  4 22  1  0
  5  6  2  0
  5 23  1  0
  6  7  1  0
  6 17  1  0
  7  8  1  0
  7  9  1  0
  7 24  1  6
  8 25  1  0
  8 26  1  0
  8 27  1  0
  9 10  1  0
  9 28  1  0
 10 11  2  0
 10 15  1  0
 11 12  1  0
 11 29  1  0
 12 13  2  0
 12 30  1  0
 13 14  1  0
 13 31  1  0
 14 15  2  0
 14 32  1  0
 15 16  1  0
 17 18  2  0
 17 33  1  0
 18 34  1  0
M  END

