
     RDKit          3D

 40 42  0  0  0  0  0  0  0  0999 V2000
    2.0425    4.1008    1.8018 C   0  0  0  0  0  0  0  0  0  0  0  0
    3.2622    3.9322    1.1177 O   0  0  0  0  0  0  0  0  0  0  0  0
    3.4274    2.8426    0.3140 C   0  0  0  0  0  0  0  0  0  0  0  0
    2.4839    1.8136    0.1680 C   0  0  0  0  0  0  0  0  0  0  0  0
    2.7781    0.7428   -0.6947 C   0  0  0  0  0  0  0  0  0  0  0  0
    3.9717    0.6809   -1.3922 C   0  0  0  0  0  0  0  0  0  0  0  0
    4.9599    1.7028   -1.2632 C   0  0  0  0  0  0  0  0  0  0  0  0
    6.2145    1.6851   -1.9592 C   0  0  0  0  0  0  0  0  0  0  0  0
    6.6413    0.7190   -2.8598 C   0  0  0  0  0  0  0  0  0  0  0  0
    7.8939    0.6854   -3.5370 C   0  0  0  0  0  0  0  0  0  0  0  0
    8.9176    1.6729   -3.3367 C   0  0  0  0  0  0  0  0  0  0  0  0
   10.1171    1.6064   -4.0014 C   0  0  0  0  0  0  0  0  0  0  0  0
   10.3519    0.5322   -4.9137 C   0  0  0  0  0  0  0  0  0  0  0  0
   11.5622    0.3532   -5.6649 C   0  0  0  0  0  0  0  0  0  0  0  0
   12.8549    1.4814   -5.4928 Cl  0  0  0  0  0  0  0  0  0  0  0  0
   11.7595   -0.7121   -6.5533 C   0  0  0  0  0  0  0  0  0  0  0  0
   10.7175   -1.6275   -6.6982 C   0  0  0  0  0  0  0  0  0  0  0  0
   10.8799   -2.9783   -7.7831 Cl  0  0  0  0  0  0  0  0  0  0  0  0
    9.4929   -1.5065   -5.9818 C   0  0  0  0  0  0  0  0  0  0  0  0
    8.5133   -2.3756   -6.1258 O   0  0  0  0  0  0  0  0  0  0  0  0
    9.2866   -0.4037   -5.0576 C   0  0  0  0  0  0  0  0  0  0  0  0
    8.1242   -0.3456   -4.4166 N   0  0  0  0  0  0  0  0  0  0  0  0
    4.6424    2.7795   -0.3882 C   0  0  0  0  0  0  0  0  0  0  0  0
    5.5209    3.8547   -0.2974 O   0  0  0  0  0  0  0  0  0  0  0  0
    6.2099    4.0261    0.8663 C   0  0  1  0  0  0  0  0  0  0  0  0
    7.3805    3.3275    0.8273 F   0  0  0  0  0  0  0  0  0  0  0  0
    6.5341    5.3264    0.9610 F   0  0  0  0  0  0  0  0  0  0  0  0
    2.1199    5.0497    2.3499 H   0  0  0  0  0  0  0  0  0  0  0  0
    1.8562    3.2849    2.5239 H   0  0  0  0  0  0  0  0  0  0  0  0
    1.1868    4.1581    1.1055 H   0  0  0  0  0  0  0  0  0  0  0  0
    1.5376    1.8384    0.7068 H   0  0  0  0  0  0  0  0  0  0  0  0
    2.0431   -0.0581   -0.8126 H   0  0  0  0  0  0  0  0  0  0  0  0
    4.1660   -0.1670   -2.0502 H   0  0  0  0  0  0  0  0  0  0  0  0
    6.8736    2.5235   -1.7308 H   0  0  0  0  0  0  0  0  0  0  0  0
    5.9889   -0.1192   -3.1138 H   0  0  0  0  0  0  0  0  0  0  0  0
    8.7428    2.4919   -2.6376 H   0  0  0  0  0  0  0  0  0  0  0  0
   10.8872    2.3607   -3.8378 H   0  0  0  0  0  0  0  0  0  0  0  0
   12.6890   -0.8213   -7.1083 H   0  0  0  0  0  0  0  0  0  0  0  0
    8.7756   -3.0604   -6.7695 H   0  0  0  0  0  0  0  0  0  0  0  0
    5.6474    3.7095    1.7586 H   0  0  0  0  0  0  0  0  0  0  0  0
  1  2  1  0
  1 28  1  0
  1 29  1  0
  1 30  1  0
  2  3  1  0
  3  4  2  0
  3 23  1  0
  4  5  1  0
  4 31  1  0
  5  6  2  0
  5 32  1  0
  6  7  1  0
  6 33  1  0
  7  8  1  0
  7 23  2  0
  8  9  2  0
  8 34  1  0
  9 10  1  0
  9 35  1  0
 10 11  2  0
 10 22  1  0
 11 12  1  0
 11 36  1  0
 12 13  2  0
 12 37  1  0
 13 14  1  0
 13 21  1  0
 14 15  1  0
 14 16  2  0
 16 17  1  0
 16 38  1  0
 17 18  1  0
 17 19  2  0
 19 20  1  0
 19 21  1  0
 20 39  1  0
 21 22  2  0
 23 24  1  0
 24 25  1  0
 25 26  1  0
 25 27  1  0
 25 40  1  1
M  END

