
     RDKit          3D

 48 51  0  0  0  0  0  0  0  0999 V2000
   -1.2778   -0.1777    1.7597 C   0  0  0  0  0  0  0  0  0  0  0  0
   -0.0150   -0.4645    0.9505 C   0  0  1  0  0  0  0  0  0  0  0  0
   -0.2900   -0.4897   -0.1182 H   0  0  0  0  0  0  0  0  0  0  0  0
    0.9916    0.6447    1.1421 N   0  0  0  0  0  0  0  0  0  0  0  0
    1.1250    1.7599   -0.1017 S   0  0  1  0  0  0  0  0  0  0  0  0
    1.9694    1.2758   -1.2046 O   0  0  0  0  0  0  0  0  0  0  0  0
   -0.2472    2.1850   -0.4075 O   0  0  0  0  0  0  0  0  0  0  0  0
    2.0229    2.9261    0.6807 N   0  0  0  0  0  0  0  0  0  0  0  0
    1.3512    3.7745    1.7056 C   0  0  0  0  0  0  0  0  0  0  0  0
    1.9558    5.1576    1.4003 C   0  0  2  0  0  0  0  0  0  0  0  0
    1.3658    5.6731    0.0636 C   0  0  0  0  0  0  0  0  0  0  0  0
    2.0417    4.7542   -1.0042 C   0  0  0  0  0  0  0  0  0  0  0  0
    2.9026    3.8153   -0.1316 C   0  0  1  0  0  0  0  0  0  0  0  0
    3.3875    4.7612    0.9778 C   0  0  0  0  0  0  0  0  0  0  0  0
    0.6035   -1.7740    1.3015 C   0  0  0  0  0  0  0  0  0  0  0  0
    0.6621   -2.2646    2.5902 N   0  0  0  0  0  0  0  0  0  0  0  0
    1.5780   -3.0691    2.7175 N   0  0  0  0  0  0  0  0  0  0  0  0
    2.3253   -3.2368    1.6104 C   0  0  0  0  0  0  0  0  0  0  0  0
    1.8601   -2.2099    0.7375 N   0  0  0  0  0  0  0  0  0  0  0  0
    2.1030   -2.2149   -0.6990 C   0  0  0  0  0  0  0  0  0  0  0  0
    3.5917   -2.3486   -1.0425 C   0  0  0  0  0  0  0  0  0  0  0  0
    4.1949   -3.7663   -1.0225 C   0  0  0  0  0  0  0  0  0  0  0  0
    3.7924   -4.6819    0.1507 C   0  0  0  0  0  0  0  0  0  0  0  0
    3.6142   -3.9710    1.5066 C   0  0  0  0  0  0  0  0  0  0  0  0
   -1.6893    0.7938    1.4550 H   0  0  0  0  0  0  0  0  0  0  0  0
   -1.0461   -0.1454    2.8349 H   0  0  0  0  0  0  0  0  0  0  0  0
   -2.0326   -0.9586    1.5830 H   0  0  0  0  0  0  0  0  0  0  0  0
    1.9243    0.2801    1.3475 H   0  0  0  0  0  0  0  0  0  0  0  0
    1.6007    3.4157    2.7176 H   0  0  0  0  0  0  0  0  0  0  0  0
    0.2571    3.7552    1.5880 H   0  0  0  0  0  0  0  0  0  0  0  0
    1.8675    5.8619    2.2397 H   0  0  0  0  0  0  0  0  0  0  0  0
    1.6284    6.7312   -0.0909 H   0  0  0  0  0  0  0  0  0  0  0  0
    0.2679    5.6013    0.0453 H   0  0  0  0  0  0  0  0  0  0  0  0
    2.6827    5.3270   -1.6935 H   0  0  0  0  0  0  0  0  0  0  0  0
    1.3190    4.1963   -1.6154 H   0  0  0  0  0  0  0  0  0  0  0  0
    3.6565    3.2264   -0.6661 H   0  0  0  0  0  0  0  0  0  0  0  0
    3.9765    5.6036    0.5843 H   0  0  0  0  0  0  0  0  0  0  0  0
    3.9610    4.2473    1.7639 H   0  0  0  0  0  0  0  0  0  0  0  0
    1.7512   -1.2476   -1.0846 H   0  0  0  0  0  0  0  0  0  0  0  0
    1.5028   -3.0119   -1.1894 H   0  0  0  0  0  0  0  0  0  0  0  0
    4.1439   -1.6859   -0.3550 H   0  0  0  0  0  0  0  0  0  0  0  0
    3.7440   -1.9223   -2.0470 H   0  0  0  0  0  0  0  0  0  0  0  0
    5.2930   -3.6545   -1.0367 H   0  0  0  0  0  0  0  0  0  0  0  0
    3.9392   -4.2839   -1.9630 H   0  0  0  0  0  0  0  0  0  0  0  0
    4.5563   -5.4702    0.2563 H   0  0  0  0  0  0  0  0  0  0  0  0
    2.8474   -5.2013   -0.0812 H   0  0  0  0  0  0  0  0  0  0  0  0
    4.4837   -3.3003    1.6866 H   0  0  0  0  0  0  0  0  0  0  0  0
    3.6252   -4.7121    2.3200 H   0  0  0  0  0  0  0  0  0  0  0  0
  1  2  1  0
  1 25  1  0
  1 26  1  0
  1 27  1  0
  2  3  1  6
  2  4  1  0
  2 15  1  0
  5  4  1  1
  4 28  1  0
  5  6  2  0
  5  7  2  0
  5  8  1  0
  8  9  1  0
  8 13  1  0
  9 10  1  0
  9 29  1  0
  9 30  1  0
 10 11  1  0
 10 14  1  0
 10 31  1  1
 11 12  1  0
 11 32  1  0
 11 33  1  0
 12 13  1  0
 12 34  1  0
 12 35  1  0
 13 14  1  0
 13 36  1  6
 14 37  1  0
 14 38  1  0
 15 16  2  0
 15 19  1  0
 16 17  1  0
 17 18  2  0
 18 19  1  0
 18 24  1  0
 19 20  1  0
 20 21  1  0
 20 39  1  0
 20 40  1  0
 21 22  1  0
 21 41  1  0
 21 42  1  0
 22 23  1  0
 22 43  1  0
 22 44  1  0
 23 24  1  0
 23 45  1  0
 23 46  1  0
 24 47  1  0
 24 48  1  0
M  END

