
     RDKit          3D

 41 42  0  0  0  0  0  0  0  0999 V2000
    1.6067    0.8100    1.5524 C   0  0  0  0  0  0  0  0  0  0  0  0
    2.9805    0.7160    0.9437 C   0  0  0  0  0  0  0  0  0  0  0  0
    4.1498    0.5523    1.7024 C   0  0  0  0  0  0  0  0  0  0  0  0
    5.4086    0.4696    1.1059 C   0  0  0  0  0  0  0  0  0  0  0  0
    5.5525    0.5494   -0.2889 C   0  0  0  0  0  0  0  0  0  0  0  0
    6.9628    0.4443   -0.8972 C   0  0  1  0  0  0  0  0  0  0  0  0
    7.0384    0.9906   -2.3348 C   0  0  0  0  0  0  0  0  0  0  0  0
    7.8715    1.1847   -0.0812 O   0  0  0  0  0  0  0  0  0  0  0  0
    7.4473   -1.0142   -0.8807 C   0  0  0  0  0  0  0  0  0  0  0  0
    6.6657   -2.0368   -1.4360 C   0  0  0  0  0  0  0  0  0  0  0  0
    7.1244   -3.3554   -1.4621 C   0  0  0  0  0  0  0  0  0  0  0  0
    8.3760   -3.7050   -0.9329 C   0  0  0  0  0  0  0  0  0  0  0  0
    8.8628   -5.1484   -0.9643 C   0  0  1  0  0  0  0  0  0  0  0  0
   10.1349   -5.3098   -1.8146 C   0  0  0  0  0  0  0  0  0  0  0  0
    9.0613   -5.7206    0.4500 C   0  0  0  0  0  0  0  0  0  0  0  0
    9.1505   -2.6759   -0.3753 C   0  0  0  0  0  0  0  0  0  0  0  0
    8.6988   -1.3539   -0.3491 C   0  0  0  0  0  0  0  0  0  0  0  0
    4.3963    0.7168   -1.0632 C   0  0  0  0  0  0  0  0  0  0  0  0
    3.1530    0.7932   -0.4411 C   0  0  0  0  0  0  0  0  0  0  0  0
    2.0605    0.9555   -1.2135 F   0  0  0  0  0  0  0  0  0  0  0  0
    1.6544    0.7293    2.6478 H   0  0  0  0  0  0  0  0  0  0  0  0
    0.9461    0.0113    1.1769 H   0  0  0  0  0  0  0  0  0  0  0  0
    1.1199    1.7661    1.2985 H   0  0  0  0  0  0  0  0  0  0  0  0
    4.0647    0.4873    2.7909 H   0  0  0  0  0  0  0  0  0  0  0  0
    6.2999    0.3464    1.7231 H   0  0  0  0  0  0  0  0  0  0  0  0
    6.6798    2.0326   -2.3791 H   0  0  0  0  0  0  0  0  0  0  0  0
    6.4466    0.3919   -3.0418 H   0  0  0  0  0  0  0  0  0  0  0  0
    8.0870    0.9650   -2.6637 H   0  0  0  0  0  0  0  0  0  0  0  0
    7.5457    2.0934   -0.0344 H   0  0  0  0  0  0  0  0  0  0  0  0
    5.6779   -1.8094   -1.8454 H   0  0  0  0  0  0  0  0  0  0  0  0
    6.4910   -4.1328   -1.9000 H   0  0  0  0  0  0  0  0  0  0  0  0
    8.0672   -5.7408   -1.4493 H   0  0  0  0  0  0  0  0  0  0  0  0
   10.9829   -4.7562   -1.3789 H   0  0  0  0  0  0  0  0  0  0  0  0
    9.9824   -4.9340   -2.8385 H   0  0  0  0  0  0  0  0  0  0  0  0
   10.4299   -6.3701   -1.8804 H   0  0  0  0  0  0  0  0  0  0  0  0
    9.8568   -5.1834    0.9923 H   0  0  0  0  0  0  0  0  0  0  0  0
    9.3496   -6.7838    0.4054 H   0  0  0  0  0  0  0  0  0  0  0  0
    8.1391   -5.6409    1.0465 H   0  0  0  0  0  0  0  0  0  0  0  0
   10.1320   -2.9027    0.0511 H   0  0  0  0  0  0  0  0  0  0  0  0
    9.3176   -0.5717    0.0903 H   0  0  0  0  0  0  0  0  0  0  0  0
    4.4260    0.7932   -2.1504 H   0  0  0  0  0  0  0  0  0  0  0  0
  1  2  1  0
  1 21  1  0
  1 22  1  0
  1 23  1  0
  2  3  2  0
  2 19  1  0
  3  4  1  0
  3 24  1  0
  4  5  2  0
  4 25  1  0
  5  6  1  0
  5 18  1  0
  6  7  1  0
  6  8  1  1
  6  9  1  0
  7 26  1  0
  7 27  1  0
  7 28  1  0
  8 29  1  0
  9 10  2  0
  9 17  1  0
 10 11  1  0
 10 30  1  0
 11 12  2  0
 11 31  1  0
 12 13  1  0
 12 16  1  0
 13 14  1  0
 13 15  1  0
 13 32  1  6
 14 33  1  0
 14 34  1  0
 14 35  1  0
 15 36  1  0
 15 37  1  0
 15 38  1  0
 16 17  2  0
 16 39  1  0
 17 40  1  0
 18 19  2  0
 18 41  1  0
 19 20  1  0
M  END

