
     RDKit          3D

 46 47  0  0  0  0  0  0  0  0999 V2000
    3.2786   -0.0614   -1.4728 C   0  0  0  0  0  0  0  0  0  0  0  0
    3.8646    0.0126   -0.4142 C   0  0  0  0  0  0  0  0  0  0  0  0
    4.5762    0.1650    0.8571 C   0  0  1  0  0  0  0  0  0  0  0  0
    5.9598    0.4004    0.6722 O   0  0  0  0  0  0  0  0  0  0  0  0
    3.9668    1.2979    1.7427 C   0  0  1  0  0  0  0  0  0  0  0  0
    4.4132    2.2699    1.4630 H   0  0  0  0  0  0  0  0  0  0  0  0
    2.5610    1.3362    1.7117 O   0  0  0  0  0  0  0  0  0  0  0  0
    4.4251    0.8355    3.1282 C   0  0  1  0  0  0  0  0  0  0  0  0
    5.4971    1.0853    3.2297 H   0  0  0  0  0  0  0  0  0  0  0  0
    3.6445    1.4373    4.2817 C   0  0  0  0  0  0  0  0  0  0  0  0
    4.1687    1.0172    5.5562 O   0  0  0  0  0  0  0  0  0  0  0  0
    5.4431    1.7004    6.2110 P   0  0  1  0  0  0  0  0  0  0  0  0
    5.7519    3.0653    5.6834 O   0  0  0  0  0  0  0  0  0  0  0  0
    5.2097    1.5081    7.7582 O   0  0  0  0  0  0  0  0  0  0  0  0
    6.6829    0.6704    5.8430 O   0  0  0  0  0  0  0  0  0  0  0  0
    8.0377    0.4760    6.7458 P   0  0  1  0  0  0  0  0  0  0  0  0
    7.7019    0.6729    8.1843 O   0  0  0  0  0  0  0  0  0  0  0  0
    8.5912   -0.9535    6.3189 O   0  0  0  0  0  0  0  0  0  0  0  0
    9.1089    1.4152    6.0515 O   0  0  0  0  0  0  0  0  0  0  0  0
    9.2108    3.0993    5.9047 P   0  0  1  0  0  0  0  0  0  0  0  0
    9.1329    3.7480    7.2258 O   0  0  0  0  0  0  0  0  0  0  0  0
   10.5909    3.2000    5.1017 O   0  0  0  0  0  0  0  0  0  0  0  0
    8.1661    3.4244    4.7717 O   0  0  0  0  0  0  0  0  0  0  0  0
    4.2555   -0.5781    3.1080 O   0  0  0  0  0  0  0  0  0  0  0  0
    4.5181   -1.0874    1.8219 C   0  0  1  0  0  0  0  0  0  0  0  0
    5.5016   -1.5731    1.7529 H   0  0  0  0  0  0  0  0  0  0  0  0
    3.5389   -2.1140    1.5075 N   0  0  0  0  0  0  0  0  0  0  0  0
    2.1894   -1.8971    1.7072 C   0  0  0  0  0  0  0  0  0  0  0  0
    1.2565   -2.8546    1.4804 C   0  0  0  0  0  0  0  0  0  0  0  0
    1.6522   -4.1627    1.0149 C   0  0  0  0  0  0  0  0  0  0  0  0
    0.6240   -5.4192    0.6889 S   0  0  0  0  0  0  0  0  0  0  0  0
    3.0251   -4.2981    0.8492 N   0  0  0  0  0  0  0  0  0  0  0  0
    3.3582   -5.2042    0.5268 H   0  0  0  0  0  0  0  0  0  0  0  0
    4.0206   -3.3608    1.0682 C   0  0  0  0  0  0  0  0  0  0  0  0
    5.1958   -3.5991    0.8932 O   0  0  0  0  0  0  0  0  0  0  0  0
    2.7711   -0.1519   -2.4163 H   0  0  0  0  0  0  0  0  0  0  0  0
    6.0766    1.0902    0.0039 H   0  0  0  0  0  0  0  0  0  0  0  0
    2.2727    1.4603    0.7950 H   0  0  0  0  0  0  0  0  0  0  0  0
    3.6709    2.5351    4.2131 H   0  0  0  0  0  0  0  0  0  0  0  0
    2.6038    1.0949    4.2614 H   0  0  0  0  0  0  0  0  0  0  0  0
    6.0643    1.2744    8.2216 H   0  0  0  0  0  0  0  0  0  0  0  0
    8.2862   -1.6539    6.9167 H   0  0  0  0  0  0  0  0  0  0  0  0
   11.3127    3.4495    5.6984 H   0  0  0  0  0  0  0  0  0  0  0  0
    7.2107    3.4111    5.0915 H   0  0  0  0  0  0  0  0  0  0  0  0
    1.9351   -0.8944    2.0515 H   0  0  0  0  0  0  0  0  0  0  0  0
    0.1987   -2.6581    1.6427 H   0  0  0  0  0  0  0  0  0  0  0  0
  1  2  3  0
  1 36  1  0
  3  2  1  6
  3  4  1  0
  3  5  1  0
  3 25  1  0
  4 37  1  0
  5  6  1  6
  5  7  1  0
  5  8  1  0
  7 38  1  0
  8  9  1  1
  8 10  1  0
  8 24  1  0
 10 11  1  0
 10 39  1  0
 10 40  1  0
 12 11  1  6
 12 13  2  0
 12 14  1  0
 12 15  1  0
 14 41  1  0
 16 15  1  6
 16 17  2  0
 16 18  1  0
 16 19  1  0
 18 42  1  0
 20 19  1  1
 20 21  2  0
 20 22  1  0
 20 23  1  0
 22 43  1  0
 23 44  1  0
 24 25  1  0
 25 26  1  1
 25 27  1  0
 27 28  1  0
 27 34  1  0
 28 29  2  0
 28 45  1  0
 29 30  1  0
 29 46  1  0
 30 31  2  0
 30 32  1  0
 32 33  1  0
 32 34  1  0
 34 35  2  0
M  END

