
     RDKit          3D

 41 42  0  0  0  0  0  0  0  0999 V2000
    6.1541    2.8412   -2.9330 C   0  0  0  0  0  0  0  0  0  0  0  0
    5.7070    1.9402   -2.2526 C   0  0  0  0  0  0  0  0  0  0  0  0
    5.1785    0.8779   -1.4476 C   0  0  0  0  0  0  0  0  0  0  0  0
    4.0633    1.0926   -0.6132 C   0  0  0  0  0  0  0  0  0  0  0  0
    3.5759    0.0385    0.1574 C   0  0  0  0  0  0  0  0  0  0  0  0
    4.1634   -1.2287    0.1263 C   0  0  0  0  0  0  0  0  0  0  0  0
    5.2764   -1.4549   -0.7058 C   0  0  0  0  0  0  0  0  0  0  0  0
    5.9301   -2.6934   -0.8218 N   0  0  0  0  0  0  0  0  0  0  0  0
    5.6806   -3.8644   -0.1160 C   0  0  0  0  0  0  0  0  0  0  0  0
    4.8748   -3.9288    0.8002 O   0  0  0  0  0  0  0  0  0  0  0  0
    6.4102   -4.9697   -0.5314 N   0  0  0  0  0  0  0  0  0  0  0  0
    6.4374   -6.1295    0.3628 C   0  0  0  0  0  0  0  0  0  0  0  0
    6.4617   -7.4368   -0.4344 C   0  0  0  0  0  0  0  0  0  0  0  0
    7.5383   -7.4989   -1.4247 N   0  0  0  0  0  0  0  0  0  0  0  0
    8.8997   -7.7569   -0.9141 C   0  0  1  0  0  0  0  0  0  0  0  0
    8.9318   -9.0344   -0.0643 C   0  0  0  0  0  0  0  0  0  0  0  0
    9.9006   -7.8976   -2.0696 C   0  0  0  0  0  0  0  0  0  0  0  0
    7.3773   -6.3653   -2.3242 C   0  0  0  0  0  0  0  0  0  0  0  0
    7.3751   -4.9894   -1.6254 C   0  0  0  0  0  0  0  0  0  0  0  0
    5.7722   -0.3954   -1.4846 C   0  0  0  0  0  0  0  0  0  0  0  0
    6.5476    3.6394   -3.5335 H   0  0  0  0  0  0  0  0  0  0  0  0
    3.5964    2.0782   -0.5787 H   0  0  0  0  0  0  0  0  0  0  0  0
    2.7122    0.2016    0.8072 H   0  0  0  0  0  0  0  0  0  0  0  0
    3.7850   -2.0434    0.7382 H   0  0  0  0  0  0  0  0  0  0  0  0
    6.7223   -2.6879   -1.4490 H   0  0  0  0  0  0  0  0  0  0  0  0
    5.5479   -6.0743    1.0020 H   0  0  0  0  0  0  0  0  0  0  0  0
    7.3236   -6.0711    1.0266 H   0  0  0  0  0  0  0  0  0  0  0  0
    5.5045   -7.5358   -0.9763 H   0  0  0  0  0  0  0  0  0  0  0  0
    6.5208   -8.2872    0.2570 H   0  0  0  0  0  0  0  0  0  0  0  0
    9.2612   -6.9249   -0.2673 H   0  0  0  0  0  0  0  0  0  0  0  0
    8.5122   -9.8811   -0.6316 H   0  0  0  0  0  0  0  0  0  0  0  0
    8.3713   -8.9390    0.8768 H   0  0  0  0  0  0  0  0  0  0  0  0
    9.9705   -9.2778    0.2056 H   0  0  0  0  0  0  0  0  0  0  0  0
    9.5569   -8.6661   -2.7812 H   0  0  0  0  0  0  0  0  0  0  0  0
   10.8831   -8.2021   -1.6784 H   0  0  0  0  0  0  0  0  0  0  0  0
   10.0554   -6.9603   -2.6238 H   0  0  0  0  0  0  0  0  0  0  0  0
    6.4062   -6.4807   -2.8375 H   0  0  0  0  0  0  0  0  0  0  0  0
    8.1506   -6.3706   -3.1036 H   0  0  0  0  0  0  0  0  0  0  0  0
    7.0976   -4.2448   -2.3859 H   0  0  0  0  0  0  0  0  0  0  0  0
    8.3946   -4.7382   -1.2654 H   0  0  0  0  0  0  0  0  0  0  0  0
    6.6357   -0.5540   -2.1363 H   0  0  0  0  0  0  0  0  0  0  0  0
  1  2  3  0
  1 21  1  0
  2  3  1  0
  3  4  2  0
  3 20  1  0
  4  5  1  0
  4 22  1  0
  5  6  2  0
  5 23  1  0
  6  7  1  0
  6 24  1  0
  7  8  1  0
  7 20  2  0
  8  9  1  0
  8 25  1  0
  9 10  2  0
  9 11  1  0
 11 12  1  0
 11 19  1  0
 12 13  1  0
 12 26  1  0
 12 27  1  0
 13 14  1  0
 13 28  1  0
 13 29  1  0
 14 15  1  0
 14 18  1  0
 15 16  1  0
 15 17  1  0
 15 30  1  1
 16 31  1  0
 16 32  1  0
 16 33  1  0
 17 34  1  0
 17 35  1  0
 17 36  1  0
 18 19  1  0
 18 37  1  0
 18 38  1  0
 19 39  1  0
 19 40  1  0
 20 41  1  0
M  END

