
     RDKit          3D

 46 47  0  0  0  0  0  0  0  0999 V2000
    1.4023    0.2499    0.4227 C   0  0  0  0  0  0  0  0  0  0  0  0
    2.7670   -0.3355    0.0083 C   0  0  1  0  0  0  0  0  0  0  0  0
    3.5565   -0.6751    1.2836 C   0  0  0  0  0  0  0  0  0  0  0  0
    2.5810   -1.6252   -0.8307 C   0  0  0  0  0  0  0  0  0  0  0  0
    1.9978   -1.3778   -2.2292 C   0  0  0  0  0  0  0  0  0  0  0  0
    2.7994   -0.3496   -3.0437 C   0  0  2  0  0  0  0  0  0  0  0  0
    4.1016   -0.9580   -3.4093 N   0  0  0  0  0  0  0  0  0  0  0  0
    4.9912   -0.3203   -4.7019 S   0  0  1  0  0  0  0  0  0  0  0  0
    5.3833   -1.4596   -5.5412 O   0  0  0  0  0  0  0  0  0  0  0  0
    4.2519    0.8190   -5.2662 O   0  0  0  0  0  0  0  0  0  0  0  0
    6.4989    0.2926   -3.8967 C   0  0  0  0  0  0  0  0  0  0  0  0
    7.5908    0.6912   -4.9060 C   0  0  1  0  0  0  0  0  0  0  0  0
    7.2776    1.9828   -5.6940 C   0  0  0  0  0  0  0  0  0  0  0  0
    7.4837    3.2352   -4.8413 C   0  0  0  0  0  0  0  0  0  0  0  0
    8.7806    3.2868   -4.2749 O   0  0  0  0  0  0  0  0  0  0  0  0
    9.0550    2.1812   -3.4414 C   0  0  0  0  0  0  0  0  0  0  0  0
    8.9570    0.8578   -4.2039 C   0  0  0  0  0  0  0  0  0  0  0  0
    2.9899    0.9399   -2.2302 C   0  0  0  0  0  0  0  0  0  0  0  0
    3.5727    0.6858   -0.8346 C   0  0  0  0  0  0  0  0  0  0  0  0
    0.8348   -0.4746    1.0300 H   0  0  0  0  0  0  0  0  0  0  0  0
    0.7720    0.5225   -0.4373 H   0  0  0  0  0  0  0  0  0  0  0  0
    1.5380    1.1593    1.0310 H   0  0  0  0  0  0  0  0  0  0  0  0
    3.0165   -1.4112    1.9022 H   0  0  0  0  0  0  0  0  0  0  0  0
    3.7206    0.2240    1.9004 H   0  0  0  0  0  0  0  0  0  0  0  0
    4.5442   -1.1009    1.0413 H   0  0  0  0  0  0  0  0  0  0  0  0
    1.9387   -2.3356   -0.2819 H   0  0  0  0  0  0  0  0  0  0  0  0
    3.5646   -2.1154   -0.9344 H   0  0  0  0  0  0  0  0  0  0  0  0
    0.9635   -1.0048   -2.1517 H   0  0  0  0  0  0  0  0  0  0  0  0
    1.9298   -2.3276   -2.7890 H   0  0  0  0  0  0  0  0  0  0  0  0
    2.2398   -0.1048   -3.9620 H   0  0  0  0  0  0  0  0  0  0  0  0
    4.0484   -1.9637   -3.5728 H   0  0  0  0  0  0  0  0  0  0  0  0
    6.8279   -0.5521   -3.2738 H   0  0  0  0  0  0  0  0  0  0  0  0
    6.1783    1.1087   -3.2333 H   0  0  0  0  0  0  0  0  0  0  0  0
    7.6679   -0.1480   -5.6158 H   0  0  0  0  0  0  0  0  0  0  0  0
    6.2517    1.9629   -6.0906 H   0  0  0  0  0  0  0  0  0  0  0  0
    7.9639    2.0347   -6.5559 H   0  0  0  0  0  0  0  0  0  0  0  0
    6.7178    3.2915   -4.0380 H   0  0  0  0  0  0  0  0  0  0  0  0
    7.3732    4.1429   -5.4536 H   0  0  0  0  0  0  0  0  0  0  0  0
    8.3661    2.1795   -2.5682 H   0  0  0  0  0  0  0  0  0  0  0  0
   10.0730    2.3269   -3.0478 H   0  0  0  0  0  0  0  0  0  0  0  0
    9.1604    0.0126   -3.5240 H   0  0  0  0  0  0  0  0  0  0  0  0
    9.7451    0.8465   -4.9754 H   0  0  0  0  0  0  0  0  0  0  0  0
    2.0051    1.4304   -2.1519 H   0  0  0  0  0  0  0  0  0  0  0  0
    3.6213    1.6400   -2.7988 H   0  0  0  0  0  0  0  0  0  0  0  0
    3.6501    1.6393   -0.2839 H   0  0  0  0  0  0  0  0  0  0  0  0
    4.6032    0.3057   -0.9428 H   0  0  0  0  0  0  0  0  0  0  0  0
  2  1  1  1
  1 20  1  0
  1 21  1  0
  1 22  1  0
  2  3  1  0
  2  4  1  0
  2 19  1  0
  3 23  1  0
  3 24  1  0
  3 25  1  0
  4  5  1  0
  4 26  1  0
  4 27  1  0
  5  6  1  0
  5 28  1  0
  5 29  1  0
  6  7  1  0
  6 18  1  0
  6 30  1  6
  8  7  1  1
  7 31  1  0
  8  9  2  0
  8 10  2  0
  8 11  1  0
 11 12  1  0
 11 32  1  0
 11 33  1  0
 12 13  1  0
 12 17  1  0
 12 34  1  6
 13 14  1  0
 13 35  1  0
 13 36  1  0
 14 15  1  0
 14 37  1  0
 14 38  1  0
 15 16  1  0
 16 17  1  0
 16 39  1  0
 16 40  1  0
 17 41  1  0
 17 42  1  0
 18 19  1  0
 18 43  1  0
 18 44  1  0
 19 45  1  0
 19 46  1  0
M  END

