
     RDKit          3D

 57 60  0  0  0  0  0  0  0  0999 V2000
    3.1374   -2.2111    1.0235 O   0  0  0  0  0  0  0  0  0  0  0  0
    2.4954   -1.1650    0.8820 C   0  0  0  0  0  0  0  0  0  0  0  0
    3.1081    0.0563    0.6203 O   0  0  0  0  0  0  0  0  0  0  0  0
    4.5018    0.0613    0.7520 C   0  0  0  0  0  0  0  0  0  0  0  0
    4.9165    0.2616    2.2219 C   0  0  0  0  0  0  0  0  0  0  0  0
    4.0856    0.4643    3.0873 O   0  0  0  0  0  0  0  0  0  0  0  0
    6.2671    0.2134    2.4934 N   0  0  0  0  0  0  0  0  0  0  0  0
    7.3236   -0.0970    1.5394 C   0  0  0  0  0  0  0  0  0  0  0  0
    8.4798    0.9008    1.6638 C   0  0  0  0  0  0  0  0  0  0  0  0
    8.9422    0.9800    3.0460 N   0  0  0  0  0  0  0  0  0  0  0  0
   10.2965    0.8979    3.2792 C   0  0  0  0  0  0  0  0  0  0  0  0
   11.1048    0.8064    2.3612 O   0  0  0  0  0  0  0  0  0  0  0  0
   10.8491    0.8977    4.6618 C   0  0  0  0  0  0  0  0  0  0  0  0
   12.1767    0.9833    5.0028 C   0  0  0  0  0  0  0  0  0  0  0  0
   12.2415    0.8840    6.4255 C   0  0  0  0  0  0  0  0  0  0  0  0
   10.9502    0.7372    6.8510 C   0  0  0  0  0  0  0  0  0  0  0  0
   10.1009    0.7437    5.7965 O   0  0  0  0  0  0  0  0  0  0  0  0
    7.8761    1.3279    3.9845 C   0  0  0  0  0  0  0  0  0  0  0  0
    6.7212    0.3308    3.8732 C   0  0  0  0  0  0  0  0  0  0  0  0
    1.0553   -1.0474    0.9472 C   0  0  0  0  0  0  0  0  0  0  0  0
    0.2660   -2.2220    1.1658 C   0  0  0  0  0  0  0  0  0  0  0  0
   -1.1411   -2.1866    1.2359 C   0  0  0  0  0  0  0  0  0  0  0  0
   -1.8575   -0.9890    1.1105 C   0  0  0  0  0  0  0  0  0  0  0  0
   -1.0822    0.1886    0.9156 C   0  0  0  0  0  0  0  0  0  0  0  0
   -1.6175    1.4102    0.7898 O   0  0  0  0  0  0  0  0  0  0  0  0
   -3.0370    1.6300    0.8948 C   0  0  0  0  0  0  0  0  0  0  0  0
   -3.3124    3.1017    0.7729 C   0  0  0  0  0  0  0  0  0  0  0  0
   -3.7626    3.6487   -0.4372 C   0  0  0  0  0  0  0  0  0  0  0  0
   -3.9987    5.0192   -0.5616 C   0  0  0  0  0  0  0  0  0  0  0  0
   -3.7710    5.8405    0.5405 C   0  0  0  0  0  0  0  0  0  0  0  0
   -3.9949    7.1546    0.4311 F   0  0  0  0  0  0  0  0  0  0  0  0
   -3.3195    5.3285    1.7567 C   0  0  0  0  0  0  0  0  0  0  0  0
   -3.0936    3.9566    1.8651 C   0  0  0  0  0  0  0  0  0  0  0  0
    0.3428    0.1726    0.8387 C   0  0  0  0  0  0  0  0  0  0  0  0
    4.8811    0.8977    0.1421 H   0  0  0  0  0  0  0  0  0  0  0  0
    4.9247   -0.8836    0.3751 H   0  0  0  0  0  0  0  0  0  0  0  0
    6.9383   -0.0716    0.5134 H   0  0  0  0  0  0  0  0  0  0  0  0
    7.7081   -1.1192    1.7227 H   0  0  0  0  0  0  0  0  0  0  0  0
    8.1369    1.8997    1.3316 H   0  0  0  0  0  0  0  0  0  0  0  0
    9.3286    0.6039    1.0365 H   0  0  0  0  0  0  0  0  0  0  0  0
   12.9923    1.0954    4.2937 H   0  0  0  0  0  0  0  0  0  0  0  0
   13.1297    0.9132    7.0531 H   0  0  0  0  0  0  0  0  0  0  0  0
   10.4944    0.6190    7.8309 H   0  0  0  0  0  0  0  0  0  0  0  0
    7.5024    2.3405    3.7378 H   0  0  0  0  0  0  0  0  0  0  0  0
    8.2543    1.3452    5.0085 H   0  0  0  0  0  0  0  0  0  0  0  0
    5.8638    0.6488    4.4796 H   0  0  0  0  0  0  0  0  0  0  0  0
    7.0602   -0.6568    4.2415 H   0  0  0  0  0  0  0  0  0  0  0  0
    0.8017   -3.1664    1.2837 H   0  0  0  0  0  0  0  0  0  0  0  0
   -1.6822   -3.1229    1.3929 H   0  0  0  0  0  0  0  0  0  0  0  0
   -2.9443   -0.9732    1.1512 H   0  0  0  0  0  0  0  0  0  0  0  0
   -3.3742    1.2359    1.8676 H   0  0  0  0  0  0  0  0  0  0  0  0
   -3.5417    1.0611    0.0974 H   0  0  0  0  0  0  0  0  0  0  0  0
   -3.9331    2.9966   -1.2981 H   0  0  0  0  0  0  0  0  0  0  0  0
   -4.3524    5.4594   -1.4956 H   0  0  0  0  0  0  0  0  0  0  0  0
   -3.1548    6.0064    2.5961 H   0  0  0  0  0  0  0  0  0  0  0  0
   -2.7391    3.5459    2.8142 H   0  0  0  0  0  0  0  0  0  0  0  0
    0.8679    1.1192    0.7178 H   0  0  0  0  0  0  0  0  0  0  0  0
  1  2  2  0
  2  3  1  0
  2 20  1  0
  3  4  1  0
  4  5  1  0
  4 35  1  0
  4 36  1  0
  5  6  2  0
  5  7  1  0
  7  8  1  0
  7 19  1  0
  8  9  1  0
  8 37  1  0
  8 38  1  0
  9 10  1  0
  9 39  1  0
  9 40  1  0
 10 11  1  0
 10 18  1  0
 11 12  2  0
 11 13  1  0
 13 14  2  0
 13 17  1  0
 14 15  1  0
 14 41  1  0
 15 16  2  0
 15 42  1  0
 16 17  1  0
 16 43  1  0
 18 19  1  0
 18 44  1  0
 18 45  1  0
 19 46  1  0
 19 47  1  0
 20 21  2  0
 20 34  1  0
 21 22  1  0
 21 48  1  0
 22 23  2  0
 22 49  1  0
 23 24  1  0
 23 50  1  0
 24 25  1  0
 24 34  2  0
 25 26  1  0
 26 27  1  0
 26 51  1  0
 26 52  1  0
 27 28  2  0
 27 33  1  0
 28 29  1  0
 28 53  1  0
 29 30  2  0
 29 54  1  0
 30 31  1  0
 30 32  1  0
 32 33  2  0
 32 55  1  0
 33 56  1  0
 34 57  1  0
M  END

