
     RDKit          3D

 36 36  0  0  0  0  0  0  0  0999 V2000
    2.7559   -0.6967    1.6347 C   0  0  0  0  0  0  0  0  0  0  0  0
    3.4890   -2.0408    1.7405 C   0  0  1  0  0  0  0  0  0  0  0  0
    2.4891   -3.2040    1.7585 C   0  0  0  0  0  0  0  0  0  0  0  0
    4.5260   -2.2437    0.6162 C   0  0  0  0  0  0  0  0  0  0  0  0
    5.6742   -1.2290    0.5521 C   0  0  0  0  0  0  0  0  0  0  0  0
    6.4943   -1.2251    1.7542 N   0  0  0  0  0  0  0  0  0  0  0  0
    7.8336   -1.4475    1.7472 C   0  0  0  0  0  0  0  0  0  0  0  0
    8.5100   -1.6188    0.7486 O   0  0  0  0  0  0  0  0  0  0  0  0
    8.5220   -1.4634    3.1294 C   0  0  0  0  0  0  0  0  0  0  0  0
    7.6375   -1.4112    4.2757 N   0  0  0  0  0  0  0  0  0  0  0  0
    7.2681   -0.2954    4.9819 C   0  0  0  0  0  0  0  0  0  0  0  0
    6.2974   -0.5453    5.8293 N   0  0  0  0  0  0  0  0  0  0  0  0
    6.0008   -1.8816    5.6782 C   0  0  0  0  0  0  0  0  0  0  0  0
    4.8506   -2.5028    6.4094 C   0  0  0  0  0  0  0  0  0  0  0  0
    3.5858   -2.0206    5.8407 N   0  0  0  0  0  0  0  0  0  0  0  0
    6.8229   -2.4363    4.7210 C   0  0  0  0  0  0  0  0  0  0  0  0
    2.0244   -0.5870    2.4510 H   0  0  0  0  0  0  0  0  0  0  0  0
    2.2070   -0.6171    0.6799 H   0  0  0  0  0  0  0  0  0  0  0  0
    3.4415    0.1637    1.6960 H   0  0  0  0  0  0  0  0  0  0  0  0
    4.0070   -2.0617    2.7178 H   0  0  0  0  0  0  0  0  0  0  0  0
    1.8948   -3.2342    0.8285 H   0  0  0  0  0  0  0  0  0  0  0  0
    1.7901   -3.1096    2.6044 H   0  0  0  0  0  0  0  0  0  0  0  0
    3.0026   -4.1744    1.8573 H   0  0  0  0  0  0  0  0  0  0  0  0
    4.0035   -2.2222   -0.3580 H   0  0  0  0  0  0  0  0  0  0  0  0
    4.9620   -3.2538    0.7094 H   0  0  0  0  0  0  0  0  0  0  0  0
    5.2824   -0.2127    0.3685 H   0  0  0  0  0  0  0  0  0  0  0  0
    6.3501   -1.4665   -0.2813 H   0  0  0  0  0  0  0  0  0  0  0  0
    6.0274   -1.1184    2.6473 H   0  0  0  0  0  0  0  0  0  0  0  0
    9.2101   -0.6055    3.1646 H   0  0  0  0  0  0  0  0  0  0  0  0
    9.1430   -2.3709    3.1652 H   0  0  0  0  0  0  0  0  0  0  0  0
    7.7580    0.6673    4.8271 H   0  0  0  0  0  0  0  0  0  0  0  0
    4.9653   -2.2845    7.4916 H   0  0  0  0  0  0  0  0  0  0  0  0
    4.8963   -3.5983    6.2960 H   0  0  0  0  0  0  0  0  0  0  0  0
    3.5658   -1.0020    5.9191 H   0  0  0  0  0  0  0  0  0  0  0  0
    2.7998   -2.3626    6.3957 H   0  0  0  0  0  0  0  0  0  0  0  0
    6.8879   -3.4421    4.3127 H   0  0  0  0  0  0  0  0  0  0  0  0
  1  2  1  0
  1 17  1  0
  1 18  1  0
  1 19  1  0
  2  3  1  0
  2  4  1  0
  2 20  1  1
  3 21  1  0
  3 22  1  0
  3 23  1  0
  4  5  1  0
  4 24  1  0
  4 25  1  0
  5  6  1  0
  5 26  1  0
  5 27  1  0
  6  7  1  0
  6 28  1  0
  7  8  2  0
  7  9  1  0
  9 10  1  0
  9 29  1  0
  9 30  1  0
 10 11  1  0
 10 16  1  0
 11 12  2  0
 11 31  1  0
 12 13  1  0
 13 14  1  0
 13 16  2  0
 14 15  1  0
 14 32  1  0
 14 33  1  0
 15 34  1  0
 15 35  1  0
 16 36  1  0
M  END

