
     RDKit          3D

 43 47  0  0  0  0  0  0  0  0999 V2000
    1.8267   -1.3423    0.2578 C   0  0  0  0  0  0  0  0  0  0  0  0
    2.4372   -0.1804    0.0140 C   0  0  0  0  0  0  0  0  0  0  0  0
    3.2166    0.1111   -1.2423 C   0  0  0  0  0  0  0  0  0  0  0  0
    4.6644    0.2594   -0.9889 N   0  0  0  0  0  0  0  0  0  0  0  0
    5.1677    1.5016   -0.6128 C   0  0  0  0  0  0  0  0  0  0  0  0
    4.4399    2.4728   -0.5042 O   0  0  0  0  0  0  0  0  0  0  0  0
    6.6356    1.5512   -0.3624 C   0  0  0  0  0  0  0  0  0  0  0  0
    7.2049    2.7816   -0.0029 C   0  0  0  0  0  0  0  0  0  0  0  0
    8.5705    2.8867    0.2407 C   0  0  0  0  0  0  0  0  0  0  0  0
    9.3803    1.7499    0.1247 C   0  0  0  0  0  0  0  0  0  0  0  0
    8.8371    0.5155   -0.2293 C   0  0  0  0  0  0  0  0  0  0  0  0
    7.4604    0.4104   -0.4737 C   0  0  0  0  0  0  0  0  0  0  0  0
    6.8246   -0.7919   -0.8355 N   0  0  0  0  0  0  0  0  0  0  0  0
    7.2407   -2.1045   -1.0553 C   0  0  0  0  0  0  0  0  0  0  0  0
    8.8912   -2.6986   -0.8821 S   0  0  0  0  0  0  0  0  0  0  0  0
    8.6029   -4.4134   -1.4293 C   0  0  0  0  0  0  0  0  0  0  0  0
    8.3531   -4.5665   -2.8961 C   0  0  0  0  0  0  0  0  0  0  0  0
    8.7878   -3.8595   -3.8908 N   0  0  0  0  0  0  0  0  0  0  0  0
    8.2598   -4.5263   -4.9747 C   0  0  0  0  0  0  0  0  0  0  0  0
    8.4582   -4.1110   -6.3518 C   0  0  0  0  0  0  0  0  0  0  0  0
    8.0078   -4.6246   -7.5442 C   0  0  0  0  0  0  0  0  0  0  0  0
    8.5398   -3.7783   -8.5644 C   0  0  0  0  0  0  0  0  0  0  0  0
    9.2695   -2.8193   -7.9144 C   0  0  0  0  0  0  0  0  0  0  0  0
    9.2258   -3.0126   -6.5778 O   0  0  0  0  0  0  0  0  0  0  0  0
    7.5499   -5.5896   -4.6595 N   0  0  0  0  0  0  0  0  0  0  0  0
    7.6112   -5.6148   -3.2755 O   0  0  0  0  0  0  0  0  0  0  0  0
    6.2239   -2.8441   -1.4035 N   0  0  0  0  0  0  0  0  0  0  0  0
    5.0930   -2.0617   -1.4291 N   0  0  0  0  0  0  0  0  0  0  0  0
    5.4630   -0.8575   -1.0899 C   0  0  0  0  0  0  0  0  0  0  0  0
    1.2616   -1.5064    1.1798 H   0  0  0  0  0  0  0  0  0  0  0  0
    1.8751   -2.1729   -0.4536 H   0  0  0  0  0  0  0  0  0  0  0  0
    2.3907    0.6362    0.7437 H   0  0  0  0  0  0  0  0  0  0  0  0
    2.8887    1.0638   -1.6808 H   0  0  0  0  0  0  0  0  0  0  0  0
    3.0977   -0.6971   -1.9746 H   0  0  0  0  0  0  0  0  0  0  0  0
    6.5366    3.6409    0.0752 H   0  0  0  0  0  0  0  0  0  0  0  0
    9.0080    3.8477    0.5192 H   0  0  0  0  0  0  0  0  0  0  0  0
   10.4545    1.8210    0.3113 H   0  0  0  0  0  0  0  0  0  0  0  0
    9.4888   -0.3519   -0.3193 H   0  0  0  0  0  0  0  0  0  0  0  0
    7.7636   -4.8450   -0.8691 H   0  0  0  0  0  0  0  0  0  0  0  0
    9.5282   -4.9415   -1.1472 H   0  0  0  0  0  0  0  0  0  0  0  0
    7.3733   -5.4999   -7.6603 H   0  0  0  0  0  0  0  0  0  0  0  0
    8.3984   -3.8690   -9.6391 H   0  0  0  0  0  0  0  0  0  0  0  0
    9.8525   -1.9675   -8.2548 H   0  0  0  0  0  0  0  0  0  0  0  0
  1  2  2  0
  1 30  1  0
  1 31  1  0
  2  3  1  0
  2 32  1  0
  3  4  1  0
  3 33  1  0
  3 34  1  0
  4  5  1  0
  4 29  1  0
  5  6  2  0
  5  7  1  0
  7  8  2  0
  7 12  1  0
  8  9  1  0
  8 35  1  0
  9 10  2  0
  9 36  1  0
 10 11  1  0
 10 37  1  0
 11 12  2  0
 11 38  1  0
 12 13  1  0
 13 14  1  0
 13 29  1  0
 14 15  1  0
 14 27  2  0
 15 16  1  0
 16 17  1  0
 16 39  1  0
 16 40  1  0
 17 18  2  0
 17 26  1  0
 18 19  1  0
 19 20  1  0
 19 25  2  0
 20 21  2  0
 20 24  1  0
 21 22  1  0
 21 41  1  0
 22 23  2  0
 22 42  1  0
 23 24  1  0
 23 43  1  0
 25 26  1  0
 27 28  1  0
 28 29  2  0
M  END

