
     RDKit          3D

 57 60  0  0  0  0  0  0  0  0999 V2000
    1.3958    1.9009   -5.6799 C   0  0  0  0  0  0  0  0  0  0  0  0
    2.5860    1.6899   -4.7760 C   0  0  0  0  0  0  0  0  0  0  0  0
    2.4545    1.1259   -3.4990 C   0  0  0  0  0  0  0  0  0  0  0  0
    3.5477    0.9316   -2.6537 C   0  0  0  0  0  0  0  0  0  0  0  0
    4.8389    1.3058   -3.0725 C   0  0  0  0  0  0  0  0  0  0  0  0
    5.9804    1.1188   -2.2549 N   0  0  0  0  0  0  0  0  0  0  0  0
    7.3335    1.3467   -2.7641 C   0  0  0  0  0  0  0  0  0  0  0  0
    8.2446    0.6946   -1.7004 C   0  0  1  0  0  0  0  0  0  0  0  0
    8.3420   -0.3699   -1.9595 H   0  0  0  0  0  0  0  0  0  0  0  0
    9.5840    1.2332   -1.6078 N   0  0  0  0  0  0  0  0  0  0  0  0
   10.5044    0.9318   -2.6020 C   0  0  0  0  0  0  0  0  0  0  0  0
   10.2025    0.2119   -3.5461 O   0  0  0  0  0  0  0  0  0  0  0  0
   11.7690    1.4659   -2.4455 N   0  0  0  0  0  0  0  0  0  0  0  0
   12.2530    2.1801   -1.2698 C   0  0  0  0  0  0  0  0  0  0  0  0
   13.6434    1.6559   -0.8548 C   0  0  0  0  0  0  0  0  0  0  0  0
   14.6089    1.6128   -1.9450 N   0  0  0  0  0  0  0  0  0  0  0  0
   15.2426    2.8840   -2.2740 C   0  0  0  0  0  0  0  0  0  0  0  0
   16.2015    3.3720   -1.2002 C   0  0  0  0  0  0  0  0  0  0  0  0
   17.0631    2.4744   -0.5496 C   0  0  0  0  0  0  0  0  0  0  0  0
   17.9815    2.9298    0.3987 C   0  0  0  0  0  0  0  0  0  0  0  0
   18.0545    4.2917    0.7128 C   0  0  0  0  0  0  0  0  0  0  0  0
   17.1987    5.1929    0.0745 C   0  0  0  0  0  0  0  0  0  0  0  0
   16.2771    4.7329   -0.8722 C   0  0  0  0  0  0  0  0  0  0  0  0
   14.0704    0.8570   -3.0723 C   0  0  0  0  0  0  0  0  0  0  0  0
   12.7116    1.3744   -3.5586 C   0  0  0  0  0  0  0  0  0  0  0  0
    7.4283    0.8397   -0.4189 C   0  0  0  0  0  0  0  0  0  0  0  0
    5.9781    0.8245   -0.8969 C   0  0  0  0  0  0  0  0  0  0  0  0
    5.0107    0.6133   -0.1960 O   0  0  0  0  0  0  0  0  0  0  0  0
    4.9841    1.8767   -4.3523 C   0  0  0  0  0  0  0  0  0  0  0  0
    3.8770    2.0596   -5.1802 C   0  0  0  0  0  0  0  0  0  0  0  0
    0.4788    1.4770   -5.2445 H   0  0  0  0  0  0  0  0  0  0  0  0
    1.5488    1.4307   -6.6657 H   0  0  0  0  0  0  0  0  0  0  0  0
    1.2128    2.9740   -5.8618 H   0  0  0  0  0  0  0  0  0  0  0  0
    1.4640    0.8230   -3.1468 H   0  0  0  0  0  0  0  0  0  0  0  0
    3.4108    0.4997   -1.6660 H   0  0  0  0  0  0  0  0  0  0  0  0
    7.5509    2.4288   -2.8539 H   0  0  0  0  0  0  0  0  0  0  0  0
    7.4812    0.8882   -3.7507 H   0  0  0  0  0  0  0  0  0  0  0  0
    9.6959    2.0915   -1.0816 H   0  0  0  0  0  0  0  0  0  0  0  0
   11.5658    2.0213   -0.4280 H   0  0  0  0  0  0  0  0  0  0  0  0
   12.2958    3.2705   -1.4668 H   0  0  0  0  0  0  0  0  0  0  0  0
   13.5171    0.6300   -0.4651 H   0  0  0  0  0  0  0  0  0  0  0  0
   14.0421    2.2725   -0.0345 H   0  0  0  0  0  0  0  0  0  0  0  0
   14.5256    3.7022   -2.5029 H   0  0  0  0  0  0  0  0  0  0  0  0
   15.8143    2.7246   -3.2057 H   0  0  0  0  0  0  0  0  0  0  0  0
   16.9941    1.4115   -0.7925 H   0  0  0  0  0  0  0  0  0  0  0  0
   18.6461    2.2184    0.8964 H   0  0  0  0  0  0  0  0  0  0  0  0
   18.7733    4.6475    1.4554 H   0  0  0  0  0  0  0  0  0  0  0  0
   17.2433    6.2579    0.3171 H   0  0  0  0  0  0  0  0  0  0  0  0
   15.6067    5.4437   -1.3653 H   0  0  0  0  0  0  0  0  0  0  0  0
   13.9520   -0.1948   -2.7557 H   0  0  0  0  0  0  0  0  0  0  0  0
   14.7961    0.8714   -3.9012 H   0  0  0  0  0  0  0  0  0  0  0  0
   12.2759    0.7009   -4.3071 H   0  0  0  0  0  0  0  0  0  0  0  0
   12.8313    2.3723   -4.0263 H   0  0  0  0  0  0  0  0  0  0  0  0
    7.6079    1.8161    0.0693 H   0  0  0  0  0  0  0  0  0  0  0  0
    7.5972    0.0580    0.3340 H   0  0  0  0  0  0  0  0  0  0  0  0
    5.9643    2.1866   -4.7145 H   0  0  0  0  0  0  0  0  0  0  0  0
    4.0275    2.5043   -6.1687 H   0  0  0  0  0  0  0  0  0  0  0  0
  1  2  1  0
  1 31  1  0
  1 32  1  0
  1 33  1  0
  2  3  2  0
  2 30  1  0
  3  4  1  0
  3 34  1  0
  4  5  2  0
  4 35  1  0
  5  6  1  0
  5 29  1  0
  6  7  1  0
  6 27  1  0
  7  8  1  0
  7 36  1  0
  7 37  1  0
  8  9  1  6
  8 10  1  0
  8 26  1  0
 10 11  1  0
 10 38  1  0
 11 12  2  0
 11 13  1  0
 13 14  1  0
 13 25  1  0
 14 15  1  0
 14 39  1  0
 14 40  1  0
 15 16  1  0
 15 41  1  0
 15 42  1  0
 16 17  1  0
 16 24  1  0
 17 18  1  0
 17 43  1  0
 17 44  1  0
 18 19  2  0
 18 23  1  0
 19 20  1  0
 19 45  1  0
 20 21  2  0
 20 46  1  0
 21 22  1  0
 21 47  1  0
 22 23  2  0
 22 48  1  0
 23 49  1  0
 24 25  1  0
 24 50  1  0
 24 51  1  0
 25 52  1  0
 25 53  1  0
 26 27  1  0
 26 54  1  0
 26 55  1  0
 27 28  2  0
 29 30  2  0
 29 56  1  0
 30 57  1  0
M  END

