
     RDKit          3D

 43 43  0  0  0  0  0  0  0  0999 V2000
   -0.1166    8.1850    1.2088 C   0  0  0  0  0  0  0  0  0  0  0  0
    0.3707    7.0776    2.1475 C   0  0  0  0  0  0  0  0  0  0  0  0
    2.1683    6.7617    2.0513 P   0  0  1  0  0  0  0  0  0  0  0  0
    3.0324    7.9723    2.2276 O   0  0  0  0  0  0  0  0  0  0  0  0
    2.3209    5.6331    3.2399 O   0  0  0  0  0  0  0  0  0  0  0  0
    2.5992    5.8043    0.5261 C   0  0  1  0  0  0  0  0  0  0  0  0
    1.6454    4.6454    0.2182 C   0  0  0  0  0  0  0  0  0  0  0  0
    2.8342    6.7428   -0.6580 C   0  0  0  0  0  0  0  0  0  0  0  0
    3.4362    5.9872   -1.6950 O   0  0  0  0  0  0  0  0  0  0  0  0
    3.7488    6.5961   -2.8724 C   0  0  0  0  0  0  0  0  0  0  0  0
    3.5374    7.9560   -3.1446 C   0  0  0  0  0  0  0  0  0  0  0  0
    3.8939    8.4754   -4.3941 C   0  0  0  0  0  0  0  0  0  0  0  0
    4.4658    7.6790   -5.3954 C   0  0  0  0  0  0  0  0  0  0  0  0
    4.8609    8.2742   -6.7283 C   0  0  0  0  0  0  0  0  0  0  0  0
    6.1605    9.1094   -6.7179 C   0  0  1  0  0  0  0  0  0  0  0  0
    7.3959    8.2753   -6.3526 C   0  0  0  0  0  0  0  0  0  0  0  0
    6.2687    9.8020   -8.0051 N   0  0  0  0  0  0  0  0  0  0  0  0
    4.6679    6.3191   -5.0992 C   0  0  0  0  0  0  0  0  0  0  0  0
    4.3178    5.7805   -3.8637 C   0  0  0  0  0  0  0  0  0  0  0  0
   -1.1633    8.4461    1.4283 H   0  0  0  0  0  0  0  0  0  0  0  0
   -0.0702    7.8830    0.1504 H   0  0  0  0  0  0  0  0  0  0  0  0
    0.4962    9.0912    1.3299 H   0  0  0  0  0  0  0  0  0  0  0  0
   -0.1742    6.1316    1.9980 H   0  0  0  0  0  0  0  0  0  0  0  0
    0.2170    7.3654    3.2011 H   0  0  0  0  0  0  0  0  0  0  0  0
    3.1774    5.7364    3.6820 H   0  0  0  0  0  0  0  0  0  0  0  0
    3.5881    5.3886    0.7942 H   0  0  0  0  0  0  0  0  0  0  0  0
    0.6488    5.0086   -0.0824 H   0  0  0  0  0  0  0  0  0  0  0  0
    1.5246    3.9889    1.0930 H   0  0  0  0  0  0  0  0  0  0  0  0
    2.0429    4.0459   -0.6136 H   0  0  0  0  0  0  0  0  0  0  0  0
    3.4883    7.5749   -0.3458 H   0  0  0  0  0  0  0  0  0  0  0  0
    1.8797    7.1757   -1.0140 H   0  0  0  0  0  0  0  0  0  0  0  0
    3.0989    8.6181   -2.3980 H   0  0  0  0  0  0  0  0  0  0  0  0
    3.7127    9.5366   -4.5903 H   0  0  0  0  0  0  0  0  0  0  0  0
    4.0629    8.9368   -7.0999 H   0  0  0  0  0  0  0  0  0  0  0  0
    4.9702    7.4670   -7.4750 H   0  0  0  0  0  0  0  0  0  0  0  0
    6.0378    9.8934   -5.9479 H   0  0  0  0  0  0  0  0  0  0  0  0
    7.5593    7.4762   -7.0976 H   0  0  0  0  0  0  0  0  0  0  0  0
    7.2975    7.7995   -5.3640 H   0  0  0  0  0  0  0  0  0  0  0  0
    8.3001    8.9062   -6.3343 H   0  0  0  0  0  0  0  0  0  0  0  0
    6.4164    9.1184   -8.7515 H   0  0  0  0  0  0  0  0  0  0  0  0
    7.0963   10.3998   -8.0126 H   0  0  0  0  0  0  0  0  0  0  0  0
    5.1062    5.6638   -5.8577 H   0  0  0  0  0  0  0  0  0  0  0  0
    4.4742    4.7228   -3.6413 H   0  0  0  0  0  0  0  0  0  0  0  0
  1  2  1  0
  1 20  1  0
  1 21  1  0
  1 22  1  0
  2  3  1  0
  2 23  1  0
  2 24  1  0
  3  4  2  0
  3  5  1  1
  3  6  1  0
  5 25  1  0
  6  7  1  0
  6  8  1  0
  6 26  1  1
  7 27  1  0
  7 28  1  0
  7 29  1  0
  8  9  1  0
  8 30  1  0
  8 31  1  0
  9 10  1  0
 10 11  2  0
 10 19  1  0
 11 12  1  0
 11 32  1  0
 12 13  2  0
 12 33  1  0
 13 14  1  0
 13 18  1  0
 14 15  1  0
 14 34  1  0
 14 35  1  0
 15 16  1  0
 15 17  1  0
 15 36  1  1
 16 37  1  0
 16 38  1  0
 16 39  1  0
 17 40  1  0
 17 41  1  0
 18 19  2  0
 18 42  1  0
 19 43  1  0
M  END

