
     RDKit          3D

 29 30  0  0  0  0  0  0  0  0999 V2000
    0.7341    1.3599   -0.7101 O   0  0  0  0  0  0  0  0  0  0  0  0
    1.8511    0.8784   -0.5774 C   0  0  0  0  0  0  0  0  0  0  0  0
    2.4841    1.3178    0.8152 N   0  0  0  0  0  0  0  0  0  0  0  0
    2.2177    0.9819    2.0602 C   0  0  0  0  0  0  0  0  0  0  0  0
    1.5720   -0.2603    2.4681 C   0  0  0  0  0  0  0  0  0  0  0  0
    1.1596   -1.4591    1.3113 Cl  0  0  0  0  0  0  0  0  0  0  0  0
    1.2927   -0.5189    3.7981 C   0  0  0  0  0  0  0  0  0  0  0  0
    1.6475    0.4041    4.7959 C   0  0  0  0  0  0  0  0  0  0  0  0
    1.2572    0.0262    6.5903 Br  0  0  0  0  0  0  0  0  0  0  0  0
    2.3016    1.6094    4.4698 C   0  0  0  0  0  0  0  0  0  0  0  0
    2.5789    1.8864    3.1512 C   0  0  0  0  0  0  0  0  0  0  0  0
    3.3781    3.3735    2.7567 Cl  0  0  0  0  0  0  0  0  0  0  0  0
    2.7240    0.1579   -1.4079 C   0  0  0  0  0  0  0  0  0  0  0  0
    2.2765   -0.1623   -2.7399 C   0  0  0  0  0  0  0  0  0  0  0  0
    3.0767   -0.8749   -3.6043 C   0  0  0  0  0  0  0  0  0  0  0  0
    4.3662   -1.3382   -3.2267 C   0  0  0  0  0  0  0  0  0  0  0  0
    5.2337   -2.0572   -4.1787 C   0  0  0  0  0  0  0  0  0  0  0  0
    6.3330   -0.9144   -5.2053 Cl  0  0  0  0  0  0  0  0  0  0  0  0
    4.8154   -1.0147   -1.9206 C   0  0  0  0  0  0  0  0  0  0  0  0
    4.0350   -0.3008   -1.0353 C   0  0  0  0  0  0  0  0  0  0  0  0
    2.9196    2.2388    0.7373 H   0  0  0  0  0  0  0  0  0  0  0  0
    0.8030   -1.4557    4.0616 H   0  0  0  0  0  0  0  0  0  0  0  0
    2.5822    2.3191    5.2471 H   0  0  0  0  0  0  0  0  0  0  0  0
    1.2865    0.1773   -3.0485 H   0  0  0  0  0  0  0  0  0  0  0  0
    2.7113   -1.0918   -4.6128 H   0  0  0  0  0  0  0  0  0  0  0  0
    4.6691   -2.6144   -4.9359 H   0  0  0  0  0  0  0  0  0  0  0  0
    5.9519   -2.7235   -3.6857 H   0  0  0  0  0  0  0  0  0  0  0  0
    5.8125   -1.3402   -1.6087 H   0  0  0  0  0  0  0  0  0  0  0  0
    4.4298   -0.0860   -0.0409 H   0  0  0  0  0  0  0  0  0  0  0  0
  1  2  2  0
  2  3  1  0
  2 13  1  0
  3  4  1  0
  3 21  1  0
  4  5  2  0
  4 11  1  0
  5  6  1  0
  5  7  1  0
  7  8  2  0
  7 22  1  0
  8  9  1  0
  8 10  1  0
 10 11  2  0
 10 23  1  0
 11 12  1  0
 13 14  2  0
 13 20  1  0
 14 15  1  0
 14 24  1  0
 15 16  2  0
 15 25  1  0
 16 17  1  0
 16 19  1  0
 17 18  1  0
 17 26  1  0
 17 27  1  0
 19 20  2  0
 19 28  1  0
 20 29  1  0
M  END

