
     RDKit          3D

 58 61  0  0  0  0  0  0  0  0999 V2000
    3.3312   -2.1696    0.2512 O   0  0  0  0  0  0  0  0  0  0  0  0
    2.6305   -1.2084    0.4636 C   0  0  0  0  0  0  0  0  0  0  0  0
    3.1274    0.0413    0.6283 O   0  0  0  0  0  0  0  0  0  0  0  0
    4.5330    0.1489    0.7098 C   0  0  0  0  0  0  0  0  0  0  0  0
    5.0059   -0.1787    2.1394 C   0  0  0  0  0  0  0  0  0  0  0  0
    4.2011   -0.4788    3.0009 O   0  0  0  0  0  0  0  0  0  0  0  0
    6.3559   -0.1038    2.3698 N   0  0  0  0  0  0  0  0  0  0  0  0
    6.8782   -0.3698    3.7051 C   0  0  0  0  0  0  0  0  0  0  0  0
    7.9662   -1.4388    3.6501 C   0  0  0  0  0  0  0  0  0  0  0  0
    9.0118   -1.0785    2.6900 N   0  0  0  0  0  0  0  0  0  0  0  0
   10.2783   -1.6851    2.8180 C   0  0  0  0  0  0  0  0  0  0  0  0
   10.9584   -2.2479    1.7183 C   0  0  0  0  0  0  0  0  0  0  0  0
   12.2322   -2.8049    1.8710 C   0  0  0  0  0  0  0  0  0  0  0  0
   12.8572   -2.8344    3.1178 C   0  0  0  0  0  0  0  0  0  0  0  0
   12.1880   -2.2860    4.2183 C   0  0  0  0  0  0  0  0  0  0  0  0
   10.9251   -1.7164    4.0739 C   0  0  0  0  0  0  0  0  0  0  0  0
    8.4802   -0.8379    1.3598 C   0  0  0  0  0  0  0  0  0  0  0  0
    7.3850    0.2353    1.3994 C   0  0  0  0  0  0  0  0  0  0  0  0
    1.1404   -1.2432    0.5310 C   0  0  0  0  0  0  0  0  0  0  0  0
    0.4939   -2.4505    0.2118 C   0  0  0  0  0  0  0  0  0  0  0  0
   -0.8943   -2.5141    0.2695 C   0  0  0  0  0  0  0  0  0  0  0  0
   -1.6522   -1.3975    0.6484 C   0  0  0  0  0  0  0  0  0  0  0  0
   -1.0034   -0.1970    0.9767 C   0  0  0  0  0  0  0  0  0  0  0  0
   -1.6395    0.9404    1.3641 O   0  0  0  0  0  0  0  0  0  0  0  0
   -3.0463    0.9390    1.5172 C   0  0  0  0  0  0  0  0  0  0  0  0
   -3.4992    2.2804    2.0436 C   0  0  0  0  0  0  0  0  0  0  0  0
   -4.7519    2.7933    1.6789 C   0  0  0  0  0  0  0  0  0  0  0  0
   -5.2143    4.0046    2.1995 C   0  0  0  0  0  0  0  0  0  0  0  0
   -4.4014    4.7069    3.0856 C   0  0  0  0  0  0  0  0  0  0  0  0
   -4.8334    5.8741    3.5861 F   0  0  0  0  0  0  0  0  0  0  0  0
   -3.1473    4.2284    3.4595 C   0  0  0  0  0  0  0  0  0  0  0  0
   -2.7030    3.0125    2.9369 C   0  0  0  0  0  0  0  0  0  0  0  0
    0.3970   -0.1234    0.9117 C   0  0  0  0  0  0  0  0  0  0  0  0
    4.7776    1.1904    0.4525 H   0  0  0  0  0  0  0  0  0  0  0  0
    5.0080   -0.5291   -0.0154 H   0  0  0  0  0  0  0  0  0  0  0  0
    6.0402   -0.6927    4.3350 H   0  0  0  0  0  0  0  0  0  0  0  0
    7.3002    0.5626    4.1247 H   0  0  0  0  0  0  0  0  0  0  0  0
    7.5054   -2.4118    3.3749 H   0  0  0  0  0  0  0  0  0  0  0  0
    8.4016   -1.5568    4.6500 H   0  0  0  0  0  0  0  0  0  0  0  0
   10.4928   -2.2706    0.7329 H   0  0  0  0  0  0  0  0  0  0  0  0
   12.7319   -3.2330    0.9977 H   0  0  0  0  0  0  0  0  0  0  0  0
   13.8499   -3.2752    3.2333 H   0  0  0  0  0  0  0  0  0  0  0  0
   12.6619   -2.2879    5.2036 H   0  0  0  0  0  0  0  0  0  0  0  0
   10.4430   -1.2640    4.9425 H   0  0  0  0  0  0  0  0  0  0  0  0
    8.0629   -1.7630    0.9037 H   0  0  0  0  0  0  0  0  0  0  0  0
    9.2880   -0.4792    0.7057 H   0  0  0  0  0  0  0  0  0  0  0  0
    6.9558    0.3450    0.3962 H   0  0  0  0  0  0  0  0  0  0  0  0
    7.8466    1.2027    1.6745 H   0  0  0  0  0  0  0  0  0  0  0  0
    1.0965   -3.3134   -0.0745 H   0  0  0  0  0  0  0  0  0  0  0  0
   -1.4090   -3.4451    0.0189 H   0  0  0  0  0  0  0  0  0  0  0  0
   -2.7387   -1.4772    0.6840 H   0  0  0  0  0  0  0  0  0  0  0  0
   -3.3425    0.1356    2.2213 H   0  0  0  0  0  0  0  0  0  0  0  0
   -3.5425    0.7230    0.5525 H   0  0  0  0  0  0  0  0  0  0  0  0
   -5.3809    2.2430    0.9732 H   0  0  0  0  0  0  0  0  0  0  0  0
   -6.1869    4.4149    1.9216 H   0  0  0  0  0  0  0  0  0  0  0  0
   -2.5364    4.8110    4.1519 H   0  0  0  0  0  0  0  0  0  0  0  0
   -1.7198    2.6285    3.2145 H   0  0  0  0  0  0  0  0  0  0  0  0
    0.8917    0.8116    1.1722 H   0  0  0  0  0  0  0  0  0  0  0  0
  1  2  2  0
  2  3  1  0
  2 19  1  0
  3  4  1  0
  4  5  1  0
  4 34  1  0
  4 35  1  0
  5  6  2  0
  5  7  1  0
  7  8  1  0
  7 18  1  0
  8  9  1  0
  8 36  1  0
  8 37  1  0
  9 10  1  0
  9 38  1  0
  9 39  1  0
 10 11  1  0
 10 17  1  0
 11 12  2  0
 11 16  1  0
 12 13  1  0
 12 40  1  0
 13 14  2  0
 13 41  1  0
 14 15  1  0
 14 42  1  0
 15 16  2  0
 15 43  1  0
 16 44  1  0
 17 18  1  0
 17 45  1  0
 17 46  1  0
 18 47  1  0
 18 48  1  0
 19 20  2  0
 19 33  1  0
 20 21  1  0
 20 49  1  0
 21 22  2  0
 21 50  1  0
 22 23  1  0
 22 51  1  0
 23 24  1  0
 23 33  2  0
 24 25  1  0
 25 26  1  0
 25 52  1  0
 25 53  1  0
 26 27  2  0
 26 32  1  0
 27 28  1  0
 27 54  1  0
 28 29  2  0
 28 55  1  0
 29 30  1  0
 29 31  1  0
 31 32  2  0
 31 56  1  0
 32 57  1  0
 33 58  1  0
M  END

