
     RDKit          3D

 51 52  0  0  0  0  0  0  0  0999 V2000
    0.3559    1.8491   -1.0236 C   0  0  0  0  0  0  0  0  0  0  0  0
    1.7207    2.5102   -1.0140 C   0  0  0  0  0  0  0  0  0  0  0  0
    2.7040    1.4966   -0.8645 O   0  0  0  0  0  0  0  0  0  0  0  0
    4.0215    1.8290   -0.8876 C   0  0  0  0  0  0  0  0  0  0  0  0
    4.5093    3.1414   -0.9654 C   0  0  0  0  0  0  0  0  0  0  0  0
    5.8884    3.3720   -1.0047 C   0  0  0  0  0  0  0  0  0  0  0  0
    6.7872    2.3071   -0.9678 C   0  0  0  0  0  0  0  0  0  0  0  0
    6.3228    0.9856   -0.8778 C   0  0  0  0  0  0  0  0  0  0  0  0
    7.2669   -0.2079   -0.8365 C   0  0  0  0  0  0  0  0  0  0  0  0
    7.1378   -1.1531   -1.9464 N   0  0  0  0  0  0  0  0  0  0  0  0
    7.6318   -0.7100   -3.2505 C   0  0  1  0  0  0  0  0  0  0  0  0
    7.2993    0.3270   -3.4764 H   0  0  0  0  0  0  0  0  0  0  0  0
    9.1717   -0.7243   -3.3263 C   0  0  0  0  0  0  0  0  0  0  0  0
    9.8348   -2.0730   -3.0333 C   0  0  0  0  0  0  0  0  0  0  0  0
    6.9980   -1.5930   -4.3344 C   0  0  0  0  0  0  0  0  0  0  0  0
    5.5873   -1.4688   -4.3794 O   0  0  0  0  0  0  0  0  0  0  0  0
    4.9387    0.7539   -0.8343 C   0  0  0  0  0  0  0  0  0  0  0  0
    4.4961   -0.5480   -0.8197 O   0  0  0  0  0  0  0  0  0  0  0  0
    3.8201   -1.0130    0.3506 C   0  0  0  0  0  0  0  0  0  0  0  0
    3.6385   -2.5104    0.2729 C   0  0  0  0  0  0  0  0  0  0  0  0
    4.6749   -3.3510   -0.1669 C   0  0  0  0  0  0  0  0  0  0  0  0
    4.5012   -4.7372   -0.1883 C   0  0  0  0  0  0  0  0  0  0  0  0
    3.2948   -5.3061    0.2341 C   0  0  0  0  0  0  0  0  0  0  0  0
    2.2587   -4.4777    0.6718 C   0  0  0  0  0  0  0  0  0  0  0  0
    2.4301   -3.0900    0.6845 C   0  0  0  0  0  0  0  0  0  0  0  0
   -0.4314    2.6070   -1.1577 H   0  0  0  0  0  0  0  0  0  0  0  0
    0.1685    1.3204   -0.0762 H   0  0  0  0  0  0  0  0  0  0  0  0
    0.2833    1.1211   -1.8458 H   0  0  0  0  0  0  0  0  0  0  0  0
    1.7973    3.2391   -0.1849 H   0  0  0  0  0  0  0  0  0  0  0  0
    1.8947    3.0622   -1.9565 H   0  0  0  0  0  0  0  0  0  0  0  0
    3.8212    3.9854   -1.0072 H   0  0  0  0  0  0  0  0  0  0  0  0
    6.2568    4.3987   -1.0716 H   0  0  0  0  0  0  0  0  0  0  0  0
    7.8635    2.4951   -1.0024 H   0  0  0  0  0  0  0  0  0  0  0  0
    7.0912   -0.7648    0.1004 H   0  0  0  0  0  0  0  0  0  0  0  0
    8.3049    0.1534   -0.7827 H   0  0  0  0  0  0  0  0  0  0  0  0
    6.1437   -1.3580   -2.0354 H   0  0  0  0  0  0  0  0  0  0  0  0
    9.5641    0.0299   -2.6224 H   0  0  0  0  0  0  0  0  0  0  0  0
    9.4672   -0.3632   -4.3276 H   0  0  0  0  0  0  0  0  0  0  0  0
    9.4901   -2.4729   -2.0679 H   0  0  0  0  0  0  0  0  0  0  0  0
   10.9315   -1.9733   -2.9968 H   0  0  0  0  0  0  0  0  0  0  0  0
    9.6018   -2.8252   -3.8042 H   0  0  0  0  0  0  0  0  0  0  0  0
    7.3001   -2.6459   -4.1859 H   0  0  0  0  0  0  0  0  0  0  0  0
    7.3834   -1.2740   -5.3174 H   0  0  0  0  0  0  0  0  0  0  0  0
    5.1904   -2.1383   -3.8099 H   0  0  0  0  0  0  0  0  0  0  0  0
    2.8436   -0.5140    0.4491 H   0  0  0  0  0  0  0  0  0  0  0  0
    4.4233   -0.7482    1.2415 H   0  0  0  0  0  0  0  0  0  0  0  0
    5.6204   -2.9220   -0.5071 H   0  0  0  0  0  0  0  0  0  0  0  0
    5.3162   -5.3783   -0.5350 H   0  0  0  0  0  0  0  0  0  0  0  0
    3.1626   -6.3911    0.2179 H   0  0  0  0  0  0  0  0  0  0  0  0
    1.3091   -4.9109    0.9968 H   0  0  0  0  0  0  0  0  0  0  0  0
    1.6102   -2.4463    1.0167 H   0  0  0  0  0  0  0  0  0  0  0  0
  1  2  1  0
  1 26  1  0
  1 27  1  0
  1 28  1  0
  2  3  1  0
  2 29  1  0
  2 30  1  0
  3  4  1  0
  4  5  2  0
  4 17  1  0
  5  6  1  0
  5 31  1  0
  6  7  2  0
  6 32  1  0
  7  8  1  0
  7 33  1  0
  8  9  1  0
  8 17  2  0
  9 10  1  0
  9 34  1  0
  9 35  1  0
 10 11  1  0
 10 36  1  0
 11 12  1  6
 11 13  1  0
 11 15  1  0
 13 14  1  0
 13 37  1  0
 13 38  1  0
 14 39  1  0
 14 40  1  0
 14 41  1  0
 15 16  1  0
 15 42  1  0
 15 43  1  0
 16 44  1  0
 17 18  1  0
 18 19  1  0
 19 20  1  0
 19 45  1  0
 19 46  1  0
 20 21  2  0
 20 25  1  0
 21 22  1  0
 21 47  1  0
 22 23  2  0
 22 48  1  0
 23 24  1  0
 23 49  1  0
 24 25  2  0
 24 50  1  0
 25 51  1  0
M  END

