
     RDKit          3D

 47 49  0  0  0  0  0  0  0  0999 V2000
    3.2998    1.3577    2.6233 O   0  0  0  0  0  0  0  0  0  0  0  0
    3.9000    1.0530    1.6263 C   0  0  0  0  0  0  0  0  0  0  0  0
    4.8358    0.0756    1.6652 O   0  0  0  0  0  0  0  0  0  0  0  0
    3.6701    1.7048    0.2901 C   0  0  0  0  0  0  0  0  0  0  0  0
    2.4960    2.4545    0.1215 C   0  0  0  0  0  0  0  0  0  0  0  0
    2.2382    3.0680   -1.1034 C   0  0  0  0  0  0  0  0  0  0  0  0
    3.1517    2.9508   -2.1564 C   0  0  0  0  0  0  0  0  0  0  0  0
    4.3441    2.2295   -2.0003 C   0  0  0  0  0  0  0  0  0  0  0  0
    5.3691    2.1789   -3.1236 C   0  0  0  0  0  0  0  0  0  0  0  0
    6.1413    0.9457   -3.1631 N   0  0  0  0  0  0  0  0  0  0  0  0
    5.3782   -0.2023   -3.6372 C   0  0  0  0  0  0  0  0  0  0  0  0
    5.7588   -1.5140   -2.9563 C   0  0  0  0  0  0  0  0  0  0  0  0
    4.9534   -2.5264   -3.5185 O   0  0  0  0  0  0  0  0  0  0  0  0
    7.5471    1.0063   -3.6460 C   0  0  2  0  0  0  0  0  0  0  0  0
    8.5600    0.9835   -2.4858 C   0  0  0  0  0  0  0  0  0  0  0  0
    8.7378    2.3621   -1.8496 C   0  0  0  0  0  0  0  0  0  0  0  0
    9.2925    3.3479   -2.8810 C   0  0  0  0  0  0  0  0  0  0  0  0
    8.6032    3.2751   -4.2323 C   0  0  0  0  0  0  0  0  0  0  0  0
    8.7844    4.3211   -5.1548 C   0  0  0  0  0  0  0  0  0  0  0  0
    8.2139    4.2796   -6.4252 C   0  0  0  0  0  0  0  0  0  0  0  0
    7.4449    3.1724   -6.8015 C   0  0  0  0  0  0  0  0  0  0  0  0
    7.2565    2.1298   -5.8966 C   0  0  0  0  0  0  0  0  0  0  0  0
    7.8215    2.1629   -4.6084 C   0  0  0  0  0  0  0  0  0  0  0  0
    4.5865    1.6095   -0.7677 C   0  0  0  0  0  0  0  0  0  0  0  0
    5.1463   -0.1238    0.7711 H   0  0  0  0  0  0  0  0  0  0  0  0
    1.8011    2.5330    0.9594 H   0  0  0  0  0  0  0  0  0  0  0  0
    1.3169    3.6385   -1.2447 H   0  0  0  0  0  0  0  0  0  0  0  0
    2.9370    3.4300   -3.1164 H   0  0  0  0  0  0  0  0  0  0  0  0
    6.0639    3.0208   -2.9854 H   0  0  0  0  0  0  0  0  0  0  0  0
    4.8509    2.3912   -4.0831 H   0  0  0  0  0  0  0  0  0  0  0  0
    5.4603   -0.3499   -4.7352 H   0  0  0  0  0  0  0  0  0  0  0  0
    4.3108   -0.0290   -3.4314 H   0  0  0  0  0  0  0  0  0  0  0  0
    5.5971   -1.4085   -1.8633 H   0  0  0  0  0  0  0  0  0  0  0  0
    6.8382   -1.7234   -3.1020 H   0  0  0  0  0  0  0  0  0  0  0  0
    5.1815   -3.3699   -3.1099 H   0  0  0  0  0  0  0  0  0  0  0  0
    7.6991    0.0816   -4.2251 H   0  0  0  0  0  0  0  0  0  0  0  0
    9.5371    0.6409   -2.8740 H   0  0  0  0  0  0  0  0  0  0  0  0
    8.2305    0.2400   -1.7438 H   0  0  0  0  0  0  0  0  0  0  0  0
    9.4163    2.3058   -0.9831 H   0  0  0  0  0  0  0  0  0  0  0  0
    7.7705    2.7199   -1.4566 H   0  0  0  0  0  0  0  0  0  0  0  0
   10.3673    3.1336   -3.0352 H   0  0  0  0  0  0  0  0  0  0  0  0
    9.2500    4.3815   -2.4989 H   0  0  0  0  0  0  0  0  0  0  0  0
    9.3903    5.1842   -4.8621 H   0  0  0  0  0  0  0  0  0  0  0  0
    8.3702    5.1061   -7.1233 H   0  0  0  0  0  0  0  0  0  0  0  0
    6.9987    3.1218   -7.7979 H   0  0  0  0  0  0  0  0  0  0  0  0
    6.6604    1.2621   -6.1929 H   0  0  0  0  0  0  0  0  0  0  0  0
    5.5270    1.0604   -0.6661 H   0  0  0  0  0  0  0  0  0  0  0  0
  1  2  2  0
  2  3  1  0
  2  4  1  0
  3 25  1  0
  4  5  2  0
  4 24  1  0
  5  6  1  0
  5 26  1  0
  6  7  2  0
  6 27  1  0
  7  8  1  0
  7 28  1  0
  8  9  1  0
  8 24  2  0
  9 10  1  0
  9 29  1  0
  9 30  1  0
 10 11  1  0
 10 14  1  0
 11 12  1  0
 11 31  1  0
 11 32  1  0
 12 13  1  0
 12 33  1  0
 12 34  1  0
 13 35  1  0
 14 15  1  0
 14 23  1  0
 14 36  1  6
 15 16  1  0
 15 37  1  0
 15 38  1  0
 16 17  1  0
 16 39  1  0
 16 40  1  0
 17 18  1  0
 17 41  1  0
 17 42  1  0
 18 19  2  0
 18 23  1  0
 19 20  1  0
 19 43  1  0
 20 21  2  0
 20 44  1  0
 21 22  1  0
 21 45  1  0
 22 23  2  0
 22 46  1  0
 24 47  1  0
M  END

