
     RDKit          3D

 40 42  0  0  0  0  0  0  0  0999 V2000
    0.8136   -0.6897    0.9822 C   0  0  0  0  0  0  0  0  0  0  0  0
    2.0629   -0.1488    0.2749 C   0  0  1  0  0  0  0  0  0  0  0  0
    2.9655   -1.2123   -0.1182 N   0  0  0  0  0  0  0  0  0  0  0  0
    3.3830   -1.5456   -1.3640 C   0  0  0  0  0  0  0  0  0  0  0  0
    4.0369   -2.5522   -1.5775 O   0  0  0  0  0  0  0  0  0  0  0  0
    3.0078   -0.6099   -2.5397 C   0  0  2  0  0  0  0  0  0  0  0  0
    2.1948   -1.4862   -3.5169 C   0  0  0  0  0  0  0  0  0  0  0  0
    4.3408   -0.0979   -3.1168 C   0  0  1  0  0  0  0  0  0  0  0  0
    5.2964   -0.9675   -3.8845 C   0  0  0  0  0  0  0  0  0  0  0  0
    4.5956    0.1636   -4.5860 C   0  0  0  0  0  0  0  0  0  0  0  0
    2.1944    0.5608   -2.1187 N   0  0  0  0  0  0  0  0  0  0  0  0
    1.8086    1.5512   -3.1382 C   0  0  0  0  0  0  0  0  0  0  0  0
    2.5151    2.9122   -2.9814 C   0  0  0  0  0  0  0  0  0  0  0  0
    2.0816    3.8992   -4.0360 C   0  0  0  0  0  0  0  0  0  0  0  0
    2.6054    3.9392   -5.3731 C   0  0  0  0  0  0  0  0  0  0  0  0
    2.0248    4.9046   -6.1547 C   0  0  0  0  0  0  0  0  0  0  0  0
    0.8217    5.7874   -5.2798 S   0  0  0  0  0  0  0  0  0  0  0  0
    1.1033    4.8502   -3.8533 C   0  0  0  0  0  0  0  0  0  0  0  0
    1.6653    0.7695   -0.8781 C   0  0  0  0  0  0  0  0  0  0  0  0
    0.9045    1.6982   -0.6382 O   0  0  0  0  0  0  0  0  0  0  0  0
    1.0948   -1.2567    1.8840 H   0  0  0  0  0  0  0  0  0  0  0  0
    0.2445   -1.3573    0.3163 H   0  0  0  0  0  0  0  0  0  0  0  0
    0.1698    0.1490    1.2789 H   0  0  0  0  0  0  0  0  0  0  0  0
    2.5852    0.5231    0.9820 H   0  0  0  0  0  0  0  0  0  0  0  0
    3.2428   -1.8826    0.5952 H   0  0  0  0  0  0  0  0  0  0  0  0
    2.7762   -2.3705   -3.8067 H   0  0  0  0  0  0  0  0  0  0  0  0
    1.9035   -0.9361   -4.4218 H   0  0  0  0  0  0  0  0  0  0  0  0
    1.2747   -1.8331   -3.0228 H   0  0  0  0  0  0  0  0  0  0  0  0
    4.8115    0.6125   -2.4282 H   0  0  0  0  0  0  0  0  0  0  0  0
    4.9891   -1.9893   -4.1127 H   0  0  0  0  0  0  0  0  0  0  0  0
    6.3603   -0.8695   -3.6529 H   0  0  0  0  0  0  0  0  0  0  0  0
    3.8196   -0.0962   -5.3110 H   0  0  0  0  0  0  0  0  0  0  0  0
    5.1636    1.0604   -4.8504 H   0  0  0  0  0  0  0  0  0  0  0  0
    0.7225    1.7107   -3.0700 H   0  0  0  0  0  0  0  0  0  0  0  0
    2.0269    1.1345   -4.1274 H   0  0  0  0  0  0  0  0  0  0  0  0
    3.6053    2.7629   -3.0379 H   0  0  0  0  0  0  0  0  0  0  0  0
    2.2826    3.3068   -1.9830 H   0  0  0  0  0  0  0  0  0  0  0  0
    3.3952    3.2755   -5.7314 H   0  0  0  0  0  0  0  0  0  0  0  0
    2.2410    5.1521   -7.1931 H   0  0  0  0  0  0  0  0  0  0  0  0
    0.5337    5.0477   -2.9455 H   0  0  0  0  0  0  0  0  0  0  0  0
  1  2  1  0
  1 21  1  0
  1 22  1  0
  1 23  1  0
  2  3  1  0
  2 19  1  0
  2 24  1  1
  3  4  1  0
  3 25  1  0
  4  5  2  0
  4  6  1  0
  6  7  1  6
  6  8  1  0
  6 11  1  0
  7 26  1  0
  7 27  1  0
  7 28  1  0
  8  9  1  0
  8 10  1  0
  8 29  1  1
  9 10  1  0
  9 30  1  0
  9 31  1  0
 10 32  1  0
 10 33  1  0
 11 12  1  0
 11 19  1  0
 12 13  1  0
 12 34  1  0
 12 35  1  0
 13 14  1  0
 13 36  1  0
 13 37  1  0
 14 15  1  0
 14 18  2  0
 15 16  2  0
 15 38  1  0
 16 17  1  0
 16 39  1  0
 17 18  1  0
 18 40  1  0
 19 20  2  0
M  END

