
     RDKit          3D

 38 38  0  0  0  0  0  0  0  0999 V2000
    0.7018    0.2618    0.6613 C   0  0  0  0  0  0  0  0  0  0  0  0
    2.2332    0.1305    0.6512 C   0  0  1  0  0  0  0  0  0  0  0  0
    2.7067   -1.0792    1.3309 N   0  0  0  0  0  0  0  0  0  0  0  0
    2.8141    0.1630   -0.7950 C   0  0  1  0  0  0  0  0  0  0  0  0
    2.4671    1.4529   -1.5202 C   0  0  0  0  0  0  0  0  0  0  0  0
    2.3689    2.7404   -1.0427 C   0  0  0  0  0  0  0  0  0  0  0  0
    2.0867    3.7099   -2.0556 C   0  0  0  0  0  0  0  0  0  0  0  0
    1.9710    3.1491   -3.3008 C   0  0  0  0  0  0  0  0  0  0  0  0
    2.2074    1.4357   -3.2470 S   0  0  0  0  0  0  0  0  0  0  0  0
    4.2556   -0.0972   -0.8946 N   0  0  0  0  0  0  0  0  0  0  0  0
    5.1158    0.6684   -0.0172 C   0  0  0  0  0  0  0  0  0  0  0  0
    4.6635   -1.4653   -1.1567 C   0  0  0  0  0  0  0  0  0  0  0  0
    4.6669   -1.8693   -2.6498 C   0  0  1  0  0  0  0  0  0  0  0  0
    5.5204   -0.9124   -3.4862 C   0  0  0  0  0  0  0  0  0  0  0  0
    5.1573   -3.3172   -2.7850 C   0  0  0  0  0  0  0  0  0  0  0  0
    3.2979   -1.7976   -3.0761 O   0  0  0  0  0  0  0  0  0  0  0  0
    0.3216    0.2009    1.6947 H   0  0  0  0  0  0  0  0  0  0  0  0
    0.2412   -0.5608    0.0865 H   0  0  0  0  0  0  0  0  0  0  0  0
    0.3532    1.2093    0.2256 H   0  0  0  0  0  0  0  0  0  0  0  0
    2.6572    0.9822    1.2114 H   0  0  0  0  0  0  0  0  0  0  0  0
    2.2286   -1.8990    0.9510 H   0  0  0  0  0  0  0  0  0  0  0  0
    2.4544   -1.0434    2.3190 H   0  0  0  0  0  0  0  0  0  0  0  0
    2.3314   -0.6540   -1.3498 H   0  0  0  0  0  0  0  0  0  0  0  0
    2.4852    2.9974    0.0115 H   0  0  0  0  0  0  0  0  0  0  0  0
    1.9733    4.7780   -1.8616 H   0  0  0  0  0  0  0  0  0  0  0  0
    1.7571    3.6464   -4.2461 H   0  0  0  0  0  0  0  0  0  0  0  0
    4.8170    1.7288   -0.0297 H   0  0  0  0  0  0  0  0  0  0  0  0
    6.1554    0.6300   -0.3818 H   0  0  0  0  0  0  0  0  0  0  0  0
    5.1102    0.3175    1.0363 H   0  0  0  0  0  0  0  0  0  0  0  0
    4.0438   -2.1975   -0.6071 H   0  0  0  0  0  0  0  0  0  0  0  0
    5.6885   -1.5997   -0.7774 H   0  0  0  0  0  0  0  0  0  0  0  0
    6.5800   -0.9553   -3.1870 H   0  0  0  0  0  0  0  0  0  0  0  0
    5.1594    0.1173   -3.3585 H   0  0  0  0  0  0  0  0  0  0  0  0
    5.4685   -1.1794   -4.5564 H   0  0  0  0  0  0  0  0  0  0  0  0
    6.2001   -3.4290   -2.4465 H   0  0  0  0  0  0  0  0  0  0  0  0
    5.1098   -3.6446   -3.8370 H   0  0  0  0  0  0  0  0  0  0  0  0
    4.5227   -3.9936   -2.1914 H   0  0  0  0  0  0  0  0  0  0  0  0
    3.2751   -1.8699   -4.0395 H   0  0  0  0  0  0  0  0  0  0  0  0
  1  2  1  0
  1 17  1  0
  1 18  1  0
  1 19  1  0
  2  3  1  0
  2  4  1  0
  2 20  1  1
  3 21  1  0
  3 22  1  0
  4  5  1  0
  4 10  1  0
  4 23  1  6
  5  6  2  0
  5  9  1  0
  6  7  1  0
  6 24  1  0
  7  8  2  0
  7 25  1  0
  8  9  1  0
  8 26  1  0
 10 11  1  0
 10 12  1  0
 11 27  1  0
 11 28  1  0
 11 29  1  0
 12 13  1  0
 12 30  1  0
 12 31  1  0
 13 14  1  0
 13 15  1  0
 13 16  1  6
 14 32  1  0
 14 33  1  0
 14 34  1  0
 15 35  1  0
 15 36  1  0
 15 37  1  0
 16 38  1  0
M  END

