
     RDKit          3D

 27 28  0  0  0  0  0  0  0  0999 V2000
    1.3551   -1.0729   -0.5652 C   0  0  0  0  0  0  0  0  0  0  0  0
    2.4332   -0.0822   -0.0951 C   0  0  1  0  0  0  0  0  0  0  0  0
    3.6830   -0.8146    0.4219 C   0  0  0  0  0  0  0  0  0  0  0  0
    2.7943    0.8869   -1.1976 C   0  0  0  0  0  0  0  0  0  0  0  0
    2.6401    2.2481   -1.1572 C   0  0  0  0  0  0  0  0  0  0  0  0
    3.1853    2.9737   -2.6412 S   0  0  0  0  0  0  0  0  0  0  0  0
    3.5907    1.3635   -3.2066 C   0  0  0  0  0  0  0  0  0  0  0  0
    4.1416    1.1447   -4.4715 N   0  0  0  0  0  0  0  0  0  0  0  0
    4.5255    2.0845   -5.4126 C   0  0  0  0  0  0  0  0  0  0  0  0
    5.0157    1.5278   -6.4835 N   0  0  0  0  0  0  0  0  0  0  0  0
    4.9634    0.1640   -6.2614 C   0  0  0  0  0  0  0  0  0  0  0  0
    5.4230   -0.8115   -7.2837 C   0  0  0  0  0  0  0  0  0  0  0  0
    4.1441   -1.1624   -8.5415 Cl  0  0  0  0  0  0  0  0  0  0  0  0
    4.4260   -0.0958   -5.0218 C   0  0  0  0  0  0  0  0  0  0  0  0
    3.3365    0.4063   -2.3716 N   0  0  0  0  0  0  0  0  0  0  0  0
    1.0883   -1.7698    0.2454 H   0  0  0  0  0  0  0  0  0  0  0  0
    1.7199   -1.6634   -1.4202 H   0  0  0  0  0  0  0  0  0  0  0  0
    0.4394   -0.5498   -0.8822 H   0  0  0  0  0  0  0  0  0  0  0  0
    2.0159    0.5164    0.7326 H   0  0  0  0  0  0  0  0  0  0  0  0
    4.1536   -1.3933   -0.3883 H   0  0  0  0  0  0  0  0  0  0  0  0
    3.4169   -1.5116    1.2327 H   0  0  0  0  0  0  0  0  0  0  0  0
    4.4315   -0.1065    0.8106 H   0  0  0  0  0  0  0  0  0  0  0  0
    2.2419    2.8629   -0.3523 H   0  0  0  0  0  0  0  0  0  0  0  0
    4.4219    3.1550   -5.2327 H   0  0  0  0  0  0  0  0  0  0  0  0
    5.6839   -1.7777   -6.8350 H   0  0  0  0  0  0  0  0  0  0  0  0
    6.2838   -0.4122   -7.8337 H   0  0  0  0  0  0  0  0  0  0  0  0
    4.2135   -1.0106   -4.4776 H   0  0  0  0  0  0  0  0  0  0  0  0
  1  2  1  0
  1 16  1  0
  1 17  1  0
  1 18  1  0
  2  3  1  0
  2  4  1  0
  2 19  1  1
  3 20  1  0
  3 21  1  0
  3 22  1  0
  4  5  2  0
  4 15  1  0
  5  6  1  0
  5 23  1  0
  6  7  1  0
  7  8  1  0
  7 15  2  0
  8  9  1  0
  8 14  1  0
  9 10  2  0
  9 24  1  0
 10 11  1  0
 11 12  1  0
 11 14  2  0
 12 13  1  0
 12 25  1  0
 12 26  1  0
 14 27  1  0
M  END

