
     RDKit          3D

 37 38  0  0  0  0  0  0  0  0999 V2000
    1.0747   -0.2590    0.5252 O   0  0  0  0  0  0  0  0  0  0  0  0
    1.9475    0.0328   -0.2773 C   0  0  0  0  0  0  0  0  0  0  0  0
    2.3514   -0.8092   -1.2815 N   0  0  0  0  0  0  0  0  0  0  0  0
    1.8256   -2.1594   -1.4009 C   0  0  0  0  0  0  0  0  0  0  0  0
    2.6257   -3.2044   -0.6114 C   0  0  0  0  0  0  0  0  0  0  0  0
    2.0758   -4.6344   -0.7154 C   0  0  0  0  0  0  0  0  0  0  0  0
    2.1572   -5.2498   -2.1005 C   0  0  1  0  0  0  0  0  0  0  0  0
    1.3457   -6.4732   -2.4418 C   0  0  0  0  0  0  0  0  0  0  0  0
    1.0117   -5.1487   -3.0812 C   0  0  0  0  0  0  0  0  0  0  0  0
    2.6298    1.2519   -0.2952 N   0  0  0  0  0  0  0  0  0  0  0  0
    2.4975    2.3213    0.5706 C   0  0  0  0  0  0  0  0  0  0  0  0
    1.6553    2.2835    1.7069 C   0  0  0  0  0  0  0  0  0  0  0  0
    1.5815    3.3584    2.5823 C   0  0  0  0  0  0  0  0  0  0  0  0
    2.3477    4.5097    2.3574 C   0  0  0  0  0  0  0  0  0  0  0  0
    2.2801    5.9643    3.5864 Br  0  0  0  0  0  0  0  0  0  0  0  0
    3.1645    4.5826    1.2382 C   0  0  0  0  0  0  0  0  0  0  0  0
    3.2391    3.5183    0.3168 C   0  0  0  0  0  0  0  0  0  0  0  0
    4.0963    3.6441   -0.8992 C   0  0  0  0  0  0  0  0  0  0  0  0
    4.4367    2.7046   -1.5935 O   0  0  0  0  0  0  0  0  0  0  0  0
    4.5042    4.8772   -1.2476 O   0  0  0  0  0  0  0  0  0  0  0  0
    3.1484   -0.5539   -1.8530 H   0  0  0  0  0  0  0  0  0  0  0  0
    1.7935   -2.4202   -2.4703 H   0  0  0  0  0  0  0  0  0  0  0  0
    0.7880   -2.1363   -1.0358 H   0  0  0  0  0  0  0  0  0  0  0  0
    2.6375   -2.8961    0.4474 H   0  0  0  0  0  0  0  0  0  0  0  0
    3.6773   -3.1898   -0.9533 H   0  0  0  0  0  0  0  0  0  0  0  0
    1.0262   -4.6531   -0.3690 H   0  0  0  0  0  0  0  0  0  0  0  0
    2.6363   -5.2729   -0.0096 H   0  0  0  0  0  0  0  0  0  0  0  0
    3.1616   -5.2143   -2.5417 H   0  0  0  0  0  0  0  0  0  0  0  0
    0.6628   -6.8589   -1.6781 H   0  0  0  0  0  0  0  0  0  0  0  0
    1.8048   -7.2497   -3.0603 H   0  0  0  0  0  0  0  0  0  0  0  0
    0.0999   -4.6408   -2.7516 H   0  0  0  0  0  0  0  0  0  0  0  0
    1.2389   -5.0101   -4.1424 H   0  0  0  0  0  0  0  0  0  0  0  0
    3.3384    1.4150   -1.0164 H   0  0  0  0  0  0  0  0  0  0  0  0
    1.0694    1.3837    1.8801 H   0  0  0  0  0  0  0  0  0  0  0  0
    0.9298    3.2981    3.4560 H   0  0  0  0  0  0  0  0  0  0  0  0
    3.7782    5.4764    1.1052 H   0  0  0  0  0  0  0  0  0  0  0  0
    4.0544    5.5513   -0.7198 H   0  0  0  0  0  0  0  0  0  0  0  0
  1  2  2  0
  2  3  1  0
  2 10  1  0
  3  4  1  0
  3 21  1  0
  4  5  1  0
  4 22  1  0
  4 23  1  0
  5  6  1  0
  5 24  1  0
  5 25  1  0
  6  7  1  0
  6 26  1  0
  6 27  1  0
  7  8  1  0
  7  9  1  0
  7 28  1  6
  8  9  1  0
  8 29  1  0
  8 30  1  0
  9 31  1  0
  9 32  1  0
 10 11  1  0
 10 33  1  0
 11 12  2  0
 11 17  1  0
 12 13  1  0
 12 34  1  0
 13 14  2  0
 13 35  1  0
 14 15  1  0
 14 16  1  0
 16 17  2  0
 16 36  1  0
 17 18  1  0
 18 19  2  0
 18 20  1  0
 20 37  1  0
M  END

