
     RDKit          3D

 42 44  0  0  0  0  0  0  0  0999 V2000
    3.4755    6.6517   -1.1185 C   0  0  0  0  0  0  0  0  0  0  0  0
    3.7026    5.5202   -1.9630 O   0  0  0  0  0  0  0  0  0  0  0  0
    3.4972    4.3215   -1.4106 C   0  0  0  0  0  0  0  0  0  0  0  0
    3.1451    4.1565   -0.2687 O   0  0  0  0  0  0  0  0  0  0  0  0
    3.7156    3.1466   -2.4052 C   0  0  1  0  0  0  0  0  0  0  0  0
    4.3704    3.6279   -3.5832 O   0  0  0  0  0  0  0  0  0  0  0  0
    5.6874    3.9521   -3.4767 C   0  0  0  0  0  0  0  0  0  0  0  0
    6.1771    4.9598   -4.3132 C   0  0  0  0  0  0  0  0  0  0  0  0
    7.5261    5.2959   -4.2303 C   0  0  0  0  0  0  0  0  0  0  0  0
    8.3711    4.6495   -3.3251 C   0  0  0  0  0  0  0  0  0  0  0  0
    7.8796    3.6255   -2.5027 C   0  0  0  0  0  0  0  0  0  0  0  0
    8.6799    2.9985   -1.6164 O   0  0  0  0  0  0  0  0  0  0  0  0
    6.5137    3.2490   -2.5783 C   0  0  0  0  0  0  0  0  0  0  0  0
    5.9585    2.0513   -1.8721 C   0  0  0  0  0  0  0  0  0  0  0  0
    6.6844    1.1178   -1.5536 O   0  0  0  0  0  0  0  0  0  0  0  0
    4.4880    2.0295   -1.7198 C   0  0  0  0  0  0  0  0  0  0  0  0
    3.7759    1.0614   -1.0522 C   0  0  0  0  0  0  0  0  0  0  0  0
    4.2389    0.1832   -0.1633 O   0  0  0  0  0  0  0  0  0  0  0  0
    5.3194    0.4504    0.7303 C   0  0  0  0  0  0  0  0  0  0  0  0
    2.3054    0.8069   -1.2981 C   0  0  0  0  0  0  0  0  0  0  0  0
    1.5045    1.9833   -1.8657 C   0  0  2  0  0  0  0  0  0  0  0  0
    1.3350    2.7058   -1.0518 H   0  0  0  0  0  0  0  0  0  0  0  0
    0.1445    1.5367   -2.4082 C   0  0  0  0  0  0  0  0  0  0  0  0
    2.3304    2.6934   -2.9321 C   0  0  1  0  0  0  0  0  0  0  0  0
    2.5608    1.9785   -3.7489 H   0  0  0  0  0  0  0  0  0  0  0  0
    1.6097    3.8007   -3.4205 O   0  0  0  0  0  0  0  0  0  0  0  0
    3.7303    7.5344   -1.7174 H   0  0  0  0  0  0  0  0  0  0  0  0
    4.1095    6.5997   -0.2210 H   0  0  0  0  0  0  0  0  0  0  0  0
    2.4221    6.6915   -0.8035 H   0  0  0  0  0  0  0  0  0  0  0  0
    5.4927    5.4644   -4.9957 H   0  0  0  0  0  0  0  0  0  0  0  0
    7.9287    6.0862   -4.8689 H   0  0  0  0  0  0  0  0  0  0  0  0
    9.4250    4.9345   -3.2515 H   0  0  0  0  0  0  0  0  0  0  0  0
    9.5687    3.3733   -1.6776 H   0  0  0  0  0  0  0  0  0  0  0  0
    5.1017   -0.1292    1.6387 H   0  0  0  0  0  0  0  0  0  0  0  0
    5.3511    1.5247    0.9720 H   0  0  0  0  0  0  0  0  0  0  0  0
    6.2780    0.1569    0.2881 H   0  0  0  0  0  0  0  0  0  0  0  0
    1.8567    0.4547   -0.3572 H   0  0  0  0  0  0  0  0  0  0  0  0
    2.2543   -0.0527   -1.9947 H   0  0  0  0  0  0  0  0  0  0  0  0
   -0.4451    1.0388   -1.6219 H   0  0  0  0  0  0  0  0  0  0  0  0
    0.2629    0.8241   -3.2424 H   0  0  0  0  0  0  0  0  0  0  0  0
   -0.4275    2.3988   -2.7778 H   0  0  0  0  0  0  0  0  0  0  0  0
    2.1919    4.2726   -4.0338 H   0  0  0  0  0  0  0  0  0  0  0  0
  1  2  1  0
  1 27  1  0
  1 28  1  0
  1 29  1  0
  2  3  1  0
  3  4  2  0
  5  3  1  1
  5  6  1  0
  5 16  1  0
  5 24  1  0
  6  7  1  0
  7  8  2  0
  7 13  1  0
  8  9  1  0
  8 30  1  0
  9 10  2  0
  9 31  1  0
 10 11  1  0
 10 32  1  0
 11 12  1  0
 11 13  2  0
 12 33  1  0
 13 14  1  0
 14 15  2  0
 14 16  1  0
 16 17  2  0
 17 18  1  0
 17 20  1  0
 18 19  1  0
 19 34  1  0
 19 35  1  0
 19 36  1  0
 20 21  1  0
 20 37  1  0
 20 38  1  0
 21 22  1  1
 21 23  1  0
 21 24  1  0
 23 39  1  0
 23 40  1  0
 23 41  1  0
 24 25  1  6
 24 26  1  0
 26 42  1  0
M  END

