
     RDKit          3D

 48 50  0  0  0  0  0  0  0  0999 V2000
    2.8837    1.4475   -0.8736 C   0  0  0  0  0  0  0  0  0  0  0  0
    2.5104    0.2374   -0.0058 C   0  0  1  0  0  0  0  0  0  0  0  0
    0.9928    0.0080   -0.0319 C   0  0  0  0  0  0  0  0  0  0  0  0
    3.2420   -1.0496   -0.4349 C   0  0  0  0  0  0  0  0  0  0  0  0
    4.7769   -1.0722   -0.2479 C   0  0  1  0  0  0  0  0  0  0  0  0
    5.1471   -0.7480    1.2004 C   0  0  0  0  0  0  0  0  0  0  0  0
    5.7067    0.4916    1.5450 C   0  0  0  0  0  0  0  0  0  0  0  0
    6.0165    0.8089    2.8749 C   0  0  0  0  0  0  0  0  0  0  0  0
    5.7691   -0.1303    3.8748 C   0  0  0  0  0  0  0  0  0  0  0  0
    5.2171   -1.3802    3.5406 C   0  0  0  0  0  0  0  0  0  0  0  0
    4.9098   -1.6903    2.2172 C   0  0  0  0  0  0  0  0  0  0  0  0
    5.0334   -2.2208    4.7874 C   0  0  0  0  0  0  0  0  0  0  0  0
    5.9382   -1.5145    5.8254 C   0  0  0  0  0  0  0  0  0  0  0  0
    5.9972   -0.0367    5.3688 C   0  0  0  0  0  0  0  0  0  0  0  0
    5.3506   -2.3837   -0.6111 N   0  0  0  0  0  0  0  0  0  0  0  0
    4.8659   -3.0755   -1.8057 C   0  0  0  0  0  0  0  0  0  0  0  0
    5.4521   -2.5257   -3.1132 C   0  0  0  0  0  0  0  0  0  0  0  0
    6.9071   -2.5904   -3.0414 N   0  0  0  0  0  0  0  0  0  0  0  0
    7.4384   -1.8622   -1.8941 C   0  0  0  0  0  0  0  0  0  0  0  0
    6.8161   -2.4173   -0.6049 C   0  0  0  0  0  0  0  0  0  0  0  0
    2.3323    2.3468   -0.5541 H   0  0  0  0  0  0  0  0  0  0  0  0
    2.6341    1.2647   -1.9336 H   0  0  0  0  0  0  0  0  0  0  0  0
    3.9567    1.6861   -0.8208 H   0  0  0  0  0  0  0  0  0  0  0  0
    2.7935    0.4659    1.0363 H   0  0  0  0  0  0  0  0  0  0  0  0
    0.6434   -0.2351   -1.0507 H   0  0  0  0  0  0  0  0  0  0  0  0
    0.4472    0.9067    0.2991 H   0  0  0  0  0  0  0  0  0  0  0  0
    0.6990   -0.8247    0.6275 H   0  0  0  0  0  0  0  0  0  0  0  0
    3.0023   -1.2216   -1.4978 H   0  0  0  0  0  0  0  0  0  0  0  0
    2.8225   -1.9057    0.1219 H   0  0  0  0  0  0  0  0  0  0  0  0
    5.1951   -0.2574   -0.8758 H   0  0  0  0  0  0  0  0  0  0  0  0
    5.9160    1.2208    0.7569 H   0  0  0  0  0  0  0  0  0  0  0  0
    6.4582    1.7803    3.1159 H   0  0  0  0  0  0  0  0  0  0  0  0
    4.5106   -2.6713    1.9472 H   0  0  0  0  0  0  0  0  0  0  0  0
    5.2921   -3.2815    4.6391 H   0  0  0  0  0  0  0  0  0  0  0  0
    3.9740   -2.1969    5.1062 H   0  0  0  0  0  0  0  0  0  0  0  0
    6.9510   -1.9485    5.7765 H   0  0  0  0  0  0  0  0  0  0  0  0
    5.5827   -1.6329    6.8604 H   0  0  0  0  0  0  0  0  0  0  0  0
    6.9439    0.4598    5.6361 H   0  0  0  0  0  0  0  0  0  0  0  0
    5.1883    0.5540    5.8394 H   0  0  0  0  0  0  0  0  0  0  0  0
    3.7692   -3.0726   -1.8417 H   0  0  0  0  0  0  0  0  0  0  0  0
    5.1795   -4.1314   -1.7198 H   0  0  0  0  0  0  0  0  0  0  0  0
    5.0686   -1.4917   -3.2820 H   0  0  0  0  0  0  0  0  0  0  0  0
    5.1034   -3.1394   -3.9613 H   0  0  0  0  0  0  0  0  0  0  0  0
    7.3283   -2.2590   -3.9066 H   0  0  0  0  0  0  0  0  0  0  0  0
    7.2469   -0.7654   -1.9525 H   0  0  0  0  0  0  0  0  0  0  0  0
    8.5332   -1.9920   -1.8577 H   0  0  0  0  0  0  0  0  0  0  0  0
    7.1942   -1.8672    0.2687 H   0  0  0  0  0  0  0  0  0  0  0  0
    7.1338   -3.4699   -0.4970 H   0  0  0  0  0  0  0  0  0  0  0  0
  1  2  1  0
  1 21  1  0
  1 22  1  0
  1 23  1  0
  2  3  1  0
  2  4  1  0
  2 24  1  1
  3 25  1  0
  3 26  1  0
  3 27  1  0
  4  5  1  0
  4 28  1  0
  4 29  1  0
  5  6  1  0
  5 15  1  0
  5 30  1  6
  6  7  2  0
  6 11  1  0
  7  8  1  0
  7 31  1  0
  8  9  2  0
  8 32  1  0
  9 10  1  0
  9 14  1  0
 10 11  2  0
 10 12  1  0
 11 33  1  0
 12 13  1  0
 12 34  1  0
 12 35  1  0
 13 14  1  0
 13 36  1  0
 13 37  1  0
 14 38  1  0
 14 39  1  0
 15 16  1  0
 15 20  1  0
 16 17  1  0
 16 40  1  0
 16 41  1  0
 17 18  1  0
 17 42  1  0
 17 43  1  0
 18 19  1  0
 18 44  1  0
 19 20  1  0
 19 45  1  0
 19 46  1  0
 20 47  1  0
 20 48  1  0
M  END

