
     RDKit          3D

 60 63  0  0  0  0  0  0  0  0999 V2000
    2.7726    1.5952    3.7136 C   0  0  0  0  0  0  0  0  0  0  0  0
    3.5982    1.0691    2.5857 C   0  0  0  0  0  0  0  0  0  0  0  0
    3.7988   -0.3247    2.4343 C   0  0  0  0  0  0  0  0  0  0  0  0
    4.5518   -0.8590    1.4141 C   0  0  0  0  0  0  0  0  0  0  0  0
    5.1607    0.0321    0.4623 C   0  0  0  0  0  0  0  0  0  0  0  0
    5.9127   -0.3852   -0.5712 N   0  0  0  0  0  0  0  0  0  0  0  0
    6.2874   -1.7646   -0.9213 C   0  0  0  0  0  0  0  0  0  0  0  0
    5.9404   -2.6830   -0.2130 O   0  0  0  0  0  0  0  0  0  0  0  0
    7.0120   -1.8313   -2.0429 N   0  0  0  0  0  0  0  0  0  0  0  0
    7.4069   -0.7256   -2.9415 C   0  0  0  0  0  0  0  0  0  0  0  0
    8.0178   -1.4491   -4.1463 C   0  0  0  0  0  0  0  0  0  0  0  0
    8.6155   -2.7293   -3.5402 C   0  0  2  0  0  0  0  0  0  0  0  0
    8.9701   -3.8037   -4.5667 C   0  0  0  0  0  0  0  0  0  0  0  0
    9.6955   -4.9657   -3.9528 C   0  0  0  0  0  0  0  0  0  0  0  0
    9.7125   -5.2594   -2.6635 N   0  0  0  0  0  0  0  0  0  0  0  0
   10.5190   -6.3643   -2.5541 C   0  0  0  0  0  0  0  0  0  0  0  0
   10.9952   -6.7442   -3.7931 C   0  0  0  0  0  0  0  0  0  0  0  0
   11.9222   -7.8418   -4.1980 C   0  0  0  0  0  0  0  0  0  0  0  0
   10.4473   -5.8407   -4.6846 N   0  0  0  0  0  0  0  0  0  0  0  0
   10.6765   -5.7773   -6.1339 C   0  0  0  0  0  0  0  0  0  0  0  0
   11.6827   -4.7579   -6.5976 C   0  0  0  0  0  0  0  0  0  0  0  0
   12.5590   -4.0909   -5.7531 C   0  0  0  0  0  0  0  0  0  0  0  0
   13.5148   -3.1654   -6.2330 C   0  0  0  0  0  0  0  0  0  0  0  0
   13.5837   -2.9347   -7.6631 C   0  0  0  0  0  0  0  0  0  0  0  0
   12.7189   -3.6026   -8.5115 C   0  0  0  0  0  0  0  0  0  0  0  0
   11.7452   -4.5165   -8.0357 C   0  0  0  0  0  0  0  0  0  0  0  0
    7.5635   -3.1333   -2.4999 C   0  0  0  0  0  0  0  0  0  0  0  0
    4.9575    1.4465    0.6133 C   0  0  0  0  0  0  0  0  0  0  0  0
    4.2022    1.9712    1.6373 C   0  0  0  0  0  0  0  0  0  0  0  0
    4.0078    3.4565    1.7707 C   0  0  0  0  0  0  0  0  0  0  0  0
    2.3904    0.7890    4.3519 H   0  0  0  0  0  0  0  0  0  0  0  0
    1.9154    2.1772    3.3349 H   0  0  0  0  0  0  0  0  0  0  0  0
    3.3588    2.2889    4.3393 H   0  0  0  0  0  0  0  0  0  0  0  0
    3.3379   -1.0000    3.1570 H   0  0  0  0  0  0  0  0  0  0  0  0
    4.7087   -1.9282    1.3022 H   0  0  0  0  0  0  0  0  0  0  0  0
    6.2849    0.3475   -1.1688 H   0  0  0  0  0  0  0  0  0  0  0  0
    8.1580   -0.0806   -2.4493 H   0  0  0  0  0  0  0  0  0  0  0  0
    6.5389   -0.1070   -3.2259 H   0  0  0  0  0  0  0  0  0  0  0  0
    8.7591   -0.8292   -4.6688 H   0  0  0  0  0  0  0  0  0  0  0  0
    7.2254   -1.7065   -4.8689 H   0  0  0  0  0  0  0  0  0  0  0  0
    9.5373   -2.4629   -2.9954 H   0  0  0  0  0  0  0  0  0  0  0  0
    9.6121   -3.3613   -5.3442 H   0  0  0  0  0  0  0  0  0  0  0  0
    8.0476   -4.1409   -5.0802 H   0  0  0  0  0  0  0  0  0  0  0  0
   10.7302   -6.8344   -1.5936 H   0  0  0  0  0  0  0  0  0  0  0  0
   12.2851   -8.3689   -3.3037 H   0  0  0  0  0  0  0  0  0  0  0  0
   12.7954   -7.4492   -4.7440 H   0  0  0  0  0  0  0  0  0  0  0  0
   11.4339   -8.5860   -4.8511 H   0  0  0  0  0  0  0  0  0  0  0  0
    9.6939   -5.5869   -6.6127 H   0  0  0  0  0  0  0  0  0  0  0  0
   10.9436   -6.8022   -6.4586 H   0  0  0  0  0  0  0  0  0  0  0  0
   12.5146   -4.2888   -4.6759 H   0  0  0  0  0  0  0  0  0  0  0  0
   14.1927   -2.6587   -5.5452 H   0  0  0  0  0  0  0  0  0  0  0  0
   14.3239   -2.2409   -8.0719 H   0  0  0  0  0  0  0  0  0  0  0  0
   12.7878   -3.4206   -9.5910 H   0  0  0  0  0  0  0  0  0  0  0  0
   11.0733   -5.0376   -8.7204 H   0  0  0  0  0  0  0  0  0  0  0  0
    7.9880   -3.7042   -1.6669 H   0  0  0  0  0  0  0  0  0  0  0  0
    6.7521   -3.7332   -2.9465 H   0  0  0  0  0  0  0  0  0  0  0  0
    5.4230    2.1176   -0.1118 H   0  0  0  0  0  0  0  0  0  0  0  0
    4.5296    4.0029    0.9744 H   0  0  0  0  0  0  0  0  0  0  0  0
    4.3860    3.8207    2.7390 H   0  0  0  0  0  0  0  0  0  0  0  0
    2.9399    3.7230    1.7248 H   0  0  0  0  0  0  0  0  0  0  0  0
  1  2  1  0
  1 31  1  0
  1 32  1  0
  1 33  1  0
  2  3  2  0
  2 29  1  0
  3  4  1  0
  3 34  1  0
  4  5  2  0
  4 35  1  0
  5  6  1  0
  5 28  1  0
  6  7  1  0
  6 36  1  0
  7  8  2  0
  7  9  1  0
  9 10  1  0
  9 27  1  0
 10 11  1  0
 10 37  1  0
 10 38  1  0
 11 12  1  0
 11 39  1  0
 11 40  1  0
 12 13  1  0
 12 27  1  0
 12 41  1  1
 13 14  1  0
 13 42  1  0
 13 43  1  0
 14 15  2  0
 14 19  1  0
 15 16  1  0
 16 17  2  0
 16 44  1  0
 17 18  1  0
 17 19  1  0
 18 45  1  0
 18 46  1  0
 18 47  1  0
 19 20  1  0
 20 21  1  0
 20 48  1  0
 20 49  1  0
 21 22  2  0
 21 26  1  0
 22 23  1  0
 22 50  1  0
 23 24  2  0
 23 51  1  0
 24 25  1  0
 24 52  1  0
 25 26  2  0
 25 53  1  0
 26 54  1  0
 27 55  1  0
 27 56  1  0
 28 29  2  0
 28 57  1  0
 29 30  1  0
 30 58  1  0
 30 59  1  0
 30 60  1  0
M  END

