
     RDKit          3D

 49 51  0  0  0  0  0  0  0  0999 V2000
    0.3946   -0.8338   -0.4377 C   0  0  0  0  0  0  0  0  0  0  0  0
    1.7809   -0.5305   -0.1382 N   0  0  0  0  0  0  0  0  0  0  0  0
    2.7212   -1.6163   -0.3905 C   0  0  0  0  0  0  0  0  0  0  0  0
    3.0878   -1.7986   -1.8794 C   0  0  0  0  0  0  0  0  0  0  0  0
    3.4903   -0.4978   -2.6143 C   0  0  2  0  0  0  0  0  0  0  0  0
    4.9373   -0.1991   -2.5401 N   0  0  0  0  0  0  0  0  0  0  0  0
    5.6691   -0.3439   -1.2911 C   0  0  0  0  0  0  0  0  0  0  0  0
    5.4912    0.3435   -3.6810 C   0  0  0  0  0  0  0  0  0  0  0  0
    4.8162    0.8124   -4.5812 O   0  0  0  0  0  0  0  0  0  0  0  0
    6.9163    0.3267   -3.7556 N   0  0  0  0  0  0  0  0  0  0  0  0
    7.6434   -0.8674   -3.4780 C   0  0  0  0  0  0  0  0  0  0  0  0
    7.1149   -2.1265   -3.8059 C   0  0  0  0  0  0  0  0  0  0  0  0
    7.8303   -3.2908   -3.5123 C   0  0  0  0  0  0  0  0  0  0  0  0
    9.0900   -3.2171   -2.9119 C   0  0  0  0  0  0  0  0  0  0  0  0
    9.6280   -1.9631   -2.6010 C   0  0  0  0  0  0  0  0  0  0  0  0
    8.9106   -0.7979   -2.8723 C   0  0  0  0  0  0  0  0  0  0  0  0
    7.5396    1.3643   -4.5151 C   0  0  0  0  0  0  0  0  0  0  0  0
    7.2135    2.7066   -4.2618 C   0  0  0  0  0  0  0  0  0  0  0  0
    7.8147    3.7288   -4.9958 C   0  0  0  0  0  0  0  0  0  0  0  0
    8.7625    3.4325   -5.9811 C   0  0  0  0  0  0  0  0  0  0  0  0
    9.0923    2.0981   -6.2320 C   0  0  0  0  0  0  0  0  0  0  0  0
    8.4810    1.0685   -5.5126 C   0  0  0  0  0  0  0  0  0  0  0  0
    2.5759    0.6795   -2.1933 C   0  0  0  0  0  0  0  0  0  0  0  0
    2.2704    0.7319   -0.6858 C   0  0  0  0  0  0  0  0  0  0  0  0
    0.0833   -1.7317    0.1212 H   0  0  0  0  0  0  0  0  0  0  0  0
    0.1618   -1.0181   -1.5104 H   0  0  0  0  0  0  0  0  0  0  0  0
   -0.2462   -0.0007   -0.1053 H   0  0  0  0  0  0  0  0  0  0  0  0
    2.2931   -2.5545   -0.0006 H   0  0  0  0  0  0  0  0  0  0  0  0
    3.6299   -1.4263    0.2057 H   0  0  0  0  0  0  0  0  0  0  0  0
    2.2039   -2.1970   -2.4055 H   0  0  0  0  0  0  0  0  0  0  0  0
    3.8752   -2.5621   -1.9938 H   0  0  0  0  0  0  0  0  0  0  0  0
    3.3152   -0.6508   -3.6865 H   0  0  0  0  0  0  0  0  0  0  0  0
    5.0958    0.0875   -0.4582 H   0  0  0  0  0  0  0  0  0  0  0  0
    6.6172    0.2007   -1.3516 H   0  0  0  0  0  0  0  0  0  0  0  0
    5.8977   -1.3954   -1.0477 H   0  0  0  0  0  0  0  0  0  0  0  0
    6.1451   -2.1919   -4.3029 H   0  0  0  0  0  0  0  0  0  0  0  0
    7.4036   -4.2628   -3.7733 H   0  0  0  0  0  0  0  0  0  0  0  0
    9.6510   -4.1284   -2.6918 H   0  0  0  0  0  0  0  0  0  0  0  0
   10.6128   -1.8907   -2.1320 H   0  0  0  0  0  0  0  0  0  0  0  0
    9.3285    0.1786   -2.6184 H   0  0  0  0  0  0  0  0  0  0  0  0
    6.4793    2.9464   -3.4902 H   0  0  0  0  0  0  0  0  0  0  0  0
    7.5453    4.7679   -4.7893 H   0  0  0  0  0  0  0  0  0  0  0  0
    9.2373    4.2355   -6.5499 H   0  0  0  0  0  0  0  0  0  0  0  0
    9.8240    1.8501   -7.0054 H   0  0  0  0  0  0  0  0  0  0  0  0
    8.7321    0.0286   -5.7277 H   0  0  0  0  0  0  0  0  0  0  0  0
    1.6253    0.5690   -2.7435 H   0  0  0  0  0  0  0  0  0  0  0  0
    3.0183    1.6237   -2.5457 H   0  0  0  0  0  0  0  0  0  0  0  0
    1.5252    1.5185   -0.4812 H   0  0  0  0  0  0  0  0  0  0  0  0
    3.1769    1.0206   -0.1233 H   0  0  0  0  0  0  0  0  0  0  0  0
  1  2  1  0
  1 25  1  0
  1 26  1  0
  1 27  1  0
  2  3  1  0
  2 24  1  0
  3  4  1  0
  3 28  1  0
  3 29  1  0
  4  5  1  0
  4 30  1  0
  4 31  1  0
  5  6  1  0
  5 23  1  0
  5 32  1  6
  6  7  1  0
  6  8  1  0
  7 33  1  0
  7 34  1  0
  7 35  1  0
  8  9  2  0
  8 10  1  0
 10 11  1  0
 10 17  1  0
 11 12  2  0
 11 16  1  0
 12 13  1  0
 12 36  1  0
 13 14  2  0
 13 37  1  0
 14 15  1  0
 14 38  1  0
 15 16  2  0
 15 39  1  0
 16 40  1  0
 17 18  2  0
 17 22  1  0
 18 19  1  0
 18 41  1  0
 19 20  2  0
 19 42  1  0
 20 21  1  0
 20 43  1  0
 21 22  2  0
 21 44  1  0
 22 45  1  0
 23 24  1  0
 23 46  1  0
 23 47  1  0
 24 48  1  0
 24 49  1  0
M  END

