
     RDKit          3D

 31 32  0  0  0  0  0  0  0  0999 V2000
    5.5466   -1.5403    0.5731 C   0  0  0  0  0  0  0  0  0  0  0  0
    4.4168   -0.5846    0.2705 C   0  0  0  0  0  0  0  0  0  0  0  0
    4.6954    0.7723    0.1853 C   0  0  0  0  0  0  0  0  0  0  0  0
    3.7210    1.7573   -0.0930 C   0  0  0  0  0  0  0  0  0  0  0  0
    2.4168    1.3060   -0.2847 C   0  0  0  0  0  0  0  0  0  0  0  0
    1.4432    2.2139   -0.5456 F   0  0  0  0  0  0  0  0  0  0  0  0
    2.0674   -0.0271   -0.2158 C   0  0  0  0  0  0  0  0  0  0  0  0
    3.0529   -1.0453    0.0590 C   0  0  0  0  0  0  0  0  0  0  0  0
    2.6932   -2.4253    0.1322 C   0  0  0  0  0  0  0  0  0  0  0  0
    3.4605   -3.3937    0.4260 O   0  0  0  0  0  0  0  0  0  0  0  0
    1.1912   -2.7382   -0.1243 C   0  0  0  0  0  0  0  0  0  0  0  0
    0.8935   -4.1725   -0.3132 N   0  0  0  0  0  0  0  0  0  0  0  0
    1.5454   -5.2528    0.1782 C   0  0  0  0  0  0  0  0  0  0  0  0
    0.7882   -6.3112   -0.2837 C   0  0  0  0  0  0  0  0  0  0  0  0
    0.9076   -7.8019   -0.1611 C   0  0  0  0  0  0  0  0  0  0  0  0
   -0.1735   -8.3936   -0.8910 N   0  0  0  0  0  0  0  0  0  0  0  0
   -0.2470   -5.8242   -1.0054 N   0  0  0  0  0  0  0  0  0  0  0  0
   -0.1812   -4.5254   -1.0185 N   0  0  0  0  0  0  0  0  0  0  0  0
    6.4924   -0.9861    0.6865 H   0  0  0  0  0  0  0  0  0  0  0  0
    5.6700   -2.2941   -0.2193 H   0  0  0  0  0  0  0  0  0  0  0  0
    5.3602   -2.1182    1.4907 H   0  0  0  0  0  0  0  0  0  0  0  0
    5.7287    1.0967    0.3423 H   0  0  0  0  0  0  0  0  0  0  0  0
    3.9588    2.8186   -0.1548 H   0  0  0  0  0  0  0  0  0  0  0  0
    1.0151   -0.2614   -0.3689 H   0  0  0  0  0  0  0  0  0  0  0  0
    0.8098   -2.2491   -1.0291 H   0  0  0  0  0  0  0  0  0  0  0  0
    0.5619   -2.3899    0.7125 H   0  0  0  0  0  0  0  0  0  0  0  0
    2.4750   -5.1020    0.7228 H   0  0  0  0  0  0  0  0  0  0  0  0
    0.8476   -8.1912    0.8727 H   0  0  0  0  0  0  0  0  0  0  0  0
    1.8428   -8.2275   -0.5701 H   0  0  0  0  0  0  0  0  0  0  0  0
   -0.7999   -7.6995   -1.3424 H   0  0  0  0  0  0  0  0  0  0  0  0
   -0.3130   -9.3975   -0.9635 H   0  0  0  0  0  0  0  0  0  0  0  0
  1  2  1  0
  1 19  1  0
  1 20  1  0
  1 21  1  0
  2  3  2  0
  2  8  1  0
  3  4  1  0
  3 22  1  0
  4  5  2  0
  4 23  1  0
  5  6  1  0
  5  7  1  0
  7  8  2  0
  7 24  1  0
  8  9  1  0
  9 10  2  0
  9 11  1  0
 11 12  1  0
 11 25  1  0
 11 26  1  0
 12 13  1  0
 12 18  1  0
 13 14  2  0
 13 27  1  0
 14 15  1  0
 14 17  1  0
 15 16  1  0
 15 28  1  0
 15 29  1  0
 16 30  1  0
 16 31  1  0
 17 18  2  0
M  END

