
     RDKit          3D

 75 81  0  0  0  0  0  0  0  0999 V2000
    0.8830    2.0340   -0.4767 C   0  0  0  0  0  0  0  0  0  0  0  0
    2.2938    1.8696   -0.3631 O   0  0  0  0  0  0  0  0  0  0  0  0
    2.7164    0.9678    0.5482 C   0  0  0  0  0  0  0  0  0  0  0  0
    1.9528    0.3289    1.2372 O   0  0  0  0  0  0  0  0  0  0  0  0
    4.2020    0.8577    0.6007 C   0  0  0  0  0  0  0  0  0  0  0  0
    4.7521   -0.0630    1.5283 C   0  0  0  0  0  0  0  0  0  0  0  0
    6.1243   -0.2399    1.6549 C   0  0  0  0  0  0  0  0  0  0  0  0
    6.9463    0.5330    0.8208 C   0  0  0  0  0  0  0  0  0  0  0  0
    6.4142    1.4609   -0.1116 C   0  0  0  0  0  0  0  0  0  0  0  0
    5.0289    1.6263   -0.2264 C   0  0  0  0  0  0  0  0  0  0  0  0
    7.4432    2.0803   -0.7945 N   0  0  0  0  0  0  0  0  0  0  0  0
    8.5519    1.5640   -0.3144 C   0  0  0  0  0  0  0  0  0  0  0  0
    9.9300    1.8621   -0.7820 C   0  0  0  0  0  0  0  0  0  0  0  0
   10.6164    0.8522   -1.4774 C   0  0  0  0  0  0  0  0  0  0  0  0
   11.9500    0.9893   -1.9028 C   0  0  0  0  0  0  0  0  0  0  0  0
   12.6657    2.1481   -1.6260 C   0  0  0  0  0  0  0  0  0  0  0  0
   12.0101    3.1808   -0.9393 C   0  0  0  0  0  0  0  0  0  0  0  0
   12.5212    4.3819   -0.5243 N   0  0  0  0  0  0  0  0  0  0  0  0
   11.5342    5.0010    0.0884 C   0  0  0  0  0  0  0  0  0  0  0  0
   11.7396    6.3191    0.6886 C   0  0  0  0  0  0  0  0  0  0  0  0
   12.8044    7.1438    0.3714 C   0  0  0  0  0  0  0  0  0  0  0  0
   12.8516    8.3299    1.1519 C   0  0  0  0  0  0  0  0  0  0  0  0
   11.8307    8.4006    2.0685 C   0  0  0  0  0  0  0  0  0  0  0  0
   10.7991    7.0200    1.9869 S   0  0  0  0  0  0  0  0  0  0  0  0
   10.3516    4.2595    0.1001 N   0  0  0  0  0  0  0  0  0  0  0  0
    9.0194    4.7658    0.4324 C   0  0  0  0  0  0  0  0  0  0  0  0
    8.5041    5.8316   -0.5508 C   0  0  1  0  0  0  0  0  0  0  0  0
    8.1636    5.3269   -1.9771 C   0  0  0  0  0  0  0  0  0  0  0  0
    6.6275    5.3733   -2.0149 C   0  0  0  0  0  0  0  0  0  0  0  0
    6.3170    6.4788   -1.0076 C   0  0  0  0  0  0  0  0  0  0  0  0
    7.2939    6.3301    0.0122 O   0  0  0  0  0  0  0  0  0  0  0  0
   10.6457    3.0594   -0.5452 C   0  0  0  0  0  0  0  0  0  0  0  0
    8.3168    0.6086    0.6726 N   0  0  0  0  0  0  0  0  0  0  0  0
    9.2967   -0.0785    1.5087 C   0  0  0  0  0  0  0  0  0  0  0  0
    9.5944    0.6710    2.8153 C   0  0  0  0  0  0  0  0  0  0  0  0
   10.5597   -0.0573    3.7755 C   0  0  1  0  0  0  0  0  0  0  0  0
   10.0176   -1.4006    4.2201 C   0  0  0  0  0  0  0  0  0  0  0  0
   10.7719   -2.4956    4.3898 C   0  0  0  0  0  0  0  0  0  0  0  0
   12.2656   -2.5144    4.1848 C   0  0  0  0  0  0  0  0  0  0  0  0
   12.8512   -1.0978    4.1104 C   0  0  0  0  0  0  0  0  0  0  0  0
   11.9918   -0.1905    3.2236 C   0  0  0  0  0  0  0  0  0  0  0  0
    0.7240    2.7944   -1.2516 H   0  0  0  0  0  0  0  0  0  0  0  0
    0.4473    2.3659    0.4783 H   0  0  0  0  0  0  0  0  0  0  0  0
    0.3987    1.0885   -0.7657 H   0  0  0  0  0  0  0  0  0  0  0  0
    4.0581   -0.6347    2.1468 H   0  0  0  0  0  0  0  0  0  0  0  0
    6.5343   -0.9515    2.3741 H   0  0  0  0  0  0  0  0  0  0  0  0
    4.6044    2.3323   -0.9396 H   0  0  0  0  0  0  0  0  0  0  0  0
   10.0826   -0.0762   -1.6955 H   0  0  0  0  0  0  0  0  0  0  0  0
   12.4229    0.1679   -2.4461 H   0  0  0  0  0  0  0  0  0  0  0  0
   13.7096    2.2721   -1.9202 H   0  0  0  0  0  0  0  0  0  0  0  0
   13.5226    6.8708   -0.4011 H   0  0  0  0  0  0  0  0  0  0  0  0
   13.6105    9.1053    1.0382 H   0  0  0  0  0  0  0  0  0  0  0  0
   11.6171    9.1921    2.7856 H   0  0  0  0  0  0  0  0  0  0  0  0
    9.0193    5.1939    1.4445 H   0  0  0  0  0  0  0  0  0  0  0  0
    8.3196    3.9256    0.4366 H   0  0  0  0  0  0  0  0  0  0  0  0
    9.2459    6.6494   -0.6046 H   0  0  0  0  0  0  0  0  0  0  0  0
    8.5453    4.3152   -2.1715 H   0  0  0  0  0  0  0  0  0  0  0  0
    8.5994    6.0035   -2.7285 H   0  0  0  0  0  0  0  0  0  0  0  0
    6.2213    4.4116   -1.6682 H   0  0  0  0  0  0  0  0  0  0  0  0
    6.2259    5.5773   -3.0191 H   0  0  0  0  0  0  0  0  0  0  0  0
    5.3223    6.3978   -0.5422 H   0  0  0  0  0  0  0  0  0  0  0  0
    6.3939    7.4814   -1.4782 H   0  0  0  0  0  0  0  0  0  0  0  0
   10.2101   -0.2074    0.9156 H   0  0  0  0  0  0  0  0  0  0  0  0
    8.9082   -1.0865    1.7210 H   0  0  0  0  0  0  0  0  0  0  0  0
    8.6410    0.8539    3.3402 H   0  0  0  0  0  0  0  0  0  0  0  0
   10.0093    1.6631    2.5687 H   0  0  0  0  0  0  0  0  0  0  0  0
   10.6121    0.5857    4.6767 H   0  0  0  0  0  0  0  0  0  0  0  0
    8.9413   -1.4555    4.4253 H   0  0  0  0  0  0  0  0  0  0  0  0
   10.2950   -3.4309    4.7045 H   0  0  0  0  0  0  0  0  0  0  0  0
   12.5011   -3.0765    3.2596 H   0  0  0  0  0  0  0  0  0  0  0  0
   12.7438   -3.0873    4.9986 H   0  0  0  0  0  0  0  0  0  0  0  0
   13.8879   -1.1310    3.7383 H   0  0  0  0  0  0  0  0  0  0  0  0
   12.8968   -0.6706    5.1282 H   0  0  0  0  0  0  0  0  0  0  0  0
   11.9651   -0.6169    2.2052 H   0  0  0  0  0  0  0  0  0  0  0  0
   12.4479    0.8088    3.1285 H   0  0  0  0  0  0  0  0  0  0  0  0
  1  2  1  0
  1 42  1  0
  1 43  1  0
  1 44  1  0
  2  3  1  0
  3  4  2  0
  3  5  1  0
  5  6  2  0
  5 10  1  0
  6  7  1  0
  6 45  1  0
  7  8  2  0
  7 46  1  0
  8  9  1  0
  8 33  1  0
  9 10  2  0
  9 11  1  0
 10 47  1  0
 11 12  2  0
 12 13  1  0
 12 33  1  0
 13 14  2  0
 13 32  1  0
 14 15  1  0
 14 48  1  0
 15 16  2  0
 15 49  1  0
 16 17  1  0
 16 50  1  0
 17 18  1  0
 17 32  2  0
 18 19  2  0
 19 20  1  0
 19 25  1  0
 20 21  2  0
 20 24  1  0
 21 22  1  0
 21 51  1  0
 22 23  2  0
 22 52  1  0
 23 24  1  0
 23 53  1  0
 25 26  1  0
 25 32  1  0
 26 27  1  0
 26 54  1  0
 26 55  1  0
 27 28  1  0
 27 31  1  0
 27 56  1  6
 28 29  1  0
 28 57  1  0
 28 58  1  0
 29 30  1  0
 29 59  1  0
 29 60  1  0
 30 31  1  0
 30 61  1  0
 30 62  1  0
 33 34  1  0
 34 35  1  0
 34 63  1  0
 34 64  1  0
 35 36  1  0
 35 65  1  0
 35 66  1  0
 36 37  1  0
 36 41  1  0
 36 67  1  1
 37 38  2  0
 37 68  1  0
 38 39  1  0
 38 69  1  0
 39 40  1  0
 39 70  1  0
 39 71  1  0
 40 41  1  0
 40 72  1  0
 40 73  1  0
 41 74  1  0
 41 75  1  0
M  END

