
     RDKit          3D

 42 47  0  0  0  0  0  0  0  0999 V2000
    6.9507   -5.4188    8.3713 C   0  0  0  0  0  0  0  0  0  0  0  0
    7.0512   -5.8661    6.9603 C   0  0  0  0  0  0  0  0  0  0  0  0
    7.4481   -7.1614    6.5046 C   0  0  0  0  0  0  0  0  0  0  0  0
    7.4694   -7.3542    5.1931 N   0  0  0  0  0  0  0  0  0  0  0  0
    7.0985   -6.2606    4.5429 C   0  0  0  0  0  0  0  0  0  0  0  0
    7.0130   -6.1588    3.2057 N   0  0  0  0  0  0  0  0  0  0  0  0
    7.2904   -7.2443    2.2235 C   0  0  0  0  0  0  0  0  0  0  0  0
    7.6385   -8.3310    2.5420 O   0  0  0  0  0  0  0  0  0  0  0  0
    7.0591   -6.6552    0.8509 C   0  0  1  0  0  0  0  0  0  0  0  0
    5.8604   -7.3397    0.1219 C   0  0  1  0  0  0  0  0  0  0  0  0
    4.7968   -6.8074    0.9429 O   0  0  0  0  0  0  0  0  0  0  0  0
    4.9839   -5.4037    0.6295 C   0  0  2  0  0  0  0  0  0  0  0  0
    4.7869   -5.4846   -0.8829 C   0  0  1  0  0  0  0  0  0  0  0  0
    4.9065   -4.7396   -2.1902 C   0  0  0  0  0  0  0  0  0  0  0  0
    4.7270   -3.3607   -2.4497 C   0  0  0  0  0  0  0  0  0  0  0  0
    4.8654   -2.8320   -3.7835 C   0  0  0  0  0  0  0  0  0  0  0  0
    4.6963   -1.4852   -4.0483 C   0  0  0  0  0  0  0  0  0  0  0  0
    4.3747   -0.5876   -3.0119 C   0  0  0  0  0  0  0  0  0  0  0  0
    4.1523    1.1279   -3.3579 Cl  0  0  0  0  0  0  0  0  0  0  0  0
    4.2199   -1.0666   -1.6970 C   0  0  0  0  0  0  0  0  0  0  0  0
    4.3898   -2.4139   -1.4245 C   0  0  0  0  0  0  0  0  0  0  0  0
    5.1075   -5.6779   -3.1570 N   0  0  0  0  0  0  0  0  0  0  0  0
    5.3689   -6.9885   -2.4749 O   0  0  0  0  0  0  0  0  0  0  0  0
    5.7962   -6.5668   -1.2252 C   0  0  2  0  0  0  0  0  0  0  0  0
    6.4940   -5.2208    1.0636 C   0  0  1  0  0  0  0  0  0  0  0  0
    6.5898   -4.9473    2.5340 C   0  0  0  0  0  0  0  0  0  0  0  0
    6.3578   -3.9466    3.1540 O   0  0  0  0  0  0  0  0  0  0  0  0
    6.6923   -4.8563    5.6175 S   0  0  0  0  0  0  0  0  0  0  0  0
    7.2451   -6.2239    9.0575 H   0  0  0  0  0  0  0  0  0  0  0  0
    5.9198   -5.1085    8.6115 H   0  0  0  0  0  0  0  0  0  0  0  0
    7.5949   -4.5425    8.5538 H   0  0  0  0  0  0  0  0  0  0  0  0
    7.7250   -7.9698    7.1850 H   0  0  0  0  0  0  0  0  0  0  0  0
    8.0037   -6.7041    0.2904 H   0  0  0  0  0  0  0  0  0  0  0  0
    5.8483   -8.4355    0.1324 H   0  0  0  0  0  0  0  0  0  0  0  0
    4.2737   -4.7993    1.2065 H   0  0  0  0  0  0  0  0  0  0  0  0
    3.8073   -5.9984   -0.9220 H   0  0  0  0  0  0  0  0  0  0  0  0
    5.1136   -3.5242   -4.5892 H   0  0  0  0  0  0  0  0  0  0  0  0
    4.8095   -1.1064   -5.0668 H   0  0  0  0  0  0  0  0  0  0  0  0
    3.9611   -0.3683   -0.8983 H   0  0  0  0  0  0  0  0  0  0  0  0
    4.2511   -2.7593   -0.3963 H   0  0  0  0  0  0  0  0  0  0  0  0
    6.7901   -6.0920   -1.3753 H   0  0  0  0  0  0  0  0  0  0  0  0
    6.9875   -4.4166    0.5029 H   0  0  0  0  0  0  0  0  0  0  0  0
  1  2  1  0
  1 29  1  0
  1 30  1  0
  1 31  1  0
  2  3  2  0
  2 28  1  0
  3  4  1  0
  3 32  1  0
  4  5  2  0
  5  6  1  0
  5 28  1  0
  6  7  1  0
  6 26  1  0
  7  8  2  0
  7  9  1  0
  9 10  1  0
  9 25  1  0
  9 33  1  6
 10 11  1  0
 10 24  1  0
 10 34  1  6
 11 12  1  0
 12 13  1  0
 12 25  1  0
 12 35  1  1
 13 14  1  0
 13 24  1  0
 13 36  1  1
 14 15  1  0
 14 22  2  0
 15 16  2  0
 15 21  1  0
 16 17  1  0
 16 37  1  0
 17 18  2  0
 17 38  1  0
 18 19  1  0
 18 20  1  0
 20 21  2  0
 20 39  1  0
 21 40  1  0
 22 23  1  0
 23 24  1  0
 24 41  1  6
 25 26  1  0
 25 42  1  6
 26 27  2  0
M  END

