
     RDKit          3D

 58 61  0  0  0  0  0  0  0  0999 V2000
    4.6729    0.1218   -4.5670 C   0  0  0  0  0  0  0  0  0  0  0  0
    4.8082   -0.0369   -3.0519 C   0  0  0  0  0  0  0  0  0  0  0  0
    5.2887    1.1626   -2.3921 N   0  0  0  0  0  0  0  0  0  0  0  0
    4.5162    1.9354   -1.5929 C   0  0  0  0  0  0  0  0  0  0  0  0
    3.3497    1.7110   -1.2997 O   0  0  0  0  0  0  0  0  0  0  0  0
    5.2232    3.1576   -1.0461 C   0  0  0  0  0  0  0  0  0  0  0  0
    4.5249    4.0370   -0.1928 C   0  0  0  0  0  0  0  0  0  0  0  0
    5.2057    5.1379    0.2776 C   0  0  0  0  0  0  0  0  0  0  0  0
    6.5450    5.2775   -0.1463 C   0  0  0  0  0  0  0  0  0  0  0  0
    7.2106    6.3683    0.2929 O   0  0  0  0  0  0  0  0  0  0  0  0
    8.5517    6.5958    0.0235 C   0  0  0  0  0  0  0  0  0  0  0  0
    8.8875    7.8481   -0.4903 C   0  0  0  0  0  0  0  0  0  0  0  0
   10.2255    8.1819   -0.7083 C   0  0  0  0  0  0  0  0  0  0  0  0
   11.2411    7.2677   -0.3906 C   0  0  0  0  0  0  0  0  0  0  0  0
   12.6188    7.5360   -0.6092 N   0  0  0  0  0  0  0  0  0  0  0  0
   13.2026    8.7562   -0.8963 C   0  0  0  0  0  0  0  0  0  0  0  0
   14.0293    8.7928   -1.8934 N   0  0  0  0  0  0  0  0  0  0  0  0
   14.6784    9.9604   -2.2327 C   0  0  0  0  0  0  0  0  0  0  0  0
   15.5480   10.0292   -3.0702 O   0  0  0  0  0  0  0  0  0  0  0  0
   14.2162   11.1381   -1.5703 N   0  0  0  0  0  0  0  0  0  0  0  0
   14.7482   12.4389   -1.9729 C   0  0  0  0  0  0  0  0  0  0  0  0
   13.3945   11.1182   -0.4657 C   0  0  0  0  0  0  0  0  0  0  0  0
   13.1072   12.1144    0.1685 O   0  0  0  0  0  0  0  0  0  0  0  0
   12.9141    9.8418   -0.0912 N   0  0  0  0  0  0  0  0  0  0  0  0
   12.3781    9.7386    1.2896 C   0  0  0  0  0  0  0  0  0  0  0  0
   13.4635    9.5763    2.3357 C   0  0  0  0  0  0  0  0  0  0  0  0
   14.0682   10.6984    2.9257 C   0  0  0  0  0  0  0  0  0  0  0  0
   15.0725   10.5513    3.8844 C   0  0  0  0  0  0  0  0  0  0  0  0
   15.4804    9.2682    4.2605 C   0  0  0  0  0  0  0  0  0  0  0  0
   16.7347    9.0755    5.4624 Cl  0  0  0  0  0  0  0  0  0  0  0  0
   14.8928    8.1364    3.6884 C   0  0  0  0  0  0  0  0  0  0  0  0
   13.8894    8.2986    2.7314 C   0  0  0  0  0  0  0  0  0  0  0  0
   10.8872    6.0127    0.1340 C   0  0  0  0  0  0  0  0  0  0  0  0
    9.5522    5.6699    0.3343 C   0  0  0  0  0  0  0  0  0  0  0  0
    7.1524    4.4159   -0.9482 N   0  0  0  0  0  0  0  0  0  0  0  0
    6.4893    3.3603   -1.3944 N   0  0  0  0  0  0  0  0  0  0  0  0
    4.3248   -0.8189   -5.0229 H   0  0  0  0  0  0  0  0  0  0  0  0
    5.6379    0.3830   -5.0323 H   0  0  0  0  0  0  0  0  0  0  0  0
    3.9491    0.9132   -4.8168 H   0  0  0  0  0  0  0  0  0  0  0  0
    5.4901   -0.8740   -2.8192 H   0  0  0  0  0  0  0  0  0  0  0  0
    3.8336   -0.2722   -2.6009 H   0  0  0  0  0  0  0  0  0  0  0  0
    6.2352    1.5000   -2.5515 H   0  0  0  0  0  0  0  0  0  0  0  0
    3.4866    3.8172    0.0601 H   0  0  0  0  0  0  0  0  0  0  0  0
    4.7619    5.8820    0.9413 H   0  0  0  0  0  0  0  0  0  0  0  0
    8.0909    8.5550   -0.7292 H   0  0  0  0  0  0  0  0  0  0  0  0
   10.4720    9.1559   -1.1337 H   0  0  0  0  0  0  0  0  0  0  0  0
   13.1064    6.8063   -1.1247 H   0  0  0  0  0  0  0  0  0  0  0  0
   15.3240   12.2873   -2.8914 H   0  0  0  0  0  0  0  0  0  0  0  0
   15.4007   12.8514   -1.1884 H   0  0  0  0  0  0  0  0  0  0  0  0
   13.9234   13.1457   -2.1387 H   0  0  0  0  0  0  0  0  0  0  0  0
   11.6789    8.8996    1.3303 H   0  0  0  0  0  0  0  0  0  0  0  0
   11.8123   10.6609    1.4631 H   0  0  0  0  0  0  0  0  0  0  0  0
   13.7524   11.6986    2.6214 H   0  0  0  0  0  0  0  0  0  0  0  0
   15.5388   11.4252    4.3425 H   0  0  0  0  0  0  0  0  0  0  0  0
   15.2189    7.1414    3.9956 H   0  0  0  0  0  0  0  0  0  0  0  0
   13.4294    7.4127    2.2865 H   0  0  0  0  0  0  0  0  0  0  0  0
   11.6729    5.2968    0.3873 H   0  0  0  0  0  0  0  0  0  0  0  0
    9.2918    4.6897    0.7324 H   0  0  0  0  0  0  0  0  0  0  0  0
  1  2  1  0
  1 37  1  0
  1 38  1  0
  1 39  1  0
  2  3  1  0
  2 40  1  0
  2 41  1  0
  3  4  1  0
  3 42  1  0
  4  5  2  0
  4  6  1  0
  6  7  2  0
  6 36  1  0
  7  8  1  0
  7 43  1  0
  8  9  2  0
  8 44  1  0
  9 10  1  0
  9 35  1  0
 10 11  1  0
 11 12  2  0
 11 34  1  0
 12 13  1  0
 12 45  1  0
 13 14  2  0
 13 46  1  0
 14 15  1  0
 14 33  1  0
 15 16  1  0
 15 47  1  0
 16 17  2  0
 16 24  1  0
 17 18  1  0
 18 19  2  0
 18 20  1  0
 20 21  1  0
 20 22  1  0
 21 48  1  0
 21 49  1  0
 21 50  1  0
 22 23  2  0
 22 24  1  0
 24 25  1  0
 25 26  1  0
 25 51  1  0
 25 52  1  0
 26 27  2  0
 26 32  1  0
 27 28  1  0
 27 53  1  0
 28 29  2  0
 28 54  1  0
 29 30  1  0
 29 31  1  0
 31 32  2  0
 31 55  1  0
 32 56  1  0
 33 34  2  0
 33 57  1  0
 34 58  1  0
 35 36  2  0
M  END

