
     RDKit          3D

 45 46  0  0  0  0  0  0  0  0999 V2000
    1.2244   -4.4882   -4.1611 C   0  0  0  0  0  0  0  0  0  0  0  0
    0.8315   -5.9462   -4.1165 C   0  0  0  0  0  0  0  0  0  0  0  0
    0.8087   -6.6978   -5.2950 C   0  0  0  0  0  0  0  0  0  0  0  0
    0.4531   -8.0663   -5.3143 C   0  0  0  0  0  0  0  0  0  0  0  0
    0.4341   -8.7877   -6.4919 N   0  0  0  0  0  0  0  0  0  0  0  0
    0.6367   -8.1962   -7.8067 C   0  0  0  0  0  0  0  0  0  0  0  0
    0.2209   -9.3113   -8.7764 C   0  0  0  0  0  0  0  0  0  0  0  0
    0.5456  -10.5923   -7.9964 C   0  0  0  0  0  0  0  0  0  0  0  0
    0.1843  -10.2211   -6.5520 C   0  0  0  0  0  0  0  0  0  0  0  0
    0.1187   -8.6612   -4.0774 C   0  0  0  0  0  0  0  0  0  0  0  0
    0.1400   -7.9273   -2.8942 C   0  0  0  0  0  0  0  0  0  0  0  0
    0.4914   -6.5678   -2.8917 C   0  0  0  0  0  0  0  0  0  0  0  0
    0.5181   -5.7918   -1.7129 N   0  0  0  0  0  0  0  0  0  0  0  0
    0.2139   -6.1444   -0.4321 C   0  0  0  0  0  0  0  0  0  0  0  0
   -0.1476   -7.2522   -0.0580 O   0  0  0  0  0  0  0  0  0  0  0  0
    0.3970   -4.9946    0.5846 C   0  0  2  0  0  0  0  0  0  0  0  0
   -0.4630   -5.0941    1.2735 H   0  0  0  0  0  0  0  0  0  0  0  0
    0.4294   -3.6947   -0.0952 N   0  0  0  0  0  0  0  0  0  0  0  0
    1.6804   -5.1853    1.4426 C   0  0  1  0  0  0  0  0  0  0  0  0
    1.5712   -6.3841    2.3914 C   0  0  0  0  0  0  0  0  0  0  0  0
    2.9612   -5.2484    0.5994 C   0  0  0  0  0  0  0  0  0  0  0  0
    1.4505   -4.1700   -5.1887 H   0  0  0  0  0  0  0  0  0  0  0  0
    2.1198   -4.2833   -3.5479 H   0  0  0  0  0  0  0  0  0  0  0  0
    0.4215   -3.8311   -3.7825 H   0  0  0  0  0  0  0  0  0  0  0  0
    1.0865   -6.1982   -6.2241 H   0  0  0  0  0  0  0  0  0  0  0  0
    1.6940   -7.8971   -7.9641 H   0  0  0  0  0  0  0  0  0  0  0  0
    0.0257   -7.2854   -7.9377 H   0  0  0  0  0  0  0  0  0  0  0  0
    0.7378   -9.2451   -9.7455 H   0  0  0  0  0  0  0  0  0  0  0  0
   -0.8628   -9.2522   -8.9725 H   0  0  0  0  0  0  0  0  0  0  0  0
    1.6231  -10.8164   -8.0678 H   0  0  0  0  0  0  0  0  0  0  0  0
   -0.0025  -11.4756   -8.3569 H   0  0  0  0  0  0  0  0  0  0  0  0
    0.7996  -10.7682   -5.8162 H   0  0  0  0  0  0  0  0  0  0  0  0
   -0.8752  -10.4626   -6.3257 H   0  0  0  0  0  0  0  0  0  0  0  0
   -0.1731   -9.7109   -4.0318 H   0  0  0  0  0  0  0  0  0  0  0  0
   -0.1233   -8.3993   -1.9499 H   0  0  0  0  0  0  0  0  0  0  0  0
    0.7851   -4.8105   -1.7842 H   0  0  0  0  0  0  0  0  0  0  0  0
    0.8521   -2.9836    0.5008 H   0  0  0  0  0  0  0  0  0  0  0  0
   -0.5152   -3.3745   -0.3089 H   0  0  0  0  0  0  0  0  0  0  0  0
    1.7362   -4.2736    2.0705 H   0  0  0  0  0  0  0  0  0  0  0  0
    1.4606   -7.3238    1.8316 H   0  0  0  0  0  0  0  0  0  0  0  0
    0.6966   -6.2941    3.0555 H   0  0  0  0  0  0  0  0  0  0  0  0
    2.4709   -6.4535    3.0240 H   0  0  0  0  0  0  0  0  0  0  0  0
    2.9966   -6.1704   -0.0034 H   0  0  0  0  0  0  0  0  0  0  0  0
    3.8505   -5.2444    1.2498 H   0  0  0  0  0  0  0  0  0  0  0  0
    3.0420   -4.3920   -0.0876 H   0  0  0  0  0  0  0  0  0  0  0  0
  1  2  1  0
  1 22  1  0
  1 23  1  0
  1 24  1  0
  2  3  2  0
  2 12  1  0
  3  4  1  0
  3 25  1  0
  4  5  1  0
  4 10  2  0
  5  6  1  0
  5  9  1  0
  6  7  1  0
  6 26  1  0
  6 27  1  0
  7  8  1  0
  7 28  1  0
  7 29  1  0
  8  9  1  0
  8 30  1  0
  8 31  1  0
  9 32  1  0
  9 33  1  0
 10 11  1  0
 10 34  1  0
 11 12  2  0
 11 35  1  0
 12 13  1  0
 13 14  1  0
 13 36  1  0
 14 15  2  0
 14 16  1  0
 16 17  1  1
 16 18  1  0
 16 19  1  0
 18 37  1  0
 18 38  1  0
 19 20  1  0
 19 21  1  0
 19 39  1  1
 20 40  1  0
 20 41  1  0
 20 42  1  0
 21 43  1  0
 21 44  1  0
 21 45  1  0
M  END

