
     RDKit          3D

 53 56  0  0  0  0  0  0  0  0999 V2000
    2.2430    0.2033   -1.8104 C   0  0  0  0  0  0  0  0  0  0  0  0
    2.1811   -0.4301   -0.4120 C   0  0  0  0  0  0  0  0  0  0  0  0
    2.9092   -1.7437   -0.3182 C   0  0  0  0  0  0  0  0  0  0  0  0
    4.2156   -1.7400   -0.1649 N   0  0  0  0  0  0  0  0  0  0  0  0
    4.5814   -3.0517   -0.1128 N   0  0  0  0  0  0  0  0  0  0  0  0
    3.4846   -3.9039   -0.1893 C   0  0  0  0  0  0  0  0  0  0  0  0
    2.3646   -3.0879   -0.3333 C   0  0  0  0  0  0  0  0  0  0  0  0
    0.9488   -3.4919   -0.3510 C   0  0  0  0  0  0  0  0  0  0  0  0
    0.4865   -4.5359    0.4799 C   0  0  0  0  0  0  0  0  0  0  0  0
   -0.8529   -4.9120    0.4925 C   0  0  0  0  0  0  0  0  0  0  0  0
   -1.7843   -4.2482   -0.3286 C   0  0  0  0  0  0  0  0  0  0  0  0
   -3.1680   -4.6299   -0.3161 C   0  0  0  0  0  0  0  0  0  0  0  0
   -4.2877   -4.9391   -0.3059 N   0  0  0  0  0  0  0  0  0  0  0  0
   -1.3386   -3.2077   -1.1645 C   0  0  0  0  0  0  0  0  0  0  0  0
    0.0051   -2.8428   -1.1743 C   0  0  0  0  0  0  0  0  0  0  0  0
    3.6613   -5.2712   -0.1447 N   0  0  0  0  0  0  0  0  0  0  0  0
    3.0143   -6.0942   -1.1653 C   0  0  0  0  0  0  0  0  0  0  0  0
    4.9059   -5.7359    0.4980 C   0  0  2  0  0  0  0  0  0  0  0  0
    4.7839   -5.7129    2.0362 C   0  0  0  0  0  0  0  0  0  0  0  0
    5.3752   -4.6845    2.7860 C   0  0  0  0  0  0  0  0  0  0  0  0
    5.2623   -4.6147    4.1778 C   0  0  0  0  0  0  0  0  0  0  0  0
    4.5559   -5.5950    4.8678 C   0  0  0  0  0  0  0  0  0  0  0  0
    3.9706   -6.6405    4.1527 C   0  0  0  0  0  0  0  0  0  0  0  0
    4.0758   -6.7109    2.7576 C   0  0  0  0  0  0  0  0  0  0  0  0
    3.3768   -7.8755    2.0847 C   0  0  1  0  0  0  0  0  0  0  0  0
    4.1747   -8.5313    1.2101 F   0  0  0  0  0  0  0  0  0  0  0  0
    2.9512   -8.7906    2.9666 F   0  0  0  0  0  0  0  0  0  0  0  0
    2.2890   -7.4792    1.3867 F   0  0  0  0  0  0  0  0  0  0  0  0
    6.1257   -4.9627   -0.0547 C   0  0  1  0  0  0  0  0  0  0  0  0
    6.4869   -5.3890   -1.4910 C   0  0  0  0  0  0  0  0  0  0  0  0
    5.9287   -3.4469   -0.0322 C   0  0  0  0  0  0  0  0  0  0  0  0
    6.8373   -2.6572    0.0082 O   0  0  0  0  0  0  0  0  0  0  0  0
    1.7233    1.1743   -1.8236 H   0  0  0  0  0  0  0  0  0  0  0  0
    1.7768   -0.4389   -2.5755 H   0  0  0  0  0  0  0  0  0  0  0  0
    3.2889    0.3685   -2.1104 H   0  0  0  0  0  0  0  0  0  0  0  0
    1.1347   -0.5613   -0.0966 H   0  0  0  0  0  0  0  0  0  0  0  0
    2.6496    0.2567    0.3103 H   0  0  0  0  0  0  0  0  0  0  0  0
    1.1909   -5.0559    1.1308 H   0  0  0  0  0  0  0  0  0  0  0  0
   -1.1886   -5.7197    1.1460 H   0  0  0  0  0  0  0  0  0  0  0  0
   -2.0510   -2.6942   -1.8131 H   0  0  0  0  0  0  0  0  0  0  0  0
    0.3321   -2.0525   -1.8510 H   0  0  0  0  0  0  0  0  0  0  0  0
    3.3456   -5.8338   -2.1875 H   0  0  0  0  0  0  0  0  0  0  0  0
    1.9212   -5.9871   -1.1219 H   0  0  0  0  0  0  0  0  0  0  0  0
    3.2452   -7.1491   -0.9774 H   0  0  0  0  0  0  0  0  0  0  0  0
    5.0320   -6.7803    0.1968 H   0  0  0  0  0  0  0  0  0  0  0  0
    5.9528   -3.9047    2.2915 H   0  0  0  0  0  0  0  0  0  0  0  0
    5.7360   -3.7892    4.7142 H   0  0  0  0  0  0  0  0  0  0  0  0
    4.4623   -5.5571    5.9553 H   0  0  0  0  0  0  0  0  0  0  0  0
    3.4261   -7.4204    4.6846 H   0  0  0  0  0  0  0  0  0  0  0  0
    7.0019   -5.1555    0.5813 H   0  0  0  0  0  0  0  0  0  0  0  0
    5.6637   -5.1943   -2.1951 H   0  0  0  0  0  0  0  0  0  0  0  0
    6.7205   -6.4646   -1.5261 H   0  0  0  0  0  0  0  0  0  0  0  0
    7.3690   -4.8324   -1.8388 H   0  0  0  0  0  0  0  0  0  0  0  0
  1  2  1  0
  1 33  1  0
  1 34  1  0
  1 35  1  0
  2  3  1  0
  2 36  1  0
  2 37  1  0
  3  4  2  0
  3  7  1  0
  4  5  1  0
  5  6  1  0
  5 31  1  0
  6  7  2  0
  6 16  1  0
  7  8  1  0
  8  9  2  0
  8 15  1  0
  9 10  1  0
  9 38  1  0
 10 11  2  0
 10 39  1  0
 11 12  1  0
 11 14  1  0
 12 13  3  0
 14 15  2  0
 14 40  1  0
 15 41  1  0
 16 17  1  0
 16 18  1  0
 17 42  1  0
 17 43  1  0
 17 44  1  0
 18 19  1  0
 18 29  1  0
 18 45  1  6
 19 20  2  0
 19 24  1  0
 20 21  1  0
 20 46  1  0
 21 22  2  0
 21 47  1  0
 22 23  1  0
 22 48  1  0
 23 24  2  0
 23 49  1  0
 24 25  1  0
 25 26  1  6
 25 27  1  0
 25 28  1  0
 29 30  1  0
 29 31  1  0
 29 50  1  1
 30 51  1  0
 30 52  1  0
 30 53  1  0
 31 32  2  0
M  END

