
     RDKit          3D

 38 38  0  0  0  0  0  0  0  0999 V2000
    2.9264    0.2610    1.6098 C   0  0  0  0  0  0  0  0  0  0  0  0
    2.7374   -0.2597    0.1822 C   0  0  0  0  0  0  0  0  0  0  0  0
    3.1369    0.6926   -0.8518 N   0  0  0  0  0  0  0  0  0  0  0  0
    2.1366    1.6161   -1.3608 C   0  0  0  0  0  0  0  0  0  0  0  0
    1.1553    1.0524   -2.4228 C   0  0  1  0  0  0  0  0  0  0  0  0
    0.3198    2.2125   -2.9811 C   0  0  0  0  0  0  0  0  0  0  0  0
    1.8911    0.3183   -3.5410 C   0  0  0  0  0  0  0  0  0  0  0  0
    0.2760    0.0790   -1.8367 O   0  0  0  0  0  0  0  0  0  0  0  0
    4.4609    0.8107   -1.2179 C   0  0  0  0  0  0  0  0  0  0  0  0
    4.7574    1.7283   -2.1680 N   0  0  0  0  0  0  0  0  0  0  0  0
    6.0458    1.8490   -2.5366 C   0  0  0  0  0  0  0  0  0  0  0  0
    6.3441    2.8833   -3.5891 C   0  0  0  0  0  0  0  0  0  0  0  0
    7.0469    1.0576   -1.9800 C   0  0  0  0  0  0  0  0  0  0  0  0
    6.6512    0.1193   -0.9955 C   0  0  0  0  0  0  0  0  0  0  0  0
    7.5572   -0.7650   -0.3241 C   0  0  0  0  0  0  0  0  0  0  0  0
    7.0381   -1.5857    0.6039 N   0  0  0  0  0  0  0  0  0  0  0  0
    9.2801   -0.8448   -0.6227 S   0  0  0  0  0  0  0  0  0  0  0  0
    5.3440    0.0115   -0.6127 N   0  0  0  0  0  0  0  0  0  0  0  0
    2.5799   -0.4865    2.3429 H   0  0  0  0  0  0  0  0  0  0  0  0
    2.3529    1.1869    1.7820 H   0  0  0  0  0  0  0  0  0  0  0  0
    3.9870    0.4761    1.8099 H   0  0  0  0  0  0  0  0  0  0  0  0
    1.6857   -0.5119   -0.0068 H   0  0  0  0  0  0  0  0  0  0  0  0
    3.3159   -1.1840    0.0425 H   0  0  0  0  0  0  0  0  0  0  0  0
    2.6684    2.4712   -1.7945 H   0  0  0  0  0  0  0  0  0  0  0  0
    1.5327    1.9933   -0.5128 H   0  0  0  0  0  0  0  0  0  0  0  0
    0.9444    2.9365   -3.5270 H   0  0  0  0  0  0  0  0  0  0  0  0
   -0.1912    2.7597   -2.1688 H   0  0  0  0  0  0  0  0  0  0  0  0
   -0.4487    1.8250   -3.6672 H   0  0  0  0  0  0  0  0  0  0  0  0
    2.6375    0.9732   -4.0121 H   0  0  0  0  0  0  0  0  0  0  0  0
    1.1724   -0.0281   -4.2992 H   0  0  0  0  0  0  0  0  0  0  0  0
    2.4132   -0.5605   -3.1362 H   0  0  0  0  0  0  0  0  0  0  0  0
   -0.3128    0.5421   -1.2251 H   0  0  0  0  0  0  0  0  0  0  0  0
    5.9975    3.8747   -3.2543 H   0  0  0  0  0  0  0  0  0  0  0  0
    5.7911    2.6520   -4.5146 H   0  0  0  0  0  0  0  0  0  0  0  0
    7.4167    2.9406   -3.8230 H   0  0  0  0  0  0  0  0  0  0  0  0
    8.0866    1.1644   -2.2908 H   0  0  0  0  0  0  0  0  0  0  0  0
    6.0274   -1.4997    0.7205 H   0  0  0  0  0  0  0  0  0  0  0  0
    7.5821   -2.2710    1.1078 H   0  0  0  0  0  0  0  0  0  0  0  0
  1  2  1  0
  1 19  1  0
  1 20  1  0
  1 21  1  0
  2  3  1  0
  2 22  1  0
  2 23  1  0
  3  4  1  0
  3  9  1  0
  4  5  1  0
  4 24  1  0
  4 25  1  0
  5  6  1  0
  5  7  1  0
  5  8  1  1
  6 26  1  0
  6 27  1  0
  6 28  1  0
  7 29  1  0
  7 30  1  0
  7 31  1  0
  8 32  1  0
  9 10  2  0
  9 18  1  0
 10 11  1  0
 11 12  1  0
 11 13  2  0
 12 33  1  0
 12 34  1  0
 12 35  1  0
 13 14  1  0
 13 36  1  0
 14 15  1  0
 14 18  2  0
 15 16  1  0
 15 17  2  0
 16 37  1  0
 16 38  1  0
M  END

