
     RDKit          3D

 60 62  0  0  0  0  0  0  0  0999 V2000
    0.9516   -1.0732    1.8596 C   0  0  0  0  0  0  0  0  0  0  0  0
    2.3690   -0.6007    1.5324 C   0  0  1  0  0  0  0  0  0  0  0  0
    2.4284    0.0481    0.1458 C   0  0  0  0  0  0  0  0  0  0  0  0
    2.8049    0.3324    2.5704 N   0  0  0  0  0  0  0  0  0  0  0  0
    4.2149    0.6605    2.5950 C   0  0  0  0  0  0  0  0  0  0  0  0
    4.5339    1.4359    3.8773 C   0  0  1  0  0  0  0  0  0  0  0  0
    4.1952    0.6875    5.0320 O   0  0  0  0  0  0  0  0  0  0  0  0
    5.9765    1.9199    3.9601 C   0  0  0  0  0  0  0  0  0  0  0  0
    6.8184    0.7643    4.0330 O   0  0  0  0  0  0  0  0  0  0  0  0
    8.1500    0.8832    4.1524 C   0  0  0  0  0  0  0  0  0  0  0  0
    8.8356    2.1173    4.2198 C   0  0  0  0  0  0  0  0  0  0  0  0
   10.2146    2.1344    4.3421 C   0  0  0  0  0  0  0  0  0  0  0  0
   10.9665    0.9277    4.4010 C   0  0  0  0  0  0  0  0  0  0  0  0
   12.3866    0.9255    4.5264 C   0  0  0  0  0  0  0  0  0  0  0  0
   13.0750    2.0601    4.5949 N   0  0  0  0  0  0  0  0  0  0  0  0
   14.3430    2.0082    4.7041 N   0  0  0  0  0  0  0  0  0  0  0  0
   15.2405    3.1329    4.7935 C   0  0  0  0  0  0  0  0  0  0  0  0
   14.8328    4.4523    4.7755 C   0  0  0  0  0  0  0  0  0  0  0  0
   15.9156    5.4002    4.8771 C   0  0  0  0  0  0  0  0  0  0  0  0
   17.2166    4.8696    4.9932 C   0  0  0  0  0  0  0  0  0  0  0  0
   18.3349    5.6869    5.1264 N   0  0  0  0  0  0  0  0  0  0  0  0
   18.2652    7.1331    5.1475 C   0  0  0  0  0  0  0  0  0  0  0  0
   19.3286    7.6966    6.0958 C   0  0  0  0  0  0  0  0  0  0  0  0
   20.6187    7.2124    5.7993 O   0  0  0  0  0  0  0  0  0  0  0  0
   20.6631    5.7972    5.8670 C   0  0  0  0  0  0  0  0  0  0  0  0
   19.6741    5.1601    4.8991 C   0  0  0  0  0  0  0  0  0  0  0  0
   17.5017    3.5473    4.9934 N   0  0  0  0  0  0  0  0  0  0  0  0
   16.4713    2.6616    4.8905 N   0  0  0  0  0  0  0  0  0  0  0  0
   10.2546   -0.3041    4.3307 C   0  0  0  0  0  0  0  0  0  0  0  0
    8.8806   -0.3274    4.2094 C   0  0  0  0  0  0  0  0  0  0  0  0
    0.5903   -1.7919    1.1082 H   0  0  0  0  0  0  0  0  0  0  0  0
    0.2579   -0.2173    1.8864 H   0  0  0  0  0  0  0  0  0  0  0  0
    0.9148   -1.5704    2.8436 H   0  0  0  0  0  0  0  0  0  0  0  0
    3.0312   -1.4995    1.5077 H   0  0  0  0  0  0  0  0  0  0  0  0
    1.7928    0.9482    0.1185 H   0  0  0  0  0  0  0  0  0  0  0  0
    2.0771   -0.6537   -0.6270 H   0  0  0  0  0  0  0  0  0  0  0  0
    3.4527    0.3473   -0.1270 H   0  0  0  0  0  0  0  0  0  0  0  0
    2.5551   -0.0329    3.4893 H   0  0  0  0  0  0  0  0  0  0  0  0
    4.4783    1.2903    1.7268 H   0  0  0  0  0  0  0  0  0  0  0  0
    4.8795   -0.2344    2.5422 H   0  0  0  0  0  0  0  0  0  0  0  0
    3.8869    2.3285    3.8985 H   0  0  0  0  0  0  0  0  0  0  0  0
    4.8294   -0.0422    5.0953 H   0  0  0  0  0  0  0  0  0  0  0  0
    6.1085    2.5268    4.8714 H   0  0  0  0  0  0  0  0  0  0  0  0
    6.2448    2.5282    3.0790 H   0  0  0  0  0  0  0  0  0  0  0  0
    8.2911    3.0600    4.1782 H   0  0  0  0  0  0  0  0  0  0  0  0
   10.7495    3.0832    4.3959 H   0  0  0  0  0  0  0  0  0  0  0  0
   12.9150   -0.0409    4.5665 H   0  0  0  0  0  0  0  0  0  0  0  0
   14.8666    1.1191    4.7400 H   0  0  0  0  0  0  0  0  0  0  0  0
   13.7921    4.7496    4.6757 H   0  0  0  0  0  0  0  0  0  0  0  0
   15.7206    6.4665    4.8088 H   0  0  0  0  0  0  0  0  0  0  0  0
   17.2781    7.4584    5.5002 H   0  0  0  0  0  0  0  0  0  0  0  0
   18.4213    7.5548    4.1316 H   0  0  0  0  0  0  0  0  0  0  0  0
   19.0509    7.4361    7.1391 H   0  0  0  0  0  0  0  0  0  0  0  0
   19.3665    8.7943    6.0121 H   0  0  0  0  0  0  0  0  0  0  0  0
   20.4414    5.4587    6.9004 H   0  0  0  0  0  0  0  0  0  0  0  0
   21.6927    5.4979    5.6170 H   0  0  0  0  0  0  0  0  0  0  0  0
   19.6300    4.0709    5.0176 H   0  0  0  0  0  0  0  0  0  0  0  0
   19.9961    5.3850    3.8601 H   0  0  0  0  0  0  0  0  0  0  0  0
   10.8093   -1.2447    4.3734 H   0  0  0  0  0  0  0  0  0  0  0  0
    8.3297   -1.2678    4.1531 H   0  0  0  0  0  0  0  0  0  0  0  0
  1  2  1  0
  1 31  1  0
  1 32  1  0
  1 33  1  0
  2  3  1  0
  2  4  1  0
  2 34  1  6
  3 35  1  0
  3 36  1  0
  3 37  1  0
  4  5  1  0
  4 38  1  0
  5  6  1  0
  5 39  1  0
  5 40  1  0
  6  7  1  0
  6  8  1  0
  6 41  1  1
  7 42  1  0
  8  9  1  0
  8 43  1  0
  8 44  1  0
  9 10  1  0
 10 11  2  0
 10 30  1  0
 11 12  1  0
 11 45  1  0
 12 13  2  0
 12 46  1  0
 13 14  1  0
 13 29  1  0
 14 15  2  0
 14 47  1  0
 15 16  1  0
 16 17  1  0
 16 48  1  0
 17 18  2  0
 17 28  1  0
 18 19  1  0
 18 49  1  0
 19 20  2  0
 19 50  1  0
 20 21  1  0
 20 27  1  0
 21 22  1  0
 21 26  1  0
 22 23  1  0
 22 51  1  0
 22 52  1  0
 23 24  1  0
 23 53  1  0
 23 54  1  0
 24 25  1  0
 25 26  1  0
 25 55  1  0
 25 56  1  0
 26 57  1  0
 26 58  1  0
 27 28  2  0
 29 30  2  0
 29 59  1  0
 30 60  1  0
M  END

