
     RDKit          3D

 50 52  0  0  0  0  0  0  0  0999 V2000
    1.0699   -0.0743   -0.7966 C   0  0  0  0  0  0  0  0  0  0  0  0
    2.5668    0.0964   -0.5612 C   0  0  1  0  0  0  0  0  0  0  0  0
    3.2326    1.0666   -1.5799 C   0  0  0  0  0  0  0  0  0  0  0  0
    4.5174    1.5548   -0.8528 C   0  0  0  0  0  0  0  0  0  0  0  0
    4.5026    0.7291    0.4497 C   0  0  1  0  0  0  0  0  0  0  0  0
    2.9980    0.7367    0.7775 C   0  0  0  0  0  0  0  0  0  0  0  0
    4.7696   -0.7879    0.1632 C   0  0  1  0  0  0  0  0  0  0  0  0
    6.0025   -1.0412   -0.7195 C   0  0  0  0  0  0  0  0  0  0  0  0
    4.9887   -1.5121    1.5040 C   0  0  0  0  0  0  0  0  0  0  0  0
    3.4191   -1.2205   -0.5717 C   0  0  1  0  0  0  0  0  0  0  0  0
    2.7358   -2.3453    0.0556 N   0  0  0  0  0  0  0  0  0  0  0  0
    3.1586   -3.6618   -0.3946 C   0  0  0  0  0  0  0  0  0  0  0  0
    2.3406   -4.7626    0.2768 C   0  0  0  0  0  0  0  0  0  0  0  0
    2.7516   -6.1717   -0.1484 C   0  0  0  0  0  0  0  0  0  0  0  0
    1.7721   -7.2385    0.3434 C   0  0  0  0  0  0  0  0  0  0  0  0
    0.5767   -7.0312    0.4467 O   0  0  0  0  0  0  0  0  0  0  0  0
    2.3342   -8.4605    0.6160 N   0  0  0  0  0  0  0  0  0  0  0  0
    1.5674   -9.5674    1.1056 C   0  0  1  0  0  0  0  0  0  0  0  0
    0.6794  -10.3272    0.1573 C   0  0  0  0  0  0  0  0  0  0  0  0
    1.9564  -10.9522    0.6575 C   0  0  0  0  0  0  0  0  0  0  0  0
    0.5733    0.9091   -0.8276 H   0  0  0  0  0  0  0  0  0  0  0  0
    0.5798   -0.6492    0.0058 H   0  0  0  0  0  0  0  0  0  0  0  0
    0.8622   -0.5766   -1.7571 H   0  0  0  0  0  0  0  0  0  0  0  0
    2.5529    1.9058   -1.7981 H   0  0  0  0  0  0  0  0  0  0  0  0
    3.4420    0.5675   -2.5396 H   0  0  0  0  0  0  0  0  0  0  0  0
    4.4503    2.6278   -0.6126 H   0  0  0  0  0  0  0  0  0  0  0  0
    5.4331    1.4210   -1.4447 H   0  0  0  0  0  0  0  0  0  0  0  0
    5.1710    1.1286    1.2284 H   0  0  0  0  0  0  0  0  0  0  0  0
    2.5903    1.7522    0.9168 H   0  0  0  0  0  0  0  0  0  0  0  0
    2.7193    0.1275    1.6494 H   0  0  0  0  0  0  0  0  0  0  0  0
    6.9067   -0.5841   -0.2827 H   0  0  0  0  0  0  0  0  0  0  0  0
    5.8857   -0.6453   -1.7394 H   0  0  0  0  0  0  0  0  0  0  0  0
    6.1937   -2.1230   -0.8138 H   0  0  0  0  0  0  0  0  0  0  0  0
    5.8987   -1.1191    1.9876 H   0  0  0  0  0  0  0  0  0  0  0  0
    5.1309   -2.5939    1.3669 H   0  0  0  0  0  0  0  0  0  0  0  0
    4.1467   -1.3845    2.1962 H   0  0  0  0  0  0  0  0  0  0  0  0
    3.6555   -1.4709   -1.6288 H   0  0  0  0  0  0  0  0  0  0  0  0
    1.7327   -2.2653   -0.0902 H   0  0  0  0  0  0  0  0  0  0  0  0
    4.2277   -3.7980   -0.1549 H   0  0  0  0  0  0  0  0  0  0  0  0
    3.0884   -3.7727   -1.5034 H   0  0  0  0  0  0  0  0  0  0  0  0
    1.2706   -4.6365    0.0401 H   0  0  0  0  0  0  0  0  0  0  0  0
    2.4258   -4.6552    1.3711 H   0  0  0  0  0  0  0  0  0  0  0  0
    3.7795   -6.4018    0.1824 H   0  0  0  0  0  0  0  0  0  0  0  0
    2.7623   -6.2398   -1.2524 H   0  0  0  0  0  0  0  0  0  0  0  0
    3.3446   -8.5345    0.6361 H   0  0  0  0  0  0  0  0  0  0  0  0
    1.1987   -9.4565    2.1333 H   0  0  0  0  0  0  0  0  0  0  0  0
    0.6505   -9.9808   -0.8785 H   0  0  0  0  0  0  0  0  0  0  0  0
   -0.2757  -10.6940    0.5419 H   0  0  0  0  0  0  0  0  0  0  0  0
    2.7893  -11.0388   -0.0473 H   0  0  0  0  0  0  0  0  0  0  0  0
    1.9007  -11.7621    1.3899 H   0  0  0  0  0  0  0  0  0  0  0  0
  2  1  1  1
  1 21  1  0
  1 22  1  0
  1 23  1  0
  2  3  1  0
  2  6  1  0
  2 10  1  0
  3  4  1  0
  3 24  1  0
  3 25  1  0
  4  5  1  0
  4 26  1  0
  4 27  1  0
  5  6  1  0
  5  7  1  0
  5 28  1  1
  6 29  1  0
  6 30  1  0
  7  8  1  6
  7  9  1  0
  7 10  1  0
  8 31  1  0
  8 32  1  0
  8 33  1  0
  9 34  1  0
  9 35  1  0
  9 36  1  0
 10 11  1  0
 10 37  1  6
 11 12  1  0
 11 38  1  0
 12 13  1  0
 12 39  1  0
 12 40  1  0
 13 14  1  0
 13 41  1  0
 13 42  1  0
 14 15  1  0
 14 43  1  0
 14 44  1  0
 15 16  2  0
 15 17  1  0
 17 18  1  0
 17 45  1  0
 18 19  1  0
 18 20  1  0
 18 46  1  1
 19 20  1  0
 19 47  1  0
 19 48  1  0
 20 49  1  0
 20 50  1  0
M  END

